DAN-LON-a5fc619e-5-bromoalkyne
     RDKit          3D

 22 24  0  0  0  0  0  0  0  0999 V2000
    6.7750   -3.3770   19.6070 C   0  0  0  0  0  0  0  0  0  0  0  0
    5.9510   -2.8740   18.7150 C   0  0  0  0  0  0  0  0  0  0  0  0
    6.6350   -3.0120   20.9400 N   0  0  0  0  0  0  0  0  0  0  0  0
    6.4410   -3.8850   22.1070 C   0  0  0  0  0  0  0  0  0  0  0  0
    6.7520   -1.6110   21.3820 C   0  0  1  0  0  0  0  0  0  0  0  0
    7.5710   -3.6840   23.1440 C   0  0  0  0  0  0  0  0  0  0  0  0
    8.1370   -1.4870   22.0470 C   0  0  0  0  0  0  0  0  0  0  0  0
    6.2650   -0.5050   20.4170 C   0  0  0  0  0  0  0  0  0  0  0  0
    8.1290   -2.3160   23.2780 N   0  0  0  0  0  0  0  0  0  0  0  0
    5.0250    0.2620   20.9060 C   0  0  0  0  0  0  0  0  0  0  0  0
    6.8550   -0.1860   19.1870 C   0  0  0  0  0  0  0  0  0  0  0  0
    9.2290   -2.2220   24.2360 C   0  0  0  0  0  0  0  0  0  0  0  0
    4.5420    1.3410   19.9420 C   0  0  0  0  0  0  0  0  0  0  0  0
    6.3320    0.8310   18.3780 C   0  0  0  0  0  0  0  0  0  0  0  0
   10.4210   -1.3920   23.8250 C   0  0  0  0  0  0  0  0  0  0  0  0
    5.2050    1.5740   18.7410 C   0  0  0  0  0  0  0  0  0  0  0  0
   10.6840   -0.1540   24.4240 C   0  0  0  0  0  0  0  0  0  0  0  0
   11.2770   -1.8490   22.8410 C   0  0  0  0  0  0  0  0  0  0  0  0
   11.7920    0.6050   24.0330 C   0  0  0  0  0  0  0  0  0  0  0  0
   12.3630   -1.0890   22.4690 C   0  0  0  0  0  0  0  0  0  0  0  0
   12.6380    0.1410   23.0560 C   0  0  0  0  0  0  0  0  0  0  0  0
   13.3430   -1.7300   21.2500 Cl  0  0  0  0  0  0  0  0  0  0  0  0
  1  2  2  3
  1  3  1  0
  3  4  1  0
  3  5  1  0
  4  6  1  0
  5  7  1  0
  5  8  1  6
  6  9  1  0
  7  9  1  0
  8 10  2  0
  8 11  1  0
  9 12  1  0
 10 13  1  0
 11 14  2  0
 12 15  1  0
 13 16  2  0
 14 16  1  0
 15 17  2  0
 15 18  1  0
 17 19  1  0
 18 20  2  0
 19 21  2  0
 20 21  1  0
 20 22  1  0
M  END
