DAN-LON-a5fc619e-2-vinylsulfonamide
     RDKit          3D

 21 22  0  0  0  0  0  0  0  0999 V2000
    7.3630   -2.8880   18.2700 C   0  0  0  0  0  0  0  0  0  0  0  0
    6.9140   -1.8810   18.9670 C   0  0  0  0  0  0  0  0  0  0  0  0
    5.5290   -2.3600   19.9670 S   0  0  0  0  0  0  0  0  0  0  0  0
    5.0140   -3.7340   19.7590 O   0  0  0  0  0  0  0  0  0  0  0  0
    4.6730   -1.2000   19.9040 O   0  0  0  0  0  0  0  0  0  0  0  0
    6.2850   -2.2600   21.4600 N   0  0  0  0  0  0  0  0  0  0  0  0
    6.2020   -3.3100   22.4790 C   0  0  0  0  0  0  0  0  0  0  0  0
    6.8830   -0.9650   21.7650 C   0  0  0  0  0  0  0  0  0  0  0  0
    7.5650   -3.4100   23.1850 C   0  0  0  0  0  0  0  0  0  0  0  0
    8.2400   -1.1080   22.4910 C   0  0  0  0  0  0  0  0  0  0  0  0
    8.1480   -2.1100   23.5710 N   0  0  0  0  0  0  0  0  0  0  0  0
    9.2290   -1.6540   21.4730 C   0  0  0  0  0  0  0  0  0  0  0  0
    8.7100    0.3100   22.9060 C   0  0  0  0  0  0  0  0  0  0  0  0
    9.3520   -2.2240   24.3730 C   0  0  0  0  0  0  0  0  0  0  0  0
   10.5280   -1.4190   23.8920 C   0  0  0  0  0  0  0  0  0  0  0  0
   10.8170   -0.1770   24.4560 C   0  0  0  0  0  0  0  0  0  0  0  0
   11.3440   -1.8870   22.8790 C   0  0  0  0  0  0  0  0  0  0  0  0
   11.9010    0.5800   24.0090 C   0  0  0  0  0  0  0  0  0  0  0  0
   12.4080   -1.1280   22.4510 C   0  0  0  0  0  0  0  0  0  0  0  0
   12.7040    0.1080   23.0060 C   0  0  0  0  0  0  0  0  0  0  0  0
   13.3400   -1.7710   21.2030 Cl  0  0  0  0  0  0  0  0  0  0  0  0
  1  2  1  0
  3  2  1  0
  3  4  2  0
  3  5  2  0
  3  6  1  0
  6  7  1  0
  6  8  1  0
  7  9  1  0
  8 10  1  0
  9 11  1  0
 10 11  1  0
 10 12  1  0
 10 13  1  0
 11 14  1  0
 14 15  1  0
 15 16  2  0
 15 17  1  0
 16 18  1  0
 17 19  2  0
 18 20  2  0
 19 20  1  0
 19 21  1  0
M  END
