DAN-LON-a5fc619e-6-acrylamide
     RDKit          3D

 25 27  0  0  0  0  0  0  0  0999 V2000
    7.5980   -2.8120   18.7120 C   0  0  0  0  0  0  0  0  0  0  0  0
    6.2970   -2.9020   19.0810 C   0  0  0  0  0  0  0  0  0  0  0  0
    5.9350   -3.6770   20.3150 C   0  0  0  0  0  0  0  0  0  0  0  0
    5.2520   -4.6940   20.2060 O   0  0  0  0  0  0  0  0  0  0  0  0
    6.4360   -3.1310   21.4850 N   0  0  0  0  0  0  0  0  0  0  0  0
    5.7700   -3.3250   22.7760 C   0  0  0  0  0  0  0  0  0  0  0  0
    7.0640   -1.8280   21.2960 C   0  0  0  0  0  0  0  0  0  0  0  0
    6.6090   -2.8170   23.9820 C   0  0  0  0  0  0  0  0  0  0  0  0
    7.8050   -1.2750   22.5210 C   0  0  1  0  0  0  0  0  0  0  0  0
    7.2030   -1.4570   23.8420 N   0  0  0  0  0  0  0  0  0  0  0  0
    9.2430   -1.7390   22.7360 C   0  0  0  0  0  0  0  0  0  0  0  0
    8.1620   -1.0830   24.9130 C   0  0  0  0  0  0  0  0  0  0  0  0
   10.2850   -1.0740   21.8490 C   0  0  0  0  0  0  0  0  0  0  0  0
    9.5990   -2.6890   23.7080 C   0  0  0  0  0  0  0  0  0  0  0  0
    9.2040   -0.1910   24.5010 C   0  0  0  0  0  0  0  0  0  0  0  0
   11.6970   -1.5220   22.1700 C   0  0  0  0  0  0  0  0  0  0  0  0
   10.9240   -3.0290   23.9270 C   0  0  0  0  0  0  0  0  0  0  0  0
    8.9420    1.1690   24.3410 C   0  0  0  0  0  0  0  0  0  0  0  0
   10.5150   -0.6290   24.2350 C   0  0  0  0  0  0  0  0  0  0  0  0
   11.9400   -2.4380   23.1800 C   0  0  0  0  0  0  0  0  0  0  0  0
    9.9270    2.0570   23.9280 C   0  0  0  0  0  0  0  0  0  0  0  0
   11.5000    0.2740   23.8100 C   0  0  0  0  0  0  0  0  0  0  0  0
   13.5580   -2.8160   23.5190 Cl  0  0  0  0  0  0  0  0  0  0  0  0
   11.2110    1.6110   23.6570 C   0  0  0  0  0  0  0  0  0  0  0  0
   13.0860   -0.2480   23.4550 Cl  0  0  0  0  0  0  0  0  0  0  0  0
  1  2  1  0
  2  3  1  0
  3  4  2  0
  3  5  1  0
  5  6  1  0
  5  7  1  0
  6  8  1  0
  7  9  1  0
  8 10  1  0
  9 10  1  0
  9 11  1  1
 10 12  1  0
 11 13  2  0
 11 14  1  0
 12 15  1  0
 13 16  1  0
 14 17  2  0
 15 18  2  0
 15 19  1  0
 16 20  2  0
 17 20  1  0
 18 21  1  0
 19 22  2  0
 20 23  1  0
 21 24  2  0
 22 24  1  0
 22 25  1  0
M  END
