DAN-LON-a5fc619e-4-acrylamide
     RDKit          3D

 21 22  0  0  0  0  0  0  0  0999 V2000
    7.3320   -2.8330   18.2950 C   0  0  0  0  0  0  0  0  0  0  0  0
    6.4780   -2.2350   19.1010 C   0  0  0  0  0  0  0  0  0  0  0  0
    5.8650   -3.0950   20.1710 C   0  0  0  0  0  0  0  0  0  0  0  0
    5.1920   -4.1310   19.9460 O   0  0  0  0  0  0  0  0  0  0  0  0
    6.1480   -2.6050   21.4210 N   0  0  0  0  0  0  0  0  0  0  0  0
    6.9840   -1.3900   21.4970 C   0  0  0  0  0  0  0  0  0  0  0  0
    6.0580   -3.4740   22.6160 C   0  0  1  0  0  0  0  0  0  0  0  0
    8.3620   -1.6320   22.1100 C   0  0  0  0  0  0  0  0  0  0  0  0
    7.4380   -3.5640   23.3430 C   0  0  0  0  0  0  0  0  0  0  0  0
    4.9190   -2.9390   23.5150 C   0  0  0  0  0  0  0  0  0  0  0  0
    8.2370   -2.3140   23.3930 N   0  0  0  0  0  0  0  0  0  0  0  0
    5.4540   -2.5010   24.8840 C   0  0  0  0  0  0  0  0  0  0  0  0
    3.8090   -3.9780   23.7100 C   0  0  0  0  0  0  0  0  0  0  0  0
    9.3710   -2.2360   24.3110 C   0  0  0  0  0  0  0  0  0  0  0  0
   10.4460   -1.4540   23.8970 C   0  0  0  0  0  0  0  0  0  0  0  0
   10.6950   -0.2060   24.4780 C   0  0  0  0  0  0  0  0  0  0  0  0
   11.2930   -1.9010   22.8950 C   0  0  0  0  0  0  0  0  0  0  0  0
   11.7620    0.5720   24.0620 C   0  0  0  0  0  0  0  0  0  0  0  0
   12.3550   -1.1190   22.4900 C   0  0  0  0  0  0  0  0  0  0  0  0
   12.6070    0.1190   23.0630 C   0  0  0  0  0  0  0  0  0  0  0  0
   13.3400   -1.7340   21.2510 Cl  0  0  0  0  0  0  0  0  0  0  0  0
  1  2  1  0
  2  3  1  0
  3  4  2  0
  3  5  1  0
  5  6  1  0
  5  7  1  0
  6  8  1  0
  7  9  1  0
  7 10  1  1
  8 11  1  0
  9 11  1  0
 10 12  1  0
 10 13  1  0
 11 14  1  0
 14 15  1  0
 15 16  2  0
 15 17  1  0
 16 18  1  0
 17 19  2  0
 18 20  2  0
 19 20  1  0
 19 21  1  0
M  END
