DAN-LON-a5fc619e-6-bromoalkyne
     RDKit          3D

 23 25  0  0  0  0  0  0  0  0999 V2000
    6.8970   -3.4850   19.7640 C   0  0  0  0  0  0  0  0  0  0  0  0
    6.2940   -2.8840   18.7350 C   0  0  0  0  0  0  0  0  0  0  0  0
    6.6500   -2.9210   21.0110 N   0  0  0  0  0  0  0  0  0  0  0  0
    6.3150   -3.5930   22.2760 C   0  0  0  0  0  0  0  0  0  0  0  0
    7.0520   -1.5180   21.1820 C   0  0  0  0  0  0  0  0  0  0  0  0
    7.5750   -3.5560   23.1480 C   0  0  0  0  0  0  0  0  0  0  0  0
    8.2450   -1.3470   22.1520 C   0  0  2  0  0  0  0  0  0  0  0  0
    8.1130   -2.2010   23.3580 N   0  0  0  0  0  0  0  0  0  0  0  0
    8.4630    0.1010   22.6510 C   0  0  0  0  0  0  0  0  0  0  0  0
    9.2500   -2.2100   24.2610 C   0  0  0  0  0  0  0  0  0  0  0  0
    9.8240    0.7520   22.3840 C   0  0  0  0  0  0  0  0  0  0  0  0
    7.4500    0.8000   23.3280 C   0  0  0  0  0  0  0  0  0  0  0  0
   10.4580   -1.4070   23.8410 C   0  0  0  0  0  0  0  0  0  0  0  0
   10.0280    2.2000   22.8820 C   0  0  0  0  0  0  0  0  0  0  0  0
    7.6230    2.1080   23.7840 C   0  0  0  0  0  0  0  0  0  0  0  0
   10.7670   -0.1840   24.4490 C   0  0  0  0  0  0  0  0  0  0  0  0
   11.2900   -1.8730   22.8360 C   0  0  0  0  0  0  0  0  0  0  0  0
    8.8170    2.8080   23.5970 C   0  0  0  0  0  0  0  0  0  0  0  0
   11.8890    0.5480   24.0430 C   0  0  0  0  0  0  0  0  0  0  0  0
   12.3900   -1.1340   22.4560 C   0  0  0  0  0  0  0  0  0  0  0  0
    8.9290    4.4200   24.1930 Cl  0  0  0  0  0  0  0  0  0  0  0  0
   12.7060    0.0780   23.0480 C   0  0  0  0  0  0  0  0  0  0  0  0
   13.3390   -1.7810   21.2160 Cl  0  0  0  0  0  0  0  0  0  0  0  0
  1  2  2  3
  1  3  1  0
  3  4  1  0
  3  5  1  0
  4  6  1  0
  5  7  1  0
  6  8  1  0
  7  8  1  0
  7  9  1  1
  8 10  1  0
  9 11  2  0
  9 12  1  0
 10 13  1  0
 11 14  1  0
 12 15  2  0
 13 16  2  0
 13 17  1  0
 14 18  2  0
 15 18  1  0
 16 19  1  0
 17 20  2  0
 18 21  1  0
 19 22  2  0
 20 22  1  0
 20 23  1  0
M  END
