DAN-LON-a5fc619e-5-acrylamide
     RDKit          3D

 24 26  0  0  0  0  0  0  0  0999 V2000
    7.3300   -2.8510   18.3520 C   0  0  0  0  0  0  0  0  0  0  0  0
    6.6640   -2.1920   19.2670 C   0  0  0  0  0  0  0  0  0  0  0  0
    5.8560   -3.0610   20.2020 C   0  0  0  0  0  0  0  0  0  0  0  0
    5.1350   -4.0300   19.8420 O   0  0  0  0  0  0  0  0  0  0  0  0
    5.9990   -2.6870   21.5170 N   0  0  0  0  0  0  0  0  0  0  0  0
    6.6790   -1.4120   21.8010 C   0  0  0  0  0  0  0  0  0  0  0  0
    6.1390   -3.7540   22.5250 C   0  0  1  0  0  0  0  0  0  0  0  0
    8.1760   -1.5830   22.0780 C   0  0  0  0  0  0  0  0  0  0  0  0
    7.3760   -3.5470   23.4580 C   0  0  0  0  0  0  0  0  0  0  0  0
    4.8200   -3.8650   23.3340 C   0  0  0  0  0  0  0  0  0  0  0  0
    8.4860   -2.6320   23.0690 N   0  0  0  0  0  0  0  0  0  0  0  0
    4.4040   -2.6110   24.0820 C   0  0  0  0  0  0  0  0  0  0  0  0
    4.0120   -5.0060   23.4190 C   0  0  0  0  0  0  0  0  0  0  0  0
    9.3620   -2.2330   24.1610 C   0  0  0  0  0  0  0  0  0  0  0  0
    3.2320   -2.6400   24.8290 C   0  0  0  0  0  0  0  0  0  0  0  0
    2.8410   -4.9740   24.1870 C   0  0  0  0  0  0  0  0  0  0  0  0
   10.4420   -1.4330   23.8060 C   0  0  0  0  0  0  0  0  0  0  0  0
    2.4620   -3.8120   24.8790 C   0  0  0  0  0  0  0  0  0  0  0  0
   10.6790   -0.2020   24.4320 C   0  0  0  0  0  0  0  0  0  0  0  0
   11.3060   -1.8570   22.8160 C   0  0  0  0  0  0  0  0  0  0  0  0
   11.7660    0.5750   24.0590 C   0  0  0  0  0  0  0  0  0  0  0  0
   12.3780   -1.0800   22.4590 C   0  0  0  0  0  0  0  0  0  0  0  0
   12.6320    0.1400   23.0670 C   0  0  0  0  0  0  0  0  0  0  0  0
   13.3690   -1.6870   21.2360 Cl  0  0  0  0  0  0  0  0  0  0  0  0
  1  2  1  0
  2  3  1  0
  3  4  2  0
  3  5  1  0
  5  6  1  0
  5  7  1  0
  6  8  1  0
  7  9  1  0
  7 10  1  1
  8 11  1  0
  9 11  1  0
 10 12  2  0
 10 13  1  0
 11 14  1  0
 12 15  1  0
 13 16  2  0
 14 17  1  0
 15 18  2  0
 16 18  1  0
 17 19  2  0
 17 20  1  0
 19 21  1  0
 20 22  2  0
 21 23  2  0
 22 23  1  0
 22 24  1  0
M  END
