DAN-LON-a5fc619e-4-vinylsulfonamide
     RDKit          3D

 22 23  0  0  0  0  0  0  0  0999 V2000
    7.7820   -3.3090   19.5590 C   0  0  0  0  0  0  0  0  0  0  0  0
    6.9800   -2.5610   18.8150 C   0  0  0  0  0  0  0  0  0  0  0  0
    5.5690   -2.6370   19.8060 S   0  0  0  0  0  0  0  0  0  0  0  0
    5.0700   -4.0000   19.7490 O   0  0  0  0  0  0  0  0  0  0  0  0
    4.7820   -1.4650   19.5160 O   0  0  0  0  0  0  0  0  0  0  0  0
    6.3530   -2.3710   21.2660 N   0  0  0  0  0  0  0  0  0  0  0  0
    7.2010   -1.1690   21.3900 C   0  0  0  0  0  0  0  0  0  0  0  0
    6.0760   -3.1890   22.4790 C   0  0  1  0  0  0  0  0  0  0  0  0
    8.5040   -1.5280   22.0950 C   0  0  0  0  0  0  0  0  0  0  0  0
    7.4300   -3.4430   23.1850 C   0  0  0  0  0  0  0  0  0  0  0  0
    5.0080   -2.6420   23.4500 C   0  0  0  0  0  0  0  0  0  0  0  0
    8.2210   -2.2040   23.3520 N   0  0  0  0  0  0  0  0  0  0  0  0
    3.8440   -3.6300   23.6930 C   0  0  0  0  0  0  0  0  0  0  0  0
    5.6140   -2.2970   24.8160 C   0  0  0  0  0  0  0  0  0  0  0  0
    9.3270   -2.2490   24.2810 C   0  0  0  0  0  0  0  0  0  0  0  0
   10.5030   -1.4090   23.8580 C   0  0  0  0  0  0  0  0  0  0  0  0
   10.7690   -0.1770   24.4580 C   0  0  0  0  0  0  0  0  0  0  0  0
   11.3390   -1.8590   22.8540 C   0  0  0  0  0  0  0  0  0  0  0  0
   11.8630    0.5890   24.0440 C   0  0  0  0  0  0  0  0  0  0  0  0
   12.4070   -1.0930   22.4630 C   0  0  0  0  0  0  0  0  0  0  0  0
   12.6920    0.1350   23.0450 C   0  0  0  0  0  0  0  0  0  0  0  0
   13.3530   -1.7360   21.2190 Cl  0  0  0  0  0  0  0  0  0  0  0  0
  1  2  1  0
  3  2  1  0
  3  4  2  0
  3  5  2  0
  3  6  1  0
  6  7  1  0
  6  8  1  0
  7  9  1  0
  8 10  1  0
  8 11  1  1
  9 12  1  0
 10 12  1  0
 11 13  1  0
 11 14  1  0
 12 15  1  0
 15 16  1  0
 16 17  2  0
 16 18  1  0
 17 19  1  0
 18 20  2  0
 19 21  2  0
 20 21  1  0
 20 22  1  0
M  END
