DAN-LON-a5fc619e-4-nitrile
     RDKit          3D

 19 20  0  0  0  0  0  0  0  0999 V2000
    6.8130   -3.3200   19.5110 C   0  0  0  0  0  0  0  0  0  0  0  0
    5.9570   -3.0830   18.6080 N   0  0  0  0  0  0  0  0  0  0  0  0
    6.6870   -2.8730   20.8130 N   0  0  0  0  0  0  0  0  0  0  0  0
    6.3180   -3.6900   21.9750 C   0  0  0  0  0  0  0  0  0  0  0  0
    7.0140   -1.4690   21.2050 C   0  0  1  0  0  0  0  0  0  0  0  0
    7.3390   -3.5520   23.1240 C   0  0  0  0  0  0  0  0  0  0  0  0
    8.2180   -1.5390   21.9080 C   0  0  0  0  0  0  0  0  0  0  0  0
    6.9450   -0.6280   19.9020 C   0  0  0  0  0  0  0  0  0  0  0  0
    8.0680   -2.2690   23.1980 N   0  0  0  0  0  0  0  0  0  0  0  0
    7.1550    0.8860   20.0990 C   0  0  0  0  0  0  0  0  0  0  0  0
    5.6030   -0.7800   19.1320 C   0  0  0  0  0  0  0  0  0  0  0  0
    9.1700   -2.2760   24.1550 C   0  0  0  0  0  0  0  0  0  0  0  0
   10.3950   -1.4560   23.7580 C   0  0  0  0  0  0  0  0  0  0  0  0
   10.7120   -0.1380   24.4260 C   0  0  0  0  0  0  0  0  0  0  0  0
   11.2560   -1.8980   22.7690 C   0  0  0  0  0  0  0  0  0  0  0  0
   11.8430    0.5720   24.0210 C   0  0  0  0  0  0  0  0  0  0  0  0
   12.3610   -1.1440   22.4210 C   0  0  0  0  0  0  0  0  0  0  0  0
   12.6690    0.0730   23.0250 C   0  0  0  0  0  0  0  0  0  0  0  0
   13.3380   -1.7760   21.1960 Cl  0  0  0  0  0  0  0  0  0  0  0  0
  1  2  2  3
  1  3  1  0
  3  4  1  0
  3  5  1  0
  4  6  1  0
  5  7  1  0
  5  8  1  6
  6  9  1  0
  7  9  1  0
  8 10  1  0
  8 11  1  0
  9 12  1  0
 12 13  1  0
 13 14  2  0
 13 15  1  0
 14 16  1  0
 15 17  2  0
 16 18  2  0
 17 18  1  0
 17 19  1  0
M  END
