DAN-LON-a5fc619e-8-vinylsulfonamide
     RDKit          3D

 20 22  0  0  0  0  0  0  0  0999 V2000
    7.8910   -3.3190   19.4870 C   0  0  0  0  0  0  0  0  0  0  0  0
    6.9310   -2.6790   18.8470 C   0  0  0  0  0  0  0  0  0  0  0  0
    5.6360   -2.9940   19.9460 S   0  0  0  0  0  0  0  0  0  0  0  0
    5.1230   -4.3390   19.7740 O   0  0  0  0  0  0  0  0  0  0  0  0
    4.8150   -1.8620   19.8610 O   0  0  0  0  0  0  0  0  0  0  0  0
    6.5590   -2.8770   21.3480 N   0  0  0  0  0  0  0  0  0  0  0  0
    6.2730   -3.6520   22.5410 C   0  0  0  0  0  0  0  0  0  0  0  0
    7.1080   -1.5810   21.8200 C   0  0  1  0  0  0  0  0  0  0  0  0
    7.0210   -2.8150   23.5520 C   0  0  2  0  0  0  0  0  0  0  0  0
    6.3690   -1.4830   23.1530 C   0  0  0  0  0  0  0  0  0  0  0  0
    8.4800   -1.7710   21.9770 C   0  0  0  0  0  0  0  0  0  0  0  0
    8.4480   -2.6190   23.2110 N   0  0  0  0  0  0  0  0  0  0  0  0
    9.4070   -2.3160   24.2430 C   0  0  0  0  0  0  0  0  0  0  0  0
   10.4280   -1.4890   23.8760 C   0  0  0  0  0  0  0  0  0  0  0  0
   10.6050   -0.2290   24.4830 C   0  0  0  0  0  0  0  0  0  0  0  0
   11.2790   -1.9290   22.8780 C   0  0  0  0  0  0  0  0  0  0  0  0
   11.6490    0.6530   24.1110 C   0  0  0  0  0  0  0  0  0  0  0  0
   12.4400   -1.0880   22.3830 C   0  0  0  0  0  0  0  0  0  0  0  0
   12.6640    0.2830   23.0220 C   0  0  0  0  0  0  0  0  0  0  0  0
   13.3980   -1.7180   21.1510 Cl  0  0  0  0  0  0  0  0  0  0  0  0
  1  2  1  0
  3  2  1  0
  3  4  2  0
  3  5  2  0
  3  6  1  0
  6  7  1  0
  6  8  1  0
  9  7  1  6
  8 10  1  0
  9 10  1  0
  8 11  1  1
  9 12  1  0
 11 12  1  0
 12 13  1  0
 13 14  1  0
 14 15  2  0
 14 16  1  0
 15 17  1  0
 16 18  2  0
 17 19  2  0
 18 19  1  0
 18 20  1  0
M  END
