DAN-LON-a5fc619e-2-bromoalkyne
     RDKit          3D

 18 19  0  0  0  0  0  0  0  0999 V2000
    6.8750   -3.4940   19.7840 C   0  0  0  0  0  0  0  0  0  0  0  0
    6.2620   -2.8810   18.7610 C   0  0  0  0  0  0  0  0  0  0  0  0
    6.6780   -2.9180   21.0430 N   0  0  0  0  0  0  0  0  0  0  0  0
    6.2820   -3.5460   22.3160 C   0  0  0  0  0  0  0  0  0  0  0  0
    7.1330   -1.5380   21.1960 C   0  0  0  0  0  0  0  0  0  0  0  0
    7.4680   -3.4580   23.2960 C   0  0  0  0  0  0  0  0  0  0  0  0
    8.3720   -1.4750   22.1250 C   0  0  0  0  0  0  0  0  0  0  0  0
    8.0790   -2.1160   23.4290 N   0  0  0  0  0  0  0  0  0  0  0  0
    9.4330   -2.3990   21.5470 C   0  0  0  0  0  0  0  0  0  0  0  0
    8.9110   -0.0180   22.1480 C   0  0  0  0  0  0  0  0  0  0  0  0
    9.2430   -2.1810   24.3090 C   0  0  0  0  0  0  0  0  0  0  0  0
   10.4420   -1.3670   23.8700 C   0  0  0  0  0  0  0  0  0  0  0  0
   10.7030   -0.1160   24.4310 C   0  0  0  0  0  0  0  0  0  0  0  0
   11.3080   -1.8400   22.8980 C   0  0  0  0  0  0  0  0  0  0  0  0
   11.8040    0.6390   24.0130 C   0  0  0  0  0  0  0  0  0  0  0  0
   12.3790   -1.0790   22.5010 C   0  0  0  0  0  0  0  0  0  0  0  0
   12.6500    0.1640   23.0490 C   0  0  0  0  0  0  0  0  0  0  0  0
   13.3500   -1.7410   21.2900 Cl  0  0  0  0  0  0  0  0  0  0  0  0
  1  2  2  3
  1  3  1  0
  3  4  1  0
  3  5  1  0
  4  6  1  0
  5  7  1  0
  6  8  1  0
  7  8  1  0
  7  9  1  0
  7 10  1  0
  8 11  1  0
 11 12  1  0
 12 13  2  0
 12 14  1  0
 13 15  1  0
 14 16  2  0
 15 17  2  0
 16 17  1  0
 16 18  1  0
M  END
