DAN-PUR-19f24f0c-2-acrylamide
     RDKit          3D

 15 15  0  0  0  0  0  0  0  0999 V2000
    7.0860   -3.2590   19.0900 C   0  0  0  0  0  0  0  0  0  0  0  0
    5.7950   -2.6490   19.6060 C   0  0  0  0  0  0  0  0  0  0  0  0
    5.7400   -2.7430   21.1160 C   0  0  0  0  0  0  0  0  0  0  0  0
    4.8390   -3.3850   21.6770 O   0  0  0  0  0  0  0  0  0  0  0  0
    6.7380   -2.0810   21.8250 N   0  0  0  0  0  0  0  0  0  0  0  0
    7.7970   -2.7800   22.5860 C   0  0  0  0  0  0  0  0  0  0  0  0
    6.9620   -0.6720   21.4800 C   0  0  0  0  0  0  0  0  0  0  0  0
    6.5970   -2.9730   23.4980 C   0  0  0  0  0  0  0  0  0  0  0  0
    8.3710   -3.4240   23.4690 O   0  0  0  0  0  0  0  0  0  0  0  0
    8.0210    0.1500   21.6690 C   0  0  0  0  0  0  0  0  0  0  0  0
    6.3750    0.3490   20.9150 C   0  0  0  0  0  0  0  0  0  0  0  0
    7.6200    1.4570   21.1000 N   0  0  0  0  0  0  0  0  0  0  0  0
    5.3440    0.8290   20.3300 C   0  0  0  0  0  0  0  0  0  0  0  0
    6.2940    1.7960   20.4300 C   0  0  0  0  0  0  0  0  0  0  0  0
    4.4030   -0.1290   20.2320 N   0  0  0  0  0  0  0  0  0  0  0  0
  1  2  1  0
  2  3  1  0
  3  4  2  0
  3  5  1  0
  5  6  1  0
  5  7  1  0
  6  8  1  0
  6  9  2  0
  7 10  2  0
  7 11  1  0
 10 12  1  0
 11 13  2  0
 12 14  2  0
 13 14  1  0
 13 15  1  0
M  END
