DAN-LON-a5fc619e-1-vinylsulfonamide
     RDKit          3D

 22 23  0  0  0  0  0  0  0  0999 V2000
    7.3550   -2.8150   18.1460 C   0  0  0  0  0  0  0  0  0  0  0  0
    6.2760   -2.3000   19.0960 C   0  0  0  0  0  0  0  0  0  0  0  0
    5.7570   -3.4140   20.3530 S   0  0  0  0  0  0  0  0  0  0  0  0
    4.6920   -2.8870   21.0990 O   0  0  0  0  0  0  0  0  0  0  0  0
    5.6250   -4.7590   19.8580 O   0  0  0  0  0  0  0  0  0  0  0  0
    6.9310   -3.1880   21.4740 N   0  0  0  0  0  0  0  0  0  0  0  0
    6.5130   -3.6510   22.7610 C   0  0  0  0  0  0  0  0  0  0  0  0
    7.4420   -1.8030   21.4570 C   0  0  0  0  0  0  0  0  0  0  0  0
    7.6930   -3.6620   23.6840 C   0  0  0  0  0  0  0  0  0  0  0  0
    7.9550   -1.4270   22.8460 C   0  0  1  0  0  0  0  0  0  0  0  0
    8.5710   -2.5060   23.4180 N   0  0  0  0  0  0  0  0  0  0  0  0
    8.7100   -0.0700   22.6670 C   0  0  0  0  0  0  0  0  0  0  0  0
    9.5860   -2.3050   24.2700 C   0  0  0  0  0  0  0  0  0  0  0  0
    7.7170    0.7390   23.1210 N   0  0  0  0  0  0  0  0  0  0  0  0
    9.8420    0.1130   22.2380 O   0  0  0  0  0  0  0  0  0  0  0  0
   10.6170   -1.3380   23.9230 C   0  0  0  0  0  0  0  0  0  0  0  0
   10.7640   -0.1090   24.5170 C   0  0  0  0  0  0  0  0  0  0  0  0
   11.4860   -1.7260   22.9140 C   0  0  0  0  0  0  0  0  0  0  0  0
   11.9200    0.7880   24.0020 C   0  0  0  0  0  0  0  0  0  0  0  0
   12.5350   -1.0130   22.3940 C   0  0  0  0  0  0  0  0  0  0  0  0
   12.8010    0.2640   22.9120 C   0  0  0  0  0  0  0  0  0  0  0  0
   13.3520   -1.7990   21.1740 Cl  0  0  0  0  0  0  0  0  0  0  0  0
  1  2  1  0
  3  2  1  0
  3  4  2  0
  3  5  2  0
  3  6  1  0
  6  7  1  0
  6  8  1  0
  7  9  1  0
  8 10  1  0
  9 11  1  0
 10 11  1  0
 10 12  1  6
 11 13  1  0
 12 14  1  0
 12 15  2  0
 13 16  1  0
 16 17  2  0
 16 18  1  0
 17 19  1  0
 18 20  2  0
 19 21  2  0
 20 21  1  0
 20 22  1  0
M  END
