DAN-LON-a5fc619e-8-bromoalkyne
     RDKit          3D

 17 19  0  0  0  0  0  0  0  0999 V2000
    6.9660   -3.1950   19.6510 C   0  0  0  0  0  0  0  0  0  0  0  0
    5.8220   -3.1420   18.9600 C   0  0  0  0  0  0  0  0  0  0  0  0
    6.9300   -3.0240   21.0180 N   0  0  0  0  0  0  0  0  0  0  0  0
    6.7730   -4.0290   22.0590 C   0  0  0  0  0  0  0  0  0  0  0  0
    7.1140   -1.7240   21.7250 C   0  0  1  0  0  0  0  0  0  0  0  0
    7.2210   -3.2270   23.2600 C   0  0  2  0  0  0  0  0  0  0  0  0
    6.3070   -2.0320   22.9840 C   0  0  0  0  0  0  0  0  0  0  0  0
    8.4860   -1.6550   21.9750 C   0  0  0  0  0  0  0  0  0  0  0  0
    8.5660   -2.6540   23.0810 N   0  0  0  0  0  0  0  0  0  0  0  0
    9.3850   -2.3300   24.2170 C   0  0  0  0  0  0  0  0  0  0  0  0
   10.4110   -1.4960   23.8630 C   0  0  0  0  0  0  0  0  0  0  0  0
   10.5780   -0.2370   24.4870 C   0  0  0  0  0  0  0  0  0  0  0  0
   11.2660   -1.9390   22.8630 C   0  0  0  0  0  0  0  0  0  0  0  0
   11.6270    0.6450   24.1240 C   0  0  0  0  0  0  0  0  0  0  0  0
   12.4360   -1.1010   22.3760 C   0  0  0  0  0  0  0  0  0  0  0  0
   12.6280    0.2540   23.0400 C   0  0  0  0  0  0  0  0  0  0  0  0
   13.4110   -1.7100   21.1490 Cl  0  0  0  0  0  0  0  0  0  0  0  0
  1  2  2  3
  1  3  1  0
  3  4  1  0
  3  5  1  0
  6  4  1  6
  5  7  1  0
  6  7  1  0
  5  8  1  1
  6  9  1  0
  8  9  1  0
  9 10  1  0
 10 11  1  0
 11 12  2  0
 11 13  1  0
 12 14  1  0
 13 15  2  0
 14 16  2  0
 15 16  1  0
 15 17  1  0
M  END
