DAR-DIA-eace69ff-23
     RDKit          3D

 22 24  0  0  0  0  0  0  0  0999 V2000
   10.8540    5.5810   22.6150 C   0  0  0  0  0  0  0  0  0  0  0  0
   12.1200    5.3220   23.2250 N   0  0  0  0  0  0  0  0  0  0  0  0
   12.1250    5.8880   24.5760 C   0  0  0  0  0  0  0  0  0  0  0  0
   12.7570    4.0260   22.8670 C   0  0  0  0  0  0  0  0  0  0  0  0
   11.8790    2.7780   23.1880 C   0  0  0  0  0  0  0  0  0  0  0  0
   10.5200    3.1360   23.7230 C   0  0  0  0  0  0  0  0  0  0  0  0
   11.9170    1.3200   23.1460 C   0  0  0  0  0  0  0  0  0  0  0  0
    9.7530    1.9410   23.9850 N   0  0  0  0  0  0  0  0  0  0  0  0
   10.6520    0.8430   23.6070 C   0  0  0  0  0  0  0  0  0  0  0  0
   12.8250    0.3300   22.7860 C   0  0  0  0  0  0  0  0  0  0  0  0
   10.2160   -0.4820   23.7220 C   0  0  0  0  0  0  0  0  0  0  0  0
   12.4010   -1.0080   22.9020 C   0  0  0  0  0  0  0  0  0  0  0  0
    8.9390   -0.8580   24.1790 N   0  0  0  0  0  0  0  0  0  0  0  0
   11.1640   -1.4020   23.3390 C   0  0  0  0  0  0  0  0  0  0  0  0
   13.1960   -2.2220   22.5860 C   0  0  0  0  0  0  0  0  0  0  0  0
    7.9170   -0.4750   23.1910 C   0  0  0  0  0  0  0  0  0  0  0  0
    8.9640   -2.2830   24.5560 C   0  0  0  0  0  0  0  0  0  0  0  0
   12.9880   -2.6150   20.9160 Cl  0  0  0  0  0  0  0  0  0  0  0  0
    6.7470   -0.1260   23.8400 C   0  0  0  0  0  0  0  0  0  0  0  0
    7.7210   -2.6420   25.4250 C   0  0  0  0  0  0  0  0  0  0  0  0
    6.0660   -1.1990   24.4110 C   0  0  0  0  0  0  0  0  0  0  0  0
    6.6830   -1.7230   25.5590 C   0  0  0  0  0  0  0  0  0  0  0  0
  1  2  1  0
  2  3  1  0
  2  4  1  0
  4  5  1  0
  5  6  2  0
  5  7  1  0
  6  8  1  0
  7  9  2  0
  8  9  1  0
  7 10  1  0
  9 11  1  0
 10 12  2  0
 11 13  1  0
 11 14  2  0
 12 14  1  0
 12 15  1  0
 13 16  1  0
 13 17  1  0
 15 18  1  0
 16 19  1  0
 17 20  1  0
 19 21  1  0
 20 22  1  0
 21 22  1  0
M  END
