DAR-DIA-2b784ede-34-bromoalkyne
     RDKit          3D

 32 34  0  0  0  0  0  0  0  0999 V2000
    7.2320   -3.2720   19.7330 C   0  0  0  0  0  0  0  0  0  0  0  0
    6.6200   -2.5980   18.5560 C   0  0  0  0  0  0  0  0  0  0  0  0
    7.0220   -2.6570   21.0450 N   0  0  0  0  0  0  0  0  0  0  0  0
    6.0620   -3.3110   21.8700 C   0  0  0  0  0  0  0  0  0  0  0  0
    7.1100   -1.1010   21.2630 C   0  0  1  0  0  0  0  0  0  0  0  0
    6.1880   -3.4440   23.1810 C   0  0  0  0  0  0  0  0  0  0  0  0
    4.8930   -3.9060   21.5190 N   0  0  0  0  0  0  0  0  0  0  0  0
    8.4520   -0.5020   21.8610 C   0  0  0  0  0  0  0  0  0  0  0  0
    6.6250   -0.4090   20.0630 C   0  0  0  0  0  0  0  0  0  0  0  0
    5.1360   -4.1320   23.7120 C   0  0  0  0  0  0  0  0  0  0  0  0
    4.3000   -4.4160   22.6530 O   0  0  0  0  0  0  0  0  0  0  0  0
    8.3920    0.6150   22.3860 O   0  0  0  0  0  0  0  0  0  0  0  0
    9.6750   -1.2270   21.7470 N   0  0  0  0  0  0  0  0  0  0  0  0
    7.1110    0.8430   19.4790 C   0  0  0  0  0  0  0  0  0  0  0  0
    5.6460   -1.0140   19.4240 C   0  0  0  0  0  0  0  0  0  0  0  0
    4.9510   -4.4790   25.0480 C   0  0  0  0  0  0  0  0  0  0  0  0
   10.6360   -1.5050   22.8280 C   0  0  0  0  0  0  0  0  0  0  0  0
    6.6590    1.3480   18.3820 N   0  0  0  0  0  0  0  0  0  0  0  0
    5.2050   -0.4950   18.3240 C   0  0  0  0  0  0  0  0  0  0  0  0
    5.1170   -2.1740   19.8950 C   0  0  0  0  0  0  0  0  0  0  0  0
    6.1840   -4.3920   25.9660 C   0  0  0  0  0  0  0  0  0  0  0  0
    4.4900   -5.9550   25.0780 C   0  0  0  0  0  0  0  0  0  0  0  0
    3.6390   -3.4720   25.7770 Cl  0  0  0  0  0  0  0  0  0  0  0  0
   10.1630   -2.4420   23.9520 C   0  0  0  0  0  0  0  0  0  0  0  0
   11.9620   -0.9950   22.9890 C   0  0  0  0  0  0  0  0  0  0  0  0
    5.7200    0.6550   17.8280 C   0  0  0  0  0  0  0  0  0  0  0  0
    8.7660   -3.0630   23.9530 C   0  0  0  0  0  0  0  0  0  0  0  0
   11.0190   -2.7330   25.0080 C   0  0  0  0  0  0  0  0  0  0  0  0
   12.7880   -1.2880   24.0120 C   0  0  0  0  0  0  0  0  0  0  0  0
   12.7160   -0.0870   22.2050 C   0  0  0  0  0  0  0  0  0  0  0  0
   12.4120   -2.0970   24.9870 C   0  0  0  0  0  0  0  0  0  0  0  0
   13.4800    0.6930   22.9500 C   0  0  0  0  0  0  0  0  0  0  0  0
  1  2  2  3
  1  3  1  0
  3  4  1  0
  3  5  1  0
  4  6  1  0
  4  7  2  0
  5  8  1  6
  5  9  1  0
  6 10  2  0
  7 11  1  0
 10 11  1  0
  8 12  2  0
  8 13  1  0
  9 14  2  0
  9 15  1  0
 10 16  1  0
 13 17  1  0
 14 18  1  0
 15 19  2  0
 15 20  1  0
 16 21  1  0
 16 22  1  0
 16 23  1  0
 17 24  2  0
 17 25  1  0
 18 26  2  0
 19 26  1  0
 24 27  1  0
 24 28  1  0
 25 29  2  0
 25 30  1  0
 28 31  2  0
 29 31  1  0
 30 32  1  0
M  END
