DAR-DIA-2b784ede-17-bromoalkyne
     RDKit          3D

 35 38  0  0  0  0  0  0  0  0999 V2000
    7.0940   -3.5450   20.0240 C   0  0  0  0  0  0  0  0  0  0  0  0
    5.8030   -4.3330   19.9390 C   0  0  0  0  0  0  0  0  0  0  0  0
    7.0820   -2.2270   20.5580 N   0  0  0  0  0  0  0  0  0  0  0  0
    6.8570   -1.1230   19.6440 C   0  0  0  0  0  0  0  0  0  0  0  0
    6.8120   -1.9940   22.0470 C   0  0  1  0  0  0  0  0  0  0  0  0
    6.2040    0.0870   20.0050 C   0  0  0  0  0  0  0  0  0  0  0  0
    7.2550   -1.1730   18.3730 N   0  0  0  0  0  0  0  0  0  0  0  0
    7.8260   -2.7620   22.9740 C   0  0  0  0  0  0  0  0  0  0  0  0
    6.5690   -0.5410   22.4990 C   0  0  0  0  0  0  0  0  0  0  0  0
    5.9840    1.1820   19.1250 C   0  0  0  0  0  0  0  0  0  0  0  0
    7.0450   -0.0550   17.4560 C   0  0  0  0  0  0  0  0  0  0  0  0
    7.3960   -3.6310   23.7460 O   0  0  0  0  0  0  0  0  0  0  0  0
    9.1590   -2.4660   22.9220 N   0  0  0  0  0  0  0  0  0  0  0  0
    5.3990   -0.2330   23.2220 C   0  0  0  0  0  0  0  0  0  0  0  0
    7.4300    0.5590   22.2600 C   0  0  0  0  0  0  0  0  0  0  0  0
    6.4170    1.1380   17.7930 C   0  0  0  0  0  0  0  0  0  0  0  0
    9.7430   -1.1970   23.3250 C   0  0  0  0  0  0  0  0  0  0  0  0
    5.0350    0.9900   23.6960 N   0  0  0  0  0  0  0  0  0  0  0  0
    7.0590    1.8220   22.7450 C   0  0  0  0  0  0  0  0  0  0  0  0
    8.7250    0.4840   21.5180 C   0  0  0  0  0  0  0  0  0  0  0  0
    6.3040    2.1690   16.6300 C   0  0  0  0  0  0  0  0  0  0  0  0
    9.1420   -0.2110   24.1880 C   0  0  0  0  0  0  0  0  0  0  0  0
   11.0380   -0.9430   22.7990 C   0  0  0  0  0  0  0  0  0  0  0  0
    5.8850    2.0000   23.4420 C   0  0  0  0  0  0  0  0  0  0  0  0
    7.1350    0.6790   15.9920 Cl  0  0  0  0  0  0  0  0  0  0  0  0
    4.9580    3.0480   16.3500 C   0  0  0  0  0  0  0  0  0  0  0  0
    7.1690    2.8590   15.5230 C   0  0  0  0  0  0  0  0  0  0  0  0
    7.7820   -0.3450   24.8460 C   0  0  0  0  0  0  0  0  0  0  0  0
    9.8530    0.9760   24.4580 C   0  0  0  0  0  0  0  0  0  0  0  0
   11.6660    0.2470   23.1170 C   0  0  0  0  0  0  0  0  0  0  0  0
   11.7870   -1.8890   21.9200 C   0  0  0  0  0  0  0  0  0  0  0  0
    5.1220    4.4210   15.7140 C   0  0  0  0  0  0  0  0  0  0  0  0
    6.4510    4.2060   14.9830 C   0  0  0  0  0  0  0  0  0  0  0  0
   11.0980    1.1890   23.9190 C   0  0  0  0  0  0  0  0  0  0  0  0
   13.2250   -1.4810   21.7980 C   0  0  0  0  0  0  0  0  0  0  0  0
  1  2  2  3
  1  3  1  0
  3  4  1  0
  3  5  1  0
  4  6  2  0
  4  7  1  0
  5  8  1  1
  5  9  1  0
  6 10  1  0
  7 11  2  0
  8 12  2  0
  8 13  1  0
  9 14  2  0
  9 15  1  0
 10 16  2  0
 11 16  1  0
 13 17  1  0
 14 18  1  0
 15 19  2  0
 15 20  1  0
 16 21  1  0
 17 22  2  0
 17 23  1  0
 18 24  2  0
 19 24  1  0
 21 25  1  0
 21 26  1  0
 21 27  1  0
 22 28  1  0
 22 29  1  0
 23 30  2  0
 23 31  1  0
 26 32  1  0
 27 33  1  0
 32 33  1  0
 29 34  2  0
 30 34  1  0
 31 35  1  0
M  END
