DAR-DIA-fb20be43-13-bromoalkyne
     RDKit          3D

 26 28  0  0  0  0  0  0  0  0999 V2000
    7.1670   -3.2560   19.5110 C   0  0  0  0  0  0  0  0  0  0  0  0
    6.3320   -2.8800   18.5800 C   0  0  0  0  0  0  0  0  0  0  0  0
    6.9460   -2.8350   20.7930 N   0  0  0  0  0  0  0  0  0  0  0  0
    7.3610   -1.4790   21.1450 C   0  0  0  0  0  0  0  0  0  0  0  0
    6.6820   -3.6890   21.9320 C   0  0  0  0  0  0  0  0  0  0  0  0
    8.6510   -1.5910   21.9440 C   0  0  0  0  0  0  0  0  0  0  0  0
    7.8390   -3.6550   22.9450 C   0  0  0  0  0  0  0  0  0  0  0  0
    8.4630   -2.3450   23.2010 N   0  0  0  0  0  0  0  0  0  0  0  0
    9.7900   -2.5970   23.7260 C   0  0  0  0  0  0  0  0  0  0  0  0
   10.6920   -1.4440   23.4250 C   0  0  0  0  0  0  0  0  0  0  0  0
   11.9270   -1.6920   22.8790 C   0  0  0  0  0  0  0  0  0  0  0  0
   10.3370   -0.1400   23.6630 C   0  0  0  0  0  0  0  0  0  0  0  0
   12.7920   -0.6700   22.5900 C   0  0  0  0  0  0  0  0  0  0  0  0
   11.2220    0.9220   23.3960 C   0  0  0  0  0  0  0  0  0  0  0  0
    9.0510    0.3920   24.2020 C   0  0  0  0  0  0  0  0  0  0  0  0
   13.8690   -1.1680   22.0580 O   0  0  0  0  0  0  0  0  0  0  0  0
   12.4720    0.6420   22.8500 C   0  0  0  0  0  0  0  0  0  0  0  0
    9.3320    1.8470   24.2990 C   0  0  0  0  0  0  0  0  0  0  0  0
   10.5510    2.1920   23.8240 C   0  0  0  0  0  0  0  0  0  0  0  0
   13.5140   -1.6850   20.8030 C   0  0  0  0  0  0  0  0  0  0  0  0
   11.1100    3.5570   23.7790 C   0  0  0  0  0  0  0  0  0  0  0  0
   10.3480    4.5380   22.8950 C   0  0  0  0  0  0  0  0  0  0  0  0
    9.7350    5.6250   23.6530 N   0  0  0  0  0  0  0  0  0  0  0  0
    8.8110    5.3690   24.6430 C   0  0  0  0  0  0  0  0  0  0  0  0
    9.4000    4.8270   25.9140 C   0  0  0  0  0  0  0  0  0  0  0  0
    7.6050    5.5740   24.5250 O   0  0  0  0  0  0  0  0  0  0  0  0
  1  2  2  3
  1  3  1  0
  3  4  1  0
  3  5  1  0
  4  6  1  0
  5  7  1  0
  6  8  1  0
  7  8  1  0
  8  9  1  0
  9 10  1  0
 10 11  2  0
 10 12  1  0
 11 13  1  0
 12 14  2  0
 12 15  1  0
 13 16  1  0
 13 17  2  0
 14 17  1  0
 15 18  1  0
 14 19  1  0
 18 19  2  0
 16 20  1  0
 19 21  1  0
 21 22  1  0
 22 23  1  0
 23 24  1  0
 24 25  1  0
 24 26  2  0
M  END
