DAR-DIA-2b784ede-52-vinylsulfonamide
     RDKit          3D

 35 37  0  0  0  0  0  0  0  0999 V2000
    6.3120   -4.9700   20.1440 C   0  0  0  0  0  0  0  0  0  0  0  0
    6.8910   -3.6210   20.3910 C   0  0  0  0  0  0  0  0  0  0  0  0
    5.9730   -2.5880   19.3800 S   0  0  0  0  0  0  0  0  0  0  0  0
    4.6630   -2.9180   20.0240 O   0  0  0  0  0  0  0  0  0  0  0  0
    6.1980   -2.9500   18.0140 O   0  0  0  0  0  0  0  0  0  0  0  0
    6.8710   -1.1290   19.5750 N   0  0  0  0  0  0  0  0  0  0  0  0
    6.6740   -0.0660   18.5370 C   0  0  0  0  0  0  0  0  0  0  0  0
    7.5980   -0.9250   20.9230 C   0  0  1  0  0  0  0  0  0  0  0  0
    5.7960    0.0500   19.7610 C   0  0  0  0  0  0  0  0  0  0  0  0
    5.9970    1.2070   17.9760 N   0  0  0  0  0  0  0  0  0  0  0  0
    8.3810   -2.0320   21.4240 C   0  0  0  0  0  0  0  0  0  0  0  0
    8.1210    0.4780   21.3270 C   0  0  0  0  0  0  0  0  0  0  0  0
    4.9260    1.1390   19.7620 C   0  0  0  0  0  0  0  0  0  0  0  0
    5.0170    1.9150   18.6210 N   0  0  0  0  0  0  0  0  0  0  0  0
    7.5070   -3.0240   21.8880 O   0  0  0  0  0  0  0  0  0  0  0  0
    9.7580   -2.1830   21.5300 N   0  0  0  0  0  0  0  0  0  0  0  0
    9.4770    0.6970   22.0090 C   0  0  0  0  0  0  0  0  0  0  0  0
    7.3550    1.6260   21.0970 C   0  0  0  0  0  0  0  0  0  0  0  0
    4.1980    1.0260   21.0380 C   0  0  0  0  0  0  0  0  0  0  0  0
   10.6100   -1.4710   22.4210 C   0  0  0  0  0  0  0  0  0  0  0  0
    9.8620    2.1260   22.3820 C   0  0  0  0  0  0  0  0  0  0  0  0
    7.6840    2.9000   21.4240 N   0  0  0  0  0  0  0  0  0  0  0  0
    4.9770    1.7280   22.1550 C   0  0  0  0  0  0  0  0  0  0  0  0
    4.5860   -0.4670   21.2100 C   0  0  0  0  0  0  0  0  0  0  0  0
    2.7450    1.5080   20.9180 C   0  0  0  0  0  0  0  0  0  0  0  0
    9.9720   -0.8550   23.5220 C   0  0  0  0  0  0  0  0  0  0  0  0
   12.0230   -1.3600   22.2420 C   0  0  0  0  0  0  0  0  0  0  0  0
    8.8480    3.1680   22.0250 C   0  0  0  0  0  0  0  0  0  0  0  0
    8.6040   -0.9810   23.7530 C   0  0  0  0  0  0  0  0  0  0  0  0
   10.6690   -0.0780   24.4520 C   0  0  0  0  0  0  0  0  0  0  0  0
   12.7750   -0.5200   23.2410 C   0  0  0  0  0  0  0  0  0  0  0  0
   12.8340   -2.0000   21.1610 C   0  0  0  0  0  0  0  0  0  0  0  0
    8.2000   -2.4530   23.9300 C   0  0  0  0  0  0  0  0  0  0  0  0
   12.1690    0.0970   24.2820 C   0  0  0  0  0  0  0  0  0  0  0  0
   13.8140   -1.1510   20.5700 O   0  0  0  0  0  0  0  0  0  0  0  0
  1  2  1  0
  2  3  1  0
  3  4  2  0
  3  5  2  0
  3  6  1  0
  6  7  1  0
  6  8  1  0
  7  9  2  0
  7 10  1  0
  8 11  1  6
  8 12  1  0
  9 13  1  0
 10 14  1  0
 13 14  2  0
 11 15  2  0
 11 16  1  0
 12 17  2  0
 12 18  1  0
 13 19  1  0
 16 20  1  0
 17 21  1  0
 18 22  2  0
 19 23  1  0
 19 24  1  0
 19 25  1  0
 20 26  2  0
 20 27  1  0
 21 28  2  0
 22 28  1  0
 26 29  1  0
 26 30  1  0
 27 31  2  0
 27 32  1  0
 29 33  1  0
 30 34  2  0
 31 34  1  0
 32 35  1  0
M  END
