DAR-DIA-fb20be43-7-bromoalkyne
     RDKit          3D

 21 23  0  0  0  0  0  0  0  0999 V2000
    6.9990   -3.2790   19.5510 C   0  0  0  0  0  0  0  0  0  0  0  0
    6.1140   -2.8530   18.6870 C   0  0  0  0  0  0  0  0  0  0  0  0
    6.9650   -2.8290   20.8590 N   0  0  0  0  0  0  0  0  0  0  0  0
    6.6180   -3.6430   22.0280 C   0  0  0  0  0  0  0  0  0  0  0  0
    7.4580   -1.4820   21.1650 C   0  0  0  0  0  0  0  0  0  0  0  0
    7.5490   -3.3080   23.2160 C   0  0  0  0  0  0  0  0  0  0  0  0
    8.7590   -1.5450   21.9760 C   0  0  0  0  0  0  0  0  0  0  0  0
    8.8560   -2.7510   22.8210 N   0  0  0  0  0  0  0  0  0  0  0  0
    9.6940   -2.4740   23.9940 C   0  0  0  0  0  0  0  0  0  0  0  0
   10.7290   -1.4470   23.6670 C   0  0  0  0  0  0  0  0  0  0  0  0
   11.8860   -1.8600   23.0530 C   0  0  0  0  0  0  0  0  0  0  0  0
   10.5470   -0.0850   23.9420 C   0  0  0  0  0  0  0  0  0  0  0  0
   12.8550   -0.9670   22.7060 C   0  0  0  0  0  0  0  0  0  0  0  0
   11.5710    0.8300   23.5530 C   0  0  0  0  0  0  0  0  0  0  0  0
    9.2770    0.4220   24.6340 C   0  0  0  0  0  0  0  0  0  0  0  0
   13.8390   -1.5780   22.1330 O   0  0  0  0  0  0  0  0  0  0  0  0
   12.7200    0.3670   22.9450 C   0  0  0  0  0  0  0  0  0  0  0  0
   11.4500    2.3090   23.7680 C   0  0  0  0  0  0  0  0  0  0  0  0
    9.0940    1.9150   24.8890 C   0  0  0  0  0  0  0  0  0  0  0  0
   13.4200   -1.9750   20.8640 C   0  0  0  0  0  0  0  0  0  0  0  0
   10.2140    2.8430   24.4250 C   0  0  0  0  0  0  0  0  0  0  0  0
  1  2  2  3
  1  3  1  0
  3  4  1  0
  3  5  1  0
  4  6  1  0
  5  7  1  0
  6  8  1  0
  7  8  1  0
  8  9  1  0
  9 10  1  0
 10 11  2  0
 10 12  1  0
 11 13  1  0
 12 14  2  0
 12 15  1  0
 13 16  1  0
 13 17  2  0
 14 17  1  0
 14 18  1  0
 15 19  2  0
 16 20  1  0
 18 21  2  0
 19 21  1  0
M  END
