DAR-DIA-23aa0b97-9-nitrile
     RDKit          3D

 19 20  0  0  0  0  0  0  0  0999 V2000
    7.4570   -3.5900   19.7450 C   0  0  0  0  0  0  0  0  0  0  0  0
    6.1850   -3.6450   19.5610 N   0  0  0  0  0  0  0  0  0  0  0  0
    7.9460   -3.4700   21.1570 C   0  0  0  0  0  0  0  0  0  0  0  0
    8.3940   -2.6430   22.4580 C   0  0  0  0  0  0  0  0  0  0  0  0
    7.9600   -2.0440   21.2270 C   0  0  0  0  0  0  0  0  0  0  0  0
    8.4070   -1.0440   22.5210 N   0  0  0  0  0  0  0  0  0  0  0  0
    7.6640   -1.0700   20.4080 C   0  0  0  0  0  0  0  0  0  0  0  0
    7.9830   -0.1870   21.3280 C   0  0  0  0  0  0  0  0  0  0  0  0
    7.1860   -0.7980   19.0670 N   0  0  0  0  0  0  0  0  0  0  0  0
    6.7320    0.4860   18.8550 C   0  0  0  0  0  0  0  0  0  0  0  0
    7.3750    1.4230   19.3080 O   0  0  0  0  0  0  0  0  0  0  0  0
    5.5200    0.6330   18.1910 N   0  0  0  0  0  0  0  0  0  0  0  0
    4.4080    1.1260   18.9150 C   0  0  0  0  0  0  0  0  0  0  0  0
    4.6810   -0.0680   19.2900 C   0  0  0  0  0  0  0  0  0  0  0  0
    3.3640    1.4290   19.6820 C   0  0  0  0  0  0  0  0  0  0  0  0
    5.3420    0.6320   18.2910 N   0  0  0  0  0  0  0  0  0  0  0  0
    3.5460    2.4920   18.9490 C   0  0  0  0  0  0  0  0  0  0  0  0
    4.7030    1.9820   18.1520 C   0  0  0  0  0  0  0  0  0  0  0  0
    2.8590    3.7150   18.9200 N   0  0  0  0  0  0  0  0  0  0  0  0
  1  2  2  3
  1  3  1  0
  3  4  2  0
  3  5  1  0
  4  6  1  0
  5  7  2  0
  6  8  2  0
  7  8  1  0
  7  9  1  0
  9 10  1  0
 10 11  2  0
 10 12  1  0
 12 13  1  0
 13 14  2  0
 13 15  1  0
 14 16  1  0
 15 17  2  0
 16 18  2  0
 17 18  1  0
 17 19  1  0
M  END
