DAR-DIA-2b784ede-5-chloroacetamide
     RDKit          3D

 24 25  0  0  0  0  0  0  0  0999 V2000
    6.7680   -3.1770   20.0700 C   0  0  0  0  0  0  0  0  0  0  0  0
    7.7530   -2.1390   19.4870 C   0  0  0  0  0  0  0  0  0  0  0  0
    7.4470   -2.8660   18.5230 O   0  0  0  0  0  0  0  0  0  0  0  0
    7.7260   -1.5110   20.8360 N   0  0  0  0  0  0  0  0  0  0  0  0
    6.8250   -0.4940   20.3600 C   0  0  0  0  0  0  0  0  0  0  0  0
    8.8270   -0.6220   21.5880 C   0  0  1  0  0  0  0  0  0  0  0  0
    5.8590    0.1840   21.0960 C   0  0  0  0  0  0  0  0  0  0  0  0
    6.8970   -0.1260   19.0560 N   0  0  0  0  0  0  0  0  0  0  0  0
    8.2560    0.7900   21.9380 C   0  0  0  0  0  0  0  0  0  0  0  0
   10.0480   -0.9600   22.5200 C   0  0  0  0  0  0  0  0  0  0  0  0
    5.0310    1.1770   20.5560 C   0  0  0  0  0  0  0  0  0  0  0  0
    6.0240    0.9210   18.5060 C   0  0  0  0  0  0  0  0  0  0  0  0
    8.4510    1.8000   21.2260 O   0  0  0  0  0  0  0  0  0  0  0  0
    7.5220    0.8140   23.1300 N   0  0  0  0  0  0  0  0  0  0  0  0
   11.1680    0.1170   22.5670 C   0  0  0  0  0  0  0  0  0  0  0  0
   10.3280   -2.0670   23.3210 C   0  0  0  0  0  0  0  0  0  0  0  0
    5.0730    1.6040   19.2360 C   0  0  0  0  0  0  0  0  0  0  0  0
    7.9790    0.2070   24.3300 C   0  0  0  0  0  0  0  0  0  0  0  0
   12.3280    0.1060   23.1960 N   0  0  0  0  0  0  0  0  0  0  0  0
   11.5770   -2.0450   23.9600 C   0  0  0  0  0  0  0  0  0  0  0  0
    9.3440   -3.1870   23.4610 C   0  0  0  0  0  0  0  0  0  0  0  0
    4.1440    2.7160   18.7470 C   0  0  0  0  0  0  0  0  0  0  0  0
   12.5080   -1.0040   23.8670 C   0  0  0  0  0  0  0  0  0  0  0  0
    2.5390    2.5790   19.5690 Cl  0  0  0  0  0  0  0  0  0  0  0  0
  1  2  1  0
  2  3  2  0
  2  4  1  0
  4  5  1  0
  4  6  1  0
  5  7  2  0
  5  8  1  0
  6  9  1  1
  6 10  1  0
  7 11  1  0
  8 12  2  0
  9 13  2  0
  9 14  1  0
 10 15  2  0
 10 16  1  0
 11 17  2  0
 12 17  1  0
 14 18  1  0
 15 19  1  0
 16 20  2  0
 16 21  1  0
 17 22  1  0
 19 23  2  0
 20 23  1  0
 22 24  1  0
M  END
