DAR-DIA-0cde14eb-68
     RDKit          3D

 20 22  0  0  0  0  0  0  0  0999 V2000
    4.3150    0.6680   21.5560 C   0  0  0  0  0  0  0  0  0  0  0  0
    5.0010    0.6360   20.2060 C   0  0  0  0  0  0  0  0  0  0  0  0
    4.4970    1.5360   19.1360 C   0  0  0  0  0  0  0  0  0  0  0  0
    6.0770   -0.1690   19.8810 C   0  0  0  0  0  0  0  0  0  0  0  0
    5.1270    1.5170   17.9060 C   0  0  0  0  0  0  0  0  0  0  0  0
    6.6090   -0.0840   18.6110 C   0  0  0  0  0  0  0  0  0  0  0  0
    6.6400   -1.0160   20.7160 N   0  0  0  0  0  0  0  0  0  0  0  0
    6.1850    0.7190   17.6160 N   0  0  0  0  0  0  0  0  0  0  0  0
    7.7180   -0.5650   21.3770 C   0  0  0  0  0  0  0  0  0  0  0  0
    8.3220    0.4820   21.1140 O   0  0  0  0  0  0  0  0  0  0  0  0
    8.0800   -1.4570   22.4570 N   0  0  0  0  0  0  0  0  0  0  0  0
    9.3860   -0.9770   22.7790 C   0  0  0  0  0  0  0  0  0  0  0  0
    9.5270    0.4650   23.1320 C   0  0  0  0  0  0  0  0  0  0  0  0
   10.6250   -1.4830   22.8510 C   0  0  0  0  0  0  0  0  0  0  0  0
   10.9010    0.6610   23.3760 N   0  0  0  0  0  0  0  0  0  0  0  0
   11.3220   -0.6010   23.1560 N   0  0  0  0  0  0  0  0  0  0  0  0
   12.6600   -0.8250   23.2860 C   0  0  0  0  0  0  0  0  0  0  0  0
   13.2470   -2.2850   24.7240 I   0  0  0  0  0  0  0  0  0  0  0  0
   13.1820   -1.1410   22.0840 C   0  0  0  0  0  0  0  0  0  0  0  0
   13.4240    0.2610   22.5130 C   0  0  0  0  0  0  0  0  0  0  0  0
  1  2  1  0
  2  3  2  0
  2  4  1  0
  3  5  1  0
  4  6  2  0
  4  7  1  0
  5  8  2  0
  6  8  1  0
  7  9  1  0
  9 10  2  0
  9 11  1  0
 11 12  1  0
 12 13  1  0
 12 14  2  0
 13 15  2  0
 14 16  1  0
 15 16  1  0
 16 17  1  0
 17 18  1  0
 17 19  1  0
 17 20  1  0
 19 20  1  0
M  END
