DAR-DIA-2b784ede-8-vinylsulfonamide
     RDKit          3D

 34 36  0  0  0  0  0  0  0  0999 V2000
    7.3810   -4.8390   20.7630 C   0  0  0  0  0  0  0  0  0  0  0  0
    5.9660   -4.9910   20.7190 C   0  0  0  0  0  0  0  0  0  0  0  0
    5.2240   -3.4360   20.5370 S   0  0  0  0  0  0  0  0  0  0  0  0
    4.6110   -3.6500   19.2710 O   0  0  0  0  0  0  0  0  0  0  0  0
    4.4070   -3.3850   21.6860 O   0  0  0  0  0  0  0  0  0  0  0  0
    6.0140   -1.9910   20.3600 N   0  0  0  0  0  0  0  0  0  0  0  0
    5.0950   -0.8720   20.2930 C   0  0  0  0  0  0  0  0  0  0  0  0
    7.0470   -1.3120   21.1460 C   0  0  1  0  0  0  0  0  0  0  0  0
    4.6330   -0.3240   21.5030 C   0  0  0  0  0  0  0  0  0  0  0  0
    4.6300   -0.2410   19.2040 N   0  0  0  0  0  0  0  0  0  0  0  0
    8.4110   -1.9630   21.5160 C   0  0  0  0  0  0  0  0  0  0  0  0
    6.7040   -0.0960   20.2850 C   0  0  0  0  0  0  0  0  0  0  0  0
    3.7840    0.7870   21.6150 C   0  0  0  0  0  0  0  0  0  0  0  0
    3.7370    0.9250   19.3590 C   0  0  0  0  0  0  0  0  0  0  0  0
    8.4840   -3.1170   21.9000 O   0  0  0  0  0  0  0  0  0  0  0  0
    9.5120   -1.1670   21.4410 N   0  0  0  0  0  0  0  0  0  0  0  0
    6.6880   -0.4990   18.8340 C   0  0  0  0  0  0  0  0  0  0  0  0
    6.3830    1.2030   20.8330 C   0  0  0  0  0  0  0  0  0  0  0  0
    3.2740    1.4950   20.5270 C   0  0  0  0  0  0  0  0  0  0  0  0
   10.4570   -1.0700   22.4950 C   0  0  0  0  0  0  0  0  0  0  0  0
    6.3780    0.1930   17.8120 N   0  0  0  0  0  0  0  0  0  0  0  0
    6.0550    1.7930   19.5810 C   0  0  0  0  0  0  0  0  0  0  0  0
    6.7460    0.4420   21.9400 C   0  0  0  0  0  0  0  0  0  0  0  0
    2.3410    2.7180   20.6380 C   0  0  0  0  0  0  0  0  0  0  0  0
   11.8940   -1.3540   21.9050 C   0  0  0  0  0  0  0  0  0  0  0  0
   10.0340   -0.7570   23.8220 C   0  0  0  0  0  0  0  0  0  0  0  0
    6.0460    1.3420   18.2350 C   0  0  0  0  0  0  0  0  0  0  0  0
    2.0170    3.4570   19.0280 Cl  0  0  0  0  0  0  0  0  0  0  0  0
   13.3600   -1.5970   21.5310 C   0  0  0  0  0  0  0  0  0  0  0  0
   12.6820   -1.1630   23.0920 C   0  0  0  0  0  0  0  0  0  0  0  0
   10.9250   -0.6150   24.8090 C   0  0  0  0  0  0  0  0  0  0  0  0
    8.6330   -0.5460   24.3420 C   0  0  0  0  0  0  0  0  0  0  0  0
   12.2090   -0.7950   24.5130 C   0  0  0  0  0  0  0  0  0  0  0  0
    7.6630   -1.4860   24.0380 C   0  0  0  0  0  0  0  0  0  0  0  0
  1  2  1  0
  2  3  1  0
  3  4  2  0
  3  5  2  0
  3  6  1  0
  6  7  1  0
  6  8  1  0
  7  9  2  0
  7 10  1  0
  8 11  1  6
  8 12  1  0
  9 13  1  0
 10 14  2  0
 11 15  2  0
 11 16  1  0
 12 17  2  0
 12 18  1  0
 13 19  2  0
 14 19  1  0
 16 20  1  0
 17 21  1  0
 18 22  2  0
 18 23  1  0
 19 24  1  0
 20 25  2  0
 20 26  1  0
 21 27  2  0
 22 27  1  0
 24 28  1  0
 25 29  1  0
 25 30  1  0
 26 31  2  0
 26 32  1  0
 30 33  2  0
 31 33  1  0
 32 34  1  0
M  END
