DAR-DIA-2b784ede-12-nitrile
     RDKit          3D

 32 34  0  0  0  0  0  0  0  0999 V2000
    6.4940   -3.8690   19.8380 C   0  0  0  0  0  0  0  0  0  0  0  0
    5.2990   -3.7150   19.4380 N   0  0  0  0  0  0  0  0  0  0  0  0
    7.3370   -2.7800   20.1020 N   0  0  0  0  0  0  0  0  0  0  0  0
    7.4160   -1.8910   19.0190 C   0  0  0  0  0  0  0  0  0  0  0  0
    7.1310   -1.9220   21.2790 C   0  0  1  0  0  0  0  0  0  0  0  0
    7.7880   -2.3730   17.8060 C   0  0  0  0  0  0  0  0  0  0  0  0
    7.1630   -0.5690   19.0220 N   0  0  0  0  0  0  0  0  0  0  0  0
    8.4730   -1.2180   21.7260 C   0  0  0  0  0  0  0  0  0  0  0  0
    6.0800   -0.8630   20.8540 C   0  0  0  0  0  0  0  0  0  0  0  0
    7.9210   -1.6630   16.6960 C   0  0  0  0  0  0  0  0  0  0  0  0
    7.2890    0.1710   17.9100 C   0  0  0  0  0  0  0  0  0  0  0  0
    8.4530   -0.0100   21.9850 O   0  0  0  0  0  0  0  0  0  0  0  0
    9.6820   -1.9340   21.8360 N   0  0  0  0  0  0  0  0  0  0  0  0
    5.5480   -0.7930   19.4230 C   0  0  0  0  0  0  0  0  0  0  0  0
    5.5400    0.1230   21.7110 C   0  0  0  0  0  0  0  0  0  0  0  0
    7.6810   -0.3380   16.7110 C   0  0  0  0  0  0  0  0  0  0  0  0
   10.5810   -1.5090   22.8690 C   0  0  0  0  0  0  0  0  0  0  0  0
    4.6610    0.0940   18.9220 N   0  0  0  0  0  0  0  0  0  0  0  0
    4.6260    1.0070   21.1510 C   0  0  0  0  0  0  0  0  0  0  0  0
    5.8760    0.2480   23.0590 C   0  0  0  0  0  0  0  0  0  0  0  0
    7.8390    0.3380   15.5840 C   0  0  0  0  0  0  0  0  0  0  0  0
    9.8460   -1.1150   24.1920 C   0  0  0  0  0  0  0  0  0  0  0  0
   12.0240   -1.4000   22.8340 C   0  0  0  0  0  0  0  0  0  0  0  0
    4.2220    0.9730   19.8180 C   0  0  0  0  0  0  0  0  0  0  0  0
    9.1440    0.3050   14.8070 C   0  0  0  0  0  0  0  0  0  0  0  0
    8.3050   -1.1970   24.3650 C   0  0  0  0  0  0  0  0  0  0  0  0
   10.6050   -0.6710   25.2640 C   0  0  0  0  0  0  0  0  0  0  0  0
   12.7460   -0.9630   23.9190 C   0  0  0  0  0  0  0  0  0  0  0  0
   13.0570   -1.6860   21.7790 C   0  0  0  0  0  0  0  0  0  0  0  0
   10.1120    0.2590   14.1880 N   0  0  0  0  0  0  0  0  0  0  0  0
   12.1240   -0.6120   25.0720 C   0  0  0  0  0  0  0  0  0  0  0  0
   13.0160   -2.8380   21.0700 C   0  0  0  0  0  0  0  0  0  0  0  0
  1  2  2  3
  1  3  1  0
  3  4  1  0
  3  5  1  0
  4  6  2  0
  4  7  1  0
  5  8  1  6
  5  9  1  0
  6 10  1  0
  7 11  2  0
  8 12  2  0
  8 13  1  0
  9 14  2  0
  9 15  1  0
 10 16  2  0
 11 16  1  0
 13 17  1  0
 14 18  1  0
 15 19  2  0
 15 20  1  0
 16 21  1  0
 17 22  2  0
 17 23  1  0
 18 24  2  0
 19 24  1  0
 21 25  1  0
 22 26  1  0
 22 27  1  0
 23 28  2  0
 23 29  1  0
 25 30  3  0
 27 31  2  0
 28 31  1  0
 29 32  1  0
M  END
