DAR-DIA-2b784ede-22-vinylsulfonamide
     RDKit          3D

 31 33  0  0  0  0  0  0  0  0999 V2000
    7.0920   -3.1670   19.0980 C   0  0  0  0  0  0  0  0  0  0  0  0
    7.1370   -2.2330   20.2680 C   0  0  0  0  0  0  0  0  0  0  0  0
    6.4440   -3.1110   21.6530 S   0  0  0  0  0  0  0  0  0  0  0  0
    5.1270   -3.5740   21.2160 O   0  0  0  0  0  0  0  0  0  0  0  0
    7.4290   -4.0860   22.0580 O   0  0  0  0  0  0  0  0  0  0  0  0
    6.2340   -1.8670   22.8500 N   0  0  0  0  0  0  0  0  0  0  0  0
    5.7090   -0.7150   22.2480 C   0  0  0  0  0  0  0  0  0  0  0  0
    7.4290   -1.4250   23.7280 C   0  0  1  0  0  0  0  0  0  0  0  0
    4.5480   -0.4970   22.4550 C   0  0  0  0  0  0  0  0  0  0  0  0
    6.7130   -0.3540   21.7050 C   0  0  0  0  0  0  0  0  0  0  0  0
    7.1370   -1.5740   25.1230 C   0  0  0  0  0  0  0  0  0  0  0  0
    8.8600   -1.7850   23.2500 C   0  0  0  0  0  0  0  0  0  0  0  0
    4.2880   -1.5840   23.2580 C   0  0  0  0  0  0  0  0  0  0  0  0
    7.0350   -1.5050   22.3770 C   0  0  0  0  0  0  0  0  0  0  0  0
    6.9310   -1.2570   26.3000 O   0  0  0  0  0  0  0  0  0  0  0  0
    7.3060   -0.2010   25.0110 N   0  0  0  0  0  0  0  0  0  0  0  0
   10.2510   -1.4820   23.6150 C   0  0  0  0  0  0  0  0  0  0  0  0
    9.5920   -1.1250   24.0920 C   0  0  0  0  0  0  0  0  0  0  0  0
    5.7770   -2.1020   23.1560 C   0  0  0  0  0  0  0  0  0  0  0  0
    8.2160    0.4830   25.8920 C   0  0  0  0  0  0  0  0  0  0  0  0
   11.5200   -1.7510   23.2300 N   0  0  0  0  0  0  0  0  0  0  0  0
   10.0720   -2.0020   22.9290 C   0  0  0  0  0  0  0  0  0  0  0  0
   10.9690   -0.7010   24.6180 C   0  0  0  0  0  0  0  0  0  0  0  0
    5.9080   -3.4480   24.0120 C   0  0  0  0  0  0  0  0  0  0  0  0
   11.2670   -2.4570   22.3010 C   0  0  0  0  0  0  0  0  0  0  0  0
    7.2920   -4.1470   24.1040 C   0  0  0  0  0  0  0  0  0  0  0  0
    4.9750   -4.5250   23.3800 C   0  0  0  0  0  0  0  0  0  0  0  0
    5.2960   -3.4200   25.4510 C   0  0  0  0  0  0  0  0  0  0  0  0
    8.3060   -4.7150   24.1680 N   0  0  0  0  0  0  0  0  0  0  0  0
    4.5860   -5.4610   24.5490 C   0  0  0  0  0  0  0  0  0  0  0  0
    5.1680   -4.7760   25.7970 C   0  0  0  0  0  0  0  0  0  0  0  0
  1  2  1  0
  2  3  1  0
  3  4  2  0
  3  5  2  0
  3  6  1  0
  6  7  1  0
  6  8  1  0
  7  9  2  0
  7 10  1  0
  8 11  1  1
  8 12  1  0
  9 13  1  0
 10 14  2  0
 11 15  2  0
 11 16  1  0
 12 17  2  0
 12 18  1  0
 13 19  2  0
 14 19  1  0
 16 20  1  0
 17 21  1  0
 18 22  2  0
 18 23  1  0
 19 24  1  0
 21 25  2  0
 22 25  1  0
 24 26  1  0
 24 27  1  0
 24 28  1  0
 26 29  3  0
 27 30  1  0
 28 31  1  0
 30 31  1  0
M  END
