DAR-DIA-caba39e3-6-vinylsulfonamide
     RDKit          3D

 31 34  0  0  0  0  0  0  0  0999 V2000
    7.3520   -2.9110   18.7350 C   0  0  0  0  0  0  0  0  0  0  0  0
    7.1650   -2.1130   19.9870 C   0  0  0  0  0  0  0  0  0  0  0  0
    5.4600   -2.3370   20.3540 S   0  0  0  0  0  0  0  0  0  0  0  0
    5.0310   -3.6460   19.8710 O   0  0  0  0  0  0  0  0  0  0  0  0
    4.8160   -1.1240   19.9010 O   0  0  0  0  0  0  0  0  0  0  0  0
    5.2980   -2.2610   22.0080 N   0  0  0  0  0  0  0  0  0  0  0  0
    4.9310   -3.3560   22.8180 C   0  0  0  0  0  0  0  0  0  0  0  0
    6.2070   -1.3130   22.6490 C   0  0  0  0  0  0  0  0  0  0  0  0
    5.9470   -3.7340   23.8830 C   0  0  0  0  0  0  0  0  0  0  0  0
    7.4830   -2.0820   22.9920 C   0  0  2  0  0  0  0  0  0  0  0  0
    5.5760   -4.8370   24.8780 C   0  0  0  0  0  0  0  0  0  0  0  0
    7.1830   -3.0780   23.9310 C   0  0  0  0  0  0  0  0  0  0  0  0
    8.6040   -1.2070   23.2520 C   0  0  0  0  0  0  0  0  0  0  0  0
    6.5910   -5.2240   25.9500 C   0  0  0  0  0  0  0  0  0  0  0  0
    8.2700   -3.4060   24.9830 C   0  0  0  0  0  0  0  0  0  0  0  0
    8.6460   -0.0520   24.0370 C   0  0  0  0  0  0  0  0  0  0  0  0
    9.8070   -1.5300   22.6770 C   0  0  0  0  0  0  0  0  0  0  0  0
    7.9370   -4.5120   26.0040 C   0  0  0  0  0  0  0  0  0  0  0  0
    9.8260    0.6940   24.2230 C   0  0  0  0  0  0  0  0  0  0  0  0
   10.9900   -0.8540   22.8410 C   0  0  0  0  0  0  0  0  0  0  0  0
   10.0520   -2.5670   21.8460 N   0  0  0  0  0  0  0  0  0  0  0  0
    9.7430    1.8170   25.0020 F   0  0  0  0  0  0  0  0  0  0  0  0
   11.0500    0.2970   23.6280 C   0  0  0  0  0  0  0  0  0  0  0  0
   12.0280   -1.6230   22.0420 C   0  0  0  0  0  0  0  0  0  0  0  0
   11.3890   -2.6290   21.4530 C   0  0  0  0  0  0  0  0  0  0  0  0
   13.4770   -1.3670   21.8830 C   0  0  0  0  0  0  0  0  0  0  0  0
   13.6800   -0.0710   21.5550 C   0  0  0  0  0  0  0  0  0  0  0  0
   14.1860   -0.0420   20.0670 N   0  0  0  0  0  0  0  0  0  0  0  0
   15.0370    0.9830   19.3380 C   0  0  0  0  0  0  0  0  0  0  0  0
   14.7100    1.9220   18.3130 C   0  0  0  0  0  0  0  0  0  0  0  0
   16.1620    1.0550   19.4620 O   0  0  0  0  0  0  0  0  0  0  0  0
  1  2  1  0
  3  2  1  0
  3  4  2  0
  3  5  2  0
  3  6  1  0
  6  7  1  0
  6  8  1  0
  7  9  1  0
  8 10  1  0
  9 11  1  0
  9 12  2  0
 10 12  1  0
 10 13  1  1
 11 14  2  0
 12 15  1  0
 13 16  2  0
 13 17  1  0
 14 18  1  0
 15 18  2  0
 16 19  1  0
 17 20  2  0
 17 21  1  0
 19 22  1  0
 19 23  2  0
 20 23  1  0
 20 24  1  0
 21 25  1  0
 24 25  2  0
 24 26  1  0
 26 27  1  0
 27 28  1  0
 28 29  1  0
 29 30  1  0
 29 31  2  0
M  END
