DAR-DIA-caba39e3-9-bromoalkyne
     RDKit          3D

 24 27  0  0  0  0  0  0  0  0999 V2000
    6.9820   -3.3370   19.7730 C   0  0  0  0  0  0  0  0  0  0  0  0
    5.7850   -3.0110   18.9540 C   0  0  0  0  0  0  0  0  0  0  0  0
    7.1380   -3.0890   21.1230 N   0  0  0  0  0  0  0  0  0  0  0  0
    6.4880   -3.6390   22.2320 C   0  0  0  0  0  0  0  0  0  0  0  0
    8.0060   -1.9910   21.5660 C   0  0  0  0  0  0  0  0  0  0  0  0
    7.4420   -3.9750   23.3650 C   0  0  0  0  0  0  0  0  0  0  0  0
    9.1500   -2.5150   22.4570 C   0  0  2  0  0  0  0  0  0  0  0  0
    6.9800   -4.9510   24.4340 C   0  0  0  0  0  0  0  0  0  0  0  0
    8.7040   -3.4120   23.4160 C   0  0  0  0  0  0  0  0  0  0  0  0
   10.0080   -1.4220   22.7860 C   0  0  0  0  0  0  0  0  0  0  0  0
    7.8850   -5.3690   25.6050 C   0  0  0  0  0  0  0  0  0  0  0  0
    9.6710   -3.7660   24.5370 C   0  0  0  0  0  0  0  0  0  0  0  0
   11.3160   -1.5730   22.3570 C   0  0  0  0  0  0  0  0  0  0  0  0
    9.5830   -0.2500   23.4870 C   0  0  0  0  0  0  0  0  0  0  0  0
    9.2960   -4.7530   25.6510 C   0  0  0  0  0  0  0  0  0  0  0  0
   12.2890   -0.6200   22.5630 C   0  0  0  0  0  0  0  0  0  0  0  0
   10.5250    0.7720   23.7250 C   0  0  0  0  0  0  0  0  0  0  0  0
    8.2750   -0.0480   23.9500 C   0  0  0  0  0  0  0  0  0  0  0  0
   13.5330   -0.7780   22.1280 O   0  0  0  0  0  0  0  0  0  0  0  0
   11.8180    0.6050   23.2930 C   0  0  0  0  0  0  0  0  0  0  0  0
   10.0990    2.0260   24.4360 C   0  0  0  0  0  0  0  0  0  0  0  0
    7.8770    1.1130   24.6200 C   0  0  0  0  0  0  0  0  0  0  0  0
   13.4540   -1.7390   21.0870 C   0  0  0  0  0  0  0  0  0  0  0  0
    8.7550    2.1610   24.8730 C   0  0  0  0  0  0  0  0  0  0  0  0
  1  2  2  3
  1  3  1  0
  3  4  1  0
  3  5  1  0
  4  6  1  0
  5  7  1  0
  6  8  1  0
  6  9  2  0
  7  9  1  0
  7 10  1  1
  8 11  2  0
  9 12  1  0
 10 13  2  0
 10 14  1  0
 11 15  1  0
 12 15  2  0
 13 16  1  0
 14 17  2  0
 14 18  1  0
 16 19  1  0
 16 20  2  0
 17 20  1  0
 17 21  1  0
 18 22  2  0
 19 23  1  0
 21 24  2  0
 22 24  1  0
M  END
