DAR-DIA-23aa0b97-8-vinylsulfonamide
     RDKit          3D

 22 23  0  0  0  0  0  0  0  0999 V2000
    6.1380   -5.2690   20.3450 C   0  0  0  0  0  0  0  0  0  0  0  0
    6.3140   -5.3540   21.8600 C   0  0  0  0  0  0  0  0  0  0  0  0
    5.0800   -4.3230   22.5970 S   0  0  0  0  0  0  0  0  0  0  0  0
    3.8600   -5.1050   22.5700 O   0  0  0  0  0  0  0  0  0  0  0  0
    5.0680   -3.0360   21.9360 O   0  0  0  0  0  0  0  0  0  0  0  0
    5.5130   -4.1530   24.3420 C   0  0  0  0  0  0  0  0  0  0  0  0
    6.0890   -3.7070   25.5610 C   0  0  0  0  0  0  0  0  0  0  0  0
    6.4070   -3.0400   24.0760 C   0  0  0  0  0  0  0  0  0  0  0  0
    6.6930   -2.7800   24.4820 C   0  0  0  0  0  0  0  0  0  0  0  0
    6.9500   -2.2090   23.1410 C   0  0  0  0  0  0  0  0  0  0  0  0
    6.0920   -3.2360   23.1890 C   0  0  0  0  0  0  0  0  0  0  0  0
    6.8820   -1.9900   21.6830 N   0  0  0  0  0  0  0  0  0  0  0  0
    7.5000   -0.9340   21.0240 C   0  0  0  0  0  0  0  0  0  0  0  0
    8.4890   -0.3130   21.4460 O   0  0  0  0  0  0  0  0  0  0  0  0
    6.8100   -0.6540   19.7550 N   0  0  0  0  0  0  0  0  0  0  0  0
    5.8370    0.2500   19.5210 C   0  0  0  0  0  0  0  0  0  0  0  0
    5.9560    1.0580   18.2380 C   0  0  0  0  0  0  0  0  0  0  0  0
    4.7360    0.5120   20.3440 C   0  0  0  0  0  0  0  0  0  0  0  0
    4.8720    2.0190   18.0440 N   0  0  0  0  0  0  0  0  0  0  0  0
    3.7510    1.4660   20.0590 C   0  0  0  0  0  0  0  0  0  0  0  0
    3.8210    2.2230   18.9010 C   0  0  0  0  0  0  0  0  0  0  0  0
    2.7460    1.6290   20.9260 N   0  0  0  0  0  0  0  0  0  0  0  0
  1  2  1  0
  3  2  1  0
  3  4  2  0
  3  5  2  0
  3  6  1  0
  6  7  2  0
  6  8  1  0
  7  9  1  0
  8 10  2  0
  9 11  2  0
 10 11  1  0
 10 12  1  0
 12 13  1  0
 13 14  2  0
 13 15  1  0
 15 16  1  0
 16 17  2  0
 16 18  1  0
 17 19  1  0
 18 20  2  0
 19 21  2  0
 20 21  1  0
 20 22  1  0
M  END
