DAR-DIA-23aa0b97-2-nitrile
     RDKit          3D

 21 23  0  0  0  0  0  0  0  0999 V2000
    6.8090   -3.9300   20.0380 C   0  0  0  0  0  0  0  0  0  0  0  0
    5.8230   -3.4430   19.3860 N   0  0  0  0  0  0  0  0  0  0  0  0
    7.5460   -3.1240   21.0780 C   0  0  0  0  0  0  0  0  0  0  0  0
    7.9280   -3.8190   22.4980 C   0  0  0  0  0  0  0  0  0  0  0  0
    7.8590   -1.7610   20.7280 C   0  0  0  0  0  0  0  0  0  0  0  0
    8.6690   -3.0920   23.6360 N   0  0  0  0  0  0  0  0  0  0  0  0
    8.3300   -1.9200   21.9460 C   0  0  0  0  0  0  0  0  0  0  0  0
    8.8880   -1.7800   23.1340 C   0  0  0  0  0  0  0  0  0  0  0  0
    8.7490   -0.5110   21.8690 N   0  0  0  0  0  0  0  0  0  0  0  0
    8.1400    0.4150   21.0070 C   0  0  0  0  0  0  0  0  0  0  0  0
    8.4160    1.6230   21.0510 O   0  0  0  0  0  0  0  0  0  0  0  0
    7.2360   -0.1590   20.0850 C   0  0  0  0  0  0  0  0  0  0  0  0
    6.0740    0.5660   19.7570 C   0  0  0  0  0  0  0  0  0  0  0  0
    5.5330    0.8380   18.4060 C   0  0  0  0  0  0  0  0  0  0  0  0
    5.0950    1.2240   20.5820 C   0  0  0  0  0  0  0  0  0  0  0  0
    4.4120    1.5410   18.4340 N   0  0  0  0  0  0  0  0  0  0  0  0
    4.0980    1.8040   19.7290 C   0  0  0  0  0  0  0  0  0  0  0  0
    4.9170    1.4040   21.9440 C   0  0  0  0  0  0  0  0  0  0  0  0
    3.0010    2.5090   20.0980 N   0  0  0  0  0  0  0  0  0  0  0  0
    3.8050    2.1180   22.3330 C   0  0  0  0  0  0  0  0  0  0  0  0
    2.8920    2.6430   21.4370 C   0  0  0  0  0  0  0  0  0  0  0  0
  1  2  2  3
  1  3  1  0
  3  4  2  0
  3  5  1  0
  4  6  1  0
  5  7  2  0
  6  8  2  0
  7  8  1  0
  7  9  1  0
  9 10  1  0
 10 11  2  0
 10 12  1  0
 12 13  1  0
 13 14  2  0
 13 15  1  0
 14 16  1  0
 15 17  2  0
 16 17  1  0
 15 18  1  0
 17 19  1  0
 18 20  2  0
 19 21  2  0
 20 21  1  0
M  END
