DAR-DIA-caba39e3-2-bromoalkyne
     RDKit          3D

 20 22  0  0  0  0  0  0  0  0999 V2000
    7.0300   -3.3230   19.7390 C   0  0  0  0  0  0  0  0  0  0  0  0
    5.8300   -3.0140   18.9140 C   0  0  0  0  0  0  0  0  0  0  0  0
    7.1640   -3.1410   21.0910 N   0  0  0  0  0  0  0  0  0  0  0  0
    6.5120   -3.7700   22.1560 C   0  0  0  0  0  0  0  0  0  0  0  0
    8.0120   -2.0460   21.5860 C   0  0  0  0  0  0  0  0  0  0  0  0
    7.4220   -4.0480   23.3380 C   0  0  0  0  0  0  0  0  0  0  0  0
    9.1550   -2.6140   22.4430 C   0  0  2  0  0  0  0  0  0  0  0  0
    6.9330   -4.9780   24.4390 C   0  0  0  0  0  0  0  0  0  0  0  0
    8.6690   -3.4720   23.4110 C   0  0  0  0  0  0  0  0  0  0  0  0
    9.9640   -1.5590   22.9300 C   0  0  0  0  0  0  0  0  0  0  0  0
    7.7980   -5.3200   25.6710 C   0  0  0  0  0  0  0  0  0  0  0  0
    9.5980   -3.7520   24.5910 C   0  0  0  0  0  0  0  0  0  0  0  0
    9.4830   -0.7430   23.9680 C   0  0  0  0  0  0  0  0  0  0  0  0
   11.2330   -1.3500   22.3840 C   0  0  0  0  0  0  0  0  0  0  0  0
    9.1970   -4.6780   25.7490 C   0  0  0  0  0  0  0  0  0  0  0  0
   10.2760    0.2740   24.4470 C   0  0  0  0  0  0  0  0  0  0  0  0
   11.9930   -0.3290   22.8840 C   0  0  0  0  0  0  0  0  0  0  0  0
   11.5170    0.4710   23.9030 C   0  0  0  0  0  0  0  0  0  0  0  0
   13.1760   -0.1180   22.3730 O   0  0  0  0  0  0  0  0  0  0  0  0
   13.3670    1.1920   22.7890 C   0  0  0  0  0  0  0  0  0  0  0  0
  1  2  2  3
  1  3  1  0
  3  4  1  0
  3  5  1  0
  4  6  1  0
  5  7  1  0
  6  8  1  0
  6  9  2  0
  7  9  1  0
  7 10  1  1
  8 11  2  0
  9 12  1  0
 10 13  2  0
 10 14  1  0
 11 15  1  0
 12 15  2  0
 13 16  1  0
 14 17  2  0
 16 18  2  0
 17 18  1  0
 17 19  1  0
 19 20  1  0
M  END
