DAR-DIA-eace69ff-35
     RDKit          3D

 15 16  0  0  0  0  0  0  0  0999 V2000
   13.7010   -2.7180   23.4870 C   0  0  0  0  0  0  0  0  0  0  0  0
   13.5560   -1.8290   22.4010 O   0  0  0  0  0  0  0  0  0  0  0  0
   12.6120   -0.9700   22.7530 C   0  0  0  0  0  0  0  0  0  0  0  0
   11.3010   -1.6320   23.1650 C   0  0  0  0  0  0  0  0  0  0  0  0
   12.8930    0.3930   22.7370 C   0  0  0  0  0  0  0  0  0  0  0  0
   10.2200   -0.6640   23.5990 C   0  0  0  0  0  0  0  0  0  0  0  0
   11.9300    1.3100   23.1170 C   0  0  0  0  0  0  0  0  0  0  0  0
   10.6590    0.7980   23.5290 C   0  0  0  0  0  0  0  0  0  0  0  0
   11.9230    2.7700   23.1950 C   0  0  0  0  0  0  0  0  0  0  0  0
    9.8630    1.8530   23.8640 N   0  0  0  0  0  0  0  0  0  0  0  0
   10.5460    3.0930   23.6880 C   0  0  0  0  0  0  0  0  0  0  0  0
   12.9290    3.7120   22.8970 C   0  0  0  0  0  0  0  0  0  0  0  0
   12.2130    4.8740   22.3510 N   0  0  0  0  0  0  0  0  0  0  0  0
   13.2390    5.7210   21.7770 C   0  0  0  0  0  0  0  0  0  0  0  0
   11.6150    5.6230   23.4510 C   0  0  0  0  0  0  0  0  0  0  0  0
  1  2  1  0
  2  3  1  0
  3  4  2  0
  3  5  1  0
  4  6  1  0
  5  7  2  0
  6  8  2  0
  7  8  1  0
  7  9  1  0
  8 10  1  0
  9 11  2  0
 10 11  1  0
  9 12  1  0
 12 13  1  0
 13 14  1  0
 13 15  1  0
M  END
