DAR-DIA-2b784ede-25-nitrile
     RDKit          3D

 24 26  0  0  0  0  0  0  0  0999 V2000
    7.0190   -2.8350   20.3240 C   0  0  0  0  0  0  0  0  0  0  0  0
    5.8580   -3.0820   19.6700 N   0  0  0  0  0  0  0  0  0  0  0  0
    7.3270   -1.7230   21.4690 N   0  0  0  0  0  0  0  0  0  0  0  0
    6.1800   -1.4420   22.3230 C   0  0  1  0  0  0  0  0  0  0  0  0
    8.3620   -1.6690   22.6560 C   0  0  1  0  0  0  0  0  0  0  0  0
    6.0340   -2.4990   23.2130 C   0  0  0  0  0  0  0  0  0  0  0  0
    6.0010   -0.3680   23.1940 N   0  0  0  0  0  0  0  0  0  0  0  0
    8.2290   -2.9900   23.4670 C   0  0  0  0  0  0  0  0  0  0  0  0
    9.8280   -1.1140   22.7800 C   0  0  0  0  0  0  0  0  0  0  0  0
    5.4010   -2.2600   24.4000 C   0  0  0  0  0  0  0  0  0  0  0  0
    5.9300   -0.8660   24.5940 C   0  0  0  0  0  0  0  0  0  0  0  0
    8.0790   -3.0300   24.6850 O   0  0  0  0  0  0  0  0  0  0  0  0
    8.2780   -4.2030   22.7990 N   0  0  0  0  0  0  0  0  0  0  0  0
   10.3380    0.3050   22.4110 C   0  0  0  0  0  0  0  0  0  0  0  0
   10.8300   -1.9150   23.2810 C   0  0  0  0  0  0  0  0  0  0  0  0
    5.5760   -3.1950   25.4340 C   0  0  0  0  0  0  0  0  0  0  0  0
    3.9130   -2.2430   24.2070 C   0  0  0  0  0  0  0  0  0  0  0  0
    7.7230   -5.4430   23.2180 C   0  0  0  0  0  0  0  0  0  0  0  0
   11.6430    0.6930   22.5420 N   0  0  0  0  0  0  0  0  0  0  0  0
   12.1370   -1.4960   23.3760 C   0  0  0  0  0  0  0  0  0  0  0  0
   10.6010   -3.3030   23.7660 C   0  0  0  0  0  0  0  0  0  0  0  0
    4.6040   -4.1690   25.1910 C   0  0  0  0  0  0  0  0  0  0  0  0
    3.6850   -3.7270   24.0460 C   0  0  0  0  0  0  0  0  0  0  0  0
   12.5060   -0.2250   22.9950 C   0  0  0  0  0  0  0  0  0  0  0  0
  1  2  2  3
  1  3  1  0
  4  3  1  1
  3  5  1  0
  4  6  1  0
  4  7  1  0
  5  8  1  6
  5  9  1  0
 10  6  1  0
  7 11  1  0
 10 11  1  0
  8 12  2  0
  8 13  1  0
  9 14  2  0
  9 15  1  0
 10 16  1  0
 10 17  1  0
 13 18  1  0
 14 19  1  0
 15 20  2  0
 15 21  1  0
 16 22  1  0
 17 23  1  0
 22 23  1  0
 19 24  2  0
 20 24  1  0
M  END
