DAR-DIA-842b4336-17
     RDKit          3D

 19 21  0  0  0  0  0  0  0  0999 V2000
    8.8490    0.2290   21.2950 O   0  0  0  0  0  0  0  0  0  0  0  0
    8.4630   -0.9240   21.4780 C   0  0  0  0  0  0  0  0  0  0  0  0
    7.7450   -1.6810   20.4230 C   0  0  0  0  0  0  0  0  0  0  0  0
    8.6330   -1.5840   22.6840 N   0  0  0  0  0  0  0  0  0  0  0  0
    6.8370   -0.6420   19.9400 C   0  0  0  0  0  0  0  0  0  0  0  0
    9.7360   -1.1110   23.3130 C   0  0  0  0  0  0  0  0  0  0  0  0
    6.1190   -0.0430   21.0150 C   0  0  0  0  0  0  0  0  0  0  0  0
    6.4550   -0.0300   18.6440 N   0  0  0  0  0  0  0  0  0  0  0  0
   10.1740   -0.7340   24.5130 C   0  0  0  0  0  0  0  0  0  0  0  0
   10.9450   -0.9400   22.1330 S   0  0  0  0  0  0  0  0  0  0  0  0
    5.3010    0.9100   20.3540 C   0  0  0  0  0  0  0  0  0  0  0  0
    5.4990    0.9260   18.9570 C   0  0  0  0  0  0  0  0  0  0  0  0
   11.4590   -0.3050   24.4820 C   0  0  0  0  0  0  0  0  0  0  0  0
   12.0260   -0.3360   23.2530 C   0  0  0  0  0  0  0  0  0  0  0  0
    4.4120    1.7450   20.9000 C   0  0  0  0  0  0  0  0  0  0  0  0
    4.7950    1.8130   18.0430 N   0  0  0  0  0  0  0  0  0  0  0  0
   13.5210    0.1020   22.7140 Cl  0  0  0  0  0  0  0  0  0  0  0  0
    3.7010    2.6000   20.1260 C   0  0  0  0  0  0  0  0  0  0  0  0
    3.8900    2.6320   18.7310 C   0  0  0  0  0  0  0  0  0  0  0  0
  1  2  2  0
  2  3  1  0
  2  4  1  0
  3  5  1  0
  4  6  1  0
  5  7  2  0
  5  8  1  0
  6  9  2  0
  6 10  1  0
  7 11  1  0
  8 12  1  0
 11 12  2  0
  9 13  1  0
 10 14  1  0
 13 14  2  0
 11 15  1  0
 12 16  1  0
 14 17  1  0
 15 18  2  0
 16 19  2  0
 18 19  1  0
M  END
