DAR-DIA-0cde14eb-47
     RDKit          3D

 24 27  0  0  0  0  0  0  0  0999 V2000
    8.6820    1.1650   21.1520 O   0  0  0  0  0  0  0  0  0  0  0  0
    7.9670    0.2220   21.5680 C   0  0  0  0  0  0  0  0  0  0  0  0
    8.1600   -0.3040   22.9460 C   0  0  0  0  0  0  0  0  0  0  0  0
    6.9190   -0.4360   20.8300 N   0  0  0  0  0  0  0  0  0  0  0  0
    9.5470   -0.0030   23.2000 C   0  0  0  0  0  0  0  0  0  0  0  0
    6.2530    0.2850   19.8690 C   0  0  0  0  0  0  0  0  0  0  0  0
    9.9730    1.1160   23.8440 C   0  0  0  0  0  0  0  0  0  0  0  0
   10.4390   -0.9130   22.7340 C   0  0  0  0  0  0  0  0  0  0  0  0
    6.6300    0.2170   18.4690 C   0  0  0  0  0  0  0  0  0  0  0  0
    5.1860    1.1310   20.2520 C   0  0  0  0  0  0  0  0  0  0  0  0
   11.3360    1.3150   24.0110 C   0  0  0  0  0  0  0  0  0  0  0  0
   11.7570   -0.7260   22.9040 C   0  0  0  0  0  0  0  0  0  0  0  0
    5.9630    0.9630   17.5780 N   0  0  0  0  0  0  0  0  0  0  0  0
    4.5340    1.8800   19.2420 C   0  0  0  0  0  0  0  0  0  0  0  0
    4.7290    1.2890   21.5500 C   0  0  0  0  0  0  0  0  0  0  0  0
   12.2440    0.3900   23.5440 C   0  0  0  0  0  0  0  0  0  0  0  0
   12.5380   -1.6380   22.4290 C   0  0  0  0  0  0  0  0  0  0  0  0
    4.9640    1.7640   17.9290 C   0  0  0  0  0  0  0  0  0  0  0  0
    3.4070    2.7870   19.5730 C   0  0  0  0  0  0  0  0  0  0  0  0
    3.6830    2.1250   21.9090 C   0  0  0  0  0  0  0  0  0  0  0  0
   11.9370   -2.6470   21.1720 Cl  0  0  0  0  0  0  0  0  0  0  0  0
   13.7100   -1.1540   22.1230 C   0  0  0  0  0  0  0  0  0  0  0  0
   13.6430   -2.1430   23.3620 C   0  0  0  0  0  0  0  0  0  0  0  0
    3.0100    2.8830   20.9130 C   0  0  0  0  0  0  0  0  0  0  0  0
  1  2  2  0
  2  3  1  0
  2  4  1  0
  3  5  1  0
  4  6  1  0
  5  7  2  0
  5  8  1  0
  6  9  2  0
  6 10  1  0
  7 11  1  0
  8 12  2  0
  9 13  1  0
 10 14  2  0
 10 15  1  0
 11 16  2  0
 12 16  1  0
 12 17  1  0
 13 18  2  0
 14 18  1  0
 14 19  1  0
 15 20  2  0
 17 21  1  0
 17 22  1  0
 17 23  1  0
 22 23  1  0
 19 24  2  0
 20 24  1  0
M  END
