DAR-DIA-2b784ede-53-nitrile
     RDKit          3D

 32 34  0  0  0  0  0  0  0  0999 V2000
    7.0480   -3.0410   19.4930 C   0  0  0  0  0  0  0  0  0  0  0  0
    6.1050   -3.1660   18.6240 N   0  0  0  0  0  0  0  0  0  0  0  0
    7.0000   -1.7610   20.1830 N   0  0  0  0  0  0  0  0  0  0  0  0
    6.2300   -0.7190   19.3710 C   0  0  0  0  0  0  0  0  0  0  0  0
    7.3750   -1.3910   21.6270 C   0  0  1  0  0  0  0  0  0  0  0  0
    7.3330    0.0080   19.1010 C   0  0  0  0  0  0  0  0  0  0  0  0
    4.9990   -0.7200   19.1110 C   0  0  0  0  0  0  0  0  0  0  0  0
    8.2190   -2.3070   22.3690 C   0  0  0  0  0  0  0  0  0  0  0  0
    7.8350    0.0760   21.7430 C   0  0  0  0  0  0  0  0  0  0  0  0
    7.6750   -1.1540   20.1090 C   0  0  0  0  0  0  0  0  0  0  0  0
    4.7880   -1.7060   19.8020 N   0  0  0  0  0  0  0  0  0  0  0  0
    7.6420   -3.1210   23.0880 O   0  0  0  0  0  0  0  0  0  0  0  0
    9.6090   -2.2740   22.3430 N   0  0  0  0  0  0  0  0  0  0  0  0
    6.9170    1.2510   21.4050 C   0  0  0  0  0  0  0  0  0  0  0  0
    9.1310    0.4240   22.1770 C   0  0  0  0  0  0  0  0  0  0  0  0
    6.1700   -1.9690   20.3820 C   0  0  0  0  0  0  0  0  0  0  0  0
   10.5260   -2.6450   23.3980 C   0  0  0  0  0  0  0  0  0  0  0  0
    7.4710    2.6500   21.5640 C   0  0  0  0  0  0  0  0  0  0  0  0
    9.6380    1.6910   22.3210 N   0  0  0  0  0  0  0  0  0  0  0  0
    6.1890   -3.1530   21.4040 C   0  0  0  0  0  0  0  0  0  0  0  0
   11.8120   -2.0590   23.3300 C   0  0  0  0  0  0  0  0  0  0  0  0
   10.2160   -3.5530   24.4820 C   0  0  0  0  0  0  0  0  0  0  0  0
    8.8790    2.7730   22.0400 C   0  0  0  0  0  0  0  0  0  0  0  0
    5.2210   -2.6060   22.4880 C   0  0  0  0  0  0  0  0  0  0  0  0
    5.5850   -4.5030   20.9570 C   0  0  0  0  0  0  0  0  0  0  0  0
   12.1810   -1.1750   22.3270 C   0  0  0  0  0  0  0  0  0  0  0  0
   12.7990   -2.3330   24.2820 C   0  0  0  0  0  0  0  0  0  0  0  0
   11.2880   -3.8630   25.5400 C   0  0  0  0  0  0  0  0  0  0  0  0
    8.9060   -4.2630   24.7010 C   0  0  0  0  0  0  0  0  0  0  0  0
   12.8580    0.1390   22.7960 C   0  0  0  0  0  0  0  0  0  0  0  0
   12.5360   -3.2790   25.4430 C   0  0  0  0  0  0  0  0  0  0  0  0
    8.0530   -3.8270   25.4750 O   0  0  0  0  0  0  0  0  0  0  0  0
  1  2  2  3
  1  3  1  0
  3  4  1  0
  3  5  1  0
  4  6  2  0
  4  7  1  0
  5  8  1  6
  5  9  1  0
  6 10  1  0
  7 11  2  0
  8 12  2  0
  8 13  1  0
  9 14  2  0
  9 15  1  0
 10 16  2  0
 11 16  1  0
 13 17  1  0
 14 18  1  0
 15 19  2  0
 16 20  1  0
 17 21  2  0
 17 22  1  0
 18 23  2  0
 19 23  1  0
 20 24  1  0
 20 25  1  0
 21 26  1  0
 21 27  1  0
 22 28  2  0
 22 29  1  0
 26 30  1  0
 27 31  2  0
 28 31  1  0
 29 32  1  0
M  END
