DAR-DIA-2b784ede-32-bromoalkyne
     RDKit          3D

 25 26  0  0  0  0  0  0  0  0999 V2000
    7.1380   -2.7630   20.1070 C   0  0  0  0  0  0  0  0  0  0  0  0
    5.9640   -2.4350   19.1940 C   0  0  0  0  0  0  0  0  0  0  0  0
    7.3780   -1.9950   21.4750 N   0  0  0  0  0  0  0  0  0  0  0  0
    6.5320   -2.2790   22.5850 C   0  0  0  0  0  0  0  0  0  0  0  0
    8.1800   -0.6880   21.9160 C   0  0  2  0  0  0  0  0  0  0  0  0
    5.6070   -2.6750   23.5390 C   0  0  0  0  0  0  0  0  0  0  0  0
    5.8340   -3.0890   21.6640 N   0  0  0  0  0  0  0  0  0  0  0  0
    7.7470    0.6040   21.1600 C   0  0  0  0  0  0  0  0  0  0  0  0
    9.6470   -0.8090   22.4710 C   0  0  0  0  0  0  0  0  0  0  0  0
    4.5970   -3.5340   23.2940 C   0  0  0  0  0  0  0  0  0  0  0  0
    4.7080   -3.8280   22.0320 O   0  0  0  0  0  0  0  0  0  0  0  0
    7.4460    0.5570   19.9720 O   0  0  0  0  0  0  0  0  0  0  0  0
    7.7050    1.7630   21.9170 N   0  0  0  0  0  0  0  0  0  0  0  0
   10.6560    0.3520   22.3280 C   0  0  0  0  0  0  0  0  0  0  0  0
   10.2060   -1.8910   23.1110 C   0  0  0  0  0  0  0  0  0  0  0  0
    3.6620   -4.0090   24.2180 C   0  0  0  0  0  0  0  0  0  0  0  0
    8.5470    2.9100   21.8740 C   0  0  0  0  0  0  0  0  0  0  0  0
   11.9590    0.3720   22.7000 N   0  0  0  0  0  0  0  0  0  0  0  0
   11.5450   -1.8620   23.4790 C   0  0  0  0  0  0  0  0  0  0  0  0
    9.4570   -3.1450   23.4530 C   0  0  0  0  0  0  0  0  0  0  0  0
    2.6060   -5.0760   23.8840 C   0  0  0  0  0  0  0  0  0  0  0  0
    4.6270   -4.6440   25.2270 C   0  0  0  0  0  0  0  0  0  0  0  0
    2.9550   -2.8640   24.9740 C   0  0  0  0  0  0  0  0  0  0  0  0
   12.3800   -0.7650   23.2560 C   0  0  0  0  0  0  0  0  0  0  0  0
    2.4340   -2.0170   25.5790 N   0  0  0  0  0  0  0  0  0  0  0  0
  1  2  2  3
  1  3  1  0
  3  4  1  0
  3  5  1  0
  4  6  1  0
  4  7  2  0
  5  8  1  6
  5  9  1  0
  6 10  2  0
  7 11  1  0
 10 11  1  0
  8 12  2  0
  8 13  1  0
  9 14  2  0
  9 15  1  0
 10 16  1  0
 13 17  1  0
 14 18  1  0
 15 19  2  0
 15 20  1  0
 16 21  1  0
 16 22  1  0
 16 23  1  0
 18 24  2  0
 19 24  1  0
 23 25  3  0
M  END
