DAR-DIA-caba39e3-8-bromoalkyne
     RDKit          3D

 23 26  0  0  0  0  0  0  0  0999 V2000
    6.9550   -3.3610   19.7620 C   0  0  0  0  0  0  0  0  0  0  0  0
    5.9660   -2.8490   18.7750 C   0  0  0  0  0  0  0  0  0  0  0  0
    7.0040   -2.8640   21.0540 N   0  0  0  0  0  0  0  0  0  0  0  0
    6.2930   -3.1910   22.2130 C   0  0  0  0  0  0  0  0  0  0  0  0
    7.9560   -1.8980   21.3860 C   0  0  0  0  0  0  0  0  0  0  0  0
    7.2400   -3.8420   23.1720 C   0  0  0  0  0  0  0  0  0  0  0  0
    9.0470   -2.4930   22.2910 C   0  0  2  0  0  0  0  0  0  0  0  0
    6.7160   -4.8760   24.1420 C   0  0  0  0  0  0  0  0  0  0  0  0
    8.5650   -3.4830   23.1320 C   0  0  0  0  0  0  0  0  0  0  0  0
    9.7190   -1.3610   22.8710 C   0  0  0  0  0  0  0  0  0  0  0  0
    7.6510   -5.6030   25.1050 C   0  0  0  0  0  0  0  0  0  0  0  0
    9.5570   -4.1710   24.0270 C   0  0  0  0  0  0  0  0  0  0  0  0
    9.1590   -0.4840   23.7520 C   0  0  0  0  0  0  0  0  0  0  0  0
   10.9620   -1.2400   22.4460 C   0  0  0  0  0  0  0  0  0  0  0  0
    9.1350   -5.2650   25.0200 C   0  0  0  0  0  0  0  0  0  0  0  0
    9.9140    0.5640   24.2160 C   0  0  0  0  0  0  0  0  0  0  0  0
   11.7850   -0.1850   22.9040 C   0  0  0  0  0  0  0  0  0  0  0  0
   11.3700   -2.1810   21.5490 C   0  0  0  0  0  0  0  0  0  0  0  0
    9.0720    1.5950   25.2710 Cl  0  0  0  0  0  0  0  0  0  0  0  0
   11.2540    0.7260   23.8050 C   0  0  0  0  0  0  0  0  0  0  0  0
   13.1640   -0.1400   22.3540 C   0  0  0  0  0  0  0  0  0  0  0  0
   12.6040   -2.1180   21.0480 C   0  0  0  0  0  0  0  0  0  0  0  0
   13.4820   -1.2150   21.3610 C   0  0  0  0  0  0  0  0  0  0  0  0
  1  2  2  3
  1  3  1  0
  3  4  1  0
  3  5  1  0
  4  6  1  0
  5  7  1  0
  6  8  1  0
  6  9  2  0
  7  9  1  0
  7 10  1  1
  8 11  2  0
  9 12  1  0
 10 13  2  0
 10 14  1  0
 11 15  1  0
 12 15  2  0
 13 16  1  0
 14 17  2  0
 14 18  1  0
 16 19  1  0
 16 20  2  0
 17 20  1  0
 17 21  1  0
 18 22  2  0
 21 23  2  0
 22 23  1  0
M  END
