DAR-DIA-0cde14eb-67
     RDKit          3D

 20 22  0  0  0  0  0  0  0  0999 V2000
    4.3780    0.8060   21.5460 C   0  0  0  0  0  0  0  0  0  0  0  0
    5.0550    0.7100   20.2050 C   0  0  0  0  0  0  0  0  0  0  0  0
    4.5470    1.5740   19.1070 C   0  0  0  0  0  0  0  0  0  0  0  0
    6.1210   -0.1180   19.9070 C   0  0  0  0  0  0  0  0  0  0  0  0
    5.1650    1.5010   17.8780 C   0  0  0  0  0  0  0  0  0  0  0  0
    6.6440   -0.0880   18.6310 C   0  0  0  0  0  0  0  0  0  0  0  0
    6.6860   -0.9380   20.7750 N   0  0  0  0  0  0  0  0  0  0  0  0
    6.2100    0.6860   17.6100 N   0  0  0  0  0  0  0  0  0  0  0  0
    7.7470   -0.4530   21.4530 C   0  0  0  0  0  0  0  0  0  0  0  0
    8.3630    0.5750   21.1560 O   0  0  0  0  0  0  0  0  0  0  0  0
    8.0700   -1.2910   22.5910 N   0  0  0  0  0  0  0  0  0  0  0  0
    9.4040   -0.8590   22.8940 C   0  0  0  0  0  0  0  0  0  0  0  0
    9.6470    0.0720   24.0400 C   0  0  0  0  0  0  0  0  0  0  0  0
   10.6110   -1.0960   22.3430 C   0  0  0  0  0  0  0  0  0  0  0  0
   11.0430    0.3010   24.0400 N   0  0  0  0  0  0  0  0  0  0  0  0
   11.3800   -0.4860   22.9640 N   0  0  0  0  0  0  0  0  0  0  0  0
   12.7210   -0.5230   22.6440 C   0  0  0  0  0  0  0  0  0  0  0  0
   13.2190   -1.4460   21.7200 F   0  0  0  0  0  0  0  0  0  0  0  0
   13.3330   -0.5090   23.8220 C   0  0  0  0  0  0  0  0  0  0  0  0
   13.5320    0.7170   22.9710 C   0  0  0  0  0  0  0  0  0  0  0  0
  1  2  1  0
  2  3  2  0
  2  4  1  0
  3  5  1  0
  4  6  2  0
  4  7  1  0
  5  8  2  0
  6  8  1  0
  7  9  1  0
  9 10  2  0
  9 11  1  0
 11 12  1  0
 12 13  1  0
 12 14  2  0
 13 15  2  0
 14 16  1  0
 15 16  1  0
 16 17  1  0
 17 18  1  0
 17 19  1  0
 17 20  1  0
 19 20  1  0
M  END
