DAR-DIA-fc970077-8
     RDKit          3D

 19 21  0  0  0  0  0  0  0  0999 V2000
    8.8600    0.8650   21.3480 O   0  0  0  0  0  0  0  0  0  0  0  0
    8.2990   -0.1130   21.8390 C   0  0  0  0  0  0  0  0  0  0  0  0
    8.8580   -0.7840   23.0680 C   0  0  2  0  0  0  0  0  0  0  0  0
    7.0820   -0.6850   21.3400 N   0  0  0  0  0  0  0  0  0  0  0  0
   10.2930   -0.4600   23.0430 C   0  0  0  0  0  0  0  0  0  0  0  0
    8.6270   -1.9700   23.2820 O   0  0  0  0  0  0  0  0  0  0  0  0
    6.7810   -2.0300   21.8160 C   0  0  0  0  0  0  0  0  0  0  0  0
    6.3620   -0.0370   20.2750 C   0  0  0  0  0  0  0  0  0  0  0  0
   10.7160    0.7110   23.6470 C   0  0  0  0  0  0  0  0  0  0  0  0
   11.3530   -1.3120   22.3880 C   0  0  0  0  0  0  0  0  0  0  0  0
    7.9970   -2.6410   22.1720 C   0  0  0  0  0  0  0  0  0  0  0  0
    5.1650    0.6230   20.4800 C   0  0  0  0  0  0  0  0  0  0  0  0
    6.8760   -0.0510   18.9700 C   0  0  0  0  0  0  0  0  0  0  0  0
   12.0530    1.0630   23.6250 C   0  0  0  0  0  0  0  0  0  0  0  0
   12.6860   -0.9310   22.3920 C   0  0  0  0  0  0  0  0  0  0  0  0
    4.5450    1.2590   19.3280 C   0  0  0  0  0  0  0  0  0  0  0  0
    6.3610    0.5160   17.8450 N   0  0  0  0  0  0  0  0  0  0  0  0
   13.0210    0.2670   23.0140 C   0  0  0  0  0  0  0  0  0  0  0  0
    5.1980    1.1870   17.9680 C   0  0  0  0  0  0  0  0  0  0  0  0
  1  2  2  0
  2  3  1  0
  2  4  1  0
  3  5  1  6
  3  6  1  0
  4  7  1  0
  4  8  1  0
  5  9  2  0
  5 10  1  0
  6 11  1  0
  7 11  1  0
  8 12  2  0
  8 13  1  0
  9 14  1  0
 10 15  2  0
 12 16  1  0
 13 17  2  0
 14 18  2  0
 15 18  1  0
 16 19  2  0
 17 19  1  0
M  END
