DAR-DIA-2b784ede-10-bromoalkyne
     RDKit          3D

 32 34  0  0  0  0  0  0  0  0999 V2000
    7.0650   -3.7730   20.1340 C   0  0  0  0  0  0  0  0  0  0  0  0
    5.7880   -3.3050   19.4370 C   0  0  0  0  0  0  0  0  0  0  0  0
    8.0250   -2.7810   20.6270 N   0  0  0  0  0  0  0  0  0  0  0  0
    8.8660   -2.9880   21.7500 C   0  0  0  0  0  0  0  0  0  0  0  0
    7.3990   -1.5170   21.0990 C   0  0  2  0  0  0  0  0  0  0  0  0
    8.3090   -3.8540   22.6320 C   0  0  0  0  0  0  0  0  0  0  0  0
   10.0790   -2.2830   21.7950 C   0  0  0  0  0  0  0  0  0  0  0  0
    6.4210   -1.0630   20.0550 C   0  0  0  0  0  0  0  0  0  0  0  0
    8.3020   -0.3860   21.6500 C   0  0  0  0  0  0  0  0  0  0  0  0
    9.3660   -3.7380   23.4900 C   0  0  0  0  0  0  0  0  0  0  0  0
   11.2340   -2.1690   22.7360 C   0  0  0  0  0  0  0  0  0  0  0  0
    6.6870   -1.1510   18.8570 O   0  0  0  0  0  0  0  0  0  0  0  0
    5.2810   -0.5660   20.6050 N   0  0  0  0  0  0  0  0  0  0  0  0
    9.4060   -0.6050   22.6530 C   0  0  0  0  0  0  0  0  0  0  0  0
    8.1640    0.9650   21.2640 C   0  0  0  0  0  0  0  0  0  0  0  0
   10.5920   -3.0560   23.5700 C   0  0  0  0  0  0  0  0  0  0  0  0
    4.9090    0.7680   20.4220 C   0  0  0  0  0  0  0  0  0  0  0  0
   10.2330    0.3200   23.1740 N   0  0  0  0  0  0  0  0  0  0  0  0
    9.0210    1.9030   21.8150 C   0  0  0  0  0  0  0  0  0  0  0  0
    7.1580    1.4770   20.3000 C   0  0  0  0  0  0  0  0  0  0  0  0
   11.2350   -3.4420   24.8260 C   0  0  0  0  0  0  0  0  0  0  0  0
    4.8650    1.2230   18.9610 C   0  0  0  0  0  0  0  0  0  0  0  0
    4.5960    1.6860   21.4600 C   0  0  0  0  0  0  0  0  0  0  0  0
    9.9980    1.5570   22.7230 C   0  0  0  0  0  0  0  0  0  0  0  0
   10.5250   -4.7990   25.0490 C   0  0  0  0  0  0  0  0  0  0  0  0
    5.2140    0.3370   17.7540 C   0  0  0  0  0  0  0  0  0  0  0  0
    4.4930    2.5280   18.6720 C   0  0  0  0  0  0  0  0  0  0  0  0
    4.2350    2.9690   21.0900 C   0  0  0  0  0  0  0  0  0  0  0  0
    4.6400    1.3700   22.8090 C   0  0  0  0  0  0  0  0  0  0  0  0
    9.9890   -5.8300   25.0810 N   0  0  0  0  0  0  0  0  0  0  0  0
    4.1500    3.4660   19.8060 C   0  0  0  0  0  0  0  0  0  0  0  0
    5.7090    2.0260   23.6610 C   0  0  0  0  0  0  0  0  0  0  0  0
  1  2  2  3
  1  3  1  0
  3  4  1  0
  3  5  1  0
  4  6  2  0
  4  7  1  0
  5  8  1  6
  5  9  1  0
  6 10  1  0
  7 11  2  0
  8 12  2  0
  8 13  1  0
  9 14  2  0
  9 15  1  0
 10 16  2  0
 11 16  1  0
 13 17  1  0
 14 18  1  0
 15 19  2  0
 15 20  1  0
 16 21  1  0
 17 22  2  0
 17 23  1  0
 18 24  2  0
 19 24  1  0
 21 25  1  0
 22 26  1  0
 22 27  1  0
 23 28  2  0
 23 29  1  0
 25 30  3  0
 27 31  2  0
 28 31  1  0
 29 32  1  0
M  END
