DAR-DIA-2b784ede-26-nitrile
     RDKit          3D

 33 36  0  0  0  0  0  0  0  0999 V2000
    6.5900   -2.6280   19.8450 C   0  0  0  0  0  0  0  0  0  0  0  0
    5.8210   -2.7070   18.8030 N   0  0  0  0  0  0  0  0  0  0  0  0
    6.3890   -1.3330   20.8280 N   0  0  0  0  0  0  0  0  0  0  0  0
    5.3230   -0.4600   20.3770 C   0  0  1  0  0  0  0  0  0  0  0  0
    6.6750   -0.8570   22.3500 C   0  0  1  0  0  0  0  0  0  0  0  0
    5.2640    0.8480   20.8430 C   0  0  0  0  0  0  0  0  0  0  0  0
    5.0420   -0.3080   19.0740 N   0  0  0  0  0  0  0  0  0  0  0  0
    7.8440    0.1520   22.7130 C   0  0  0  0  0  0  0  0  0  0  0  0
    5.5540   -0.0480   23.1150 C   0  0  0  0  0  0  0  0  0  0  0  0
    4.3530    1.6650   20.2160 C   0  0  0  0  0  0  0  0  0  0  0  0
    4.5560    1.0680   18.8290 C   0  0  0  0  0  0  0  0  0  0  0  0
    8.5300    0.8050   21.9250 O   0  0  0  0  0  0  0  0  0  0  0  0
    8.1040    0.4020   24.0650 N   0  0  0  0  0  0  0  0  0  0  0  0
    4.3400   -0.6380   23.8040 C   0  0  0  0  0  0  0  0  0  0  0  0
    5.6220    1.3820   23.2160 C   0  0  0  0  0  0  0  0  0  0  0  0
    2.9970    1.5880   20.5940 C   0  0  0  0  0  0  0  0  0  0  0  0
    4.7320    3.1650   20.2570 C   0  0  0  0  0  0  0  0  0  0  0  0
    9.3410    0.8690   24.5720 C   0  0  0  0  0  0  0  0  0  0  0  0
    3.3970    0.0880   24.4470 N   0  0  0  0  0  0  0  0  0  0  0  0
    4.6240    2.0740   23.8920 C   0  0  0  0  0  0  0  0  0  0  0  0
    6.7070    2.2700   22.6470 C   0  0  0  0  0  0  0  0  0  0  0  0
    2.5650    2.8130   21.0770 C   0  0  0  0  0  0  0  0  0  0  0  0
    3.6290    3.8920   21.0210 C   0  0  0  0  0  0  0  0  0  0  0  0
   10.5860    0.2950   23.8700 C   0  0  0  0  0  0  0  0  0  0  0  0
    3.5580    1.4140   24.4750 C   0  0  0  0  0  0  0  0  0  0  0  0
   11.7590    1.1010   23.2940 C   0  0  0  0  0  0  0  0  0  0  0  0
   10.6130   -1.1010   23.7420 C   0  0  0  0  0  0  0  0  0  0  0  0
   11.8820    2.6450   23.2940 C   0  0  0  0  0  0  0  0  0  0  0  0
   12.8060    0.4030   22.6980 C   0  0  0  0  0  0  0  0  0  0  0  0
   11.6770   -1.7440   23.1190 C   0  0  0  0  0  0  0  0  0  0  0  0
    9.5620   -1.8510   24.2330 C   0  0  0  0  0  0  0  0  0  0  0  0
   12.7860   -1.1020   22.5830 C   0  0  0  0  0  0  0  0  0  0  0  0
    9.6750   -3.3200   23.9500 C   0  0  0  0  0  0  0  0  0  0  0  0
  1  2  2  3
  1  3  1  0
  4  3  1  6
  3  5  1  0
  4  6  1  0
  4  7  1  0
  5  8  1  6
  5  9  1  0
 10  6  1  0
  7 11  1  0
 10 11  1  0
  8 12  2  0
  8 13  1  0
  9 14  2  0
  9 15  1  0
 10 16  1  0
 10 17  1  0
 13 18  1  0
 14 19  1  0
 15 20  2  0
 15 21  1  0
 16 22  1  0
 17 23  1  0
 22 23  1  0
 18 24  1  0
 19 25  2  0
 20 25  1  0
 24 26  2  0
 24 27  1  0
 26 28  1  0
 26 29  1  0
 27 30  2  0
 27 31  1  0
 29 32  2  0
 30 32  1  0
 31 33  1  0
M  END
