DAR-DIA-fb20be43-12-acrylamide
     RDKit          3D

 26 28  0  0  0  0  0  0  0  0999 V2000
    7.4270   -3.0690   18.4510 C   0  0  0  0  0  0  0  0  0  0  0  0
    6.9730   -2.1070   19.2000 C   0  0  0  0  0  0  0  0  0  0  0  0
    5.8920   -2.5450   20.1800 C   0  0  0  0  0  0  0  0  0  0  0  0
    4.9010   -3.2910   19.9350 O   0  0  0  0  0  0  0  0  0  0  0  0
    6.1460   -2.0380   21.4070 N   0  0  0  0  0  0  0  0  0  0  0  0
    6.1710   -3.0110   22.5080 C   0  0  0  0  0  0  0  0  0  0  0  0
    7.0620   -0.8930   21.5370 C   0  0  0  0  0  0  0  0  0  0  0  0
    7.5850   -3.3000   23.0370 C   0  0  0  0  0  0  0  0  0  0  0  0
    8.4690   -1.3660   21.8930 C   0  0  0  0  0  0  0  0  0  0  0  0
    8.4150   -2.0920   23.1620 N   0  0  0  0  0  0  0  0  0  0  0  0
    9.7230   -2.3560   23.7180 C   0  0  0  0  0  0  0  0  0  0  0  0
   10.6730   -1.4020   23.3720 C   0  0  0  0  0  0  0  0  0  0  0  0
   11.8410   -1.8790   22.8980 C   0  0  0  0  0  0  0  0  0  0  0  0
   10.4820    0.0130   23.4840 C   0  0  0  0  0  0  0  0  0  0  0  0
   12.8510   -1.0120   22.5370 C   0  0  0  0  0  0  0  0  0  0  0  0
   11.5560    0.9070   23.1080 C   0  0  0  0  0  0  0  0  0  0  0  0
    9.1600    0.6280   23.9980 C   0  0  0  0  0  0  0  0  0  0  0  0
   13.9080   -1.5480   22.0880 F   0  0  0  0  0  0  0  0  0  0  0  0
   12.7410    0.3840   22.6470 C   0  0  0  0  0  0  0  0  0  0  0  0
   11.4450    2.4290   23.1960 C   0  0  0  0  0  0  0  0  0  0  0  0
    8.9850    2.1640   24.1150 C   0  0  0  0  0  0  0  0  0  0  0  0
   10.1640    3.0830   23.7020 C   0  0  0  0  0  0  0  0  0  0  0  0
   10.0290    4.8440   23.8230 S   0  0  0  0  0  0  0  0  0  0  0  0
    8.8190    5.1730   22.7000 N   0  0  0  0  0  0  0  0  0  0  0  0
   11.2550    5.4350   23.3450 O   0  0  0  0  0  0  0  0  0  0  0  0
    9.4630    5.1700   25.1130 O   0  0  0  0  0  0  0  0  0  0  0  0
  1  2  1  0
  2  3  1  0
  3  4  2  0
  3  5  1  0
  5  6  1  0
  5  7  1  0
  6  8  1  0
  7  9  1  0
  8 10  1  0
  9 10  1  0
 10 11  1  0
 11 12  1  0
 12 13  2  0
 12 14  1  0
 13 15  1  0
 14 16  2  0
 14 17  1  0
 15 18  1  0
 15 19  2  0
 16 19  1  0
 16 20  1  0
 17 21  2  0
 20 22  2  0
 21 22  1  0
 22 23  1  0
 23 24  1  0
 23 25  2  0
 23 26  2  0
M  END
