DAR-DIA-2b784ede-26-bromoalkyne
     RDKit          3D

 33 36  0  0  0  0  0  0  0  0999 V2000
    6.7400   -2.5410   19.9660 C   0  0  0  0  0  0  0  0  0  0  0  0
    5.6280   -2.7040   18.9410 C   0  0  0  0  0  0  0  0  0  0  0  0
    6.4900   -1.7690   21.3520 N   0  0  0  0  0  0  0  0  0  0  0  0
    5.3950   -2.1490   22.1680 C   0  0  2  0  0  0  0  0  0  0  0  0
    6.6520   -0.2120   21.7390 C   0  0  2  0  0  0  0  0  0  0  0  0
    5.7010   -2.3610   23.5010 C   0  0  0  0  0  0  0  0  0  0  0  0
    4.6520   -3.2020   21.7940 N   0  0  0  0  0  0  0  0  0  0  0  0
    7.8690    0.3960   22.5790 C   0  0  0  0  0  0  0  0  0  0  0  0
    5.4260    0.6310   22.2360 C   0  0  0  0  0  0  0  0  0  0  0  0
    5.7730   -3.7150   23.7180 C   0  0  0  0  0  0  0  0  0  0  0  0
    5.1380   -4.3710   22.5140 C   0  0  0  0  0  0  0  0  0  0  0  0
    8.5520    1.2830   22.0520 O   0  0  0  0  0  0  0  0  0  0  0  0
    8.1220    0.0680   23.9090 N   0  0  0  0  0  0  0  0  0  0  0  0
    4.9560    0.6510   23.5770 C   0  0  0  0  0  0  0  0  0  0  0  0
    4.7230    1.4650   21.3200 C   0  0  0  0  0  0  0  0  0  0  0  0
    5.4180   -4.2220   24.9730 C   0  0  0  0  0  0  0  0  0  0  0  0
    7.2280   -4.2080   23.6920 C   0  0  0  0  0  0  0  0  0  0  0  0
    9.3030    0.5170   24.5510 C   0  0  0  0  0  0  0  0  0  0  0  0
    3.9150    1.4040   24.0200 N   0  0  0  0  0  0  0  0  0  0  0  0
    3.6610    2.2340   21.7720 C   0  0  0  0  0  0  0  0  0  0  0  0
    5.0730    1.5720   19.8520 C   0  0  0  0  0  0  0  0  0  0  0  0
    5.9250   -5.6400   25.0570 C   0  0  0  0  0  0  0  0  0  0  0  0
    7.0600   -5.6900   24.0100 C   0  0  0  0  0  0  0  0  0  0  0  0
   10.5480    0.0060   23.7940 C   0  0  0  0  0  0  0  0  0  0  0  0
    3.2950    2.1800   23.1070 C   0  0  0  0  0  0  0  0  0  0  0  0
   10.7010   -1.5070   23.4740 C   0  0  0  0  0  0  0  0  0  0  0  0
   11.5740    0.8980   23.3580 C   0  0  0  0  0  0  0  0  0  0  0  0
    9.7770   -2.5310   23.8000 C   0  0  0  0  0  0  0  0  0  0  0  0
   11.8360   -1.9370   22.7950 C   0  0  0  0  0  0  0  0  0  0  0  0
   12.6840    0.4040   22.7020 C   0  0  0  0  0  0  0  0  0  0  0  0
   11.4950    2.3780   23.5720 C   0  0  0  0  0  0  0  0  0  0  0  0
   12.8700   -0.9240   22.4000 C   0  0  0  0  0  0  0  0  0  0  0  0
   10.6830    3.0690   22.5110 C   0  0  0  0  0  0  0  0  0  0  0  0
  1  2  2  3
  1  3  1  0
  4  3  1  6
  3  5  1  0
  4  6  1  0
  4  7  1  0
  5  8  1  1
  5  9  1  0
 10  6  1  0
  7 11  1  0
 10 11  1  0
  8 12  2  0
  8 13  1  0
  9 14  2  0
  9 15  1  0
 10 16  1  0
 10 17  1  0
 13 18  1  0
 14 19  1  0
 15 20  2  0
 15 21  1  0
 16 22  1  0
 17 23  1  0
 22 23  1  0
 18 24  1  0
 19 25  2  0
 20 25  1  0
 24 26  2  0
 24 27  1  0
 26 28  1  0
 26 29  1  0
 27 30  2  0
 27 31  1  0
 29 32  2  0
 30 32  1  0
 31 33  1  0
M  END
