DAR-DIA-fb20be43-17-chloroacetamide
     RDKit          3D

 28 30  0  0  0  0  0  0  0  0999 V2000
    7.2280   -2.9420   18.7360 C   0  0  0  0  0  0  0  0  0  0  0  0
    6.3090   -3.0680   19.6780 C   0  0  0  0  0  0  0  0  0  0  0  0
    5.4240   -3.9180   19.5730 O   0  0  0  0  0  0  0  0  0  0  0  0
    6.3460   -2.2500   20.7740 N   0  0  0  0  0  0  0  0  0  0  0  0
    6.0140   -2.9050   22.0500 C   0  0  0  0  0  0  0  0  0  0  0  0
    7.2280   -1.0860   20.8660 C   0  0  0  0  0  0  0  0  0  0  0  0
    7.2910   -3.1970   22.8390 C   0  0  0  0  0  0  0  0  0  0  0  0
    8.4230   -1.3340   21.7760 C   0  0  0  0  0  0  0  0  0  0  0  0
    8.0460   -1.9670   23.0520 N   0  0  0  0  0  0  0  0  0  0  0  0
    9.2290   -2.2250   23.8170 C   0  0  0  0  0  0  0  0  0  0  0  0
   10.2600   -1.2480   23.3830 C   0  0  0  0  0  0  0  0  0  0  0  0
   11.3180   -1.7350   22.6710 C   0  0  0  0  0  0  0  0  0  0  0  0
   10.1790    0.1280   23.6460 C   0  0  0  0  0  0  0  0  0  0  0  0
   12.2660   -0.8860   22.2600 C   0  0  0  0  0  0  0  0  0  0  0  0
   11.1660    0.9510   23.2530 N   0  0  0  0  0  0  0  0  0  0  0  0
    9.0150    0.8200   24.3550 C   0  0  0  0  0  0  0  0  0  0  0  0
   13.2580   -1.3940   21.4890 C   0  0  0  0  0  0  0  0  0  0  0  0
   12.1910    0.4410   22.5820 C   0  0  0  0  0  0  0  0  0  0  0  0
    9.2880    2.1530   24.9050 N   0  0  0  0  0  0  0  0  0  0  0  0
   13.8790   -1.7620   20.6560 N   0  0  0  0  0  0  0  0  0  0  0  0
   10.2610    3.0310   24.4530 C   0  0  0  0  0  0  0  0  0  0  0  0
   11.2670    2.6760   23.8420 O   0  0  0  0  0  0  0  0  0  0  0  0
   10.0350    4.3600   24.7640 N   0  0  0  0  0  0  0  0  0  0  0  0
    9.2470    4.8500   25.9090 C   0  0  0  0  0  0  0  0  0  0  0  0
   10.9710    5.3520   24.2180 C   0  0  0  0  0  0  0  0  0  0  0  0
    9.9790    5.7700   26.5770 C   0  0  0  0  0  0  0  0  0  0  0  0
   11.1340    6.4540   25.0860 C   0  0  0  0  0  0  0  0  0  0  0  0
   10.2110    6.7280   25.8450 O   0  0  0  0  0  0  0  0  0  0  0  0
  1  2  1  0
  2  3  2  0
  2  4  1  0
  4  5  1  0
  4  6  1  0
  5  7  1  0
  6  8  1  0
  7  9  1  0
  8  9  1  0
  9 10  1  0
 10 11  1  0
 11 12  2  0
 11 13  1  0
 12 14  1  0
 13 15  2  0
 13 16  1  0
 14 17  1  0
 14 18  2  0
 15 18  1  0
 16 19  1  0
 17 20  3  0
 19 21  1  0
 21 22  2  0
 21 23  1  0
 23 24  1  0
 23 25  1  0
 24 26  1  0
 25 27  1  0
 26 28  1  0
 27 28  1  0
M  END
