DAR-DIA-2b784ede-8-nitrile
     RDKit          3D

 31 33  0  0  0  0  0  0  0  0999 V2000
    6.9780   -3.0720   19.2170 C   0  0  0  0  0  0  0  0  0  0  0  0
    6.2490   -2.9520   18.1840 N   0  0  0  0  0  0  0  0  0  0  0  0
    6.9400   -2.0300   20.1910 N   0  0  0  0  0  0  0  0  0  0  0  0
    6.2800   -0.8130   19.6670 C   0  0  0  0  0  0  0  0  0  0  0  0
    7.5760   -2.1490   21.5920 C   0  0  1  0  0  0  0  0  0  0  0  0
    5.2350   -0.0930   20.3190 C   0  0  0  0  0  0  0  0  0  0  0  0
    6.5890   -0.2310   18.4830 N   0  0  0  0  0  0  0  0  0  0  0  0
    7.8120   -0.6950   22.1950 C   0  0  0  0  0  0  0  0  0  0  0  0
    6.7030   -3.1940   22.3620 C   0  0  0  0  0  0  0  0  0  0  0  0
    4.6420    1.0300   19.8460 C   0  0  0  0  0  0  0  0  0  0  0  0
    5.9890    0.8860   18.0420 C   0  0  0  0  0  0  0  0  0  0  0  0
    7.2190    0.2230   21.6530 O   0  0  0  0  0  0  0  0  0  0  0  0
    8.6820   -0.4550   23.2900 N   0  0  0  0  0  0  0  0  0  0  0  0
    5.3980   -3.2660   21.9430 C   0  0  0  0  0  0  0  0  0  0  0  0
    7.0370   -4.1130   23.4170 C   0  0  0  0  0  0  0  0  0  0  0  0
    4.9990    1.5830   18.6830 C   0  0  0  0  0  0  0  0  0  0  0  0
   10.1090   -0.5170   23.2480 C   0  0  0  0  0  0  0  0  0  0  0  0
    4.3680   -4.0490   22.3500 N   0  0  0  0  0  0  0  0  0  0  0  0
    5.9960   -4.9350   23.8680 C   0  0  0  0  0  0  0  0  0  0  0  0
    8.2740   -4.2830   24.0290 C   0  0  0  0  0  0  0  0  0  0  0  0
    4.3580    2.7480   18.3020 C   0  0  0  0  0  0  0  0  0  0  0  0
   10.9030    0.7820   22.9490 C   0  0  0  0  0  0  0  0  0  0  0  0
   10.7620   -1.7410   23.4550 C   0  0  0  0  0  0  0  0  0  0  0  0
    4.7060   -4.8840   23.3340 C   0  0  0  0  0  0  0  0  0  0  0  0
    2.7170    2.8620   19.0620 Cl  0  0  0  0  0  0  0  0  0  0  0  0
   10.1920    2.1540   22.7180 C   0  0  0  0  0  0  0  0  0  0  0  0
   12.2970    0.6990   22.8710 C   0  0  0  0  0  0  0  0  0  0  0  0
   12.1420   -1.7980   23.3590 C   0  0  0  0  0  0  0  0  0  0  0  0
    9.9270   -2.9310   23.7630 C   0  0  0  0  0  0  0  0  0  0  0  0
   12.9000   -0.6920   23.0810 C   0  0  0  0  0  0  0  0  0  0  0  0
    8.5850   -2.3610   24.1780 C   0  0  0  0  0  0  0  0  0  0  0  0
  1  2  2  3
  1  3  1  0
  3  4  1  0
  3  5  1  0
  4  6  2  0
  4  7  1  0
  5  8  1  1
  5  9  1  0
  6 10  1  0
  7 11  2  0
  8 12  2  0
  8 13  1  0
  9 14  2  0
  9 15  1  0
 10 16  2  0
 11 16  1  0
 13 17  1  0
 14 18  1  0
 15 19  2  0
 15 20  1  0
 16 21  1  0
 17 22  2  0
 17 23  1  0
 18 24  2  0
 19 24  1  0
 21 25  1  0
 22 26  1  0
 22 27  1  0
 23 28  2  0
 23 29  1  0
 27 30  2  0
 28 30  1  0
 29 31  1  0
M  END
