DAR-DIA-2b784ede-4-chloroacetamide
     RDKit          3D

 24 25  0  0  0  0  0  0  0  0999 V2000
    8.0050   -3.7800   20.4970 C   0  0  0  0  0  0  0  0  0  0  0  0
    7.5880   -2.5480   19.8080 C   0  0  0  0  0  0  0  0  0  0  0  0
    6.7730   -2.7160   18.7910 O   0  0  0  0  0  0  0  0  0  0  0  0
    8.1740   -1.3070   20.4250 N   0  0  0  0  0  0  0  0  0  0  0  0
    9.1840   -1.4930   21.5080 C   0  0  0  0  0  0  0  0  0  0  0  0
    7.0590   -0.4840   21.0050 C   0  0  1  0  0  0  0  0  0  0  0  0
   10.6520   -1.5940   21.6240 C   0  0  0  0  0  0  0  0  0  0  0  0
    8.6220   -1.6290   22.7090 C   0  0  0  0  0  0  0  0  0  0  0  0
    7.5030    0.4820   22.1360 C   0  0  0  0  0  0  0  0  0  0  0  0
    6.2550    0.2490   19.9840 C   0  0  0  0  0  0  0  0  0  0  0  0
   11.3090   -1.8560   22.8050 C   0  0  0  0  0  0  0  0  0  0  0  0
    9.3160   -1.8920   23.9080 C   0  0  0  0  0  0  0  0  0  0  0  0
    7.4060    0.1660   23.3210 O   0  0  0  0  0  0  0  0  0  0  0  0
    7.9810    1.7100   21.6820 N   0  0  0  0  0  0  0  0  0  0  0  0
    6.6030   -0.0940   18.5500 C   0  0  0  0  0  0  0  0  0  0  0  0
    5.2560    1.1970   20.2090 C   0  0  0  0  0  0  0  0  0  0  0  0
   10.6010   -2.0320   23.9600 C   0  0  0  0  0  0  0  0  0  0  0  0
    9.2010    2.4000   22.1660 C   0  0  0  0  0  0  0  0  0  0  0  0
    5.9960    0.5200   17.5380 N   0  0  0  0  0  0  0  0  0  0  0  0
    4.6400    1.8100   19.1420 C   0  0  0  0  0  0  0  0  0  0  0  0
    4.7450    1.6720   21.5540 C   0  0  0  0  0  0  0  0  0  0  0  0
   10.9970   -2.3800   25.2500 C   0  0  0  0  0  0  0  0  0  0  0  0
    5.0100    1.4910   17.8570 C   0  0  0  0  0  0  0  0  0  0  0  0
    9.7750   -3.6820   25.5100 Cl  0  0  0  0  0  0  0  0  0  0  0  0
  1  2  1  0
  2  3  2  0
  2  4  1  0
  4  5  1  0
  4  6  1  0
  5  7  2  0
  5  8  1  0
  6  9  1  1
  6 10  1  0
  7 11  1  0
  8 12  2  0
  9 13  2  0
  9 14  1  0
 10 15  2  0
 10 16  1  0
 11 17  2  0
 12 17  1  0
 14 18  1  0
 15 19  1  0
 16 20  2  0
 16 21  1  0
 17 22  1  0
 19 23  2  0
 20 23  1  0
 22 24  1  0
M  END
