DAR-DIA-2b784ede-19-vinylsulfonamide
     RDKit          3D

 30 32  0  0  0  0  0  0  0  0999 V2000
    6.4830   -4.3130   20.1730 C   0  0  0  0  0  0  0  0  0  0  0  0
    7.0090   -3.8340   21.5150 C   0  0  0  0  0  0  0  0  0  0  0  0
    5.6730   -3.7820   22.7090 S   0  0  0  0  0  0  0  0  0  0  0  0
    4.4940   -3.3010   22.0320 O   0  0  0  0  0  0  0  0  0  0  0  0
    5.5810   -5.0640   23.3630 O   0  0  0  0  0  0  0  0  0  0  0  0
    6.2440   -2.6250   23.8300 N   0  0  0  0  0  0  0  0  0  0  0  0
    5.5120   -1.3980   23.8960 C   0  0  0  0  0  0  0  0  0  0  0  0
    7.6820   -2.6530   24.3090 C   0  0  1  0  0  0  0  0  0  0  0  0
    6.0580   -1.6430   22.5550 C   0  0  0  0  0  0  0  0  0  0  0  0
    4.9110   -0.1970   23.5820 C   0  0  0  0  0  0  0  0  0  0  0  0
    8.2460   -4.0840   24.1630 C   0  0  0  0  0  0  0  0  0  0  0  0
    8.6600   -1.5410   23.8100 C   0  0  0  0  0  0  0  0  0  0  0  0
    6.1470   -1.0900   21.1950 C   0  0  0  0  0  0  0  0  0  0  0  0
    5.4880   -0.6580   22.5570 N   0  0  0  0  0  0  0  0  0  0  0  0
    9.4260   -4.3270   24.0760 O   0  0  0  0  0  0  0  0  0  0  0  0
    7.3360   -5.0830   24.1530 N   0  0  0  0  0  0  0  0  0  0  0  0
    8.1590   -0.1640   23.3780 C   0  0  0  0  0  0  0  0  0  0  0  0
   10.0950   -1.6590   23.7080 C   0  0  0  0  0  0  0  0  0  0  0  0
    5.4170    0.0270   21.4970 C   0  0  0  0  0  0  0  0  0  0  0  0
    7.5030   -6.1360   23.1970 C   0  0  0  0  0  0  0  0  0  0  0  0
    8.8970    0.8830   22.9340 N   0  0  0  0  0  0  0  0  0  0  0  0
   10.8040   -0.5530   23.2410 C   0  0  0  0  0  0  0  0  0  0  0  0
   10.9280   -2.8730   24.0620 C   0  0  0  0  0  0  0  0  0  0  0  0
    5.7500    0.2140   20.0290 C   0  0  0  0  0  0  0  0  0  0  0  0
   10.2070    0.6380   22.8820 C   0  0  0  0  0  0  0  0  0  0  0  0
    7.2570   -0.6970   19.6670 Cl  0  0  0  0  0  0  0  0  0  0  0  0
    5.8480    1.6130   19.4320 C   0  0  0  0  0  0  0  0  0  0  0  0
    4.7010   -0.3650   19.1110 C   0  0  0  0  0  0  0  0  0  0  0  0
    5.6760    1.3980   17.9200 C   0  0  0  0  0  0  0  0  0  0  0  0
    5.1690   -0.0430   17.8380 C   0  0  0  0  0  0  0  0  0  0  0  0
  1  2  1  0
  2  3  1  0
  3  4  2  0
  3  5  2  0
  3  6  1  0
  6  7  1  0
  6  8  1  0
  7  9  2  0
  7 10  1  0
  8 11  1  6
  8 12  1  0
  9 13  1  0
 10 14  2  0
 11 15  2  0
 11 16  1  0
 12 17  2  0
 12 18  1  0
 13 19  2  0
 14 19  1  0
 16 20  1  0
 17 21  1  0
 18 22  2  0
 18 23  1  0
 19 24  1  0
 21 25  2  0
 22 25  1  0
 24 26  1  0
 24 27  1  0
 24 28  1  0
 27 29  1  0
 28 30  1  0
 29 30  1  0
M  END
