DAR-DIA-2b784ede-35-bromoalkyne
     RDKit          3D

 32 34  0  0  0  0  0  0  0  0999 V2000
    8.1300   -3.3580   18.1670 C   0  0  0  0  0  0  0  0  0  0  0  0
    7.6280   -3.4310   16.7160 C   0  0  0  0  0  0  0  0  0  0  0  0
    7.5080   -2.2470   18.1630 N   0  0  0  0  0  0  0  0  0  0  0  0
    6.8990   -2.3960   16.8150 C   0  0  0  0  0  0  0  0  0  0  0  0
    7.3430   -1.1930   19.2750 C   0  0  2  0  0  0  0  0  0  0  0  0
    7.0450   -3.3230   15.6140 C   0  0  0  0  0  0  0  0  0  0  0  0
    6.0450   -1.6890   16.3920 N   0  0  0  0  0  0  0  0  0  0  0  0
    7.8270   -1.6110   20.7190 C   0  0  0  0  0  0  0  0  0  0  0  0
    6.0670   -0.3630   19.3520 C   0  0  0  0  0  0  0  0  0  0  0  0
    6.0770   -3.2010   14.3360 C   0  0  0  0  0  0  0  0  0  0  0  0
    5.7540   -2.2630   15.0780 O   0  0  0  0  0  0  0  0  0  0  0  0
    7.0880   -2.2700   21.4510 O   0  0  0  0  0  0  0  0  0  0  0  0
    9.1010   -1.1830   21.0930 N   0  0  0  0  0  0  0  0  0  0  0  0
    5.8590    0.6230   18.2530 C   0  0  0  0  0  0  0  0  0  0  0  0
    5.0600   -0.3670   20.3280 C   0  0  0  0  0  0  0  0  0  0  0  0
    5.1170   -3.4870   12.6640 C   0  0  0  0  0  0  0  0  0  0  0  0
    9.5190   -0.9330   22.4350 C   0  0  0  0  0  0  0  0  0  0  0  0
    4.8310    1.4720   18.1260 N   0  0  0  0  0  0  0  0  0  0  0  0
    4.0030    0.5200   20.1740 C   0  0  0  0  0  0  0  0  0  0  0  0
    5.0420   -1.1950   21.4590 C   0  0  0  0  0  0  0  0  0  0  0  0
    3.8140   -2.6800   12.2870 C   0  0  0  0  0  0  0  0  0  0  0  0
    3.7670   -4.4540   12.6450 C   0  0  0  0  0  0  0  0  0  0  0  0
    5.3710   -3.0430   11.1170 C   0  0  0  0  0  0  0  0  0  0  0  0
    8.6150   -0.1680   23.4650 C   0  0  0  0  0  0  0  0  0  0  0  0
   10.8110   -1.3940   22.8810 C   0  0  0  0  0  0  0  0  0  0  0  0
    3.9110    1.4000   19.1030 C   0  0  0  0  0  0  0  0  0  0  0  0
    7.2010    0.4190   23.2050 C   0  0  0  0  0  0  0  0  0  0  0  0
    9.1020    0.0270   24.7770 C   0  0  0  0  0  0  0  0  0  0  0  0
   11.1700   -1.1380   24.1990 C   0  0  0  0  0  0  0  0  0  0  0  0
   11.7260   -2.0780   22.0940 C   0  0  0  0  0  0  0  0  0  0  0  0
   10.3770   -0.4710   25.1060 C   0  0  0  0  0  0  0  0  0  0  0  0
   12.9800   -1.4820   22.0170 C   0  0  0  0  0  0  0  0  0  0  0  0
  1  2  2  3
  1  3  1  0
  3  4  1  0
  3  5  1  0
  4  6  1  0
  4  7  2  0
  5  8  1  1
  5  9  1  0
  6 10  2  0
  7 11  1  0
 10 11  1  0
  8 12  2  0
  8 13  1  0
  9 14  2  0
  9 15  1  0
 10 16  1  0
 13 17  1  0
 14 18  1  0
 15 19  2  0
 15 20  1  0
 16 21  1  0
 16 22  1  0
 16 23  1  0
 17 24  2  0
 17 25  1  0
 18 26  2  0
 19 26  1  0
 24 27  1  0
 24 28  1  0
 25 29  2  0
 25 30  1  0
 28 31  2  0
 29 31  1  0
 30 32  1  0
M  END
