DAR-DIA-23aa0b97-7-chloroacetamide
     RDKit          3D

 20 21  0  0  0  0  0  0  0  0999 V2000
    7.1130   -2.9870   20.2360 C   0  0  0  0  0  0  0  0  0  0  0  0
    5.6040   -2.3510   20.1920 C   0  0  0  0  0  0  0  0  0  0  0  0
    5.5940   -3.0890   19.1790 O   0  0  0  0  0  0  0  0  0  0  0  0
    5.7490   -1.4290   21.5360 C   0  0  0  0  0  0  0  0  0  0  0  0
    4.6310   -1.5250   22.6580 C   0  0  0  0  0  0  0  0  0  0  0  0
    6.8050   -0.4790   21.8250 C   0  0  0  0  0  0  0  0  0  0  0  0
    4.7360   -0.7270   23.7880 N   0  0  0  0  0  0  0  0  0  0  0  0
    6.7540    0.2560   23.0550 C   0  0  0  0  0  0  0  0  0  0  0  0
    5.7620    0.1290   23.9730 C   0  0  0  0  0  0  0  0  0  0  0  0
    7.7560    1.1460   23.3690 N   0  0  0  0  0  0  0  0  0  0  0  0
    8.2530    0.8260   24.6200 C   0  0  0  0  0  0  0  0  0  0  0  0
    7.5160    0.4510   25.5210 O   0  0  0  0  0  0  0  0  0  0  0  0
    9.6030    0.8920   24.9810 C   0  0  0  0  0  0  0  0  0  0  0  0
   10.6200    0.3200   24.0360 C   0  0  0  0  0  0  0  0  0  0  0  0
   11.9570    0.9860   23.7790 C   0  0  0  0  0  0  0  0  0  0  0  0
   10.2430   -0.8550   23.4150 C   0  0  0  0  0  0  0  0  0  0  0  0
   12.7730    0.2380   22.8350 N   0  0  0  0  0  0  0  0  0  0  0  0
   11.1280   -1.4520   22.5220 C   0  0  0  0  0  0  0  0  0  0  0  0
   12.3870   -0.9300   22.2340 C   0  0  0  0  0  0  0  0  0  0  0  0
   10.7340   -2.5600   21.9240 N   0  0  0  0  0  0  0  0  0  0  0  0
  1  2  1  0
  2  3  2  0
  2  4  1  0
  4  5  2  0
  4  6  1  0
  5  7  1  0
  6  8  2  0
  7  9  2  0
  8  9  1  0
  8 10  1  0
 10 11  1  0
 11 12  2  0
 11 13  1  0
 13 14  1  0
 14 15  2  0
 14 16  1  0
 15 17  1  0
 16 18  2  0
 17 19  2  0
 18 19  1  0
 18 20  1  0
M  END
