DAR-DIA-0cde14eb-41
     RDKit          3D

 25 28  0  0  0  0  0  0  0  0999 V2000
    9.2360   -2.6180   22.3440 C   0  0  0  0  0  0  0  0  0  0  0  0
    9.0610   -1.1510   22.6570 C   0  0  2  0  0  0  0  0  0  0  0  0
    8.3030   -0.3930   21.6160 C   0  0  0  0  0  0  0  0  0  0  0  0
   10.4130   -0.4870   22.7630 C   0  0  0  0  0  0  0  0  0  0  0  0
    8.6670    0.7270   21.2780 O   0  0  0  0  0  0  0  0  0  0  0  0
    7.1920   -1.0270   21.0990 N   0  0  0  0  0  0  0  0  0  0  0  0
   11.5640   -1.1530   22.7120 C   0  0  0  0  0  0  0  0  0  0  0  0
   10.4100    0.9630   22.9150 C   0  0  0  0  0  0  0  0  0  0  0  0
    6.4740   -0.2300   20.1200 C   0  0  0  0  0  0  0  0  0  0  0  0
   12.8250   -0.4070   22.8090 C   0  0  0  0  0  0  0  0  0  0  0  0
   11.5750    1.7310   23.0060 C   0  0  0  0  0  0  0  0  0  0  0  0
    6.8260   -0.2170   18.7690 C   0  0  0  0  0  0  0  0  0  0  0  0
    5.3820    0.5750   20.4940 C   0  0  0  0  0  0  0  0  0  0  0  0
   12.8140    1.0640   22.9570 C   0  0  0  0  0  0  0  0  0  0  0  0
   11.4830    3.1390   23.1280 C   0  0  0  0  0  0  0  0  0  0  0  0
    6.2340    0.4840   17.7870 N   0  0  0  0  0  0  0  0  0  0  0  0
    4.7410    1.3180   19.4980 C   0  0  0  0  0  0  0  0  0  0  0  0
    4.8810    0.6640   21.9490 C   0  0  0  0  0  0  0  0  0  0  0  0
   12.9470    4.0300   22.6720 Cl  0  0  0  0  0  0  0  0  0  0  0  0
   10.3470    3.7780   22.6770 C   0  0  0  0  0  0  0  0  0  0  0  0
   10.5450    3.7660   24.2440 C   0  0  0  0  0  0  0  0  0  0  0  0
    5.2040    1.2330   18.1950 C   0  0  0  0  0  0  0  0  0  0  0  0
    3.4000    0.9940   21.9520 C   0  0  0  0  0  0  0  0  0  0  0  0
    3.5680    2.1930   19.8460 C   0  0  0  0  0  0  0  0  0  0  0  0
    3.2920    2.3310   21.2090 C   0  0  0  0  0  0  0  0  0  0  0  0
  2  1  1  6
  2  3  1  0
  2  4  1  0
  3  5  2  0
  3  6  1  0
  4  7  2  0
  4  8  1  0
  6  9  1  0
  7 10  1  0
  8 11  2  0
  9 12  2  0
  9 13  1  0
 10 14  2  0
 11 14  1  0
 11 15  1  0
 12 16  1  0
 13 17  2  0
 13 18  1  0
 15 19  1  0
 15 20  1  0
 15 21  1  0
 20 21  1  0
 16 22  2  0
 17 22  1  0
 18 23  1  0
 17 24  1  0
 23 25  1  0
 24 25  1  0
M  END
