DAR-DIA-2b784ede-53-chloroacetamide
     RDKit          3D

 33 35  0  0  0  0  0  0  0  0999 V2000
    7.1440   -3.2790   20.1770 C   0  0  0  0  0  0  0  0  0  0  0  0
    5.7140   -2.7170   20.1490 C   0  0  0  0  0  0  0  0  0  0  0  0
    4.9320   -3.5060   19.4890 O   0  0  0  0  0  0  0  0  0  0  0  0
    5.4080   -1.3130   20.6510 N   0  0  0  0  0  0  0  0  0  0  0  0
    5.7150   -0.6110   19.4600 C   0  0  0  0  0  0  0  0  0  0  0  0
    6.0180   -0.7470   21.9830 C   0  0  1  0  0  0  0  0  0  0  0  0
    5.3160    0.8130   18.9200 C   0  0  0  0  0  0  0  0  0  0  0  0
    6.4370   -1.5040   18.8940 C   0  0  0  0  0  0  0  0  0  0  0  0
    7.4460   -0.4240   22.1200 C   0  0  0  0  0  0  0  0  0  0  0  0
    5.2060    0.5120   22.2770 C   0  0  0  0  0  0  0  0  0  0  0  0
    5.9650    0.9770   17.4620 C   0  0  0  0  0  0  0  0  0  0  0  0
    6.9880   -1.4540   17.7540 N   0  0  0  0  0  0  0  0  0  0  0  0
    8.1080   -0.1500   20.8740 O   0  0  0  0  0  0  0  0  0  0  0  0
    8.2080   -0.3100   23.2770 N   0  0  0  0  0  0  0  0  0  0  0  0
    4.0390    0.8930   21.3780 C   0  0  0  0  0  0  0  0  0  0  0  0
    5.4530    1.3850   23.3400 C   0  0  0  0  0  0  0  0  0  0  0  0
    6.7590   -0.2920   17.0640 C   0  0  0  0  0  0  0  0  0  0  0  0
    9.6810   -0.4360   23.2260 C   0  0  0  0  0  0  0  0  0  0  0  0
    3.2800    2.1370   21.7030 C   0  0  0  0  0  0  0  0  0  0  0  0
    4.7370    2.5220   23.6150 N   0  0  0  0  0  0  0  0  0  0  0  0
    7.4510   -0.5070   15.7380 C   0  0  0  0  0  0  0  0  0  0  0  0
   10.5850    0.6640   23.0020 C   0  0  0  0  0  0  0  0  0  0  0  0
   10.2100   -1.7470   23.4060 C   0  0  0  0  0  0  0  0  0  0  0  0
    3.6940    2.8730   22.8190 C   0  0  0  0  0  0  0  0  0  0  0  0
    7.8580   -1.9220   16.2200 C   0  0  0  0  0  0  0  0  0  0  0  0
    8.6090    0.3330   15.2180 C   0  0  0  0  0  0  0  0  0  0  0  0
   10.0450    2.1060   22.8270 C   0  0  0  0  0  0  0  0  0  0  0  0
   12.0040    0.5080   22.9160 C   0  0  0  0  0  0  0  0  0  0  0  0
   11.7190   -1.9600   23.3100 C   0  0  0  0  0  0  0  0  0  0  0  0
    9.2700   -2.9300   23.6980 C   0  0  0  0  0  0  0  0  0  0  0  0
    9.2970    2.6180   24.0850 C   0  0  0  0  0  0  0  0  0  0  0  0
   12.6850   -0.8340   23.0480 C   0  0  0  0  0  0  0  0  0  0  0  0
    8.7320   -3.5970   22.5820 O   0  0  0  0  0  0  0  0  0  0  0  0
  1  2  1  0
  2  3  2  0
  2  4  1  0
  4  5  1  0
  4  6  1  0
  5  7  2  0
  5  8  1  0
  6  9  1  6
  6 10  1  0
  7 11  1  0
  8 12  2  0
  9 13  2  0
  9 14  1  0
 10 15  2  0
 10 16  1  0
 11 17  2  0
 12 17  1  0
 14 18  1  0
 15 19  1  0
 16 20  2  0
 17 21  1  0
 18 22  2  0
 18 23  1  0
 19 24  2  0
 20 24  1  0
 21 25  1  0
 21 26  1  0
 22 27  1  0
 22 28  1  0
 23 29  2  0
 23 30  1  0
 27 31  1  0
 28 32  2  0
 29 32  1  0
 30 33  1  0
M  END
