DAR-DIA-842b4336-6-chloroacetamide
     RDKit          3D

 18 19  0  0  0  0  0  0  0  0999 V2000
    7.4490   -4.4520   21.0750 C   0  0  0  0  0  0  0  0  0  0  0  0
    8.1420   -3.2920   20.4390 C   0  0  0  0  0  0  0  0  0  0  0  0
    7.4360   -3.1130   19.2360 O   0  0  0  0  0  0  0  0  0  0  0  0
    9.5020   -2.7230   21.1870 C   0  0  0  0  0  0  0  0  0  0  0  0
   10.7900   -2.1080   21.9390 C   0  0  0  0  0  0  0  0  0  0  0  0
    8.8280   -1.5910   21.6310 N   0  0  0  0  0  0  0  0  0  0  0  0
   10.7270   -0.9460   22.5760 O   0  0  0  0  0  0  0  0  0  0  0  0
    9.4720   -0.7200   22.3150 C   0  0  0  0  0  0  0  0  0  0  0  0
    8.9070    0.4520   22.7540 N   0  0  0  0  0  0  0  0  0  0  0  0
    8.2640    0.9170   21.6490 C   0  0  0  0  0  0  0  0  0  0  0  0
    8.5660    1.9410   21.0670 O   0  0  0  0  0  0  0  0  0  0  0  0
    7.2850    0.0100   21.2870 N   0  0  0  0  0  0  0  0  0  0  0  0
    6.5200    0.4990   20.2630 C   0  0  0  0  0  0  0  0  0  0  0  0
    5.3770    1.2880   20.3900 C   0  0  0  0  0  0  0  0  0  0  0  0
    6.9280    0.1760   18.9660 C   0  0  0  0  0  0  0  0  0  0  0  0
    4.6240    1.7840   19.2010 C   0  0  0  0  0  0  0  0  0  0  0  0
    6.3140    0.5830   17.8040 N   0  0  0  0  0  0  0  0  0  0  0  0
    5.1760    1.3800   17.8400 C   0  0  0  0  0  0  0  0  0  0  0  0
  1  2  1  0
  2  3  2  0
  2  4  1  0
  4  5  2  0
  4  6  1  0
  5  7  1  0
  6  8  2  0
  7  8  1  0
  8  9  1  0
  9 10  1  0
 10 11  2  0
 10 12  1  0
 12 13  1  0
 13 14  2  0
 13 15  1  0
 14 16  1  0
 15 17  2  0
 16 18  2  0
 17 18  1  0
M  END
