DAR-DIA-0cde14eb-5
     RDKit          3D

 21 23  0  0  0  0  0  0  0  0999 V2000
    5.0550    0.9110   21.9550 C   0  0  0  0  0  0  0  0  0  0  0  0
    5.4970    0.6970   20.5230 C   0  0  0  0  0  0  0  0  0  0  0  0
    4.7750    1.4550   19.4620 C   0  0  0  0  0  0  0  0  0  0  0  0
    6.5250   -0.1440   20.1150 C   0  0  0  0  0  0  0  0  0  0  0  0
    5.1640    1.2840   18.1500 C   0  0  0  0  0  0  0  0  0  0  0  0
    6.8000   -0.2130   18.7540 C   0  0  0  0  0  0  0  0  0  0  0  0
    7.2720   -0.8830   20.9430 N   0  0  0  0  0  0  0  0  0  0  0  0
    6.1640    0.4650   17.7610 N   0  0  0  0  0  0  0  0  0  0  0  0
    8.3270   -0.2580   21.5370 C   0  0  0  0  0  0  0  0  0  0  0  0
    8.6540    0.8990   21.2810 O   0  0  0  0  0  0  0  0  0  0  0  0
    9.0450   -1.0990   22.5030 N   0  0  0  0  0  0  0  0  0  0  0  0
   10.3690   -0.4750   22.6670 C   0  0  0  0  0  0  0  0  0  0  0  0
   11.5960   -1.3780   22.6410 C   0  0  0  0  0  0  0  0  0  0  0  0
   10.4770    0.9060   22.8240 C   0  0  0  0  0  0  0  0  0  0  0  0
   12.9290   -0.6910   22.7950 C   0  0  0  0  0  0  0  0  0  0  0  0
   11.7040    1.5700   22.9570 C   0  0  0  0  0  0  0  0  0  0  0  0
   12.9050    0.8380   22.9510 C   0  0  0  0  0  0  0  0  0  0  0  0
   11.7510    3.0780   23.0880 C   0  0  0  0  0  0  0  0  0  0  0  0
   12.9020    3.6970   22.7750 C   0  0  0  0  0  0  0  0  0  0  0  0
   10.5800    3.8680   22.5240 C   0  0  0  0  0  0  0  0  0  0  0  0
   10.7370    3.8280   23.9750 C   0  0  0  0  0  0  0  0  0  0  0  0
  1  2  1  0
  2  3  2  0
  2  4  1  0
  3  5  1  0
  4  6  2  0
  4  7  1  0
  5  8  2  0
  6  8  1  0
  7  9  1  0
  9 10  2  0
  9 11  1  0
 11 12  1  0
 12 13  2  0
 12 14  1  0
 13 15  1  0
 14 16  2  0
 15 17  2  0
 16 17  1  0
 16 18  1  0
 18 19  1  0
 18 20  1  0
 18 21  1  0
 20 21  1  0
M  END
