DAR-DIA-43a5904b-13
     RDKit          3D

 25 27  0  0  0  0  0  0  0  0999 V2000
   12.3500    5.4340   23.8510 N   0  0  0  0  0  0  0  0  0  0  0  0
   12.3820    4.4780   22.8730 C   0  0  0  0  0  0  0  0  0  0  0  0
   11.0340    4.0690   22.3360 C   0  0  0  0  0  0  0  0  0  0  0  0
   10.3380    3.0640   23.1290 N   0  0  0  0  0  0  0  0  0  0  0  0
    9.4500    2.1310   22.6020 C   0  0  0  0  0  0  0  0  0  0  0  0
    9.0900    2.0740   21.4130 O   0  0  0  0  0  0  0  0  0  0  0  0
    8.9220    1.1510   23.6660 C   0  0  1  0  0  0  0  0  0  0  0  0
    7.4920    0.8320   23.3980 C   0  0  0  0  0  0  0  0  0  0  0  0
    9.3480   -0.2020   23.8250 C   0  0  1  0  0  0  0  0  0  0  0  0
    7.2860   -0.5140   23.1160 C   0  0  0  0  0  0  0  0  0  0  0  0
    8.4480   -1.1520   23.3760 C   0  0  0  0  0  0  0  0  0  0  0  0
   10.6260   -0.3320   23.3100 C   0  0  0  0  0  0  0  0  0  0  0  0
    6.0670   -1.0240   22.6510 C   0  0  0  0  0  0  0  0  0  0  0  0
   11.5100    0.6970   23.5930 C   0  0  0  0  0  0  0  0  0  0  0  0
   11.0080   -1.4510   22.5350 C   0  0  0  0  0  0  0  0  0  0  0  0
    5.7730   -0.5230   21.3630 C   0  0  0  0  0  0  0  0  0  0  0  0
   12.7790    0.6400   23.1100 C   0  0  0  0  0  0  0  0  0  0  0  0
   12.2970   -1.5200   22.0440 C   0  0  0  0  0  0  0  0  0  0  0  0
    6.5900   -0.7800   20.1310 C   0  0  0  0  0  0  0  0  0  0  0  0
    4.6270    0.2770   21.2260 C   0  0  0  0  0  0  0  0  0  0  0  0
   13.1720   -0.5260   22.3060 C   0  0  0  0  0  0  0  0  0  0  0  0
   12.8540   -2.8130   21.1010 Cl  0  0  0  0  0  0  0  0  0  0  0  0
    6.0840   -0.1460   18.8360 C   0  0  0  0  0  0  0  0  0  0  0  0
    4.1820    0.8750   19.9220 N   0  0  0  0  0  0  0  0  0  0  0  0
    4.9700    0.6040   18.8040 C   0  0  0  0  0  0  0  0  0  0  0  0
  1  2  1  0
  2  3  1  0
  3  4  1  0
  4  5  1  0
  5  6  2  0
  7  5  1  6
  7  8  1  0
  7  9  1  0
  8 10  1  0
  9 11  1  0
 10 11  2  0
  9 12  1  6
 10 13  1  0
 12 14  2  0
 12 15  1  0
 13 16  1  0
 14 17  1  0
 15 18  2  0
 16 19  2  0
 16 20  1  0
 17 21  2  0
 18 21  1  0
 18 22  1  0
 19 23  1  0
 20 24  2  0
 23 25  2  0
 24 25  1  0
M  END
