DAR-DIA-842b4336-6-vinylsulfonamide
     RDKit          3D

 20 21  0  0  0  0  0  0  0  0999 V2000
    7.9970   -4.8580   21.0930 C   0  0  0  0  0  0  0  0  0  0  0  0
    6.5490   -5.2370   21.4120 C   0  0  0  0  0  0  0  0  0  0  0  0
    5.5710   -3.8040   21.7520 S   0  0  0  0  0  0  0  0  0  0  0  0
    4.4050   -4.2760   22.4540 O   0  0  0  0  0  0  0  0  0  0  0  0
    5.3700   -3.0740   20.5210 O   0  0  0  0  0  0  0  0  0  0  0  0
    6.4950   -2.8230   22.9150 C   0  0  0  0  0  0  0  0  0  0  0  0
    6.8050   -2.0260   21.6730 C   0  0  0  0  0  0  0  0  0  0  0  0
    7.3030   -1.8660   23.5820 N   0  0  0  0  0  0  0  0  0  0  0  0
    7.5820   -0.9720   21.8270 O   0  0  0  0  0  0  0  0  0  0  0  0
    7.9700   -0.7890   23.1110 C   0  0  0  0  0  0  0  0  0  0  0  0
    8.6360    0.3340   22.4730 N   0  0  0  0  0  0  0  0  0  0  0  0
    8.0470    1.1720   21.5320 C   0  0  0  0  0  0  0  0  0  0  0  0
    8.7530    2.0490   21.0410 O   0  0  0  0  0  0  0  0  0  0  0  0
    6.7140    0.9240   21.2730 N   0  0  0  0  0  0  0  0  0  0  0  0
    6.4350    0.7390   19.9110 C   0  0  0  0  0  0  0  0  0  0  0  0
    5.5050    1.5860   18.9920 C   0  0  0  0  0  0  0  0  0  0  0  0
    7.1080   -0.3920   19.3070 C   0  0  0  0  0  0  0  0  0  0  0  0
    5.3830    2.2620   20.2770 C   0  0  0  0  0  0  0  0  0  0  0  0
    6.3550    0.3020   18.5720 N   0  0  0  0  0  0  0  0  0  0  0  0
    6.1030    1.0920   19.7130 C   0  0  0  0  0  0  0  0  0  0  0  0
  1  2  1  0
  3  2  1  0
  3  4  2  0
  3  5  2  0
  3  6  1  0
  6  7  2  0
  6  8  1  0
  7  9  1  0
  8 10  2  0
  9 10  1  0
 10 11  1  0
 11 12  1  0
 12 13  2  0
 12 14  1  0
 14 15  1  0
 15 16  2  0
 15 17  1  0
 16 18  1  0
 17 19  2  0
 18 20  2  0
 19 20  1  0
M  END
