DAR-DIA-03336633-4-bromoalkyne
     RDKit          3D

 30 32  0  0  0  0  0  0  0  0999 V2000
    8.0230   -3.4760   19.9220 C   0  0  0  0  0  0  0  0  0  0  0  0
    6.4500   -3.5750   19.7060 C   0  0  0  0  0  0  0  0  0  0  0  0
    8.8890   -2.4900   20.9790 C   0  0  0  0  0  0  0  0  0  0  0  0
   10.4590   -2.5890   21.3580 C   0  0  0  0  0  0  0  0  0  0  0  0
    8.3440   -1.3930   21.6270 C   0  0  0  0  0  0  0  0  0  0  0  0
   11.1180   -1.6260   22.2660 C   0  0  0  0  0  0  0  0  0  0  0  0
    9.1120   -0.5340   22.4640 C   0  0  0  0  0  0  0  0  0  0  0  0
   10.4450   -0.6250   22.7940 C   0  0  0  0  0  0  0  0  0  0  0  0
    8.5300    0.6080   23.0430 N   0  0  0  0  0  0  0  0  0  0  0  0
    7.8740    1.1650   21.9950 C   0  0  0  0  0  0  0  0  0  0  0  0
    8.2750    2.1260   21.3260 O   0  0  0  0  0  0  0  0  0  0  0  0
    6.6640    0.3720   21.7500 N   0  0  0  0  0  0  0  0  0  0  0  0
    6.0740    0.4470   20.5610 C   0  0  0  0  0  0  0  0  0  0  0  0
    6.8980    0.0130   19.3530 C   0  0  0  0  0  0  0  0  0  0  0  0
    4.7820    0.8960   20.3770 C   0  0  0  0  0  0  0  0  0  0  0  0
    6.2080    0.1590   18.0770 N   0  0  0  0  0  0  0  0  0  0  0  0
    4.2680    0.9750   19.1070 C   0  0  0  0  0  0  0  0  0  0  0  0
    4.0090    1.2630   21.4640 C   0  0  0  0  0  0  0  0  0  0  0  0
    4.9370    0.6310   17.9630 C   0  0  0  0  0  0  0  0  0  0  0  0
    4.6530    2.1440   22.3230 C   0  0  0  0  0  0  0  0  0  0  0  0
    3.8780    2.8930   23.1370 N   0  0  0  0  0  0  0  0  0  0  0  0
    2.7080    2.4960   23.6650 C   0  0  0  0  0  0  0  0  0  0  0  0
    2.6170    1.5400   24.4230 O   0  0  0  0  0  0  0  0  0  0  0  0
    1.6460    3.2470   23.2810 N   0  0  0  0  0  0  0  0  0  0  0  0
    0.4650    3.3520   24.1250 C   0  0  0  0  0  0  0  0  0  0  0  0
   -0.7080    2.8630   23.3130 C   0  0  0  0  0  0  0  0  0  0  0  0
    0.3370    4.6790   24.5660 C   0  0  0  0  0  0  0  0  0  0  0  0
   -1.9710    3.3830   23.5890 C   0  0  0  0  0  0  0  0  0  0  0  0
   -0.9490    4.9790   25.0200 C   0  0  0  0  0  0  0  0  0  0  0  0
   -2.0450    4.6190   24.2330 C   0  0  0  0  0  0  0  0  0  0  0  0
  1  2  2  3
  1  3  1  0
  3  4  2  0
  3  5  1  0
  4  6  1  0
  5  7  2  0
  6  8  2  0
  7  8  1  0
  7  9  1  0
  9 10  1  0
 10 11  2  0
 10 12  1  0
 12 13  1  0
 13 14  2  0
 13 15  1  0
 14 16  1  0
 15 17  2  0
 15 18  1  0
 16 19  2  0
 17 19  1  0
 18 20  1  0
 20 21  1  0
 21 22  1  0
 22 23  2  0
 22 24  1  0
 24 25  1  0
 25 26  1  0
 25 27  1  0
 26 28  1  0
 27 29  1  0
 28 30  1  0
 29 30  1  0
M  END
