DAR-DIA-2b784ede-22-acrylamide
     RDKit          3D

 30 32  0  0  0  0  0  0  0  0999 V2000
    6.5280   -3.2940   19.4070 C   0  0  0  0  0  0  0  0  0  0  0  0
    6.5910   -2.0030   20.2330 C   0  0  0  0  0  0  0  0  0  0  0  0
    5.9340   -2.1760   21.6020 C   0  0  0  0  0  0  0  0  0  0  0  0
    4.7500   -2.9910   21.5280 O   0  0  0  0  0  0  0  0  0  0  0  0
    6.6670   -1.5350   22.7970 N   0  0  0  0  0  0  0  0  0  0  0  0
    6.4220   -2.1760   24.0340 C   0  0  0  0  0  0  0  0  0  0  0  0
    7.7300   -0.3140   22.8720 C   0  0  1  0  0  0  0  0  0  0  0  0
    6.4610   -3.5760   24.0090 C   0  0  0  0  0  0  0  0  0  0  0  0
    6.1380   -1.5160   25.2610 C   0  0  0  0  0  0  0  0  0  0  0  0
    7.2600    0.6840   23.9170 C   0  0  0  0  0  0  0  0  0  0  0  0
    9.2140   -0.4480   22.8090 C   0  0  0  0  0  0  0  0  0  0  0  0
    6.2250   -4.3160   25.1600 C   0  0  0  0  0  0  0  0  0  0  0  0
    5.8910   -2.2090   26.4510 C   0  0  0  0  0  0  0  0  0  0  0  0
    7.8570    0.8580   24.9700 O   0  0  0  0  0  0  0  0  0  0  0  0
    6.1220    1.4090   23.6350 N   0  0  0  0  0  0  0  0  0  0  0  0
    9.8620   -1.6600   22.6000 C   0  0  0  0  0  0  0  0  0  0  0  0
   10.1450    0.6690   22.9290 C   0  0  0  0  0  0  0  0  0  0  0  0
    5.9170   -3.6020   26.4690 C   0  0  0  0  0  0  0  0  0  0  0  0
    4.9130    0.7320   23.2460 C   0  0  0  0  0  0  0  0  0  0  0  0
   11.2030   -1.9070   22.4850 N   0  0  0  0  0  0  0  0  0  0  0  0
   11.5460    0.4250   22.8160 C   0  0  0  0  0  0  0  0  0  0  0  0
    9.7220    1.9850   23.1340 C   0  0  0  0  0  0  0  0  0  0  0  0
    5.6730   -4.5040   27.6920 C   0  0  0  0  0  0  0  0  0  0  0  0
   12.0380   -0.8660   22.5870 C   0  0  0  0  0  0  0  0  0  0  0  0
    4.2220   -4.5730   28.2200 C   0  0  0  0  0  0  0  0  0  0  0  0
    6.5880   -3.9940   28.8020 C   0  0  0  0  0  0  0  0  0  0  0  0
    6.2960   -5.9230   27.4710 C   0  0  0  0  0  0  0  0  0  0  0  0
    3.1380   -4.6350   28.6380 N   0  0  0  0  0  0  0  0  0  0  0  0
    7.9030   -4.4540   28.1780 C   0  0  0  0  0  0  0  0  0  0  0  0
    7.6910   -5.7200   27.3330 C   0  0  0  0  0  0  0  0  0  0  0  0
  1  2  1  0
  2  3  1  0
  3  4  2  0
  3  5  1  0
  5  6  1  0
  5  7  1  0
  6  8  2  0
  6  9  1  0
  7 10  1  1
  7 11  1  0
  8 12  1  0
  9 13  2  0
 10 14  2  0
 10 15  1  0
 11 16  2  0
 11 17  1  0
 12 18  2  0
 13 18  1  0
 15 19  1  0
 16 20  1  0
 17 21  2  0
 17 22  1  0
 18 23  1  0
 20 24  2  0
 21 24  1  0
 23 25  1  0
 23 26  1  0
 23 27  1  0
 25 28  3  0
 26 29  1  0
 27 30  1  0
 29 30  1  0
M  END
