DAR-DIA-2b784ede-25-acrylamide
     RDKit          3D

 26 28  0  0  0  0  0  0  0  0999 V2000
    8.3650   -3.8030   20.7340 C   0  0  0  0  0  0  0  0  0  0  0  0
    7.6390   -2.6750   21.2390 C   0  0  0  0  0  0  0  0  0  0  0  0
    6.2270   -3.0180   21.1520 C   0  0  0  0  0  0  0  0  0  0  0  0
    4.8940   -2.9930   21.0660 O   0  0  0  0  0  0  0  0  0  0  0  0
    6.5390   -1.6010   21.2100 N   0  0  0  0  0  0  0  0  0  0  0  0
    6.0390   -0.7960   20.1160 C   0  0  1  0  0  0  0  0  0  0  0  0
    7.4950   -1.1270   22.4390 C   0  0  2  0  0  0  0  0  0  0  0  0
    5.0530    0.0750   20.5520 C   0  0  0  0  0  0  0  0  0  0  0  0
    6.7710   -0.0660   19.2180 N   0  0  0  0  0  0  0  0  0  0  0  0
    7.0890    0.1910   23.1780 C   0  0  0  0  0  0  0  0  0  0  0  0
    9.1010   -1.2060   22.5030 C   0  0  0  0  0  0  0  0  0  0  0  0
    4.9500    1.2140   19.7920 C   0  0  0  0  0  0  0  0  0  0  0  0
    5.8340    0.9000   18.6080 C   0  0  0  0  0  0  0  0  0  0  0  0
    6.9020    1.2610   22.5980 O   0  0  0  0  0  0  0  0  0  0  0  0
    6.9710    0.0900   24.5620 N   0  0  0  0  0  0  0  0  0  0  0  0
    9.8110   -0.0720   21.9660 C   0  0  0  0  0  0  0  0  0  0  0  0
    9.7270   -2.3350   23.0750 C   0  0  0  0  0  0  0  0  0  0  0  0
    3.5280    1.6560   19.4470 C   0  0  0  0  0  0  0  0  0  0  0  0
    5.4820    2.3850   20.6580 C   0  0  0  0  0  0  0  0  0  0  0  0
    7.9030   -0.5580   25.4180 C   0  0  0  0  0  0  0  0  0  0  0  0
   11.1790   -0.4200   22.1480 N   0  0  0  0  0  0  0  0  0  0  0  0
   11.0740   -2.4590   23.1450 C   0  0  0  0  0  0  0  0  0  0  0  0
    8.9570   -3.3310   23.5720 C   0  0  0  0  0  0  0  0  0  0  0  0
    3.3660    3.1470   19.6810 C   0  0  0  0  0  0  0  0  0  0  0  0
    4.5460    3.6000   20.5390 C   0  0  0  0  0  0  0  0  0  0  0  0
   11.8060   -1.4770   22.6600 C   0  0  0  0  0  0  0  0  0  0  0  0
  1  2  1  0
  2  3  1  0
  3  4  2  0
  3  5  1  0
  6  5  1  1
  5  7  1  0
  6  8  1  0
  6  9  1  0
  7 10  1  6
  7 11  1  0
 12  8  1  0
  9 13  1  0
 12 13  1  0
 10 14  2  0
 10 15  1  0
 11 16  2  0
 11 17  1  0
 12 18  1  0
 12 19  1  0
 15 20  1  0
 16 21  1  0
 17 22  2  0
 17 23  1  0
 18 24  1  0
 19 25  1  0
 24 25  1  0
 21 26  2  0
 22 26  1  0
M  END
