DAR-DIA-2b784ede-21-acrylamide
     RDKit          3D

 29 31  0  0  0  0  0  0  0  0999 V2000
    7.9100   -3.7280   20.6760 C   0  0  0  0  0  0  0  0  0  0  0  0
    7.0080   -2.4790   20.6180 C   0  0  0  0  0  0  0  0  0  0  0  0
    6.0290   -2.3360   21.8080 C   0  0  0  0  0  0  0  0  0  0  0  0
    4.7710   -3.0210   21.5480 O   0  0  0  0  0  0  0  0  0  0  0  0
    6.4900   -1.5450   23.0770 N   0  0  0  0  0  0  0  0  0  0  0  0
    5.4280   -1.3040   24.0080 C   0  0  0  0  0  0  0  0  0  0  0  0
    7.6710   -0.4590   23.4270 C   0  0  2  0  0  0  0  0  0  0  0  0
    5.2940   -2.6850   23.6050 C   0  0  0  0  0  0  0  0  0  0  0  0
    4.3050   -1.2490   24.9160 C   0  0  0  0  0  0  0  0  0  0  0  0
    7.2350    0.8290   22.9970 C   0  0  0  0  0  0  0  0  0  0  0  0
    9.2380   -0.6440   23.1930 C   0  0  0  0  0  0  0  0  0  0  0  0
    4.3710   -3.6870   23.9550 C   0  0  0  0  0  0  0  0  0  0  0  0
    3.3190   -2.1300   25.3610 C   0  0  0  0  0  0  0  0  0  0  0  0
    6.9670    1.0820   21.8190 O   0  0  0  0  0  0  0  0  0  0  0  0
    7.1410    1.7850   23.9970 N   0  0  0  0  0  0  0  0  0  0  0  0
   10.1160    0.4310   23.1040 C   0  0  0  0  0  0  0  0  0  0  0  0
    9.9580   -1.7730   23.0540 C   0  0  0  0  0  0  0  0  0  0  0  0
    3.2750   -3.4030   24.9150 C   0  0  0  0  0  0  0  0  0  0  0  0
    7.7380    1.5460   25.2920 C   0  0  0  0  0  0  0  0  0  0  0  0
   11.4740    0.3880   22.8880 N   0  0  0  0  0  0  0  0  0  0  0  0
   11.3610   -1.6940   22.8220 C   0  0  0  0  0  0  0  0  0  0  0  0
    9.3190   -3.1210   23.1320 C   0  0  0  0  0  0  0  0  0  0  0  0
    2.2510   -4.5000   25.3000 C   0  0  0  0  0  0  0  0  0  0  0  0
   12.3450   -0.6680   22.6900 C   0  0  0  0  0  0  0  0  0  0  0  0
    2.1790   -5.6890   23.9420 Cl  0  0  0  0  0  0  0  0  0  0  0  0
    2.5990   -5.2360   26.6150 C   0  0  0  0  0  0  0  0  0  0  0  0
    0.8210   -3.9810   25.6050 C   0  0  0  0  0  0  0  0  0  0  0  0
    1.2380   -5.6760   27.1910 C   0  0  0  0  0  0  0  0  0  0  0  0
    0.1870   -5.0510   26.2500 C   0  0  0  0  0  0  0  0  0  0  0  0
  1  2  1  0
  2  3  1  0
  3  4  2  0
  3  5  1  0
  5  6  1  0
  5  7  1  0
  6  8  2  0
  6  9  1  0
  7 10  1  6
  7 11  1  0
  8 12  1  0
  9 13  2  0
 10 14  2  0
 10 15  1  0
 11 16  2  0
 11 17  1  0
 12 18  2  0
 13 18  1  0
 15 19  1  0
 16 20  1  0
 17 21  2  0
 17 22  1  0
 18 23  1  0
 20 24  2  0
 21 24  1  0
 23 25  1  0
 23 26  1  0
 23 27  1  0
 26 28  1  0
 27 29  1  0
 28 29  1  0
M  END
