DAR-DIA-23aa0b97-5-nitrile
     RDKit          3D

 18 19  0  0  0  0  0  0  0  0999 V2000
    8.0440   -3.4440   19.6800 C   0  0  0  0  0  0  0  0  0  0  0  0
    7.8320   -3.0130   18.4060 N   0  0  0  0  0  0  0  0  0  0  0  0
    8.7930   -2.5660   20.8250 C   0  0  0  0  0  0  0  0  0  0  0  0
   10.3190   -2.6530   21.3490 C   0  0  0  0  0  0  0  0  0  0  0  0
    8.1400   -1.3990   21.6080 C   0  0  0  0  0  0  0  0  0  0  0  0
   10.9720   -1.7760   22.4240 C   0  0  0  0  0  0  0  0  0  0  0  0
    8.8310   -0.6230   22.5750 C   0  0  0  0  0  0  0  0  0  0  0  0
   10.1040   -0.7640   22.9790 C   0  0  0  0  0  0  0  0  0  0  0  0
    8.2490    0.4020   23.1930 N   0  0  0  0  0  0  0  0  0  0  0  0
    7.9660    1.1740   22.0970 C   0  0  0  0  0  0  0  0  0  0  0  0
    8.7080    2.0030   21.5440 O   0  0  0  0  0  0  0  0  0  0  0  0
    6.7030    0.8330   21.6940 N   0  0  0  0  0  0  0  0  0  0  0  0
    6.1710    0.9970   20.4220 C   0  0  0  0  0  0  0  0  0  0  0  0
    4.9600    1.8380   20.2290 C   0  0  0  0  0  0  0  0  0  0  0  0
    6.7680    0.3760   19.3220 C   0  0  0  0  0  0  0  0  0  0  0  0
    4.4590    1.9670   18.8020 C   0  0  0  0  0  0  0  0  0  0  0  0
    6.3110    0.5020   18.0720 N   0  0  0  0  0  0  0  0  0  0  0  0
    5.1640    1.3040   17.8790 C   0  0  0  0  0  0  0  0  0  0  0  0
  1  2  2  3
  1  3  1  0
  3  4  2  0
  3  5  1  0
  4  6  1  0
  5  7  2  0
  6  8  2  0
  7  8  1  0
  7  9  1  0
  9 10  1  0
 10 11  2  0
 10 12  1  0
 12 13  1  0
 13 14  2  0
 13 15  1  0
 14 16  1  0
 15 17  2  0
 16 18  2  0
 17 18  1  0
M  END
