DAR-DIA-caba39e3-2-acrylamide
     RDKit          3D

 22 24  0  0  0  0  0  0  0  0999 V2000
    7.3640   -2.8080   18.3150 C   0  0  0  0  0  0  0  0  0  0  0  0
    6.5900   -2.0900   19.3710 C   0  0  0  0  0  0  0  0  0  0  0  0
    6.2010   -2.9560   20.5280 C   0  0  0  0  0  0  0  0  0  0  0  0
    5.2650   -3.7980   20.4970 O   0  0  0  0  0  0  0  0  0  0  0  0
    6.9260   -2.7780   21.6900 N   0  0  0  0  0  0  0  0  0  0  0  0
    6.4290   -3.2780   22.8390 C   0  0  0  0  0  0  0  0  0  0  0  0
    7.9780   -1.8230   21.9140 C   0  0  0  0  0  0  0  0  0  0  0  0
    7.5680   -3.6560   23.7490 C   0  0  0  0  0  0  0  0  0  0  0  0
    9.1710   -2.3380   22.5130 C   0  0  2  0  0  0  0  0  0  0  0  0
    7.1140   -4.5930   24.8510 C   0  0  0  0  0  0  0  0  0  0  0  0
    8.8660   -3.1900   23.5760 C   0  0  0  0  0  0  0  0  0  0  0  0
   10.1920   -1.3850   22.7790 C   0  0  0  0  0  0  0  0  0  0  0  0
    8.1560   -5.0680   25.8560 C   0  0  0  0  0  0  0  0  0  0  0  0
    9.8610   -3.5830   24.4660 C   0  0  0  0  0  0  0  0  0  0  0  0
   11.5400   -1.6550   22.4280 C   0  0  0  0  0  0  0  0  0  0  0  0
    9.8800   -0.1520   23.3960 C   0  0  0  0  0  0  0  0  0  0  0  0
    9.5880   -4.5370   25.6500 C   0  0  0  0  0  0  0  0  0  0  0  0
   12.5480   -0.7090   22.6930 C   0  0  0  0  0  0  0  0  0  0  0  0
   10.8780    0.7920   23.6530 C   0  0  0  0  0  0  0  0  0  0  0  0
   12.1640    0.4740   23.2950 C   0  0  0  0  0  0  0  0  0  0  0  0
   10.7450    2.0250   24.2170 O   0  0  0  0  0  0  0  0  0  0  0  0
   11.1680    3.1070   23.3860 C   0  0  0  0  0  0  0  0  0  0  0  0
  1  2  1  0
  2  3  1  0
  3  4  2  0
  3  5  1  0
  5  6  1  0
  5  7  1  0
  6  8  1  0
  7  9  1  0
  8 10  1  0
  8 11  2  0
  9 11  1  0
  9 12  1  1
 10 13  2  0
 11 14  1  0
 12 15  2  0
 12 16  1  0
 13 17  1  0
 14 17  2  0
 15 18  1  0
 16 19  2  0
 18 20  2  0
 19 20  1  0
 19 21  1  0
 21 22  1  0
M  END
