DAR-DIA-2b784ede-19-bromoalkyne
     RDKit          3D

 27 29  0  0  0  0  0  0  0  0999 V2000
    7.2970   -3.9360   20.2470 C   0  0  0  0  0  0  0  0  0  0  0  0
    5.8830   -4.4290   20.0350 C   0  0  0  0  0  0  0  0  0  0  0  0
    7.5140   -2.7710   21.0610 N   0  0  0  0  0  0  0  0  0  0  0  0
    7.1960   -1.5960   20.4320 C   0  0  0  0  0  0  0  0  0  0  0  0
    8.1370   -2.8190   22.4130 C   0  0  1  0  0  0  0  0  0  0  0  0
    6.2410   -1.8400   19.5530 C   0  0  0  0  0  0  0  0  0  0  0  0
    7.7540   -0.3350   20.5940 C   0  0  0  0  0  0  0  0  0  0  0  0
    7.8610   -4.2720   22.9200 C   0  0  0  0  0  0  0  0  0  0  0  0
    9.5690   -2.2610   22.7920 C   0  0  0  0  0  0  0  0  0  0  0  0
    5.9190   -0.8770   18.8090 C   0  0  0  0  0  0  0  0  0  0  0  0
    7.4040    0.7140   19.8230 N   0  0  0  0  0  0  0  0  0  0  0  0
    7.8000   -5.2290   22.1310 O   0  0  0  0  0  0  0  0  0  0  0  0
    7.6480   -4.4330   24.2460 N   0  0  0  0  0  0  0  0  0  0  0  0
   10.9380   -2.0330   22.0930 C   0  0  0  0  0  0  0  0  0  0  0  0
    9.6110   -1.8760   24.1010 C   0  0  0  0  0  0  0  0  0  0  0  0
    6.5120    0.3290   18.9330 C   0  0  0  0  0  0  0  0  0  0  0  0
    6.3910   -4.9770   24.7030 C   0  0  0  0  0  0  0  0  0  0  0  0
   12.0900   -1.5200   22.6300 N   0  0  0  0  0  0  0  0  0  0  0  0
   10.7750   -1.3900   24.6140 C   0  0  0  0  0  0  0  0  0  0  0  0
    8.3480   -2.0160   24.8900 C   0  0  0  0  0  0  0  0  0  0  0  0
    5.9760    1.0220   17.8520 C   0  0  0  0  0  0  0  0  0  0  0  0
   11.9550   -1.2150   23.9220 C   0  0  0  0  0  0  0  0  0  0  0  0
    4.6640    2.1760   18.2870 Cl  0  0  0  0  0  0  0  0  0  0  0  0
    5.5170   -0.3770   17.4670 C   0  0  0  0  0  0  0  0  0  0  0  0
    6.9660    1.2570   16.6710 C   0  0  0  0  0  0  0  0  0  0  0  0
    6.6920   -1.0910   16.7220 C   0  0  0  0  0  0  0  0  0  0  0  0
    7.5050    0.0500   16.1800 C   0  0  0  0  0  0  0  0  0  0  0  0
  1  2  2  3
  1  3  1  0
  3  4  1  0
  3  5  1  0
  4  6  2  0
  4  7  1  0
  5  8  1  6
  5  9  1  0
  6 10  1  0
  7 11  2  0
  8 12  2  0
  8 13  1  0
  9 14  2  0
  9 15  1  0
 10 16  2  0
 11 16  1  0
 13 17  1  0
 14 18  1  0
 15 19  2  0
 15 20  1  0
 16 21  1  0
 18 22  2  0
 19 22  1  0
 21 23  1  0
 21 24  1  0
 21 25  1  0
 24 26  1  0
 25 27  1  0
 26 27  1  0
M  END
