DAR-DIA-0cde14eb-62
     RDKit          3D

 20 22  0  0  0  0  0  0  0  0999 V2000
    4.6750    0.9510   21.6910 C   0  0  0  0  0  0  0  0  0  0  0  0
    5.2530    0.8510   20.3000 C   0  0  0  0  0  0  0  0  0  0  0  0
    4.5220    1.4990   19.1870 C   0  0  0  0  0  0  0  0  0  0  0  0
    6.4310    0.2050   19.9560 C   0  0  0  0  0  0  0  0  0  0  0  0
    5.0560    1.4080   17.9180 C   0  0  0  0  0  0  0  0  0  0  0  0
    6.8260    0.1890   18.6460 C   0  0  0  0  0  0  0  0  0  0  0  0
    7.2260   -0.3960   20.8020 N   0  0  0  0  0  0  0  0  0  0  0  0
    6.1910    0.7570   17.6110 N   0  0  0  0  0  0  0  0  0  0  0  0
    8.1240    0.4230   21.4140 C   0  0  0  0  0  0  0  0  0  0  0  0
    8.6680    1.4410   20.9650 O   0  0  0  0  0  0  0  0  0  0  0  0
    8.4300    0.0460   22.6680 C   0  0  0  0  0  0  0  0  0  0  0  0
    9.9070   -0.0230   22.9240 C   0  0  0  0  0  0  0  0  0  0  0  0
   10.8100    1.1620   23.0410 C   0  0  0  0  0  0  0  0  0  0  0  0
   10.7150   -1.0480   23.0910 C   0  0  0  0  0  0  0  0  0  0  0  0
   12.1020    0.8130   23.2850 N   0  0  0  0  0  0  0  0  0  0  0  0
   11.9430   -0.5270   23.2980 N   0  0  0  0  0  0  0  0  0  0  0  0
   12.8800   -1.5610   23.5050 C   0  0  0  0  0  0  0  0  0  0  0  0
   13.1730   -2.3860   21.9690 Cl  0  0  0  0  0  0  0  0  0  0  0  0
   13.4170   -1.8260   24.6400 C   0  0  0  0  0  0  0  0  0  0  0  0
   12.1390   -2.5770   24.4930 C   0  0  0  0  0  0  0  0  0  0  0  0
  1  2  1  0
  2  3  2  0
  2  4  1  0
  3  5  1  0
  4  6  2  0
  4  7  1  0
  5  8  2  0
  6  8  1  0
  7  9  1  0
  9 10  2  0
  9 11  1  0
 11 12  1  0
 12 13  1  0
 12 14  2  0
 13 15  2  0
 14 16  1  0
 15 16  1  0
 16 17  1  0
 17 18  1  0
 17 19  1  0
 17 20  1  0
 19 20  1  0
M  END
