DAR-DIA-2b784ede-39-nitrile
     RDKit          3D

 34 36  0  0  0  0  0  0  0  0999 V2000
    7.5520   -3.2850   19.4860 C   0  0  0  0  0  0  0  0  0  0  0  0
    6.3130   -3.4780   19.1450 N   0  0  0  0  0  0  0  0  0  0  0  0
    8.0440   -2.1360   20.0630 N   0  0  0  0  0  0  0  0  0  0  0  0
    8.7220   -2.1370   21.3400 C   0  0  0  0  0  0  0  0  0  0  0  0
    7.1330   -1.0860   20.5090 C   0  0  2  0  0  0  0  0  0  0  0  0
    7.4760   -2.5770   22.0900 C   0  0  0  0  0  0  0  0  0  0  0  0
   10.0100   -1.8370   21.8300 C   0  0  0  0  0  0  0  0  0  0  0  0
    7.7640    0.0510   21.0670 C   0  0  0  0  0  0  0  0  0  0  0  0
    6.1240   -1.7560   21.4980 C   0  0  0  0  0  0  0  0  0  0  0  0
    7.6640   -2.6680   23.5690 C   0  0  0  0  0  0  0  0  0  0  0  0
   10.1230   -1.9280   23.1820 C   0  0  0  0  0  0  0  0  0  0  0  0
    9.1150   -0.0180   21.2750 O   0  0  0  0  0  0  0  0  0  0  0  0
    7.1850    1.1640   21.4260 N   0  0  0  0  0  0  0  0  0  0  0  0
    5.3610   -3.0220   21.1830 C   0  0  0  0  0  0  0  0  0  0  0  0
    5.8560   -1.2200   22.7890 C   0  0  0  0  0  0  0  0  0  0  0  0
    9.0590   -2.2990   24.0350 C   0  0  0  0  0  0  0  0  0  0  0  0
    6.0700    1.3670   20.6780 C   0  0  0  0  0  0  0  0  0  0  0  0
    4.4920   -3.6370   22.0160 N   0  0  0  0  0  0  0  0  0  0  0  0
    4.9460   -1.8850   23.6160 C   0  0  0  0  0  0  0  0  0  0  0  0
    6.4480   -0.0620   23.3060 C   0  0  0  0  0  0  0  0  0  0  0  0
    8.7080   -2.4900   25.4580 C   0  0  0  0  0  0  0  0  0  0  0  0
    4.8610    2.0940   21.3430 C   0  0  0  0  0  0  0  0  0  0  0  0
    5.9380    0.9670   19.3280 C   0  0  0  0  0  0  0  0  0  0  0  0
    4.3060   -3.0490   23.2130 C   0  0  0  0  0  0  0  0  0  0  0  0
    7.2470   -2.0960   25.2220 C   0  0  0  0  0  0  0  0  0  0  0  0
    8.6230   -3.9740   25.9150 C   0  0  0  0  0  0  0  0  0  0  0  0
    9.1680   -1.3510   26.3700 C   0  0  0  0  0  0  0  0  0  0  0  0
    5.0200    2.5260   22.8250 C   0  0  0  0  0  0  0  0  0  0  0  0
    3.6640    2.3680   20.6590 C   0  0  0  0  0  0  0  0  0  0  0  0
    4.6620    1.2550   18.5820 C   0  0  0  0  0  0  0  0  0  0  0  0
    6.9000    0.2580   18.4390 C   0  0  0  0  0  0  0  0  0  0  0  0
    4.2990    1.5830   23.8240 C   0  0  0  0  0  0  0  0  0  0  0  0
    3.5130    1.9610   19.2440 C   0  0  0  0  0  0  0  0  0  0  0  0
    6.0790   -0.5220   17.5960 O   0  0  0  0  0  0  0  0  0  0  0  0
  1  2  2  3
  1  3  1  0
  3  4  1  0
  3  5  1  0
  4  6  2  0
  4  7  1  0
  5  8  1  1
  5  9  1  0
  6 10  1  0
  7 11  2  0
  8 12  2  0
  8 13  1  0
  9 14  2  0
  9 15  1  0
 10 16  2  0
 11 16  1  0
 13 17  1  0
 14 18  1  0
 15 19  2  0
 15 20  1  0
 16 21  1  0
 17 22  2  0
 17 23  1  0
 18 24  2  0
 19 24  1  0
 21 25  1  0
 21 26  1  0
 21 27  1  0
 22 28  1  0
 22 29  1  0
 23 30  2  0
 23 31  1  0
 28 32  1  0
 29 33  2  0
 30 33  1  0
 31 34  1  0
M  END
