DAR-DIA-caba39e3-7-nitrile
     RDKit          3D

 23 26  0  0  0  0  0  0  0  0999 V2000
    7.0810   -3.3870   19.8310 C   0  0  0  0  0  0  0  0  0  0  0  0
    6.0860   -3.2190   19.0410 N   0  0  0  0  0  0  0  0  0  0  0  0
    7.0020   -2.6860   21.0400 N   0  0  0  0  0  0  0  0  0  0  0  0
    6.2730   -2.9790   22.1840 C   0  0  0  0  0  0  0  0  0  0  0  0
    7.9950   -1.7660   21.3610 C   0  0  0  0  0  0  0  0  0  0  0  0
    7.1440   -3.7380   23.1620 C   0  0  0  0  0  0  0  0  0  0  0  0
    9.0680   -2.3660   22.3180 C   0  0  2  0  0  0  0  0  0  0  0  0
    6.6200   -4.7620   24.0740 C   0  0  0  0  0  0  0  0  0  0  0  0
    8.4780   -3.4570   23.1860 C   0  0  0  0  0  0  0  0  0  0  0  0
    9.7750   -1.3170   22.8890 C   0  0  0  0  0  0  0  0  0  0  0  0
    7.5160   -5.5280   25.0070 C   0  0  0  0  0  0  0  0  0  0  0  0
    9.5440   -4.1400   24.0390 C   0  0  0  0  0  0  0  0  0  0  0  0
    9.3180   -0.3650   23.8540 C   0  0  0  0  0  0  0  0  0  0  0  0
   11.0170   -1.2460   22.4290 C   0  0  0  0  0  0  0  0  0  0  0  0
    9.0270   -5.2690   25.0070 C   0  0  0  0  0  0  0  0  0  0  0  0
   10.1810    0.6330   24.3030 C   0  0  0  0  0  0  0  0  0  0  0  0
   11.9090   -0.2270   22.8850 C   0  0  0  0  0  0  0  0  0  0  0  0
   11.3820   -2.1650   21.5210 C   0  0  0  0  0  0  0  0  0  0  0  0
    9.7410    1.5180   25.1870 F   0  0  0  0  0  0  0  0  0  0  0  0
   11.5020    0.7100   23.8200 C   0  0  0  0  0  0  0  0  0  0  0  0
   13.1780   -0.2390   22.3260 C   0  0  0  0  0  0  0  0  0  0  0  0
   12.5800   -2.1850   20.9700 C   0  0  0  0  0  0  0  0  0  0  0  0
   13.4780   -1.2970   21.3000 C   0  0  0  0  0  0  0  0  0  0  0  0
  1  2  2  3
  1  3  1  0
  3  4  1  0
  3  5  1  0
  4  6  1  0
  5  7  1  0
  6  8  1  0
  6  9  2  0
  7  9  1  0
  7 10  1  1
  8 11  2  0
  9 12  1  0
 10 13  2  0
 10 14  1  0
 11 15  1  0
 12 15  2  0
 13 16  1  0
 14 17  2  0
 14 18  1  0
 16 19  1  0
 16 20  2  0
 17 20  1  0
 17 21  1  0
 18 22  2  0
 21 23  2  0
 22 23  1  0
M  END
