DAR-DIA-eace69ff-34
     RDKit          3D

 18 19  0  0  0  0  0  0  0  0999 V2000
    8.9000   -4.0640   25.1670 C   0  0  0  0  0  0  0  0  0  0  0  0
    9.7670   -2.8870   24.7820 C   0  0  0  0  0  0  0  0  0  0  0  0
    9.0320   -1.5950   24.3810 C   0  0  0  0  0  0  0  0  0  0  0  0
   10.1420   -0.6700   23.8460 C   0  0  0  0  0  0  0  0  0  0  0  0
   11.2450   -1.4670   23.1920 C   0  0  0  0  0  0  0  0  0  0  0  0
   10.3970    0.7450   23.7860 C   0  0  0  0  0  0  0  0  0  0  0  0
   12.4360   -0.8060   22.5870 C   0  0  0  0  0  0  0  0  0  0  0  0
   11.5270    1.3410   23.2120 C   0  0  0  0  0  0  0  0  0  0  0  0
    9.6040    1.8630   24.2630 N   0  0  0  0  0  0  0  0  0  0  0  0
   13.3910   -1.5360   21.9880 C   0  0  0  0  0  0  0  0  0  0  0  0
   12.5170    0.5780   22.6470 C   0  0  0  0  0  0  0  0  0  0  0  0
   11.4840    2.7600   23.2870 C   0  0  0  0  0  0  0  0  0  0  0  0
   10.3140    3.0920   23.9270 C   0  0  0  0  0  0  0  0  0  0  0  0
   12.8390   -2.5300   21.2340 C   0  0  0  0  0  0  0  0  0  0  0  0
   12.5650    3.7370   22.7230 C   0  0  0  0  0  0  0  0  0  0  0  0
   12.1780    5.0570   22.9470 N   0  0  0  0  0  0  0  0  0  0  0  0
   10.7840    5.3540   22.6440 C   0  0  0  0  0  0  0  0  0  0  0  0
   12.4450    5.5610   24.2840 C   0  0  0  0  0  0  0  0  0  0  0  0
  1  2  1  0
  2  3  1  0
  3  4  1  0
  4  5  2  0
  4  6  1  0
  5  7  1  0
  6  8  2  0
  6  9  1  0
  7 10  1  0
  7 11  2  0
  8 11  1  0
  8 12  1  0
  9 13  1  0
 12 13  2  0
 10 14  1  0
 12 15  1  0
 15 16  1  0
 16 17  1  0
 16 18  1  0
M  END
