DAR-DIA-caba39e3-3-chloroacetamide
     RDKit          3D

 24 27  0  0  0  0  0  0  0  0999 V2000
    7.3580   -3.0070   18.9260 C   0  0  0  0  0  0  0  0  0  0  0  0
    6.4820   -3.3980   20.0640 C   0  0  0  0  0  0  0  0  0  0  0  0
    5.5510   -4.1850   19.8270 O   0  0  0  0  0  0  0  0  0  0  0  0
    6.8190   -2.8500   21.3130 N   0  0  0  0  0  0  0  0  0  0  0  0
    6.2810   -3.3390   22.4970 C   0  0  0  0  0  0  0  0  0  0  0  0
    7.9670   -2.0250   21.5210 C   0  0  0  0  0  0  0  0  0  0  0  0
    7.3290   -3.7570   23.5000 C   0  0  0  0  0  0  0  0  0  0  0  0
    8.9870   -2.3860   22.3770 C   0  0  2  0  0  0  0  0  0  0  0  0
    6.9340   -4.7180   24.6120 C   0  0  0  0  0  0  0  0  0  0  0  0
    8.6120   -3.2680   23.3930 C   0  0  0  0  0  0  0  0  0  0  0  0
    9.8680   -1.3510   22.8500 C   0  0  0  0  0  0  0  0  0  0  0  0
    7.9360   -5.1990   25.6720 C   0  0  0  0  0  0  0  0  0  0  0  0
    9.6750   -3.6870   24.4060 C   0  0  0  0  0  0  0  0  0  0  0  0
    9.4230   -0.3830   23.7760 C   0  0  0  0  0  0  0  0  0  0  0  0
   11.1870   -1.2920   22.3970 C   0  0  0  0  0  0  0  0  0  0  0  0
    9.3750   -4.6590   25.5610 C   0  0  0  0  0  0  0  0  0  0  0  0
   10.2420    0.6480   24.2770 C   0  0  0  0  0  0  0  0  0  0  0  0
   12.0550   -0.3190   22.8350 C   0  0  0  0  0  0  0  0  0  0  0  0
   11.9220   -2.0880   21.4890 N   0  0  0  0  0  0  0  0  0  0  0  0
    9.6370    1.4930   25.1600 O   0  0  0  0  0  0  0  0  0  0  0  0
   11.6490    0.6200   23.7260 C   0  0  0  0  0  0  0  0  0  0  0  0
   13.3480   -0.5010   22.1970 C   0  0  0  0  0  0  0  0  0  0  0  0
   13.2640   -1.6120   21.3470 C   0  0  0  0  0  0  0  0  0  0  0  0
    8.2750    1.2020   25.4530 C   0  0  0  0  0  0  0  0  0  0  0  0
  1  2  1  0
  2  3  2  0
  2  4  1  0
  4  5  1  0
  4  6  1  0
  5  7  1  0
  6  8  1  0
  7  9  1  0
  7 10  2  0
  8 10  1  0
  8 11  1  1
  9 12  2  0
 10 13  1  0
 11 14  2  0
 11 15  1  0
 12 16  1  0
 13 16  2  0
 14 17  1  0
 15 18  2  0
 15 19  1  0
 17 20  1  0
 17 21  2  0
 18 21  1  0
 18 22  1  0
 19 23  1  0
 22 23  2  0
 20 24  1  0
M  END
