DAR-DIA-caba39e3-12-acrylamide
     RDKit          3D

 32 35  0  0  0  0  0  0  0  0999 V2000
    6.7700   -4.4300   20.4590 C   0  0  0  0  0  0  0  0  0  0  0  0
    6.5040   -4.7690   21.9200 C   0  0  0  0  0  0  0  0  0  0  0  0
    5.5910   -3.7930   22.6040 C   0  0  0  0  0  0  0  0  0  0  0  0
    4.4040   -3.6880   22.3270 O   0  0  0  0  0  0  0  0  0  0  0  0
    6.1140   -2.9840   23.5900 N   0  0  0  0  0  0  0  0  0  0  0  0
    5.3750   -1.9080   24.0370 C   0  0  0  0  0  0  0  0  0  0  0  0
    7.5410   -2.7700   23.7520 C   0  0  0  0  0  0  0  0  0  0  0  0
    5.5020   -1.5410   25.5390 C   0  0  0  0  0  0  0  0  0  0  0  0
    7.7590   -1.4170   24.4370 C   0  0  2  0  0  0  0  0  0  0  0  0
    4.1080   -1.8450   25.2700 C   0  0  0  0  0  0  0  0  0  0  0  0
    6.8430   -1.3260   25.4700 C   0  0  0  0  0  0  0  0  0  0  0  0
    7.7250   -0.4620   23.4060 C   0  0  0  0  0  0  0  0  0  0  0  0
    4.2800   -1.4540   26.8070 C   0  0  0  0  0  0  0  0  0  0  0  0
    7.0360   -0.9900   26.7410 C   0  0  0  0  0  0  0  0  0  0  0  0
    8.8470   -0.0440   24.0280 C   0  0  0  0  0  0  0  0  0  0  0  0
    8.0990    0.6580   22.5880 C   0  0  0  0  0  0  0  0  0  0  0  0
    5.6780   -1.0430   27.5180 C   0  0  0  0  0  0  0  0  0  0  0  0
    9.9360    0.7190   24.2580 C   0  0  0  0  0  0  0  0  0  0  0  0
    9.1750    1.5860   22.6350 N   0  0  0  0  0  0  0  0  0  0  0  0
    7.3020    1.0190   21.4490 C   0  0  0  0  0  0  0  0  0  0  0  0
    9.8420    1.6520   23.1990 C   0  0  0  0  0  0  0  0  0  0  0  0
   10.4090    1.8660   23.5080 C   0  0  0  0  0  0  0  0  0  0  0  0
    5.9710    0.7700   21.6120 N   0  0  0  0  0  0  0  0  0  0  0  0
    9.8230    2.4630   22.3510 N   0  0  0  0  0  0  0  0  0  0  0  0
    5.3000   -0.2820   20.8510 C   0  0  0  0  0  0  0  0  0  0  0  0
    5.3230   -1.5650   21.2130 O   0  0  0  0  0  0  0  0  0  0  0  0
    4.7430    0.0790   19.8960 N   0  0  0  0  0  0  0  0  0  0  0  0
    3.9730    1.3210   20.0030 C   0  0  0  0  0  0  0  0  0  0  0  0
    5.1960   -0.1510   18.6420 C   0  0  0  0  0  0  0  0  0  0  0  0
    4.7330    2.3110   19.3190 C   0  0  0  0  0  0  0  0  0  0  0  0
    6.0450    0.8880   18.3020 C   0  0  0  0  0  0  0  0  0  0  0  0
    5.9650    1.8990   18.9800 O   0  0  0  0  0  0  0  0  0  0  0  0
  1  2  1  0
  2  3  1  0
  3  4  2  0
  3  5  1  0
  5  6  1  0
  5  7  1  0
  6  8  1  0
  7  9  1  0
  8 10  1  0
  8 11  2  0
  9 11  1  0
  9 12  1  6
 10 13  2  0
 11 14  1  0
 12 15  2  0
 12 16  1  0
 13 17  1  0
 14 17  2  0
 15 18  1  0
 16 19  2  0
 16 20  1  0
 18 21  1  0
 18 22  2  0
 19 22  1  0
 20 23  1  0
 21 24  3  0
 23 25  1  0
 25 26  2  0
 25 27  1  0
 27 28  1  0
 27 29  1  0
 28 30  1  0
 29 31  1  0
 30 32  1  0
 31 32  1  0
M  END
