DAR-DIA-2b784ede-32-chloroacetamide
     RDKit          3D

 26 27  0  0  0  0  0  0  0  0999 V2000
    6.6150   -3.4100   20.7070 C   0  0  0  0  0  0  0  0  0  0  0  0
    7.3910   -2.1520   20.2920 C   0  0  0  0  0  0  0  0  0  0  0  0
    6.8830   -2.6720   19.1560 O   0  0  0  0  0  0  0  0  0  0  0  0
    7.7080   -1.9130   21.8160 N   0  0  0  0  0  0  0  0  0  0  0  0
    7.1820   -2.7590   22.8850 C   0  0  0  0  0  0  0  0  0  0  0  0
    8.3990   -0.6000   22.3470 C   0  0  1  0  0  0  0  0  0  0  0  0
    7.8140   -2.9600   24.0890 C   0  0  0  0  0  0  0  0  0  0  0  0
    6.0360   -3.4920   22.9600 N   0  0  0  0  0  0  0  0  0  0  0  0
    7.4870    0.4150   23.0950 C   0  0  0  0  0  0  0  0  0  0  0  0
    9.8920   -0.7200   22.7380 C   0  0  0  0  0  0  0  0  0  0  0  0
    7.1090   -3.8010   24.9160 C   0  0  0  0  0  0  0  0  0  0  0  0
    5.9900   -4.1370   24.2090 O   0  0  0  0  0  0  0  0  0  0  0  0
    6.5540    0.9230   22.4680 O   0  0  0  0  0  0  0  0  0  0  0  0
    7.7980    0.6730   24.4140 N   0  0  0  0  0  0  0  0  0  0  0  0
   10.8350    0.4760   22.5090 C   0  0  0  0  0  0  0  0  0  0  0  0
   10.5470   -1.8170   23.2770 C   0  0  0  0  0  0  0  0  0  0  0  0
    7.4210   -4.2540   26.2250 C   0  0  0  0  0  0  0  0  0  0  0  0
    7.6880   -0.2030   25.5190 C   0  0  0  0  0  0  0  0  0  0  0  0
   12.1650    0.5270   22.7290 N   0  0  0  0  0  0  0  0  0  0  0  0
   11.9110   -1.7410   23.4850 C   0  0  0  0  0  0  0  0  0  0  0  0
    9.9250   -3.1290   23.6660 C   0  0  0  0  0  0  0  0  0  0  0  0
    7.1010   -5.6790   26.6900 C   0  0  0  0  0  0  0  0  0  0  0  0
    8.9490   -4.1370   26.4400 C   0  0  0  0  0  0  0  0  0  0  0  0
    6.6610   -3.3800   27.2520 C   0  0  0  0  0  0  0  0  0  0  0  0
   12.6730   -0.6140   23.2030 C   0  0  0  0  0  0  0  0  0  0  0  0
    6.0630   -2.7480   28.0280 N   0  0  0  0  0  0  0  0  0  0  0  0
  1  2  1  0
  2  3  2  0
  2  4  1  0
  4  5  1  0
  4  6  1  0
  5  7  1  0
  5  8  2  0
  6  9  1  1
  6 10  1  0
  7 11  2  0
  8 12  1  0
 11 12  1  0
  9 13  2  0
  9 14  1  0
 10 15  2  0
 10 16  1  0
 11 17  1  0
 14 18  1  0
 15 19  1  0
 16 20  2  0
 16 21  1  0
 17 22  1  0
 17 23  1  0
 17 24  1  0
 19 25  2  0
 20 25  1  0
 24 26  3  0
M  END
