DAR-DIA-23aa0b97-6-nitrile
     RDKit          3D

 18 19  0  0  0  0  0  0  0  0999 V2000
    6.4330   -2.9160   19.9060 C   0  0  0  0  0  0  0  0  0  0  0  0
    5.6990   -2.8760   18.8460 N   0  0  0  0  0  0  0  0  0  0  0  0
    6.1860   -1.6260   20.9710 C   0  0  0  0  0  0  0  0  0  0  0  0
    4.8970   -0.7070   20.8860 C   0  0  0  0  0  0  0  0  0  0  0  0
    7.0880   -1.0220   22.1600 C   0  0  0  0  0  0  0  0  0  0  0  0
    4.6240    0.4720   21.7710 N   0  0  0  0  0  0  0  0  0  0  0  0
    6.7580    0.1330   22.9470 C   0  0  0  0  0  0  0  0  0  0  0  0
    5.5930    0.8550   22.7870 C   0  0  0  0  0  0  0  0  0  0  0  0
    7.5530    0.7640   24.0050 N   0  0  0  0  0  0  0  0  0  0  0  0
    8.2850    0.0330   24.9130 C   0  0  0  0  0  0  0  0  0  0  0  0
    7.8180   -0.9520   25.4770 O   0  0  0  0  0  0  0  0  0  0  0  0
    9.5800    0.5080   25.1330 C   0  0  0  0  0  0  0  0  0  0  0  0
   10.5350    0.0050   24.2180 C   0  0  0  0  0  0  0  0  0  0  0  0
   10.4780   -1.3970   23.6880 C   0  0  0  0  0  0  0  0  0  0  0  0
   11.5720    0.8510   23.7900 C   0  0  0  0  0  0  0  0  0  0  0  0
   11.5820   -1.8020   22.7030 C   0  0  0  0  0  0  0  0  0  0  0  0
   12.5260    0.4660   22.9230 N   0  0  0  0  0  0  0  0  0  0  0  0
   12.4930   -0.8560   22.4120 C   0  0  0  0  0  0  0  0  0  0  0  0
  1  2  2  3
  1  3  1  0
  3  4  2  0
  3  5  1  0
  4  6  1  0
  5  7  2  0
  6  8  2  0
  7  8  1  0
  7  9  1  0
  9 10  1  0
 10 11  2  0
 10 12  1  0
 12 13  1  0
 13 14  2  0
 13 15  1  0
 14 16  1  0
 15 17  2  0
 16 18  2  0
 17 18  1  0
M  END
