DAR-DIA-a80d16a0-1
     RDKit          3D

 23 25  0  0  0  0  0  0  0  0999 V2000
   12.8420   -2.5940   21.3490 C   0  0  0  0  0  0  0  0  0  0  0  0
   13.3050   -1.3040   21.9240 C   0  0  0  0  0  0  0  0  0  0  0  0
   12.2420   -0.4420   22.5550 C   0  0  0  0  0  0  0  0  0  0  0  0
   10.8570   -1.0580   22.5700 C   0  0  0  0  0  0  0  0  0  0  0  0
   12.4170    0.8470   23.0940 C   0  0  0  0  0  0  0  0  0  0  0  0
    9.7890   -0.4510   23.0640 N   0  0  0  0  0  0  0  0  0  0  0  0
   11.0270    1.5520   23.0680 C   0  0  1  0  0  0  0  0  0  0  0  0
    8.5590   -1.1860   23.3230 C   0  0  0  0  0  0  0  0  0  0  0  0
   10.1720    0.6870   23.7490 C   0  0  0  0  0  0  0  0  0  0  0  0
   10.9360    2.9880   23.1590 C   0  0  0  0  0  0  0  0  0  0  0  0
    8.7440   -2.2820   24.3530 C   0  0  0  0  0  0  0  0  0  0  0  0
    9.7360    3.5520   23.6060 C   0  0  0  0  0  0  0  0  0  0  0  0
   11.4800    3.7310   22.0590 C   0  0  0  0  0  0  0  0  0  0  0  0
   12.2110    3.7950   23.3260 C   0  0  0  0  0  0  0  0  0  0  0  0
    8.5370   -1.8600   25.7420 N   0  0  0  0  0  0  0  0  0  0  0  0
    8.5510    2.7990   23.4610 C   0  0  0  0  0  0  0  0  0  0  0  0
    9.6810    4.8070   24.1630 N   0  0  0  0  0  0  0  0  0  0  0  0
    9.1560   -0.7330   26.3030 C   0  0  0  0  0  0  0  0  0  0  0  0
    7.8970   -2.9110   26.5290 C   0  0  0  0  0  0  0  0  0  0  0  0
    7.1880    3.3570   23.9210 C   0  0  0  0  0  0  0  0  0  0  0  0
    8.4490    5.4580   24.6420 C   0  0  0  0  0  0  0  0  0  0  0  0
    7.1100    4.7460   24.5430 C   0  0  0  0  0  0  0  0  0  0  0  0
    5.6360    5.4520   25.0870 Cl  0  0  0  0  0  0  0  0  0  0  0  0
  1  2  1  0
  2  3  1  0
  3  4  2  0
  3  5  1  0
  4  6  1  0
  5  7  1  0
  6  8  1  0
  6  9  1  0
  7  9  1  0
  7 10  1  1
  8 11  1  0
 10 12  1  0
 10 13  1  0
 10 14  1  0
 13 14  1  0
 11 15  1  0
 12 16  2  0
 12 17  1  0
 15 18  1  0
 15 19  1  0
 16 20  1  0
 17 21  2  0
 20 22  2  0
 21 22  1  0
 22 23  1  0
M  END
