DAR-DIA-23aa0b97-9-chloroacetamide
     RDKit          3D

 20 21  0  0  0  0  0  0  0  0999 V2000
    8.9880   -4.2020   18.8840 C   0  0  0  0  0  0  0  0  0  0  0  0
    8.1620   -3.2940   19.7480 C   0  0  0  0  0  0  0  0  0  0  0  0
    6.9350   -3.2570   19.3110 O   0  0  0  0  0  0  0  0  0  0  0  0
    8.8560   -2.4150   20.9440 C   0  0  0  0  0  0  0  0  0  0  0  0
   10.3970   -2.5020   21.4370 C   0  0  0  0  0  0  0  0  0  0  0  0
    8.1550   -1.4350   21.6360 C   0  0  0  0  0  0  0  0  0  0  0  0
   10.8630   -1.6770   22.4420 N   0  0  0  0  0  0  0  0  0  0  0  0
    8.7870   -0.6570   22.6230 C   0  0  0  0  0  0  0  0  0  0  0  0
   10.0640   -0.7760   23.0100 C   0  0  0  0  0  0  0  0  0  0  0  0
    8.1240    0.3060   23.2250 N   0  0  0  0  0  0  0  0  0  0  0  0
    7.8210    0.9600   22.0650 C   0  0  0  0  0  0  0  0  0  0  0  0
    8.4840    1.8440   21.4890 O   0  0  0  0  0  0  0  0  0  0  0  0
    6.6420    0.4080   21.6140 N   0  0  0  0  0  0  0  0  0  0  0  0
    6.1100    0.6450   20.3610 C   0  0  0  0  0  0  0  0  0  0  0  0
    6.7810    0.2530   19.0860 C   0  0  0  0  0  0  0  0  0  0  0  0
    4.8950    1.2870   20.2840 C   0  0  0  0  0  0  0  0  0  0  0  0
    6.2420    0.5310   17.8910 N   0  0  0  0  0  0  0  0  0  0  0  0
    4.3600    1.5650   19.0520 C   0  0  0  0  0  0  0  0  0  0  0  0
    5.0620    1.1780   17.9110 C   0  0  0  0  0  0  0  0  0  0  0  0
    3.1260    2.2330   18.9680 N   0  0  0  0  0  0  0  0  0  0  0  0
  1  2  1  0
  2  3  2  0
  2  4  1  0
  4  5  2  0
  4  6  1  0
  5  7  1  0
  6  8  2  0
  7  9  2  0
  8  9  1  0
  8 10  1  0
 10 11  1  0
 11 12  2  0
 11 13  1  0
 13 14  1  0
 14 15  2  0
 14 16  1  0
 15 17  1  0
 16 18  2  0
 17 19  2  0
 18 19  1  0
 18 20  1  0
M  END
