DAR-DIA-2b784ede-44-chloroacetamide
     RDKit          3D

 32 35  0  0  0  0  0  0  0  0999 V2000
    7.3140   -4.6220   20.9710 C   0  0  0  0  0  0  0  0  0  0  0  0
    7.3260   -3.2480   20.4240 C   0  0  0  0  0  0  0  0  0  0  0  0
    6.6390   -3.1470   19.3110 O   0  0  0  0  0  0  0  0  0  0  0  0
    8.1260   -2.2860   21.2580 N   0  0  0  0  0  0  0  0  0  0  0  0
    9.1110   -2.6680   22.2900 C   0  0  1  0  0  0  0  0  0  0  0  0
    7.5060   -1.0920   21.9570 C   0  0  2  0  0  0  0  0  0  0  0  0
   10.4160   -1.9740   21.8290 C   0  0  0  0  0  0  0  0  0  0  0  0
    8.8830   -2.0740   23.6120 N   0  0  0  0  0  0  0  0  0  0  0  0
    6.7960   -0.3890   21.1380 C   0  0  0  0  0  0  0  0  0  0  0  0
    8.2630    0.1410   22.4650 C   0  0  0  0  0  0  0  0  0  0  0  0
   11.0260   -1.5670   23.1920 C   0  0  0  0  0  0  0  0  0  0  0  0
   10.2280   -2.1170   24.1890 C   0  0  0  0  0  0  0  0  0  0  0  0
    7.5270    0.6770   20.4720 O   0  0  0  0  0  0  0  0  0  0  0  0
    5.5860   -0.5710   20.9410 N   0  0  0  0  0  0  0  0  0  0  0  0
    9.6450    0.5400   21.9990 C   0  0  0  0  0  0  0  0  0  0  0  0
    7.6440    0.9860   23.3950 C   0  0  0  0  0  0  0  0  0  0  0  0
   11.0840   -0.0290   23.0320 C   0  0  0  0  0  0  0  0  0  0  0  0
   12.4600   -2.1260   23.1840 C   0  0  0  0  0  0  0  0  0  0  0  0
    5.3100    0.3420   19.9840 C   0  0  0  0  0  0  0  0  0  0  0  0
   10.2330    1.8420   22.5800 C   0  0  0  0  0  0  0  0  0  0  0  0
    8.1530    2.1330   23.9240 N   0  0  0  0  0  0  0  0  0  0  0  0
   12.5920    0.2820   23.1960 C   0  0  0  0  0  0  0  0  0  0  0  0
   13.1360   -1.0480   23.6740 C   0  0  0  0  0  0  0  0  0  0  0  0
    4.6170    1.5120   20.3020 C   0  0  0  0  0  0  0  0  0  0  0  0
    5.7780    0.0300   18.7110 C   0  0  0  0  0  0  0  0  0  0  0  0
    9.3620    2.5650   23.5490 C   0  0  0  0  0  0  0  0  0  0  0  0
    4.1700    1.7680   21.7570 C   0  0  0  0  0  0  0  0  0  0  0  0
    4.3520    2.4250   19.3000 C   0  0  0  0  0  0  0  0  0  0  0  0
    5.4970    1.0200   17.6370 C   0  0  0  0  0  0  0  0  0  0  0  0
    6.5220   -1.2170   18.4140 C   0  0  0  0  0  0  0  0  0  0  0  0
    4.8180    2.1660   17.8750 C   0  0  0  0  0  0  0  0  0  0  0  0
    7.7030   -1.2090   18.1380 O   0  0  0  0  0  0  0  0  0  0  0  0
  1  2  1  0
  2  3  2  0
  2  4  1  0
  5  4  1  6
  4  6  1  0
  5  7  1  0
  5  8  1  0
  6  9  1  6
  6 10  1  0
 11  7  1  0
  8 12  1  0
 11 12  1  0
  9 13  2  0
  9 14  1  0
 10 15  2  0
 10 16  1  0
 11 17  1  0
 11 18  1  0
 14 19  1  0
 15 20  1  0
 16 21  2  0
 17 22  1  0
 18 23  1  0
 22 23  1  0
 19 24  2  0
 19 25  1  0
 20 26  2  0
 21 26  1  0
 24 27  1  0
 24 28  1  0
 25 29  2  0
 25 30  1  0
 28 31  2  0
 29 31  1  0
 30 32  1  0
M  END
