DAR-DIA-2b784ede-23-nitrile
     RDKit          3D

 28 30  0  0  0  0  0  0  0  0999 V2000
    6.9570   -3.6930   20.0780 C   0  0  0  0  0  0  0  0  0  0  0  0
    5.9040   -4.4190   19.9110 N   0  0  0  0  0  0  0  0  0  0  0  0
    7.0400   -2.5840   20.9460 N   0  0  0  0  0  0  0  0  0  0  0  0
    6.0160   -1.6480   20.5170 C   0  0  0  0  0  0  0  0  0  0  0  0
    7.0930   -2.9470   22.3970 C   0  0  2  0  0  0  0  0  0  0  0  0
    5.3200   -0.2320   20.6520 C   0  0  0  0  0  0  0  0  0  0  0  0
    5.2650   -2.0060   19.6250 C   0  0  0  0  0  0  0  0  0  0  0  0
    8.5820   -3.0650   22.8700 C   0  0  0  0  0  0  0  0  0  0  0  0
    6.2400   -4.1610   22.7640 C   0  0  0  0  0  0  0  0  0  0  0  0
    5.6310    0.8380   21.5040 C   0  0  0  0  0  0  0  0  0  0  0  0
    5.2290   -0.7800   20.2590 N   0  0  0  0  0  0  0  0  0  0  0  0
    9.4110   -3.3310   22.0100 O   0  0  0  0  0  0  0  0  0  0  0  0
    9.0560   -2.8950   24.1160 N   0  0  0  0  0  0  0  0  0  0  0  0
    6.7710   -5.5770   22.6470 C   0  0  0  0  0  0  0  0  0  0  0  0
    4.9110   -4.0630   23.2350 C   0  0  0  0  0  0  0  0  0  0  0  0
    6.1560   -0.2740   21.3260 C   0  0  0  0  0  0  0  0  0  0  0  0
   10.4040   -2.8770   24.1760 C   0  0  0  0  0  0  0  0  0  0  0  0
    6.1060   -6.7150   22.9460 N   0  0  0  0  0  0  0  0  0  0  0  0
    4.2670   -5.2560   23.5190 C   0  0  0  0  0  0  0  0  0  0  0  0
    4.2030   -2.7450   23.4330 C   0  0  0  0  0  0  0  0  0  0  0  0
    7.3020   -0.5880   22.0980 C   0  0  0  0  0  0  0  0  0  0  0  0
    4.8490   -6.5040   23.3730 C   0  0  0  0  0  0  0  0  0  0  0  0
    7.1700   -1.0280   23.5790 C   0  0  0  0  0  0  0  0  0  0  0  0
    7.8830    0.8520   22.2660 C   0  0  0  0  0  0  0  0  0  0  0  0
    8.5300   -1.1820   21.4110 C   0  0  0  0  0  0  0  0  0  0  0  0
    7.0540   -1.3270   24.7010 N   0  0  0  0  0  0  0  0  0  0  0  0
    9.3780    0.6960   22.5590 C   0  0  0  0  0  0  0  0  0  0  0  0
    9.6760   -0.7430   22.1100 C   0  0  0  0  0  0  0  0  0  0  0  0
  1  2  2  3
  1  3  1  0
  3  4  1  0
  3  5  1  0
  4  6  2  0
  4  7  1  0
  5  8  1  6
  5  9  1  0
  6 10  1  0
  7 11  2  0
  8 12  2  0
  8 13  1  0
  9 14  2  0
  9 15  1  0
 10 16  2  0
 11 16  1  0
 13 17  1  0
 14 18  1  0
 15 19  2  0
 15 20  1  0
 16 21  1  0
 18 22  2  0
 19 22  1  0
 21 23  1  0
 21 24  1  0
 21 25  1  0
 23 26  3  0
 24 27  1  0
 25 28  1  0
 27 28  1  0
M  END
