DAR-DIA-2b784ede-2-nitrile
     RDKit          3D

 24 25  0  0  0  0  0  0  0  0999 V2000
    6.6640   -3.2580   20.2190 C   0  0  0  0  0  0  0  0  0  0  0  0
    5.5700   -3.8180   19.7550 N   0  0  0  0  0  0  0  0  0  0  0  0
    6.6610   -1.8160   20.8460 N   0  0  0  0  0  0  0  0  0  0  0  0
    6.3500   -0.9750   19.7580 C   0  0  0  0  0  0  0  0  0  0  0  0
    7.5840   -1.0750   21.9770 C   0  0  1  0  0  0  0  0  0  0  0  0
    5.2150   -0.3040   19.2480 C   0  0  0  0  0  0  0  0  0  0  0  0
    7.4310   -0.8640   19.0720 C   0  0  0  0  0  0  0  0  0  0  0  0
    6.6700   -1.1280   23.2310 C   0  0  0  0  0  0  0  0  0  0  0  0
    9.1850   -1.1060   22.4160 C   0  0  0  0  0  0  0  0  0  0  0  0
    5.4010    0.3410   18.0190 C   0  0  0  0  0  0  0  0  0  0  0  0
    7.6250   -0.3120   17.9840 N   0  0  0  0  0  0  0  0  0  0  0  0
    6.7320   -2.0850   24.0070 O   0  0  0  0  0  0  0  0  0  0  0  0
    5.8080   -0.0740   23.4370 N   0  0  0  0  0  0  0  0  0  0  0  0
   10.0800    0.0110   22.2690 C   0  0  0  0  0  0  0  0  0  0  0  0
    9.8750   -2.2060   23.0040 C   0  0  0  0  0  0  0  0  0  0  0  0
    6.6720    0.2420   17.4530 C   0  0  0  0  0  0  0  0  0  0  0  0
    6.0300    0.9060   24.4690 C   0  0  0  0  0  0  0  0  0  0  0  0
   11.4190    0.0690   22.5930 N   0  0  0  0  0  0  0  0  0  0  0  0
   11.2440   -2.1690   23.3250 C   0  0  0  0  0  0  0  0  0  0  0  0
    9.1670   -3.4650   23.3160 C   0  0  0  0  0  0  0  0  0  0  0  0
    7.0700    0.6680   16.2660 C   0  0  0  0  0  0  0  0  0  0  0  0
   11.9780   -1.0260   23.0960 C   0  0  0  0  0  0  0  0  0  0  0  0
    8.3890    0.4630   15.5770 C   0  0  0  0  0  0  0  0  0  0  0  0
    9.3590    0.2860   14.9690 N   0  0  0  0  0  0  0  0  0  0  0  0
  1  2  2  3
  1  3  1  0
  3  4  1  0
  3  5  1  0
  4  6  2  0
  4  7  1  0
  5  8  1  1
  5  9  1  0
  6 10  1  0
  7 11  2  0
  8 12  2  0
  8 13  1  0
  9 14  2  0
  9 15  1  0
 10 16  2  0
 11 16  1  0
 13 17  1  0
 14 18  1  0
 15 19  2  0
 15 20  1  0
 16 21  1  0
 18 22  2  0
 19 22  1  0
 21 23  1  0
 23 24  3  0
M  END
