DAR-DIA-eace69ff-4
     RDKit          3D

 31 34  0  0  0  0  0  0  0  0999 V2000
   13.3870   -2.0100   20.7870 C   0  0  0  0  0  0  0  0  0  0  0  0
   13.2710   -1.9900   22.2360 C   0  0  0  0  0  0  0  0  0  0  0  0
   12.4060   -0.9010   22.6630 C   0  0  0  0  0  0  0  0  0  0  0  0
   11.1430   -1.6420   23.0770 C   0  0  0  0  0  0  0  0  0  0  0  0
   12.6680    0.4430   22.6800 C   0  0  0  0  0  0  0  0  0  0  0  0
    9.9910   -0.7990   23.6220 C   0  0  0  0  0  0  0  0  0  0  0  0
   11.5290    1.2790   23.1830 C   0  0  0  0  0  0  0  0  0  0  0  0
    8.8250   -1.3560   24.0400 O   0  0  0  0  0  0  0  0  0  0  0  0
   10.2400    0.7130   23.6560 C   0  0  0  0  0  0  0  0  0  0  0  0
   11.5420    2.7850   23.2600 C   0  0  0  0  0  0  0  0  0  0  0  0
    8.8220   -2.7800   24.2190 C   0  0  0  0  0  0  0  0  0  0  0  0
   12.5990    3.8280   22.8510 C   0  0  0  0  0  0  0  0  0  0  0  0
   10.2560    3.0950   23.8260 C   0  0  0  0  0  0  0  0  0  0  0  0
    9.4870    1.9210   24.0660 N   0  0  0  0  0  0  0  0  0  0  0  0
    8.0430   -3.1690   25.3190 C   0  0  0  0  0  0  0  0  0  0  0  0
    8.4370   -3.3180   22.9900 C   0  0  0  0  0  0  0  0  0  0  0  0
   12.2940    5.2160   23.1810 N   0  0  0  0  0  0  0  0  0  0  0  0
    8.1330    1.9300   24.6280 C   0  0  0  0  0  0  0  0  0  0  0  0
    7.9210   -4.5680   25.4100 C   0  0  0  0  0  0  0  0  0  0  0  0
    7.9990   -4.6240   23.1370 C   0  0  0  0  0  0  0  0  0  0  0  0
   10.9440    5.5960   22.7940 C   0  0  0  0  0  0  0  0  0  0  0  0
   13.2340    6.1350   22.5320 C   0  0  0  0  0  0  0  0  0  0  0  0
    8.1110    1.6300   25.9930 C   0  0  0  0  0  0  0  0  0  0  0  0
    8.4940   -5.1810   24.3140 C   0  0  0  0  0  0  0  0  0  0  0  0
    7.5040    0.4390   26.4920 N   0  0  0  0  0  0  0  0  0  0  0  0
    6.1480    0.3300   26.9920 C   0  0  0  0  0  0  0  0  0  0  0  0
    8.4700   -0.4330   27.2310 C   0  0  0  0  0  0  0  0  0  0  0  0
    6.2160    0.5670   28.4810 C   0  0  0  0  0  0  0  0  0  0  0  0
    8.2620   -0.6850   28.7180 C   0  0  0  0  0  0  0  0  0  0  0  0
    6.8740   -0.5440   29.1830 N   0  0  0  0  0  0  0  0  0  0  0  0
    6.1440   -1.8030   29.0590 C   0  0  0  0  0  0  0  0  0  0  0  0
  1  2  1  0
  2  3  1  0
  3  4  2  0
  3  5  1  0
  4  6  1  0
  5  7  2  0
  6  8  1  0
  6  9  2  0
  7  9  1  0
  7 10  1  0
  8 11  1  0
 10 12  1  0
 10 13  2  0
  9 14  1  0
 13 14  1  0
 11 15  1  0
 11 16  1  0
 12 17  1  0
 14 18  1  0
 15 19  1  0
 16 20  1  0
 17 21  1  0
 17 22  1  0
 18 23  1  0
 19 24  1  0
 20 24  1  0
 23 25  1  0
 25 26  1  0
 25 27  1  0
 26 28  1  0
 27 29  1  0
 28 30  1  0
 29 30  1  0
 30 31  1  0
M  END
