DAR-DIA-23aa0b97-1-acrylamide
     RDKit          3D

 23 25  0  0  0  0  0  0  0  0999 V2000
    6.8990   -4.8240   20.8180 C   0  0  0  0  0  0  0  0  0  0  0  0
    6.9440   -3.7890   21.9340 C   0  0  0  0  0  0  0  0  0  0  0  0
    5.6640   -3.7990   22.8080 C   0  0  0  0  0  0  0  0  0  0  0  0
    4.4970   -4.0160   22.3630 O   0  0  0  0  0  0  0  0  0  0  0  0
    5.8990   -3.6150   24.2790 C   0  0  0  0  0  0  0  0  0  0  0  0
    5.5790   -2.3080   23.8100 C   0  0  0  0  0  0  0  0  0  0  0  0
    5.9360   -4.7340   23.4890 C   0  0  0  0  0  0  0  0  0  0  0  0
    5.4520   -2.9700   22.6520 C   0  0  0  0  0  0  0  0  0  0  0  0
    5.5510   -4.1880   22.1110 C   0  0  0  0  0  0  0  0  0  0  0  0
    5.1780   -2.9760   21.3510 C   0  0  0  0  0  0  0  0  0  0  0  0
    5.4600   -2.8430   22.8080 N   0  0  0  0  0  0  0  0  0  0  0  0
    5.3530   -1.5500   22.1420 C   0  0  0  0  0  0  0  0  0  0  0  0
    4.7180   -0.5930   22.6120 O   0  0  0  0  0  0  0  0  0  0  0  0
    6.0930   -1.3580   20.7930 C   0  0  0  0  0  0  0  0  0  0  0  0
    5.4920   -0.3430   20.1510 C   0  0  0  0  0  0  0  0  0  0  0  0
    5.9510    0.2100   18.8880 C   0  0  0  0  0  0  0  0  0  0  0  0
    4.2480    0.4220   20.5740 C   0  0  0  0  0  0  0  0  0  0  0  0
    5.1400    1.2370   18.4670 N   0  0  0  0  0  0  0  0  0  0  0  0
    4.3650    1.1190   19.5170 C   0  0  0  0  0  0  0  0  0  0  0  0
    3.3390    1.4480   20.2670 C   0  0  0  0  0  0  0  0  0  0  0  0
    5.4430    0.5740   18.9980 N   0  0  0  0  0  0  0  0  0  0  0  0
    3.6900    2.1110   18.9820 C   0  0  0  0  0  0  0  0  0  0  0  0
    4.8720    1.6700   18.1980 C   0  0  0  0  0  0  0  0  0  0  0  0
  1  2  1  0
  2  3  1  0
  3  4  2  0
  3  5  1  0
  5  6  2  0
  5  7  1  0
  6  8  1  0
  7  9  2  0
  8 10  2  0
  9 10  1  0
  9 11  1  0
 11 12  1  0
 12 13  2  0
 12 14  1  0
 14 15  1  0
 15 16  2  0
 15 17  1  0
 16 18  1  0
 17 19  2  0
 18 19  1  0
 17 20  1  0
 19 21  1  0
 20 22  2  0
 21 23  2  0
 22 23  1  0
M  END
