DAR-DIA-2b784ede-40-nitrile
     RDKit          3D

 36 38  0  0  0  0  0  0  0  0999 V2000
    8.3350   -3.4620   19.9590 C   0  0  0  0  0  0  0  0  0  0  0  0
    7.0420   -3.4580   19.4480 N   0  0  0  0  0  0  0  0  0  0  0  0
    9.0340   -2.3210   20.6830 N   0  0  0  0  0  0  0  0  0  0  0  0
   10.2750   -2.2120   21.5260 C   0  0  0  0  0  0  0  0  0  0  0  0
    8.7010   -1.3520   21.7530 C   0  0  1  0  0  0  0  0  0  0  0  0
    9.3590   -2.2490   22.7370 C   0  0  0  0  0  0  0  0  0  0  0  0
   11.6970   -2.0890   21.4470 C   0  0  0  0  0  0  0  0  0  0  0  0
    8.1380   -0.1510   21.5630 C   0  0  0  0  0  0  0  0  0  0  0  0
    7.9770   -1.8940   22.9860 C   0  0  0  0  0  0  0  0  0  0  0  0
   10.0630   -2.1630   24.0040 C   0  0  0  0  0  0  0  0  0  0  0  0
   12.2810   -2.0240   22.6420 C   0  0  0  0  0  0  0  0  0  0  0  0
    8.9290    0.9260   21.2350 O   0  0  0  0  0  0  0  0  0  0  0  0
    6.8870   -0.0970   21.7330 N   0  0  0  0  0  0  0  0  0  0  0  0
    7.5160   -3.1880   22.9770 C   0  0  0  0  0  0  0  0  0  0  0  0
    7.7440   -1.1450   24.1740 C   0  0  0  0  0  0  0  0  0  0  0  0
   11.5360   -2.0640   23.7840 C   0  0  0  0  0  0  0  0  0  0  0  0
    6.5230   -0.0390   20.4670 C   0  0  0  0  0  0  0  0  0  0  0  0
    6.8590   -3.8220   23.9850 N   0  0  0  0  0  0  0  0  0  0  0  0
    7.0710   -1.7770   25.2350 C   0  0  0  0  0  0  0  0  0  0  0  0
    8.1370    0.1830   24.3830 C   0  0  0  0  0  0  0  0  0  0  0  0
   11.6540   -2.0410   25.1440 C   0  0  0  0  0  0  0  0  0  0  0  0
    7.3110   -0.7160   19.3560 C   0  0  0  0  0  0  0  0  0  0  0  0
    5.3810    0.6710   20.1770 C   0  0  0  0  0  0  0  0  0  0  0  0
    6.6540   -3.0950   25.0980 C   0  0  0  0  0  0  0  0  0  0  0  0
   13.1750   -1.8120   25.2530 C   0  0  0  0  0  0  0  0  0  0  0  0
   10.6900   -0.8400   25.3770 C   0  0  0  0  0  0  0  0  0  0  0  0
   11.0670   -3.4400   25.4930 C   0  0  0  0  0  0  0  0  0  0  0  0
    6.8150   -0.5890   17.9480 C   0  0  0  0  0  0  0  0  0  0  0  0
    4.9430    0.7680   18.8700 C   0  0  0  0  0  0  0  0  0  0  0  0
    4.6850    1.2800   21.2230 C   0  0  0  0  0  0  0  0  0  0  0  0
    7.6720   -1.2920   16.8300 C   0  0  0  0  0  0  0  0  0  0  0  0
    5.6370    0.1580   17.8020 C   0  0  0  0  0  0  0  0  0  0  0  0
    8.2000   -0.0790   16.0870 C   0  0  0  0  0  0  0  0  0  0  0  0
    7.5600    1.1870   16.5100 C   0  0  0  0  0  0  0  0  0  0  0  0
    7.4120   -0.2620   14.9990 C   0  0  0  0  0  0  0  0  0  0  0  0
    9.2770    0.0800   14.9860 C   0  0  0  0  0  0  0  0  0  0  0  0
  1  2  2  3
  1  3  1  0
  3  4  1  0
  3  5  1  0
  4  6  2  0
  4  7  1  0
  5  8  1  6
  5  9  1  0
  6 10  1  0
  7 11  2  0
  8 12  2  0
  8 13  1  0
  9 14  2  0
  9 15  1  0
 10 16  2  0
 11 16  1  0
 13 17  1  0
 14 18  1  0
 15 19  2  0
 15 20  1  0
 16 21  1  0
 17 22  2  0
 17 23  1  0
 18 24  2  0
 19 24  1  0
 21 25  1  0
 21 26  1  0
 21 27  1  0
 22 28  1  0
 23 29  2  0
 23 30  1  0
 28 31  1  0
 28 32  2  0
 29 32  1  0
 33 31  1  0
 33 34  1  0
 33 35  1  0
 33 36  1  0
M  END
