DAR-DIA-842b4336-3
     RDKit          3D

 16 17  0  0  0  0  0  0  0  0999 V2000
   12.6260    0.4550   24.2260 C   0  0  0  0  0  0  0  0  0  0  0  0
   11.8360   -0.3310   23.3900 C   0  0  0  0  0  0  0  0  0  0  0  0
   12.5130   -1.1790   22.3590 C   0  0  0  0  0  0  0  0  0  0  0  0
   10.1600   -0.3540   23.4860 S   0  0  0  0  0  0  0  0  0  0  0  0
   11.4430   -1.8850   21.6030 C   0  0  0  0  0  0  0  0  0  0  0  0
   10.1360   -1.4350   22.1920 C   0  0  0  0  0  0  0  0  0  0  0  0
    8.8570   -1.8380   21.7280 N   0  0  0  0  0  0  0  0  0  0  0  0
    8.0520   -0.8080   21.2840 C   0  0  0  0  0  0  0  0  0  0  0  0
    8.4560    0.3490   21.1730 O   0  0  0  0  0  0  0  0  0  0  0  0
    6.7860   -1.2250   21.0030 N   0  0  0  0  0  0  0  0  0  0  0  0
    6.1800   -0.3540   20.1240 C   0  0  0  0  0  0  0  0  0  0  0  0
    5.0400    0.4230   20.3110 C   0  0  0  0  0  0  0  0  0  0  0  0
    6.7740   -0.2130   18.8560 C   0  0  0  0  0  0  0  0  0  0  0  0
    4.4830    1.3320   19.2760 C   0  0  0  0  0  0  0  0  0  0  0  0
    6.3350    0.6110   17.8110 N   0  0  0  0  0  0  0  0  0  0  0  0
    5.1920    1.4210   17.9340 C   0  0  0  0  0  0  0  0  0  0  0  0
  1  2  1  0
  2  3  2  0
  2  4  1  0
  3  5  1  0
  4  6  1  0
  5  6  2  0
  6  7  1  0
  7  8  1  0
  8  9  2  0
  8 10  1  0
 10 11  1  0
 11 12  2  0
 11 13  1  0
 12 14  1  0
 13 15  2  0
 14 16  2  0
 15 16  1  0
M  END
