DAR-DIA-43a5904b-2
     RDKit          3D

 22 24  0  0  0  0  0  0  0  0999 V2000
   10.1080    3.1080   22.2190 N   0  0  0  0  0  0  0  0  0  0  0  0
    9.3290    1.9820   22.2260 C   0  0  0  0  0  0  0  0  0  0  0  0
    8.8560    1.5880   21.1630 O   0  0  0  0  0  0  0  0  0  0  0  0
    9.0900    1.3450   23.5760 C   0  0  1  0  0  0  0  0  0  0  0  0
    7.5460    1.3350   23.6410 C   0  0  0  0  0  0  0  0  0  0  0  0
    9.4100   -0.2120   23.7030 C   0  0  1  0  0  0  0  0  0  0  0  0
    7.2030   -0.0570   23.1930 C   0  0  0  0  0  0  0  0  0  0  0  0
    8.2840   -0.9010   23.2220 C   0  0  0  0  0  0  0  0  0  0  0  0
   10.6080   -0.8080   23.3490 C   0  0  0  0  0  0  0  0  0  0  0  0
    5.7890   -0.3400   22.7820 C   0  0  0  0  0  0  0  0  0  0  0  0
   10.9780   -1.0450   22.0300 C   0  0  0  0  0  0  0  0  0  0  0  0
   11.4640   -1.2270   24.3370 C   0  0  0  0  0  0  0  0  0  0  0  0
    5.3550   -1.6580   22.7880 C   0  0  0  0  0  0  0  0  0  0  0  0
   12.1810   -1.6920   21.7150 C   0  0  0  0  0  0  0  0  0  0  0  0
   12.6270   -1.8760   24.0130 C   0  0  0  0  0  0  0  0  0  0  0  0
    5.7190   -2.5570   21.7840 C   0  0  0  0  0  0  0  0  0  0  0  0
    4.5200   -2.1430   23.8280 C   0  0  0  0  0  0  0  0  0  0  0  0
   12.9960   -2.1090   22.7210 C   0  0  0  0  0  0  0  0  0  0  0  0
   13.7160   -2.5020   25.3880 Br  0  0  0  0  0  0  0  0  0  0  0  0
    5.2810   -3.8710   21.8110 C   0  0  0  0  0  0  0  0  0  0  0  0
    4.0350   -3.5000   23.9070 N   0  0  0  0  0  0  0  0  0  0  0  0
    4.4110   -4.3380   22.9190 C   0  0  0  0  0  0  0  0  0  0  0  0
  1  2  1  0
  2  3  2  0
  4  2  1  6
  4  5  1  0
  4  6  1  0
  5  7  1  0
  6  8  1  0
  7  8  2  0
  6  9  1  6
  7 10  1  0
  9 11  2  0
  9 12  1  0
 10 13  1  0
 11 14  1  0
 12 15  2  0
 13 16  2  0
 13 17  1  0
 14 18  2  0
 15 18  1  0
 15 19  1  0
 16 20  1  0
 17 21  2  0
 20 22  2  0
 21 22  1  0
M  END
