DAR-DIA-03336633-13
     RDKit          3D

 29 32  0  0  0  0  0  0  0  0999 V2000
    8.9540    0.7530   21.4520 O   0  0  0  0  0  0  0  0  0  0  0  0
    8.4670   -0.3640   21.6490 C   0  0  0  0  0  0  0  0  0  0  0  0
    9.1790   -1.5680   22.1260 C   0  0  0  0  0  0  0  0  0  0  0  0
    7.1130   -0.6200   21.4150 N   0  0  0  0  0  0  0  0  0  0  0  0
   10.4760   -1.0300   22.5840 C   0  0  0  0  0  0  0  0  0  0  0  0
    6.5100   -0.0420   20.3350 C   0  0  0  0  0  0  0  0  0  0  0  0
   11.7720   -1.8050   22.5610 C   0  0  0  0  0  0  0  0  0  0  0  0
   10.4220    0.2750   23.0410 C   0  0  0  0  0  0  0  0  0  0  0  0
    6.9780   -0.3760   18.9440 C   0  0  0  0  0  0  0  0  0  0  0  0
    5.4070    0.9330   20.2020 C   0  0  0  0  0  0  0  0  0  0  0  0
   12.8730   -0.9770   23.0590 C   0  0  0  0  0  0  0  0  0  0  0  0
   11.5040    0.9860   23.4910 C   0  0  0  0  0  0  0  0  0  0  0  0
    6.2190    0.3440   18.1000 N   0  0  0  0  0  0  0  0  0  0  0  0
    5.3070    1.1070   18.7920 C   0  0  0  0  0  0  0  0  0  0  0  0
    4.4400    1.7370   20.9880 C   0  0  0  0  0  0  0  0  0  0  0  0
   12.7200    0.3180   23.4750 C   0  0  0  0  0  0  0  0  0  0  0  0
    4.4690    1.8910   18.1220 N   0  0  0  0  0  0  0  0  0  0  0  0
    3.5630    2.5530   20.2600 C   0  0  0  0  0  0  0  0  0  0  0  0
    4.2950    1.7910   22.4650 N   0  0  0  0  0  0  0  0  0  0  0  0
    3.5750    2.6310   18.8750 C   0  0  0  0  0  0  0  0  0  0  0  0
    3.0570    1.8400   23.1180 C   0  0  0  0  0  0  0  0  0  0  0  0
    2.7140    0.9540   23.8860 O   0  0  0  0  0  0  0  0  0  0  0  0
    2.2470    2.9450   22.8900 N   0  0  0  0  0  0  0  0  0  0  0  0
    0.9950    3.1740   23.6760 C   0  0  0  0  0  0  0  0  0  0  0  0
    0.9560    4.4380   24.2640 C   0  0  0  0  0  0  0  0  0  0  0  0
   -0.2960    2.9080   22.8640 C   0  0  0  0  0  0  0  0  0  0  0  0
   -0.4040    4.8610   24.7810 C   0  0  0  0  0  0  0  0  0  0  0  0
   -1.4670    3.0650   23.6260 C   0  0  0  0  0  0  0  0  0  0  0  0
   -1.5470    4.3520   24.1640 C   0  0  0  0  0  0  0  0  0  0  0  0
  1  2  2  0
  2  3  1  0
  2  4  1  0
  3  5  1  0
  4  6  1  0
  5  7  2  0
  5  8  1  0
  6  9  2  0
  6 10  1  0
  7 11  1  0
  8 12  2  0
  9 13  1  0
 10 14  2  0
 13 14  1  0
 10 15  1  0
 11 16  2  0
 12 16  1  0
 14 17  1  0
 15 18  2  0
 15 19  1  0
 17 20  2  0
 18 20  1  0
 19 21  1  0
 21 22  2  0
 21 23  1  0
 23 24  1  0
 24 25  1  0
 24 26  1  0
 25 27  1  0
 26 28  1  0
 27 29  1  0
 28 29  1  0
M  END
