DAR-DIA-2b784ede-5-nitrile
     RDKit          3D

 23 24  0  0  0  0  0  0  0  0999 V2000
    6.8160   -4.0620   20.1850 C   0  0  0  0  0  0  0  0  0  0  0  0
    6.2360   -3.3790   19.2470 N   0  0  0  0  0  0  0  0  0  0  0  0
    6.5710   -3.6960   21.6270 N   0  0  0  0  0  0  0  0  0  0  0  0
    5.6590   -4.5850   22.2650 C   0  0  0  0  0  0  0  0  0  0  0  0
    7.5970   -3.0970   22.6130 C   0  0  2  0  0  0  0  0  0  0  0  0
    6.9490   -4.7630   22.7660 C   0  0  0  0  0  0  0  0  0  0  0  0
    4.7790   -3.9670   21.5100 N   0  0  0  0  0  0  0  0  0  0  0  0
    6.7510   -2.5820   23.8360 C   0  0  0  0  0  0  0  0  0  0  0  0
    8.4690   -1.8380   22.2700 C   0  0  0  0  0  0  0  0  0  0  0  0
    7.4170   -3.6000   21.9870 C   0  0  0  0  0  0  0  0  0  0  0  0
    5.3680   -2.9720   20.8970 C   0  0  0  0  0  0  0  0  0  0  0  0
    5.5220   -2.6750   23.7860 O   0  0  0  0  0  0  0  0  0  0  0  0
    7.4320   -2.0500   24.9240 N   0  0  0  0  0  0  0  0  0  0  0  0
    9.6830   -1.0010   22.3150 C   0  0  0  0  0  0  0  0  0  0  0  0
    9.5690   -2.3900   23.0420 C   0  0  0  0  0  0  0  0  0  0  0  0
    6.7060   -2.6960   21.0790 C   0  0  0  0  0  0  0  0  0  0  0  0
    8.0860   -0.7910   24.9950 C   0  0  0  0  0  0  0  0  0  0  0  0
   10.5470   -0.0920   22.1730 N   0  0  0  0  0  0  0  0  0  0  0  0
   10.8890   -1.7660   23.2460 C   0  0  0  0  0  0  0  0  0  0  0  0
    9.3780   -3.6360   23.6620 C   0  0  0  0  0  0  0  0  0  0  0  0
    7.3080   -1.6050   20.3950 C   0  0  0  0  0  0  0  0  0  0  0  0
   11.5780   -0.5380   22.8510 C   0  0  0  0  0  0  0  0  0  0  0  0
    6.0900   -0.6580   19.4420 Cl  0  0  0  0  0  0  0  0  0  0  0  0
  1  2  2  3
  1  3  1  0
  3  4  1  0
  3  5  1  0
  4  6  2  0
  4  7  1  0
  5  8  1  1
  5  9  1  0
  6 10  1  0
  7 11  2  0
  8 12  2  0
  8 13  1  0
  9 14  2  0
  9 15  1  0
 10 16  2  0
 11 16  1  0
 13 17  1  0
 14 18  1  0
 15 19  2  0
 15 20  1  0
 16 21  1  0
 18 22  2  0
 19 22  1  0
 21 23  1  0
M  END
