DAR-DIA-2b784ede-17-vinylsulfonamide
     RDKit          3D

 38 41  0  0  0  0  0  0  0  0999 V2000
    6.6650   -4.5730   20.4710 C   0  0  0  0  0  0  0  0  0  0  0  0
    6.0830   -4.9970   21.8080 C   0  0  0  0  0  0  0  0  0  0  0  0
    5.5220   -3.5900   22.7280 S   0  0  0  0  0  0  0  0  0  0  0  0
    4.1450   -3.4000   22.3540 O   0  0  0  0  0  0  0  0  0  0  0  0
    5.8830   -3.8120   24.1120 O   0  0  0  0  0  0  0  0  0  0  0  0
    6.4840   -2.3830   22.0640 N   0  0  0  0  0  0  0  0  0  0  0  0
    6.3410   -2.0640   20.7690 C   0  0  0  0  0  0  0  0  0  0  0  0
    6.9670   -1.0710   22.6240 C   0  0  1  0  0  0  0  0  0  0  0  0
    7.3950   -2.3980   19.9630 C   0  0  0  0  0  0  0  0  0  0  0  0
    5.2800   -1.4110   20.2850 N   0  0  0  0  0  0  0  0  0  0  0  0
    8.4700   -0.7350   22.2290 C   0  0  0  0  0  0  0  0  0  0  0  0
    6.0830    0.1330   22.2010 C   0  0  0  0  0  0  0  0  0  0  0  0
    7.4200   -2.0480   18.6700 C   0  0  0  0  0  0  0  0  0  0  0  0
    5.3390   -1.0360   18.8900 C   0  0  0  0  0  0  0  0  0  0  0  0
    8.8150    0.4340   22.0520 O   0  0  0  0  0  0  0  0  0  0  0  0
    9.4210   -1.7270   22.0880 N   0  0  0  0  0  0  0  0  0  0  0  0
    5.0180    0.5880   22.9740 C   0  0  0  0  0  0  0  0  0  0  0  0
    6.2990    0.8560   21.0020 C   0  0  0  0  0  0  0  0  0  0  0  0
    6.4190   -1.3460   18.1290 C   0  0  0  0  0  0  0  0  0  0  0  0
   10.5680   -1.5080   22.9480 C   0  0  0  0  0  0  0  0  0  0  0  0
    4.2220    1.6420   22.6430 N   0  0  0  0  0  0  0  0  0  0  0  0
    5.4860    1.9320   20.6460 C   0  0  0  0  0  0  0  0  0  0  0  0
    7.3840    0.5480   20.0500 C   0  0  0  0  0  0  0  0  0  0  0  0
    6.6320   -0.9240   16.7700 C   0  0  0  0  0  0  0  0  0  0  0  0
   11.9740   -1.6590   22.6650 C   0  0  0  0  0  0  0  0  0  0  0  0
   10.1990   -1.0820   24.2250 C   0  0  0  0  0  0  0  0  0  0  0  0
    4.4700    2.2830   21.4920 C   0  0  0  0  0  0  0  0  0  0  0  0
    6.6860    0.8660   16.8680 Cl  0  0  0  0  0  0  0  0  0  0  0  0
    6.9840   -1.6260   15.4770 C   0  0  0  0  0  0  0  0  0  0  0  0
    8.1190   -1.0860   16.8790 C   0  0  0  0  0  0  0  0  0  0  0  0
   12.6050   -2.1160   21.3700 C   0  0  0  0  0  0  0  0  0  0  0  0
   12.8950   -1.3600   23.6730 C   0  0  0  0  0  0  0  0  0  0  0  0
   11.1380   -0.7970   25.1700 C   0  0  0  0  0  0  0  0  0  0  0  0
    8.7900   -0.9080   24.6820 C   0  0  0  0  0  0  0  0  0  0  0  0
    7.5670   -0.3430   14.9420 C   0  0  0  0  0  0  0  0  0  0  0  0
    8.6220   -0.2620   15.8680 C   0  0  0  0  0  0  0  0  0  0  0  0
   12.4850   -0.9290   24.9130 C   0  0  0  0  0  0  0  0  0  0  0  0
    8.0350   -2.2040   24.4510 C   0  0  0  0  0  0  0  0  0  0  0  0
  1  2  1  0
  2  3  1  0
  3  4  2  0
  3  5  2  0
  3  6  1  0
  6  7  1  0
  6  8  1  0
  7  9  2  0
  7 10  1  0
  8 11  1  6
  8 12  1  0
  9 13  1  0
 10 14  2  0
 11 15  2  0
 11 16  1  0
 12 17  2  0
 12 18  1  0
 13 19  2  0
 14 19  1  0
 16 20  1  0
 17 21  1  0
 18 22  2  0
 18 23  1  0
 19 24  1  0
 20 25  2  0
 20 26  1  0
 21 27  2  0
 22 27  1  0
 24 28  1  0
 24 29  1  0
 24 30  1  0
 25 31  1  0
 25 32  1  0
 26 33  2  0
 26 34  1  0
 29 35  1  0
 30 36  1  0
 35 36  1  0
 32 37  2  0
 33 37  1  0
 34 38  1  0
M  END
