DAR-DIA-23aa0b97-7-vinylsulfonamide
     RDKit          3D

 22 23  0  0  0  0  0  0  0  0999 V2000
    6.7160   -3.5190   19.7920 C   0  0  0  0  0  0  0  0  0  0  0  0
    6.9130   -2.4170   20.8510 C   0  0  0  0  0  0  0  0  0  0  0  0
    5.3020   -1.8400   21.3010 S   0  0  0  0  0  0  0  0  0  0  0  0
    4.6040   -3.0780   21.6910 O   0  0  0  0  0  0  0  0  0  0  0  0
    4.8370   -1.0460   20.1870 O   0  0  0  0  0  0  0  0  0  0  0  0
    5.3830   -0.7110   22.7090 C   0  0  0  0  0  0  0  0  0  0  0  0
    4.2970   -0.7230   23.8200 C   0  0  0  0  0  0  0  0  0  0  0  0
    6.4570    0.1810   22.8090 C   0  0  0  0  0  0  0  0  0  0  0  0
    4.4560    0.1650   24.8440 N   0  0  0  0  0  0  0  0  0  0  0  0
    6.4810    0.9910   23.9210 C   0  0  0  0  0  0  0  0  0  0  0  0
    5.5320    0.9940   24.8840 C   0  0  0  0  0  0  0  0  0  0  0  0
    7.5380    1.8100   24.0650 N   0  0  0  0  0  0  0  0  0  0  0  0
    8.3410    1.0300   24.8680 C   0  0  0  0  0  0  0  0  0  0  0  0
    7.8210    0.2100   25.6140 O   0  0  0  0  0  0  0  0  0  0  0  0
    9.7260    1.0590   24.9550 C   0  0  0  0  0  0  0  0  0  0  0  0
   10.6680    0.3120   24.0550 C   0  0  0  0  0  0  0  0  0  0  0  0
   10.4520   -1.1400   23.6820 C   0  0  0  0  0  0  0  0  0  0  0  0
   11.7590    1.0460   23.5900 C   0  0  0  0  0  0  0  0  0  0  0  0
   11.5230   -1.6190   22.7980 N   0  0  0  0  0  0  0  0  0  0  0  0
   12.7150    0.4810   22.7520 C   0  0  0  0  0  0  0  0  0  0  0  0
   12.5970   -0.8580   22.3550 C   0  0  0  0  0  0  0  0  0  0  0  0
   13.7400    1.2410   22.3320 N   0  0  0  0  0  0  0  0  0  0  0  0
  1  2  1  0
  3  2  1  0
  3  4  2  0
  3  5  2  0
  3  6  1  0
  6  7  2  0
  6  8  1  0
  7  9  1  0
  8 10  2  0
  9 11  2  0
 10 11  1  0
 10 12  1  0
 12 13  1  0
 13 14  2  0
 13 15  1  0
 15 16  1  0
 16 17  2  0
 16 18  1  0
 17 19  1  0
 18 20  2  0
 19 21  2  0
 20 21  1  0
 20 22  1  0
M  END
