DAR-DIA-43a5904b-11
     RDKit          3D

 22 24  0  0  0  0  0  0  0  0999 V2000
    5.1130    0.9000   17.9720 C   0  0  0  0  0  0  0  0  0  0  0  0
    5.0130    0.4530   19.3360 N   0  0  0  0  0  0  0  0  0  0  0  0
    5.9090   -0.4470   20.0420 C   0  0  0  0  0  0  0  0  0  0  0  0
    3.9890    0.8680   20.1350 N   0  0  0  0  0  0  0  0  0  0  0  0
    5.3030   -0.5450   21.4180 C   0  0  0  0  0  0  0  0  0  0  0  0
    4.1650    0.2800   21.3520 C   0  0  0  0  0  0  0  0  0  0  0  0
    5.9550   -1.4100   22.4920 C   0  0  0  0  0  0  0  0  0  0  0  0
    7.1440   -0.6660   23.0280 C   0  0  0  0  0  0  0  0  0  0  0  0
    8.4150   -1.0900   23.2400 C   0  0  0  0  0  0  0  0  0  0  0  0
    7.1150    0.7830   23.4450 C   0  0  0  0  0  0  0  0  0  0  0  0
    9.3530   -0.2290   23.7570 C   0  0  2  0  0  0  0  0  0  0  0  0
    8.6270    1.1240   23.4200 C   0  0  1  0  0  0  0  0  0  0  0  0
   10.6670   -0.2320   23.3450 C   0  0  0  0  0  0  0  0  0  0  0  0
    9.0280    1.8720   22.2670 C   0  0  0  0  0  0  0  0  0  0  0  0
   11.5470   -1.3930   22.9880 C   0  0  0  0  0  0  0  0  0  0  0  0
   11.2090    1.0150   23.2590 C   0  0  0  0  0  0  0  0  0  0  0  0
    9.7430    3.0380   22.4130 N   0  0  0  0  0  0  0  0  0  0  0  0
    8.7480    1.5200   21.1220 O   0  0  0  0  0  0  0  0  0  0  0  0
   12.9880   -1.1350   22.5620 C   0  0  0  0  0  0  0  0  0  0  0  0
   12.4640    1.2290   22.8710 C   0  0  0  0  0  0  0  0  0  0  0  0
   13.3070    0.1770   22.5490 C   0  0  0  0  0  0  0  0  0  0  0  0
   12.8640    2.9020   22.8070 Cl  0  0  0  0  0  0  0  0  0  0  0  0
  1  2  1  0
  2  3  1  0
  2  4  1  0
  3  5  2  0
  4  6  2  0
  5  6  1  0
  5  7  1  0
  7  8  1  0
  8  9  2  0
  8 10  1  0
  9 11  1  0
 10 12  1  0
 11 12  1  0
 11 13  1  6
 12 14  1  6
 13 15  2  0
 13 16  1  0
 14 17  1  0
 14 18  2  0
 15 19  1  0
 16 20  2  0
 19 21  2  0
 20 21  1  0
 20 22  1  0
M  END
