DAR-DIA-2b784ede-35-acrylamide
     RDKit          3D

 34 36  0  0  0  0  0  0  0  0999 V2000
    7.7190   -3.4910   19.8930 C   0  0  0  0  0  0  0  0  0  0  0  0
    7.5400   -4.2680   21.2230 C   0  0  0  0  0  0  0  0  0  0  0  0
    6.1090   -4.1060   21.6240 C   0  0  0  0  0  0  0  0  0  0  0  0
    4.9430   -3.5720   21.7230 O   0  0  0  0  0  0  0  0  0  0  0  0
    6.6480   -2.9210   21.0250 N   0  0  0  0  0  0  0  0  0  0  0  0
    6.0540   -2.6970   19.8870 C   0  0  0  0  0  0  0  0  0  0  0  0
    6.8510   -1.5500   21.6150 C   0  0  1  0  0  0  0  0  0  0  0  0
    4.8650   -3.1420   19.9170 C   0  0  0  0  0  0  0  0  0  0  0  0
    6.3550   -2.1270   18.7510 N   0  0  0  0  0  0  0  0  0  0  0  0
    8.3540   -1.1020   21.7740 C   0  0  0  0  0  0  0  0  0  0  0  0
    6.1140   -0.5660   20.6660 C   0  0  0  0  0  0  0  0  0  0  0  0
    4.1980   -2.9090   18.7870 C   0  0  0  0  0  0  0  0  0  0  0  0
    5.2000   -2.2710   18.0650 O   0  0  0  0  0  0  0  0  0  0  0  0
    8.6380    0.0850   21.5660 O   0  0  0  0  0  0  0  0  0  0  0  0
    9.3230   -2.0210   22.1400 N   0  0  0  0  0  0  0  0  0  0  0  0
    6.7040   -0.2530   19.3080 C   0  0  0  0  0  0  0  0  0  0  0  0
    4.8970    0.1060   20.9130 C   0  0  0  0  0  0  0  0  0  0  0  0
    1.8380   -3.0940   17.4340 C   0  0  0  0  0  0  0  0  0  0  0  0
   10.3590   -1.6790   23.0420 C   0  0  0  0  0  0  0  0  0  0  0  0
    6.1960    0.5560   18.3630 N   0  0  0  0  0  0  0  0  0  0  0  0
    4.3760    0.9490   19.9220 C   0  0  0  0  0  0  0  0  0  0  0  0
    4.1000   -0.0150   22.1740 C   0  0  0  0  0  0  0  0  0  0  0  0
    2.1590   -2.4590   15.4090 C   0  0  0  0  0  0  0  0  0  0  0  0
   -0.8250   -2.9330   18.0570 C   0  0  0  0  0  0  0  0  0  0  0  0
    1.6750   -4.1040   17.2790 C   0  0  0  0  0  0  0  0  0  0  0  0
   11.8700   -1.8780   22.6530 C   0  0  0  0  0  0  0  0  0  0  0  0
   10.0420   -1.1380   24.3120 C   0  0  0  0  0  0  0  0  0  0  0  0
    5.0280    1.1440   18.6990 C   0  0  0  0  0  0  0  0  0  0  0  0
   12.4510   -2.4300   21.3230 C   0  0  0  0  0  0  0  0  0  0  0  0
   12.8470   -1.5200   23.5900 C   0  0  0  0  0  0  0  0  0  0  0  0
   11.0690   -0.8110   25.1670 C   0  0  0  0  0  0  0  0  0  0  0  0
    8.7370   -0.9200   24.7340 C   0  0  0  0  0  0  0  0  0  0  0  0
   12.4130   -0.9590   24.9130 C   0  0  0  0  0  0  0  0  0  0  0  0
    8.7290    0.0770   25.8740 C   0  0  0  0  0  0  0  0  0  0  0  0
  1  2  1  0
  2  3  1  0
  3  4  2  0
  3  5  1  0
  5  6  1  0
  5  7  1  0
  6  8  1  0
  6  9  2  0
  7 10  1  6
  7 11  1  0
  8 12  2  0
  9 13  1  0
 12 13  1  0
 10 14  2  0
 10 15  1  0
 11 16  2  0
 11 17  1  0
 12 18  1  0
 15 19  1  0
 16 20  1  0
 17 21  2  0
 17 22  1  0
 18 23  1  0
 18 24  1  0
 18 25  1  0
 19 26  2  0
 19 27  1  0
 20 28  2  0
 21 28  1  0
 26 29  1  0
 26 30  1  0
 27 31  2  0
 27 32  1  0
 30 33  2  0
 31 33  1  0
 32 34  1  0
M  END
