DAR-DIA-eace69ff-12
     RDKit          3D

 29 32  0  0  0  0  0  0  0  0999 V2000
   13.3380   -2.1240   20.8330 C   0  0  0  0  0  0  0  0  0  0  0  0
   13.2160   -2.0310   22.2840 C   0  0  0  0  0  0  0  0  0  0  0  0
   12.4230   -0.8480   22.6980 C   0  0  0  0  0  0  0  0  0  0  0  0
   11.1010   -1.4850   23.1110 C   0  0  0  0  0  0  0  0  0  0  0  0
   12.7690    0.4860   22.7090 C   0  0  0  0  0  0  0  0  0  0  0  0
    9.9960   -0.5540   23.6290 C   0  0  0  0  0  0  0  0  0  0  0  0
   11.6750    1.4170   23.1920 C   0  0  0  0  0  0  0  0  0  0  0  0
    8.7840   -1.0810   24.0310 N   0  0  0  0  0  0  0  0  0  0  0  0
   10.3250    0.9490   23.6580 C   0  0  0  0  0  0  0  0  0  0  0  0
   11.7350    2.9390   23.2800 C   0  0  0  0  0  0  0  0  0  0  0  0
    8.6020   -2.1610   25.0160 C   0  0  0  0  0  0  0  0  0  0  0  0
    7.8220   -1.0410   22.9160 C   0  0  0  0  0  0  0  0  0  0  0  0
   12.7470    4.0640   22.9530 C   0  0  0  0  0  0  0  0  0  0  0  0
   10.4410    3.1800   23.8100 C   0  0  0  0  0  0  0  0  0  0  0  0
    9.5980    2.0190   24.0410 N   0  0  0  0  0  0  0  0  0  0  0  0
    8.9820   -3.3660   24.3960 C   0  0  0  0  0  0  0  0  0  0  0  0
    7.5640   -2.3060   22.3850 C   0  0  0  0  0  0  0  0  0  0  0  0
   12.1670    5.4100   23.2230 N   0  0  0  0  0  0  0  0  0  0  0  0
    8.3060    2.0420   24.5400 C   0  0  0  0  0  0  0  0  0  0  0  0
    7.8930   -4.0820   23.8850 C   0  0  0  0  0  0  0  0  0  0  0  0
    6.9930   -3.2370   23.2560 C   0  0  0  0  0  0  0  0  0  0  0  0
   10.9010    5.5960   22.5590 C   0  0  0  0  0  0  0  0  0  0  0  0
   12.0920    5.7680   24.6300 C   0  0  0  0  0  0  0  0  0  0  0  0
    8.1660    1.5290   25.8260 C   0  0  0  0  0  0  0  0  0  0  0  0
    8.9690    0.4980   26.2730 C   0  0  0  0  0  0  0  0  0  0  0  0
    7.1980    2.0800   26.6450 C   0  0  0  0  0  0  0  0  0  0  0  0
    8.8660   -0.1070   27.6490 C   0  0  0  0  0  0  0  0  0  0  0  0
    6.9310    1.6220   28.0580 C   0  0  0  0  0  0  0  0  0  0  0  0
    7.8030    0.4810   28.5790 C   0  0  0  0  0  0  0  0  0  0  0  0
  1  2  1  0
  2  3  1  0
  3  4  2  0
  3  5  1  0
  4  6  1  0
  5  7  2  0
  6  8  1  0
  6  9  2  0
  7  9  1  0
  7 10  1  0
  8 11  1  0
  8 12  1  0
 10 13  1  0
 10 14  2  0
  9 15  1  0
 14 15  1  0
 11 16  1  0
 12 17  1  0
 13 18  1  0
 15 19  1  0
 16 20  1  0
 17 21  1  0
 20 21  1  0
 18 22  1  0
 18 23  1  0
 19 24  1  0
 24 25  2  0
 24 26  1  0
 25 27  1  0
 26 28  2  0
 27 29  2  0
 28 29  1  0
M  END
