DAR-DIA-fb20be43-8-vinylsulfonamide
     RDKit          3D

 23 25  0  0  0  0  0  0  0  0999 V2000
    7.9760   -3.4810   19.6380 C   0  0  0  0  0  0  0  0  0  0  0  0
    7.1700   -2.6470   19.0610 C   0  0  0  0  0  0  0  0  0  0  0  0
    5.7160   -2.6590   19.9970 S   0  0  0  0  0  0  0  0  0  0  0  0
    5.2650   -4.0140   20.2600 O   0  0  0  0  0  0  0  0  0  0  0  0
    4.8830   -1.7360   19.3130 O   0  0  0  0  0  0  0  0  0  0  0  0
    6.2870   -1.9770   21.3850 N   0  0  0  0  0  0  0  0  0  0  0  0
    6.1230   -2.6140   22.6910 C   0  0  0  0  0  0  0  0  0  0  0  0
    7.4710   -1.1290   21.1820 C   0  0  0  0  0  0  0  0  0  0  0  0
    7.3920   -3.3560   23.1270 C   0  0  0  0  0  0  0  0  0  0  0  0
    8.5680   -1.3870   22.0410 C   0  0  0  0  0  0  0  0  0  0  0  0
    8.6470   -2.6870   22.7680 N   0  0  0  0  0  0  0  0  0  0  0  0
    9.5070   -2.5060   23.9380 C   0  0  0  0  0  0  0  0  0  0  0  0
   10.4980   -1.4790   23.5330 C   0  0  0  0  0  0  0  0  0  0  0  0
   11.4910   -1.9220   22.7140 C   0  0  0  0  0  0  0  0  0  0  0  0
   10.4280   -0.1190   23.9030 C   0  0  0  0  0  0  0  0  0  0  0  0
   12.4130   -1.0610   22.2620 C   0  0  0  0  0  0  0  0  0  0  0  0
   11.4210    0.7850   23.4220 C   0  0  0  0  0  0  0  0  0  0  0  0
    9.3100    0.4340   24.7830 C   0  0  0  0  0  0  0  0  0  0  0  0
   13.4990   -1.7470   21.2160 Cl  0  0  0  0  0  0  0  0  0  0  0  0
   12.4290    0.3030   22.6150 C   0  0  0  0  0  0  0  0  0  0  0  0
   11.4080    2.1490   23.7060 C   0  0  0  0  0  0  0  0  0  0  0  0
    9.3110    1.9280   25.0620 C   0  0  0  0  0  0  0  0  0  0  0  0
   10.2970    2.7420   24.5480 C   0  0  0  0  0  0  0  0  0  0  0  0
  1  2  1  0
  3  2  1  0
  3  4  2  0
  3  5  2  0
  3  6  1  0
  6  7  1  0
  6  8  1  0
  7  9  1  0
  8 10  1  0
  9 11  1  0
 10 11  1  0
 11 12  1  0
 12 13  1  0
 13 14  2  0
 13 15  1  0
 14 16  1  0
 15 17  2  0
 15 18  1  0
 16 19  1  0
 16 20  2  0
 17 20  1  0
 17 21  1  0
 18 22  2  0
 21 23  2  0
 22 23  1  0
M  END
