DAR-DIA-caba39e3-9-nitrile
     RDKit          3D

 24 27  0  0  0  0  0  0  0  0999 V2000
    6.8440   -3.6390   19.9170 C   0  0  0  0  0  0  0  0  0  0  0  0
    6.3210   -3.1020   18.8880 N   0  0  0  0  0  0  0  0  0  0  0  0
    6.8720   -2.8430   21.0390 N   0  0  0  0  0  0  0  0  0  0  0  0
    6.1710   -3.0210   22.2120 C   0  0  0  0  0  0  0  0  0  0  0  0
    7.9710   -2.0260   21.2460 C   0  0  0  0  0  0  0  0  0  0  0  0
    7.0110   -3.7800   23.2170 C   0  0  0  0  0  0  0  0  0  0  0  0
    9.0260   -2.6390   22.2110 C   0  0  2  0  0  0  0  0  0  0  0  0
    6.4210   -4.6980   24.2030 C   0  0  0  0  0  0  0  0  0  0  0  0
    8.3620   -3.6010   23.1940 C   0  0  0  0  0  0  0  0  0  0  0  0
    9.8120   -1.6430   22.6920 C   0  0  0  0  0  0  0  0  0  0  0  0
    7.2640   -5.4660   25.1810 C   0  0  0  0  0  0  0  0  0  0  0  0
    9.3750   -4.2900   24.1030 C   0  0  0  0  0  0  0  0  0  0  0  0
   11.1780   -1.4450   22.2720 C   0  0  0  0  0  0  0  0  0  0  0  0
    9.2300   -0.7700   23.6550 C   0  0  0  0  0  0  0  0  0  0  0  0
    8.7840   -5.3040   25.1550 C   0  0  0  0  0  0  0  0  0  0  0  0
   11.8870   -0.3980   22.8200 C   0  0  0  0  0  0  0  0  0  0  0  0
    9.9660    0.2850   24.1860 C   0  0  0  0  0  0  0  0  0  0  0  0
    7.8930   -0.9500   24.0920 C   0  0  0  0  0  0  0  0  0  0  0  0
   13.1260   -0.2170   22.4280 O   0  0  0  0  0  0  0  0  0  0  0  0
   11.2720    0.5140   23.8150 C   0  0  0  0  0  0  0  0  0  0  0  0
    9.2550    1.1440   25.1700 C   0  0  0  0  0  0  0  0  0  0  0  0
    7.2030   -0.1680   25.0230 C   0  0  0  0  0  0  0  0  0  0  0  0
   13.3430    1.1010   22.8110 C   0  0  0  0  0  0  0  0  0  0  0  0
    7.8390    0.8950   25.5910 C   0  0  0  0  0  0  0  0  0  0  0  0
  1  2  2  3
  1  3  1  0
  3  4  1  0
  3  5  1  0
  4  6  1  0
  5  7  1  0
  6  8  1  0
  6  9  2  0
  7  9  1  0
  7 10  1  1
  8 11  2  0
  9 12  1  0
 10 13  2  0
 10 14  1  0
 11 15  1  0
 12 15  2  0
 13 16  1  0
 14 17  2  0
 14 18  1  0
 16 19  1  0
 16 20  2  0
 17 20  1  0
 17 21  1  0
 18 22  2  0
 19 23  1  0
 21 24  2  0
 22 24  1  0
M  END
