DAR-DIA-2b784ede-3-nitrile
     RDKit          3D

 24 25  0  0  0  0  0  0  0  0999 V2000
    7.8240   -3.0680   19.2210 C   0  0  0  0  0  0  0  0  0  0  0  0
    7.0390   -2.6440   18.2850 N   0  0  0  0  0  0  0  0  0  0  0  0
    8.3440   -2.0650   20.2700 N   0  0  0  0  0  0  0  0  0  0  0  0
    9.3140   -2.0440   21.4850 C   0  0  0  0  0  0  0  0  0  0  0  0
    7.0130   -1.6220   20.6020 C   0  0  2  0  0  0  0  0  0  0  0  0
   10.7740   -2.2090   21.5830 C   0  0  0  0  0  0  0  0  0  0  0  0
    8.7010   -1.8330   22.7290 C   0  0  0  0  0  0  0  0  0  0  0  0
    6.2570   -2.5230   21.6150 C   0  0  0  0  0  0  0  0  0  0  0  0
    6.3550   -0.4710   19.8660 C   0  0  0  0  0  0  0  0  0  0  0  0
   11.4010   -2.2280   22.7980 C   0  0  0  0  0  0  0  0  0  0  0  0
    9.3500   -1.8480   23.9200 C   0  0  0  0  0  0  0  0  0  0  0  0
    5.0380   -2.6160   21.5860 O   0  0  0  0  0  0  0  0  0  0  0  0
    7.0100   -3.2900   22.5040 N   0  0  0  0  0  0  0  0  0  0  0  0
    6.7350   -0.2470   18.5570 C   0  0  0  0  0  0  0  0  0  0  0  0
    5.3650    0.3740   20.3920 C   0  0  0  0  0  0  0  0  0  0  0  0
   10.6690   -2.0720   23.9380 C   0  0  0  0  0  0  0  0  0  0  0  0
    6.3930   -4.3900   23.2020 C   0  0  0  0  0  0  0  0  0  0  0  0
    6.2290    0.6980   17.7490 N   0  0  0  0  0  0  0  0  0  0  0  0
    4.8190    1.3600   19.5640 C   0  0  0  0  0  0  0  0  0  0  0  0
    4.8930    0.2230   21.8050 C   0  0  0  0  0  0  0  0  0  0  0  0
   11.2250   -2.1460   25.1230 C   0  0  0  0  0  0  0  0  0  0  0  0
    5.2730    1.4850   18.2640 C   0  0  0  0  0  0  0  0  0  0  0  0
   12.7290   -2.2950   25.1720 C   0  0  0  0  0  0  0  0  0  0  0  0
   13.8660   -2.4740   25.2230 N   0  0  0  0  0  0  0  0  0  0  0  0
  1  2  2  3
  1  3  1  0
  3  4  1  0
  3  5  1  0
  4  6  2  0
  4  7  1  0
  5  8  1  6
  5  9  1  0
  6 10  1  0
  7 11  2  0
  8 12  2  0
  8 13  1  0
  9 14  2  0
  9 15  1  0
 10 16  2  0
 11 16  1  0
 13 17  1  0
 14 18  1  0
 15 19  2  0
 15 20  1  0
 16 21  1  0
 18 22  2  0
 19 22  1  0
 21 23  1  0
 23 24  3  0
M  END
