DAR-DIA-fb20be43-13-acrylamide
     RDKit          3D

 28 30  0  0  0  0  0  0  0  0999 V2000
    7.4330   -2.8570   18.2980 C   0  0  0  0  0  0  0  0  0  0  0  0
    6.8430   -2.1630   19.2140 C   0  0  0  0  0  0  0  0  0  0  0  0
    5.8800   -2.9100   20.1010 C   0  0  0  0  0  0  0  0  0  0  0  0
    5.0700   -3.8330   19.7780 O   0  0  0  0  0  0  0  0  0  0  0  0
    6.0020   -2.4510   21.3710 N   0  0  0  0  0  0  0  0  0  0  0  0
    6.2250   -3.4710   22.3720 C   0  0  0  0  0  0  0  0  0  0  0  0
    6.7350   -1.1970   21.6140 C   0  0  0  0  0  0  0  0  0  0  0  0
    7.4540   -3.1850   23.2350 C   0  0  0  0  0  0  0  0  0  0  0  0
    8.2490   -1.4090   21.7680 C   0  0  0  0  0  0  0  0  0  0  0  0
    8.6280   -2.5670   22.5840 N   0  0  0  0  0  0  0  0  0  0  0  0
    9.5500   -2.1770   23.6220 C   0  0  0  0  0  0  0  0  0  0  0  0
   10.5070   -1.2260   23.2780 C   0  0  0  0  0  0  0  0  0  0  0  0
   11.6740   -1.6320   22.6930 C   0  0  0  0  0  0  0  0  0  0  0  0
   10.3170    0.1170   23.5170 C   0  0  0  0  0  0  0  0  0  0  0  0
   12.7040   -0.7390   22.3540 C   0  0  0  0  0  0  0  0  0  0  0  0
   11.3260    1.0340   23.1970 C   0  0  0  0  0  0  0  0  0  0  0  0
    9.0840    0.7780   24.1220 C   0  0  0  0  0  0  0  0  0  0  0  0
   13.7110   -1.3970   21.7900 O   0  0  0  0  0  0  0  0  0  0  0  0
   12.5190    0.5960   22.6320 C   0  0  0  0  0  0  0  0  0  0  0  0
    9.4390    2.0480   24.1500 C   0  0  0  0  0  0  0  0  0  0  0  0
   10.7840    2.3510   23.5960 C   0  0  0  0  0  0  0  0  0  0  0  0
   13.2190   -2.6010   21.2070 C   0  0  0  0  0  0  0  0  0  0  0  0
   11.3200    3.7730   23.5090 C   0  0  0  0  0  0  0  0  0  0  0  0
   10.8150    4.8080   24.4900 C   0  0  0  0  0  0  0  0  0  0  0  0
    9.4340    4.5860   24.9590 N   0  0  0  0  0  0  0  0  0  0  0  0
    9.1120    4.6840   26.2910 C   0  0  0  0  0  0  0  0  0  0  0  0
    8.3200    3.5120   26.8160 C   0  0  0  0  0  0  0  0  0  0  0  0
    9.4320    5.6260   27.0030 O   0  0  0  0  0  0  0  0  0  0  0  0
  1  2  1  0
  2  3  1  0
  3  4  2  0
  3  5  1  0
  5  6  1  0
  5  7  1  0
  6  8  1  0
  7  9  1  0
  8 10  1  0
  9 10  1  0
 10 11  1  0
 11 12  1  0
 12 13  2  0
 12 14  1  0
 13 15  1  0
 14 16  2  0
 14 17  1  0
 15 18  1  0
 15 19  2  0
 16 19  1  0
 17 20  1  0
 16 21  1  0
 20 21  2  0
 18 22  1  0
 21 23  1  0
 23 24  1  0
 24 25  1  0
 25 26  1  0
 26 27  1  0
 26 28  2  0
M  END
