DAR-DIA-fb20be43-14-acrylamide
     RDKit          3D

 28 30  0  0  0  0  0  0  0  0999 V2000
    7.3960   -2.8850   18.3000 C   0  0  0  0  0  0  0  0  0  0  0  0
    6.8810   -2.0810   19.1810 C   0  0  0  0  0  0  0  0  0  0  0  0
    5.9980   -2.7550   20.2050 C   0  0  0  0  0  0  0  0  0  0  0  0
    5.0610   -3.5650   19.9740 O   0  0  0  0  0  0  0  0  0  0  0  0
    6.3410   -2.3570   21.4600 N   0  0  0  0  0  0  0  0  0  0  0  0
    6.5730   -3.4290   22.4260 C   0  0  0  0  0  0  0  0  0  0  0  0
    7.1320   -1.1430   21.6810 C   0  0  0  0  0  0  0  0  0  0  0  0
    7.6250   -3.0920   23.4990 C   0  0  0  0  0  0  0  0  0  0  0  0
    8.6110   -1.4680   21.9200 C   0  0  0  0  0  0  0  0  0  0  0  0
    8.8400   -2.3760   23.0480 N   0  0  0  0  0  0  0  0  0  0  0  0
    9.5910   -1.7440   24.1380 C   0  0  0  0  0  0  0  0  0  0  0  0
   10.6050   -0.9150   23.6700 C   0  0  0  0  0  0  0  0  0  0  0  0
   11.6690   -1.5640   23.0870 C   0  0  0  0  0  0  0  0  0  0  0  0
   10.6660    0.5020   23.7050 C   0  0  0  0  0  0  0  0  0  0  0  0
   12.7850   -0.8860   22.5520 C   0  0  0  0  0  0  0  0  0  0  0  0
   11.7460    1.1580   23.1820 C   0  0  0  0  0  0  0  0  0  0  0  0
    9.8330    1.5080   24.1760 N   0  0  0  0  0  0  0  0  0  0  0  0
   13.6860   -1.7080   22.0150 O   0  0  0  0  0  0  0  0  0  0  0  0
   12.8000    0.4750   22.6300 C   0  0  0  0  0  0  0  0  0  0  0  0
   11.5740    2.6420   23.2990 C   0  0  0  0  0  0  0  0  0  0  0  0
   10.3560    2.7780   23.9380 C   0  0  0  0  0  0  0  0  0  0  0  0
   13.0480   -2.6380   21.1520 C   0  0  0  0  0  0  0  0  0  0  0  0
   12.5760    3.6810   22.7790 C   0  0  0  0  0  0  0  0  0  0  0  0
   12.3860    4.9280   23.2560 C   0  0  0  0  0  0  0  0  0  0  0  0
   11.2070    5.5680   22.6360 N   0  0  0  0  0  0  0  0  0  0  0  0
   10.2200    6.1380   23.4010 C   0  0  0  0  0  0  0  0  0  0  0  0
    9.0350    6.6190   22.5600 C   0  0  0  0  0  0  0  0  0  0  0  0
   10.2590    6.2620   24.6210 O   0  0  0  0  0  0  0  0  0  0  0  0
  1  2  1  0
  2  3  1  0
  3  4  2  0
  3  5  1  0
  5  6  1  0
  5  7  1  0
  6  8  1  0
  7  9  1  0
  8 10  1  0
  9 10  1  0
 10 11  1  0
 11 12  1  0
 12 13  2  0
 12 14  1  0
 13 15  1  0
 14 16  2  0
 14 17  1  0
 15 18  1  0
 15 19  2  0
 16 19  1  0
 16 20  1  0
 17 21  1  0
 20 21  2  0
 18 22  1  0
 20 23  1  0
 23 24  1  0
 24 25  1  0
 25 26  1  0
 26 27  1  0
 26 28  2  0
M  END
