DAR-DIA-caba39e3-4-chloroacetamide
     RDKit          3D

 30 33  0  0  0  0  0  0  0  0999 V2000
    7.4590   -3.7250   19.6570 C   0  0  0  0  0  0  0  0  0  0  0  0
    6.2200   -3.2760   20.1870 C   0  0  0  0  0  0  0  0  0  0  0  0
    5.2260   -3.6300   19.5390 O   0  0  0  0  0  0  0  0  0  0  0  0
    6.4060   -2.5910   21.3670 N   0  0  0  0  0  0  0  0  0  0  0  0
    5.9870   -3.1110   22.5970 C   0  0  0  0  0  0  0  0  0  0  0  0
    7.6150   -1.7730   21.5230 C   0  0  0  0  0  0  0  0  0  0  0  0
    7.0840   -3.6530   23.4990 C   0  0  0  0  0  0  0  0  0  0  0  0
    8.8040   -2.4630   22.2660 C   0  0  2  0  0  0  0  0  0  0  0  0
    6.6790   -4.5840   24.6330 C   0  0  0  0  0  0  0  0  0  0  0  0
    8.3990   -3.3120   23.2950 C   0  0  0  0  0  0  0  0  0  0  0  0
    9.6990   -1.3790   22.5270 C   0  0  0  0  0  0  0  0  0  0  0  0
    7.6990   -5.1960   25.6110 C   0  0  0  0  0  0  0  0  0  0  0  0
    9.4760   -3.8730   24.2170 C   0  0  0  0  0  0  0  0  0  0  0  0
   11.0960   -1.5380   22.3380 C   0  0  0  0  0  0  0  0  0  0  0  0
    9.1930   -0.1240   22.9660 C   0  0  0  0  0  0  0  0  0  0  0  0
    9.1700   -4.8210   25.3870 C   0  0  0  0  0  0  0  0  0  0  0  0
   11.9570   -0.4730   22.5780 C   0  0  0  0  0  0  0  0  0  0  0  0
    9.9920    0.9420   23.2040 C   0  0  0  0  0  0  0  0  0  0  0  0
    7.8990    0.3230   23.2380 N   0  0  0  0  0  0  0  0  0  0  0  0
   13.2510   -0.5510   22.4220 O   0  0  0  0  0  0  0  0  0  0  0  0
   11.3090    0.8030   23.0290 C   0  0  0  0  0  0  0  0  0  0  0  0
    9.1620    2.1520   23.6440 C   0  0  0  0  0  0  0  0  0  0  0  0
    7.8720    1.6870   23.6450 C   0  0  0  0  0  0  0  0  0  0  0  0
   13.5030    0.7550   22.8170 C   0  0  0  0  0  0  0  0  0  0  0  0
    9.6730    3.4570   23.9660 C   0  0  0  0  0  0  0  0  0  0  0  0
   10.8140    3.8460   23.2020 C   0  0  0  0  0  0  0  0  0  0  0  0
   10.6220    5.1250   22.7170 N   0  0  0  0  0  0  0  0  0  0  0  0
   10.8130    6.1940   23.5680 C   0  0  0  0  0  0  0  0  0  0  0  0
   11.8800    6.0050   24.5010 C   0  0  0  0  0  0  0  0  0  0  0  0
   10.0710    7.3140   23.5340 O   0  0  0  0  0  0  0  0  0  0  0  0
  1  2  1  0
  2  3  2  0
  2  4  1  0
  4  5  1  0
  4  6  1  0
  5  7  1  0
  6  8  1  0
  7  9  1  0
  7 10  2  0
  8 10  1  0
  8 11  1  1
  9 12  2  0
 10 13  1  0
 11 14  2  0
 11 15  1  0
 12 16  1  0
 13 16  2  0
 14 17  1  0
 15 18  2  0
 15 19  1  0
 17 20  1  0
 17 21  2  0
 18 21  1  0
 18 22  1  0
 19 23  1  0
 22 23  2  0
 20 24  1  0
 22 25  1  0
 25 26  1  0
 26 27  1  0
 27 28  1  0
 28 29  1  0
 28 30  2  0
M  END
