DAR-DIA-2b784ede-33-bromoalkyne
     RDKit          3D

 24 25  0  0  0  0  0  0  0  0999 V2000
    7.3170   -2.6960   20.0760 C   0  0  0  0  0  0  0  0  0  0  0  0
    6.4610   -2.2210   18.8900 C   0  0  0  0  0  0  0  0  0  0  0  0
    7.2540   -1.9280   21.4640 N   0  0  0  0  0  0  0  0  0  0  0  0
    5.9270   -1.4780   21.7690 C   0  0  0  0  0  0  0  0  0  0  0  0
    8.2190   -0.7650   22.0600 C   0  0  1  0  0  0  0  0  0  0  0  0
    6.1030   -2.4520   22.7640 C   0  0  0  0  0  0  0  0  0  0  0  0
    4.6580   -1.2500   22.2920 N   0  0  0  0  0  0  0  0  0  0  0  0
    7.4180    0.1970   22.9820 C   0  0  0  0  0  0  0  0  0  0  0  0
    9.7000   -0.9220   22.5500 C   0  0  0  0  0  0  0  0  0  0  0  0
    5.1370   -2.7400   23.6750 C   0  0  0  0  0  0  0  0  0  0  0  0
    4.1680   -1.9530   23.3830 O   0  0  0  0  0  0  0  0  0  0  0  0
    7.1340   -0.1000   24.1420 O   0  0  0  0  0  0  0  0  0  0  0  0
    7.0680    1.4110   22.3780 N   0  0  0  0  0  0  0  0  0  0  0  0
   10.7460    0.2110   22.3720 C   0  0  0  0  0  0  0  0  0  0  0  0
   10.2290   -2.0440   23.1690 C   0  0  0  0  0  0  0  0  0  0  0  0
    5.1680   -3.6830   24.6910 C   0  0  0  0  0  0  0  0  0  0  0  0
    7.7820    2.0050   21.3020 C   0  0  0  0  0  0  0  0  0  0  0  0
   12.0540    0.1950   22.6950 N   0  0  0  0  0  0  0  0  0  0  0  0
   11.5940   -2.0420   23.4860 C   0  0  0  0  0  0  0  0  0  0  0  0
    9.3250   -3.1990   23.4630 C   0  0  0  0  0  0  0  0  0  0  0  0
    3.9070   -4.4670   25.1040 C   0  0  0  0  0  0  0  0  0  0  0  0
    6.1330   -4.6750   24.0610 C   0  0  0  0  0  0  0  0  0  0  0  0
    5.9040   -3.0210   26.2000 Cl  0  0  0  0  0  0  0  0  0  0  0  0
   12.4470   -0.9590   23.2320 C   0  0  0  0  0  0  0  0  0  0  0  0
  1  2  2  3
  1  3  1  0
  3  4  1  0
  3  5  1  0
  4  6  1  0
  4  7  2  0
  5  8  1  1
  5  9  1  0
  6 10  2  0
  7 11  1  0
 10 11  1  0
  8 12  2  0
  8 13  1  0
  9 14  2  0
  9 15  1  0
 10 16  1  0
 13 17  1  0
 14 18  1  0
 15 19  2  0
 15 20  1  0
 16 21  1  0
 16 22  1  0
 16 23  1  0
 18 24  2  0
 19 24  1  0
M  END
