DAR-DIA-23aa0b97-11-nitrile
     RDKit          3D

 21 23  0  0  0  0  0  0  0  0999 V2000
    6.7100   -3.9330   20.0950 C   0  0  0  0  0  0  0  0  0  0  0  0
    5.7040   -3.4830   19.4300 N   0  0  0  0  0  0  0  0  0  0  0  0
    7.4770   -3.0690   21.0850 C   0  0  0  0  0  0  0  0  0  0  0  0
    8.9950   -2.9980   21.0180 C   0  0  0  0  0  0  0  0  0  0  0  0
    6.8470   -2.3110   22.0800 C   0  0  0  0  0  0  0  0  0  0  0  0
    9.7880   -2.1450   22.0060 C   0  0  0  0  0  0  0  0  0  0  0  0
    7.5820   -1.5210   22.9740 C   0  0  0  0  0  0  0  0  0  0  0  0
    8.9430   -1.4280   22.9700 C   0  0  0  0  0  0  0  0  0  0  0  0
    7.0190   -0.7460   23.9270 N   0  0  0  0  0  0  0  0  0  0  0  0
    7.0570    0.5000   23.3450 C   0  0  0  0  0  0  0  0  0  0  0  0
    6.6870    1.5520   23.8480 O   0  0  0  0  0  0  0  0  0  0  0  0
    7.6110    0.3680   22.0730 N   0  0  0  0  0  0  0  0  0  0  0  0
    6.9800    0.4800   20.8080 C   0  0  0  0  0  0  0  0  0  0  0  0
    7.2980   -0.2370   19.5580 C   0  0  0  0  0  0  0  0  0  0  0  0
    5.8860    1.3020   20.3800 C   0  0  0  0  0  0  0  0  0  0  0  0
    6.5350    0.1150   18.5410 N   0  0  0  0  0  0  0  0  0  0  0  0
    5.6480    1.0480   18.9840 C   0  0  0  0  0  0  0  0  0  0  0  0
    5.0620    2.2330   20.9910 C   0  0  0  0  0  0  0  0  0  0  0  0
    4.7150    1.6190   18.2050 N   0  0  0  0  0  0  0  0  0  0  0  0
    4.1040    2.8180   20.2030 C   0  0  0  0  0  0  0  0  0  0  0  0
    3.9450    2.5180   18.8640 C   0  0  0  0  0  0  0  0  0  0  0  0
  1  2  2  3
  1  3  1  0
  3  4  2  0
  3  5  1  0
  4  6  1  0
  5  7  2  0
  6  8  2  0
  7  8  1  0
  7  9  1  0
  9 10  1  0
 10 11  2  0
 10 12  1  0
 12 13  1  0
 13 14  2  0
 13 15  1  0
 14 16  1  0
 15 17  2  0
 16 17  1  0
 15 18  1  0
 17 19  1  0
 18 20  2  0
 19 21  2  0
 20 21  1  0
M  END
