DAR-DIA-3e9bbd81-3-nitrile
     RDKit          3D

 23 26  0  0  0  0  0  0  0  0999 V2000
    6.8640   -3.5480   19.7020 C   0  0  0  0  0  0  0  0  0  0  0  0
    6.0290   -3.1490   18.8280 N   0  0  0  0  0  0  0  0  0  0  0  0
    6.9590   -2.8760   20.8910 N   0  0  0  0  0  0  0  0  0  0  0  0
    7.3270   -1.4330   20.9150 C   0  0  0  0  0  0  0  0  0  0  0  0
    7.7380   -3.3120   22.0210 C   0  0  1  0  0  0  0  0  0  0  0  0
    8.5500   -1.4140   21.6130 C   0  0  2  0  0  0  0  0  0  0  0  0
    8.9410   -2.8710   21.4540 C   0  0  0  0  0  0  0  0  0  0  0  0
    7.2860   -2.4780   23.1330 C   0  0  0  0  0  0  0  0  0  0  0  0
    8.2650   -1.4060   23.0890 N   0  0  0  0  0  0  0  0  0  0  0  0
    9.4010   -1.9400   23.8340 C   0  0  1  0  0  0  0  0  0  0  0  0
   10.6980   -1.2210   23.4540 C   0  0  0  0  0  0  0  0  0  0  0  0
    8.9890   -1.9430   25.3140 C   0  0  0  0  0  0  0  0  0  0  0  0
   10.8560    0.1230   24.1150 C   0  0  0  0  0  0  0  0  0  0  0  0
   11.6900   -1.7200   22.5720 C   0  0  0  0  0  0  0  0  0  0  0  0
    8.3330   -3.1910   25.9120 C   0  0  0  0  0  0  0  0  0  0  0  0
    9.1680   -0.8390   26.1750 C   0  0  0  0  0  0  0  0  0  0  0  0
   12.0240    0.8080   23.7880 C   0  0  0  0  0  0  0  0  0  0  0  0
   12.8310   -0.9440   22.3210 C   0  0  0  0  0  0  0  0  0  0  0  0
    7.9420   -3.2050   27.2550 C   0  0  0  0  0  0  0  0  0  0  0  0
    8.7480   -0.9200   27.5140 C   0  0  0  0  0  0  0  0  0  0  0  0
   12.9900    0.3010   22.9230 C   0  0  0  0  0  0  0  0  0  0  0  0
    8.1510   -2.0730   28.0460 C   0  0  0  0  0  0  0  0  0  0  0  0
    8.9610    0.4300   28.5610 Cl  0  0  0  0  0  0  0  0  0  0  0  0
  1  2  2  3
  1  3  1  0
  3  4  1  0
  3  5  1  0
  6  4  1  6
  5  7  1  0
  6  7  1  0
  5  8  1  1
  6  9  1  0
  8  9  1  0
  9 10  1  0
 10 11  1  1
 10 12  1  0
 11 13  2  0
 11 14  1  0
 12 15  2  0
 12 16  1  0
 13 17  1  0
 14 18  2  0
 15 19  1  0
 16 20  2  0
 17 21  2  0
 18 21  1  0
 19 22  2  0
 20 22  1  0
 20 23  1  0
M  END
