DAR-DIA-2b784ede-1-nitrile
     RDKit          3D

 24 25  0  0  0  0  0  0  0  0999 V2000
    7.1890   -3.0800   20.1600 C   0  0  0  0  0  0  0  0  0  0  0  0
    6.5030   -2.5390   19.1730 N   0  0  0  0  0  0  0  0  0  0  0  0
    7.5450   -2.5310   21.6010 N   0  0  0  0  0  0  0  0  0  0  0  0
    7.7110   -3.6790   22.4920 C   0  0  0  0  0  0  0  0  0  0  0  0
    8.2000   -1.1170   22.0670 C   0  0  1  0  0  0  0  0  0  0  0  0
    7.8500   -4.7740   23.4430 C   0  0  0  0  0  0  0  0  0  0  0  0
    7.2620   -2.7310   23.3950 N   0  0  0  0  0  0  0  0  0  0  0  0
    7.1510   -0.2640   22.8440 C   0  0  0  0  0  0  0  0  0  0  0  0
    9.7120   -0.9630   22.5490 C   0  0  0  0  0  0  0  0  0  0  0  0
    7.6400   -4.9160   24.8100 C   0  0  0  0  0  0  0  0  0  0  0  0
    7.0310   -2.7920   24.7410 C   0  0  0  0  0  0  0  0  0  0  0  0
    6.6030   -0.6780   23.8640 O   0  0  0  0  0  0  0  0  0  0  0  0
    6.8660    0.9860   22.3330 N   0  0  0  0  0  0  0  0  0  0  0  0
   10.4790    0.1960   22.3220 C   0  0  0  0  0  0  0  0  0  0  0  0
   10.4230   -1.9620   23.2190 C   0  0  0  0  0  0  0  0  0  0  0  0
    7.2080   -3.8790   25.5210 C   0  0  0  0  0  0  0  0  0  0  0  0
    7.8940    1.8350   21.7720 C   0  0  0  0  0  0  0  0  0  0  0  0
   11.7870    0.3820   22.6450 N   0  0  0  0  0  0  0  0  0  0  0  0
   11.7590   -1.8060   23.5510 C   0  0  0  0  0  0  0  0  0  0  0  0
    9.7880   -3.2290   23.5990 C   0  0  0  0  0  0  0  0  0  0  0  0
    6.9670   -3.9220   26.8990 C   0  0  0  0  0  0  0  0  0  0  0  0
   12.3980   -0.6350   23.2330 C   0  0  0  0  0  0  0  0  0  0  0  0
    5.9650   -4.9250   27.4260 C   0  0  0  0  0  0  0  0  0  0  0  0
    5.1780   -5.6870   27.8110 N   0  0  0  0  0  0  0  0  0  0  0  0
  1  2  2  3
  1  3  1  0
  3  4  1  0
  3  5  1  0
  4  6  2  0
  4  7  1  0
  5  8  1  1
  5  9  1  0
  6 10  1  0
  7 11  2  0
  8 12  2  0
  8 13  1  0
  9 14  2  0
  9 15  1  0
 10 16  2  0
 11 16  1  0
 13 17  1  0
 14 18  1  0
 15 19  2  0
 15 20  1  0
 16 21  1  0
 18 22  2  0
 19 22  1  0
 21 23  1  0
 23 24  3  0
M  END
