DAR-DIA-2b784ede-29-vinylsulfonamide
     RDKit          3D

 36 38  0  0  0  0  0  0  0  0999 V2000
    7.0570   -3.1240   19.5030 C   0  0  0  0  0  0  0  0  0  0  0  0
    7.0320   -2.3680   20.8510 C   0  0  0  0  0  0  0  0  0  0  0  0
    5.3810   -1.7090   21.1060 S   0  0  0  0  0  0  0  0  0  0  0  0
    4.5930   -2.9350   21.5480 O   0  0  0  0  0  0  0  0  0  0  0  0
    5.0350   -1.1720   19.8140 O   0  0  0  0  0  0  0  0  0  0  0  0
    5.5390   -0.2990   22.1410 N   0  0  0  0  0  0  0  0  0  0  0  0
    5.1740    0.9970   21.6530 C   0  0  0  0  0  0  0  0  0  0  0  0
    6.2310   -0.2480   23.4780 C   0  0  1  0  0  0  0  0  0  0  0  0
    4.5790    1.3350   20.4440 C   0  0  0  0  0  0  0  0  0  0  0  0
    5.3390    2.2000   22.2890 C   0  0  0  0  0  0  0  0  0  0  0  0
    7.4160    0.7610   23.6210 C   0  0  0  0  0  0  0  0  0  0  0  0
    5.2780   -0.0260   24.6370 C   0  0  0  0  0  0  0  0  0  0  0  0
    4.3720    2.6580   20.3030 N   0  0  0  0  0  0  0  0  0  0  0  0
    4.8540    3.1750   21.4640 N   0  0  0  0  0  0  0  0  0  0  0  0
    7.5900    1.6630   22.7970 O   0  0  0  0  0  0  0  0  0  0  0  0
    8.2000    0.5640   24.7200 N   0  0  0  0  0  0  0  0  0  0  0  0
    3.9730    0.6660   24.3840 C   0  0  0  0  0  0  0  0  0  0  0  0
    5.5280   -0.4270   25.9640 C   0  0  0  0  0  0  0  0  0  0  0  0
    4.8240    4.6250   21.7410 C   0  0  0  0  0  0  0  0  0  0  0  0
    9.5670    0.8580   24.8190 C   0  0  0  0  0  0  0  0  0  0  0  0
    3.0610    0.9160   25.3250 N   0  0  0  0  0  0  0  0  0  0  0  0
    4.5580   -0.1520   26.9180 C   0  0  0  0  0  0  0  0  0  0  0  0
    6.7760   -1.1340   26.4310 C   0  0  0  0  0  0  0  0  0  0  0  0
    4.4410    4.8230   23.0790 C   0  0  0  0  0  0  0  0  0  0  0  0
    6.2390    5.2180   21.5790 C   0  0  0  0  0  0  0  0  0  0  0  0
    3.8720    5.3520   20.8800 C   0  0  0  0  0  0  0  0  0  0  0  0
   10.6240    0.1340   23.9400 C   0  0  0  0  0  0  0  0  0  0  0  0
    3.3750    0.5000   26.5720 C   0  0  0  0  0  0  0  0  0  0  0  0
   10.6080   -1.3810   23.6440 C   0  0  0  0  0  0  0  0  0  0  0  0
   11.6730    0.8830   23.3620 C   0  0  0  0  0  0  0  0  0  0  0  0
    9.5410   -2.3960   24.1370 C   0  0  0  0  0  0  0  0  0  0  0  0
   11.6210   -1.9390   22.8640 C   0  0  0  0  0  0  0  0  0  0  0  0
   12.6500    0.2660   22.6140 C   0  0  0  0  0  0  0  0  0  0  0  0
   11.7670    2.2400   23.5020 C   0  0  0  0  0  0  0  0  0  0  0  0
   12.7280   -1.0780   22.3100 C   0  0  0  0  0  0  0  0  0  0  0  0
   10.8000    3.0250   22.6400 C   0  0  0  0  0  0  0  0  0  0  0  0
  1  2  1  0
  2  3  1  0
  3  4  2  0
  3  5  2  0
  3  6  1  0
  6  7  1  0
  6  8  1  0
  7  9  1  0
  7 10  2  0
  8 11  1  6
  8 12  1  0
  9 13  2  0
 10 14  1  0
 13 14  1  0
 11 15  2  0
 11 16  1  0
 12 17  2  0
 12 18  1  0
 14 19  1  0
 16 20  1  0
 17 21  1  0
 18 22  2  0
 18 23  1  0
 19 24  1  0
 19 25  1  0
 19 26  1  0
 20 27  1  0
 21 28  2  0
 22 28  1  0
 27 29  2  0
 27 30  1  0
 29 31  1  0
 29 32  1  0
 30 33  2  0
 30 34  1  0
 32 35  2  0
 33 35  1  0
 34 36  1  0
M  END
