DAR-DIA-2b784ede-6-acrylamide
     RDKit          3D

 25 26  0  0  0  0  0  0  0  0999 V2000
    7.2900   -3.5590   20.2220 C   0  0  0  0  0  0  0  0  0  0  0  0
    6.0000   -2.8370   19.9440 C   0  0  0  0  0  0  0  0  0  0  0  0
    5.4990   -2.1860   21.1710 C   0  0  0  0  0  0  0  0  0  0  0  0
    4.5580   -2.9770   21.7040 O   0  0  0  0  0  0  0  0  0  0  0  0
    6.0850   -0.7750   21.4000 N   0  0  0  0  0  0  0  0  0  0  0  0
    6.0450   -0.3250   20.0430 C   0  0  0  0  0  0  0  0  0  0  0  0
    7.7090   -0.4410   21.6240 C   0  0  1  0  0  0  0  0  0  0  0  0
    5.5230    0.7150   19.2160 C   0  0  0  0  0  0  0  0  0  0  0  0
    6.8520   -1.3590   19.3830 C   0  0  0  0  0  0  0  0  0  0  0  0
    7.9160    1.0790   21.3490 C   0  0  0  0  0  0  0  0  0  0  0  0
    9.0240   -0.9110   22.5400 C   0  0  0  0  0  0  0  0  0  0  0  0
    5.8740    0.6000   17.8360 C   0  0  0  0  0  0  0  0  0  0  0  0
    7.1320   -1.4780   18.3340 N   0  0  0  0  0  0  0  0  0  0  0  0
    7.8060    1.5360   20.2200 O   0  0  0  0  0  0  0  0  0  0  0  0
    8.2430    1.8370   22.4750 N   0  0  0  0  0  0  0  0  0  0  0  0
   10.3910   -0.0750   22.4180 C   0  0  0  0  0  0  0  0  0  0  0  0
    9.2950   -1.9210   23.4700 C   0  0  0  0  0  0  0  0  0  0  0  0
    6.7490   -0.6230   17.4530 C   0  0  0  0  0  0  0  0  0  0  0  0
    9.3670    2.6970   22.5600 C   0  0  0  0  0  0  0  0  0  0  0  0
   11.5990   -0.1840   23.0280 N   0  0  0  0  0  0  0  0  0  0  0  0
   10.5590   -2.0160   24.0970 C   0  0  0  0  0  0  0  0  0  0  0  0
    8.3510   -2.9860   23.9070 C   0  0  0  0  0  0  0  0  0  0  0  0
    7.3090   -1.0600   16.0980 C   0  0  0  0  0  0  0  0  0  0  0  0
   11.6490   -1.1780   23.8840 C   0  0  0  0  0  0  0  0  0  0  0  0
    8.3710    0.2080   15.4250 Cl  0  0  0  0  0  0  0  0  0  0  0  0
  1  2  1  0
  2  3  1  0
  3  4  2  0
  3  5  1  0
  5  6  1  0
  5  7  1  0
  6  8  2  0
  6  9  1  0
  7 10  1  1
  7 11  1  0
  8 12  1  0
  9 13  2  0
 10 14  2  0
 10 15  1  0
 11 16  2  0
 11 17  1  0
 12 18  2  0
 13 18  1  0
 15 19  1  0
 16 20  1  0
 17 21  2  0
 17 22  1  0
 18 23  1  0
 20 24  2  0
 21 24  1  0
 23 25  1  0
M  END
