DAR-DIA-23aa0b97-1-bromoalkyne
     RDKit          3D

 21 23  0  0  0  0  0  0  0  0999 V2000
    8.2570   -3.5240   20.0250 C   0  0  0  0  0  0  0  0  0  0  0  0
    6.6520   -3.6450   19.8420 C   0  0  0  0  0  0  0  0  0  0  0  0
    9.1930   -2.5800   21.1130 C   0  0  0  0  0  0  0  0  0  0  0  0
   10.7630   -2.5020   21.6820 C   0  0  0  0  0  0  0  0  0  0  0  0
    9.0520   -1.5460   21.8620 C   0  0  0  0  0  0  0  0  0  0  0  0
   11.3210   -1.3840   22.7520 C   0  0  0  0  0  0  0  0  0  0  0  0
    9.9440   -0.9560   22.6270 C   0  0  0  0  0  0  0  0  0  0  0  0
   10.6810   -0.2720   23.4050 C   0  0  0  0  0  0  0  0  0  0  0  0
    8.9800    0.0400   22.9450 N   0  0  0  0  0  0  0  0  0  0  0  0
    8.4720    0.3770   21.7370 C   0  0  0  0  0  0  0  0  0  0  0  0
    8.5180    1.5200   21.2400 O   0  0  0  0  0  0  0  0  0  0  0  0
    7.8960   -0.8020   20.9910 C   0  0  0  0  0  0  0  0  0  0  0  0
    7.0150   -0.2080   19.9640 C   0  0  0  0  0  0  0  0  0  0  0  0
    7.2500   -0.4110   18.6860 C   0  0  0  0  0  0  0  0  0  0  0  0
    5.8600    0.6120   20.0610 C   0  0  0  0  0  0  0  0  0  0  0  0
    6.3460    0.2220   17.9240 N   0  0  0  0  0  0  0  0  0  0  0  0
    5.4770    0.8620   18.7690 C   0  0  0  0  0  0  0  0  0  0  0  0
    5.0730    1.1870   21.0550 C   0  0  0  0  0  0  0  0  0  0  0  0
    4.3480    1.6630   18.3490 N   0  0  0  0  0  0  0  0  0  0  0  0
    3.9420    1.9840   20.7170 C   0  0  0  0  0  0  0  0  0  0  0  0
    3.5780    2.2240   19.3760 C   0  0  0  0  0  0  0  0  0  0  0  0
  1  2  2  3
  1  3  1  0
  3  4  2  0
  3  5  1  0
  4  6  1  0
  5  7  2  0
  6  8  2  0
  7  8  1  0
  7  9  1  0
  9 10  1  0
 10 11  2  0
 10 12  1  0
 12 13  1  0
 13 14  2  0
 13 15  1  0
 14 16  1  0
 15 17  2  0
 16 17  1  0
 15 18  1  0
 17 19  1  0
 18 20  2  0
 19 21  2  0
 20 21  1  0
M  END
