DAR-DIA-2b784ede-48-bromoalkyne
     RDKit          3D

 31 33  0  0  0  0  0  0  0  0999 V2000
    7.2390   -3.0390   19.2100 C   0  0  0  0  0  0  0  0  0  0  0  0
    6.1700   -2.6800   18.3000 C   0  0  0  0  0  0  0  0  0  0  0  0
    7.0220   -2.1520   20.2460 N   0  0  0  0  0  0  0  0  0  0  0  0
    6.3860   -0.8690   19.6840 C   0  0  0  0  0  0  0  0  0  0  0  0
    7.7750   -2.3290   21.5240 C   0  0  1  0  0  0  0  0  0  0  0  0
    5.3310    0.0720   20.3710 C   0  0  0  0  0  0  0  0  0  0  0  0
    6.5840   -0.2270   18.3540 N   0  0  0  0  0  0  0  0  0  0  0  0
    8.5760   -1.2650   21.8850 C   0  0  0  0  0  0  0  0  0  0  0  0
    6.9330   -3.1720   22.4640 C   0  0  0  0  0  0  0  0  0  0  0  0
    5.1200    1.1160   19.2800 C   0  0  0  0  0  0  0  0  0  0  0  0
    5.8960    0.9120   18.0590 N   0  0  0  0  0  0  0  0  0  0  0  0
    8.1280   -0.1400   22.1040 O   0  0  0  0  0  0  0  0  0  0  0  0
    9.9080   -1.6360   21.9370 N   0  0  0  0  0  0  0  0  0  0  0  0
    5.7130   -3.8280   21.7750 C   0  0  0  0  0  0  0  0  0  0  0  0
    7.1360   -3.4440   23.8320 C   0  0  0  0  0  0  0  0  0  0  0  0
    4.1210    2.2130   19.6510 C   0  0  0  0  0  0  0  0  0  0  0  0
   10.7870   -1.2800   22.9640 C   0  0  0  0  0  0  0  0  0  0  0  0
    4.8510   -4.7290   22.6040 C   0  0  0  0  0  0  0  0  0  0  0  0
    6.3400   -4.2510   24.6080 N   0  0  0  0  0  0  0  0  0  0  0  0
    4.9280    3.0810   20.6440 C   0  0  0  0  0  0  0  0  0  0  0  0
    3.6260    3.0980   18.5220 C   0  0  0  0  0  0  0  0  0  0  0  0
    2.8980    1.6080   20.3450 C   0  0  0  0  0  0  0  0  0  0  0  0
   10.1290   -1.0020   24.1610 C   0  0  0  0  0  0  0  0  0  0  0  0
   12.2010   -1.2030   22.8340 C   0  0  0  0  0  0  0  0  0  0  0  0
    5.2770   -4.8620   24.0530 C   0  0  0  0  0  0  0  0  0  0  0  0
    8.7560   -1.1190   24.2670 C   0  0  0  0  0  0  0  0  0  0  0  0
   10.8700   -0.6180   25.2440 C   0  0  0  0  0  0  0  0  0  0  0  0
   12.9170   -0.8190   23.9220 C   0  0  0  0  0  0  0  0  0  0  0  0
   13.0400   -1.5110   21.6500 C   0  0  0  0  0  0  0  0  0  0  0  0
   12.3680   -0.5150   25.1200 C   0  0  0  0  0  0  0  0  0  0  0  0
   12.3570   -2.2500   20.6450 O   0  0  0  0  0  0  0  0  0  0  0  0
  1  2  2  3
  1  3  1  0
  3  4  1  0
  3  5  1  0
  4  6  2  0
  4  7  1  0
  5  8  1  1
  5  9  1  0
  6 10  1  0
  7 11  1  0
 10 11  2  0
  8 12  2  0
  8 13  1  0
  9 14  2  0
  9 15  1  0
 10 16  1  0
 13 17  1  0
 14 18  1  0
 15 19  2  0
 16 20  1  0
 16 21  1  0
 16 22  1  0
 17 23  2  0
 17 24  1  0
 18 25  2  0
 19 25  1  0
 23 26  1  0
 23 27  1  0
 24 28  2  0
 24 29  1  0
 27 30  2  0
 28 30  1  0
 29 31  1  0
M  END
