DAR-DIA-2b784ede-28-vinylsulfonamide
     RDKit          3D

 28 29  0  0  0  0  0  0  0  0999 V2000
    7.7650   -3.5980   20.4800 C   0  0  0  0  0  0  0  0  0  0  0  0
    6.6670   -2.5990   20.4100 C   0  0  0  0  0  0  0  0  0  0  0  0
    5.9700   -2.5730   22.0310 S   0  0  0  0  0  0  0  0  0  0  0  0
    4.5780   -3.1110   21.8010 O   0  0  0  0  0  0  0  0  0  0  0  0
    6.8610   -3.3270   22.8800 O   0  0  0  0  0  0  0  0  0  0  0  0
    6.2340   -0.8630   22.2800 N   0  0  0  0  0  0  0  0  0  0  0  0
    5.8530   -0.2310   21.0820 C   0  0  0  0  0  0  0  0  0  0  0  0
    7.3750   -0.2860   23.2380 C   0  0  1  0  0  0  0  0  0  0  0  0
    4.8390    0.6610   20.8620 C   0  0  0  0  0  0  0  0  0  0  0  0
    6.4210   -0.4180   19.8970 C   0  0  0  0  0  0  0  0  0  0  0  0
    6.8310   -0.3810   24.6850 C   0  0  0  0  0  0  0  0  0  0  0  0
    8.9870   -0.5690   23.1600 C   0  0  0  0  0  0  0  0  0  0  0  0
    4.7560    1.0140   19.5940 N   0  0  0  0  0  0  0  0  0  0  0  0
    5.7500    0.3100   19.0630 N   0  0  0  0  0  0  0  0  0  0  0  0
    6.2200    0.5750   25.1700 O   0  0  0  0  0  0  0  0  0  0  0  0
    7.0750   -1.5650   25.3670 N   0  0  0  0  0  0  0  0  0  0  0  0
    9.9890    0.6200   22.9100 C   0  0  0  0  0  0  0  0  0  0  0  0
    9.7420   -1.7650   23.2910 C   0  0  0  0  0  0  0  0  0  0  0  0
    6.0440    0.3260   17.7480 C   0  0  0  0  0  0  0  0  0  0  0  0
    6.5720   -1.7440   26.7030 C   0  0  0  0  0  0  0  0  0  0  0  0
   11.3500    0.5700   22.8040 N   0  0  0  0  0  0  0  0  0  0  0  0
   11.1470   -1.7910   23.1670 C   0  0  0  0  0  0  0  0  0  0  0  0
    9.1550   -3.1120   23.5680 C   0  0  0  0  0  0  0  0  0  0  0  0
    7.3820    0.3820   17.7290 C   0  0  0  0  0  0  0  0  0  0  0  0
    5.6270   -1.0900   17.3910 C   0  0  0  0  0  0  0  0  0  0  0  0
    5.3610    1.5160   17.2410 C   0  0  0  0  0  0  0  0  0  0  0  0
   11.9080   -0.6420   22.9210 C   0  0  0  0  0  0  0  0  0  0  0  0
    4.7310    2.6750   16.8800 N   0  0  0  0  0  0  0  0  0  0  0  0
  1  2  1  0
  2  3  1  0
  3  4  2  0
  3  5  2  0
  3  6  1  0
  6  7  1  0
  6  8  1  0
  7  9  1  0
  7 10  2  0
  8 11  1  1
  8 12  1  0
  9 13  2  0
 10 14  1  0
 13 14  1  0
 11 15  2  0
 11 16  1  0
 12 17  2  0
 12 18  1  0
 14 19  1  0
 16 20  1  0
 17 21  1  0
 18 22  2  0
 18 23  1  0
 19 24  1  0
 19 25  1  0
 19 26  1  0
 21 27  2  0
 22 27  1  0
 26 28  3  0
M  END
