DAR-DIA-3e9bbd81-6-acrylamide
     RDKit          3D

 30 34  0  0  0  0  0  0  0  0999 V2000
    7.4430   -2.9030   18.1510 C   0  0  0  0  0  0  0  0  0  0  0  0
    6.6750   -1.9400   18.9610 C   0  0  0  0  0  0  0  0  0  0  0  0
    5.8990   -2.5740   20.0690 C   0  0  0  0  0  0  0  0  0  0  0  0
    5.0140   -3.4650   19.9780 O   0  0  0  0  0  0  0  0  0  0  0  0
    6.3240   -2.0110   21.2010 N   0  0  0  0  0  0  0  0  0  0  0  0
    7.4700   -1.1090   21.3040 C   0  0  0  0  0  0  0  0  0  0  0  0
    6.0150   -2.4920   22.5240 C   0  0  2  0  0  0  0  0  0  0  0  0
    7.6570   -1.0240   22.8310 C   0  0  1  0  0  0  0  0  0  0  0  0
    6.1910   -1.1760   23.2840 C   0  0  0  0  0  0  0  0  0  0  0  0
    7.2330   -3.3240   22.9680 C   0  0  0  0  0  0  0  0  0  0  0  0
    8.0840   -2.2570   23.4830 N   0  0  0  0  0  0  0  0  0  0  0  0
    9.4590   -2.5070   23.7640 C   0  0  2  0  0  0  0  0  0  0  0  0
    9.6410   -3.3810   24.9600 C   0  0  0  0  0  0  0  0  0  0  0  0
   10.4300   -1.3820   23.4730 C   0  0  0  0  0  0  0  0  0  0  0  0
    8.5470   -3.8790   25.6840 C   0  0  0  0  0  0  0  0  0  0  0  0
   10.9160   -3.7030   25.3480 C   0  0  0  0  0  0  0  0  0  0  0  0
   11.4830   -1.7720   22.6840 C   0  0  0  0  0  0  0  0  0  0  0  0
   10.3440   -0.0260   23.8750 C   0  0  0  0  0  0  0  0  0  0  0  0
    8.7370   -4.6970   26.7840 C   0  0  0  0  0  0  0  0  0  0  0  0
   11.1060   -4.5050   26.4250 C   0  0  0  0  0  0  0  0  0  0  0  0
   12.4180   -0.8810   22.3020 C   0  0  0  0  0  0  0  0  0  0  0  0
   11.3580    0.8740   23.4520 C   0  0  0  0  0  0  0  0  0  0  0  0
    9.3130    0.5120   24.6510 C   0  0  0  0  0  0  0  0  0  0  0  0
   10.0230   -5.0120   27.1570 C   0  0  0  0  0  0  0  0  0  0  0  0
   13.3620   -1.3560   21.4580 C   0  0  0  0  0  0  0  0  0  0  0  0
   12.3980    0.4330   22.6830 C   0  0  0  0  0  0  0  0  0  0  0  0
   11.3160    2.2130   23.7720 C   0  0  0  0  0  0  0  0  0  0  0  0
    9.2710    1.8620   24.9560 C   0  0  0  0  0  0  0  0  0  0  0  0
   13.9320   -1.6750   20.5740 N   0  0  0  0  0  0  0  0  0  0  0  0
   10.2690    2.7100   24.5080 C   0  0  0  0  0  0  0  0  0  0  0  0
  1  2  1  0
  2  3  1  0
  3  4  2  0
  3  5  1  0
  5  6  1  0
  5  7  1  0
  8  6  1  6
  7  9  1  0
  8  9  1  0
  7 10  1  1
  8 11  1  0
 10 11  1  0
 11 12  1  0
 12 13  1  1
 12 14  1  0
 13 15  2  0
 13 16  1  0
 14 17  2  0
 14 18  1  0
 15 19  1  0
 16 20  2  0
 17 21  1  0
 18 22  2  0
 18 23  1  0
 19 24  2  0
 20 24  1  0
 21 25  1  0
 21 26  2  0
 22 26  1  0
 22 27  1  0
 23 28  2  0
 25 29  3  0
 27 30  2  0
 28 30  1  0
M  END
