DAR-DIA-0cde14eb-10
     RDKit          3D

 22 24  0  0  0  0  0  0  0  0999 V2000
    5.1290    0.7480   22.0310 C   0  0  0  0  0  0  0  0  0  0  0  0
    5.5400    0.5680   20.5890 C   0  0  0  0  0  0  0  0  0  0  0  0
    4.8470    1.3980   19.5640 C   0  0  0  0  0  0  0  0  0  0  0  0
    6.5210   -0.3120   20.1330 C   0  0  0  0  0  0  0  0  0  0  0  0
    5.2030    1.2630   18.2410 C   0  0  0  0  0  0  0  0  0  0  0  0
    6.7720   -0.3360   18.7680 C   0  0  0  0  0  0  0  0  0  0  0  0
    7.2350   -1.1260   20.9250 N   0  0  0  0  0  0  0  0  0  0  0  0
    6.1600    0.4100   17.8090 N   0  0  0  0  0  0  0  0  0  0  0  0
    8.4020   -0.6520   21.4460 C   0  0  0  0  0  0  0  0  0  0  0  0
    8.7610    0.5160   21.3260 O   0  0  0  0  0  0  0  0  0  0  0  0
    9.2110   -1.5580   22.1380 C   0  0  2  0  0  0  0  0  0  0  0  0
    8.6690   -2.3200   23.3620 C   0  0  0  0  0  0  0  0  0  0  0  0
   10.4350   -0.7920   22.5000 C   0  0  0  0  0  0  0  0  0  0  0  0
   11.8880   -1.2470   22.4110 C   0  0  0  0  0  0  0  0  0  0  0  0
   10.1910    0.4960   22.9580 C   0  0  0  0  0  0  0  0  0  0  0  0
   12.8770   -0.3420   22.7840 C   0  0  0  0  0  0  0  0  0  0  0  0
   11.1700    1.4000   23.3210 C   0  0  0  0  0  0  0  0  0  0  0  0
   12.5050    1.0270   23.2500 C   0  0  0  0  0  0  0  0  0  0  0  0
   10.6580    2.7190   23.7440 C   0  0  0  0  0  0  0  0  0  0  0  0
    9.4270    2.7520   24.5540 C   0  0  0  0  0  0  0  0  0  0  0  0
   11.5050    3.9830   23.5920 C   0  0  0  0  0  0  0  0  0  0  0  0
   10.5510    3.7270   22.6050 C   0  0  0  0  0  0  0  0  0  0  0  0
  1  2  1  0
  2  3  2  0
  2  4  1  0
  3  5  1  0
  4  6  2  0
  4  7  1  0
  5  8  2  0
  6  8  1  0
  7  9  1  0
  9 10  2  0
  9 11  1  0
 11 12  1  1
 11 13  1  0
 13 14  2  0
 13 15  1  0
 14 16  1  0
 15 17  2  0
 16 18  2  0
 17 18  1  0
 17 19  1  0
 19 20  1  0
 19 21  1  0
 19 22  1  0
 21 22  1  0
M  END
