DAR-DIA-fb20be43-12-nitrile
     RDKit          3D

 24 26  0  0  0  0  0  0  0  0999 V2000
    6.9080   -3.3370   19.6200 C   0  0  0  0  0  0  0  0  0  0  0  0
    5.9720   -3.1630   18.8110 N   0  0  0  0  0  0  0  0  0  0  0  0
    6.9620   -2.6100   20.7750 N   0  0  0  0  0  0  0  0  0  0  0  0
    6.4860   -3.2050   22.0230 C   0  0  0  0  0  0  0  0  0  0  0  0
    7.6880   -1.3510   20.9000 C   0  0  0  0  0  0  0  0  0  0  0  0
    7.6380   -3.2880   23.0430 C   0  0  0  0  0  0  0  0  0  0  0  0
    8.8870   -1.5400   21.8370 C   0  0  0  0  0  0  0  0  0  0  0  0
    8.4110   -2.0380   23.1470 N   0  0  0  0  0  0  0  0  0  0  0  0
    9.5320   -2.1740   24.0920 C   0  0  0  0  0  0  0  0  0  0  0  0
   10.6640   -1.2770   23.6430 C   0  0  0  0  0  0  0  0  0  0  0  0
   11.8490   -1.8560   22.9700 C   0  0  0  0  0  0  0  0  0  0  0  0
   10.5950    0.1170   23.8260 C   0  0  0  0  0  0  0  0  0  0  0  0
   12.8330   -0.9830   22.5550 C   0  0  0  0  0  0  0  0  0  0  0  0
   11.6390    0.9490   23.3620 C   0  0  0  0  0  0  0  0  0  0  0  0
    9.4160    0.8130   24.5000 C   0  0  0  0  0  0  0  0  0  0  0  0
   13.8480   -1.4980   21.9530 F   0  0  0  0  0  0  0  0  0  0  0  0
   12.7470    0.3800   22.7500 C   0  0  0  0  0  0  0  0  0  0  0  0
   11.5570    2.3710   23.4960 C   0  0  0  0  0  0  0  0  0  0  0  0
    9.3870    2.1820   24.5960 C   0  0  0  0  0  0  0  0  0  0  0  0
   10.4290    2.9800   24.0880 C   0  0  0  0  0  0  0  0  0  0  0  0
   10.3380    4.7640   24.1500 S   0  0  0  0  0  0  0  0  0  0  0  0
    9.6740    5.1390   22.6580 N   0  0  0  0  0  0  0  0  0  0  0  0
   11.6670    5.3270   24.1470 O   0  0  0  0  0  0  0  0  0  0  0  0
    9.3260    5.1780   25.0970 O   0  0  0  0  0  0  0  0  0  0  0  0
  1  2  2  3
  1  3  1  0
  3  4  1  0
  3  5  1  0
  4  6  1  0
  5  7  1  0
  6  8  1  0
  7  8  1  0
  8  9  1  0
  9 10  1  0
 10 11  2  0
 10 12  1  0
 11 13  1  0
 12 14  2  0
 12 15  1  0
 13 16  1  0
 13 17  2  0
 14 17  1  0
 14 18  1  0
 15 19  2  0
 18 20  2  0
 19 20  1  0
 20 21  1  0
 21 22  1  0
 21 23  2  0
 21 24  2  0
M  END
