DAR-DIA-2b784ede-41-acrylamide
     RDKit          3D

 38 40  0  0  0  0  0  0  0  0999 V2000
    7.6230   -3.3250   19.4150 C   0  0  0  0  0  0  0  0  0  0  0  0
    7.1800   -3.8620   20.7540 C   0  0  0  0  0  0  0  0  0  0  0  0
    6.3390   -2.8110   21.3840 C   0  0  0  0  0  0  0  0  0  0  0  0
    5.2330   -3.6610   21.1400 O   0  0  0  0  0  0  0  0  0  0  0  0
    7.7260   -2.1100   21.5030 N   0  0  0  0  0  0  0  0  0  0  0  0
    9.1960   -2.2750   21.9660 C   0  0  0  0  0  0  0  0  0  0  0  0
    7.8450   -1.1600   22.6210 C   0  0  1  0  0  0  0  0  0  0  0  0
    8.7270   -2.0790   23.4010 C   0  0  0  0  0  0  0  0  0  0  0  0
   10.6050   -2.4810   21.5870 C   0  0  0  0  0  0  0  0  0  0  0  0
    8.1850    0.2420   22.1460 C   0  0  0  0  0  0  0  0  0  0  0  0
    6.7510   -1.2600   23.7250 C   0  0  0  0  0  0  0  0  0  0  0  0
    9.7950   -2.1400   24.3790 C   0  0  0  0  0  0  0  0  0  0  0  0
   11.5160   -2.5210   22.5170 C   0  0  0  0  0  0  0  0  0  0  0  0
    9.3200    0.6710   21.8870 O   0  0  0  0  0  0  0  0  0  0  0  0
    6.9220    0.8880   22.0290 N   0  0  0  0  0  0  0  0  0  0  0  0
    5.6830   -2.1520   23.5630 C   0  0  0  0  0  0  0  0  0  0  0  0
    6.7400   -0.5190   24.9220 C   0  0  0  0  0  0  0  0  0  0  0  0
   11.1450   -2.3790   23.7580 C   0  0  0  0  0  0  0  0  0  0  0  0
    6.3430    0.7150   20.7700 C   0  0  0  0  0  0  0  0  0  0  0  0
    4.6660   -2.3540   24.4450 N   0  0  0  0  0  0  0  0  0  0  0  0
    5.7000   -0.7080   25.8450 C   0  0  0  0  0  0  0  0  0  0  0  0
    7.7150    0.4120   25.2660 C   0  0  0  0  0  0  0  0  0  0  0  0
   11.6770   -2.3670   25.0000 C   0  0  0  0  0  0  0  0  0  0  0  0
    7.1200   -0.0960   19.8390 C   0  0  0  0  0  0  0  0  0  0  0  0
    5.1230    1.2410   20.3910 C   0  0  0  0  0  0  0  0  0  0  0  0
    4.6970   -1.6250   25.5670 C   0  0  0  0  0  0  0  0  0  0  0  0
   11.7720   -3.7440   25.6030 C   0  0  0  0  0  0  0  0  0  0  0  0
   10.2670   -1.6590   25.1010 C   0  0  0  0  0  0  0  0  0  0  0  0
   13.0090   -1.5960   24.9360 C   0  0  0  0  0  0  0  0  0  0  0  0
    6.5740   -0.3120   18.5390 C   0  0  0  0  0  0  0  0  0  0  0  0
    4.6300    1.0150   19.0990 C   0  0  0  0  0  0  0  0  0  0  0  0
    4.4130    1.9840   21.3200 C   0  0  0  0  0  0  0  0  0  0  0  0
    7.4700   -1.1500   17.7950 C   0  0  0  0  0  0  0  0  0  0  0  0
    5.3510    0.2400   18.1650 C   0  0  0  0  0  0  0  0  0  0  0  0
    7.4770   -0.7940   16.1990 S   0  0  0  0  0  0  0  0  0  0  0  0
    6.9430   -1.6830   14.8860 C   0  0  0  0  0  0  0  0  0  0  0  0
    6.8300   -2.3170   16.0350 C   0  0  0  0  0  0  0  0  0  0  0  0
    7.9950    0.6010   15.4130 N   0  0  0  0  0  0  0  0  0  0  0  0
  1  2  1  0
  2  3  1  0
  3  4  2  0
  3  5  1  0
  5  6  1  0
  5  7  1  0
  6  8  2  0
  6  9  1  0
  7 10  1  6
  7 11  1  0
  8 12  1  0
  9 13  2  0
 10 14  2  0
 10 15  1  0
 11 16  2  0
 11 17  1  0
 12 18  2  0
 13 18  1  0
 15 19  1  0
 16 20  1  0
 17 21  2  0
 17 22  1  0
 18 23  1  0
 19 24  2  0
 19 25  1  0
 20 26  2  0
 21 26  1  0
 23 27  1  0
 23 28  1  0
 23 29  1  0
 24 30  1  0
 25 31  2  0
 25 32  1  0
 30 33  1  0
 30 34  2  0
 31 34  1  0
 33 35  1  0
 35 36  2  0
 35 37  2  0
 35 38  1  0
M  END
