DAR-DIA-43a5904b-14
     RDKit          3D

 27 29  0  0  0  0  0  0  0  0999 V2000
   13.4450    5.8490   21.9080 C   0  0  0  0  0  0  0  0  0  0  0  0
   12.1390    5.4390   22.4710 C   0  0  0  0  0  0  0  0  0  0  0  0
   12.2300    5.7570   23.9700 C   0  0  0  0  0  0  0  0  0  0  0  0
   12.0480    3.9240   22.2860 C   0  0  0  0  0  0  0  0  0  0  0  0
   10.9840    3.2340   23.0440 C   0  0  0  0  0  0  0  0  0  0  0  0
    9.7700    3.1670   22.3010 N   0  0  0  0  0  0  0  0  0  0  0  0
    9.0730    1.9860   22.2350 C   0  0  0  0  0  0  0  0  0  0  0  0
    8.7600    1.5130   21.1490 O   0  0  0  0  0  0  0  0  0  0  0  0
    8.7570    1.4250   23.5000 C   0  0  1  0  0  0  0  0  0  0  0  0
    7.4040    1.1470   23.7120 C   0  0  0  0  0  0  0  0  0  0  0  0
    9.3560   -0.0080   23.7880 C   0  0  1  0  0  0  0  0  0  0  0  0
    7.1050   -0.2850   23.5010 C   0  0  0  0  0  0  0  0  0  0  0  0
    8.2920   -0.8980   23.5410 C   0  0  0  0  0  0  0  0  0  0  0  0
   10.7170   -0.2610   23.2410 C   0  0  0  0  0  0  0  0  0  0  0  0
    5.6450   -0.6940   23.2960 C   0  0  0  0  0  0  0  0  0  0  0  0
   11.7290    0.6630   23.5040 C   0  0  0  0  0  0  0  0  0  0  0  0
   10.9970   -1.4030   22.4690 C   0  0  0  0  0  0  0  0  0  0  0  0
    5.5180   -1.4690   22.2200 C   0  0  0  0  0  0  0  0  0  0  0  0
   12.9830    0.4600   23.0050 C   0  0  0  0  0  0  0  0  0  0  0  0
   12.2770   -1.5650   21.9960 C   0  0  0  0  0  0  0  0  0  0  0  0
    5.6920   -1.0240   20.9110 C   0  0  0  0  0  0  0  0  0  0  0  0
    5.1920   -2.8160   22.3960 C   0  0  0  0  0  0  0  0  0  0  0  0
   13.2290   -0.6570   22.2610 C   0  0  0  0  0  0  0  0  0  0  0  0
   12.7680   -2.8780   21.0520 Cl  0  0  0  0  0  0  0  0  0  0  0  0
    5.5420   -1.9120   19.8590 C   0  0  0  0  0  0  0  0  0  0  0  0
    5.0360   -3.7170   21.3910 N   0  0  0  0  0  0  0  0  0  0  0  0
    5.2210   -3.2300   20.1470 C   0  0  0  0  0  0  0  0  0  0  0  0
  1  2  1  0
  2  3  1  0
  2  4  1  0
  4  5  1  0
  5  6  1  0
  6  7  1  0
  7  8  2  0
  9  7  1  6
  9 10  1  0
  9 11  1  0
 10 12  1  0
 11 13  1  0
 12 13  2  0
 11 14  1  6
 12 15  1  0
 14 16  2  0
 14 17  1  0
 15 18  1  0
 16 19  1  0
 17 20  2  0
 18 21  2  0
 18 22  1  0
 19 23  2  0
 20 23  1  0
 20 24  1  0
 21 25  1  0
 22 26  2  0
 25 27  2  0
 26 27  1  0
M  END
