DAR-DIA-fb20be43-7-vinylsulfonamide
     RDKit          3D

 24 26  0  0  0  0  0  0  0  0999 V2000
    7.9910   -3.4710   19.5610 C   0  0  0  0  0  0  0  0  0  0  0  0
    7.1440   -2.6590   19.0080 C   0  0  0  0  0  0  0  0  0  0  0  0
    5.7320   -2.6590   20.0110 S   0  0  0  0  0  0  0  0  0  0  0  0
    5.2730   -4.0070   20.2960 O   0  0  0  0  0  0  0  0  0  0  0  0
    4.8810   -1.7230   19.3660 O   0  0  0  0  0  0  0  0  0  0  0  0
    6.3910   -1.9770   21.3590 N   0  0  0  0  0  0  0  0  0  0  0  0
    6.3360   -2.6360   22.6670 C   0  0  0  0  0  0  0  0  0  0  0  0
    7.5210   -1.0710   21.1310 C   0  0  0  0  0  0  0  0  0  0  0  0
    7.6330   -3.4060   22.9640 C   0  0  0  0  0  0  0  0  0  0  0  0
    8.7550   -1.3520   22.0050 C   0  0  0  0  0  0  0  0  0  0  0  0
    8.8770   -2.6770   22.6700 N   0  0  0  0  0  0  0  0  0  0  0  0
    9.6910   -2.5020   23.8820 C   0  0  0  0  0  0  0  0  0  0  0  0
   10.7290   -1.4630   23.5970 C   0  0  0  0  0  0  0  0  0  0  0  0
   11.9010   -1.8610   23.0080 C   0  0  0  0  0  0  0  0  0  0  0  0
   10.5330   -0.1060   23.8800 C   0  0  0  0  0  0  0  0  0  0  0  0
   12.8730   -0.9560   22.6880 C   0  0  0  0  0  0  0  0  0  0  0  0
   11.5680    0.8180   23.5150 C   0  0  0  0  0  0  0  0  0  0  0  0
    9.2440    0.4050   24.5470 C   0  0  0  0  0  0  0  0  0  0  0  0
   13.8630   -1.5560   22.1300 O   0  0  0  0  0  0  0  0  0  0  0  0
   12.7310    0.3720   22.9320 C   0  0  0  0  0  0  0  0  0  0  0  0
   11.3980    2.2870   23.7400 C   0  0  0  0  0  0  0  0  0  0  0  0
    9.0420    1.8940   24.7960 C   0  0  0  0  0  0  0  0  0  0  0  0
   13.4550   -1.9270   20.8480 C   0  0  0  0  0  0  0  0  0  0  0  0
   10.1560    2.8230   24.3560 C   0  0  0  0  0  0  0  0  0  0  0  0
  1  2  1  0
  3  2  1  0
  3  4  2  0
  3  5  2  0
  3  6  1  0
  6  7  1  0
  6  8  1  0
  7  9  1  0
  8 10  1  0
  9 11  1  0
 10 11  1  0
 11 12  1  0
 12 13  1  0
 13 14  2  0
 13 15  1  0
 14 16  1  0
 15 17  2  0
 15 18  1  0
 16 19  1  0
 16 20  2  0
 17 20  1  0
 17 21  1  0
 18 22  2  0
 19 23  1  0
 21 24  2  0
 22 24  1  0
M  END
