DAR-DIA-03336633-14
     RDKit          3D

 28 31  0  0  0  0  0  0  0  0999 V2000
    8.8740    0.8190   21.6150 O   0  0  0  0  0  0  0  0  0  0  0  0
    8.5890   -0.3600   21.8680 C   0  0  0  0  0  0  0  0  0  0  0  0
    9.0400   -1.1480   23.0500 C   0  0  0  0  0  0  0  0  0  0  0  0
    7.7710   -1.1080   21.0020 N   0  0  0  0  0  0  0  0  0  0  0  0
   10.4800   -0.7990   23.1290 C   0  0  0  0  0  0  0  0  0  0  0  0
    7.0170   -0.4900   20.0440 C   0  0  0  0  0  0  0  0  0  0  0  0
   11.6260   -1.7600   23.3510 C   0  0  0  0  0  0  0  0  0  0  0  0
   10.7060    0.5550   22.9630 C   0  0  0  0  0  0  0  0  0  0  0  0
    7.3010   -0.5890   18.5890 C   0  0  0  0  0  0  0  0  0  0  0  0
    5.8460    0.3610   20.1560 C   0  0  0  0  0  0  0  0  0  0  0  0
   12.9140   -1.0340   23.3450 C   0  0  0  0  0  0  0  0  0  0  0  0
   11.9410    1.1560   22.9690 C   0  0  0  0  0  0  0  0  0  0  0  0
    6.3680    0.1570   17.9480 N   0  0  0  0  0  0  0  0  0  0  0  0
    5.4980    0.7270   18.8370 C   0  0  0  0  0  0  0  0  0  0  0  0
    5.0090    0.8910   21.1850 C   0  0  0  0  0  0  0  0  0  0  0  0
   13.0310    0.3310   23.1580 C   0  0  0  0  0  0  0  0  0  0  0  0
    4.4830    1.5110   18.4280 N   0  0  0  0  0  0  0  0  0  0  0  0
    3.9370    1.7150   20.7840 C   0  0  0  0  0  0  0  0  0  0  0  0
    5.2350    0.6030   22.5980 N   0  0  0  0  0  0  0  0  0  0  0  0
    3.6790    2.0190   19.4420 C   0  0  0  0  0  0  0  0  0  0  0  0
    4.1930    0.2010   23.3570 C   0  0  0  0  0  0  0  0  0  0  0  0
    3.0150    0.3180   23.0500 O   0  0  0  0  0  0  0  0  0  0  0  0
    4.5430   -0.3800   24.5750 C   0  0  0  0  0  0  0  0  0  0  0  0
    3.4750   -0.8560   25.3160 C   0  0  0  0  0  0  0  0  0  0  0  0
    5.4870   -1.5630   24.3020 C   0  0  0  0  0  0  0  0  0  0  0  0
    3.6510   -2.0870   26.1750 C   0  0  0  0  0  0  0  0  0  0  0  0
    5.9560   -2.1320   25.4840 C   0  0  0  0  0  0  0  0  0  0  0  0
    4.9040   -2.7180   26.1890 C   0  0  0  0  0  0  0  0  0  0  0  0
  1  2  2  0
  2  3  1  0
  2  4  1  0
  3  5  1  0
  4  6  1  0
  5  7  2  0
  5  8  1  0
  6  9  2  0
  6 10  1  0
  7 11  1  0
  8 12  2  0
  9 13  1  0
 10 14  2  0
 13 14  1  0
 10 15  1  0
 11 16  2  0
 12 16  1  0
 14 17  1  0
 15 18  2  0
 15 19  1  0
 17 20  2  0
 18 20  1  0
 19 21  1  0
 21 22  2  0
 21 23  1  0
 23 24  1  0
 23 25  1  0
 24 26  1  0
 25 27  1  0
 26 28  1  0
 27 28  1  0
M  END
