DAR-DIA-2b784ede-8-acrylamide
     RDKit          3D

 33 35  0  0  0  0  0  0  0  0999 V2000
    6.4070   -3.8700   19.6560 C   0  0  0  0  0  0  0  0  0  0  0  0
    6.6070   -3.0620   20.8890 C   0  0  0  0  0  0  0  0  0  0  0  0
    5.3780   -2.2230   21.1080 C   0  0  0  0  0  0  0  0  0  0  0  0
    4.9600   -3.3530   21.3670 O   0  0  0  0  0  0  0  0  0  0  0  0
    6.2870   -1.2450   20.7530 N   0  0  0  0  0  0  0  0  0  0  0  0
    6.2640   -0.4260   19.5640 C   0  0  0  0  0  0  0  0  0  0  0  0
    7.2580   -0.9930   21.8830 C   0  0  1  0  0  0  0  0  0  0  0  0
    5.1930    0.4420   19.1790 C   0  0  0  0  0  0  0  0  0  0  0  0
    7.2930   -0.4120   18.7230 N   0  0  0  0  0  0  0  0  0  0  0  0
    8.5250   -1.9400   22.0090 C   0  0  0  0  0  0  0  0  0  0  0  0
    7.1750    0.4280   22.4760 C   0  0  0  0  0  0  0  0  0  0  0  0
    5.2150    1.2820   18.0220 C   0  0  0  0  0  0  0  0  0  0  0  0
    7.3420    0.4520   17.5370 C   0  0  0  0  0  0  0  0  0  0  0  0
    8.3540   -3.1250   22.2980 O   0  0  0  0  0  0  0  0  0  0  0  0
    9.8020   -1.4020   21.8200 N   0  0  0  0  0  0  0  0  0  0  0  0
    5.8410    0.7600   23.1010 C   0  0  0  0  0  0  0  0  0  0  0  0
    8.1250    1.4650   22.5400 C   0  0  0  0  0  0  0  0  0  0  0  0
    6.4260    1.3310   17.0710 C   0  0  0  0  0  0  0  0  0  0  0  0
   10.6560   -1.1570   22.9370 C   0  0  0  0  0  0  0  0  0  0  0  0
    5.5420    1.9430   23.6840 N   0  0  0  0  0  0  0  0  0  0  0  0
    7.7840    2.6690   23.1460 C   0  0  0  0  0  0  0  0  0  0  0  0
    9.4190    1.4050   22.0400 C   0  0  0  0  0  0  0  0  0  0  0  0
    6.5030    2.3480   15.8140 C   0  0  0  0  0  0  0  0  0  0  0  0
   10.0070   -0.7770   24.2900 C   0  0  0  0  0  0  0  0  0  0  0  0
   12.1040   -1.2390   22.9260 C   0  0  0  0  0  0  0  0  0  0  0  0
    6.5230    2.8600   23.6890 C   0  0  0  0  0  0  0  0  0  0  0  0
    4.9680    3.3480   16.0540 Cl  0  0  0  0  0  0  0  0  0  0  0  0
    8.5070   -0.6320   24.6280 C   0  0  0  0  0  0  0  0  0  0  0  0
   10.8410   -0.5310   25.3570 C   0  0  0  0  0  0  0  0  0  0  0  0
   12.8230   -0.9740   24.0480 C   0  0  0  0  0  0  0  0  0  0  0  0
   12.9410   -1.5690   21.9120 C   0  0  0  0  0  0  0  0  0  0  0  0
   12.2400   -0.6320   25.2120 C   0  0  0  0  0  0  0  0  0  0  0  0
   12.5180   -2.5220   21.0620 C   0  0  0  0  0  0  0  0  0  0  0  0
  1  2  1  0
  2  3  1  0
  3  4  2  0
  3  5  1  0
  5  6  1  0
  5  7  1  0
  6  8  2  0
  6  9  1  0
  7 10  1  6
  7 11  1  0
  8 12  1  0
  9 13  2  0
 10 14  2  0
 10 15  1  0
 11 16  2  0
 11 17  1  0
 12 18  2  0
 13 18  1  0
 15 19  1  0
 16 20  1  0
 17 21  2  0
 17 22  1  0
 18 23  1  0
 19 24  2  0
 19 25  1  0
 20 26  2  0
 21 26  1  0
 23 27  1  0
 24 28  1  0
 24 29  1  0
 25 30  2  0
 25 31  1  0
 29 32  2  0
 30 32  1  0
 31 33  1  0
M  END
