DAR-DIA-fb20be43-10-bromoalkyne
     RDKit          3D

 25 27  0  0  0  0  0  0  0  0999 V2000
    7.2490   -3.2330   19.5520 C   0  0  0  0  0  0  0  0  0  0  0  0
    6.3500   -2.9020   18.6500 C   0  0  0  0  0  0  0  0  0  0  0  0
    7.0790   -2.8430   20.8650 N   0  0  0  0  0  0  0  0  0  0  0  0
    7.4990   -1.5010   21.2670 C   0  0  0  0  0  0  0  0  0  0  0  0
    6.8100   -3.7510   21.9730 C   0  0  0  0  0  0  0  0  0  0  0  0
    8.7780   -1.6090   22.0990 C   0  0  0  0  0  0  0  0  0  0  0  0
    7.9910   -3.8000   22.9640 C   0  0  0  0  0  0  0  0  0  0  0  0
    8.6600   -2.5150   23.2710 N   0  0  0  0  0  0  0  0  0  0  0  0
   10.0230   -2.7410   23.7790 C   0  0  0  0  0  0  0  0  0  0  0  0
   10.8620   -1.5530   23.4650 C   0  0  0  0  0  0  0  0  0  0  0  0
   11.9780   -1.7550   22.6790 C   0  0  0  0  0  0  0  0  0  0  0  0
   10.5380   -0.2670   23.9140 C   0  0  0  0  0  0  0  0  0  0  0  0
   12.7600   -0.7020   22.3360 C   0  0  0  0  0  0  0  0  0  0  0  0
   11.3350    0.8430   23.5250 C   0  0  0  0  0  0  0  0  0  0  0  0
    9.3740    0.1150   24.8050 C   0  0  0  0  0  0  0  0  0  0  0  0
   13.7850   -0.9850   21.5820 F   0  0  0  0  0  0  0  0  0  0  0  0
   12.4710    0.6300   22.7480 C   0  0  0  0  0  0  0  0  0  0  0  0
    9.4980    1.5970   24.8470 C   0  0  0  0  0  0  0  0  0  0  0  0
   10.7000    2.0670   24.0590 C   0  0  0  0  0  0  0  0  0  0  0  0
   10.9740    3.3650   23.8650 C   0  0  0  0  0  0  0  0  0  0  0  0
    9.8510    4.1820   23.3160 C   0  0  0  0  0  0  0  0  0  0  0  0
   10.3250    5.4160   22.6570 N   0  0  0  0  0  0  0  0  0  0  0  0
   10.0000    6.6410   23.1840 C   0  0  0  0  0  0  0  0  0  0  0  0
    8.7890    7.2660   22.5510 C   0  0  0  0  0  0  0  0  0  0  0  0
   10.6240    7.1910   24.0870 O   0  0  0  0  0  0  0  0  0  0  0  0
  1  2  2  3
  1  3  1  0
  3  4  1  0
  3  5  1  0
  4  6  1  0
  5  7  1  0
  6  8  1  0
  7  8  1  0
  8  9  1  0
  9 10  1  0
 10 11  2  0
 10 12  1  0
 11 13  1  0
 12 14  2  0
 12 15  1  0
 13 16  1  0
 13 17  2  0
 14 17  1  0
 15 18  1  0
 14 19  1  0
 18 19  2  0
 19 20  1  0
 20 21  1  0
 21 22  1  0
 22 23  1  0
 23 24  1  0
 23 25  2  0
M  END
