DAR-DIA-23aa0b97-1-chloroacetamide
     RDKit          3D

 22 24  0  0  0  0  0  0  0  0999 V2000
    7.9330   -3.7670   20.3510 C   0  0  0  0  0  0  0  0  0  0  0  0
    6.5860   -4.5670   20.6330 C   0  0  0  0  0  0  0  0  0  0  0  0
    5.5210   -4.4220   19.9840 O   0  0  0  0  0  0  0  0  0  0  0  0
    6.6860   -5.7260   21.6200 C   0  0  0  0  0  0  0  0  0  0  0  0
    6.4880   -6.9810   22.2540 C   0  0  0  0  0  0  0  0  0  0  0  0
    5.8260   -5.7440   20.6680 C   0  0  0  0  0  0  0  0  0  0  0  0
    7.3880   -5.8230   22.6320 C   0  0  0  0  0  0  0  0  0  0  0  0
    6.3100   -4.4930   20.7270 C   0  0  0  0  0  0  0  0  0  0  0  0
    7.2740   -4.5780   21.8560 C   0  0  0  0  0  0  0  0  0  0  0  0
    6.1140   -3.1790   20.0720 N   0  0  0  0  0  0  0  0  0  0  0  0
    6.4420   -2.0580   20.8430 C   0  0  0  0  0  0  0  0  0  0  0  0
    7.5940   -1.7630   21.1440 O   0  0  0  0  0  0  0  0  0  0  0  0
    5.4110   -1.1360   21.3630 C   0  0  0  0  0  0  0  0  0  0  0  0
    5.3240   -0.1880   20.1960 C   0  0  0  0  0  0  0  0  0  0  0  0
    6.1300   -0.4100   19.1490 C   0  0  0  0  0  0  0  0  0  0  0  0
    4.5510    0.9850   19.8790 C   0  0  0  0  0  0  0  0  0  0  0  0
    5.9570    0.5080   18.1860 N   0  0  0  0  0  0  0  0  0  0  0  0
    4.9880    1.3780   18.6270 C   0  0  0  0  0  0  0  0  0  0  0  0
    3.5510    1.7820   20.4470 C   0  0  0  0  0  0  0  0  0  0  0  0
    4.5140    2.5210   17.8760 N   0  0  0  0  0  0  0  0  0  0  0  0
    3.0310    2.9180   19.7600 C   0  0  0  0  0  0  0  0  0  0  0  0
    3.5070    3.2820   18.4890 C   0  0  0  0  0  0  0  0  0  0  0  0
  1  2  1  0
  2  3  2  0
  2  4  1  0
  4  5  2  0
  4  6  1  0
  5  7  1  0
  6  8  2  0
  7  9  2  0
  8  9  1  0
  8 10  1  0
 10 11  1  0
 11 12  2  0
 11 13  1  0
 13 14  1  0
 14 15  2  0
 14 16  1  0
 15 17  1  0
 16 18  2  0
 17 18  1  0
 16 19  1  0
 18 20  1  0
 19 21  2  0
 20 22  2  0
 21 22  1  0
M  END
