DAR-DIA-0cde14eb-19
     RDKit          3D

 27 30  0  0  0  0  0  0  0  0999 V2000
    4.8410    1.1690   21.7300 C   0  0  0  0  0  0  0  0  0  0  0  0
    5.2690    0.9480   20.2950 C   0  0  0  0  0  0  0  0  0  0  0  0
    4.7000    1.8220   19.2390 C   0  0  0  0  0  0  0  0  0  0  0  0
    6.1650   -0.0140   19.8730 C   0  0  0  0  0  0  0  0  0  0  0  0
    5.1000    1.6210   17.9330 C   0  0  0  0  0  0  0  0  0  0  0  0
    6.4720   -0.1020   18.5350 C   0  0  0  0  0  0  0  0  0  0  0  0
    6.7580   -0.8660   20.6730 N   0  0  0  0  0  0  0  0  0  0  0  0
    5.9820    0.6710   17.5460 N   0  0  0  0  0  0  0  0  0  0  0  0
    7.9360   -0.5110   21.2140 C   0  0  0  0  0  0  0  0  0  0  0  0
    8.4860    0.5930   21.1470 O   0  0  0  0  0  0  0  0  0  0  0  0
    8.5090   -1.5280   21.8920 C   0  0  0  0  0  0  0  0  0  0  0  0
    9.3890   -1.1010   23.0110 C   0  0  0  0  0  0  0  0  0  0  0  0
    8.7880   -0.2950   24.1310 C   0  0  0  0  0  0  0  0  0  0  0  0
   10.6810   -1.4420   22.9860 C   0  0  0  0  0  0  0  0  0  0  0  0
    9.7550    0.0880   25.2280 C   0  0  0  0  0  0  0  0  0  0  0  0
   11.4880   -1.0620   24.0000 C   0  0  0  0  0  0  0  0  0  0  0  0
    9.1470    0.8620   26.3090 N   0  0  0  0  0  0  0  0  0  0  0  0
   11.0780   -0.3300   25.0910 C   0  0  0  0  0  0  0  0  0  0  0  0
   12.8040   -1.4230   23.8750 C   0  0  0  0  0  0  0  0  0  0  0  0
    8.9620    0.3430   27.5640 C   0  0  0  0  0  0  0  0  0  0  0  0
    8.0860    1.8250   26.0110 C   0  0  0  0  0  0  0  0  0  0  0  0
   13.3110    0.1950   22.6970 I   0  0  0  0  0  0  0  0  0  0  0  0
   13.4190   -2.2920   24.7520 C   0  0  0  0  0  0  0  0  0  0  0  0
   13.0130   -2.8310   23.2980 C   0  0  0  0  0  0  0  0  0  0  0  0
    7.5990   -0.2490   27.6210 C   0  0  0  0  0  0  0  0  0  0  0  0
    7.2460    1.9650   27.1240 C   0  0  0  0  0  0  0  0  0  0  0  0
    6.6960    0.7530   27.5770 C   0  0  0  0  0  0  0  0  0  0  0  0
  1  2  1  0
  2  3  2  0
  2  4  1  0
  3  5  1  0
  4  6  2  0
  4  7  1  0
  5  8  2  0
  6  8  1  0
  7  9  1  0
  9 10  2  0
  9 11  1  0
 11 12  1  0
 12 13  2  0
 12 14  1  0
 13 15  1  0
 14 16  2  0
 15 17  1  0
 15 18  2  0
 16 18  1  0
 16 19  1  0
 17 20  1  0
 17 21  1  0
 19 22  1  0
 19 23  1  0
 19 24  1  0
 23 24  1  0
 20 25  1  0
 21 26  1  0
 25 27  1  0
 26 27  1  0
M  END
