DAR-DIA-eace69ff-1
     RDKit          3D

 31 34  0  0  0  0  0  0  0  0999 V2000
   13.3110   -2.2330   20.8730 C   0  0  0  0  0  0  0  0  0  0  0  0
   13.2200   -2.1070   22.3410 C   0  0  0  0  0  0  0  0  0  0  0  0
   12.3620   -0.9540   22.6720 C   0  0  0  0  0  0  0  0  0  0  0  0
   11.0210   -1.6230   23.0110 C   0  0  0  0  0  0  0  0  0  0  0  0
   12.6890    0.3920   22.6630 C   0  0  0  0  0  0  0  0  0  0  0  0
    9.8540   -0.6950   23.4000 C   0  0  0  0  0  0  0  0  0  0  0  0
   11.5460    1.3120   23.0310 C   0  0  0  0  0  0  0  0  0  0  0  0
    8.5930   -1.1160   23.7430 O   0  0  0  0  0  0  0  0  0  0  0  0
   10.1790    0.8030   23.3930 C   0  0  0  0  0  0  0  0  0  0  0  0
   11.5910    2.8420   23.0980 C   0  0  0  0  0  0  0  0  0  0  0  0
    7.8850   -2.1130   22.9800 C   0  0  0  0  0  0  0  0  0  0  0  0
   12.6450    3.9340   22.8380 C   0  0  0  0  0  0  0  0  0  0  0  0
   10.2670    3.1930   23.5140 C   0  0  0  0  0  0  0  0  0  0  0  0
    9.4430    2.0660   23.6910 N   0  0  0  0  0  0  0  0  0  0  0  0
    6.5200   -2.0570   23.2730 C   0  0  0  0  0  0  0  0  0  0  0  0
    8.5110   -3.3240   23.2890 C   0  0  0  0  0  0  0  0  0  0  0  0
   12.2140    5.2910   23.2410 N   0  0  0  0  0  0  0  0  0  0  0  0
    7.8110    2.2380   24.1990 S   0  0  0  0  0  0  0  0  0  0  0  0
    6.2220   -2.9270   24.3210 C   0  0  0  0  0  0  0  0  0  0  0  0
    7.6710   -4.4470   23.3840 C   0  0  0  0  0  0  0  0  0  0  0  0
   11.0140    5.6810   22.5490 C   0  0  0  0  0  0  0  0  0  0  0  0
   11.9280    5.5360   24.6610 C   0  0  0  0  0  0  0  0  0  0  0  0
    7.0410    2.5600   23.0190 O   0  0  0  0  0  0  0  0  0  0  0  0
    7.5480    1.0680   24.9990 O   0  0  0  0  0  0  0  0  0  0  0  0
    7.7360    3.5150   25.2930 N   0  0  0  0  0  0  0  0  0  0  0  0
    6.3990   -4.2400   23.9290 C   0  0  0  0  0  0  0  0  0  0  0  0
    7.4680    4.7910   24.8450 C   0  0  0  0  0  0  0  0  0  0  0  0
    7.2860    3.2420   26.6770 C   0  0  0  0  0  0  0  0  0  0  0  0
    7.8890    5.7540   25.7590 C   0  0  0  0  0  0  0  0  0  0  0  0
    7.9110    4.2390   27.6460 C   0  0  0  0  0  0  0  0  0  0  0  0
    8.4740    5.3210   26.9590 C   0  0  0  0  0  0  0  0  0  0  0  0
  1  2  1  0
  2  3  1  0
  3  4  2  0
  3  5  1  0
  4  6  1  0
  5  7  2  0
  6  8  1  0
  6  9  2  0
  7  9  1  0
  7 10  1  0
  8 11  1  0
 10 12  1  0
 10 13  2  0
  9 14  1  0
 13 14  1  0
 11 15  1  0
 11 16  1  0
 12 17  1  0
 18 14  1  0
 15 19  1  0
 16 20  1  0
 17 21  1  0
 17 22  1  0
 18 23  2  0
 18 24  2  0
 18 25  1  0
 19 26  1  0
 20 26  1  0
 25 27  1  0
 25 28  1  0
 27 29  1  0
 28 30  1  0
 29 31  1  0
 30 31  1  0
M  END
