DAR-DIA-23aa0b97-5-vinylsulfonamide
     RDKit          3D

 21 22  0  0  0  0  0  0  0  0999 V2000
    6.0650   -3.7110   19.5230 C   0  0  0  0  0  0  0  0  0  0  0  0
    5.7580   -2.5000   20.3940 C   0  0  0  0  0  0  0  0  0  0  0  0
    5.3930   -3.0120   22.0410 S   0  0  0  0  0  0  0  0  0  0  0  0
    4.9390   -4.3850   21.9460 O   0  0  0  0  0  0  0  0  0  0  0  0
    4.5440   -2.0310   22.6730 O   0  0  0  0  0  0  0  0  0  0  0  0
    7.0210   -2.7900   22.7130 C   0  0  0  0  0  0  0  0  0  0  0  0
    7.8300   -3.9440   23.4390 C   0  0  0  0  0  0  0  0  0  0  0  0
    7.5290   -1.3910   22.4960 C   0  0  0  0  0  0  0  0  0  0  0  0
    9.0010   -3.1870   23.7170 C   0  0  0  0  0  0  0  0  0  0  0  0
    8.8280   -0.8580   22.9050 C   0  0  0  0  0  0  0  0  0  0  0  0
    8.5520   -2.0920   23.1720 C   0  0  0  0  0  0  0  0  0  0  0  0
    8.3540    0.4070   22.2940 N   0  0  0  0  0  0  0  0  0  0  0  0
    7.8270    0.4540   21.0070 C   0  0  0  0  0  0  0  0  0  0  0  0
    7.7780   -0.5180   20.2530 O   0  0  0  0  0  0  0  0  0  0  0  0
    7.3350    1.7840   20.6270 N   0  0  0  0  0  0  0  0  0  0  0  0
    6.8530    2.7580   21.4380 C   0  0  0  0  0  0  0  0  0  0  0  0
    8.0700    3.3220   22.4940 C   0  0  0  0  0  0  0  0  0  0  0  0
    5.3390    3.1860   21.2770 C   0  0  0  0  0  0  0  0  0  0  0  0
    7.0260    3.8870   22.6590 C   0  0  0  0  0  0  0  0  0  0  0  0
    4.7560    4.2010   22.0890 N   0  0  0  0  0  0  0  0  0  0  0  0
    5.9300    3.8260   22.1650 C   0  0  0  0  0  0  0  0  0  0  0  0
  1  2  1  0
  3  2  1  0
  3  4  2  0
  3  5  2  0
  3  6  1  0
  6  7  2  0
  6  8  1  0
  7  9  1  0
  8 10  2  0
  9 11  2  0
 10 11  1  0
 10 12  1  0
 12 13  1  0
 13 14  2  0
 13 15  1  0
 15 16  1  0
 16 17  2  0
 16 18  1  0
 17 19  1  0
 18 20  2  0
 19 21  2  0
 20 21  1  0
M  END
