DAR-DIA-fb20be43-8-chloroacetamide
     RDKit          3D

 21 23  0  0  0  0  0  0  0  0999 V2000
    7.2660   -2.9530   18.7620 C   0  0  0  0  0  0  0  0  0  0  0  0
    6.3940   -3.0990   19.7440 C   0  0  0  0  0  0  0  0  0  0  0  0
    5.4920   -3.9360   19.6270 O   0  0  0  0  0  0  0  0  0  0  0  0
    6.4990   -2.3250   20.8820 N   0  0  0  0  0  0  0  0  0  0  0  0
    7.4420   -1.1860   20.8840 C   0  0  0  0  0  0  0  0  0  0  0  0
    6.2240   -2.9730   22.1760 C   0  0  0  0  0  0  0  0  0  0  0  0
    8.6180   -1.4640   21.8290 C   0  0  0  0  0  0  0  0  0  0  0  0
    7.4070   -3.2900   22.8730 C   0  0  0  0  0  0  0  0  0  0  0  0
    8.1640   -2.0620   23.0990 N   0  0  0  0  0  0  0  0  0  0  0  0
    9.2770   -2.2060   24.0240 C   0  0  0  0  0  0  0  0  0  0  0  0
   10.3940   -1.3750   23.5340 C   0  0  0  0  0  0  0  0  0  0  0  0
   11.3450   -1.9470   22.7390 C   0  0  0  0  0  0  0  0  0  0  0  0
   10.4560   -0.0110   23.8400 C   0  0  0  0  0  0  0  0  0  0  0  0
   12.3490   -1.1940   22.2650 C   0  0  0  0  0  0  0  0  0  0  0  0
   11.5270    0.7740   23.3390 C   0  0  0  0  0  0  0  0  0  0  0  0
    9.3690    0.6450   24.6890 C   0  0  0  0  0  0  0  0  0  0  0  0
   13.3770   -2.0210   21.2560 Cl  0  0  0  0  0  0  0  0  0  0  0  0
   12.4950    0.1780   22.5640 C   0  0  0  0  0  0  0  0  0  0  0  0
   11.6170    2.1370   23.5830 C   0  0  0  0  0  0  0  0  0  0  0  0
    9.4670    2.1380   24.9320 C   0  0  0  0  0  0  0  0  0  0  0  0
   10.5420    2.8150   24.3880 C   0  0  0  0  0  0  0  0  0  0  0  0
  1  2  1  0
  2  3  2  0
  2  4  1  0
  4  5  1  0
  4  6  1  0
  5  7  1  0
  6  8  1  0
  7  9  1  0
  8  9  1  0
  9 10  1  0
 10 11  1  0
 11 12  2  0
 11 13  1  0
 12 14  1  0
 13 15  2  0
 13 16  1  0
 14 17  1  0
 14 18  2  0
 15 18  1  0
 15 19  1  0
 16 20  2  0
 19 21  2  0
 20 21  1  0
M  END
