DAR-DIA-2b784ede-44-bromoalkyne
     RDKit          3D

 31 34  0  0  0  0  0  0  0  0999 V2000
    7.5250   -3.9210   20.3170 C   0  0  0  0  0  0  0  0  0  0  0  0
    6.0370   -4.3310   20.0410 C   0  0  0  0  0  0  0  0  0  0  0  0
    7.9650   -2.9430   21.2770 N   0  0  0  0  0  0  0  0  0  0  0  0
    8.3000   -3.3490   22.6630 C   0  0  1  0  0  0  0  0  0  0  0  0
    8.2130   -1.4470   21.0650 C   0  0  1  0  0  0  0  0  0  0  0  0
    9.7610   -2.8520   22.9020 C   0  0  0  0  0  0  0  0  0  0  0  0
    7.5270   -2.6960   23.7190 N   0  0  0  0  0  0  0  0  0  0  0  0
    7.1990   -0.6430   21.5960 C   0  0  0  0  0  0  0  0  0  0  0  0
    9.5900   -0.9640   21.6210 C   0  0  0  0  0  0  0  0  0  0  0  0
    9.6790   -2.3940   24.3970 C   0  0  0  0  0  0  0  0  0  0  0  0
    8.4190   -2.7960   24.8810 C   0  0  0  0  0  0  0  0  0  0  0  0
    7.6190    0.2840   22.5090 O   0  0  0  0  0  0  0  0  0  0  0  0
    5.9350   -0.7070   21.2870 N   0  0  0  0  0  0  0  0  0  0  0  0
    9.7520    0.4650   22.1890 C   0  0  0  0  0  0  0  0  0  0  0  0
   10.7530   -1.7670   21.6460 C   0  0  0  0  0  0  0  0  0  0  0  0
   10.9390   -3.1020   24.9530 C   0  0  0  0  0  0  0  0  0  0  0  0
    9.9160   -0.8460   24.5340 C   0  0  0  0  0  0  0  0  0  0  0  0
    5.5380    0.2280   20.3130 C   0  0  0  0  0  0  0  0  0  0  0  0
   11.1320    0.8710   22.7220 C   0  0  0  0  0  0  0  0  0  0  0  0
   11.9860   -1.4140   22.1130 N   0  0  0  0  0  0  0  0  0  0  0  0
   12.0330   -2.0710   24.5500 C   0  0  0  0  0  0  0  0  0  0  0  0
   11.2810   -0.7540   24.7950 C   0  0  0  0  0  0  0  0  0  0  0  0
    5.8580   -0.0460   18.9660 C   0  0  0  0  0  0  0  0  0  0  0  0
    4.8360    1.4200   20.6890 C   0  0  0  0  0  0  0  0  0  0  0  0
   12.1990   -0.1830   22.6260 C   0  0  0  0  0  0  0  0  0  0  0  0
    6.6200   -1.3480   18.6360 C   0  0  0  0  0  0  0  0  0  0  0  0
    5.4930    0.8360   17.9580 C   0  0  0  0  0  0  0  0  0  0  0  0
    4.4420    2.3770   19.5710 C   0  0  0  0  0  0  0  0  0  0  0  0
    4.4530    1.8080   22.0930 C   0  0  0  0  0  0  0  0  0  0  0  0
    4.7390    2.1240   18.2590 C   0  0  0  0  0  0  0  0  0  0  0  0
    4.9330    2.7960   22.6520 O   0  0  0  0  0  0  0  0  0  0  0  0
  1  2  2  3
  1  3  1  0
  4  3  1  6
  3  5  1  0
  4  6  1  0
  4  7  1  0
  5  8  1  1
  5  9  1  0
 10  6  1  0
  7 11  1  0
 10 11  1  0
  8 12  2  0
  8 13  1  0
  9 14  2  0
  9 15  1  0
 10 16  1  0
 10 17  1  0
 13 18  1  0
 14 19  1  0
 15 20  2  0
 16 21  1  0
 17 22  1  0
 21 22  1  0
 18 23  2  0
 18 24  1  0
 19 25  2  0
 20 25  1  0
 23 26  1  0
 23 27  1  0
 24 28  2  0
 24 29  1  0
 27 30  2  0
 28 30  1  0
 29 31  1  0
M  END
