DAR-DIA-fb20be43-14-nitrile
     RDKit          3D

 26 28  0  0  0  0  0  0  0  0999 V2000
    7.0340   -3.2560   19.5250 C   0  0  0  0  0  0  0  0  0  0  0  0
    6.0910   -3.1860   18.7270 N   0  0  0  0  0  0  0  0  0  0  0  0
    7.0400   -2.6150   20.7250 N   0  0  0  0  0  0  0  0  0  0  0  0
    6.6660   -3.2970   21.9730 C   0  0  0  0  0  0  0  0  0  0  0  0
    7.5800   -1.2610   20.8580 C   0  0  0  0  0  0  0  0  0  0  0  0
    7.7820   -3.1680   23.0350 C   0  0  0  0  0  0  0  0  0  0  0  0
    8.6880   -1.2400   21.9090 C   0  0  0  0  0  0  0  0  0  0  0  0
    8.2520   -1.7820   23.2050 N   0  0  0  0  0  0  0  0  0  0  0  0
    9.3260   -1.6910   24.2020 C   0  0  0  0  0  0  0  0  0  0  0  0
   10.4670   -0.8260   23.6930 C   0  0  0  0  0  0  0  0  0  0  0  0
   11.6130   -1.5600   23.0950 C   0  0  0  0  0  0  0  0  0  0  0  0
   10.5660    0.5810   23.6900 C   0  0  0  0  0  0  0  0  0  0  0  0
   12.7050   -0.8710   22.5800 C   0  0  0  0  0  0  0  0  0  0  0  0
   11.6770    1.2060   23.1640 C   0  0  0  0  0  0  0  0  0  0  0  0
    9.7520    1.6080   24.1170 N   0  0  0  0  0  0  0  0  0  0  0  0
   13.7220   -1.4900   22.0070 O   0  0  0  0  0  0  0  0  0  0  0  0
   12.7340    0.4990   22.6360 C   0  0  0  0  0  0  0  0  0  0  0  0
   11.5460    2.5900   23.2380 C   0  0  0  0  0  0  0  0  0  0  0  0
   10.3330    2.8340   23.8410 C   0  0  0  0  0  0  0  0  0  0  0  0
   13.1260   -2.4410   21.1500 C   0  0  0  0  0  0  0  0  0  0  0  0
   12.5560    3.6230   22.7200 C   0  0  0  0  0  0  0  0  0  0  0  0
   12.3240    5.0260   23.2590 C   0  0  0  0  0  0  0  0  0  0  0  0
   11.1860    5.6720   22.6260 N   0  0  0  0  0  0  0  0  0  0  0  0
   10.1670    6.2060   23.3750 C   0  0  0  0  0  0  0  0  0  0  0  0
    9.1360    6.6220   22.6150 C   0  0  0  0  0  0  0  0  0  0  0  0
   10.1730    6.3010   24.6020 O   0  0  0  0  0  0  0  0  0  0  0  0
  1  2  2  3
  1  3  1  0
  3  4  1  0
  3  5  1  0
  4  6  1  0
  5  7  1  0
  6  8  1  0
  7  8  1  0
  8  9  1  0
  9 10  1  0
 10 11  2  0
 10 12  1  0
 11 13  1  0
 12 14  2  0
 12 15  1  0
 13 16  1  0
 13 17  2  0
 14 17  1  0
 14 18  1  0
 15 19  1  0
 18 19  2  0
 16 20  1  0
 18 21  1  0
 21 22  1  0
 22 23  1  0
 23 24  1  0
 24 25  1  0
 24 26  2  0
M  END
