DAR-DIA-2b784ede-50-vinylsulfonamide
     RDKit          3D

 36 38  0  0  0  0  0  0  0  0999 V2000
    8.1010   -3.6330   19.8800 C   0  0  0  0  0  0  0  0  0  0  0  0
    6.6620   -4.0510   20.0680 C   0  0  0  0  0  0  0  0  0  0  0  0
    5.7950   -2.8490   19.1990 S   0  0  0  0  0  0  0  0  0  0  0  0
    4.4710   -3.0130   19.6490 O   0  0  0  0  0  0  0  0  0  0  0  0
    6.1190   -2.9630   17.8200 O   0  0  0  0  0  0  0  0  0  0  0  0
    6.5700   -1.4780   19.7580 N   0  0  0  0  0  0  0  0  0  0  0  0
    6.0000   -0.2350   19.3170 C   0  0  0  0  0  0  0  0  0  0  0  0
    7.7120   -1.7210   20.7210 C   0  0  1  0  0  0  0  0  0  0  0  0
    5.1300    0.3870   20.3780 C   0  0  0  0  0  0  0  0  0  0  0  0
    5.9690    0.6520   18.1260 N   0  0  0  0  0  0  0  0  0  0  0  0
    8.7040   -0.8120   21.0960 C   0  0  0  0  0  0  0  0  0  0  0  0
    7.3670   -2.6070   21.8760 C   0  0  0  0  0  0  0  0  0  0  0  0
    4.6730    1.6040   19.6950 C   0  0  0  0  0  0  0  0  0  0  0  0
    5.1840    1.7650   18.3080 N   0  0  0  0  0  0  0  0  0  0  0  0
    8.3210    0.5700   21.0040 O   0  0  0  0  0  0  0  0  0  0  0  0
    9.9320   -1.3730   21.4860 N   0  0  0  0  0  0  0  0  0  0  0  0
    8.5830   -3.0130   22.7600 C   0  0  0  0  0  0  0  0  0  0  0  0
    6.0380   -2.9460   21.9910 C   0  0  0  0  0  0  0  0  0  0  0  0
    3.7720    2.4190   20.6020 C   0  0  0  0  0  0  0  0  0  0  0  0
   10.7450   -1.1090   22.6320 C   0  0  0  0  0  0  0  0  0  0  0  0
    7.7620   -3.8810   23.7050 C   0  0  0  0  0  0  0  0  0  0  0  0
    5.5140   -3.7290   22.9060 N   0  0  0  0  0  0  0  0  0  0  0  0
    3.9920    3.8630   20.1310 C   0  0  0  0  0  0  0  0  0  0  0  0
    4.3020    2.2520   22.0570 C   0  0  0  0  0  0  0  0  0  0  0  0
    2.2960    2.0030   20.4500 C   0  0  0  0  0  0  0  0  0  0  0  0
   10.0320   -0.8170   23.7980 C   0  0  0  0  0  0  0  0  0  0  0  0
   12.1760   -1.1330   22.6760 C   0  0  0  0  0  0  0  0  0  0  0  0
    6.4090   -4.1810   23.7410 C   0  0  0  0  0  0  0  0  0  0  0  0
    8.6500   -0.8630   23.8090 C   0  0  0  0  0  0  0  0  0  0  0  0
   10.6530   -0.4930   25.0100 C   0  0  0  0  0  0  0  0  0  0  0  0
   12.8380   -0.7950   23.9670 C   0  0  0  0  0  0  0  0  0  0  0  0
   13.1680   -1.4770   21.6390 C   0  0  0  0  0  0  0  0  0  0  0  0
    7.9680    0.3750   23.2230 C   0  0  0  0  0  0  0  0  0  0  0  0
   12.1770   -0.4800   25.0860 C   0  0  0  0  0  0  0  0  0  0  0  0
   12.8840   -2.8040   20.9350 C   0  0  0  0  0  0  0  0  0  0  0  0
   14.0060   -3.4640   20.3460 O   0  0  0  0  0  0  0  0  0  0  0  0
  1  2  1  0
  2  3  1  0
  3  4  2  0
  3  5  2  0
  3  6  1  0
  6  7  1  0
  6  8  1  0
  7  9  2  0
  7 10  1  0
  8 11  1  1
  8 12  1  0
  9 13  1  0
 10 14  1  0
 13 14  2  0
 11 15  2  0
 11 16  1  0
 12 17  2  0
 12 18  1  0
 13 19  1  0
 16 20  1  0
 17 21  1  0
 18 22  2  0
 19 23  1  0
 19 24  1  0
 19 25  1  0
 20 26  2  0
 20 27  1  0
 21 28  2  0
 22 28  1  0
 26 29  1  0
 26 30  1  0
 27 31  2  0
 27 32  1  0
 29 33  1  0
 30 34  2  0
 31 34  1  0
 32 35  1  0
 35 36  1  0
M  END
