DAR-DIA-842b4336-14-chloroacetamide
     RDKit          3D

 18 19  0  0  0  0  0  0  0  0999 V2000
    8.6130   -3.2820   20.0230 C   0  0  0  0  0  0  0  0  0  0  0  0
    7.5790   -3.7770   20.7950 C   0  0  0  0  0  0  0  0  0  0  0  0
    6.4480   -4.2880   20.1550 O   0  0  0  0  0  0  0  0  0  0  0  0
    8.1950   -3.5150   22.2880 C   0  0  0  0  0  0  0  0  0  0  0  0
    8.8960   -2.9680   23.6520 C   0  0  0  0  0  0  0  0  0  0  0  0
    8.5890   -1.9500   21.5210 S   0  0  0  0  0  0  0  0  0  0  0  0
    9.4970   -1.6500   23.7470 C   0  0  0  0  0  0  0  0  0  0  0  0
    9.3930   -0.9780   22.6630 C   0  0  0  0  0  0  0  0  0  0  0  0
    9.8300    0.2950   22.4520 C   0  0  0  0  0  0  0  0  0  0  0  0
    8.9230    1.0040   21.6480 C   0  0  0  0  0  0  0  0  0  0  0  0
    9.1680    2.1280   21.2630 O   0  0  0  0  0  0  0  0  0  0  0  0
    7.7000    0.2320   21.3550 N   0  0  0  0  0  0  0  0  0  0  0  0
    6.9020    0.4360   20.2210 C   0  0  0  0  0  0  0  0  0  0  0  0
    5.7120    1.3940   20.3770 C   0  0  0  0  0  0  0  0  0  0  0  0
    7.1140   -0.1550   18.9860 C   0  0  0  0  0  0  0  0  0  0  0  0
    4.9890    1.5660   19.2630 C   0  0  0  0  0  0  0  0  0  0  0  0
    6.3420    0.0710   17.9000 N   0  0  0  0  0  0  0  0  0  0  0  0
    5.2950    0.9340   18.0820 C   0  0  0  0  0  0  0  0  0  0  0  0
  1  2  1  0
  2  3  2  0
  2  4  1  0
  4  5  2  0
  4  6  1  0
  5  7  1  0
  6  8  1  0
  7  8  2  0
  8  9  1  0
  9 10  1  0
 10 11  2  0
 10 12  1  0
 12 13  1  0
 13 14  2  0
 13 15  1  0
 14 16  1  0
 15 17  2  0
 16 18  2  0
 17 18  1  0
M  END
