DAR-DIA-2b784ede-24-bromoalkyne
     RDKit          3D

 28 30  0  0  0  0  0  0  0  0999 V2000
    6.7160   -4.1640   19.8010 C   0  0  0  0  0  0  0  0  0  0  0  0
    5.3240   -4.2950   19.8380 C   0  0  0  0  0  0  0  0  0  0  0  0
    7.1230   -2.8430   19.7230 N   0  0  0  0  0  0  0  0  0  0  0  0
    8.0230   -2.4940   20.7360 C   0  0  0  0  0  0  0  0  0  0  0  0
    5.8350   -2.1330   19.8750 C   0  0  1  0  0  0  0  0  0  0  0  0
    8.5560   -1.2180   20.8750 C   0  0  0  0  0  0  0  0  0  0  0  0
    8.4030   -3.3960   21.6240 N   0  0  0  0  0  0  0  0  0  0  0  0
    5.2320   -2.6110   21.2320 C   0  0  0  0  0  0  0  0  0  0  0  0
    5.5920   -0.6550   19.5670 C   0  0  0  0  0  0  0  0  0  0  0  0
    9.4760   -0.8860   21.8750 C   0  0  0  0  0  0  0  0  0  0  0  0
    9.2960   -3.0750   22.6210 C   0  0  0  0  0  0  0  0  0  0  0  0
    4.9250   -3.8040   21.3500 O   0  0  0  0  0  0  0  0  0  0  0  0
    5.0320   -1.8280   22.3000 N   0  0  0  0  0  0  0  0  0  0  0  0
    5.5800   -0.3190   18.0910 C   0  0  0  0  0  0  0  0  0  0  0  0
    5.3480    0.4660   20.4050 C   0  0  0  0  0  0  0  0  0  0  0  0
    9.8640   -1.8570   22.7840 C   0  0  0  0  0  0  0  0  0  0  0  0
    5.5070   -2.3100   23.4560 C   0  0  0  0  0  0  0  0  0  0  0  0
    5.3590    0.8760   17.5200 N   0  0  0  0  0  0  0  0  0  0  0  0
    5.1170    1.6630   19.7520 C   0  0  0  0  0  0  0  0  0  0  0  0
    5.2950    0.5300   21.9110 C   0  0  0  0  0  0  0  0  0  0  0  0
   10.8250   -1.7280   23.9310 C   0  0  0  0  0  0  0  0  0  0  0  0
    5.1220    1.8440   18.3890 C   0  0  0  0  0  0  0  0  0  0  0  0
   10.3860   -2.7620   24.9810 C   0  0  0  0  0  0  0  0  0  0  0  0
   10.7740   -0.3280   24.5480 C   0  0  0  0  0  0  0  0  0  0  0  0
   12.3260   -1.8680   23.5890 C   0  0  0  0  0  0  0  0  0  0  0  0
   10.0070   -3.5610   25.7240 N   0  0  0  0  0  0  0  0  0  0  0  0
   11.8990    0.4340   23.8140 C   0  0  0  0  0  0  0  0  0  0  0  0
   12.6880   -0.6380   23.0280 C   0  0  0  0  0  0  0  0  0  0  0  0
  1  2  2  3
  1  3  1  0
  3  4  1  0
  3  5  1  0
  4  6  2  0
  4  7  1  0
  5  8  1  1
  5  9  1  0
  6 10  1  0
  7 11  2  0
  8 12  2  0
  8 13  1  0
  9 14  2  0
  9 15  1  0
 10 16  2  0
 11 16  1  0
 13 17  1  0
 14 18  1  0
 15 19  2  0
 15 20  1  0
 16 21  1  0
 18 22  2  0
 19 22  1  0
 21 23  1  0
 21 24  1  0
 21 25  1  0
 23 26  3  0
 24 27  1  0
 25 28  1  0
 27 28  1  0
M  END
