DAR-DIA-0cde14eb-21
     RDKit          3D

 27 30  0  0  0  0  0  0  0  0999 V2000
    4.9080    1.0140   21.8460 C   0  0  0  0  0  0  0  0  0  0  0  0
    5.3170    0.9740   20.3930 C   0  0  0  0  0  0  0  0  0  0  0  0
    4.5440    1.7850   19.4280 C   0  0  0  0  0  0  0  0  0  0  0  0
    6.3690    0.2480   19.8710 C   0  0  0  0  0  0  0  0  0  0  0  0
    4.9180    1.7640   18.1080 C   0  0  0  0  0  0  0  0  0  0  0  0
    6.6270    0.3160   18.5220 C   0  0  0  0  0  0  0  0  0  0  0  0
    7.1530   -0.5000   20.6110 N   0  0  0  0  0  0  0  0  0  0  0  0
    5.9420    1.0480   17.6130 N   0  0  0  0  0  0  0  0  0  0  0  0
    8.0150    0.2240   21.3530 C   0  0  0  0  0  0  0  0  0  0  0  0
    8.6020    1.2620   20.9960 O   0  0  0  0  0  0  0  0  0  0  0  0
    8.1990   -0.3510   22.6660 N   0  0  0  0  0  0  0  0  0  0  0  0
    9.5880   -0.0460   22.8550 C   0  0  0  0  0  0  0  0  0  0  0  0
    9.9360    1.4240   22.9620 C   0  0  0  0  0  0  0  0  0  0  0  0
   10.5330   -0.9580   22.9190 C   0  0  0  0  0  0  0  0  0  0  0  0
   11.3840    1.8080   23.1340 C   0  0  0  0  0  0  0  0  0  0  0  0
   11.8210   -0.6050   23.0790 C   0  0  0  0  0  0  0  0  0  0  0  0
   11.7100    3.2520   23.2390 N   0  0  0  0  0  0  0  0  0  0  0  0
   12.2840    0.7350   23.1870 C   0  0  0  0  0  0  0  0  0  0  0  0
   12.5700   -1.6790   23.1030 C   0  0  0  0  0  0  0  0  0  0  0  0
   12.7490    3.7610   22.3040 C   0  0  0  0  0  0  0  0  0  0  0  0
   10.6400    4.1970   23.6010 C   0  0  0  0  0  0  0  0  0  0  0  0
   12.6640   -2.5510   24.6430 Cl  0  0  0  0  0  0  0  0  0  0  0  0
   13.6540   -1.6080   22.4110 C   0  0  0  0  0  0  0  0  0  0  0  0
   12.5430   -2.4650   21.7360 C   0  0  0  0  0  0  0  0  0  0  0  0
   13.1630    5.0510   22.6440 C   0  0  0  0  0  0  0  0  0  0  0  0
   11.2860    5.3700   24.0020 C   0  0  0  0  0  0  0  0  0  0  0  0
   12.0000    5.9150   22.9480 C   0  0  0  0  0  0  0  0  0  0  0  0
  1  2  1  0
  2  3  2  0
  2  4  1  0
  3  5  1  0
  4  6  2  0
  4  7  1  0
  5  8  2  0
  6  8  1  0
  7  9  1  0
  9 10  2  0
  9 11  1  0
 11 12  1  0
 12 13  2  0
 12 14  1  0
 13 15  1  0
 14 16  2  0
 15 17  1  0
 15 18  2  0
 16 18  1  0
 16 19  1  0
 17 20  1  0
 17 21  1  0
 19 22  1  0
 19 23  1  0
 19 24  1  0
 23 24  1  0
 20 25  1  0
 21 26  1  0
 25 27  1  0
 26 27  1  0
M  END
