DAR-DIA-2b784ede-29-nitrile
     RDKit          3D

 33 35  0  0  0  0  0  0  0  0999 V2000
    6.5660   -3.0200   20.2670 C   0  0  0  0  0  0  0  0  0  0  0  0
    5.5060   -3.4830   19.6280 N   0  0  0  0  0  0  0  0  0  0  0  0
    6.5290   -2.0240   21.5290 N   0  0  0  0  0  0  0  0  0  0  0  0
    5.9840   -2.5510   22.7560 C   0  0  0  0  0  0  0  0  0  0  0  0
    6.5800   -0.4440   21.5860 C   0  0  2  0  0  0  0  0  0  0  0  0
    5.8790   -3.9260   23.0030 C   0  0  0  0  0  0  0  0  0  0  0  0
    5.4900   -1.9530   23.8820 C   0  0  0  0  0  0  0  0  0  0  0  0
    7.4980    0.3900   22.6360 C   0  0  0  0  0  0  0  0  0  0  0  0
    5.1890    0.2270   21.5840 C   0  0  0  0  0  0  0  0  0  0  0  0
    5.3580   -4.2040   24.1970 N   0  0  0  0  0  0  0  0  0  0  0  0
    5.1230   -2.9760   24.7270 N   0  0  0  0  0  0  0  0  0  0  0  0
    7.7860    1.5710   22.3840 O   0  0  0  0  0  0  0  0  0  0  0  0
    7.9610   -0.1420   23.8520 N   0  0  0  0  0  0  0  0  0  0  0  0
    4.5310    0.6950   22.8590 C   0  0  0  0  0  0  0  0  0  0  0  0
    4.4480    0.4510   20.4080 C   0  0  0  0  0  0  0  0  0  0  0  0
    4.5380   -2.8880   26.0690 C   0  0  0  0  0  0  0  0  0  0  0  0
    9.1230    0.4190   24.4690 C   0  0  0  0  0  0  0  0  0  0  0  0
    3.3210    1.2910   22.9340 N   0  0  0  0  0  0  0  0  0  0  0  0
    3.2110    1.0700   20.5360 C   0  0  0  0  0  0  0  0  0  0  0  0
    4.8550    0.0990   19.1050 C   0  0  0  0  0  0  0  0  0  0  0  0
    5.5660   -2.6780   27.0020 C   0  0  0  0  0  0  0  0  0  0  0  0
    3.7850   -4.1770   26.4610 C   0  0  0  0  0  0  0  0  0  0  0  0
    3.5330   -1.7180   26.0970 C   0  0  0  0  0  0  0  0  0  0  0  0
   10.4350   -0.0060   23.7540 C   0  0  0  0  0  0  0  0  0  0  0  0
    2.6880    1.4650   21.7610 C   0  0  0  0  0  0  0  0  0  0  0  0
   10.6440   -1.5010   23.4220 C   0  0  0  0  0  0  0  0  0  0  0  0
   11.4640    0.9060   23.3680 C   0  0  0  0  0  0  0  0  0  0  0  0
    9.6650   -2.6630   23.7250 C   0  0  0  0  0  0  0  0  0  0  0  0
   11.8220   -1.8880   22.7730 C   0  0  0  0  0  0  0  0  0  0  0  0
   12.6010    0.4130   22.7390 C   0  0  0  0  0  0  0  0  0  0  0  0
   11.3920    2.2640   23.5680 C   0  0  0  0  0  0  0  0  0  0  0  0
   12.7930   -0.9220   22.4400 C   0  0  0  0  0  0  0  0  0  0  0  0
   10.4660    2.8640   22.7260 C   0  0  0  0  0  0  0  0  0  0  0  0
  1  2  2  3
  1  3  1  0
  3  4  1  0
  3  5  1  0
  4  6  1  0
  4  7  2  0
  5  8  1  1
  5  9  1  0
  6 10  2  0
  7 11  1  0
 10 11  1  0
  8 12  2  0
  8 13  1  0
  9 14  2  0
  9 15  1  0
 11 16  1  0
 13 17  1  0
 14 18  1  0
 15 19  2  0
 15 20  1  0
 16 21  1  0
 16 22  1  0
 16 23  1  0
 17 24  1  0
 18 25  2  0
 19 25  1  0
 24 26  2  0
 24 27  1  0
 26 28  1  0
 26 29  1  0
 27 30  2  0
 27 31  1  0
 29 32  2  0
 30 32  1  0
 31 33  1  0
M  END
