DAR-DIA-2b784ede-18-nitrile
     RDKit          3D

 35 38  0  0  0  0  0  0  0  0999 V2000
    6.4530   -4.3550   20.0040 C   0  0  0  0  0  0  0  0  0  0  0  0
    5.2060   -4.3570   19.8140 N   0  0  0  0  0  0  0  0  0  0  0  0
    7.1460   -3.3230   20.5060 N   0  0  0  0  0  0  0  0  0  0  0  0
    6.5240   -2.0980   20.3580 C   0  0  0  0  0  0  0  0  0  0  0  0
    7.5030   -3.3910   21.9300 C   0  0  1  0  0  0  0  0  0  0  0  0
    5.5610   -1.8130   21.3420 C   0  0  0  0  0  0  0  0  0  0  0  0
    6.7790   -1.1700   19.3770 C   0  0  0  0  0  0  0  0  0  0  0  0
    8.5210   -2.2260   22.1800 C   0  0  0  0  0  0  0  0  0  0  0  0
    6.2040   -3.2160   22.7450 C   0  0  0  0  0  0  0  0  0  0  0  0
    4.8790   -0.6410   21.3870 C   0  0  0  0  0  0  0  0  0  0  0  0
    6.1400    0.0250   19.3430 N   0  0  0  0  0  0  0  0  0  0  0  0
    8.0570   -1.1190   22.4200 O   0  0  0  0  0  0  0  0  0  0  0  0
    9.8640   -2.3740   22.0920 N   0  0  0  0  0  0  0  0  0  0  0  0
    5.8790   -2.0080   23.3930 C   0  0  0  0  0  0  0  0  0  0  0  0
    5.2290   -4.2440   22.9020 C   0  0  0  0  0  0  0  0  0  0  0  0
    5.1690    0.2530   20.4210 C   0  0  0  0  0  0  0  0  0  0  0  0
   10.5860   -1.8250   23.0850 C   0  0  0  0  0  0  0  0  0  0  0  0
    4.7630   -1.7390   24.1210 N   0  0  0  0  0  0  0  0  0  0  0  0
    4.0930   -3.9720   23.6320 C   0  0  0  0  0  0  0  0  0  0  0  0
    5.3140   -5.6400   22.3400 C   0  0  0  0  0  0  0  0  0  0  0  0
    4.6940    1.4900   20.2320 C   0  0  0  0  0  0  0  0  0  0  0  0
    9.9050   -1.1100   24.2940 C   0  0  0  0  0  0  0  0  0  0  0  0
   12.0250   -1.8930   23.0520 C   0  0  0  0  0  0  0  0  0  0  0  0
    3.8830   -2.7390   24.2220 C   0  0  0  0  0  0  0  0  0  0  0  0
    4.0890    2.3450   21.7030 Cl  0  0  0  0  0  0  0  0  0  0  0  0
    5.8730    2.1610   19.6900 C   0  0  0  0  0  0  0  0  0  0  0  0
    3.8210    1.6080   19.0010 C   0  0  0  0  0  0  0  0  0  0  0  0
    8.5180   -0.9500   24.5310 C   0  0  0  0  0  0  0  0  0  0  0  0
   10.7380   -0.5750   25.2520 C   0  0  0  0  0  0  0  0  0  0  0  0
   12.7750   -1.3280   24.0540 C   0  0  0  0  0  0  0  0  0  0  0  0
   12.7410   -2.5790   21.9510 C   0  0  0  0  0  0  0  0  0  0  0  0
    6.1390    1.2240   18.5080 C   0  0  0  0  0  0  0  0  0  0  0  0
    4.7720    1.1630   17.8670 C   0  0  0  0  0  0  0  0  0  0  0  0
   12.2280   -0.6910   25.1160 C   0  0  0  0  0  0  0  0  0  0  0  0
   13.3300   -1.6750   20.9730 C   0  0  0  0  0  0  0  0  0  0  0  0
  1  2  2  3
  1  3  1  0
  3  4  1  0
  3  5  1  0
  4  6  2  0
  4  7  1  0
  5  8  1  1
  5  9  1  0
  6 10  1  0
  7 11  2  0
  8 12  2  0
  8 13  1  0
  9 14  2  0
  9 15  1  0
 10 16  2  0
 11 16  1  0
 13 17  1  0
 14 18  1  0
 15 19  2  0
 15 20  1  0
 16 21  1  0
 17 22  2  0
 17 23  1  0
 18 24  2  0
 19 24  1  0
 21 25  1  0
 21 26  1  0
 21 27  1  0
 22 28  1  0
 22 29  1  0
 23 30  2  0
 23 31  1  0
 26 32  1  0
 27 33  1  0
 32 33  1  0
 29 34  2  0
 30 34  1  0
 31 35  1  0
M  END
