DAR-DIA-fb20be43-16-vinylsulfonamide
     RDKit          3D

 30 32  0  0  0  0  0  0  0  0999 V2000
    7.9180   -3.7980   19.9640 C   0  0  0  0  0  0  0  0  0  0  0  0
    7.4170   -2.8610   19.1800 C   0  0  0  0  0  0  0  0  0  0  0  0
    5.8460   -2.4550   19.8070 S   0  0  0  0  0  0  0  0  0  0  0  0
    5.1330   -3.6460   20.1610 O   0  0  0  0  0  0  0  0  0  0  0  0
    5.2970   -1.5280   18.8730 O   0  0  0  0  0  0  0  0  0  0  0  0
    6.2970   -1.7160   21.2060 N   0  0  0  0  0  0  0  0  0  0  0  0
    7.4410   -0.8020   21.2420 C   0  0  0  0  0  0  0  0  0  0  0  0
    6.0540   -2.4960   22.4210 C   0  0  0  0  0  0  0  0  0  0  0  0
    8.7120   -1.4110   21.8730 C   0  0  0  0  0  0  0  0  0  0  0  0
    7.2910   -3.2290   22.9660 C   0  0  0  0  0  0  0  0  0  0  0  0
    8.6210   -2.6710   22.6610 N   0  0  0  0  0  0  0  0  0  0  0  0
    9.4380   -2.5330   23.8620 C   0  0  0  0  0  0  0  0  0  0  0  0
   10.5310   -1.5380   23.6390 C   0  0  0  0  0  0  0  0  0  0  0  0
   11.4700   -1.8430   22.6820 C   0  0  0  0  0  0  0  0  0  0  0  0
   10.6310   -0.3430   24.3190 C   0  0  0  0  0  0  0  0  0  0  0  0
   12.4850   -0.9900   22.3980 C   0  0  0  0  0  0  0  0  0  0  0  0
   11.6920    0.5300   24.0250 C   0  0  0  0  0  0  0  0  0  0  0  0
    9.6450    0.0910   25.3690 C   0  0  0  0  0  0  0  0  0  0  0  0
   13.3420   -1.3580   21.4100 C   0  0  0  0  0  0  0  0  0  0  0  0
   12.6220    0.1950   23.0570 C   0  0  0  0  0  0  0  0  0  0  0  0
    9.4640    1.5310   25.3900 N   0  0  0  0  0  0  0  0  0  0  0  0
   13.9340   -1.5840   20.5090 N   0  0  0  0  0  0  0  0  0  0  0  0
    9.3910    2.3280   24.2730 C   0  0  0  0  0  0  0  0  0  0  0  0
    8.4040    2.2680   23.5500 O   0  0  0  0  0  0  0  0  0  0  0  0
   10.4310    3.2090   23.9980 N   0  0  0  0  0  0  0  0  0  0  0  0
    9.9910    4.5070   23.8920 C   0  0  0  0  0  0  0  0  0  0  0  0
   11.4560    2.8630   22.9920 C   0  0  0  0  0  0  0  0  0  0  0  0
   11.1910    5.3820   23.9940 C   0  0  0  0  0  0  0  0  0  0  0  0
   12.3680    4.0170   22.4900 C   0  0  0  0  0  0  0  0  0  0  0  0
   11.8940    5.3440   22.7570 O   0  0  0  0  0  0  0  0  0  0  0  0
  1  2  1  0
  3  2  1  0
  3  4  2  0
  3  5  2  0
  3  6  1  0
  6  7  1  0
  6  8  1  0
  7  9  1  0
  8 10  1  0
  9 11  1  0
 10 11  1  0
 11 12  1  0
 12 13  1  0
 13 14  2  0
 13 15  1  0
 14 16  1  0
 15 17  2  0
 15 18  1  0
 16 19  1  0
 16 20  2  0
 17 20  1  0
 18 21  1  0
 19 22  3  0
 21 23  1  0
 23 24  2  0
 23 25  1  0
 25 26  1  0
 25 27  1  0
 26 28  1  0
 27 29  1  0
 28 30  1  0
 29 30  1  0
M  END
