DAR-DIA-0cde14eb-40
     RDKit          3D

 25 28  0  0  0  0  0  0  0  0999 V2000
    9.2210   -2.5630   22.3580 C   0  0  0  0  0  0  0  0  0  0  0  0
    9.0670   -1.0890   22.6570 C   0  0  2  0  0  0  0  0  0  0  0  0
    8.3170   -0.3320   21.6040 C   0  0  0  0  0  0  0  0  0  0  0  0
   10.4300   -0.4440   22.7570 C   0  0  0  0  0  0  0  0  0  0  0  0
    8.6730    0.8000   21.2890 O   0  0  0  0  0  0  0  0  0  0  0  0
    7.2340   -0.9820   21.0450 N   0  0  0  0  0  0  0  0  0  0  0  0
   11.5580   -1.1570   22.6720 C   0  0  0  0  0  0  0  0  0  0  0  0
   10.4990    0.9450   22.9280 C   0  0  0  0  0  0  0  0  0  0  0  0
    6.4540   -0.1560   20.1330 C   0  0  0  0  0  0  0  0  0  0  0  0
   12.8600   -0.4880   22.7560 C   0  0  0  0  0  0  0  0  0  0  0  0
   11.7150    1.6730   23.0090 C   0  0  0  0  0  0  0  0  0  0  0  0
    6.7540   -0.0540   18.7730 C   0  0  0  0  0  0  0  0  0  0  0  0
    5.3480    0.5920   20.5880 C   0  0  0  0  0  0  0  0  0  0  0  0
   12.9240    0.9750   22.9270 C   0  0  0  0  0  0  0  0  0  0  0  0
   11.6160    3.0760   23.1540 C   0  0  0  0  0  0  0  0  0  0  0  0
    6.0980    0.6820   17.8610 N   0  0  0  0  0  0  0  0  0  0  0  0
    4.6470    1.3650   19.6570 C   0  0  0  0  0  0  0  0  0  0  0  0
    4.8990    0.5830   22.0630 C   0  0  0  0  0  0  0  0  0  0  0  0
   10.4730    3.6070   23.9650 C   0  0  0  0  0  0  0  0  0  0  0  0
   11.8260    4.0170   21.9490 C   0  0  0  0  0  0  0  0  0  0  0  0
   12.8940    3.9330   22.9990 C   0  0  0  0  0  0  0  0  0  0  0  0
    5.0660    1.3680   18.3380 C   0  0  0  0  0  0  0  0  0  0  0  0
    3.4120    0.8830   22.1390 C   0  0  0  0  0  0  0  0  0  0  0  0
    3.4590    2.1800   20.0880 C   0  0  0  0  0  0  0  0  0  0  0  0
    3.2440    2.2470   21.4670 C   0  0  0  0  0  0  0  0  0  0  0  0
  2  1  1  6
  2  3  1  0
  2  4  1  0
  3  5  2  0
  3  6  1  0
  4  7  2  0
  4  8  1  0
  6  9  1  0
  7 10  1  0
  8 11  2  0
  9 12  2  0
  9 13  1  0
 10 14  2  0
 11 14  1  0
 11 15  1  0
 12 16  1  0
 13 17  2  0
 13 18  1  0
 15 19  1  0
 15 20  1  0
 15 21  1  0
 20 21  1  0
 16 22  2  0
 17 22  1  0
 18 23  1  0
 17 24  1  0
 23 25  1  0
 24 25  1  0
M  END
