DAR-DIA-03336633-4-nitrile
     RDKit          3D

 30 32  0  0  0  0  0  0  0  0999 V2000
    6.8640   -3.4500   19.8380 C   0  0  0  0  0  0  0  0  0  0  0  0
    5.9520   -3.0720   19.0110 N   0  0  0  0  0  0  0  0  0  0  0  0
    7.6530   -2.4710   20.7570 C   0  0  0  0  0  0  0  0  0  0  0  0
    9.1000   -2.7990   21.0540 C   0  0  0  0  0  0  0  0  0  0  0  0
    7.1640   -1.2810   21.3560 C   0  0  0  0  0  0  0  0  0  0  0  0
    9.9990   -1.9460   21.9380 C   0  0  0  0  0  0  0  0  0  0  0  0
    8.0200   -0.4870   22.1700 C   0  0  0  0  0  0  0  0  0  0  0  0
    9.3210   -0.7640   22.4600 C   0  0  0  0  0  0  0  0  0  0  0  0
    7.6560    0.6700   22.7600 N   0  0  0  0  0  0  0  0  0  0  0  0
    7.9410    1.6340   21.8190 C   0  0  0  0  0  0  0  0  0  0  0  0
    9.0520    2.0120   21.4680 O   0  0  0  0  0  0  0  0  0  0  0  0
    6.7680    2.1160   21.3070 N   0  0  0  0  0  0  0  0  0  0  0  0
    6.0350    1.5290   20.2670 C   0  0  0  0  0  0  0  0  0  0  0  0
    6.6920    1.0080   19.0250 C   0  0  0  0  0  0  0  0  0  0  0  0
    4.6480    1.4110   20.3580 C   0  0  0  0  0  0  0  0  0  0  0  0
    6.0250    0.4480   18.0100 N   0  0  0  0  0  0  0  0  0  0  0  0
    3.9970    0.8380   19.2970 C   0  0  0  0  0  0  0  0  0  0  0  0
    3.8760    1.8320   21.4490 C   0  0  0  0  0  0  0  0  0  0  0  0
    4.6990    0.3810   18.1740 C   0  0  0  0  0  0  0  0  0  0  0  0
    4.5120    2.8020   22.2190 C   0  0  0  0  0  0  0  0  0  0  0  0
    3.7060    3.4600   23.2370 N   0  0  0  0  0  0  0  0  0  0  0  0
    2.5950    2.8590   23.7170 C   0  0  0  0  0  0  0  0  0  0  0  0
    2.6050    1.8690   24.4400 O   0  0  0  0  0  0  0  0  0  0  0  0
    1.4640    3.5080   23.2850 N   0  0  0  0  0  0  0  0  0  0  0  0
    0.2280    3.5030   24.0570 C   0  0  0  0  0  0  0  0  0  0  0  0
   -0.8090    3.0360   23.2640 C   0  0  0  0  0  0  0  0  0  0  0  0
   -0.0730    4.9490   24.4860 C   0  0  0  0  0  0  0  0  0  0  0  0
   -2.1930    3.4300   23.7220 C   0  0  0  0  0  0  0  0  0  0  0  0
   -1.2250    4.9830   25.2660 C   0  0  0  0  0  0  0  0  0  0  0  0
   -2.3430    4.5360   24.5600 C   0  0  0  0  0  0  0  0  0  0  0  0
  1  2  2  3
  1  3  1  0
  3  4  2  0
  3  5  1  0
  4  6  1  0
  5  7  2  0
  6  8  2  0
  7  8  1  0
  7  9  1  0
  9 10  1  0
 10 11  2  0
 10 12  1  0
 12 13  1  0
 13 14  2  0
 13 15  1  0
 14 16  1  0
 15 17  2  0
 15 18  1  0
 16 19  2  0
 17 19  1  0
 18 20  1  0
 20 21  1  0
 21 22  1  0
 22 23  2  0
 22 24  1  0
 24 25  1  0
 25 26  1  0
 25 27  1  0
 26 28  1  0
 27 29  1  0
 28 30  1  0
 29 30  1  0
M  END
