DAR-DIA-2b784ede-42-vinylsulfonamide
     RDKit          3D

 35 37  0  0  0  0  0  0  0  0999 V2000
    7.6740   -3.3430   18.9710 C   0  0  0  0  0  0  0  0  0  0  0  0
    6.7020   -3.9520   19.9300 C   0  0  0  0  0  0  0  0  0  0  0  0
    5.5320   -2.7570   19.9780 S   0  0  0  0  0  0  0  0  0  0  0  0
    4.8310   -3.0580   21.1810 O   0  0  0  0  0  0  0  0  0  0  0  0
    4.9220   -2.7880   18.6840 O   0  0  0  0  0  0  0  0  0  0  0  0
    6.5830   -1.4640   20.0450 N   0  0  0  0  0  0  0  0  0  0  0  0
    6.0220   -0.2840   19.3790 C   0  0  0  0  0  0  0  0  0  0  0  0
    7.4200   -1.4170   21.3150 C   0  0  2  0  0  0  0  0  0  0  0  0
    5.0780    0.4240   20.3220 C   0  0  0  0  0  0  0  0  0  0  0  0
    6.0540    0.4030   18.1650 N   0  0  0  0  0  0  0  0  0  0  0  0
    8.5680   -2.2640   21.3690 C   0  0  0  0  0  0  0  0  0  0  0  0
    6.7030   -2.0240   22.5050 C   0  0  0  0  0  0  0  0  0  0  0  0
    4.6840    1.4970   19.4490 C   0  0  0  0  0  0  0  0  0  0  0  0
    5.2320    1.5190   18.1740 N   0  0  0  0  0  0  0  0  0  0  0  0
    8.1330   -3.6150   21.4550 O   0  0  0  0  0  0  0  0  0  0  0  0
    9.9110   -1.8740   21.3970 N   0  0  0  0  0  0  0  0  0  0  0  0
    7.0050   -3.4820   22.8470 C   0  0  0  0  0  0  0  0  0  0  0  0
    5.7870   -1.3480   23.3330 C   0  0  0  0  0  0  0  0  0  0  0  0
    3.7110    2.3690   20.2530 C   0  0  0  0  0  0  0  0  0  0  0  0
   10.6620   -1.0790   22.2950 C   0  0  0  0  0  0  0  0  0  0  0  0
    6.3020   -4.0600   24.0320 C   0  0  0  0  0  0  0  0  0  0  0  0
    5.1380   -1.8740   24.4210 N   0  0  0  0  0  0  0  0  0  0  0  0
    3.9590    3.7850   19.7560 C   0  0  0  0  0  0  0  0  0  0  0  0
    2.2150    2.0640   20.0950 C   0  0  0  0  0  0  0  0  0  0  0  0
    4.1400    2.2660   21.7390 C   0  0  0  0  0  0  0  0  0  0  0  0
    9.9200   -0.4010   23.2560 C   0  0  0  0  0  0  0  0  0  0  0  0
   12.0870   -0.9680   22.2120 C   0  0  0  0  0  0  0  0  0  0  0  0
    5.3620   -3.1610   24.7810 C   0  0  0  0  0  0  0  0  0  0  0  0
    4.5880    2.2140   23.0750 N   0  0  0  0  0  0  0  0  0  0  0  0
    8.5590   -0.5840   23.3180 C   0  0  0  0  0  0  0  0  0  0  0  0
   10.5910    0.4380   24.1290 C   0  0  0  0  0  0  0  0  0  0  0  0
   12.7370   -0.1330   23.0820 C   0  0  0  0  0  0  0  0  0  0  0  0
   12.9470   -1.6990   21.2230 C   0  0  0  0  0  0  0  0  0  0  0  0
   12.0900    0.5880   24.0320 C   0  0  0  0  0  0  0  0  0  0  0  0
   13.1160   -3.1210   21.4410 C   0  0  0  0  0  0  0  0  0  0  0  0
  1  2  1  0
  2  3  1  0
  3  4  2  0
  3  5  2  0
  3  6  1  0
  6  7  1  0
  6  8  1  0
  7  9  2  0
  7 10  1  0
  8 11  1  6
  8 12  1  0
  9 13  1  0
 10 14  1  0
 13 14  2  0
 11 15  2  0
 11 16  1  0
 12 17  2  0
 12 18  1  0
 13 19  1  0
 16 20  1  0
 17 21  1  0
 18 22  2  0
 19 23  1  0
 19 24  1  0
 19 25  1  0
 20 26  2  0
 20 27  1  0
 21 28  2  0
 22 28  1  0
 25 29  3  0
 26 30  1  0
 26 31  1  0
 27 32  2  0
 27 33  1  0
 31 34  2  0
 32 34  1  0
 33 35  1  0
M  END
