DAR-DIA-23aa0b97-1-vinylsulfonamide
     RDKit          3D

 24 26  0  0  0  0  0  0  0  0999 V2000
    6.2970   -4.0140   19.9100 C   0  0  0  0  0  0  0  0  0  0  0  0
    6.6570   -3.1320   21.1160 C   0  0  0  0  0  0  0  0  0  0  0  0
    5.8630   -3.6330   22.6290 S   0  0  0  0  0  0  0  0  0  0  0  0
    4.5900   -4.2480   22.3130 O   0  0  0  0  0  0  0  0  0  0  0  0
    5.9040   -2.5650   23.6060 O   0  0  0  0  0  0  0  0  0  0  0  0
    6.9580   -4.9150   23.1580 C   0  0  0  0  0  0  0  0  0  0  0  0
    8.2870   -5.4940   23.7440 C   0  0  0  0  0  0  0  0  0  0  0  0
    7.8990   -4.0280   23.5270 C   0  0  0  0  0  0  0  0  0  0  0  0
    8.4450   -3.9680   23.7460 C   0  0  0  0  0  0  0  0  0  0  0  0
    8.1660   -2.6910   23.6180 C   0  0  0  0  0  0  0  0  0  0  0  0
    9.3880   -2.9260   24.0820 C   0  0  0  0  0  0  0  0  0  0  0  0
    7.5030   -1.4060   23.3620 N   0  0  0  0  0  0  0  0  0  0  0  0
    7.9370   -0.4990   22.4390 C   0  0  0  0  0  0  0  0  0  0  0  0
    8.1800    0.6830   22.7310 O   0  0  0  0  0  0  0  0  0  0  0  0
    8.1370   -0.9590   21.0350 C   0  0  0  0  0  0  0  0  0  0  0  0
    7.1700   -0.3730   19.9980 C   0  0  0  0  0  0  0  0  0  0  0  0
    7.4360   -0.8750   18.7300 C   0  0  0  0  0  0  0  0  0  0  0  0
    6.0880    0.5730   20.1320 C   0  0  0  0  0  0  0  0  0  0  0  0
    6.4180   -0.1150   18.1450 N   0  0  0  0  0  0  0  0  0  0  0  0
    5.6520    0.6950   18.9020 C   0  0  0  0  0  0  0  0  0  0  0  0
    5.3990    1.3510   21.0810 C   0  0  0  0  0  0  0  0  0  0  0  0
    4.5640    1.5230   18.3890 N   0  0  0  0  0  0  0  0  0  0  0  0
    4.3070    2.1990   20.6890 C   0  0  0  0  0  0  0  0  0  0  0  0
    3.8870    2.2880   19.3460 C   0  0  0  0  0  0  0  0  0  0  0  0
  1  2  1  0
  3  2  1  0
  3  4  2  0
  3  5  2  0
  3  6  1  0
  6  7  2  0
  6  8  1  0
  7  9  1  0
  8 10  2  0
  9 11  2  0
 10 11  1  0
 10 12  1  0
 12 13  1  0
 13 14  2  0
 13 15  1  0
 15 16  1  0
 16 17  2  0
 16 18  1  0
 17 19  1  0
 18 20  2  0
 19 20  1  0
 18 21  1  0
 20 22  1  0
 21 23  2  0
 22 24  2  0
 23 24  1  0
M  END
