DAR-DIA-2b784ede-15-bromoalkyne
     RDKit          3D

 36 39  0  0  0  0  0  0  0  0999 V2000
    7.9260   -4.4650   20.3550 C   0  0  0  0  0  0  0  0  0  0  0  0
    6.4850   -4.9930   20.0970 C   0  0  0  0  0  0  0  0  0  0  0  0
    8.0020   -2.9880   20.5120 N   0  0  0  0  0  0  0  0  0  0  0  0
    6.8160   -2.7630   19.9310 C   0  0  0  0  0  0  0  0  0  0  0  0
    7.8990   -1.9690   21.6100 C   0  0  1  0  0  0  0  0  0  0  0  0
    6.1850   -3.8630   20.0460 C   0  0  0  0  0  0  0  0  0  0  0  0
    6.2090   -1.7270   19.3050 C   0  0  0  0  0  0  0  0  0  0  0  0
    9.0760   -1.2490   21.9710 C   0  0  0  0  0  0  0  0  0  0  0  0
    6.9460   -0.9330   20.9790 C   0  0  0  0  0  0  0  0  0  0  0  0
    5.0270   -4.0540   19.5370 C   0  0  0  0  0  0  0  0  0  0  0  0
    4.9680   -1.9050   18.7670 C   0  0  0  0  0  0  0  0  0  0  0  0
    9.0320   -0.1360   22.5020 O   0  0  0  0  0  0  0  0  0  0  0  0
   10.2810   -1.8290   21.7180 N   0  0  0  0  0  0  0  0  0  0  0  0
    7.1920   -0.4550   19.5620 C   0  0  0  0  0  0  0  0  0  0  0  0
    5.8120   -0.3550   21.5870 C   0  0  0  0  0  0  0  0  0  0  0  0
    4.1650   -3.1400   18.7620 C   0  0  0  0  0  0  0  0  0  0  0  0
   11.1180   -2.2190   22.8080 C   0  0  0  0  0  0  0  0  0  0  0  0
    6.4730    0.4400   18.8340 N   0  0  0  0  0  0  0  0  0  0  0  0
    5.0620    0.5770   20.8270 C   0  0  0  0  0  0  0  0  0  0  0  0
    5.3760   -0.6920   22.9890 C   0  0  0  0  0  0  0  0  0  0  0  0
    1.4040   -3.7430   17.1840 C   0  0  0  0  0  0  0  0  0  0  0  0
   12.4750   -1.5670   23.1060 C   0  0  0  0  0  0  0  0  0  0  0  0
   10.6280   -3.2610   23.6390 C   0  0  0  0  0  0  0  0  0  0  0  0
    5.4060    0.9440   19.4950 C   0  0  0  0  0  0  0  0  0  0  0  0
    0.9420   -4.7030   15.9170 C   0  0  0  0  0  0  0  0  0  0  0  0
    0.4860   -5.1700   17.0730 C   0  0  0  0  0  0  0  0  0  0  0  0
    0.3180   -3.1390   16.1570 C   0  0  0  0  0  0  0  0  0  0  0  0
   13.0060   -0.5460   22.3520 C   0  0  0  0  0  0  0  0  0  0  0  0
   13.2080   -2.0160   24.1820 C   0  0  0  0  0  0  0  0  0  0  0  0
   11.4330   -3.6500   24.7070 C   0  0  0  0  0  0  0  0  0  0  0  0
    9.3940   -3.9120   23.4470 C   0  0  0  0  0  0  0  0  0  0  0  0
    0.7790   -5.1270   14.8520 N   0  0  0  0  0  0  0  0  0  0  0  0
   -0.8420   -4.5640   16.5580 C   0  0  0  0  0  0  0  0  0  0  0  0
   -0.1730   -4.0470   15.3020 C   0  0  0  0  0  0  0  0  0  0  0  0
   12.6780   -3.1020   25.0240 C   0  0  0  0  0  0  0  0  0  0  0  0
    9.2650   -5.2630   23.8150 C   0  0  0  0  0  0  0  0  0  0  0  0
  1  2  2  3
  1  3  1  0
  3  4  1  0
  3  5  1  0
  4  6  2  0
  4  7  1  0
  5  8  1  6
  5  9  1  0
  6 10  1  0
  7 11  2  0
  8 12  2  0
  8 13  1  0
  9 14  2  0
  9 15  1  0
 10 16  2  0
 11 16  1  0
 13 17  1  0
 14 18  1  0
 15 19  2  0
 15 20  1  0
 16 21  1  0
 17 22  2  0
 17 23  1  0
 18 24  2  0
 19 24  1  0
 21 25  1  0
 21 26  1  0
 21 27  1  0
 22 28  1  0
 22 29  1  0
 23 30  2  0
 23 31  1  0
 25 32  3  0
 26 33  1  0
 27 34  1  0
 33 34  1  0
 29 35  2  0
 30 35  1  0
 31 36  1  0
M  END
