DAR-DIA-caba39e3-12-bromoalkyne
     RDKit          3D

 30 33  0  0  0  0  0  0  0  0999 V2000
    7.6030   -3.5970   20.0190 C   0  0  0  0  0  0  0  0  0  0  0  0
    6.1160   -3.9660   19.7960 C   0  0  0  0  0  0  0  0  0  0  0  0
    8.3690   -3.5280   21.2140 N   0  0  0  0  0  0  0  0  0  0  0  0
    9.3510   -2.5120   21.4320 C   0  0  0  0  0  0  0  0  0  0  0  0
    7.9950   -4.1410   22.4950 C   0  0  0  0  0  0  0  0  0  0  0  0
    9.4650   -1.7980   22.7560 C   0  0  0  0  0  0  0  0  0  0  0  0
    7.6040   -3.0580   23.5490 C   0  0  2  0  0  0  0  0  0  0  0  0
   10.5620   -0.7410   22.9350 C   0  0  0  0  0  0  0  0  0  0  0  0
    8.5950   -2.0990   23.7500 C   0  0  0  0  0  0  0  0  0  0  0  0
    7.0270   -3.7050   24.6830 C   0  0  0  0  0  0  0  0  0  0  0  0
   10.7420    0.0440   24.2540 C   0  0  0  0  0  0  0  0  0  0  0  0
    8.6920   -1.3810   25.1020 C   0  0  0  0  0  0  0  0  0  0  0  0
    7.7160   -4.5060   25.6170 C   0  0  0  0  0  0  0  0  0  0  0  0
    5.4920   -3.4690   24.8690 C   0  0  0  0  0  0  0  0  0  0  0  0
    9.7540   -0.2990   25.3930 C   0  0  0  0  0  0  0  0  0  0  0  0
    7.0570   -5.0940   26.7100 C   0  0  0  0  0  0  0  0  0  0  0  0
    4.7850   -4.0330   25.9340 N   0  0  0  0  0  0  0  0  0  0  0  0
    4.6100   -2.6130   23.9290 C   0  0  0  0  0  0  0  0  0  0  0  0
    7.6380   -5.8930   27.6960 C   0  0  0  0  0  0  0  0  0  0  0  0
    5.5660   -4.8440   26.8550 C   0  0  0  0  0  0  0  0  0  0  0  0
    5.1200   -1.6570   23.0990 N   0  0  0  0  0  0  0  0  0  0  0  0
    8.8930   -5.5780   28.0460 N   0  0  0  0  0  0  0  0  0  0  0  0
    5.1450   -2.2370   21.8700 C   0  0  0  0  0  0  0  0  0  0  0  0
    4.6140   -3.3400   21.6660 O   0  0  0  0  0  0  0  0  0  0  0  0
    5.7120   -1.6060   21.0390 N   0  0  0  0  0  0  0  0  0  0  0  0
    6.5710   -0.4980   21.4390 C   0  0  0  0  0  0  0  0  0  0  0  0
    5.4510   -1.5790   19.5910 C   0  0  0  0  0  0  0  0  0  0  0  0
    6.9840    0.1600   20.2300 C   0  0  0  0  0  0  0  0  0  0  0  0
    5.1090   -0.2630   19.2290 C   0  0  0  0  0  0  0  0  0  0  0  0
    5.9330    0.6040   19.5240 O   0  0  0  0  0  0  0  0  0  0  0  0
  1  2  2  3
  1  3  1  0
  3  4  1  0
  3  5  1  0
  4  6  1  0
  5  7  1  0
  6  8  1  0
  6  9  2  0
  7  9  1  0
  7 10  1  1
  8 11  2  0
  9 12  1  0
 10 13  2  0
 10 14  1  0
 11 15  1  0
 12 15  2  0
 13 16  1  0
 14 17  2  0
 14 18  1  0
 16 19  1  0
 16 20  2  0
 17 20  1  0
 18 21  1  0
 19 22  3  0
 21 23  1  0
 23 24  2  0
 23 25  1  0
 25 26  1  0
 25 27  1  0
 26 28  1  0
 27 29  1  0
 28 30  1  0
 29 30  1  0
M  END
