DAR-DIA-2b784ede-32-acrylamide
     RDKit          3D

 27 28  0  0  0  0  0  0  0  0999 V2000
    7.9560   -3.0140   20.0470 C   0  0  0  0  0  0  0  0  0  0  0  0
    7.1130   -1.9900   20.8920 C   0  0  0  0  0  0  0  0  0  0  0  0
    6.0230   -2.2940   21.9300 C   0  0  0  0  0  0  0  0  0  0  0  0
    4.8010   -3.0620   21.5690 O   0  0  0  0  0  0  0  0  0  0  0  0
    6.5170   -1.6340   23.2400 N   0  0  0  0  0  0  0  0  0  0  0  0
    6.3110   -2.2340   24.5030 C   0  0  0  0  0  0  0  0  0  0  0  0
    7.6000   -0.4460   23.3770 C   0  0  2  0  0  0  0  0  0  0  0  0
    6.8690   -3.4090   24.9070 C   0  0  0  0  0  0  0  0  0  0  0  0
    5.5520   -1.7770   25.5400 N   0  0  0  0  0  0  0  0  0  0  0  0
    6.9180    0.8800   22.9070 C   0  0  0  0  0  0  0  0  0  0  0  0
    9.1730   -0.5710   23.1220 C   0  0  0  0  0  0  0  0  0  0  0  0
    6.4870   -3.7140   26.1760 C   0  0  0  0  0  0  0  0  0  0  0  0
    5.6640   -2.7050   26.5870 O   0  0  0  0  0  0  0  0  0  0  0  0
    6.7650    1.8350   23.6700 O   0  0  0  0  0  0  0  0  0  0  0  0
    6.5200    0.8680   21.5780 N   0  0  0  0  0  0  0  0  0  0  0  0
   10.1690    0.6660   22.9840 C   0  0  0  0  0  0  0  0  0  0  0  0
    9.8620   -1.7890   22.9860 C   0  0  0  0  0  0  0  0  0  0  0  0
    6.8650   -4.9420   26.9890 C   0  0  0  0  0  0  0  0  0  0  0  0
    7.3910    0.9710   20.4680 C   0  0  0  0  0  0  0  0  0  0  0  0
   11.5210    0.5940   22.7460 N   0  0  0  0  0  0  0  0  0  0  0  0
   11.2230   -1.7640   22.7280 C   0  0  0  0  0  0  0  0  0  0  0  0
    9.2360   -2.9910   23.1020 C   0  0  0  0  0  0  0  0  0  0  0  0
    6.8590   -4.8130   28.5320 C   0  0  0  0  0  0  0  0  0  0  0  0
    5.7770   -5.9100   26.5300 C   0  0  0  0  0  0  0  0  0  0  0  0
    8.2600   -5.4360   26.5430 C   0  0  0  0  0  0  0  0  0  0  0  0
   12.0190   -0.6430   22.6080 C   0  0  0  0  0  0  0  0  0  0  0  0
    9.3070   -5.7940   26.1900 N   0  0  0  0  0  0  0  0  0  0  0  0
  1  2  1  0
  2  3  1  0
  3  4  2  0
  3  5  1  0
  5  6  1  0
  5  7  1  0
  6  8  1  0
  6  9  2  0
  7 10  1  6
  7 11  1  0
  8 12  2  0
  9 13  1  0
 12 13  1  0
 10 14  2  0
 10 15  1  0
 11 16  2  0
 11 17  1  0
 12 18  1  0
 15 19  1  0
 16 20  1  0
 17 21  2  0
 17 22  1  0
 18 23  1  0
 18 24  1  0
 18 25  1  0
 20 26  2  0
 21 26  1  0
 25 27  3  0
M  END
