DAR-DIA-0cde14eb-63
     RDKit          3D

 20 22  0  0  0  0  0  0  0  0999 V2000
    4.8990    1.0830   21.8430 C   0  0  0  0  0  0  0  0  0  0  0  0
    5.2370    0.9510   20.3780 C   0  0  0  0  0  0  0  0  0  0  0  0
    4.5850    1.8690   19.4230 C   0  0  0  0  0  0  0  0  0  0  0  0
    6.1250    0.0370   19.8440 C   0  0  0  0  0  0  0  0  0  0  0  0
    4.9030    1.7580   18.0870 C   0  0  0  0  0  0  0  0  0  0  0  0
    6.3460    0.0350   18.4860 C   0  0  0  0  0  0  0  0  0  0  0  0
    6.7810   -0.8220   20.5780 N   0  0  0  0  0  0  0  0  0  0  0  0
    5.7670    0.8620   17.5850 N   0  0  0  0  0  0  0  0  0  0  0  0
    7.7090   -0.2240   21.3390 C   0  0  0  0  0  0  0  0  0  0  0  0
    8.3480    0.7850   21.0390 O   0  0  0  0  0  0  0  0  0  0  0  0
    7.9460   -0.7980   22.5370 C   0  0  0  0  0  0  0  0  0  0  0  0
    9.3730   -0.5630   22.8660 C   0  0  0  0  0  0  0  0  0  0  0  0
    9.8380    0.4470   23.8610 C   0  0  0  0  0  0  0  0  0  0  0  0
   10.4700   -1.1400   22.3800 C   0  0  0  0  0  0  0  0  0  0  0  0
   11.1650    0.4530   23.9540 N   0  0  0  0  0  0  0  0  0  0  0  0
   11.4520   -0.5240   23.0400 N   0  0  0  0  0  0  0  0  0  0  0  0
   12.7480   -0.9070   22.7880 C   0  0  0  0  0  0  0  0  0  0  0  0
   13.0930   -1.4410   21.5470 F   0  0  0  0  0  0  0  0  0  0  0  0
   13.4950   -0.0870   23.2590 C   0  0  0  0  0  0  0  0  0  0  0  0
   13.5470   -1.4510   23.9950 C   0  0  0  0  0  0  0  0  0  0  0  0
  1  2  1  0
  2  3  2  0
  2  4  1  0
  3  5  1  0
  4  6  2  0
  4  7  1  0
  5  8  2  0
  6  8  1  0
  7  9  1  0
  9 10  2  0
  9 11  1  0
 11 12  1  0
 12 13  1  0
 12 14  2  0
 13 15  2  0
 14 16  1  0
 15 16  1  0
 16 17  1  0
 17 18  1  0
 17 19  1  0
 17 20  1  0
 19 20  1  0
M  END
