DAR-DIA-2b784ede-24-chloroacetamide
     RDKit          3D

 29 31  0  0  0  0  0  0  0  0999 V2000
    6.6440   -3.1600   19.9220 C   0  0  0  0  0  0  0  0  0  0  0  0
    7.7080   -2.1150   19.4410 C   0  0  0  0  0  0  0  0  0  0  0  0
    7.4050   -2.8240   18.4570 O   0  0  0  0  0  0  0  0  0  0  0  0
    7.7350   -1.4880   20.7880 N   0  0  0  0  0  0  0  0  0  0  0  0
    6.7500   -0.4770   20.4820 C   0  0  0  0  0  0  0  0  0  0  0  0
    8.9810   -0.6500   21.3830 C   0  0  1  0  0  0  0  0  0  0  0  0
    5.9320    0.0840   21.4290 C   0  0  0  0  0  0  0  0  0  0  0  0
    6.5500    0.0070   19.2070 N   0  0  0  0  0  0  0  0  0  0  0  0
    8.6300    0.8820   21.5250 C   0  0  0  0  0  0  0  0  0  0  0  0
   10.0000   -0.9210   22.5620 C   0  0  0  0  0  0  0  0  0  0  0  0
    4.9960    1.0510   21.1500 C   0  0  0  0  0  0  0  0  0  0  0  0
    5.5700    1.0220   18.9030 C   0  0  0  0  0  0  0  0  0  0  0  0
    8.0910    1.4590   20.5790 O   0  0  0  0  0  0  0  0  0  0  0  0
    8.8950    1.6030   22.6370 N   0  0  0  0  0  0  0  0  0  0  0  0
   11.1300    0.1130   22.6760 C   0  0  0  0  0  0  0  0  0  0  0  0
   10.1150   -1.8870   23.5440 C   0  0  0  0  0  0  0  0  0  0  0  0
    4.7610    1.5700   19.9110 C   0  0  0  0  0  0  0  0  0  0  0  0
    9.1800    2.9040   22.4460 C   0  0  0  0  0  0  0  0  0  0  0  0
   12.1680    0.2270   23.5240 N   0  0  0  0  0  0  0  0  0  0  0  0
   11.1970   -1.7470   24.4140 C   0  0  0  0  0  0  0  0  0  0  0  0
    9.1750   -3.0240   23.7160 C   0  0  0  0  0  0  0  0  0  0  0  0
    3.6450    2.6590   19.9500 C   0  0  0  0  0  0  0  0  0  0  0  0
   12.1570   -0.7510   24.4040 C   0  0  0  0  0  0  0  0  0  0  0  0
    2.3740    2.1750   20.6790 C   0  0  0  0  0  0  0  0  0  0  0  0
    3.0690    3.1640   18.6480 C   0  0  0  0  0  0  0  0  0  0  0  0
    4.0560    4.0030   20.5960 C   0  0  0  0  0  0  0  0  0  0  0  0
    1.3930    1.8470   21.2030 N   0  0  0  0  0  0  0  0  0  0  0  0
    2.3680    4.4880   19.0370 C   0  0  0  0  0  0  0  0  0  0  0  0
    2.9540    4.8530   20.4230 C   0  0  0  0  0  0  0  0  0  0  0  0
  1  2  1  0
  2  3  2  0
  2  4  1  0
  4  5  1  0
  4  6  1  0
  5  7  2  0
  5  8  1  0
  6  9  1  1
  6 10  1  0
  7 11  1  0
  8 12  2  0
  9 13  2  0
  9 14  1  0
 10 15  2  0
 10 16  1  0
 11 17  2  0
 12 17  1  0
 14 18  1  0
 15 19  1  0
 16 20  2  0
 16 21  1  0
 17 22  1  0
 19 23  2  0
 20 23  1  0
 22 24  1  0
 22 25  1  0
 22 26  1  0
 24 27  3  0
 25 28  1  0
 26 29  1  0
 28 29  1  0
M  END
