DAR-DIA-842b4336-23
     RDKit          3D

 19 21  0  0  0  0  0  0  0  0999 V2000
    4.5090    2.3540   18.1070 C   0  0  0  0  0  0  0  0  0  0  0  0
    5.4060    1.3400   18.5320 N   0  0  0  0  0  0  0  0  0  0  0  0
    5.7480    1.1120   19.8980 C   0  0  0  0  0  0  0  0  0  0  0  0
    6.0400    0.4820   17.6880 N   0  0  0  0  0  0  0  0  0  0  0  0
    6.7270   -0.0160   19.8440 C   0  0  0  0  0  0  0  0  0  0  0  0
    6.8300   -0.3300   18.4990 C   0  0  0  0  0  0  0  0  0  0  0  0
    7.3340   -0.5130   21.0600 N   0  0  0  0  0  0  0  0  0  0  0  0
    8.2050    0.6120   21.3950 C   0  0  0  0  0  0  0  0  0  0  0  0
    8.5600    1.5250   20.6800 O   0  0  0  0  0  0  0  0  0  0  0  0
    8.6340    0.6170   22.7670 C   0  0  0  0  0  0  0  0  0  0  0  0
    9.7760    0.0320   23.1200 C   0  0  0  0  0  0  0  0  0  0  0  0
    9.7920   -1.1770   23.6580 C   0  0  0  0  0  0  0  0  0  0  0  0
   11.1180    0.4430   23.0700 N   0  0  0  0  0  0  0  0  0  0  0  0
   10.9960   -1.5820   23.9850 C   0  0  0  0  0  0  0  0  0  0  0  0
   11.8890   -0.6090   23.6490 C   0  0  0  0  0  0  0  0  0  0  0  0
   11.4180   -2.8320   24.6110 C   0  0  0  0  0  0  0  0  0  0  0  0
   13.3090   -0.7750   23.9190 N   0  0  0  0  0  0  0  0  0  0  0  0
   12.8580   -3.0130   24.9210 C   0  0  0  0  0  0  0  0  0  0  0  0
   13.6080   -2.0040   24.5560 C   0  0  0  0  0  0  0  0  0  0  0  0
  1  2  1  0
  2  3  1  0
  2  4  1  0
  3  5  2  0
  4  6  2  0
  5  6  1  0
  5  7  1  0
  7  8  1  0
  8  9  2  0
  8 10  1  0
 10 11  1  0
 11 12  2  0
 11 13  1  0
 12 14  1  0
 13 15  1  0
 14 15  2  0
 14 16  1  0
 15 17  1  0
 16 18  2  0
 17 19  2  0
 18 19  1  0
M  END
