DAR-DIA-0cde14eb-64
     RDKit          3D

 20 22  0  0  0  0  0  0  0  0999 V2000
    4.8060    1.1360   21.7130 C   0  0  0  0  0  0  0  0  0  0  0  0
    5.2450    0.8960   20.2880 C   0  0  0  0  0  0  0  0  0  0  0  0
    4.6960    1.7730   19.2230 C   0  0  0  0  0  0  0  0  0  0  0  0
    6.1370   -0.0810   19.8830 C   0  0  0  0  0  0  0  0  0  0  0  0
    5.1090    1.5620   17.9270 C   0  0  0  0  0  0  0  0  0  0  0  0
    6.4600   -0.1780   18.5510 C   0  0  0  0  0  0  0  0  0  0  0  0
    6.7080   -0.9210   20.7170 N   0  0  0  0  0  0  0  0  0  0  0  0
    5.9870    0.6020   17.5530 N   0  0  0  0  0  0  0  0  0  0  0  0
    7.6690   -0.3580   21.4600 C   0  0  0  0  0  0  0  0  0  0  0  0
    8.3870    0.5830   21.1070 O   0  0  0  0  0  0  0  0  0  0  0  0
    7.8450   -0.8750   22.7050 C   0  0  0  0  0  0  0  0  0  0  0  0
    9.2430   -0.5860   23.0950 C   0  0  0  0  0  0  0  0  0  0  0  0
    9.6470    0.2410   24.2710 C   0  0  0  0  0  0  0  0  0  0  0  0
   10.3730   -0.9600   22.5100 C   0  0  0  0  0  0  0  0  0  0  0  0
   10.9730    0.3420   24.3580 N   0  0  0  0  0  0  0  0  0  0  0  0
   11.3090   -0.4000   23.2770 N   0  0  0  0  0  0  0  0  0  0  0  0
   12.6040   -0.6070   22.9230 C   0  0  0  0  0  0  0  0  0  0  0  0
   12.8720   -2.2240   21.5500 I   0  0  0  0  0  0  0  0  0  0  0  0
   13.3250   -0.5770   23.9110 C   0  0  0  0  0  0  0  0  0  0  0  0
   13.5360    0.6100   22.9460 C   0  0  0  0  0  0  0  0  0  0  0  0
  1  2  1  0
  2  3  2  0
  2  4  1  0
  3  5  1  0
  4  6  2  0
  4  7  1  0
  5  8  2  0
  6  8  1  0
  7  9  1  0
  9 10  2  0
  9 11  1  0
 11 12  1  0
 12 13  1  0
 12 14  2  0
 13 15  2  0
 14 16  1  0
 15 16  1  0
 16 17  1  0
 17 18  1  0
 17 19  1  0
 17 20  1  0
 19 20  1  0
M  END
