DAR-DIA-2b784ede-4-bromoalkyne
     RDKit          3D

 23 24  0  0  0  0  0  0  0  0999 V2000
    7.3960   -2.7380   19.7120 C   0  0  0  0  0  0  0  0  0  0  0  0
    6.4660   -2.3090   18.5810 C   0  0  0  0  0  0  0  0  0  0  0  0
    8.4690   -1.7190   20.3090 N   0  0  0  0  0  0  0  0  0  0  0  0
    9.4000   -1.8660   21.4650 C   0  0  0  0  0  0  0  0  0  0  0  0
    7.8410   -0.4270   20.7000 C   0  0  1  0  0  0  0  0  0  0  0  0
   10.8680   -1.9200   21.6190 C   0  0  0  0  0  0  0  0  0  0  0  0
    8.8010   -1.9640   22.6470 C   0  0  0  0  0  0  0  0  0  0  0  0
    8.6730    0.7040   21.3530 C   0  0  0  0  0  0  0  0  0  0  0  0
    6.7540   -0.1050   19.7820 C   0  0  0  0  0  0  0  0  0  0  0  0
   11.5080   -2.1140   22.8330 C   0  0  0  0  0  0  0  0  0  0  0  0
    9.4740   -2.1560   23.8720 C   0  0  0  0  0  0  0  0  0  0  0  0
    9.7940    0.5280   21.8170 O   0  0  0  0  0  0  0  0  0  0  0  0
    7.9960    1.9180   21.3730 N   0  0  0  0  0  0  0  0  0  0  0  0
    6.8950    0.7240   18.4880 C   0  0  0  0  0  0  0  0  0  0  0  0
    5.5920   -0.6000   20.1140 C   0  0  0  0  0  0  0  0  0  0  0  0
   10.7680   -2.2570   23.9730 C   0  0  0  0  0  0  0  0  0  0  0  0
    8.5170    3.2020   21.8910 C   0  0  0  0  0  0  0  0  0  0  0  0
    5.8720    0.9400   17.7120 N   0  0  0  0  0  0  0  0  0  0  0  0
    4.5930   -0.3710   19.3480 C   0  0  0  0  0  0  0  0  0  0  0  0
    5.3100   -1.4500   21.3280 C   0  0  0  0  0  0  0  0  0  0  0  0
   11.0640   -2.5250   25.3190 C   0  0  0  0  0  0  0  0  0  0  0  0
    4.6910    0.3570   18.1980 C   0  0  0  0  0  0  0  0  0  0  0  0
    9.9540   -3.9310   25.5090 Cl  0  0  0  0  0  0  0  0  0  0  0  0
  1  2  2  3
  1  3  1  0
  3  4  1  0
  3  5  1  0
  4  6  2  0
  4  7  1  0
  5  8  1  6
  5  9  1  0
  6 10  1  0
  7 11  2  0
  8 12  2  0
  8 13  1  0
  9 14  2  0
  9 15  1  0
 10 16  2  0
 11 16  1  0
 13 17  1  0
 14 18  1  0
 15 19  2  0
 15 20  1  0
 16 21  1  0
 18 22  2  0
 19 22  1  0
 21 23  1  0
M  END
