DAR-DIA-0cde14eb-33
     RDKit          3D

 24 27  0  0  0  0  0  0  0  0999 V2000
    8.8610    0.5540   21.3030 O   0  0  0  0  0  0  0  0  0  0  0  0
    8.3800   -0.5400   21.5880 C   0  0  0  0  0  0  0  0  0  0  0  0
    9.1670   -1.4650   22.5040 C   0  0  0  0  0  0  0  0  0  0  0  0
    7.0860   -0.9570   21.0710 N   0  0  0  0  0  0  0  0  0  0  0  0
   10.4720   -0.7900   22.7000 C   0  0  0  0  0  0  0  0  0  0  0  0
    6.3920   -0.1650   20.1200 C   0  0  0  0  0  0  0  0  0  0  0  0
   11.6960   -1.4170   22.6880 C   0  0  0  0  0  0  0  0  0  0  0  0
   10.4270    0.5930   22.8890 C   0  0  0  0  0  0  0  0  0  0  0  0
    6.5200   -0.3560   18.6620 C   0  0  0  0  0  0  0  0  0  0  0  0
    5.5380    0.8770   20.5490 C   0  0  0  0  0  0  0  0  0  0  0  0
   12.8630   -0.6480   22.8640 C   0  0  0  0  0  0  0  0  0  0  0  0
   11.5600    1.3800   23.0510 C   0  0  0  0  0  0  0  0  0  0  0  0
    5.8380    0.4490   17.8130 N   0  0  0  0  0  0  0  0  0  0  0  0
    4.8640    1.6680   19.6030 C   0  0  0  0  0  0  0  0  0  0  0  0
    5.3300    1.1790   21.9060 C   0  0  0  0  0  0  0  0  0  0  0  0
   12.7890    0.7450   23.0410 C   0  0  0  0  0  0  0  0  0  0  0  0
   11.3960    2.7550   23.1850 C   0  0  0  0  0  0  0  0  0  0  0  0
    5.0370    1.4260   18.2430 C   0  0  0  0  0  0  0  0  0  0  0  0
    4.4320    2.2170   22.2210 C   0  0  0  0  0  0  0  0  0  0  0  0
    3.9630    2.7760   20.0240 C   0  0  0  0  0  0  0  0  0  0  0  0
   12.4370    3.5850   23.2290 F   0  0  0  0  0  0  0  0  0  0  0  0
   10.3720    3.3400   22.4320 C   0  0  0  0  0  0  0  0  0  0  0  0
   10.0730    3.1740   23.9490 C   0  0  0  0  0  0  0  0  0  0  0  0
    4.4150    3.3450   21.2080 C   0  0  0  0  0  0  0  0  0  0  0  0
  1  2  2  0
  2  3  1  0
  2  4  1  0
  3  5  1  0
  4  6  1  0
  5  7  2  0
  5  8  1  0
  6  9  2  0
  6 10  1  0
  7 11  1  0
  8 12  2  0
  9 13  1  0
 10 14  2  0
 10 15  1  0
 11 16  2  0
 12 16  1  0
 12 17  1  0
 13 18  2  0
 14 18  1  0
 15 19  1  0
 14 20  1  0
 17 21  1  0
 17 22  1  0
 17 23  1  0
 22 23  1  0
 19 24  1  0
 20 24  1  0
M  END
