DAR-DIA-2b784ede-10-nitrile
     RDKit          3D

 32 34  0  0  0  0  0  0  0  0999 V2000
    7.7980   -3.2780   19.6680 C   0  0  0  0  0  0  0  0  0  0  0  0
    6.4920   -3.5440   19.5240 N   0  0  0  0  0  0  0  0  0  0  0  0
    8.5400   -2.1760   20.4180 N   0  0  0  0  0  0  0  0  0  0  0  0
    9.4050   -2.3460   21.5370 C   0  0  0  0  0  0  0  0  0  0  0  0
    8.1240   -0.8040   20.8270 C   0  0  1  0  0  0  0  0  0  0  0  0
    8.6430   -2.5580   22.6280 C   0  0  0  0  0  0  0  0  0  0  0  0
   10.8240   -2.3010   21.7060 C   0  0  0  0  0  0  0  0  0  0  0  0
    7.0660   -0.7570   21.8880 C   0  0  0  0  0  0  0  0  0  0  0  0
    9.2020    0.0460   21.5280 C   0  0  0  0  0  0  0  0  0  0  0  0
    9.1340   -2.7370   23.8300 C   0  0  0  0  0  0  0  0  0  0  0  0
   11.3590   -2.5170   23.1030 C   0  0  0  0  0  0  0  0  0  0  0  0
    7.2870   -0.7100   23.0890 O   0  0  0  0  0  0  0  0  0  0  0  0
    5.8330   -0.7060   21.4260 N   0  0  0  0  0  0  0  0  0  0  0  0
   10.4620   -0.6150   22.0240 C   0  0  0  0  0  0  0  0  0  0  0  0
    9.1470    1.4260   21.7940 C   0  0  0  0  0  0  0  0  0  0  0  0
   10.4590   -2.7370   24.1230 C   0  0  0  0  0  0  0  0  0  0  0  0
    5.5310    0.1370   20.3590 C   0  0  0  0  0  0  0  0  0  0  0  0
   11.5140   -0.0450   22.6750 N   0  0  0  0  0  0  0  0  0  0  0  0
   10.2310    1.9740   22.4580 C   0  0  0  0  0  0  0  0  0  0  0  0
    8.1000    2.2880   21.4510 C   0  0  0  0  0  0  0  0  0  0  0  0
   10.5930   -2.9720   25.4060 C   0  0  0  0  0  0  0  0  0  0  0  0
    5.9180   -0.1830   18.9150 C   0  0  0  0  0  0  0  0  0  0  0  0
    4.8510    1.3390   20.6330 C   0  0  0  0  0  0  0  0  0  0  0  0
   11.3450    1.2630   22.8700 C   0  0  0  0  0  0  0  0  0  0  0  0
    9.2170   -3.4570   25.8830 C   0  0  0  0  0  0  0  0  0  0  0  0
    6.6680   -1.4480   18.5070 C   0  0  0  0  0  0  0  0  0  0  0  0
    5.5680    0.7200   17.9190 C   0  0  0  0  0  0  0  0  0  0  0  0
    4.5460    2.1730   19.5740 C   0  0  0  0  0  0  0  0  0  0  0  0
    4.4820    1.7170   21.9100 C   0  0  0  0  0  0  0  0  0  0  0  0
    8.1340   -3.7910   26.1380 N   0  0  0  0  0  0  0  0  0  0  0  0
    4.8790    1.8930   18.2660 C   0  0  0  0  0  0  0  0  0  0  0  0
    5.1630    2.7860   22.4770 C   0  0  0  0  0  0  0  0  0  0  0  0
  1  2  2  3
  1  3  1  0
  3  4  1  0
  3  5  1  0
  4  6  2  0
  4  7  1  0
  5  8  1  1
  5  9  1  0
  6 10  1  0
  7 11  2  0
  8 12  2  0
  8 13  1  0
  9 14  2  0
  9 15  1  0
 10 16  2  0
 11 16  1  0
 13 17  1  0
 14 18  1  0
 15 19  2  0
 15 20  1  0
 16 21  1  0
 17 22  2  0
 17 23  1  0
 18 24  2  0
 19 24  1  0
 21 25  1  0
 22 26  1  0
 22 27  1  0
 23 28  2  0
 23 29  1  0
 25 30  3  0
 27 31  2  0
 28 31  1  0
 29 32  1  0
M  END
