DAR-DIA-2b784ede-5-vinylsulfonamide
     RDKit          3D

 26 27  0  0  0  0  0  0  0  0999 V2000
    7.1970   -4.3640   20.9300 C   0  0  0  0  0  0  0  0  0  0  0  0
    7.3230   -3.1400   21.8290 C   0  0  0  0  0  0  0  0  0  0  0  0
    6.0120   -2.0270   21.5170 S   0  0  0  0  0  0  0  0  0  0  0  0
    4.7150   -3.0170   21.5510 O   0  0  0  0  0  0  0  0  0  0  0  0
    6.2850   -1.3980   20.2460 O   0  0  0  0  0  0  0  0  0  0  0  0
    6.8160   -0.9220   22.7620 N   0  0  0  0  0  0  0  0  0  0  0  0
    6.0910    0.1140   23.4090 C   0  0  0  0  0  0  0  0  0  0  0  0
    8.1430   -0.1680   22.3600 C   0  0  1  0  0  0  0  0  0  0  0  0
    5.5130   -1.0750   23.9980 C   0  0  0  0  0  0  0  0  0  0  0  0
    5.3220    0.9780   24.1050 N   0  0  0  0  0  0  0  0  0  0  0  0
    7.9360    1.3850   22.2300 C   0  0  0  0  0  0  0  0  0  0  0  0
    9.6300   -0.4630   22.7730 C   0  0  0  0  0  0  0  0  0  0  0  0
    4.5000   -1.3080   24.9590 C   0  0  0  0  0  0  0  0  0  0  0  0
    4.2810    0.8260   25.0950 C   0  0  0  0  0  0  0  0  0  0  0  0
    8.2370    2.0140   21.1960 O   0  0  0  0  0  0  0  0  0  0  0  0
    7.4150    2.0000   23.3710 N   0  0  0  0  0  0  0  0  0  0  0  0
   10.6720    0.6840   22.6180 C   0  0  0  0  0  0  0  0  0  0  0  0
   10.1990   -1.6560   23.2540 C   0  0  0  0  0  0  0  0  0  0  0  0
    3.7960   -0.3150   25.5890 C   0  0  0  0  0  0  0  0  0  0  0  0
    7.9070    1.7070   24.6640 C   0  0  0  0  0  0  0  0  0  0  0  0
   11.9860    0.6380   22.8570 N   0  0  0  0  0  0  0  0  0  0  0  0
   11.5850   -1.6610   23.4860 C   0  0  0  0  0  0  0  0  0  0  0  0
    9.3800   -2.8910   23.5010 C   0  0  0  0  0  0  0  0  0  0  0  0
    2.6840   -0.4590   26.6430 C   0  0  0  0  0  0  0  0  0  0  0  0
   12.4080   -0.5470   23.2740 C   0  0  0  0  0  0  0  0  0  0  0  0
    3.4030   -0.3380   28.2950 Cl  0  0  0  0  0  0  0  0  0  0  0  0
  1  2  1  0
  2  3  1  0
  3  4  2  0
  3  5  2  0
  3  6  1  0
  6  7  1  0
  6  8  1  0
  7  9  2  0
  7 10  1  0
  8 11  1  1
  8 12  1  0
  9 13  1  0
 10 14  2  0
 11 15  2  0
 11 16  1  0
 12 17  2  0
 12 18  1  0
 13 19  2  0
 14 19  1  0
 16 20  1  0
 17 21  1  0
 18 22  2  0
 18 23  1  0
 19 24  1  0
 21 25  2  0
 22 25  1  0
 24 26  1  0
M  END
