DAR-DIA-2b784ede-10-chloroacetamide
     RDKit          3D

 33 35  0  0  0  0  0  0  0  0999 V2000
    7.5500   -3.1690   19.2550 C   0  0  0  0  0  0  0  0  0  0  0  0
    6.8950   -3.8220   20.4240 C   0  0  0  0  0  0  0  0  0  0  0  0
    5.9690   -4.6430   20.0820 O   0  0  0  0  0  0  0  0  0  0  0  0
    7.3100   -3.4660   21.8290 N   0  0  0  0  0  0  0  0  0  0  0  0
    8.5460   -2.8230   22.3400 C   0  0  0  0  0  0  0  0  0  0  0  0
    6.3350   -2.5920   22.5290 C   0  0  2  0  0  0  0  0  0  0  0  0
    9.7450   -2.6030   21.6890 C   0  0  0  0  0  0  0  0  0  0  0  0
    8.5150   -2.3630   23.6430 C   0  0  0  0  0  0  0  0  0  0  0  0
    6.7000   -1.1850   21.9810 C   0  0  0  0  0  0  0  0  0  0  0  0
    6.1810   -2.7980   24.0570 C   0  0  0  0  0  0  0  0  0  0  0  0
   10.8430   -1.9690   22.2630 C   0  0  0  0  0  0  0  0  0  0  0  0
    9.6840   -1.6830   24.2550 C   0  0  0  0  0  0  0  0  0  0  0  0
    7.4790   -0.3650   22.4870 O   0  0  0  0  0  0  0  0  0  0  0  0
    6.0450   -1.0200   20.8120 N   0  0  0  0  0  0  0  0  0  0  0  0
    5.6720   -4.1140   24.5990 C   0  0  0  0  0  0  0  0  0  0  0  0
    6.4780   -1.8320   25.0680 C   0  0  0  0  0  0  0  0  0  0  0  0
   10.8360   -1.4860   23.5660 C   0  0  0  0  0  0  0  0  0  0  0  0
    5.5760    0.0910   20.1250 C   0  0  0  0  0  0  0  0  0  0  0  0
    5.4810   -4.4460   25.8880 N   0  0  0  0  0  0  0  0  0  0  0  0
    6.2700   -2.2060   26.3880 C   0  0  0  0  0  0  0  0  0  0  0  0
    7.0020   -0.4330   24.8670 C   0  0  0  0  0  0  0  0  0  0  0  0
   11.9730   -0.7690   24.2020 C   0  0  0  0  0  0  0  0  0  0  0  0
    6.1280    0.0960   18.7270 C   0  0  0  0  0  0  0  0  0  0  0  0
    4.7100    1.0980   20.5690 C   0  0  0  0  0  0  0  0  0  0  0  0
    5.7940   -3.4570   26.7380 C   0  0  0  0  0  0  0  0  0  0  0  0
   11.6110    0.6930   23.9220 C   0  0  0  0  0  0  0  0  0  0  0  0
    7.0900   -1.0310   18.3290 C   0  0  0  0  0  0  0  0  0  0  0  0
    5.7530    1.1050   17.8520 C   0  0  0  0  0  0  0  0  0  0  0  0
    4.3680    2.0810   19.6590 C   0  0  0  0  0  0  0  0  0  0  0  0
    4.2100    1.1250   21.8440 C   0  0  0  0  0  0  0  0  0  0  0  0
   11.2650    1.7670   23.6720 N   0  0  0  0  0  0  0  0  0  0  0  0
    4.8030    2.1700   18.3470 C   0  0  0  0  0  0  0  0  0  0  0  0
    4.7070    0.0520   22.7900 C   0  0  0  0  0  0  0  0  0  0  0  0
  1  2  1  0
  2  3  2  0
  2  4  1  0
  4  5  1  0
  4  6  1  0
  5  7  2  0
  5  8  1  0
  6  9  1  1
  6 10  1  0
  7 11  1  0
  8 12  2  0
  9 13  2  0
  9 14  1  0
 10 15  2  0
 10 16  1  0
 11 17  2  0
 12 17  1  0
 14 18  1  0
 15 19  1  0
 16 20  2  0
 16 21  1  0
 17 22  1  0
 18 23  2  0
 18 24  1  0
 19 25  2  0
 20 25  1  0
 22 26  1  0
 23 27  1  0
 23 28  1  0
 24 29  2  0
 24 30  1  0
 26 31  3  0
 28 32  2  0
 29 32  1  0
 30 33  1  0
M  END
