DAR-DIA-eace69ff-6
     RDKit          3D

 30 33  0  0  0  0  0  0  0  0999 V2000
   13.5650   -2.6910   23.1780 C   0  0  0  0  0  0  0  0  0  0  0  0
   13.1910   -1.9310   21.9770 C   0  0  0  0  0  0  0  0  0  0  0  0
   12.3760   -0.7910   22.4140 C   0  0  0  0  0  0  0  0  0  0  0  0
   11.0400   -1.4530   22.7220 C   0  0  0  0  0  0  0  0  0  0  0  0
   12.7150    0.5330   22.5230 C   0  0  0  0  0  0  0  0  0  0  0  0
    9.8960   -0.5510   23.2100 C   0  0  0  0  0  0  0  0  0  0  0  0
   11.5970    1.4350   22.9690 C   0  0  0  0  0  0  0  0  0  0  0  0
    8.6770   -1.1220   23.5090 N   0  0  0  0  0  0  0  0  0  0  0  0
   10.2110    0.9530   23.3190 C   0  0  0  0  0  0  0  0  0  0  0  0
   11.6670    2.9480   23.1360 C   0  0  0  0  0  0  0  0  0  0  0  0
    8.3900   -2.5680   23.3740 C   0  0  0  0  0  0  0  0  0  0  0  0
   12.7050    4.0700   22.9430 C   0  0  0  0  0  0  0  0  0  0  0  0
   10.3440    3.1850   23.5750 C   0  0  0  0  0  0  0  0  0  0  0  0
    9.4720    2.0300   23.6910 N   0  0  0  0  0  0  0  0  0  0  0  0
    9.2540   -3.2120   24.2890 C   0  0  0  0  0  0  0  0  0  0  0  0
    7.0240   -2.7450   23.6260 C   0  0  0  0  0  0  0  0  0  0  0  0
   12.1330    5.3850   23.3490 N   0  0  0  0  0  0  0  0  0  0  0  0
    8.1550    2.0830   24.1040 C   0  0  0  0  0  0  0  0  0  0  0  0
    8.6630   -4.2570   25.0190 C   0  0  0  0  0  0  0  0  0  0  0  0
    6.6090   -4.0260   23.9580 C   0  0  0  0  0  0  0  0  0  0  0  0
   10.9730    5.6840   22.5490 C   0  0  0  0  0  0  0  0  0  0  0  0
   11.8460    5.5170   24.7750 C   0  0  0  0  0  0  0  0  0  0  0  0
    7.2100    1.6900   23.4190 O   0  0  0  0  0  0  0  0  0  0  0  0
    7.9490    2.6350   25.3660 C   0  0  0  0  0  0  0  0  0  0  0  0
    7.6510   -4.8740   24.3090 C   0  0  0  0  0  0  0  0  0  0  0  0
    6.9650    2.1220   26.1860 C   0  0  0  0  0  0  0  0  0  0  0  0
    8.7420    3.6940   25.7750 C   0  0  0  0  0  0  0  0  0  0  0  0
    6.6670    2.6520   27.5670 C   0  0  0  0  0  0  0  0  0  0  0  0
    8.6110    4.3680   27.1170 C   0  0  0  0  0  0  0  0  0  0  0  0
    7.5290    3.8220   28.0490 C   0  0  0  0  0  0  0  0  0  0  0  0
  1  2  1  0
  2  3  1  0
  3  4  2  0
  3  5  1  0
  4  6  1  0
  5  7  2  0
  6  8  1  0
  6  9  2  0
  7  9  1  0
  7 10  1  0
  8 11  1  0
 10 12  1  0
 10 13  2  0
  9 14  1  0
 13 14  1  0
 11 15  1  0
 11 16  1  0
 12 17  1  0
 14 18  1  0
 15 19  1  0
 16 20  1  0
 17 21  1  0
 17 22  1  0
 18 23  2  0
 18 24  1  0
 19 25  1  0
 20 25  1  0
 24 26  2  0
 24 27  1  0
 26 28  1  0
 27 29  2  0
 28 30  2  0
 29 30  1  0
M  END
