DAR-DIA-caba39e3-5-chloroacetamide
     RDKit          3D

 29 32  0  0  0  0  0  0  0  0999 V2000
    7.3590   -3.0340   18.9720 C   0  0  0  0  0  0  0  0  0  0  0  0
    6.4150   -3.4350   20.0710 C   0  0  0  0  0  0  0  0  0  0  0  0
    5.5400   -4.2740   19.8450 O   0  0  0  0  0  0  0  0  0  0  0  0
    6.6350   -2.8040   21.2880 N   0  0  0  0  0  0  0  0  0  0  0  0
    6.1370   -3.2540   22.5100 C   0  0  0  0  0  0  0  0  0  0  0  0
    7.7120   -1.8500   21.4940 C   0  0  0  0  0  0  0  0  0  0  0  0
    7.2110   -3.7560   23.4480 C   0  0  0  0  0  0  0  0  0  0  0  0
    8.8950   -2.4590   22.2760 C   0  0  2  0  0  0  0  0  0  0  0  0
    6.8100   -4.7180   24.5540 C   0  0  0  0  0  0  0  0  0  0  0  0
    8.5160   -3.3470   23.2850 C   0  0  0  0  0  0  0  0  0  0  0  0
    9.7610   -1.3530   22.5290 C   0  0  0  0  0  0  0  0  0  0  0  0
    7.8280   -5.2960   25.5490 C   0  0  0  0  0  0  0  0  0  0  0  0
    9.5970   -3.8750   24.2220 C   0  0  0  0  0  0  0  0  0  0  0  0
   11.1020   -1.5760   22.3710 C   0  0  0  0  0  0  0  0  0  0  0  0
    9.3750   -0.0360   22.9100 C   0  0  0  0  0  0  0  0  0  0  0  0
    9.2920   -4.8550   25.3680 C   0  0  0  0  0  0  0  0  0  0  0  0
   11.9990   -0.5680   22.5770 C   0  0  0  0  0  0  0  0  0  0  0  0
   10.2950    0.9770   23.1080 C   0  0  0  0  0  0  0  0  0  0  0  0
    8.1470    0.5600   23.1580 N   0  0  0  0  0  0  0  0  0  0  0  0
   13.5500   -1.0330   22.3270 Cl  0  0  0  0  0  0  0  0  0  0  0  0
   11.6390    0.7190   22.9470 C   0  0  0  0  0  0  0  0  0  0  0  0
    9.5810    2.2680   23.4840 C   0  0  0  0  0  0  0  0  0  0  0  0
    8.2250    1.9340   23.5030 C   0  0  0  0  0  0  0  0  0  0  0  0
   10.3080    3.6010   23.7620 C   0  0  0  0  0  0  0  0  0  0  0  0
    9.6460    4.8210   23.4180 C   0  0  0  0  0  0  0  0  0  0  0  0
    9.1230    5.5520   24.5640 N   0  0  0  0  0  0  0  0  0  0  0  0
    9.4160    5.1390   25.8790 C   0  0  0  0  0  0  0  0  0  0  0  0
    8.6780    4.0280   26.3870 C   0  0  0  0  0  0  0  0  0  0  0  0
   10.3400    5.7490   26.6310 O   0  0  0  0  0  0  0  0  0  0  0  0
  1  2  1  0
  2  3  2  0
  2  4  1  0
  4  5  1  0
  4  6  1  0
  5  7  1  0
  6  8  1  0
  7  9  1  0
  7 10  2  0
  8 10  1  0
  8 11  1  1
  9 12  2  0
 10 13  1  0
 11 14  2  0
 11 15  1  0
 12 16  1  0
 13 16  2  0
 14 17  1  0
 15 18  2  0
 15 19  1  0
 17 20  1  0
 17 21  2  0
 18 21  1  0
 18 22  1  0
 19 23  1  0
 22 23  2  0
 22 24  1  0
 24 25  1  0
 25 26  1  0
 26 27  1  0
 27 28  1  0
 27 29  2  0
M  END
