DAR-DIA-23aa0b97-4-chloroacetamide
     RDKit          3D

 19 20  0  0  0  0  0  0  0  0999 V2000
    8.5580   -3.6040   19.5080 C   0  0  0  0  0  0  0  0  0  0  0  0
    7.7260   -2.9770   20.5410 C   0  0  0  0  0  0  0  0  0  0  0  0
    6.8350   -3.3040   19.5800 O   0  0  0  0  0  0  0  0  0  0  0  0
    9.1690   -2.8390   21.2820 C   0  0  0  0  0  0  0  0  0  0  0  0
   10.5500   -2.5450   22.0850 C   0  0  0  0  0  0  0  0  0  0  0  0
    8.5550   -1.6170   21.6930 C   0  0  0  0  0  0  0  0  0  0  0  0
   10.9530   -1.3890   22.9360 C   0  0  0  0  0  0  0  0  0  0  0  0
    8.9930   -0.5410   22.5100 C   0  0  0  0  0  0  0  0  0  0  0  0
   10.1620   -0.3980   23.1380 C   0  0  0  0  0  0  0  0  0  0  0  0
    8.1890    0.5960   22.7630 N   0  0  0  0  0  0  0  0  0  0  0  0
    7.5160    0.8900   21.6460 C   0  0  0  0  0  0  0  0  0  0  0  0
    7.8790    1.7880   20.8780 O   0  0  0  0  0  0  0  0  0  0  0  0
    6.3210    0.0360   21.3280 C   0  0  0  0  0  0  0  0  0  0  0  0
    5.9480    0.5590   19.9810 C   0  0  0  0  0  0  0  0  0  0  0  0
    4.8490    1.2870   19.9940 C   0  0  0  0  0  0  0  0  0  0  0  0
    6.6490    0.3450   18.8050 C   0  0  0  0  0  0  0  0  0  0  0  0
    4.4220    1.8380   18.8270 C   0  0  0  0  0  0  0  0  0  0  0  0
    6.2690    0.8690   17.6170 N   0  0  0  0  0  0  0  0  0  0  0  0
    5.1180    1.6410   17.6560 C   0  0  0  0  0  0  0  0  0  0  0  0
  1  2  1  0
  2  3  2  0
  2  4  1  0
  4  5  2  0
  4  6  1  0
  5  7  1  0
  6  8  2  0
  7  9  2  0
  8  9  1  0
  8 10  1  0
 10 11  1  0
 11 12  2  0
 11 13  1  0
 13 14  1  0
 14 15  2  0
 14 16  1  0
 15 17  1  0
 16 18  2  0
 17 19  2  0
 18 19  1  0
M  END
