DAR-DIA-3e9bbd81-13-vinylsulfonamide
     RDKit          3D

 30 34  0  0  0  0  0  0  0  0999 V2000
    9.0040   -3.9460   20.1130 C   0  0  0  0  0  0  0  0  0  0  0  0
    7.9760   -4.4810   21.0590 C   0  0  0  0  0  0  0  0  0  0  0  0
    6.3810   -3.7960   20.6000 S   0  0  0  0  0  0  0  0  0  0  0  0
    5.2650   -4.4470   21.2790 O   0  0  0  0  0  0  0  0  0  0  0  0
    6.3530   -3.6290   19.1720 O   0  0  0  0  0  0  0  0  0  0  0  0
    6.5210   -2.2840   21.2100 N   0  0  0  0  0  0  0  0  0  0  0  0
    7.6000   -1.3910   20.7350 C   0  0  0  0  0  0  0  0  0  0  0  0
    6.4890   -2.0760   22.6890 C   0  0  2  0  0  0  0  0  0  0  0  0
    8.2460   -1.0380   22.0940 C   0  0  1  0  0  0  0  0  0  0  0  0
    6.9620   -0.6360   22.7860 C   0  0  0  0  0  0  0  0  0  0  0  0
    7.4090   -2.9820   23.1740 C   0  0  0  0  0  0  0  0  0  0  0  0
    8.6950   -2.2820   22.8290 N   0  0  0  0  0  0  0  0  0  0  0  0
    9.5370   -1.9110   23.9770 C   0  0  2  0  0  0  0  0  0  0  0  0
   10.8390   -1.3020   23.5100 C   0  0  0  0  0  0  0  0  0  0  0  0
    9.8690   -2.9630   24.9450 N   0  0  0  0  0  0  0  0  0  0  0  0
   11.9750   -1.9390   22.9540 C   0  0  0  0  0  0  0  0  0  0  0  0
   10.9390    0.0810   23.6290 C   0  0  0  0  0  0  0  0  0  0  0  0
   11.1490   -3.4520   25.0020 C   0  0  0  0  0  0  0  0  0  0  0  0
    9.0780   -3.5990   25.8940 C   0  0  0  0  0  0  0  0  0  0  0  0
   13.1710   -1.2020   22.5390 C   0  0  0  0  0  0  0  0  0  0  0  0
   12.0740    0.7980   23.2210 C   0  0  0  0  0  0  0  0  0  0  0  0
   11.2020   -4.3900   25.9730 C   0  0  0  0  0  0  0  0  0  0  0  0
    9.9110   -4.5030   26.5530 C   0  0  0  0  0  0  0  0  0  0  0  0
    7.7220   -3.4720   26.2460 C   0  0  0  0  0  0  0  0  0  0  0  0
   13.1780    0.1600   22.6940 C   0  0  0  0  0  0  0  0  0  0  0  0
   12.1270    2.2090   23.3130 C   0  0  0  0  0  0  0  0  0  0  0  0
    9.3750   -5.2930   27.5860 C   0  0  0  0  0  0  0  0  0  0  0  0
    7.2170   -4.2710   27.2760 C   0  0  0  0  0  0  0  0  0  0  0  0
   12.1820    3.6780   23.2750 N   0  0  0  0  0  0  0  0  0  0  0  0
    8.0350   -5.1720   27.9400 C   0  0  0  0  0  0  0  0  0  0  0  0
  1  2  1  0
  3  2  1  0
  3  4  2  0
  3  5  2  0
  3  6  1  0
  6  7  1  0
  6  8  1  0
  9  7  1  6
  8 10  1  0
  9 10  1  0
  8 11  1  1
  9 12  1  0
 11 12  1  0
 12 13  1  0
 13 14  1  6
 13 15  1  0
 14 16  2  0
 14 17  1  0
 15 18  1  0
 15 19  1  0
 16 20  1  0
 17 21  2  0
 18 22  2  0
 19 23  2  0
 22 23  1  0
 19 24  1  0
 20 25  2  0
 21 25  1  0
 21 26  1  0
 23 27  1  0
 24 28  2  0
 26 29  3  0
 27 30  2  0
 28 30  1  0
M  END
