DAR-DIA-43a5904b-3
     RDKit          3D

 22 24  0  0  0  0  0  0  0  0999 V2000
   10.1570    2.9410   22.3540 N   0  0  0  0  0  0  0  0  0  0  0  0
    9.2690    1.9100   22.2050 C   0  0  0  0  0  0  0  0  0  0  0  0
    8.8260    1.6650   21.0890 O   0  0  0  0  0  0  0  0  0  0  0  0
    8.8820    1.1640   23.4550 C   0  0  1  0  0  0  0  0  0  0  0  0
    7.3440    1.1690   23.3650 C   0  0  0  0  0  0  0  0  0  0  0  0
    9.1960   -0.4030   23.4360 C   0  0  1  0  0  0  0  0  0  0  0  0
    7.0660   -0.1460   22.7060 C   0  0  0  0  0  0  0  0  0  0  0  0
    8.1350   -1.0050   22.7460 C   0  0  0  0  0  0  0  0  0  0  0  0
   10.4370   -0.9520   23.1420 C   0  0  0  0  0  0  0  0  0  0  0  0
    5.7040   -0.3210   22.1040 C   0  0  0  0  0  0  0  0  0  0  0  0
   10.8600   -1.1540   21.8410 C   0  0  0  0  0  0  0  0  0  0  0  0
   11.2870   -1.3560   24.1360 C   0  0  0  0  0  0  0  0  0  0  0  0
    5.4380    0.2550   20.8800 C   0  0  0  0  0  0  0  0  0  0  0  0
   12.0960   -1.7460   21.5440 C   0  0  0  0  0  0  0  0  0  0  0  0
   12.4790   -1.9420   23.8240 C   0  0  0  0  0  0  0  0  0  0  0  0
    6.3730    0.2340   19.8400 C   0  0  0  0  0  0  0  0  0  0  0  0
    4.1970    0.8970   20.6420 C   0  0  0  0  0  0  0  0  0  0  0  0
   12.9010   -2.1410   22.5510 C   0  0  0  0  0  0  0  0  0  0  0  0
   13.6470   -2.5910   25.3550 I   0  0  0  0  0  0  0  0  0  0  0  0
    6.0900    0.8270   18.6260 C   0  0  0  0  0  0  0  0  0  0  0  0
    3.8510    1.5290   19.3960 N   0  0  0  0  0  0  0  0  0  0  0  0
    4.7840    1.4910   18.4140 C   0  0  0  0  0  0  0  0  0  0  0  0
  1  2  1  0
  2  3  2  0
  4  2  1  6
  4  5  1  0
  4  6  1  0
  5  7  1  0
  6  8  1  0
  7  8  2  0
  6  9  1  6
  7 10  1  0
  9 11  2  0
  9 12  1  0
 10 13  1  0
 11 14  1  0
 12 15  2  0
 13 16  2  0
 13 17  1  0
 14 18  2  0
 15 18  1  0
 15 19  1  0
 16 20  1  0
 17 21  2  0
 20 22  2  0
 21 22  1  0
M  END
