DAR-DIA-2b784ede-4-vinylsulfonamide
     RDKit          3D

 26 27  0  0  0  0  0  0  0  0999 V2000
    8.3200   -3.6370   21.2660 C   0  0  0  0  0  0  0  0  0  0  0  0
    7.4460   -2.6550   22.1120 C   0  0  0  0  0  0  0  0  0  0  0  0
    6.0640   -1.8960   21.4120 S   0  0  0  0  0  0  0  0  0  0  0  0
    4.7700   -3.0020   21.4900 O   0  0  0  0  0  0  0  0  0  0  0  0
    6.3210   -1.4020   20.0870 O   0  0  0  0  0  0  0  0  0  0  0  0
    6.9670   -0.6390   22.4320 N   0  0  0  0  0  0  0  0  0  0  0  0
    8.5290   -0.7710   22.4800 C   0  0  0  0  0  0  0  0  0  0  0  0
    6.6080    0.7500   21.9400 C   0  0  1  0  0  0  0  0  0  0  0  0
    9.1160    0.1270   23.2020 C   0  0  0  0  0  0  0  0  0  0  0  0
    9.7190   -0.1370   23.0470 C   0  0  0  0  0  0  0  0  0  0  0  0
    7.6600    1.8760   22.1890 C   0  0  0  0  0  0  0  0  0  0  0  0
    5.9780    0.7330   20.5400 C   0  0  0  0  0  0  0  0  0  0  0  0
   10.2340   -0.8300   22.5630 C   0  0  0  0  0  0  0  0  0  0  0  0
   11.1370    0.2600   23.4550 C   0  0  0  0  0  0  0  0  0  0  0  0
    8.4660    2.1920   21.2940 O   0  0  0  0  0  0  0  0  0  0  0  0
    7.5840    2.4750   23.4460 N   0  0  0  0  0  0  0  0  0  0  0  0
    6.9270    0.5970   19.3400 C   0  0  0  0  0  0  0  0  0  0  0  0
    4.6690    0.8170   20.2420 C   0  0  0  0  0  0  0  0  0  0  0  0
   11.6660   -0.6230   22.8240 C   0  0  0  0  0  0  0  0  0  0  0  0
    8.4550    2.2070   24.6240 C   0  0  0  0  0  0  0  0  0  0  0  0
    6.5250    0.5500   18.0570 N   0  0  0  0  0  0  0  0  0  0  0  0
    4.2810    0.7730   18.9530 C   0  0  0  0  0  0  0  0  0  0  0  0
    3.6090    0.9540   21.2510 C   0  0  0  0  0  0  0  0  0  0  0  0
   13.0820   -1.1280   22.5440 C   0  0  0  0  0  0  0  0  0  0  0  0
    5.1470    0.6460   17.9180 C   0  0  0  0  0  0  0  0  0  0  0  0
   13.0890   -2.1080   21.0580 Cl  0  0  0  0  0  0  0  0  0  0  0  0
  1  2  1  0
  2  3  1  0
  3  4  2  0
  3  5  2  0
  3  6  1  0
  6  7  1  0
  6  8  1  0
  7  9  2  0
  7 10  1  0
  8 11  1  6
  8 12  1  0
  9 13  1  0
 10 14  2  0
 11 15  2  0
 11 16  1  0
 12 17  2  0
 12 18  1  0
 13 19  2  0
 14 19  1  0
 16 20  1  0
 17 21  1  0
 18 22  2  0
 18 23  1  0
 19 24  1  0
 21 25  2  0
 22 25  1  0
 24 26  1  0
M  END
