DAR-DIA-fb20be43-9-acrylamide
     RDKit          3D

 25 27  0  0  0  0  0  0  0  0999 V2000
    7.8940   -3.3060   19.1050 C   0  0  0  0  0  0  0  0  0  0  0  0
    6.8440   -2.5400   18.9070 C   0  0  0  0  0  0  0  0  0  0  0  0
    5.9660   -2.6230   20.1090 C   0  0  0  0  0  0  0  0  0  0  0  0
    4.8700   -3.1850   20.0560 O   0  0  0  0  0  0  0  0  0  0  0  0
    6.4930   -2.1000   21.2690 N   0  0  0  0  0  0  0  0  0  0  0  0
    7.5820   -1.1090   21.1400 C   0  0  0  0  0  0  0  0  0  0  0  0
    6.4030   -2.8100   22.5560 C   0  0  0  0  0  0  0  0  0  0  0  0
    8.8910   -1.5380   21.8320 C   0  0  0  0  0  0  0  0  0  0  0  0
    7.7730   -3.2400   23.1150 C   0  0  0  0  0  0  0  0  0  0  0  0
    8.7030   -2.1080   23.1780 N   0  0  0  0  0  0  0  0  0  0  0  0
    9.9670   -2.3730   23.8920 C   0  0  0  0  0  0  0  0  0  0  0  0
   10.9690   -1.4730   23.5390 C   0  0  0  0  0  0  0  0  0  0  0  0
   12.1330   -1.9240   22.9510 C   0  0  0  0  0  0  0  0  0  0  0  0
   10.7740   -0.0850   23.7740 C   0  0  0  0  0  0  0  0  0  0  0  0
   13.1390   -1.0160   22.5770 C   0  0  0  0  0  0  0  0  0  0  0  0
   11.7890    0.8460   23.3740 C   0  0  0  0  0  0  0  0  0  0  0  0
    9.4900    0.4400   24.4390 C   0  0  0  0  0  0  0  0  0  0  0  0
   12.9660    0.3740   22.7920 C   0  0  0  0  0  0  0  0  0  0  0  0
   11.6390    2.3470   23.5400 C   0  0  0  0  0  0  0  0  0  0  0  0
    9.3040    1.9490   24.6250 C   0  0  0  0  0  0  0  0  0  0  0  0
   10.3830    2.9280   24.1530 C   0  0  0  0  0  0  0  0  0  0  0  0
   10.1560    4.6900   24.2990 S   0  0  0  0  0  0  0  0  0  0  0  0
    9.5410    5.1210   22.7930 N   0  0  0  0  0  0  0  0  0  0  0  0
    9.1030    4.9450   25.2500 O   0  0  0  0  0  0  0  0  0  0  0  0
   11.4500    5.3270   24.3820 O   0  0  0  0  0  0  0  0  0  0  0  0
  1  2  1  0
  2  3  1  0
  3  4  2  0
  3  5  1  0
  5  6  1  0
  5  7  1  0
  6  8  1  0
  7  9  1  0
  8 10  1  0
  9 10  1  0
 10 11  1  0
 11 12  1  0
 12 13  2  0
 12 14  1  0
 13 15  1  0
 14 16  2  0
 14 17  1  0
 15 18  2  0
 16 18  1  0
 16 19  1  0
 17 20  2  0
 19 21  2  0
 20 21  1  0
 21 22  1  0
 22 23  1  0
 22 24  2  0
 22 25  2  0
M  END
