DAR-DIA-fb20be43-18-acrylamide
     RDKit          3D

 29 31  0  0  0  0  0  0  0  0999 V2000
    7.8950   -3.3320   19.2210 C   0  0  0  0  0  0  0  0  0  0  0  0
    6.8860   -2.5560   18.9000 C   0  0  0  0  0  0  0  0  0  0  0  0
    5.8940   -2.6180   20.0110 C   0  0  0  0  0  0  0  0  0  0  0  0
    4.8230   -3.2220   19.8880 O   0  0  0  0  0  0  0  0  0  0  0  0
    6.2940   -2.0080   21.1740 N   0  0  0  0  0  0  0  0  0  0  0  0
    7.3910   -1.0210   21.0860 C   0  0  0  0  0  0  0  0  0  0  0  0
    6.1960   -2.8210   22.4000 C   0  0  0  0  0  0  0  0  0  0  0  0
    8.6980   -1.4980   21.7400 C   0  0  0  0  0  0  0  0  0  0  0  0
    7.5630   -3.2020   22.9970 C   0  0  0  0  0  0  0  0  0  0  0  0
    8.4960   -2.0780   23.0760 N   0  0  0  0  0  0  0  0  0  0  0  0
    9.7470   -2.4400   23.7390 C   0  0  0  0  0  0  0  0  0  0  0  0
   10.7500   -1.4860   23.6150 C   0  0  0  0  0  0  0  0  0  0  0  0
   11.8610   -1.7950   22.8980 C   0  0  0  0  0  0  0  0  0  0  0  0
   10.6630   -0.2140   24.1930 C   0  0  0  0  0  0  0  0  0  0  0  0
   12.8840   -0.8630   22.7430 C   0  0  0  0  0  0  0  0  0  0  0  0
   11.6560    0.6890   24.0390 N   0  0  0  0  0  0  0  0  0  0  0  0
    9.4890    0.2720   25.0240 C   0  0  0  0  0  0  0  0  0  0  0  0
   13.8590   -1.3360   22.0270 O   0  0  0  0  0  0  0  0  0  0  0  0
   12.7420    0.3590   23.3200 C   0  0  0  0  0  0  0  0  0  0  0  0
    9.3380    1.7220   25.1080 N   0  0  0  0  0  0  0  0  0  0  0  0
   13.3820   -1.8890   20.8480 C   0  0  0  0  0  0  0  0  0  0  0  0
   10.0920    2.6520   24.3960 C   0  0  0  0  0  0  0  0  0  0  0  0
   11.1650    2.3860   23.8650 O   0  0  0  0  0  0  0  0  0  0  0  0
    9.5580    3.9250   24.3710 N   0  0  0  0  0  0  0  0  0  0  0  0
   10.3300    4.9200   23.8340 C   0  0  0  0  0  0  0  0  0  0  0  0
    8.5640    4.4110   25.3310 C   0  0  0  0  0  0  0  0  0  0  0  0
    9.5040    6.1600   23.6770 C   0  0  0  0  0  0  0  0  0  0  0  0
    9.0070    5.7480   25.9460 C   0  0  0  0  0  0  0  0  0  0  0  0
    9.1780    6.7610   24.9460 O   0  0  0  0  0  0  0  0  0  0  0  0
  1  2  1  0
  2  3  1  0
  3  4  2  0
  3  5  1  0
  5  6  1  0
  5  7  1  0
  6  8  1  0
  7  9  1  0
  8 10  1  0
  9 10  1  0
 10 11  1  0
 11 12  1  0
 12 13  2  0
 12 14  1  0
 13 15  1  0
 14 16  2  0
 14 17  1  0
 15 18  1  0
 15 19  2  0
 16 19  1  0
 17 20  1  0
 18 21  1  0
 20 22  1  0
 22 23  2  0
 22 24  1  0
 24 25  1  0
 24 26  1  0
 25 27  1  0
 26 28  1  0
 27 29  1  0
 28 29  1  0
M  END
