DAR-DIA-23aa0b97-3-bromoalkyne
     RDKit          3D

 19 20  0  0  0  0  0  0  0  0999 V2000
    8.4220   -3.5780   19.9890 C   0  0  0  0  0  0  0  0  0  0  0  0
    6.8470   -3.6950   19.9340 C   0  0  0  0  0  0  0  0  0  0  0  0
    9.2160   -2.4810   21.0610 C   0  0  0  0  0  0  0  0  0  0  0  0
   10.8170   -2.4380   21.6530 C   0  0  0  0  0  0  0  0  0  0  0  0
    8.3880   -1.4310   21.5050 C   0  0  0  0  0  0  0  0  0  0  0  0
   11.3460   -1.3440   22.6430 C   0  0  0  0  0  0  0  0  0  0  0  0
    9.5130   -1.0990   22.1620 C   0  0  0  0  0  0  0  0  0  0  0  0
   10.4160   -0.4890   22.9300 C   0  0  0  0  0  0  0  0  0  0  0  0
    8.8000    0.0300   22.6440 N   0  0  0  0  0  0  0  0  0  0  0  0
    7.9860    0.4590   21.6470 C   0  0  0  0  0  0  0  0  0  0  0  0
    8.2470    1.4670   20.9780 O   0  0  0  0  0  0  0  0  0  0  0  0
    6.7640   -0.3770   21.3410 C   0  0  0  0  0  0  0  0  0  0  0  0
    6.1550    0.2570   20.1190 C   0  0  0  0  0  0  0  0  0  0  0  0
    6.8270    0.0800   18.9740 C   0  0  0  0  0  0  0  0  0  0  0  0
    4.9710    0.9800   20.1740 C   0  0  0  0  0  0  0  0  0  0  0  0
    6.3680    0.6240   17.8070 N   0  0  0  0  0  0  0  0  0  0  0  0
    4.4860    1.5400   19.0000 C   0  0  0  0  0  0  0  0  0  0  0  0
    5.2090    1.3440   17.8500 C   0  0  0  0  0  0  0  0  0  0  0  0
    3.3140    2.2640   19.0120 N   0  0  0  0  0  0  0  0  0  0  0  0
  1  2  2  3
  1  3  1  0
  3  4  2  0
  3  5  1  0
  4  6  1  0
  5  7  2  0
  6  8  2  0
  7  8  1  0
  7  9  1  0
  9 10  1  0
 10 11  2  0
 10 12  1  0
 12 13  1  0
 13 14  2  0
 13 15  1  0
 14 16  1  0
 15 17  2  0
 16 18  2  0
 17 18  1  0
 17 19  1  0
M  END
