DAR-DIA-eace69ff-30
     RDKit          3D

 21 23  0  0  0  0  0  0  0  0999 V2000
   13.1780    6.1190   22.5630 C   0  0  0  0  0  0  0  0  0  0  0  0
   12.7040    5.0150   23.3660 N   0  0  0  0  0  0  0  0  0  0  0  0
   11.5180    5.4150   24.1110 C   0  0  0  0  0  0  0  0  0  0  0  0
   12.8350    3.7470   22.6430 C   0  0  0  0  0  0  0  0  0  0  0  0
   11.9510    2.5460   23.0550 C   0  0  0  0  0  0  0  0  0  0  0  0
   10.6570    2.8660   23.7440 C   0  0  0  0  0  0  0  0  0  0  0  0
   12.0010    1.1110   22.9400 C   0  0  0  0  0  0  0  0  0  0  0  0
    9.9370    1.6380   24.0290 N   0  0  0  0  0  0  0  0  0  0  0  0
   10.8180    0.5810   23.4880 C   0  0  0  0  0  0  0  0  0  0  0  0
   12.8850    0.1810   22.4320 C   0  0  0  0  0  0  0  0  0  0  0  0
   10.4650   -0.7670   23.5350 C   0  0  0  0  0  0  0  0  0  0  0  0
   12.6000   -1.1650   22.4210 C   0  0  0  0  0  0  0  0  0  0  0  0
    9.2660   -1.2210   24.1060 N   0  0  0  0  0  0  0  0  0  0  0  0
   11.4120   -1.6240   22.9530 C   0  0  0  0  0  0  0  0  0  0  0  0
   13.4580   -2.0250   21.8940 F   0  0  0  0  0  0  0  0  0  0  0  0
    8.3690   -1.9640   23.2110 C   0  0  0  0  0  0  0  0  0  0  0  0
    8.7570   -0.4770   25.2640 C   0  0  0  0  0  0  0  0  0  0  0  0
    8.4060   -3.2990   23.5710 C   0  0  0  0  0  0  0  0  0  0  0  0
    7.9490   -1.4640   26.1540 C   0  0  0  0  0  0  0  0  0  0  0  0
    8.1350   -3.5500   24.9200 C   0  0  0  0  0  0  0  0  0  0  0  0
    7.3470   -2.5780   25.5660 C   0  0  0  0  0  0  0  0  0  0  0  0
  1  2  1  0
  2  3  1  0
  2  4  1  0
  4  5  1  0
  5  6  2  0
  5  7  1  0
  6  8  1  0
  7  9  2  0
  8  9  1  0
  7 10  1  0
  9 11  1  0
 10 12  2  0
 11 13  1  0
 11 14  2  0
 12 14  1  0
 12 15  1  0
 13 16  1  0
 13 17  1  0
 16 18  1  0
 17 19  1  0
 18 20  1  0
 19 21  1  0
 20 21  1  0
M  END
