DAR-DIA-0cde14eb-37
     RDKit          3D

 24 27  0  0  0  0  0  0  0  0999 V2000
    8.8040    1.1170   21.2030 O   0  0  0  0  0  0  0  0  0  0  0  0
    8.4280   -0.0420   21.4890 C   0  0  0  0  0  0  0  0  0  0  0  0
    9.1070   -0.8840   22.4880 N   0  0  0  0  0  0  0  0  0  0  0  0
    7.3360   -0.6530   20.9100 N   0  0  0  0  0  0  0  0  0  0  0  0
   10.4050   -0.2550   22.6620 C   0  0  0  0  0  0  0  0  0  0  0  0
    6.4940    0.0680   20.0450 C   0  0  0  0  0  0  0  0  0  0  0  0
   11.6360   -1.0710   22.6080 C   0  0  0  0  0  0  0  0  0  0  0  0
   10.4780    1.1120   22.8610 C   0  0  0  0  0  0  0  0  0  0  0  0
    6.7840    0.2370   18.6990 C   0  0  0  0  0  0  0  0  0  0  0  0
    5.3160    0.6650   20.5340 C   0  0  0  0  0  0  0  0  0  0  0  0
   12.8410   -0.4310   22.7560 C   0  0  0  0  0  0  0  0  0  0  0  0
   11.7030    1.7760   23.0050 C   0  0  0  0  0  0  0  0  0  0  0  0
    6.0060    0.9590   17.8020 N   0  0  0  0  0  0  0  0  0  0  0  0
    4.5250    1.3910   19.6500 C   0  0  0  0  0  0  0  0  0  0  0  0
    4.9010    0.5520   21.9480 C   0  0  0  0  0  0  0  0  0  0  0  0
   12.8680    0.9710   22.9480 C   0  0  0  0  0  0  0  0  0  0  0  0
   11.7120    3.1880   23.1890 C   0  0  0  0  0  0  0  0  0  0  0  0
    4.9090    1.5080   18.3200 C   0  0  0  0  0  0  0  0  0  0  0  0
    3.9900    1.5710   22.2710 C   0  0  0  0  0  0  0  0  0  0  0  0
    3.2700    2.0450   20.1370 C   0  0  0  0  0  0  0  0  0  0  0  0
   10.8750    3.7120   24.0960 F   0  0  0  0  0  0  0  0  0  0  0  0
   11.8880    4.0110   22.1780 C   0  0  0  0  0  0  0  0  0  0  0  0
   13.0910    4.1090   22.9020 C   0  0  0  0  0  0  0  0  0  0  0  0
    2.8950    1.5770   21.3980 C   0  0  0  0  0  0  0  0  0  0  0  0
  1  2  2  0
  2  3  1  0
  2  4  1  0
  3  5  1  0
  4  6  1  0
  5  7  2  0
  5  8  1  0
  6  9  2  0
  6 10  1  0
  7 11  1  0
  8 12  2  0
  9 13  1  0
 10 14  2  0
 10 15  1  0
 11 16  2  0
 12 16  1  0
 12 17  1  0
 13 18  2  0
 14 18  1  0
 15 19  1  0
 14 20  1  0
 17 21  1  0
 17 22  1  0
 17 23  1  0
 22 23  1  0
 19 24  1  0
 20 24  1  0
M  END
