DAR-DIA-0cde14eb-75
     RDKit          3D

 22 24  0  0  0  0  0  0  0  0999 V2000
    4.8160    1.1630   21.7120 C   0  0  0  0  0  0  0  0  0  0  0  0
    5.2340    0.9150   20.2800 C   0  0  0  0  0  0  0  0  0  0  0  0
    4.7170    1.8180   19.2200 C   0  0  0  0  0  0  0  0  0  0  0  0
    6.0780   -0.0950   19.8630 C   0  0  0  0  0  0  0  0  0  0  0  0
    5.1110    1.5960   17.9200 C   0  0  0  0  0  0  0  0  0  0  0  0
    6.3910   -0.2020   18.5270 C   0  0  0  0  0  0  0  0  0  0  0  0
    6.6130   -0.9630   20.6900 N   0  0  0  0  0  0  0  0  0  0  0  0
    5.9470    0.6030   17.5350 N   0  0  0  0  0  0  0  0  0  0  0  0
    7.6240   -0.4810   21.4210 C   0  0  0  0  0  0  0  0  0  0  0  0
    8.2570    0.5540   21.1800 O   0  0  0  0  0  0  0  0  0  0  0  0
    7.9490   -1.2230   22.5080 C   0  0  1  0  0  0  0  0  0  0  0  0
    7.6150   -2.7270   22.5840 C   0  0  0  0  0  0  0  0  0  0  0  0
    9.3660   -1.0060   22.5060 C   0  0  0  0  0  0  0  0  0  0  0  0
   10.4270   -1.8820   21.8930 C   0  0  0  0  0  0  0  0  0  0  0  0
   10.0130    0.0480   23.0480 C   0  0  0  0  0  0  0  0  0  0  0  0
   11.6780   -1.2970   22.1080 N   0  0  0  0  0  0  0  0  0  0  0  0
   11.3150   -0.2020   22.7720 N   0  0  0  0  0  0  0  0  0  0  0  0
   12.3650    0.5550   23.1190 C   0  0  0  0  0  0  0  0  0  0  0  0
   12.1840    2.0300   23.1520 C   0  0  0  0  0  0  0  0  0  0  0  0
   13.6740    0.1540   22.6100 C   0  0  0  0  0  0  0  0  0  0  0  0
   13.2110   -0.3900   23.9030 C   0  0  0  0  0  0  0  0  0  0  0  0
   11.9980    3.1750   23.1040 N   0  0  0  0  0  0  0  0  0  0  0  0
  1  2  1  0
  2  3  2  0
  2  4  1  0
  3  5  1  0
  4  6  2  0
  4  7  1  0
  5  8  2  0
  6  8  1  0
  7  9  1  0
  9 10  2  0
  9 11  1  0
 11 12  1  6
 11 13  1  0
 13 14  1  0
 13 15  2  0
 14 16  2  0
 15 17  1  0
 16 17  1  0
 17 18  1  0
 18 19  1  0
 18 20  1  0
 18 21  1  0
 20 21  1  0
 19 22  3  0
M  END
