DAR-DIA-caba39e3-11-bromoalkyne
     RDKit          3D

 30 33  0  0  0  0  0  0  0  0999 V2000
    6.9730   -3.3930   19.7390 C   0  0  0  0  0  0  0  0  0  0  0  0
    5.8070   -2.9840   18.9180 C   0  0  0  0  0  0  0  0  0  0  0  0
    7.1470   -3.0910   21.0610 N   0  0  0  0  0  0  0  0  0  0  0  0
    6.4400   -3.5070   22.1870 C   0  0  0  0  0  0  0  0  0  0  0  0
    8.1290   -2.0950   21.4600 C   0  0  0  0  0  0  0  0  0  0  0  0
    7.3770   -3.9850   23.2700 C   0  0  0  0  0  0  0  0  0  0  0  0
    9.2510   -2.7450   22.2940 C   0  0  2  0  0  0  0  0  0  0  0  0
    6.8240   -4.8860   24.3620 C   0  0  0  0  0  0  0  0  0  0  0  0
    8.7070   -3.6070   23.2550 C   0  0  0  0  0  0  0  0  0  0  0  0
    9.9920   -1.6380   22.7920 C   0  0  0  0  0  0  0  0  0  0  0  0
    7.7060   -5.4340   25.4960 C   0  0  0  0  0  0  0  0  0  0  0  0
    9.6380   -4.1270   24.3290 C   0  0  0  0  0  0  0  0  0  0  0  0
   11.2790   -1.2890   22.3160 C   0  0  0  0  0  0  0  0  0  0  0  0
    9.3250   -0.9070   23.8080 C   0  0  0  0  0  0  0  0  0  0  0  0
    9.1890   -5.0410   25.4700 C   0  0  0  0  0  0  0  0  0  0  0  0
   11.9300   -0.1690   22.8610 C   0  0  0  0  0  0  0  0  0  0  0  0
    9.9060    0.1980   24.3830 C   0  0  0  0  0  0  0  0  0  0  0  0
    7.9420   -1.2710   24.3340 C   0  0  0  0  0  0  0  0  0  0  0  0
   13.1100    0.4110   22.6170 O   0  0  0  0  0  0  0  0  0  0  0  0
   11.1450    0.5450   23.9290 C   0  0  0  0  0  0  0  0  0  0  0  0
    9.1440    0.9680   25.4760 C   0  0  0  0  0  0  0  0  0  0  0  0
    7.2530   -0.4600   25.4240 C   0  0  0  0  0  0  0  0  0  0  0  0
   12.9320    1.7990   22.8570 C   0  0  0  0  0  0  0  0  0  0  0  0
    7.8530    0.6760   26.0070 C   0  0  0  0  0  0  0  0  0  0  0  0
    7.2640    1.4830   27.0240 C   0  0  0  0  0  0  0  0  0  0  0  0
    6.9410    2.8160   26.6150 C   0  0  0  0  0  0  0  0  0  0  0  0
    6.5470    3.5970   27.6840 N   0  0  0  0  0  0  0  0  0  0  0  0
    7.4180    4.4840   28.2770 C   0  0  0  0  0  0  0  0  0  0  0  0
    7.9780    4.0190   29.4620 C   0  0  0  0  0  0  0  0  0  0  0  0
    7.6880    5.5900   27.8180 O   0  0  0  0  0  0  0  0  0  0  0  0
  1  2  2  3
  1  3  1  0
  3  4  1  0
  3  5  1  0
  4  6  1  0
  5  7  1  0
  6  8  1  0
  6  9  2  0
  7  9  1  0
  7 10  1  1
  8 11  2  0
  9 12  1  0
 10 13  2  0
 10 14  1  0
 11 15  1  0
 12 15  2  0
 13 16  1  0
 14 17  2  0
 14 18  1  0
 16 19  1  0
 16 20  2  0
 17 20  1  0
 17 21  1  0
 18 22  2  0
 19 23  1  0
 21 24  2  0
 22 24  1  0
 24 25  1  0
 25 26  1  0
 26 27  1  0
 27 28  1  0
 28 29  1  0
 28 30  2  0
M  END
