DAR-DIA-2b784ede-33-nitrile
     RDKit          3D

 24 25  0  0  0  0  0  0  0  0999 V2000
    7.0900   -2.7820   20.2150 C   0  0  0  0  0  0  0  0  0  0  0  0
    5.9170   -3.0110   19.6390 N   0  0  0  0  0  0  0  0  0  0  0  0
    7.3360   -2.5260   21.7020 N   0  0  0  0  0  0  0  0  0  0  0  0
    6.2400   -3.2870   22.2510 C   0  0  0  0  0  0  0  0  0  0  0  0
    7.9420   -1.2000   22.4090 C   0  0  1  0  0  0  0  0  0  0  0  0
    6.1450   -4.0020   23.4380 C   0  0  0  0  0  0  0  0  0  0  0  0
    5.0410   -3.4570   21.6220 N   0  0  0  0  0  0  0  0  0  0  0  0
    7.2230   -0.8400   23.7380 C   0  0  0  0  0  0  0  0  0  0  0  0
    9.5060   -1.0320   22.6990 C   0  0  0  0  0  0  0  0  0  0  0  0
    4.9100   -4.6010   23.5330 C   0  0  0  0  0  0  0  0  0  0  0  0
    4.2320   -4.2540   22.3970 O   0  0  0  0  0  0  0  0  0  0  0  0
    6.1960   -1.4290   24.0620 O   0  0  0  0  0  0  0  0  0  0  0  0
    7.8100    0.1670   24.4970 N   0  0  0  0  0  0  0  0  0  0  0  0
   10.3760    0.2290   22.3630 C   0  0  0  0  0  0  0  0  0  0  0  0
   10.2250   -2.0550   23.2940 C   0  0  0  0  0  0  0  0  0  0  0  0
    4.3560   -5.4180   24.5240 C   0  0  0  0  0  0  0  0  0  0  0  0
    8.7950   -0.0090   25.5090 C   0  0  0  0  0  0  0  0  0  0  0  0
   11.7160    0.3150   22.5920 N   0  0  0  0  0  0  0  0  0  0  0  0
   11.5970   -1.9080   23.4800 C   0  0  0  0  0  0  0  0  0  0  0  0
    9.5040   -3.1890   23.6750 C   0  0  0  0  0  0  0  0  0  0  0  0
    3.0390   -5.1510   24.9430 C   0  0  0  0  0  0  0  0  0  0  0  0
    4.3600   -6.8800   24.0370 C   0  0  0  0  0  0  0  0  0  0  0  0
    5.3830   -5.3560   26.0100 Cl  0  0  0  0  0  0  0  0  0  0  0  0
   12.2940   -0.7680   23.1210 C   0  0  0  0  0  0  0  0  0  0  0  0
  1  2  2  3
  1  3  1  0
  3  4  1  0
  3  5  1  0
  4  6  1  0
  4  7  2  0
  5  8  1  1
  5  9  1  0
  6 10  2  0
  7 11  1  0
 10 11  1  0
  8 12  2  0
  8 13  1  0
  9 14  2  0
  9 15  1  0
 10 16  1  0
 13 17  1  0
 14 18  1  0
 15 19  2  0
 15 20  1  0
 16 21  1  0
 16 22  1  0
 16 23  1  0
 18 24  2  0
 19 24  1  0
M  END
