DAR-DIA-0cde14eb-72
     RDKit          3D

 21 23  0  0  0  0  0  0  0  0999 V2000
    4.6140    0.6760   21.7670 C   0  0  0  0  0  0  0  0  0  0  0  0
    5.2280    0.5720   20.3950 C   0  0  0  0  0  0  0  0  0  0  0  0
    4.6600    1.4440   19.3300 C   0  0  0  0  0  0  0  0  0  0  0  0
    6.2790   -0.2630   20.0410 C   0  0  0  0  0  0  0  0  0  0  0  0
    5.2040    1.3790   18.0640 C   0  0  0  0  0  0  0  0  0  0  0  0
    6.7240   -0.2200   18.7270 C   0  0  0  0  0  0  0  0  0  0  0  0
    6.8890   -1.1010   20.8870 N   0  0  0  0  0  0  0  0  0  0  0  0
    6.2300    0.5650   17.7320 N   0  0  0  0  0  0  0  0  0  0  0  0
    8.0440   -0.7150   21.4890 C   0  0  0  0  0  0  0  0  0  0  0  0
    8.5570    0.4020   21.3730 O   0  0  0  0  0  0  0  0  0  0  0  0
    8.6580   -1.6830   22.2700 C   0  0  2  0  0  0  0  0  0  0  0  0
    8.1300   -2.0390   23.6760 C   0  0  0  0  0  0  0  0  0  0  0  0
   10.0600   -1.2550   22.3410 C   0  0  0  0  0  0  0  0  0  0  0  0
   11.3460   -2.0260   22.1470 C   0  0  0  0  0  0  0  0  0  0  0  0
   10.4750    0.0010   22.5980 C   0  0  0  0  0  0  0  0  0  0  0  0
   12.4600   -1.1590   22.2990 N   0  0  0  0  0  0  0  0  0  0  0  0
   11.8220   -0.0210   22.5490 N   0  0  0  0  0  0  0  0  0  0  0  0
   12.5450    1.1470   22.7590 C   0  0  0  0  0  0  0  0  0  0  0  0
   13.8830    0.9290   22.8540 F   0  0  0  0  0  0  0  0  0  0  0  0
   11.9130    1.5130   23.8140 C   0  0  0  0  0  0  0  0  0  0  0  0
   12.0490    2.6200   22.9300 C   0  0  0  0  0  0  0  0  0  0  0  0
  1  2  1  0
  2  3  2  0
  2  4  1  0
  3  5  1  0
  4  6  2  0
  4  7  1  0
  5  8  2  0
  6  8  1  0
  7  9  1  0
  9 10  2  0
  9 11  1  0
 11 12  1  1
 11 13  1  0
 13 14  1  0
 13 15  2  0
 14 16  2  0
 15 17  1  0
 16 17  1  0
 17 18  1  0
 18 19  1  0
 18 20  1  0
 18 21  1  0
 20 21  1  0
M  END
