DAR-DIA-23aa0b97-7-acrylamide
     RDKit          3D

 21 22  0  0  0  0  0  0  0  0999 V2000
    6.2840   -3.6790   19.9220 C   0  0  0  0  0  0  0  0  0  0  0  0
    6.1540   -2.2550   20.5250 C   0  0  0  0  0  0  0  0  0  0  0  0
    5.2580   -2.2460   21.7710 C   0  0  0  0  0  0  0  0  0  0  0  0
    4.4930   -3.2090   21.9590 O   0  0  0  0  0  0  0  0  0  0  0  0
    5.2750   -1.1110   22.8020 C   0  0  0  0  0  0  0  0  0  0  0  0
    4.2070   -0.9110   23.8460 C   0  0  0  0  0  0  0  0  0  0  0  0
    6.3470   -0.2240   22.8100 C   0  0  0  0  0  0  0  0  0  0  0  0
    4.3470    0.1900   24.7800 N   0  0  0  0  0  0  0  0  0  0  0  0
    6.3730    0.7640   23.7720 C   0  0  0  0  0  0  0  0  0  0  0  0
    5.4290    1.0260   24.7510 C   0  0  0  0  0  0  0  0  0  0  0  0
    7.5690    1.5660   23.7270 N   0  0  0  0  0  0  0  0  0  0  0  0
    8.2770    0.8330   24.6390 C   0  0  0  0  0  0  0  0  0  0  0  0
    7.7730   -0.1040   25.2400 O   0  0  0  0  0  0  0  0  0  0  0  0
    9.6770    1.1240   24.9610 C   0  0  0  0  0  0  0  0  0  0  0  0
   10.6090    0.3230   24.0840 C   0  0  0  0  0  0  0  0  0  0  0  0
   10.2010   -0.8870   23.6630 C   0  0  0  0  0  0  0  0  0  0  0  0
   11.8420    0.8220   23.7270 C   0  0  0  0  0  0  0  0  0  0  0  0
   11.0070   -1.6620   22.8540 N   0  0  0  0  0  0  0  0  0  0  0  0
   12.6510    0.0590   22.9300 C   0  0  0  0  0  0  0  0  0  0  0  0
   12.2590   -1.1730   22.4800 C   0  0  0  0  0  0  0  0  0  0  0  0
   13.8050    0.5560   22.6200 N   0  0  0  0  0  0  0  0  0  0  0  0
  1  2  1  0
  2  3  1  0
  3  4  2  0
  3  5  1  0
  5  6  2  0
  5  7  1  0
  6  8  1  0
  7  9  2  0
  8 10  2  0
  9 10  1  0
  9 11  1  0
 11 12  1  0
 12 13  2  0
 12 14  1  0
 14 15  1  0
 15 16  2  0
 15 17  1  0
 16 18  1  0
 17 19  2  0
 18 20  2  0
 19 20  1  0
 19 21  1  0
M  END
