DAR-DIA-2b784ede-28-bromoalkyne
     RDKit          3D

 25 26  0  0  0  0  0  0  0  0999 V2000
    6.7330   -3.0770   19.8680 C   0  0  0  0  0  0  0  0  0  0  0  0
    5.4680   -2.8870   19.0980 C   0  0  0  0  0  0  0  0  0  0  0  0
    7.2160   -1.8020   20.5660 N   0  0  0  0  0  0  0  0  0  0  0  0
    6.5400   -0.7730   19.8580 C   0  0  0  0  0  0  0  0  0  0  0  0
    7.8540   -1.5500   21.9930 C   0  0  1  0  0  0  0  0  0  0  0  0
    5.6620    0.3490   19.8490 C   0  0  0  0  0  0  0  0  0  0  0  0
    6.6320   -0.6500   18.6900 C   0  0  0  0  0  0  0  0  0  0  0  0
    7.0110   -2.3230   23.0470 C   0  0  0  0  0  0  0  0  0  0  0  0
    9.3920   -1.3210   22.5510 C   0  0  0  0  0  0  0  0  0  0  0  0
    5.4890    0.8540   18.4830 N   0  0  0  0  0  0  0  0  0  0  0  0
    6.2840   -0.0190   17.7830 N   0  0  0  0  0  0  0  0  0  0  0  0
    6.6690   -3.5030   22.9430 O   0  0  0  0  0  0  0  0  0  0  0  0
    6.6630   -1.5800   24.1690 N   0  0  0  0  0  0  0  0  0  0  0  0
   10.4310   -0.1410   22.2780 C   0  0  0  0  0  0  0  0  0  0  0  0
    9.9950   -2.1870   23.4490 C   0  0  0  0  0  0  0  0  0  0  0  0
    6.8380   -0.4670   16.5570 C   0  0  0  0  0  0  0  0  0  0  0  0
    6.5020   -2.2460   25.4370 C   0  0  0  0  0  0  0  0  0  0  0  0
   11.6800    0.0460   22.8100 N   0  0  0  0  0  0  0  0  0  0  0  0
   11.2690   -1.9690   23.9760 C   0  0  0  0  0  0  0  0  0  0  0  0
    9.3000   -3.4130   23.9170 C   0  0  0  0  0  0  0  0  0  0  0  0
    7.8630   -0.7020   17.3740 C   0  0  0  0  0  0  0  0  0  0  0  0
    6.9040   -1.9770   16.4140 C   0  0  0  0  0  0  0  0  0  0  0  0
    7.7860    0.2150   15.6970 C   0  0  0  0  0  0  0  0  0  0  0  0
   12.0740   -0.8840   23.6630 C   0  0  0  0  0  0  0  0  0  0  0  0
    8.8020    0.6820   14.9380 N   0  0  0  0  0  0  0  0  0  0  0  0
  1  2  2  3
  1  3  1  0
  3  4  1  0
  3  5  1  0
  4  6  1  0
  4  7  2  0
  5  8  1  1
  5  9  1  0
  6 10  2  0
  7 11  1  0
 10 11  1  0
  8 12  2  0
  8 13  1  0
  9 14  2  0
  9 15  1  0
 11 16  1  0
 13 17  1  0
 14 18  1  0
 15 19  2  0
 15 20  1  0
 16 21  1  0
 16 22  1  0
 16 23  1  0
 18 24  2  0
 19 24  1  0
 23 25  3  0
M  END
