DAR-DIA-2b784ede-38-vinylsulfonamide
     RDKit          3D

 36 38  0  0  0  0  0  0  0  0999 V2000
    6.9420   -4.7140   20.5420 C   0  0  0  0  0  0  0  0  0  0  0  0
    7.2390   -3.8520   21.7350 C   0  0  0  0  0  0  0  0  0  0  0  0
    6.1950   -2.4430   21.5650 S   0  0  0  0  0  0  0  0  0  0  0  0
    4.7430   -3.1230   21.6470 O   0  0  0  0  0  0  0  0  0  0  0  0
    6.4300   -1.9080   20.2570 O   0  0  0  0  0  0  0  0  0  0  0  0
    7.1200   -1.2170   22.6110 N   0  0  0  0  0  0  0  0  0  0  0  0
    8.6230   -1.2690   22.6900 C   0  0  0  0  0  0  0  0  0  0  0  0
    7.0590    0.2080   22.1230 C   0  0  2  0  0  0  0  0  0  0  0  0
    9.3820   -0.0690   22.5160 C   0  0  0  0  0  0  0  0  0  0  0  0
    9.3380   -2.4310   22.9000 C   0  0  0  0  0  0  0  0  0  0  0  0
    7.1680    1.2940   23.2490 C   0  0  0  0  0  0  0  0  0  0  0  0
    6.3590    0.4770   20.7300 C   0  0  0  0  0  0  0  0  0  0  0  0
   10.7670   -0.0730   22.5160 C   0  0  0  0  0  0  0  0  0  0  0  0
   10.7260   -2.4120   22.8910 C   0  0  0  0  0  0  0  0  0  0  0  0
    8.1440    2.0280   23.4310 O   0  0  0  0  0  0  0  0  0  0  0  0
    6.0340    1.3540   24.0130 N   0  0  0  0  0  0  0  0  0  0  0  0
    6.8940    0.0330   19.4820 C   0  0  0  0  0  0  0  0  0  0  0  0
    5.1480    1.1860   20.5990 C   0  0  0  0  0  0  0  0  0  0  0  0
   11.4420   -1.2570   22.6830 C   0  0  0  0  0  0  0  0  0  0  0  0
    5.4080    0.2820   24.6820 C   0  0  0  0  0  0  0  0  0  0  0  0
    6.3440    0.2520   18.2480 N   0  0  0  0  0  0  0  0  0  0  0  0
    4.5820    1.4120   19.3500 C   0  0  0  0  0  0  0  0  0  0  0  0
    4.4190    1.7340   21.7810 C   0  0  0  0  0  0  0  0  0  0  0  0
   12.9170   -1.3000   22.6270 C   0  0  0  0  0  0  0  0  0  0  0  0
    6.1490   -0.8310   25.1930 C   0  0  0  0  0  0  0  0  0  0  0  0
    4.0230    0.3060   24.8430 C   0  0  0  0  0  0  0  0  0  0  0  0
    5.2000    0.9400   18.2130 C   0  0  0  0  0  0  0  0  0  0  0  0
   13.3300    0.1470   22.9140 C   0  0  0  0  0  0  0  0  0  0  0  0
   13.4250   -2.2940   23.7000 C   0  0  0  0  0  0  0  0  0  0  0  0
   13.2100   -1.7010   21.1550 C   0  0  0  0  0  0  0  0  0  0  0  0
    7.6520   -1.0020   25.0950 C   0  0  0  0  0  0  0  0  0  0  0  0
    5.4570   -1.8660   25.8440 C   0  0  0  0  0  0  0  0  0  0  0  0
    3.3720   -0.7290   25.4880 C   0  0  0  0  0  0  0  0  0  0  0  0
    3.1880    1.4420   24.3270 C   0  0  0  0  0  0  0  0  0  0  0  0
    4.0750   -1.8160   25.9910 C   0  0  0  0  0  0  0  0  0  0  0  0
    3.4180    2.6440   25.0730 O   0  0  0  0  0  0  0  0  0  0  0  0
  1  2  1  0
  2  3  1  0
  3  4  2  0
  3  5  2  0
  3  6  1  0
  6  7  1  0
  6  8  1  0
  7  9  2  0
  7 10  1  0
  8 11  1  1
  8 12  1  0
  9 13  1  0
 10 14  2  0
 11 15  2  0
 11 16  1  0
 12 17  2  0
 12 18  1  0
 13 19  2  0
 14 19  1  0
 16 20  1  0
 17 21  1  0
 18 22  2  0
 18 23  1  0
 19 24  1  0
 20 25  2  0
 20 26  1  0
 21 27  2  0
 22 27  1  0
 24 28  1  0
 24 29  1  0
 24 30  1  0
 25 31  1  0
 25 32  1  0
 26 33  2  0
 26 34  1  0
 32 35  2  0
 33 35  1  0
 34 36  1  0
M  END
