DAR-DIA-2b784ede-29-bromoalkyne
     RDKit          3D

 33 35  0  0  0  0  0  0  0  0999 V2000
    6.5670   -2.9020   20.3710 C   0  0  0  0  0  0  0  0  0  0  0  0
    5.3380   -3.4950   19.6890 C   0  0  0  0  0  0  0  0  0  0  0  0
    6.5610   -1.4760   21.0530 N   0  0  0  0  0  0  0  0  0  0  0  0
    5.5900   -0.5020   20.7770 C   0  0  0  0  0  0  0  0  0  0  0  0
    6.9020   -1.0420   22.5480 C   0  0  1  0  0  0  0  0  0  0  0  0
    4.3910   -0.4400   21.4570 C   0  0  0  0  0  0  0  0  0  0  0  0
    5.5530    0.5410   19.9250 C   0  0  0  0  0  0  0  0  0  0  0  0
    7.6600    0.3370   22.8340 C   0  0  0  0  0  0  0  0  0  0  0  0
    5.7240   -1.0070   23.5630 C   0  0  0  0  0  0  0  0  0  0  0  0
    3.6040    0.5660   21.1000 N   0  0  0  0  0  0  0  0  0  0  0  0
    4.3520    1.1600   20.1630 N   0  0  0  0  0  0  0  0  0  0  0  0
    7.8940    1.2460   22.0280 O   0  0  0  0  0  0  0  0  0  0  0  0
    8.0970    0.5970   24.1310 N   0  0  0  0  0  0  0  0  0  0  0  0
    4.7980    0.1860   23.7110 C   0  0  0  0  0  0  0  0  0  0  0  0
    5.4290   -2.0770   24.4190 C   0  0  0  0  0  0  0  0  0  0  0  0
    3.8990    2.3450   19.5000 C   0  0  0  0  0  0  0  0  0  0  0  0
    9.3850    1.0410   24.5160 C   0  0  0  0  0  0  0  0  0  0  0  0
    3.7600    0.2990   24.5510 N   0  0  0  0  0  0  0  0  0  0  0  0
    4.3440   -1.9520   25.2940 C   0  0  0  0  0  0  0  0  0  0  0  0
    6.2090   -3.3620   24.4540 C   0  0  0  0  0  0  0  0  0  0  0  0
    4.4010    3.4510   20.1970 C   0  0  0  0  0  0  0  0  0  0  0  0
    2.3720    2.4670   19.5080 C   0  0  0  0  0  0  0  0  0  0  0  0
    4.5040    2.2340   18.1760 C   0  0  0  0  0  0  0  0  0  0  0  0
   10.5880    0.3790   23.8020 C   0  0  0  0  0  0  0  0  0  0  0  0
    3.5620   -0.7890   25.3260 C   0  0  0  0  0  0  0  0  0  0  0  0
   11.8050    1.1170   23.2200 C   0  0  0  0  0  0  0  0  0  0  0  0
   10.5370   -1.0240   23.6680 C   0  0  0  0  0  0  0  0  0  0  0  0
   12.0020    2.6570   23.2160 C   0  0  0  0  0  0  0  0  0  0  0  0
   12.8180    0.3650   22.6250 C   0  0  0  0  0  0  0  0  0  0  0  0
   11.5680   -1.7180   23.0470 C   0  0  0  0  0  0  0  0  0  0  0  0
    9.4530   -1.7160   24.1470 C   0  0  0  0  0  0  0  0  0  0  0  0
   12.7010   -1.1330   22.5210 C   0  0  0  0  0  0  0  0  0  0  0  0
    9.5450   -3.1610   23.7450 C   0  0  0  0  0  0  0  0  0  0  0  0
  1  2  2  3
  1  3  1  0
  3  4  1  0
  3  5  1  0
  4  6  1  0
  4  7  2  0
  5  8  1  6
  5  9  1  0
  6 10  2  0
  7 11  1  0
 10 11  1  0
  8 12  2  0
  8 13  1  0
  9 14  2  0
  9 15  1  0
 11 16  1  0
 13 17  1  0
 14 18  1  0
 15 19  2  0
 15 20  1  0
 16 21  1  0
 16 22  1  0
 16 23  1  0
 17 24  1  0
 18 25  2  0
 19 25  1  0
 24 26  2  0
 24 27  1  0
 26 28  1  0
 26 29  1  0
 27 30  2  0
 27 31  1  0
 29 32  2  0
 30 32  1  0
 31 33  1  0
M  END
