DAR-DIA-8e329c92-2
     RDKit          3D

 25 27  0  0  0  0  0  0  0  0999 V2000
   17.7360    8.0090   18.0400 C   0  0  0  0  0  0  0  0  0  0  0  0
   18.1120    6.8580   18.6460 O   0  0  0  0  0  0  0  0  0  0  0  0
   19.1980    7.0590   19.4150 C   0  0  0  0  0  0  0  0  0  0  0  0
   20.0820    8.2490   19.1890 C   0  0  0  0  0  0  0  0  0  0  0  0
   19.4200    6.0940   20.3960 C   0  0  0  0  0  0  0  0  0  0  0  0
   21.2030    8.3910   19.9730 C   0  0  0  0  0  0  0  0  0  0  0  0
   20.5960    6.2770   21.1490 C   0  0  0  0  0  0  0  0  0  0  0  0
   18.3860    5.0460   20.4570 O   0  0  0  0  0  0  0  0  0  0  0  0
   21.4310    7.3840   20.9290 C   0  0  0  0  0  0  0  0  0  0  0  0
   17.0790    5.0250   19.6850 C   0  0  0  0  0  0  0  0  0  0  0  0
   15.9760    3.8990   19.6530 C   0  0  0  0  0  0  0  0  0  0  0  0
   14.9280    4.0780   20.7810 N   0  0  0  0  0  0  0  0  0  0  0  0
   13.8280    4.6830   21.2250 C   0  0  0  0  0  0  0  0  0  0  0  0
   13.6390    5.8710   20.8990 O   0  0  0  0  0  0  0  0  0  0  0  0
   12.7510    4.0000   22.1080 C   0  0  0  0  0  0  0  0  0  0  0  0
   11.7950    4.9270   22.5130 C   0  0  0  0  0  0  0  0  0  0  0  0
   12.6380    2.6160   22.5190 C   0  0  0  0  0  0  0  0  0  0  0  0
   10.6570    4.5050   23.3590 C   0  0  0  0  0  0  0  0  0  0  0  0
   11.5090    2.2680   23.3340 C   0  0  0  0  0  0  0  0  0  0  0  0
   13.5220    1.5760   22.1970 C   0  0  0  0  0  0  0  0  0  0  0  0
    9.7340    5.4270   23.7450 N   0  0  0  0  0  0  0  0  0  0  0  0
   10.5720    3.2240   23.7160 C   0  0  0  0  0  0  0  0  0  0  0  0
   11.2850    0.8890   23.8050 C   0  0  0  0  0  0  0  0  0  0  0  0
   13.3070    0.2690   22.6370 C   0  0  0  0  0  0  0  0  0  0  0  0
   12.2020   -0.0800   23.4350 C   0  0  0  0  0  0  0  0  0  0  0  0
  1  2  1  0
  2  3  1  0
  3  4  2  0
  3  5  1  0
  4  6  1  0
  5  7  2  0
  5  8  1  0
  6  9  2  0
  7  9  1  0
  8 10  1  0
 10 11  1  0
 11 12  1  0
 12 13  1  0
 13 14  2  0
 13 15  1  0
 15 16  2  0
 15 17  1  0
 16 18  1  0
 17 19  2  0
 17 20  1  0
 18 21  1  0
 18 22  2  0
 19 22  1  0
 19 23  1  0
 20 24  2  0
 23 25  2  0
 24 25  1  0
M  END
