DAR-DIA-3e9bbd81-14-chloroacetamide
     RDKit          3D

 27 31  0  0  0  0  0  0  0  0999 V2000
    7.3290   -2.9630   18.7520 C   0  0  0  0  0  0  0  0  0  0  0  0
    6.5020   -3.1290   19.7760 C   0  0  0  0  0  0  0  0  0  0  0  0
    5.6380   -4.0200   19.7140 O   0  0  0  0  0  0  0  0  0  0  0  0
    6.6410   -2.2480   20.8460 N   0  0  0  0  0  0  0  0  0  0  0  0
    7.4950   -1.0630   20.6600 C   0  0  0  0  0  0  0  0  0  0  0  0
    6.7610   -2.5320   22.3430 C   0  0  2  0  0  0  0  0  0  0  0  0
    7.6110   -0.7780   22.1050 C   0  0  1  0  0  0  0  0  0  0  0  0
    6.5260   -1.2500   22.8980 C   0  0  0  0  0  0  0  0  0  0  0  0
    8.0800   -2.8130   22.6470 C   0  0  0  0  0  0  0  0  0  0  0  0
    8.7540   -1.6220   22.5670 N   0  0  0  0  0  0  0  0  0  0  0  0
    9.3220   -1.1810   23.6650 C   0  0  2  0  0  0  0  0  0  0  0  0
   10.3350   -0.3060   23.4170 C   0  0  0  0  0  0  0  0  0  0  0  0
   10.5600   -1.6490   24.0180 N   0  0  0  0  0  0  0  0  0  0  0  0
   11.6420   -0.9170   22.8560 C   0  0  0  0  0  0  0  0  0  0  0  0
   10.2680    1.0390   23.6610 C   0  0  0  0  0  0  0  0  0  0  0  0
   11.1390   -1.6180   25.2860 C   0  0  0  0  0  0  0  0  0  0  0  0
   11.3840   -2.1320   23.0540 C   0  0  0  0  0  0  0  0  0  0  0  0
   12.7470   -0.1270   22.6050 C   0  0  0  0  0  0  0  0  0  0  0  0
   11.3390    1.8830   23.4070 C   0  0  0  0  0  0  0  0  0  0  0  0
   12.4820   -2.1860   25.0520 C   0  0  0  0  0  0  0  0  0  0  0  0
   12.5610   -2.4680   23.6430 C   0  0  0  0  0  0  0  0  0  0  0  0
   11.1540   -2.2720   21.7120 C   0  0  0  0  0  0  0  0  0  0  0  0
   12.6730    1.3610   22.8710 C   0  0  0  0  0  0  0  0  0  0  0  0
   11.1560    3.5530   23.6930 Cl  0  0  0  0  0  0  0  0  0  0  0  0
   13.6750   -3.0080   22.8920 C   0  0  0  0  0  0  0  0  0  0  0  0
   12.1620   -2.7710   20.9300 C   0  0  0  0  0  0  0  0  0  0  0  0
   13.3690   -3.1390   21.4050 C   0  0  0  0  0  0  0  0  0  0  0  0
  1  2  1  0
  2  3  2  0
  2  4  1  0
  4  5  1  0
  4  6  1  0
  7  5  1  6
  6  8  1  0
  7  8  1  0
  6  9  1  6
  7 10  1  0
  9 10  1  0
 10 11  1  0
 11 12  1  6
 11 13  1  0
 12 14  2  0
 12 15  1  0
 13 16  1  0
 13 17  1  0
 14 18  1  0
 15 19  2  0
 16 20  2  0
 17 21  2  0
 20 21  1  0
 17 22  1  0
 18 23  2  0
 19 23  1  0
 19 24  1  0
 21 25  1  0
 22 26  2  0
 25 27  2  0
 26 27  1  0
M  END
