DAR-DIA-0cde14eb-70
     RDKit          3D

 21 23  0  0  0  0  0  0  0  0999 V2000
    4.4040    0.6600   21.4850 C   0  0  0  0  0  0  0  0  0  0  0  0
    5.0730    0.7330   20.1290 C   0  0  0  0  0  0  0  0  0  0  0  0
    4.4270    1.5170   19.0540 C   0  0  0  0  0  0  0  0  0  0  0  0
    6.2680    0.1270   19.7870 C   0  0  0  0  0  0  0  0  0  0  0  0
    5.0520    1.5830   17.8240 C   0  0  0  0  0  0  0  0  0  0  0  0
    6.7670    0.2710   18.5260 C   0  0  0  0  0  0  0  0  0  0  0  0
    6.9950   -0.5830   20.5920 N   0  0  0  0  0  0  0  0  0  0  0  0
    6.2200    0.9700   17.5270 N   0  0  0  0  0  0  0  0  0  0  0  0
    7.8600    0.1030   21.3660 C   0  0  0  0  0  0  0  0  0  0  0  0
    8.5230    1.1280   21.0810 O   0  0  0  0  0  0  0  0  0  0  0  0
    7.9680   -0.4780   22.5850 C   0  0  1  0  0  0  0  0  0  0  0  0
    7.0960   -1.6960   22.9520 C   0  0  0  0  0  0  0  0  0  0  0  0
    9.3550   -0.8440   22.6300 C   0  0  0  0  0  0  0  0  0  0  0  0
   10.0730   -1.8640   21.7890 C   0  0  0  0  0  0  0  0  0  0  0  0
   10.2830   -0.3390   23.4340 C   0  0  0  0  0  0  0  0  0  0  0  0
   11.4250   -1.9040   22.1560 N   0  0  0  0  0  0  0  0  0  0  0  0
   11.4230   -1.0010   23.1100 N   0  0  0  0  0  0  0  0  0  0  0  0
   12.6230   -0.8300   23.6980 C   0  0  0  0  0  0  0  0  0  0  0  0
   13.1690    0.4240   23.1470 C   0  0  0  0  0  0  0  0  0  0  0  0
   13.3510   -2.1580   23.7040 C   0  0  0  0  0  0  0  0  0  0  0  0
   12.9240   -1.5740   24.9870 C   0  0  0  0  0  0  0  0  0  0  0  0
  1  2  1  0
  2  3  2  0
  2  4  1  0
  3  5  1  0
  4  6  2  0
  4  7  1  0
  5  8  2  0
  6  8  1  0
  7  9  1  0
  9 10  2  0
  9 11  1  0
 11 12  1  6
 11 13  1  0
 13 14  1  0
 13 15  2  0
 14 16  2  0
 15 17  1  0
 16 17  1  0
 17 18  1  0
 18 19  1  0
 18 20  1  0
 18 21  1  0
 20 21  1  0
M  END
