DAR-DIA-fb20be43-7-acrylamide
     RDKit          3D

 23 25  0  0  0  0  0  0  0  0999 V2000
    7.8950   -3.3230   19.1410 C   0  0  0  0  0  0  0  0  0  0  0  0
    6.8650   -2.5410   18.9020 C   0  0  0  0  0  0  0  0  0  0  0  0
    5.9290   -2.6150   20.0600 C   0  0  0  0  0  0  0  0  0  0  0  0
    4.8540   -3.2160   19.9760 O   0  0  0  0  0  0  0  0  0  0  0  0
    6.3770   -2.0210   21.2190 N   0  0  0  0  0  0  0  0  0  0  0  0
    7.4940   -1.0620   21.1170 C   0  0  0  0  0  0  0  0  0  0  0  0
    6.2910   -2.8570   22.4300 C   0  0  0  0  0  0  0  0  0  0  0  0
    8.7710   -1.5420   21.8260 C   0  0  0  0  0  0  0  0  0  0  0  0
    7.6490   -3.2100   23.0770 C   0  0  0  0  0  0  0  0  0  0  0  0
    8.5340   -2.0500   23.1900 N   0  0  0  0  0  0  0  0  0  0  0  0
    9.7780   -2.2770   23.9420 C   0  0  0  0  0  0  0  0  0  0  0  0
   10.7500   -1.3760   23.5430 C   0  0  0  0  0  0  0  0  0  0  0  0
   11.8310   -1.7840   22.8160 C   0  0  0  0  0  0  0  0  0  0  0  0
   10.6000   -0.0230   23.8710 C   0  0  0  0  0  0  0  0  0  0  0  0
   12.8210   -0.8740   22.3800 C   0  0  0  0  0  0  0  0  0  0  0  0
   11.5940    0.8940   23.4280 C   0  0  0  0  0  0  0  0  0  0  0  0
    9.4740    0.4210   24.6150 C   0  0  0  0  0  0  0  0  0  0  0  0
   13.7620   -1.4730   21.6700 O   0  0  0  0  0  0  0  0  0  0  0  0
   12.6830    0.4460   22.7100 C   0  0  0  0  0  0  0  0  0  0  0  0
   11.4760    2.3580   23.7100 C   0  0  0  0  0  0  0  0  0  0  0  0
    9.2450    1.8860   24.9620 C   0  0  0  0  0  0  0  0  0  0  0  0
   13.2370   -2.6650   21.1150 C   0  0  0  0  0  0  0  0  0  0  0  0
   10.2960    2.8770   24.4710 C   0  0  0  0  0  0  0  0  0  0  0  0
  1  2  1  0
  2  3  1  0
  3  4  2  0
  3  5  1  0
  5  6  1  0
  5  7  1  0
  6  8  1  0
  7  9  1  0
  8 10  1  0
  9 10  1  0
 10 11  1  0
 11 12  1  0
 12 13  2  0
 12 14  1  0
 13 15  1  0
 14 16  2  0
 14 17  1  0
 15 18  1  0
 15 19  2  0
 16 19  1  0
 16 20  1  0
 17 21  2  0
 18 22  1  0
 20 23  2  0
 21 23  1  0
M  END
