DAR-DIA-0cde14eb-57
     RDKit          3D

 25 28  0  0  0  0  0  0  0  0999 V2000
    8.5670   -2.1100   22.6800 C   0  0  0  0  0  0  0  0  0  0  0  0
    8.5460   -0.5910   22.7990 C   0  0  2  0  0  0  0  0  0  0  0  0
    8.0770    0.0670   21.5590 C   0  0  0  0  0  0  0  0  0  0  0  0
    9.9210   -0.0730   23.0100 C   0  0  0  0  0  0  0  0  0  0  0  0
    8.6020    1.1210   21.1360 O   0  0  0  0  0  0  0  0  0  0  0  0
    7.0450   -0.6270   20.9860 N   0  0  0  0  0  0  0  0  0  0  0  0
   10.1770    1.1090   23.5370 C   0  0  0  0  0  0  0  0  0  0  0  0
   10.9840   -0.9240   22.5910 C   0  0  0  0  0  0  0  0  0  0  0  0
    6.3550    0.1040   19.9710 C   0  0  0  0  0  0  0  0  0  0  0  0
   11.5650    1.5330   23.6730 C   0  0  0  0  0  0  0  0  0  0  0  0
   12.2950   -0.5690   22.7080 C   0  0  0  0  0  0  0  0  0  0  0  0
    6.7270    0.0010   18.6460 C   0  0  0  0  0  0  0  0  0  0  0  0
    5.2730    0.9640   20.2900 C   0  0  0  0  0  0  0  0  0  0  0  0
   12.6670    0.6590   23.2380 C   0  0  0  0  0  0  0  0  0  0  0  0
   13.1500   -1.4880   22.2820 C   0  0  0  0  0  0  0  0  0  0  0  0
    6.1740    0.6350   17.6060 N   0  0  0  0  0  0  0  0  0  0  0  0
    4.6640    1.6510   19.2020 C   0  0  0  0  0  0  0  0  0  0  0  0
    4.7770    1.1780   21.5860 C   0  0  0  0  0  0  0  0  0  0  0  0
   13.8100   -1.2100   21.1090 F   0  0  0  0  0  0  0  0  0  0  0  0
   12.6140   -2.7160   22.1500 C   0  0  0  0  0  0  0  0  0  0  0  0
   13.6050   -2.5510   23.3680 C   0  0  0  0  0  0  0  0  0  0  0  0
    5.1570    1.4420   17.9320 C   0  0  0  0  0  0  0  0  0  0  0  0
    3.6090    2.5040   19.4160 C   0  0  0  0  0  0  0  0  0  0  0  0
    3.5830    2.1430   21.8440 C   0  0  0  0  0  0  0  0  0  0  0  0
    2.9870    2.8120   20.7740 C   0  0  0  0  0  0  0  0  0  0  0  0
  2  1  1  6
  2  3  1  0
  2  4  1  0
  3  5  2  0
  3  6  1  0
  4  7  2  0
  4  8  1  0
  6  9  1  0
  7 10  1  0
  8 11  2  0
  9 12  2  0
  9 13  1  0
 10 14  2  0
 11 14  1  0
 11 15  1  0
 12 16  1  0
 13 17  2  0
 13 18  1  0
 15 19  1  0
 15 20  1  0
 15 21  1  0
 20 21  1  0
 16 22  2  0
 17 22  1  0
 17 23  1  0
 18 24  2  0
 23 25  2  0
 24 25  1  0
M  END
