DAR-DIA-23aa0b97-18-chloroacetamide
     RDKit          3D

 23 25  0  0  0  0  0  0  0  0999 V2000
    8.8600   -4.2820   20.3180 C   0  0  0  0  0  0  0  0  0  0  0  0
    7.7930   -3.3510   20.3520 C   0  0  0  0  0  0  0  0  0  0  0  0
    6.6830   -3.4230   19.6200 O   0  0  0  0  0  0  0  0  0  0  0  0
    8.4930   -2.4860   21.3900 C   0  0  0  0  0  0  0  0  0  0  0  0
    9.1330   -3.2200   22.5910 C   0  0  0  0  0  0  0  0  0  0  0  0
    8.6550   -1.1240   21.3320 C   0  0  0  0  0  0  0  0  0  0  0  0
    9.8670   -2.3680   23.5620 C   0  0  0  0  0  0  0  0  0  0  0  0
    9.3800   -0.4480   22.3310 C   0  0  0  0  0  0  0  0  0  0  0  0
    9.9820   -1.0290   23.4260 C   0  0  0  0  0  0  0  0  0  0  0  0
    9.5190    0.9770   22.2280 N   0  0  0  0  0  0  0  0  0  0  0  0
    8.4090    1.5600   21.7230 C   0  0  0  0  0  0  0  0  0  0  0  0
    8.4450    2.6170   21.1360 O   0  0  0  0  0  0  0  0  0  0  0  0
    7.0960    0.8360   21.9200 C   0  0  0  0  0  0  0  0  0  0  0  0
    6.4420    0.7200   20.5430 C   0  0  0  0  0  0  0  0  0  0  0  0
    7.0020    0.0010   19.5650 C   0  0  0  0  0  0  0  0  0  0  0  0
    5.2820    1.3800   20.4040 C   0  0  0  0  0  0  0  0  0  0  0  0
    6.3850   -0.0720   18.3590 N   0  0  0  0  0  0  0  0  0  0  0  0
    4.5990    1.3390   19.1770 C   0  0  0  0  0  0  0  0  0  0  0  0
    4.7170    2.1210   21.4610 C   0  0  0  0  0  0  0  0  0  0  0  0
    5.2080    0.5950   18.1920 C   0  0  0  0  0  0  0  0  0  0  0  0
    3.4190    1.9840   18.9730 N   0  0  0  0  0  0  0  0  0  0  0  0
    3.4990    2.8050   21.3080 C   0  0  0  0  0  0  0  0  0  0  0  0
    2.8290    2.7580   20.0850 C   0  0  0  0  0  0  0  0  0  0  0  0
  1  2  1  0
  2  3  2  0
  2  4  1  0
  4  5  2  0
  4  6  1  0
  5  7  1  0
  6  8  2  0
  7  9  2  0
  8  9  1  0
  8 10  1  0
 10 11  1  0
 11 12  2  0
 11 13  1  0
 13 14  1  0
 14 15  2  0
 14 16  1  0
 15 17  1  0
 16 18  2  0
 16 19  1  0
 17 20  2  0
 18 20  1  0
 18 21  1  0
 19 22  2  0
 21 23  2  0
 22 23  1  0
M  END
