DAR-DIA-842b4336-5-bromoalkyne
     RDKit          3D

 17 18  0  0  0  0  0  0  0  0999 V2000
    8.8190   -3.1630   19.9150 C   0  0  0  0  0  0  0  0  0  0  0  0
    7.1510   -3.3380   19.6590 C   0  0  0  0  0  0  0  0  0  0  0  0
    9.6950   -2.0910   21.1380 C   0  0  0  0  0  0  0  0  0  0  0  0
   11.2630   -2.3170   20.8850 C   0  0  0  0  0  0  0  0  0  0  0  0
    8.1560   -1.8710   21.3850 S   0  0  0  0  0  0  0  0  0  0  0  0
   11.0430   -1.1310   21.9390 C   0  0  0  0  0  0  0  0  0  0  0  0
    9.7500   -1.4850   21.6720 C   0  0  0  0  0  0  0  0  0  0  0  0
    9.0420   -0.5690   22.3750 N   0  0  0  0  0  0  0  0  0  0  0  0
    8.8130    0.6150   21.6760 C   0  0  0  0  0  0  0  0  0  0  0  0
    8.4030    1.5340   21.0000 O   0  0  0  0  0  0  0  0  0  0  0  0
    7.5600   -0.1670   21.3080 N   0  0  0  0  0  0  0  0  0  0  0  0
    6.8190    0.2650   20.2000 C   0  0  0  0  0  0  0  0  0  0  0  0
    5.2110    0.0160   19.9590 C   0  0  0  0  0  0  0  0  0  0  0  0
    7.3540    0.9530   19.1650 C   0  0  0  0  0  0  0  0  0  0  0  0
    4.1200    0.4530   18.7330 C   0  0  0  0  0  0  0  0  0  0  0  0
    6.1980    0.9750   18.6450 N   0  0  0  0  0  0  0  0  0  0  0  0
    5.0970    1.0850   18.0030 C   0  0  0  0  0  0  0  0  0  0  0  0
  1  2  2  3
  1  3  1  0
  3  4  2  0
  3  5  1  0
  4  6  1  0
  5  7  1  0
  6  7  2  0
  7  8  1  0
  8  9  1  0
  9 10  2  0
  9 11  1  0
 11 12  1  0
 12 13  2  0
 12 14  1  0
 13 15  1  0
 14 16  2  0
 15 17  2  0
 16 17  1  0
M  END
