DAR-DIA-2b784ede-40-bromoalkyne
     RDKit          3D

 36 38  0  0  0  0  0  0  0  0999 V2000
    8.1510   -3.2500   19.5500 C   0  0  0  0  0  0  0  0  0  0  0  0
    6.5580   -3.2970   19.4340 C   0  0  0  0  0  0  0  0  0  0  0  0
    9.0140   -2.8920   20.8290 N   0  0  0  0  0  0  0  0  0  0  0  0
   10.3830   -2.0430   21.2970 C   0  0  0  0  0  0  0  0  0  0  0  0
    7.9960   -2.1440   21.5540 C   0  0  2  0  0  0  0  0  0  0  0  0
   11.4790   -1.4790   22.3680 C   0  0  0  0  0  0  0  0  0  0  0  0
    9.6240   -2.7530   22.0280 C   0  0  0  0  0  0  0  0  0  0  0  0
    8.1950   -0.7820   21.5730 C   0  0  0  0  0  0  0  0  0  0  0  0
    7.2860   -2.6210   22.8340 C   0  0  0  0  0  0  0  0  0  0  0  0
   11.4150   -1.8000   23.8800 C   0  0  0  0  0  0  0  0  0  0  0  0
    9.5220   -3.0650   23.2280 C   0  0  0  0  0  0  0  0  0  0  0  0
    9.2970   -0.2090   21.5680 O   0  0  0  0  0  0  0  0  0  0  0  0
    7.1090   -0.1450   21.5830 N   0  0  0  0  0  0  0  0  0  0  0  0
    6.7620   -3.9300   22.8230 C   0  0  0  0  0  0  0  0  0  0  0  0
    7.0900   -1.8580   24.0210 C   0  0  0  0  0  0  0  0  0  0  0  0
   10.2600   -2.6800   24.1320 C   0  0  0  0  0  0  0  0  0  0  0  0
    6.4860    0.3720   20.4010 C   0  0  0  0  0  0  0  0  0  0  0  0
    6.0870   -4.5200   23.8460 N   0  0  0  0  0  0  0  0  0  0  0  0
    6.4010   -2.4590   25.0620 C   0  0  0  0  0  0  0  0  0  0  0  0
    7.5710   -0.4430   24.2410 C   0  0  0  0  0  0  0  0  0  0  0  0
   10.0370   -3.0070   25.4780 C   0  0  0  0  0  0  0  0  0  0  0  0
    7.0730    0.2440   19.0300 C   0  0  0  0  0  0  0  0  0  0  0  0
    5.2890    1.0370   20.5270 C   0  0  0  0  0  0  0  0  0  0  0  0
    5.9160   -3.7730   24.9540 C   0  0  0  0  0  0  0  0  0  0  0  0
   10.7770   -1.7180   25.4190 C   0  0  0  0  0  0  0  0  0  0  0  0
    8.4970   -2.8780   25.4590 C   0  0  0  0  0  0  0  0  0  0  0  0
   10.6420   -4.3500   25.8850 C   0  0  0  0  0  0  0  0  0  0  0  0
    6.3770    0.8870   17.8760 C   0  0  0  0  0  0  0  0  0  0  0  0
    4.6410    1.5920   19.3890 C   0  0  0  0  0  0  0  0  0  0  0  0
    4.7370    1.1560   21.7950 C   0  0  0  0  0  0  0  0  0  0  0  0
    7.1100    0.8060   16.5690 C   0  0  0  0  0  0  0  0  0  0  0  0
    5.1760    1.5250   18.1000 C   0  0  0  0  0  0  0  0  0  0  0  0
    7.7870   -0.3510   15.9770 C   0  0  0  0  0  0  0  0  0  0  0  0
    8.8650    0.1000   15.0400 C   0  0  0  0  0  0  0  0  0  0  0  0
    8.0650   -1.2910   17.0660 C   0  0  0  0  0  0  0  0  0  0  0  0
    7.0440   -1.4840   15.4010 C   0  0  0  0  0  0  0  0  0  0  0  0
  1  2  2  3
  1  3  1  0
  3  4  1  0
  3  5  1  0
  4  6  2  0
  4  7  1  0
  5  8  1  1
  5  9  1  0
  6 10  1  0
  7 11  2  0
  8 12  2  0
  8 13  1  0
  9 14  2  0
  9 15  1  0
 10 16  2  0
 11 16  1  0
 13 17  1  0
 14 18  1  0
 15 19  2  0
 15 20  1  0
 16 21  1  0
 17 22  2  0
 17 23  1  0
 18 24  2  0
 19 24  1  0
 21 25  1  0
 21 26  1  0
 21 27  1  0
 22 28  1  0
 23 29  2  0
 23 30  1  0
 28 31  1  0
 28 32  2  0
 29 32  1  0
 33 31  1  0
 33 34  1  0
 33 35  1  0
 33 36  1  0
M  END
