DAR-DIA-2b784ede-21-nitrile
     RDKit          3D

 27 29  0  0  0  0  0  0  0  0999 V2000
    7.3230   -3.3560   20.0050 C   0  0  0  0  0  0  0  0  0  0  0  0
    6.0980   -3.8010   19.7370 N   0  0  0  0  0  0  0  0  0  0  0  0
    7.5690   -2.1250   20.8360 N   0  0  0  0  0  0  0  0  0  0  0  0
    8.8270   -1.5730   21.5490 C   0  0  0  0  0  0  0  0  0  0  0  0
    6.3890   -1.3160   21.2000 C   0  0  1  0  0  0  0  0  0  0  0  0
    8.9090   -0.2610   22.1890 C   0  0  0  0  0  0  0  0  0  0  0  0
   10.0170   -2.2350   21.6610 C   0  0  0  0  0  0  0  0  0  0  0  0
    6.5540   -0.6850   22.6160 C   0  0  0  0  0  0  0  0  0  0  0  0
    5.9810   -0.3220   20.1010 C   0  0  0  0  0  0  0  0  0  0  0  0
   10.0500    0.2460   22.8310 C   0  0  0  0  0  0  0  0  0  0  0  0
   11.1140   -1.7450   22.2760 C   0  0  0  0  0  0  0  0  0  0  0  0
    6.4960    0.5380   22.7940 O   0  0  0  0  0  0  0  0  0  0  0  0
    6.7620   -1.5660   23.6340 N   0  0  0  0  0  0  0  0  0  0  0  0
    6.4040   -0.4640   18.6540 C   0  0  0  0  0  0  0  0  0  0  0  0
    5.1590    0.8090   20.3230 C   0  0  0  0  0  0  0  0  0  0  0  0
   11.1660   -0.5270   22.8670 C   0  0  0  0  0  0  0  0  0  0  0  0
    7.9030   -1.4320   24.5070 C   0  0  0  0  0  0  0  0  0  0  0  0
    6.0860    0.3370   17.6160 N   0  0  0  0  0  0  0  0  0  0  0  0
    4.8550    1.5890   19.2250 C   0  0  0  0  0  0  0  0  0  0  0  0
    4.6040    1.2130   21.6660 C   0  0  0  0  0  0  0  0  0  0  0  0
   12.2820   -0.1800   23.4240 C   0  0  0  0  0  0  0  0  0  0  0  0
    5.2960    1.3600   17.9450 C   0  0  0  0  0  0  0  0  0  0  0  0
   12.4480    1.5970   23.2230 Cl  0  0  0  0  0  0  0  0  0  0  0  0
   13.3520   -0.9090   22.7080 C   0  0  0  0  0  0  0  0  0  0  0  0
   12.3430   -0.7330   24.8590 C   0  0  0  0  0  0  0  0  0  0  0  0
   13.3780   -2.3120   23.3370 C   0  0  0  0  0  0  0  0  0  0  0  0
   12.6940   -2.2170   24.7070 C   0  0  0  0  0  0  0  0  0  0  0  0
  1  2  2  3
  1  3  1  0
  3  4  1  0
  3  5  1  0
  4  6  2  0
  4  7  1  0
  5  8  1  1
  5  9  1  0
  6 10  1  0
  7 11  2  0
  8 12  2  0
  8 13  1  0
  9 14  2  0
  9 15  1  0
 10 16  2  0
 11 16  1  0
 13 17  1  0
 14 18  1  0
 15 19  2  0
 15 20  1  0
 16 21  1  0
 18 22  2  0
 19 22  1  0
 21 23  1  0
 21 24  1  0
 21 25  1  0
 24 26  1  0
 25 27  1  0
 26 27  1  0
M  END
