DAR-DIA-eace69ff-26
     RDKit          3D

 22 24  0  0  0  0  0  0  0  0999 V2000
    9.8800   -3.1170   22.7010 C   0  0  0  0  0  0  0  0  0  0  0  0
   11.2420   -2.7550   22.1340 C   0  0  0  0  0  0  0  0  0  0  0  0
   11.6340   -1.4100   22.3950 C   0  0  0  0  0  0  0  0  0  0  0  0
   12.9770   -0.9900   21.6550 C   0  0  0  0  0  0  0  0  0  0  0  0
   10.7600   -0.7900   23.1990 C   0  0  0  0  0  0  0  0  0  0  0  0
   13.3710    0.5020   21.9160 C   0  0  0  0  0  0  0  0  0  0  0  0
   11.0330    0.4090   23.4920 C   0  0  0  0  0  0  0  0  0  0  0  0
   14.4420    1.3240   21.2970 N   0  0  0  0  0  0  0  0  0  0  0  0
   12.3250    0.9890   22.8940 C   0  0  0  0  0  0  0  0  0  0  0  0
   10.3040    1.2840   24.2550 N   0  0  0  0  0  0  0  0  0  0  0  0
   14.9050    1.1340   19.8180 C   0  0  0  0  0  0  0  0  0  0  0  0
   14.6010    2.6980   21.8660 C   0  0  0  0  0  0  0  0  0  0  0  0
   12.3420    2.2430   23.4890 C   0  0  0  0  0  0  0  0  0  0  0  0
   11.0830    2.4500   24.2750 C   0  0  0  0  0  0  0  0  0  0  0  0
    9.0110    1.1150   24.9060 C   0  0  0  0  0  0  0  0  0  0  0  0
   14.8280    2.1990   18.9140 C   0  0  0  0  0  0  0  0  0  0  0  0
   14.7290    3.8890   21.1200 C   0  0  0  0  0  0  0  0  0  0  0  0
    8.9170   -0.1410   25.3210 N   0  0  0  0  0  0  0  0  0  0  0  0
   15.7110    3.1560   19.1590 C   0  0  0  0  0  0  0  0  0  0  0  0
   15.7470    3.9470   20.2520 C   0  0  0  0  0  0  0  0  0  0  0  0
    8.0780   -0.3290   26.3610 C   0  0  0  0  0  0  0  0  0  0  0  0
   10.2520   -0.5800   25.6560 C   0  0  0  0  0  0  0  0  0  0  0  0
  1  2  1  0
  2  3  1  0
  3  4  2  0
  3  5  1  0
  4  6  1  0
  5  7  2  0
  6  8  1  0
  6  9  2  0
  7  9  1  0
  7 10  1  0
  8 11  1  0
  8 12  1  0
  9 13  1  0
 10 14  1  0
 13 14  2  0
 10 15  1  0
 11 16  1  0
 12 17  1  0
 15 18  1  0
 16 19  1  0
 17 20  1  0
 19 20  1  0
 18 21  1  0
 18 22  1  0
M  END
