DAR-DIA-842b4336-5-chloroacetamide
     RDKit          3D

 18 19  0  0  0  0  0  0  0  0999 V2000
    6.3710   -4.0660   20.2460 C   0  0  0  0  0  0  0  0  0  0  0  0
    5.9990   -3.1370   19.1010 C   0  0  0  0  0  0  0  0  0  0  0  0
    5.3400   -3.4610   18.1310 O   0  0  0  0  0  0  0  0  0  0  0  0
    6.4380   -1.7100   19.1760 C   0  0  0  0  0  0  0  0  0  0  0  0
    7.5720   -1.1040   18.2940 C   0  0  0  0  0  0  0  0  0  0  0  0
    5.6450   -0.6010   20.3070 S   0  0  0  0  0  0  0  0  0  0  0  0
    7.0240   -0.1070   19.1580 C   0  0  0  0  0  0  0  0  0  0  0  0
    6.5080    0.8370   19.9740 C   0  0  0  0  0  0  0  0  0  0  0  0
    5.7290    1.4520   20.9260 N   0  0  0  0  0  0  0  0  0  0  0  0
    5.0470    2.6340   20.7010 C   0  0  0  0  0  0  0  0  0  0  0  0
    5.0670    3.5820   21.4820 O   0  0  0  0  0  0  0  0  0  0  0  0
    4.3150    2.5760   19.4170 N   0  0  0  0  0  0  0  0  0  0  0  0
    2.9520    2.6260   19.6390 C   0  0  0  0  0  0  0  0  0  0  0  0
    2.1260    1.5920   20.2640 C   0  0  0  0  0  0  0  0  0  0  0  0
    2.2370    3.7120   19.2760 C   0  0  0  0  0  0  0  0  0  0  0  0
    0.6080    1.8270   20.4250 C   0  0  0  0  0  0  0  0  0  0  0  0
    0.7600    3.7940   19.5050 N   0  0  0  0  0  0  0  0  0  0  0  0
   -0.1900    2.9170   20.0770 C   0  0  0  0  0  0  0  0  0  0  0  0
  1  2  1  0
  2  3  2  0
  2  4  1  0
  4  5  2  0
  4  6  1  0
  5  7  1  0
  6  8  1  0
  7  8  2  0
  8  9  1  0
  9 10  1  0
 10 11  2  0
 10 12  1  0
 12 13  1  0
 13 14  2  0
 13 15  1  0
 14 16  1  0
 15 17  2  0
 16 18  2  0
 17 18  1  0
M  END
