DAR-DIA-43a5904b-8
     RDKit          3D

 21 23  0  0  0  0  0  0  0  0999 V2000
    9.9600    3.0880   22.3040 N   0  0  0  0  0  0  0  0  0  0  0  0
    9.1620    1.9770   22.2460 C   0  0  0  0  0  0  0  0  0  0  0  0
    8.8160    1.5830   21.1380 O   0  0  0  0  0  0  0  0  0  0  0  0
    8.7420    1.3280   23.5620 C   0  0  1  0  0  0  0  0  0  0  0  0
    7.2580    1.0000   23.2780 C   0  0  0  0  0  0  0  0  0  0  0  0
    9.3980   -0.1050   23.7970 C   0  0  1  0  0  0  0  0  0  0  0  0
    7.2960   -0.4390   22.8530 C   0  0  0  0  0  0  0  0  0  0  0  0
    8.5170   -1.0100   23.1550 C   0  0  0  0  0  0  0  0  0  0  0  0
   10.6300   -0.2240   23.3140 C   0  0  0  0  0  0  0  0  0  0  0  0
    6.0550   -0.9960   22.1950 C   0  0  0  0  0  0  0  0  0  0  0  0
   11.5710    0.7830   23.5260 C   0  0  0  0  0  0  0  0  0  0  0  0
   11.0190   -1.3640   22.5750 C   0  0  0  0  0  0  0  0  0  0  0  0
    5.4930   -0.4060   21.0710 C   0  0  0  0  0  0  0  0  0  0  0  0
   12.8460    0.6760   23.0270 C   0  0  0  0  0  0  0  0  0  0  0  0
   12.3050   -1.4470   22.0870 C   0  0  0  0  0  0  0  0  0  0  0  0
    4.5050    0.5980   21.1380 C   0  0  0  0  0  0  0  0  0  0  0  0
    5.9070   -0.8090   19.4370 S   0  0  0  0  0  0  0  0  0  0  0  0
   13.1850   -0.4370   22.3200 C   0  0  0  0  0  0  0  0  0  0  0  0
   12.8450   -2.7770   21.1820 Cl  0  0  0  0  0  0  0  0  0  0  0  0
    4.0140    1.1140   19.8450 N   0  0  0  0  0  0  0  0  0  0  0  0
    4.7230    0.4040   18.9210 C   0  0  0  0  0  0  0  0  0  0  0  0
  1  2  1  0
  2  3  2  0
  4  2  1  6
  4  5  1  0
  4  6  1  0
  5  7  1  0
  6  8  1  0
  7  8  2  0
  6  9  1  6
  7 10  1  0
  9 11  2  0
  9 12  1  0
 10 13  1  0
 11 14  1  0
 12 15  2  0
 13 16  2  0
 13 17  1  0
 14 18  2  0
 15 18  1  0
 15 19  1  0
 16 20  1  0
 17 21  1  0
 20 21  2  0
M  END
