DAR-DIA-2b784ede-37-chloroacetamide
     RDKit          3D

 34 36  0  0  0  0  0  0  0  0999 V2000
    8.6410   -3.8680   20.1540 C   0  0  0  0  0  0  0  0  0  0  0  0
    8.0010   -2.6020   19.9920 C   0  0  0  0  0  0  0  0  0  0  0  0
    6.8520   -2.8220   19.2060 O   0  0  0  0  0  0  0  0  0  0  0  0
    8.9400   -1.4700   20.6690 N   0  0  0  0  0  0  0  0  0  0  0  0
    9.9610   -1.8730   21.5950 C   0  0  0  0  0  0  0  0  0  0  0  0
    8.6720   -0.5840   21.8490 C   0  0  2  0  0  0  0  0  0  0  0  0
   11.3910   -1.9520   21.8390 C   0  0  0  0  0  0  0  0  0  0  0  0
    9.0910   -2.2690   22.4580 C   0  0  0  0  0  0  0  0  0  0  0  0
    8.1350    0.6980   21.4700 C   0  0  0  0  0  0  0  0  0  0  0  0
    9.7470   -0.4800   22.9490 C   0  0  0  0  0  0  0  0  0  0  0  0
   11.7480   -2.5410   23.0950 C   0  0  0  0  0  0  0  0  0  0  0  0
    9.4150   -2.7740   23.5340 C   0  0  0  0  0  0  0  0  0  0  0  0
    8.7310    1.7620   21.2270 O   0  0  0  0  0  0  0  0  0  0  0  0
    6.8630    0.3420   21.4540 N   0  0  0  0  0  0  0  0  0  0  0  0
   11.1100   -0.4930   22.6460 C   0  0  0  0  0  0  0  0  0  0  0  0
    9.4510   -0.3680   24.3200 C   0  0  0  0  0  0  0  0  0  0  0  0
   10.6520   -2.9490   23.8870 C   0  0  0  0  0  0  0  0  0  0  0  0
    6.2660    0.4910   20.2750 C   0  0  0  0  0  0  0  0  0  0  0  0
   12.1460   -0.4120   23.5050 N   0  0  0  0  0  0  0  0  0  0  0  0
   10.5110   -0.2920   25.2210 C   0  0  0  0  0  0  0  0  0  0  0  0
    8.0550   -0.3280   24.8800 C   0  0  0  0  0  0  0  0  0  0  0  0
   10.1730   -3.5910   25.0900 C   0  0  0  0  0  0  0  0  0  0  0  0
    6.9480    0.0590   19.1410 C   0  0  0  0  0  0  0  0  0  0  0  0
    5.0370    1.0610   20.2060 C   0  0  0  0  0  0  0  0  0  0  0  0
   11.8170   -0.3190   24.7810 C   0  0  0  0  0  0  0  0  0  0  0  0
    9.1480   -4.3770   24.2180 C   0  0  0  0  0  0  0  0  0  0  0  0
    9.1580   -2.7620   25.8150 C   0  0  0  0  0  0  0  0  0  0  0  0
   11.0080   -4.5220   25.9590 C   0  0  0  0  0  0  0  0  0  0  0  0
    6.3650    0.2260   17.8110 C   0  0  0  0  0  0  0  0  0  0  0  0
    4.4610    1.2240   18.9580 C   0  0  0  0  0  0  0  0  0  0  0  0
    4.2900    1.5210   21.4290 C   0  0  0  0  0  0  0  0  0  0  0  0
    7.2210   -0.2700   16.6410 C   0  0  0  0  0  0  0  0  0  0  0  0
    5.1100    0.8210   17.8020 C   0  0  0  0  0  0  0  0  0  0  0  0
    7.3720   -1.6360   16.4570 C   0  0  0  0  0  0  0  0  0  0  0  0
  1  2  1  0
  2  3  2  0
  2  4  1  0
  4  5  1  0
  4  6  1  0
  5  7  2  0
  5  8  1  0
  6  9  1  6
  6 10  1  0
  7 11  1  0
  8 12  2  0
  9 13  2  0
  9 14  1  0
 10 15  2  0
 10 16  1  0
 11 17  2  0
 12 17  1  0
 14 18  1  0
 15 19  1  0
 16 20  2  0
 16 21  1  0
 17 22  1  0
 18 23  2  0
 18 24  1  0
 19 25  2  0
 20 25  1  0
 22 26  1  0
 22 27  1  0
 22 28  1  0
 23 29  1  0
 24 30  2  0
 24 31  1  0
 29 32  1  0
 29 33  2  0
 30 33  1  0
 32 34  1  0
M  END
