DAR-DIA-2b784ede-20-acrylamide
     RDKit          3D

 29 31  0  0  0  0  0  0  0  0999 V2000
    8.3540   -3.4580   20.0680 C   0  0  0  0  0  0  0  0  0  0  0  0
    7.9640   -2.8960   21.4170 C   0  0  0  0  0  0  0  0  0  0  0  0
    6.5500   -2.9580   21.2770 C   0  0  0  0  0  0  0  0  0  0  0  0
    5.0120   -3.0250   21.1250 O   0  0  0  0  0  0  0  0  0  0  0  0
    7.2660   -1.4880   21.2650 N   0  0  0  0  0  0  0  0  0  0  0  0
    6.7030   -0.7860   20.1070 C   0  0  0  0  0  0  0  0  0  0  0  0
    8.7150   -0.6920   22.0990 C   0  0  2  0  0  0  0  0  0  0  0  0
    5.9690    0.2190   20.4690 C   0  0  0  0  0  0  0  0  0  0  0  0
    5.8910    0.3270   20.0260 N   0  0  0  0  0  0  0  0  0  0  0  0
    8.7420    0.7120   21.3850 C   0  0  0  0  0  0  0  0  0  0  0  0
   10.2490   -1.3890   22.7380 C   0  0  0  0  0  0  0  0  0  0  0  0
    5.9840    1.1480   19.2880 C   0  0  0  0  0  0  0  0  0  0  0  0
    4.6300    0.9570   19.5250 C   0  0  0  0  0  0  0  0  0  0  0  0
    9.7500    0.9330   22.0660 O   0  0  0  0  0  0  0  0  0  0  0  0
    7.6110    0.0450   20.8700 N   0  0  0  0  0  0  0  0  0  0  0  0
   11.7710   -1.1550   22.7340 C   0  0  0  0  0  0  0  0  0  0  0  0
    9.6620   -2.2750   23.2390 C   0  0  0  0  0  0  0  0  0  0  0  0
    5.0280    2.2140   19.1560 C   0  0  0  0  0  0  0  0  0  0  0  0
    7.4860   -0.5560   19.5200 C   0  0  0  0  0  0  0  0  0  0  0  0
   11.1730   -0.1400   22.2210 N   0  0  0  0  0  0  0  0  0  0  0  0
    8.8770   -1.3580   22.8190 C   0  0  0  0  0  0  0  0  0  0  0  0
    9.4610   -3.4920   23.9370 C   0  0  0  0  0  0  0  0  0  0  0  0
    3.6190    2.8000   19.5970 C   0  0  0  0  0  0  0  0  0  0  0  0
    9.7500   -0.2520   22.2870 C   0  0  0  0  0  0  0  0  0  0  0  0
    4.0840    4.0300   20.8470 Cl  0  0  0  0  0  0  0  0  0  0  0  0
    2.7590    1.7800   20.3780 C   0  0  0  0  0  0  0  0  0  0  0  0
    2.5060    3.4620   18.7550 C   0  0  0  0  0  0  0  0  0  0  0  0
    1.4000    2.4810   20.5710 C   0  0  0  0  0  0  0  0  0  0  0  0
    1.5340    3.7650   19.7230 C   0  0  0  0  0  0  0  0  0  0  0  0
  1  2  1  0
  2  3  1  0
  3  4  2  0
  3  5  1  0
  5  6  1  0
  5  7  1  0
  6  8  2  0
  6  9  1  0
  7 10  1  6
  7 11  1  0
  8 12  1  0
  9 13  2  0
 10 14  2  0
 10 15  1  0
 11 16  2  0
 11 17  1  0
 12 18  2  0
 13 18  1  0
 15 19  1  0
 16 20  1  0
 17 21  2  0
 17 22  1  0
 18 23  1  0
 20 24  2  0
 21 24  1  0
 23 25  1  0
 23 26  1  0
 23 27  1  0
 26 28  1  0
 27 29  1  0
 28 29  1  0
M  END
