DAR-DIA-fb20be43-6-vinylsulfonamide
     RDKit          3D

 24 26  0  0  0  0  0  0  0  0999 V2000
    7.2860   -4.9090   20.1810 C   0  0  0  0  0  0  0  0  0  0  0  0
    7.1970   -4.0530   21.1360 C   0  0  0  0  0  0  0  0  0  0  0  0
    5.8180   -3.0200   20.8510 S   0  0  0  0  0  0  0  0  0  0  0  0
    4.8210   -3.4900   21.7800 O   0  0  0  0  0  0  0  0  0  0  0  0
    5.5560   -2.9380   19.4260 O   0  0  0  0  0  0  0  0  0  0  0  0
    6.3960   -1.6170   21.4490 N   0  0  0  0  0  0  0  0  0  0  0  0
    6.3500   -1.5690   22.9000 C   0  0  0  0  0  0  0  0  0  0  0  0
    7.6940   -1.1750   20.9480 C   0  0  0  0  0  0  0  0  0  0  0  0
    7.2540   -2.6800   23.4600 C   0  0  0  0  0  0  0  0  0  0  0  0
    8.8430   -1.5670   21.9060 C   0  0  0  0  0  0  0  0  0  0  0  0
    8.5950   -2.6900   22.8630 N   0  0  0  0  0  0  0  0  0  0  0  0
    9.5800   -2.5880   23.9400 C   0  0  0  0  0  0  0  0  0  0  0  0
   10.5330   -1.5370   23.5450 C   0  0  0  0  0  0  0  0  0  0  0  0
   11.5430   -1.9060   22.7160 C   0  0  0  0  0  0  0  0  0  0  0  0
   10.4000   -0.2010   23.9450 C   0  0  0  0  0  0  0  0  0  0  0  0
   12.4170   -0.9840   22.2740 C   0  0  0  0  0  0  0  0  0  0  0  0
   11.3360    0.7450   23.4540 C   0  0  0  0  0  0  0  0  0  0  0  0
    9.2720    0.2430   24.8620 C   0  0  0  0  0  0  0  0  0  0  0  0
   13.3610   -1.3810   21.3990 C   0  0  0  0  0  0  0  0  0  0  0  0
   12.3410    0.3240   22.6380 C   0  0  0  0  0  0  0  0  0  0  0  0
   11.2540    2.2040   23.7670 C   0  0  0  0  0  0  0  0  0  0  0  0
    9.1220    1.7120   25.2230 C   0  0  0  0  0  0  0  0  0  0  0  0
   13.9670   -1.6220   20.5190 N   0  0  0  0  0  0  0  0  0  0  0  0
   10.1410    2.6930   24.6300 C   0  0  0  0  0  0  0  0  0  0  0  0
  1  2  1  0
  3  2  1  0
  3  4  2  0
  3  5  2  0
  3  6  1  0
  6  7  1  0
  6  8  1  0
  7  9  1  0
  8 10  1  0
  9 11  1  0
 10 11  1  0
 11 12  1  0
 12 13  1  0
 13 14  2  0
 13 15  1  0
 14 16  1  0
 15 17  2  0
 15 18  1  0
 16 19  1  0
 16 20  2  0
 17 20  1  0
 17 21  1  0
 18 22  2  0
 19 23  3  0
 21 24  2  0
 22 24  1  0
M  END
