DAR-DIA-fb20be43-9-bromoalkyne
     RDKit          3D

 23 25  0  0  0  0  0  0  0  0999 V2000
    7.0210   -3.2920   19.5880 C   0  0  0  0  0  0  0  0  0  0  0  0
    6.1050   -2.8710   18.7460 C   0  0  0  0  0  0  0  0  0  0  0  0
    7.0370   -2.8160   20.8930 N   0  0  0  0  0  0  0  0  0  0  0  0
    7.5200   -1.4460   21.1630 C   0  0  0  0  0  0  0  0  0  0  0  0
    6.8380   -3.6630   22.0730 C   0  0  0  0  0  0  0  0  0  0  0  0
    8.8350   -1.4800   21.9610 C   0  0  0  0  0  0  0  0  0  0  0  0
    7.6600   -3.2770   23.1750 C   0  0  0  0  0  0  0  0  0  0  0  0
    8.9660   -2.6850   22.8030 N   0  0  0  0  0  0  0  0  0  0  0  0
    9.8640   -2.4290   23.9500 C   0  0  0  0  0  0  0  0  0  0  0  0
   10.9370   -1.4340   23.6020 C   0  0  0  0  0  0  0  0  0  0  0  0
   12.1470   -1.8860   23.0640 C   0  0  0  0  0  0  0  0  0  0  0  0
   10.7250   -0.0420   23.7920 C   0  0  0  0  0  0  0  0  0  0  0  0
   13.1270   -0.9870   22.7180 C   0  0  0  0  0  0  0  0  0  0  0  0
   11.7350    0.8830   23.4120 C   0  0  0  0  0  0  0  0  0  0  0  0
    9.4230    0.5120   24.3860 C   0  0  0  0  0  0  0  0  0  0  0  0
   12.9350    0.4100   22.8890 C   0  0  0  0  0  0  0  0  0  0  0  0
   11.5620    2.2810   23.5260 C   0  0  0  0  0  0  0  0  0  0  0  0
    9.2670    2.0300   24.4880 C   0  0  0  0  0  0  0  0  0  0  0  0
   10.2670    2.8810   24.0650 C   0  0  0  0  0  0  0  0  0  0  0  0
   10.0350    4.6600   24.1100 S   0  0  0  0  0  0  0  0  0  0  0  0
    9.0080    4.8590   22.7820 N   0  0  0  0  0  0  0  0  0  0  0  0
   11.2930    5.2900   23.7910 O   0  0  0  0  0  0  0  0  0  0  0  0
    9.2400    5.0770   25.2470 O   0  0  0  0  0  0  0  0  0  0  0  0
  1  2  2  3
  1  3  1  0
  3  4  1  0
  3  5  1  0
  4  6  1  0
  5  7  1  0
  6  8  1  0
  7  8  1  0
  8  9  1  0
  9 10  1  0
 10 11  2  0
 10 12  1  0
 11 13  1  0
 12 14  2  0
 12 15  1  0
 13 16  2  0
 14 16  1  0
 14 17  1  0
 15 18  2  0
 17 19  2  0
 18 19  1  0
 19 20  1  0
 20 21  1  0
 20 22  2  0
 20 23  2  0
M  END
