DAR-DIA-caba39e3-5-acrylamide
     RDKit          3D

 30 33  0  0  0  0  0  0  0  0999 V2000
    7.3420   -2.8100   18.2960 C   0  0  0  0  0  0  0  0  0  0  0  0
    6.4920   -2.1260   19.3050 C   0  0  0  0  0  0  0  0  0  0  0  0
    6.0140   -3.0340   20.3920 C   0  0  0  0  0  0  0  0  0  0  0  0
    5.2600   -4.0030   20.2280 O   0  0  0  0  0  0  0  0  0  0  0  0
    6.4830   -2.7250   21.6250 N   0  0  0  0  0  0  0  0  0  0  0  0
    6.0130   -3.2960   22.7630 C   0  0  0  0  0  0  0  0  0  0  0  0
    7.5810   -1.7970   21.8350 C   0  0  0  0  0  0  0  0  0  0  0  0
    7.1600   -3.7170   23.6670 C   0  0  0  0  0  0  0  0  0  0  0  0
    8.8140   -2.4380   22.4840 C   0  0  2  0  0  0  0  0  0  0  0  0
    6.6780   -4.6630   24.7500 C   0  0  0  0  0  0  0  0  0  0  0  0
    8.4790   -3.2960   23.5170 C   0  0  0  0  0  0  0  0  0  0  0  0
    9.6740   -1.3630   22.6580 C   0  0  0  0  0  0  0  0  0  0  0  0
    7.6960   -5.2030   25.7450 C   0  0  0  0  0  0  0  0  0  0  0  0
    9.4400   -3.7540   24.3910 C   0  0  0  0  0  0  0  0  0  0  0  0
   11.0260   -1.6000   22.4680 C   0  0  0  0  0  0  0  0  0  0  0  0
    9.3050   -0.0300   22.9910 C   0  0  0  0  0  0  0  0  0  0  0  0
    9.1380   -4.7280   25.5500 C   0  0  0  0  0  0  0  0  0  0  0  0
   11.9310   -0.5720   22.6040 C   0  0  0  0  0  0  0  0  0  0  0  0
   10.2310    0.9760   23.1140 C   0  0  0  0  0  0  0  0  0  0  0  0
    8.0710    0.5700   23.2450 N   0  0  0  0  0  0  0  0  0  0  0  0
   13.5070   -1.0010   22.3320 Cl  0  0  0  0  0  0  0  0  0  0  0  0
   11.5570    0.7160   22.9290 C   0  0  0  0  0  0  0  0  0  0  0  0
    9.5330    2.2880   23.4490 C   0  0  0  0  0  0  0  0  0  0  0  0
    8.1970    1.9630   23.5220 C   0  0  0  0  0  0  0  0  0  0  0  0
   10.2140    3.5380   23.6280 C   0  0  0  0  0  0  0  0  0  0  0  0
    9.5420    4.7260   23.2140 C   0  0  0  0  0  0  0  0  0  0  0  0
    8.9080    5.3630   24.2670 N   0  0  0  0  0  0  0  0  0  0  0  0
    9.0200    4.8840   25.5570 C   0  0  0  0  0  0  0  0  0  0  0  0
    8.2080    3.7400   25.8230 C   0  0  0  0  0  0  0  0  0  0  0  0
    9.8070    5.4350   26.4900 O   0  0  0  0  0  0  0  0  0  0  0  0
  1  2  1  0
  2  3  1  0
  3  4  2  0
  3  5  1  0
  5  6  1  0
  5  7  1  0
  6  8  1  0
  7  9  1  0
  8 10  1  0
  8 11  2  0
  9 11  1  0
  9 12  1  1
 10 13  2  0
 11 14  1  0
 12 15  2  0
 12 16  1  0
 13 17  1  0
 14 17  2  0
 15 18  1  0
 16 19  2  0
 16 20  1  0
 18 21  1  0
 18 22  2  0
 19 22  1  0
 19 23  1  0
 20 24  1  0
 23 24  2  0
 23 25  1  0
 25 26  1  0
 26 27  1  0
 27 28  1  0
 28 29  1  0
 28 30  2  0
M  END
