DAR-DIA-0cde14eb-43
     RDKit          3D

 26 29  0  0  0  0  0  0  0  0999 V2000
    7.8730    0.2960   24.1250 C   0  0  0  0  0  0  0  0  0  0  0  0
    8.6460   -0.2460   22.9370 C   0  0  1  0  0  0  0  0  0  0  0  0
    8.1960    0.2810   21.6260 C   0  0  0  0  0  0  0  0  0  0  0  0
   10.0800    0.1470   23.0510 C   0  0  0  0  0  0  0  0  0  0  0  0
    8.6940    1.3160   21.1440 O   0  0  0  0  0  0  0  0  0  0  0  0
    7.2150   -0.4990   21.0510 N   0  0  0  0  0  0  0  0  0  0  0  0
   10.4500    1.3700   23.3960 C   0  0  0  0  0  0  0  0  0  0  0  0
   11.0360   -0.7720   22.7770 C   0  0  0  0  0  0  0  0  0  0  0  0
    6.4730    0.1690   20.0220 C   0  0  0  0  0  0  0  0  0  0  0  0
   11.8730    1.7150   23.4600 C   0  0  0  0  0  0  0  0  0  0  0  0
   12.3970   -0.5310   22.8230 C   0  0  0  0  0  0  0  0  0  0  0  0
    6.7750   -0.0000   18.6810 C   0  0  0  0  0  0  0  0  0  0  0  0
    5.4120    1.0250   20.3480 C   0  0  0  0  0  0  0  0  0  0  0  0
   12.8920    0.7070   23.1540 C   0  0  0  0  0  0  0  0  0  0  0  0
   13.0690   -1.6330   22.5130 C   0  0  0  0  0  0  0  0  0  0  0  0
    6.1590    0.5760   17.6460 N   0  0  0  0  0  0  0  0  0  0  0  0
    4.7450    1.6430   19.2950 C   0  0  0  0  0  0  0  0  0  0  0  0
    5.0050    1.2720   21.8180 C   0  0  0  0  0  0  0  0  0  0  0  0
   13.5160   -2.4710   23.6890 C   0  0  0  0  0  0  0  0  0  0  0  0
   13.3680   -2.0560   21.0700 C   0  0  0  0  0  0  0  0  0  0  0  0
   12.0080   -2.2740   21.6350 C   0  0  0  0  0  0  0  0  0  0  0  0
    5.1560    1.3880   18.0010 C   0  0  0  0  0  0  0  0  0  0  0  0
    4.0290    2.4440   21.9550 C   0  0  0  0  0  0  0  0  0  0  0  0
    3.6060    2.5630   19.5810 C   0  0  0  0  0  0  0  0  0  0  0  0
   13.9090   -3.1490   24.8480 N   0  0  0  0  0  0  0  0  0  0  0  0
    3.0120    2.3270   20.8110 C   0  0  0  0  0  0  0  0  0  0  0  0
  2  1  1  1
  2  3  1  0
  2  4  1  0
  3  5  2  0
  3  6  1  0
  4  7  2  0
  4  8  1  0
  6  9  1  0
  7 10  1  0
  8 11  2  0
  9 12  2  0
  9 13  1  0
 10 14  2  0
 11 14  1  0
 11 15  1  0
 12 16  1  0
 13 17  2  0
 13 18  1  0
 15 19  1  0
 15 20  1  0
 15 21  1  0
 20 21  1  0
 16 22  2  0
 17 22  1  0
 18 23  1  0
 17 24  1  0
 19 25  3  0
 23 26  1  0
 24 26  1  0
M  END
