DAR-DIA-03336633-1
     RDKit          3D

 28 30  0  0  0  0  0  0  0  0999 V2000
    8.4730    0.8040   21.1040 O   0  0  0  0  0  0  0  0  0  0  0  0
    8.1930   -0.3220   21.5060 C   0  0  0  0  0  0  0  0  0  0  0  0
    9.0990   -1.0680   22.3210 N   0  0  0  0  0  0  0  0  0  0  0  0
    7.0210   -0.9900   21.2400 N   0  0  0  0  0  0  0  0  0  0  0  0
   10.4440   -0.5720   22.5600 C   0  0  0  0  0  0  0  0  0  0  0  0
    6.3770   -0.3440   20.2180 C   0  0  0  0  0  0  0  0  0  0  0  0
   11.5640   -1.5610   22.2330 C   0  0  0  0  0  0  0  0  0  0  0  0
   10.6990    0.7070   23.0380 C   0  0  0  0  0  0  0  0  0  0  0  0
    6.9270   -0.3530   18.8200 C   0  0  0  0  0  0  0  0  0  0  0  0
    5.1670    0.3440   20.5230 C   0  0  0  0  0  0  0  0  0  0  0  0
   12.9770   -1.0550   22.4620 C   0  0  0  0  0  0  0  0  0  0  0  0
   12.0040    1.1430   23.2310 C   0  0  0  0  0  0  0  0  0  0  0  0
    6.1360    0.3890   17.8580 N   0  0  0  0  0  0  0  0  0  0  0  0
    4.4680    1.0380   19.5210 C   0  0  0  0  0  0  0  0  0  0  0  0
    4.6540    0.3420   21.8220 C   0  0  0  0  0  0  0  0  0  0  0  0
   13.0580    0.3370   22.9670 C   0  0  0  0  0  0  0  0  0  0  0  0
    4.9880    1.0310   18.2370 C   0  0  0  0  0  0  0  0  0  0  0  0
    4.9430    1.5500   22.4730 C   0  0  0  0  0  0  0  0  0  0  0  0
    3.8770    2.5320   22.5710 N   0  0  0  0  0  0  0  0  0  0  0  0
    2.8110    2.3220   23.3740 C   0  0  0  0  0  0  0  0  0  0  0  0
    2.7700    1.4620   24.2430 O   0  0  0  0  0  0  0  0  0  0  0  0
    1.8030    3.1910   23.0820 N   0  0  0  0  0  0  0  0  0  0  0  0
    0.6060    3.3020   23.9160 C   0  0  0  0  0  0  0  0  0  0  0  0
   -0.4990    2.8310   23.2200 C   0  0  0  0  0  0  0  0  0  0  0  0
    0.3930    4.7580   24.3730 C   0  0  0  0  0  0  0  0  0  0  0  0
   -1.8680    3.3270   23.6150 C   0  0  0  0  0  0  0  0  0  0  0  0
   -0.7810    4.8260   25.1280 C   0  0  0  0  0  0  0  0  0  0  0  0
   -1.8590    4.5510   24.2830 C   0  0  0  0  0  0  0  0  0  0  0  0
  1  2  2  0
  2  3  1  0
  2  4  1  0
  3  5  1  0
  4  6  1  0
  5  7  2  0
  5  8  1  0
  6  9  2  0
  6 10  1  0
  7 11  1  0
  8 12  2  0
  9 13  1  0
 10 14  2  0
 10 15  1  0
 11 16  2  0
 12 16  1  0
 13 17  2  0
 14 17  1  0
 15 18  1  0
 18 19  1  0
 19 20  1  0
 20 21  2  0
 20 22  1  0
 22 23  1  0
 23 24  1  0
 23 25  1  0
 24 26  1  0
 25 27  1  0
 26 28  1  0
 27 28  1  0
M  END
