DAR-DIA-caba39e3-6-nitrile
     RDKit          3D

 28 31  0  0  0  0  0  0  0  0999 V2000
    6.4720   -3.6940   19.8760 C   0  0  0  0  0  0  0  0  0  0  0  0
    5.6630   -3.2730   18.9740 N   0  0  0  0  0  0  0  0  0  0  0  0
    6.0340   -3.4350   21.1620 N   0  0  0  0  0  0  0  0  0  0  0  0
    5.2750   -4.2480   21.9910 C   0  0  0  0  0  0  0  0  0  0  0  0
    6.4330   -2.1630   21.8180 C   0  0  0  0  0  0  0  0  0  0  0  0
    5.7830   -4.3940   23.4250 C   0  0  0  0  0  0  0  0  0  0  0  0
    7.4070   -2.5260   22.9580 C   0  0  2  0  0  0  0  0  0  0  0  0
    5.2170   -5.4050   24.3510 C   0  0  0  0  0  0  0  0  0  0  0  0
    6.7890   -3.5750   23.8830 C   0  0  0  0  0  0  0  0  0  0  0  0
    8.2790   -1.5150   23.3480 C   0  0  0  0  0  0  0  0  0  0  0  0
    5.7050   -5.5690   25.7790 C   0  0  0  0  0  0  0  0  0  0  0  0
    7.4220   -3.5890   25.2990 C   0  0  0  0  0  0  0  0  0  0  0  0
    8.0970   -0.3760   24.2370 C   0  0  0  0  0  0  0  0  0  0  0  0
    9.5360   -1.5830   22.8440 C   0  0  0  0  0  0  0  0  0  0  0  0
    6.8410   -4.6560   26.3080 C   0  0  0  0  0  0  0  0  0  0  0  0
    9.1600    0.5300   24.5230 C   0  0  0  0  0  0  0  0  0  0  0  0
   10.6080   -0.7260   23.1140 C   0  0  0  0  0  0  0  0  0  0  0  0
    9.9280   -2.5540   21.9660 N   0  0  0  0  0  0  0  0  0  0  0  0
    8.9660    1.5720   25.3370 F   0  0  0  0  0  0  0  0  0  0  0  0
   10.4490    0.3550   23.9610 C   0  0  0  0  0  0  0  0  0  0  0  0
   11.6670   -1.2530   22.3810 C   0  0  0  0  0  0  0  0  0  0  0  0
   11.2470   -2.4440   21.6100 C   0  0  0  0  0  0  0  0  0  0  0  0
   13.1010   -0.9330   22.1630 C   0  0  0  0  0  0  0  0  0  0  0  0
   13.4260   -1.5910   20.8080 C   0  0  0  0  0  0  0  0  0  0  0  0
   13.8280   -2.8120   20.4990 N   0  0  0  0  0  0  0  0  0  0  0  0
   13.7650   -3.7830   21.2420 C   0  0  0  0  0  0  0  0  0  0  0  0
   14.5760   -4.8940   20.7130 C   0  0  0  0  0  0  0  0  0  0  0  0
   13.1460   -3.5530   22.2480 O   0  0  0  0  0  0  0  0  0  0  0  0
  1  2  2  3
  1  3  1  0
  3  4  1  0
  3  5  1  0
  4  6  1  0
  5  7  1  0
  6  8  1  0
  6  9  2  0
  7  9  1  0
  7 10  1  1
  8 11  2  0
  9 12  1  0
 10 13  2  0
 10 14  1  0
 11 15  1  0
 12 15  2  0
 13 16  1  0
 14 17  2  0
 14 18  1  0
 16 19  1  0
 16 20  2  0
 17 20  1  0
 17 21  1  0
 18 22  1  0
 21 22  2  0
 21 23  1  0
 23 24  1  0
 24 25  1  0
 25 26  1  0
 26 27  1  0
 26 28  2  0
M  END
