DAR-DIA-2b784ede-50-nitrile
     RDKit          3D

 33 35  0  0  0  0  0  0  0  0999 V2000
    7.3470   -3.0530   18.9610 C   0  0  0  0  0  0  0  0  0  0  0  0
    6.5250   -3.0380   18.0060 N   0  0  0  0  0  0  0  0  0  0  0  0
    6.9560   -2.2390   19.9950 N   0  0  0  0  0  0  0  0  0  0  0  0
    6.3580   -0.9060   19.5500 C   0  0  0  0  0  0  0  0  0  0  0  0
    7.4670   -2.5080   21.3400 C   0  0  1  0  0  0  0  0  0  0  0  0
    5.2210   -0.0650   20.2330 C   0  0  0  0  0  0  0  0  0  0  0  0
    6.7330   -0.2260   18.4380 N   0  0  0  0  0  0  0  0  0  0  0  0
    8.4790   -1.4960   21.8750 C   0  0  0  0  0  0  0  0  0  0  0  0
    6.4810   -3.3090   22.1590 C   0  0  0  0  0  0  0  0  0  0  0  0
    5.2240    1.0520   19.2100 C   0  0  0  0  0  0  0  0  0  0  0  0
    6.0980    0.9660   18.1550 N   0  0  0  0  0  0  0  0  0  0  0  0
    8.0190   -0.2460   22.1660 O   0  0  0  0  0  0  0  0  0  0  0  0
    9.7900   -2.0190   21.9610 N   0  0  0  0  0  0  0  0  0  0  0  0
    5.7980   -4.5350   21.5310 C   0  0  0  0  0  0  0  0  0  0  0  0
    6.1560   -2.9910   23.4810 C   0  0  0  0  0  0  0  0  0  0  0  0
    4.1720    2.1330   19.6140 C   0  0  0  0  0  0  0  0  0  0  0  0
   10.6790   -1.5580   22.9620 C   0  0  0  0  0  0  0  0  0  0  0  0
    4.8250   -5.3070   22.4160 C   0  0  0  0  0  0  0  0  0  0  0  0
    5.2900   -3.6650   24.2790 N   0  0  0  0  0  0  0  0  0  0  0  0
    4.9700    2.9480   20.6300 C   0  0  0  0  0  0  0  0  0  0  0  0
    2.9500    1.5210   20.3040 C   0  0  0  0  0  0  0  0  0  0  0  0
    3.6870    3.0450   18.5100 C   0  0  0  0  0  0  0  0  0  0  0  0
   12.0420   -1.3890   22.8140 C   0  0  0  0  0  0  0  0  0  0  0  0
   10.0900   -1.2550   24.1740 C   0  0  0  0  0  0  0  0  0  0  0  0
    4.6500   -4.7580   23.8040 C   0  0  0  0  0  0  0  0  0  0  0  0
   12.7100   -1.6710   21.7060 C   0  0  0  0  0  0  0  0  0  0  0  0
   12.8430   -0.8930   23.8340 C   0  0  0  0  0  0  0  0  0  0  0  0
   10.8280   -0.7560   25.2170 C   0  0  0  0  0  0  0  0  0  0  0  0
    8.6410   -1.4870   24.3510 C   0  0  0  0  0  0  0  0  0  0  0  0
   13.4720   -0.5790   21.6690 C   0  0  0  0  0  0  0  0  0  0  0  0
   12.1800   -0.5470   25.1320 C   0  0  0  0  0  0  0  0  0  0  0  0
    8.2750   -2.8470   23.8340 C   0  0  0  0  0  0  0  0  0  0  0  0
    9.0030   -3.4390   23.0440 O   0  0  0  0  0  0  0  0  0  0  0  0
  1  2  2  3
  1  3  1  0
  3  4  1  0
  3  5  1  0
  4  6  2  0
  4  7  1  0
  5  8  1  1
  5  9  1  0
  6 10  1  0
  7 11  1  0
 10 11  2  0
  8 12  2  0
  8 13  1  0
  9 14  2  0
  9 15  1  0
 10 16  1  0
 13 17  1  0
 14 18  1  0
 15 19  2  0
 16 20  1  0
 16 21  1  0
 16 22  1  0
 17 23  2  0
 17 24  1  0
 18 25  2  0
 19 25  1  0
 23 26  1  0
 23 27  1  0
 24 28  2  0
 24 29  1  0
 26 30  1  0
 27 31  2  0
 28 31  1  0
 29 32  1  0
 32 33  1  0
M  END
