DAR-DIA-2b784ede-27-vinylsulfonamide
     RDKit          3D

 37 39  0  0  0  0  0  0  0  0999 V2000
    6.8000   -3.7810   20.1590 C   0  0  0  0  0  0  0  0  0  0  0  0
    7.2200   -2.9840   21.3850 C   0  0  0  0  0  0  0  0  0  0  0  0
    5.7760   -2.5260   22.3180 S   0  0  0  0  0  0  0  0  0  0  0  0
    4.7210   -3.1120   21.5410 O   0  0  0  0  0  0  0  0  0  0  0  0
    5.9810   -2.9750   23.6780 O   0  0  0  0  0  0  0  0  0  0  0  0
    5.7090   -0.8110   22.2850 N   0  0  0  0  0  0  0  0  0  0  0  0
    5.8970   -0.2250   21.0650 C   0  0  0  0  0  0  0  0  0  0  0  0
    5.9250   -0.0530   23.5610 C   0  0  1  0  0  0  0  0  0  0  0  0
    7.0510   -0.3070   20.3390 C   0  0  0  0  0  0  0  0  0  0  0  0
    5.0680    0.4880   20.3610 C   0  0  0  0  0  0  0  0  0  0  0  0
    7.1910    0.8820   23.6670 C   0  0  0  0  0  0  0  0  0  0  0  0
    4.6420    0.5420   24.1260 C   0  0  0  0  0  0  0  0  0  0  0  0
    6.9920    0.3200   19.1960 N   0  0  0  0  0  0  0  0  0  0  0  0
    5.7500    0.7720   19.2910 N   0  0  0  0  0  0  0  0  0  0  0  0
    7.2990    1.9530   23.0620 O   0  0  0  0  0  0  0  0  0  0  0  0
    8.1800    0.3960   24.5170 N   0  0  0  0  0  0  0  0  0  0  0  0
    3.3930   -0.2980   24.2380 C   0  0  0  0  0  0  0  0  0  0  0  0
    4.4960    1.8590   24.5920 C   0  0  0  0  0  0  0  0  0  0  0  0
    5.1190    1.4720   18.3690 C   0  0  0  0  0  0  0  0  0  0  0  0
    9.4250    1.0890   24.6750 C   0  0  0  0  0  0  0  0  0  0  0  0
    2.2070    0.1110   24.7330 N   0  0  0  0  0  0  0  0  0  0  0  0
    3.2590    2.2480   25.0920 C   0  0  0  0  0  0  0  0  0  0  0  0
    5.5660    2.9110   24.6080 C   0  0  0  0  0  0  0  0  0  0  0  0
    4.1570    0.5450   18.2630 C   0  0  0  0  0  0  0  0  0  0  0  0
    5.9010    1.4410   17.1570 C   0  0  0  0  0  0  0  0  0  0  0  0
    4.4730    2.7060   18.8550 C   0  0  0  0  0  0  0  0  0  0  0  0
   10.5860    0.3710   23.9250 C   0  0  0  0  0  0  0  0  0  0  0  0
    2.1750    1.3830   25.1470 C   0  0  0  0  0  0  0  0  0  0  0  0
    3.7940    3.7600   19.3990 N   0  0  0  0  0  0  0  0  0  0  0  0
   11.7690    1.1350   23.2780 C   0  0  0  0  0  0  0  0  0  0  0  0
   10.5790   -1.0520   23.8130 C   0  0  0  0  0  0  0  0  0  0  0  0
   11.9370    2.6780   23.2430 C   0  0  0  0  0  0  0  0  0  0  0  0
   12.7780    0.4070   22.6530 C   0  0  0  0  0  0  0  0  0  0  0  0
   11.6120   -1.7020   23.1520 C   0  0  0  0  0  0  0  0  0  0  0  0
    9.5750   -1.8300   24.3350 C   0  0  0  0  0  0  0  0  0  0  0  0
   12.6940   -1.0830   22.5770 C   0  0  0  0  0  0  0  0  0  0  0  0
    8.4960   -2.0410   23.3070 C   0  0  0  0  0  0  0  0  0  0  0  0
  1  2  1  0
  2  3  1  0
  3  4  2  0
  3  5  2  0
  3  6  1  0
  6  7  1  0
  6  8  1  0
  7  9  1  0
  7 10  2  0
  8 11  1  6
  8 12  1  0
  9 13  2  0
 10 14  1  0
 13 14  1  0
 11 15  2  0
 11 16  1  0
 12 17  2  0
 12 18  1  0
 14 19  1  0
 16 20  1  0
 17 21  1  0
 18 22  2  0
 18 23  1  0
 19 24  1  0
 19 25  1  0
 19 26  1  0
 20 27  1  0
 21 28  2  0
 22 28  1  0
 26 29  3  0
 27 30  2  0
 27 31  1  0
 30 32  1  0
 30 33  1  0
 31 34  2  0
 31 35  1  0
 33 36  2  0
 34 36  1  0
 35 37  1  0
M  END
