DAR-DIA-0cde14eb-27
     RDKit          3D

 28 31  0  0  0  0  0  0  0  0999 V2000
    4.9940    1.0110   21.9690 C   0  0  0  0  0  0  0  0  0  0  0  0
    5.3500    0.8470   20.5080 C   0  0  0  0  0  0  0  0  0  0  0  0
    4.6400    1.7020   19.5250 C   0  0  0  0  0  0  0  0  0  0  0  0
    6.2940   -0.0330   20.0070 C   0  0  0  0  0  0  0  0  0  0  0  0
    4.9580    1.5750   18.1930 C   0  0  0  0  0  0  0  0  0  0  0  0
    6.5080   -0.0550   18.6350 C   0  0  0  0  0  0  0  0  0  0  0  0
    7.0090   -0.8420   20.7720 N   0  0  0  0  0  0  0  0  0  0  0  0
    5.8730    0.7150   17.7170 N   0  0  0  0  0  0  0  0  0  0  0  0
    8.0310   -0.2260   21.4170 C   0  0  0  0  0  0  0  0  0  0  0  0
    8.4690    0.8860   21.1250 O   0  0  0  0  0  0  0  0  0  0  0  0
    8.5960   -0.8940   22.4650 C   0  0  2  0  0  0  0  0  0  0  0  0
    7.8400   -1.0620   23.7960 C   0  0  0  0  0  0  0  0  0  0  0  0
    9.8770   -0.1800   22.6460 C   0  0  0  0  0  0  0  0  0  0  0  0
   10.0910    1.3040   22.9430 C   0  0  0  0  0  0  0  0  0  0  0  0
   10.9810   -0.9340   22.5130 C   0  0  0  0  0  0  0  0  0  0  0  0
   11.3870    1.8370   23.0620 C   0  0  0  0  0  0  0  0  0  0  0  0
   12.2250   -0.4160   22.6370 C   0  0  0  0  0  0  0  0  0  0  0  0
   11.6120    3.2100   23.3160 N   0  0  0  0  0  0  0  0  0  0  0  0
   12.4640    0.9250   22.9070 C   0  0  0  0  0  0  0  0  0  0  0  0
   13.3110   -1.3750   22.4440 C   0  0  0  0  0  0  0  0  0  0  0  0
   10.6190    3.8970   23.9470 C   0  0  0  0  0  0  0  0  0  0  0  0
   12.5250    3.9750   22.4510 C   0  0  0  0  0  0  0  0  0  0  0  0
   13.7980   -1.4000   21.1510 F   0  0  0  0  0  0  0  0  0  0  0  0
   12.6800   -2.6420   22.5950 C   0  0  0  0  0  0  0  0  0  0  0  0
   13.6150   -2.5080   23.6330 C   0  0  0  0  0  0  0  0  0  0  0  0
   10.1460    5.0160   23.3800 C   0  0  0  0  0  0  0  0  0  0  0  0
   12.4800    5.2940   22.9090 C   0  0  0  0  0  0  0  0  0  0  0  0
   11.2390    5.9290   22.9950 C   0  0  0  0  0  0  0  0  0  0  0  0
  1  2  1  0
  2  3  2  0
  2  4  1  0
  3  5  1  0
  4  6  2  0
  4  7  1  0
  5  8  2  0
  6  8  1  0
  7  9  1  0
  9 10  2  0
  9 11  1  0
 11 12  1  1
 11 13  1  0
 13 14  2  0
 13 15  1  0
 14 16  1  0
 15 17  2  0
 16 18  1  0
 16 19  2  0
 17 19  1  0
 17 20  1  0
 18 21  1  0
 18 22  1  0
 20 23  1  0
 20 24  1  0
 20 25  1  0
 24 25  1  0
 21 26  1  0
 22 27  1  0
 26 28  1  0
 27 28  1  0
M  END
