DAR-DIA-2b784ede-35-nitrile
     RDKit          3D

 32 34  0  0  0  0  0  0  0  0999 V2000
    7.2020   -2.9880   19.4560 C   0  0  0  0  0  0  0  0  0  0  0  0
    5.9910   -3.3790   19.2170 N   0  0  0  0  0  0  0  0  0  0  0  0
    7.5600   -2.0780   20.5000 N   0  0  0  0  0  0  0  0  0  0  0  0
    7.8740   -0.6820   20.5380 C   0  0  0  0  0  0  0  0  0  0  0  0
    6.8140   -1.8770   21.6980 C   0  0  1  0  0  0  0  0  0  0  0  0
    8.7070   -0.2780   21.5710 C   0  0  0  0  0  0  0  0  0  0  0  0
    7.5410    0.4640   19.8690 N   0  0  0  0  0  0  0  0  0  0  0  0
    7.3670   -2.6890   22.8770 C   0  0  0  0  0  0  0  0  0  0  0  0
    5.8410   -0.7290   21.3940 C   0  0  0  0  0  0  0  0  0  0  0  0
    8.9270    1.0410   21.6190 C   0  0  0  0  0  0  0  0  0  0  0  0
    8.2190    1.5420   20.5440 O   0  0  0  0  0  0  0  0  0  0  0  0
    6.6980   -3.2360   23.7570 O   0  0  0  0  0  0  0  0  0  0  0  0
    8.7900   -2.6720   22.6950 N   0  0  0  0  0  0  0  0  0  0  0  0
    5.3650    0.2370   22.4440 C   0  0  0  0  0  0  0  0  0  0  0  0
    5.5210   -0.7020   19.9840 C   0  0  0  0  0  0  0  0  0  0  0  0
    9.7040    1.7430   22.5740 C   0  0  0  0  0  0  0  0  0  0  0  0
    9.7700   -1.9300   23.4480 C   0  0  0  0  0  0  0  0  0  0  0  0
    4.5750    1.2670   22.2150 N   0  0  0  0  0  0  0  0  0  0  0  0
    4.6880    0.4410   19.9540 C   0  0  0  0  0  0  0  0  0  0  0  0
    5.1000   -0.5110   18.6700 C   0  0  0  0  0  0  0  0  0  0  0  0
   11.0290    1.3710   22.8810 C   0  0  0  0  0  0  0  0  0  0  0  0
    9.7500    3.2280   22.2280 C   0  0  0  0  0  0  0  0  0  0  0  0
    8.9590    1.6370   23.8470 C   0  0  0  0  0  0  0  0  0  0  0  0
    9.3500   -1.2130   24.7590 C   0  0  0  0  0  0  0  0  0  0  0  0
   11.1580   -1.8220   23.0190 C   0  0  0  0  0  0  0  0  0  0  0  0
    4.2550    1.3370   20.9400 C   0  0  0  0  0  0  0  0  0  0  0  0
    7.8990   -1.2450   25.2940 C   0  0  0  0  0  0  0  0  0  0  0  0
   10.3140   -0.5170   25.4820 C   0  0  0  0  0  0  0  0  0  0  0  0
   12.0840   -1.1260   23.7680 C   0  0  0  0  0  0  0  0  0  0  0  0
   11.8910   -2.3540   21.8130 C   0  0  0  0  0  0  0  0  0  0  0  0
   11.7490   -0.5090   24.9180 C   0  0  0  0  0  0  0  0  0  0  0  0
   13.0710   -1.6850   21.5680 C   0  0  0  0  0  0  0  0  0  0  0  0
  1  2  2  3
  1  3  1  0
  3  4  1  0
  3  5  1  0
  4  6  1  0
  4  7  2  0
  5  8  1  1
  5  9  1  0
  6 10  2  0
  7 11  1  0
 10 11  1  0
  8 12  2  0
  8 13  1  0
  9 14  2  0
  9 15  1  0
 10 16  1  0
 13 17  1  0
 14 18  1  0
 15 19  2  0
 15 20  1  0
 16 21  1  0
 16 22  1  0
 16 23  1  0
 17 24  2  0
 17 25  1  0
 18 26  2  0
 19 26  1  0
 24 27  1  0
 24 28  1  0
 25 29  2  0
 25 30  1  0
 28 31  2  0
 29 31  1  0
 30 32  1  0
M  END
