DAR-DIA-2b784ede-49-nitrile
     RDKit          3D

 33 35  0  0  0  0  0  0  0  0999 V2000
    6.8670   -3.1570   19.5780 C   0  0  0  0  0  0  0  0  0  0  0  0
    5.7890   -3.8740   19.6780 N   0  0  0  0  0  0  0  0  0  0  0  0
    6.9280   -1.8170   20.0060 N   0  0  0  0  0  0  0  0  0  0  0  0
    6.2290   -0.6610   19.3300 C   0  0  0  0  0  0  0  0  0  0  0  0
    7.5020   -1.5130   21.3600 C   0  0  1  0  0  0  0  0  0  0  0  0
    5.2320    0.2500   20.1100 C   0  0  0  0  0  0  0  0  0  0  0  0
    6.3000   -0.1810   18.0430 N   0  0  0  0  0  0  0  0  0  0  0  0
    8.5610   -2.5050   21.9620 C   0  0  0  0  0  0  0  0  0  0  0  0
    7.6110   -0.0280   21.7070 C   0  0  0  0  0  0  0  0  0  0  0  0
    4.9200    1.1710   18.9650 C   0  0  0  0  0  0  0  0  0  0  0  0
    5.5270    0.9310   17.7520 N   0  0  0  0  0  0  0  0  0  0  0  0
    7.8990   -3.4220   22.6670 O   0  0  0  0  0  0  0  0  0  0  0  0
    9.9880   -2.4670   21.7800 N   0  0  0  0  0  0  0  0  0  0  0  0
    7.5480    0.5420   23.1350 C   0  0  0  0  0  0  0  0  0  0  0  0
    7.7720    0.8930   20.6850 C   0  0  0  0  0  0  0  0  0  0  0  0
    3.9170    2.2520   19.4830 C   0  0  0  0  0  0  0  0  0  0  0  0
   10.8870   -1.8320   22.7060 C   0  0  0  0  0  0  0  0  0  0  0  0
    7.6760    2.0500   23.2890 C   0  0  0  0  0  0  0  0  0  0  0  0
    7.8990    2.2270   20.8040 N   0  0  0  0  0  0  0  0  0  0  0  0
    4.8170    3.0160   20.4540 C   0  0  0  0  0  0  0  0  0  0  0  0
    3.3660    3.2390   18.4650 C   0  0  0  0  0  0  0  0  0  0  0  0
    2.7670    1.6100   20.2620 C   0  0  0  0  0  0  0  0  0  0  0  0
   12.2300   -1.4610   22.4180 C   0  0  0  0  0  0  0  0  0  0  0  0
   10.3650   -1.5790   23.9860 C   0  0  0  0  0  0  0  0  0  0  0  0
    7.8570    2.8100   22.0110 C   0  0  0  0  0  0  0  0  0  0  0  0
   12.8300   -1.7790   21.2210 C   0  0  0  0  0  0  0  0  0  0  0  0
   12.9620   -0.7790   23.3890 C   0  0  0  0  0  0  0  0  0  0  0  0
   11.1050   -0.9060   24.9350 C   0  0  0  0  0  0  0  0  0  0  0  0
    9.0170   -2.0060   24.4980 C   0  0  0  0  0  0  0  0  0  0  0  0
   13.7870   -0.9250   20.7960 O   0  0  0  0  0  0  0  0  0  0  0  0
   12.3600   -0.4660   24.7440 C   0  0  0  0  0  0  0  0  0  0  0  0
    8.8160   -3.4680   24.1470 C   0  0  0  0  0  0  0  0  0  0  0  0
    7.9360   -1.1760   23.8540 C   0  0  0  0  0  0  0  0  0  0  0  0
  1  2  2  3
  1  3  1  0
  3  4  1  0
  3  5  1  0
  4  6  2  0
  4  7  1  0
  5  8  1  6
  5  9  1  0
  6 10  1  0
  7 11  1  0
 10 11  2  0
  8 12  2  0
  8 13  1  0
  9 14  2  0
  9 15  1  0
 10 16  1  0
 13 17  1  0
 14 18  1  0
 15 19  2  0
 16 20  1  0
 16 21  1  0
 16 22  1  0
 17 23  2  0
 17 24  1  0
 18 25  2  0
 19 25  1  0
 23 26  1  0
 23 27  1  0
 24 28  2  0
 24 29  1  0
 26 30  1  0
 27 31  2  0
 28 31  1  0
 29 32  1  0
 29 33  1  0
M  END
