DAR-DIA-2b784ede-16-nitrile
     RDKit          3D

 35 38  0  0  0  0  0  0  0  0999 V2000
    6.3730   -4.1090   20.0350 C   0  0  0  0  0  0  0  0  0  0  0  0
    5.1670   -4.0490   19.6510 N   0  0  0  0  0  0  0  0  0  0  0  0
    7.1130   -2.9690   20.3780 N   0  0  0  0  0  0  0  0  0  0  0  0
    7.2970   -2.0910   19.3090 C   0  0  0  0  0  0  0  0  0  0  0  0
    7.1770   -2.2360   21.6730 C   0  0  1  0  0  0  0  0  0  0  0  0
    7.0780   -0.7020   19.2720 C   0  0  0  0  0  0  0  0  0  0  0  0
    7.7340   -2.6330   18.1850 C   0  0  0  0  0  0  0  0  0  0  0  0
    8.5340   -1.4380   21.7030 C   0  0  0  0  0  0  0  0  0  0  0  0
    6.0770   -1.1830   21.8890 C   0  0  0  0  0  0  0  0  0  0  0  0
    7.3370   -0.0030   18.0970 C   0  0  0  0  0  0  0  0  0  0  0  0
    7.9860   -2.0010   17.0750 C   0  0  0  0  0  0  0  0  0  0  0  0
    8.4990   -0.2000   21.7320 O   0  0  0  0  0  0  0  0  0  0  0  0
    9.7280   -2.0940   21.7000 N   0  0  0  0  0  0  0  0  0  0  0  0
    5.4320   -0.5810   20.7930 C   0  0  0  0  0  0  0  0  0  0  0  0
    5.6470   -0.7300   23.1620 C   0  0  0  0  0  0  0  0  0  0  0  0
    7.8200   -0.7040   16.9790 C   0  0  0  0  0  0  0  0  0  0  0  0
   10.6540   -1.7080   22.7470 C   0  0  0  0  0  0  0  0  0  0  0  0
    4.4750    0.3770   20.8410 N   0  0  0  0  0  0  0  0  0  0  0  0
    4.6620    0.2600   23.2100 C   0  0  0  0  0  0  0  0  0  0  0  0
    6.1730   -1.2340   24.4820 C   0  0  0  0  0  0  0  0  0  0  0  0
    8.1240   -0.1750   15.8160 C   0  0  0  0  0  0  0  0  0  0  0  0
   10.1750   -1.3980   24.0560 C   0  0  0  0  0  0  0  0  0  0  0  0
   12.0670   -1.6170   22.4940 C   0  0  0  0  0  0  0  0  0  0  0  0
    4.1110    0.7820   22.0610 C   0  0  0  0  0  0  0  0  0  0  0  0
    9.6880   -0.0660   14.9710 Cl  0  0  0  0  0  0  0  0  0  0  0  0
    7.4820   -0.3610   14.6800 C   0  0  0  0  0  0  0  0  0  0  0  0
    8.0050    1.1910   15.6590 C   0  0  0  0  0  0  0  0  0  0  0  0
    8.7180   -1.4560   24.4410 C   0  0  0  0  0  0  0  0  0  0  0  0
   11.0690   -1.0140   25.0520 C   0  0  0  0  0  0  0  0  0  0  0  0
   12.8730   -1.2370   23.5460 C   0  0  0  0  0  0  0  0  0  0  0  0
   12.8000   -1.8690   21.2050 C   0  0  0  0  0  0  0  0  0  0  0  0
    8.6260    0.1780   13.7730 C   0  0  0  0  0  0  0  0  0  0  0  0
    9.2780    0.6710   14.8880 C   0  0  0  0  0  0  0  0  0  0  0  0
   12.4090   -0.9410   24.7940 C   0  0  0  0  0  0  0  0  0  0  0  0
   13.2310   -3.2560   20.9530 C   0  0  0  0  0  0  0  0  0  0  0  0
  1  2  2  3
  1  3  1  0
  3  4  1  0
  3  5  1  0
  4  6  2  0
  4  7  1  0
  5  8  1  6
  5  9  1  0
  6 10  1  0
  7 11  2  0
  8 12  2  0
  8 13  1  0
  9 14  2  0
  9 15  1  0
 10 16  2  0
 11 16  1  0
 13 17  1  0
 14 18  1  0
 15 19  2  0
 15 20  1  0
 16 21  1  0
 17 22  2  0
 17 23  1  0
 18 24  2  0
 19 24  1  0
 21 25  1  0
 21 26  1  0
 21 27  1  0
 22 28  1  0
 22 29  1  0
 23 30  2  0
 23 31  1  0
 26 32  1  0
 27 33  1  0
 32 33  1  0
 29 34  2  0
 30 34  1  0
 31 35  1  0
M  END
