DAR-DIA-2b784ede-10-vinylsulfonamide
     RDKit          3D

 35 37  0  0  0  0  0  0  0  0999 V2000
    8.4090   -4.4150   21.0520 C   0  0  0  0  0  0  0  0  0  0  0  0
    6.9920   -4.2370   21.5210 C   0  0  0  0  0  0  0  0  0  0  0  0
    6.3050   -2.6130   21.3700 S   0  0  0  0  0  0  0  0  0  0  0  0
    4.7980   -3.0850   21.4690 O   0  0  0  0  0  0  0  0  0  0  0  0
    6.6460   -2.1640   20.0570 O   0  0  0  0  0  0  0  0  0  0  0  0
    7.1580   -1.3960   22.4950 N   0  0  0  0  0  0  0  0  0  0  0  0
    8.6580   -1.1400   22.6930 C   0  0  0  0  0  0  0  0  0  0  0  0
    6.5650   -0.0330   22.2820 C   0  0  1  0  0  0  0  0  0  0  0  0
    9.2450   -0.4630   23.7860 C   0  0  0  0  0  0  0  0  0  0  0  0
    9.5780   -1.5440   21.7840 C   0  0  0  0  0  0  0  0  0  0  0  0
    7.2530    1.0860   23.1580 C   0  0  0  0  0  0  0  0  0  0  0  0
    6.1300    0.3290   20.7840 C   0  0  0  0  0  0  0  0  0  0  0  0
   10.6610   -0.2280   23.8980 C   0  0  0  0  0  0  0  0  0  0  0  0
   11.0360   -1.2910   21.9270 C   0  0  0  0  0  0  0  0  0  0  0  0
    8.3830    1.5300   22.9480 O   0  0  0  0  0  0  0  0  0  0  0  0
    6.4370    1.5440   24.1630 N   0  0  0  0  0  0  0  0  0  0  0  0
    6.6670   -0.2230   19.4220 C   0  0  0  0  0  0  0  0  0  0  0  0
    5.1080    1.2810   20.5680 C   0  0  0  0  0  0  0  0  0  0  0  0
   11.6120   -0.6440   22.9440 C   0  0  0  0  0  0  0  0  0  0  0  0
    5.8420    0.7350   25.1680 C   0  0  0  0  0  0  0  0  0  0  0  0
    6.2340    0.1470   18.1800 N   0  0  0  0  0  0  0  0  0  0  0  0
    4.7260    1.5920   19.2790 C   0  0  0  0  0  0  0  0  0  0  0  0
    4.3780    2.0140   21.6460 C   0  0  0  0  0  0  0  0  0  0  0  0
   13.1140   -0.4940   22.8750 C   0  0  0  0  0  0  0  0  0  0  0  0
    4.3180    0.6540   25.0720 C   0  0  0  0  0  0  0  0  0  0  0  0
    6.5060    0.0290   26.2090 C   0  0  0  0  0  0  0  0  0  0  0  0
    5.2580    1.0590   18.1370 C   0  0  0  0  0  0  0  0  0  0  0  0
   13.4500   -1.2490   21.6350 C   0  0  0  0  0  0  0  0  0  0  0  0
    3.5290    1.4080   23.9830 C   0  0  0  0  0  0  0  0  0  0  0  0
    3.6020   -0.1210   25.9990 C   0  0  0  0  0  0  0  0  0  0  0  0
    5.7300   -0.7200   27.0940 C   0  0  0  0  0  0  0  0  0  0  0  0
    7.8790    0.0420   26.4070 C   0  0  0  0  0  0  0  0  0  0  0  0
   13.6450   -1.7600   20.6650 N   0  0  0  0  0  0  0  0  0  0  0  0
    4.3440   -0.8690   27.0930 C   0  0  0  0  0  0  0  0  0  0  0  0
    8.6380   -1.2610   26.2720 C   0  0  0  0  0  0  0  0  0  0  0  0
  1  2  1  0
  2  3  1  0
  3  4  2  0
  3  5  2  0
  3  6  1  0
  6  7  1  0
  6  8  1  0
  7  9  2  0
  7 10  1  0
  8 11  1  6
  8 12  1  0
  9 13  1  0
 10 14  2  0
 11 15  2  0
 11 16  1  0
 12 17  2  0
 12 18  1  0
 13 19  2  0
 14 19  1  0
 16 20  1  0
 17 21  1  0
 18 22  2  0
 18 23  1  0
 19 24  1  0
 20 25  2  0
 20 26  1  0
 21 27  2  0
 22 27  1  0
 24 28  1  0
 25 29  1  0
 25 30  1  0
 26 31  2  0
 26 32  1  0
 28 33  3  0
 30 34  2  0
 31 34  1  0
 32 35  1  0
M  END
