DAR-DIA-eace69ff-33
     RDKit          3D

 19 21  0  0  0  0  0  0  0  0999 V2000
   12.1770    5.7080   24.5300 C   0  0  0  0  0  0  0  0  0  0  0  0
   12.0780    5.2340   23.1680 N   0  0  0  0  0  0  0  0  0  0  0  0
   10.7670    5.5480   22.6510 C   0  0  0  0  0  0  0  0  0  0  0  0
   12.7470    3.9570   22.7920 C   0  0  0  0  0  0  0  0  0  0  0  0
   11.9320    2.6750   23.1310 C   0  0  0  0  0  0  0  0  0  0  0  0
   10.5950    2.9780   23.7430 C   0  0  0  0  0  0  0  0  0  0  0  0
   12.0180    1.2200   23.0510 C   0  0  0  0  0  0  0  0  0  0  0  0
    9.8790    1.7540   24.0260 N   0  0  0  0  0  0  0  0  0  0  0  0
   10.7920    0.6900   23.5750 C   0  0  0  0  0  0  0  0  0  0  0  0
   12.9520    0.2860   22.6040 C   0  0  0  0  0  0  0  0  0  0  0  0
   10.4170   -0.6580   23.6820 C   0  0  0  0  0  0  0  0  0  0  0  0
   12.6950   -1.0820   22.6440 C   0  0  0  0  0  0  0  0  0  0  0  0
    9.1870   -1.0750   24.2050 C   0  0  0  0  0  0  0  0  0  0  0  0
   11.3500   -1.5790   23.2170 C   0  0  0  0  0  0  0  0  0  0  0  0
   13.5780   -1.9540   22.1970 F   0  0  0  0  0  0  0  0  0  0  0  0
    8.5220   -2.2150   23.7660 C   0  0  0  0  0  0  0  0  0  0  0  0
    8.3570   -0.3900   25.3120 C   0  0  0  0  0  0  0  0  0  0  0  0
    7.3570   -2.3530   24.4530 C   0  0  0  0  0  0  0  0  0  0  0  0
    7.2760   -1.2960   25.3380 C   0  0  0  0  0  0  0  0  0  0  0  0
  1  2  1  0
  2  3  1  0
  2  4  1  0
  4  5  1  0
  5  6  2  0
  5  7  1  0
  6  8  1  0
  7  9  2  0
  8  9  1  0
  7 10  1  0
  9 11  1  0
 10 12  2  0
 11 13  1  0
 11 14  2  0
 12 14  1  0
 12 15  1  0
 13 16  2  0
 13 17  1  0
 16 18  1  0
 17 19  1  0
 18 19  2  0
M  END
