DAR-DIA-43a5904b-1
     RDKit          3D

 22 24  0  0  0  0  0  0  0  0999 V2000
   10.2330    3.0250   22.2850 N   0  0  0  0  0  0  0  0  0  0  0  0
    9.3820    1.9580   22.2730 C   0  0  0  0  0  0  0  0  0  0  0  0
    8.8680    1.6210   21.2050 O   0  0  0  0  0  0  0  0  0  0  0  0
    9.1170    1.3030   23.6100 C   0  0  1  0  0  0  0  0  0  0  0  0
    7.5750    1.2790   23.6250 C   0  0  0  0  0  0  0  0  0  0  0  0
    9.4440   -0.2520   23.7050 C   0  0  1  0  0  0  0  0  0  0  0  0
    7.2720   -0.0900   23.0920 C   0  0  0  0  0  0  0  0  0  0  0  0
    8.3540   -0.9290   23.1330 C   0  0  0  0  0  0  0  0  0  0  0  0
   10.6710   -0.8150   23.3970 C   0  0  0  0  0  0  0  0  0  0  0  0
    5.8860   -0.3530   22.5940 C   0  0  0  0  0  0  0  0  0  0  0  0
   11.0780   -1.0530   22.0890 C   0  0  0  0  0  0  0  0  0  0  0  0
   11.5180   -1.1940   24.4170 C   0  0  0  0  0  0  0  0  0  0  0  0
    5.3100   -1.5900   22.8190 C   0  0  0  0  0  0  0  0  0  0  0  0
   12.3080   -1.6590   21.8100 C   0  0  0  0  0  0  0  0  0  0  0  0
   12.7110   -1.8060   24.1320 C   0  0  0  0  0  0  0  0  0  0  0  0
    4.7600   -1.9280   24.0560 C   0  0  0  0  0  0  0  0  0  0  0  0
    5.2560   -2.5630   21.7860 C   0  0  0  0  0  0  0  0  0  0  0  0
   13.1110   -2.0360   22.8500 C   0  0  0  0  0  0  0  0  0  0  0  0
   13.7050   -2.3300   25.4150 Cl  0  0  0  0  0  0  0  0  0  0  0  0
    4.1830   -3.1690   24.2620 C   0  0  0  0  0  0  0  0  0  0  0  0
    4.6630   -3.8700   21.9460 N   0  0  0  0  0  0  0  0  0  0  0  0
    4.1440   -4.1590   23.1580 C   0  0  0  0  0  0  0  0  0  0  0  0
  1  2  1  0
  2  3  2  0
  4  2  1  6
  4  5  1  0
  4  6  1  0
  5  7  1  0
  6  8  1  0
  7  8  2  0
  6  9  1  6
  7 10  1  0
  9 11  2  0
  9 12  1  0
 10 13  1  0
 11 14  1  0
 12 15  2  0
 13 16  2  0
 13 17  1  0
 14 18  2  0
 15 18  1  0
 15 19  1  0
 16 20  1  0
 17 21  2  0
 20 22  2  0
 21 22  1  0
M  END
