DAR-DIA-0cde14eb-24
     RDKit          3D

 28 31  0  0  0  0  0  0  0  0999 V2000
    4.3190    0.8790   21.5170 C   0  0  0  0  0  0  0  0  0  0  0  0
    4.9760    0.7710   20.1660 C   0  0  0  0  0  0  0  0  0  0  0  0
    4.5120    1.6800   19.0900 C   0  0  0  0  0  0  0  0  0  0  0  0
    5.9890   -0.1080   19.8370 C   0  0  0  0  0  0  0  0  0  0  0  0
    5.1150    1.5920   17.8550 C   0  0  0  0  0  0  0  0  0  0  0  0
    6.5000   -0.0860   18.5600 C   0  0  0  0  0  0  0  0  0  0  0  0
    6.5140   -0.9750   20.6690 N   0  0  0  0  0  0  0  0  0  0  0  0
    6.1080    0.7250   17.5540 N   0  0  0  0  0  0  0  0  0  0  0  0
    7.7290   -0.6800   21.1550 C   0  0  0  0  0  0  0  0  0  0  0  0
    8.3230    0.3920   21.0160 O   0  0  0  0  0  0  0  0  0  0  0  0
    8.2370   -1.8100   21.8860 N   0  0  0  0  0  0  0  0  0  0  0  0
    9.2290   -1.1860   22.6840 C   0  0  0  0  0  0  0  0  0  0  0  0
    8.7520   -0.4160   23.8840 C   0  0  0  0  0  0  0  0  0  0  0  0
   10.5020   -1.2920   22.3500 C   0  0  0  0  0  0  0  0  0  0  0  0
    9.7620    0.2610   24.7350 C   0  0  0  0  0  0  0  0  0  0  0  0
   11.4010   -0.6630   23.1460 C   0  0  0  0  0  0  0  0  0  0  0  0
    9.2260    0.9970   25.9030 N   0  0  0  0  0  0  0  0  0  0  0  0
   11.0850    0.1010   24.3040 C   0  0  0  0  0  0  0  0  0  0  0  0
   12.6070   -0.8200   22.7690 C   0  0  0  0  0  0  0  0  0  0  0  0
    7.9710    1.7490   25.5860 C   0  0  0  0  0  0  0  0  0  0  0  0
    9.1700    0.3490   27.2170 C   0  0  0  0  0  0  0  0  0  0  0  0
   12.9580   -1.8470   21.7260 C   0  0  0  0  0  0  0  0  0  0  0  0
   13.4820    0.3420   23.0420 C   0  0  0  0  0  0  0  0  0  0  0  0
   13.4290   -0.8790   23.9950 C   0  0  0  0  0  0  0  0  0  0  0  0
    7.3110    2.0650   26.7750 C   0  0  0  0  0  0  0  0  0  0  0  0
    7.8810   -0.1860   27.2680 C   0  0  0  0  0  0  0  0  0  0  0  0
   13.1730   -2.6680   20.9470 N   0  0  0  0  0  0  0  0  0  0  0  0
    6.9420    0.8160   27.5010 C   0  0  0  0  0  0  0  0  0  0  0  0
  1  2  1  0
  2  3  2  0
  2  4  1  0
  3  5  1  0
  4  6  2  0
  4  7  1  0
  5  8  2  0
  6  8  1  0
  7  9  1  0
  9 10  2  0
  9 11  1  0
 11 12  1  0
 12 13  2  0
 12 14  1  0
 13 15  1  0
 14 16  2  0
 15 17  1  0
 15 18  2  0
 16 18  1  0
 16 19  1  0
 17 20  1  0
 17 21  1  0
 19 22  1  0
 19 23  1  0
 19 24  1  0
 23 24  1  0
 20 25  1  0
 21 26  1  0
 22 27  3  0
 25 28  1  0
 26 28  1  0
M  END
