DAR-DIA-842b4336-5-vinylsulfonamide
     RDKit          3D

 20 21  0  0  0  0  0  0  0  0999 V2000
    6.5050   -3.8760   19.6650 C   0  0  0  0  0  0  0  0  0  0  0  0
    6.9980   -3.0110   20.7770 C   0  0  0  0  0  0  0  0  0  0  0  0
    6.2600   -3.5890   22.2590 S   0  0  0  0  0  0  0  0  0  0  0  0
    4.8650   -3.9730   21.9930 O   0  0  0  0  0  0  0  0  0  0  0  0
    7.1960   -4.5620   22.8150 O   0  0  0  0  0  0  0  0  0  0  0  0
    6.2640   -2.1180   23.2720 C   0  0  0  0  0  0  0  0  0  0  0  0
    7.4750   -1.1300   23.4650 C   0  0  0  0  0  0  0  0  0  0  0  0
    4.8930   -1.6370   24.1550 S   0  0  0  0  0  0  0  0  0  0  0  0
    7.2680    0.0690   24.4020 C   0  0  0  0  0  0  0  0  0  0  0  0
    6.0250   -0.4660   24.5360 C   0  0  0  0  0  0  0  0  0  0  0  0
    6.4750   -1.3430   23.5810 N   0  0  0  0  0  0  0  0  0  0  0  0
    6.5210   -0.8660   22.2270 C   0  0  0  0  0  0  0  0  0  0  0  0
    7.5380   -0.4640   21.6560 O   0  0  0  0  0  0  0  0  0  0  0  0
    5.1830   -0.8830   21.5640 N   0  0  0  0  0  0  0  0  0  0  0  0
    5.1900   -0.1430   20.3910 C   0  0  0  0  0  0  0  0  0  0  0  0
    4.2420    0.9880   20.1190 C   0  0  0  0  0  0  0  0  0  0  0  0
    6.1050   -0.4160   19.3610 C   0  0  0  0  0  0  0  0  0  0  0  0
    4.2700    1.7860   18.8130 C   0  0  0  0  0  0  0  0  0  0  0  0
    6.1310    0.3670   18.0770 N   0  0  0  0  0  0  0  0  0  0  0  0
    5.2060    1.4010   17.9240 C   0  0  0  0  0  0  0  0  0  0  0  0
  1  2  1  0
  3  2  1  0
  3  4  2  0
  3  5  2  0
  3  6  1  0
  6  7  2  0
  6  8  1  0
  7  9  1  0
  8 10  1  0
  9 10  2  0
 10 11  1  0
 11 12  1  0
 12 13  2  0
 12 14  1  0
 14 15  1  0
 15 16  2  0
 15 17  1  0
 16 18  1  0
 17 19  2  0
 18 20  2  0
 19 20  1  0
M  END
