DAR-DIA-fb20be43-9-nitrile
     RDKit          3D

 23 25  0  0  0  0  0  0  0  0999 V2000
    6.9940   -3.4490   19.6920 C   0  0  0  0  0  0  0  0  0  0  0  0
    6.5230   -2.9740   18.6190 N   0  0  0  0  0  0  0  0  0  0  0  0
    6.9630   -2.7100   20.8520 N   0  0  0  0  0  0  0  0  0  0  0  0
    7.7350   -1.4670   20.8770 C   0  0  0  0  0  0  0  0  0  0  0  0
    6.5160   -3.1580   22.1770 C   0  0  0  0  0  0  0  0  0  0  0  0
    8.9490   -1.6610   21.7960 C   0  0  0  0  0  0  0  0  0  0  0  0
    7.7460   -3.3800   23.0840 C   0  0  0  0  0  0  0  0  0  0  0  0
    8.5580   -2.1470   23.1370 N   0  0  0  0  0  0  0  0  0  0  0  0
    9.7270   -2.2830   24.0310 C   0  0  0  0  0  0  0  0  0  0  0  0
   10.8770   -1.3730   23.6180 C   0  0  0  0  0  0  0  0  0  0  0  0
   12.1170   -1.9540   23.0050 C   0  0  0  0  0  0  0  0  0  0  0  0
   10.7930    0.0270   23.7840 C   0  0  0  0  0  0  0  0  0  0  0  0
   13.1360   -1.0850   22.6230 C   0  0  0  0  0  0  0  0  0  0  0  0
   11.8610    0.8410   23.3560 C   0  0  0  0  0  0  0  0  0  0  0  0
    9.5910    0.7470   24.4020 C   0  0  0  0  0  0  0  0  0  0  0  0
   13.0070    0.2780   22.7980 C   0  0  0  0  0  0  0  0  0  0  0  0
   11.7800    2.2620   23.4730 C   0  0  0  0  0  0  0  0  0  0  0  0
    9.5580    2.1300   24.4940 C   0  0  0  0  0  0  0  0  0  0  0  0
   10.6500    2.8950   24.0140 C   0  0  0  0  0  0  0  0  0  0  0  0
   10.6270    4.6870   24.0500 S   0  0  0  0  0  0  0  0  0  0  0  0
   10.7740    5.1020   22.4330 N   0  0  0  0  0  0  0  0  0  0  0  0
    9.3160    5.1340   24.4620 O   0  0  0  0  0  0  0  0  0  0  0  0
   11.8310    5.2090   24.6430 O   0  0  0  0  0  0  0  0  0  0  0  0
  1  2  2  3
  1  3  1  0
  3  4  1  0
  3  5  1  0
  4  6  1  0
  5  7  1  0
  6  8  1  0
  7  8  1  0
  8  9  1  0
  9 10  1  0
 10 11  2  0
 10 12  1  0
 11 13  1  0
 12 14  2  0
 12 15  1  0
 13 16  2  0
 14 16  1  0
 14 17  1  0
 15 18  2  0
 17 19  2  0
 18 19  1  0
 19 20  1  0
 20 21  1  0
 20 22  2  0
 20 23  2  0
M  END
