DAR-DIA-caba39e3-10-vinylsulfonamide
     RDKit          3D

 31 34  0  0  0  0  0  0  0  0999 V2000
    7.5160   -2.8820   18.6790 C   0  0  0  0  0  0  0  0  0  0  0  0
    6.2450   -3.1890   19.4000 C   0  0  0  0  0  0  0  0  0  0  0  0
    6.4270   -3.8890   21.0040 S   0  0  0  0  0  0  0  0  0  0  0  0
    5.2150   -4.5140   21.3750 O   0  0  0  0  0  0  0  0  0  0  0  0
    7.6290   -4.6110   21.3290 O   0  0  0  0  0  0  0  0  0  0  0  0
    6.5310   -2.5280   21.8710 N   0  0  0  0  0  0  0  0  0  0  0  0
    6.0580   -2.5890   23.1460 C   0  0  0  0  0  0  0  0  0  0  0  0
    7.7980   -1.8150   21.7610 C   0  0  0  0  0  0  0  0  0  0  0  0
    7.0450   -3.3010   24.0080 C   0  0  0  0  0  0  0  0  0  0  0  0
    8.9050   -2.4310   22.6520 C   0  0  2  0  0  0  0  0  0  0  0  0
    6.5000   -4.1340   25.1580 C   0  0  0  0  0  0  0  0  0  0  0  0
    8.4040   -3.1780   23.7330 C   0  0  0  0  0  0  0  0  0  0  0  0
    9.7610   -1.3360   22.9220 C   0  0  0  0  0  0  0  0  0  0  0  0
    7.4790   -4.8630   26.0540 C   0  0  0  0  0  0  0  0  0  0  0  0
    9.4460   -3.8690   24.6050 C   0  0  0  0  0  0  0  0  0  0  0  0
   11.0830   -1.3980   22.4890 C   0  0  0  0  0  0  0  0  0  0  0  0
    9.2690   -0.1850   23.6160 C   0  0  0  0  0  0  0  0  0  0  0  0
    8.9570   -4.7300   25.7800 C   0  0  0  0  0  0  0  0  0  0  0  0
   11.9740   -0.3850   22.7010 C   0  0  0  0  0  0  0  0  0  0  0  0
   10.1270    0.8890   23.8580 C   0  0  0  0  0  0  0  0  0  0  0  0
    7.9460   -0.0580   24.0740 C   0  0  0  0  0  0  0  0  0  0  0  0
   13.0930   -0.4500   22.3230 O   0  0  0  0  0  0  0  0  0  0  0  0
   11.4160    0.8140   23.4390 C   0  0  0  0  0  0  0  0  0  0  0  0
    9.5940    2.1130   24.5720 C   0  0  0  0  0  0  0  0  0  0  0  0
    7.4300    1.0680   24.7410 C   0  0  0  0  0  0  0  0  0  0  0  0
   13.4960    0.7910   22.7630 C   0  0  0  0  0  0  0  0  0  0  0  0
    8.2420    2.1760   24.9960 C   0  0  0  0  0  0  0  0  0  0  0  0
    7.5770    3.5940   25.8140 S   0  0  0  0  0  0  0  0  0  0  0  0
    6.4130    4.0990   24.7050 N   0  0  0  0  0  0  0  0  0  0  0  0
    6.8870    3.1760   27.0120 O   0  0  0  0  0  0  0  0  0  0  0  0
    8.5630    4.6530   25.8190 O   0  0  0  0  0  0  0  0  0  0  0  0
  1  2  1  0
  3  2  1  0
  3  4  2  0
  3  5  2  0
  3  6  1  0
  6  7  1  0
  6  8  1  0
  7  9  1  0
  8 10  1  0
  9 11  1  0
  9 12  2  0
 10 12  1  0
 10 13  1  1
 11 14  2  0
 12 15  1  0
 13 16  2  0
 13 17  1  0
 14 18  1  0
 15 18  2  0
 16 19  1  0
 17 20  2  0
 17 21  1  0
 19 22  1  0
 19 23  2  0
 20 23  1  0
 20 24  1  0
 21 25  2  0
 22 26  1  0
 24 27  2  0
 25 27  1  0
 27 28  1  0
 28 29  1  0
 28 30  2  0
 28 31  2  0
M  END
