DAR-DIA-2b784ede-45-vinylsulfonamide
     RDKit          3D

 34 36  0  0  0  0  0  0  0  0999 V2000
    6.3080   -4.6050   19.8570 C   0  0  0  0  0  0  0  0  0  0  0  0
    6.6740   -3.9700   21.1250 C   0  0  0  0  0  0  0  0  0  0  0  0
    5.6460   -2.6100   20.9030 S   0  0  0  0  0  0  0  0  0  0  0  0
    4.7010   -3.0610   19.9120 O   0  0  0  0  0  0  0  0  0  0  0  0
    5.2490   -2.2320   22.2170 O   0  0  0  0  0  0  0  0  0  0  0  0
    6.7220   -1.5040   20.2550 N   0  0  0  0  0  0  0  0  0  0  0  0
    6.1430   -0.4190   19.4520 C   0  0  0  0  0  0  0  0  0  0  0  0
    8.0180   -1.2660   20.9670 C   0  0  2  0  0  0  0  0  0  0  0  0
    5.1650    0.3430   20.2980 C   0  0  0  0  0  0  0  0  0  0  0  0
    6.1420    0.2430   18.1030 N   0  0  0  0  0  0  0  0  0  0  0  0
    8.6100   -2.2780   21.9730 C   0  0  0  0  0  0  0  0  0  0  0  0
    8.2090    0.2140   21.3650 C   0  0  0  0  0  0  0  0  0  0  0  0
    4.7050    1.3620   19.4020 C   0  0  0  0  0  0  0  0  0  0  0  0
    5.2900    1.3150   18.0420 N   0  0  0  0  0  0  0  0  0  0  0  0
    7.7860   -3.0070   22.9050 O   0  0  0  0  0  0  0  0  0  0  0  0
    9.9940   -2.4750   21.9560 N   0  0  0  0  0  0  0  0  0  0  0  0
    7.2070    1.3030   21.1720 C   0  0  0  0  0  0  0  0  0  0  0  0
    9.4140    0.6440   21.9600 C   0  0  0  0  0  0  0  0  0  0  0  0
    3.7180    2.1880   20.1880 C   0  0  0  0  0  0  0  0  0  0  0  0
   10.6910   -1.4880   22.6980 C   0  0  0  0  0  0  0  0  0  0  0  0
    7.4900    2.7530   21.5950 C   0  0  0  0  0  0  0  0  0  0  0  0
    9.7350    1.9220   22.3650 N   0  0  0  0  0  0  0  0  0  0  0  0
    4.4600    2.3990   21.5490 C   0  0  0  0  0  0  0  0  0  0  0  0
    2.6290    1.2310   20.5730 C   0  0  0  0  0  0  0  0  0  0  0  0
    3.0450    3.6870   19.4510 Cl  0  0  0  0  0  0  0  0  0  0  0  0
   10.0010   -0.8480   23.7540 C   0  0  0  0  0  0  0  0  0  0  0  0
   12.0410   -1.1450   22.3760 C   0  0  0  0  0  0  0  0  0  0  0  0
    8.8610    2.9280   22.2090 C   0  0  0  0  0  0  0  0  0  0  0  0
    8.7110   -1.2070   24.1060 C   0  0  0  0  0  0  0  0  0  0  0  0
   10.6570    0.1720   24.4440 C   0  0  0  0  0  0  0  0  0  0  0  0
   12.6670   -0.1320   23.0740 C   0  0  0  0  0  0  0  0  0  0  0  0
   12.9780   -1.7350   21.3400 C   0  0  0  0  0  0  0  0  0  0  0  0
   12.0810    0.5640   24.0710 C   0  0  0  0  0  0  0  0  0  0  0  0
   12.4040   -2.8340   20.6490 O   0  0  0  0  0  0  0  0  0  0  0  0
  1  2  1  0
  2  3  1  0
  3  4  2  0
  3  5  2  0
  3  6  1  0
  6  7  1  0
  6  8  1  0
  7  9  2  0
  7 10  1  0
  8 11  1  1
  8 12  1  0
  9 13  1  0
 10 14  1  0
 13 14  2  0
 11 15  2  0
 11 16  1  0
 12 17  2  0
 12 18  1  0
 13 19  1  0
 16 20  1  0
 17 21  1  0
 18 22  2  0
 19 23  1  0
 19 24  1  0
 19 25  1  0
 20 26  2  0
 20 27  1  0
 21 28  2  0
 22 28  1  0
 26 29  1  0
 26 30  1  0
 27 31  2  0
 27 32  1  0
 30 33  2  0
 31 33  1  0
 32 34  1  0
M  END
