DAR-DIA-0cde14eb-13
     RDKit          3D

 22 24  0  0  0  0  0  0  0  0999 V2000
    5.1480    0.7190   22.1100 C   0  0  0  0  0  0  0  0  0  0  0  0
    5.5060    0.6100   20.6470 C   0  0  0  0  0  0  0  0  0  0  0  0
    4.7480    1.4680   19.6860 C   0  0  0  0  0  0  0  0  0  0  0  0
    6.4910   -0.2220   20.1130 C   0  0  0  0  0  0  0  0  0  0  0  0
    5.0540    1.4000   18.3490 C   0  0  0  0  0  0  0  0  0  0  0  0
    6.6830   -0.1790   18.7350 C   0  0  0  0  0  0  0  0  0  0  0  0
    7.2590   -1.0460   20.8490 N   0  0  0  0  0  0  0  0  0  0  0  0
    6.0030    0.5970   17.8450 N   0  0  0  0  0  0  0  0  0  0  0  0
    8.3500   -0.5040   21.4550 C   0  0  0  0  0  0  0  0  0  0  0  0
    8.6560    0.6780   21.3400 O   0  0  0  0  0  0  0  0  0  0  0  0
    9.1420   -1.3540   22.2290 C   0  0  2  0  0  0  0  0  0  0  0  0
    8.5950   -1.9830   23.5260 C   0  0  0  0  0  0  0  0  0  0  0  0
   10.4130   -0.6160   22.5070 C   0  0  0  0  0  0  0  0  0  0  0  0
   11.8140   -1.2110   22.5320 C   0  0  0  0  0  0  0  0  0  0  0  0
   10.3080    0.7830   22.7590 C   0  0  0  0  0  0  0  0  0  0  0  0
   12.8860   -0.3680   22.7870 C   0  0  0  0  0  0  0  0  0  0  0  0
   11.3890    1.6380   23.0060 C   0  0  0  0  0  0  0  0  0  0  0  0
   12.6670    1.0870   23.0260 C   0  0  0  0  0  0  0  0  0  0  0  0
   11.1160    3.0980   23.2180 C   0  0  0  0  0  0  0  0  0  0  0  0
   12.6460    4.4480   22.5720 I   0  0  0  0  0  0  0  0  0  0  0  0
    9.9010    3.5820   22.9290 C   0  0  0  0  0  0  0  0  0  0  0  0
   10.1620    3.5900   24.3760 C   0  0  0  0  0  0  0  0  0  0  0  0
  1  2  1  0
  2  3  2  0
  2  4  1  0
  3  5  1  0
  4  6  2  0
  4  7  1  0
  5  8  2  0
  6  8  1  0
  7  9  1  0
  9 10  2  0
  9 11  1  0
 11 12  1  1
 11 13  1  0
 13 14  2  0
 13 15  1  0
 14 16  1  0
 15 17  2  0
 16 18  2  0
 17 18  1  0
 17 19  1  0
 19 20  1  0
 19 21  1  0
 19 22  1  0
 21 22  1  0
M  END
