DAR-DIA-fb20be43-13-chloroacetamide
     RDKit          3D

 27 29  0  0  0  0  0  0  0  0999 V2000
    7.2840   -2.9240   18.7360 C   0  0  0  0  0  0  0  0  0  0  0  0
    6.3760   -3.0520   19.6910 C   0  0  0  0  0  0  0  0  0  0  0  0
    5.4760   -3.8900   19.5750 O   0  0  0  0  0  0  0  0  0  0  0  0
    6.4360   -2.2480   20.8130 N   0  0  0  0  0  0  0  0  0  0  0  0
    6.1650   -2.8850   22.1160 C   0  0  0  0  0  0  0  0  0  0  0  0
    7.4210   -1.1610   20.8210 C   0  0  0  0  0  0  0  0  0  0  0  0
    7.4690   -3.1990   22.8640 C   0  0  0  0  0  0  0  0  0  0  0  0
    8.6330   -1.4750   21.7100 C   0  0  0  0  0  0  0  0  0  0  0  0
    8.2880   -1.9990   23.0370 N   0  0  0  0  0  0  0  0  0  0  0  0
    9.5050   -2.2870   23.7750 C   0  0  0  0  0  0  0  0  0  0  0  0
   10.5620   -1.3060   23.4110 C   0  0  0  0  0  0  0  0  0  0  0  0
   11.7880   -1.7190   22.9590 C   0  0  0  0  0  0  0  0  0  0  0  0
   10.3280    0.0350   23.5120 C   0  0  0  0  0  0  0  0  0  0  0  0
   12.7570   -0.8100   22.6300 C   0  0  0  0  0  0  0  0  0  0  0  0
   11.3130    0.9830   23.1910 C   0  0  0  0  0  0  0  0  0  0  0  0
    9.0750    0.7020   23.9460 C   0  0  0  0  0  0  0  0  0  0  0  0
   13.8060   -1.4520   22.2010 O   0  0  0  0  0  0  0  0  0  0  0  0
   12.5550    0.5440   22.7500 C   0  0  0  0  0  0  0  0  0  0  0  0
    9.4520    2.1410   23.8800 C   0  0  0  0  0  0  0  0  0  0  0  0
   10.7270    2.3460   23.4410 C   0  0  0  0  0  0  0  0  0  0  0  0
   13.4410   -1.9940   20.9550 C   0  0  0  0  0  0  0  0  0  0  0  0
   11.4200    3.6400   23.2620 C   0  0  0  0  0  0  0  0  0  0  0  0
   10.9630    4.8110   24.1490 C   0  0  0  0  0  0  0  0  0  0  0  0
    9.5860    4.6940   24.5970 N   0  0  0  0  0  0  0  0  0  0  0  0
    9.2660    4.5820   25.9310 C   0  0  0  0  0  0  0  0  0  0  0  0
    8.2680    3.4980   26.2420 C   0  0  0  0  0  0  0  0  0  0  0  0
    9.7420    5.2920   26.8110 O   0  0  0  0  0  0  0  0  0  0  0  0
  1  2  1  0
  2  3  2  0
  2  4  1  0
  4  5  1  0
  4  6  1  0
  5  7  1  0
  6  8  1  0
  7  9  1  0
  8  9  1  0
  9 10  1  0
 10 11  1  0
 11 12  2  0
 11 13  1  0
 12 14  1  0
 13 15  2  0
 13 16  1  0
 14 17  1  0
 14 18  2  0
 15 18  1  0
 16 19  1  0
 15 20  1  0
 19 20  2  0
 17 21  1  0
 20 22  1  0
 22 23  1  0
 23 24  1  0
 24 25  1  0
 25 26  1  0
 25 27  2  0
M  END
