DAR-DIA-caba39e3-10-chloroacetamide
     RDKit          3D

 29 32  0  0  0  0  0  0  0  0999 V2000
    7.0220   -2.9540   19.0010 C   0  0  0  0  0  0  0  0  0  0  0  0
    6.1520   -3.4520   20.1230 C   0  0  0  0  0  0  0  0  0  0  0  0
    5.4230   -4.4120   19.8870 O   0  0  0  0  0  0  0  0  0  0  0  0
    6.2270   -2.7870   21.3610 N   0  0  0  0  0  0  0  0  0  0  0  0
    5.6870   -3.3050   22.5530 C   0  0  0  0  0  0  0  0  0  0  0  0
    7.1560   -1.6850   21.6520 C   0  0  0  0  0  0  0  0  0  0  0  0
    6.7440   -3.7970   23.5110 C   0  0  0  0  0  0  0  0  0  0  0  0
    8.2350   -2.1270   22.6610 C   0  0  2  0  0  0  0  0  0  0  0  0
    6.4730   -4.9420   24.4750 C   0  0  0  0  0  0  0  0  0  0  0  0
    7.9440   -3.1890   23.4850 C   0  0  0  0  0  0  0  0  0  0  0  0
    8.9220   -1.0130   23.2620 C   0  0  0  0  0  0  0  0  0  0  0  0
    7.5520   -5.4620   25.4530 C   0  0  0  0  0  0  0  0  0  0  0  0
    9.0570   -3.6480   24.3860 C   0  0  0  0  0  0  0  0  0  0  0  0
    8.4980   -0.0580   24.1810 C   0  0  0  0  0  0  0  0  0  0  0  0
   10.1340   -1.0070   22.8050 C   0  0  0  0  0  0  0  0  0  0  0  0
    8.9240   -4.7840   25.3960 C   0  0  0  0  0  0  0  0  0  0  0  0
    9.3900    0.9520   24.6400 C   0  0  0  0  0  0  0  0  0  0  0  0
   11.1020   -0.0950   23.1730 C   0  0  0  0  0  0  0  0  0  0  0  0
   10.3030   -1.9950   21.9400 C   0  0  0  0  0  0  0  0  0  0  0  0
    8.8730    1.8410   25.5280 O   0  0  0  0  0  0  0  0  0  0  0  0
   10.7790    0.8610   24.0520 C   0  0  0  0  0  0  0  0  0  0  0  0
   12.3880   -0.2770   22.5550 C   0  0  0  0  0  0  0  0  0  0  0  0
   11.4300   -2.1590   21.3800 C   0  0  0  0  0  0  0  0  0  0  0  0
    7.4990    1.6590   25.8640 C   0  0  0  0  0  0  0  0  0  0  0  0
   12.3780   -1.3670   21.6790 C   0  0  0  0  0  0  0  0  0  0  0  0
   13.6380   -1.7600   20.9330 S   0  0  0  0  0  0  0  0  0  0  0  0
   13.8990   -1.5710   22.5290 N   0  0  0  0  0  0  0  0  0  0  0  0
   14.1470   -0.7310   20.0850 O   0  0  0  0  0  0  0  0  0  0  0  0
   13.6440   -3.1550   20.6490 O   0  0  0  0  0  0  0  0  0  0  0  0
  1  2  1  0
  2  3  2  0
  2  4  1  0
  4  5  1  0
  4  6  1  0
  5  7  1  0
  6  8  1  0
  7  9  1  0
  7 10  2  0
  8 10  1  0
  8 11  1  1
  9 12  2  0
 10 13  1  0
 11 14  2  0
 11 15  1  0
 12 16  1  0
 13 16  2  0
 14 17  1  0
 15 18  2  0
 15 19  1  0
 17 20  1  0
 17 21  2  0
 18 21  1  0
 18 22  1  0
 19 23  2  0
 20 24  1  0
 22 25  2  0
 23 25  1  0
 25 26  1  0
 26 27  1  0
 26 28  2  0
 26 29  2  0
M  END
