DAR-DIA-2b784ede-6-nitrile
     RDKit          3D

 23 24  0  0  0  0  0  0  0  0999 V2000
    7.2540   -3.1720   19.6290 C   0  0  0  0  0  0  0  0  0  0  0  0
    6.5880   -2.8150   18.5760 N   0  0  0  0  0  0  0  0  0  0  0  0
    7.2760   -2.2510   20.7870 N   0  0  0  0  0  0  0  0  0  0  0  0
    6.5230   -1.2730   20.1870 C   0  0  0  0  0  0  0  0  0  0  0  0
    8.5010   -1.3700   21.2940 C   0  0  1  0  0  0  0  0  0  0  0  0
    5.3130   -0.8670   20.6670 C   0  0  0  0  0  0  0  0  0  0  0  0
    7.0910   -0.7150   19.0400 C   0  0  0  0  0  0  0  0  0  0  0  0
    7.8190   -0.1570   21.9800 C   0  0  0  0  0  0  0  0  0  0  0  0
    9.7260   -1.5040   22.3930 C   0  0  0  0  0  0  0  0  0  0  0  0
    4.7390    0.0950   19.9860 C   0  0  0  0  0  0  0  0  0  0  0  0
    6.6740    0.0790   18.4290 N   0  0  0  0  0  0  0  0  0  0  0  0
    6.7540   -0.3260   22.5840 O   0  0  0  0  0  0  0  0  0  0  0  0
    8.4710    1.0670   21.8790 N   0  0  0  0  0  0  0  0  0  0  0  0
   10.9610   -0.5030   22.3730 C   0  0  0  0  0  0  0  0  0  0  0  0
    9.8770   -2.3980   23.4530 C   0  0  0  0  0  0  0  0  0  0  0  0
    5.4340    0.5440   18.9080 C   0  0  0  0  0  0  0  0  0  0  0  0
    7.8910    2.3020   21.4920 C   0  0  0  0  0  0  0  0  0  0  0  0
   12.0480   -0.4010   23.1610 N   0  0  0  0  0  0  0  0  0  0  0  0
   11.0260   -2.2720   24.2680 C   0  0  0  0  0  0  0  0  0  0  0  0
    8.8840   -3.3530   23.6590 C   0  0  0  0  0  0  0  0  0  0  0  0
    5.1980    1.4880   18.0630 C   0  0  0  0  0  0  0  0  0  0  0  0
   12.0120   -1.3230   24.0910 C   0  0  0  0  0  0  0  0  0  0  0  0
    6.4660    1.0590   16.8990 Cl  0  0  0  0  0  0  0  0  0  0  0  0
  1  2  2  3
  1  3  1  0
  3  4  1  0
  3  5  1  0
  4  6  2  0
  4  7  1  0
  5  8  1  1
  5  9  1  0
  6 10  1  0
  7 11  2  0
  8 12  2  0
  8 13  1  0
  9 14  2  0
  9 15  1  0
 10 16  2  0
 11 16  1  0
 13 17  1  0
 14 18  1  0
 15 19  2  0
 15 20  1  0
 16 21  1  0
 18 22  2  0
 19 22  1  0
 21 23  1  0
M  END
