DAR-DIA-fc970077-2
     RDKit          3D

 19 21  0  0  0  0  0  0  0  0999 V2000
    9.8900   -0.6340   26.6950 O   0  0  0  0  0  0  0  0  0  0  0  0
    9.3260    0.3310   26.2450 C   0  0  0  0  0  0  0  0  0  0  0  0
    8.3620    0.8850   27.0210 N   0  0  0  0  0  0  0  0  0  0  0  0
    9.5290    0.9430   25.0130 N   0  0  0  0  0  0  0  0  0  0  0  0
    7.0330    1.1070   26.5430 C   0  0  2  0  0  0  0  0  0  0  0  0
    8.2860    1.4910   24.4310 C   0  0  0  0  0  0  0  0  0  0  0  0
   10.4630    0.3330   24.0790 C   0  0  0  0  0  0  0  0  0  0  0  0
    6.1280    0.3040   27.2610 C   0  0  0  0  0  0  0  0  0  0  0  0
    7.0270    0.8600   25.0370 C   0  0  0  0  0  0  0  0  0  0  0  0
   11.8480    0.5990   23.9070 C   0  0  0  0  0  0  0  0  0  0  0  0
    9.9130   -0.6270   23.2660 C   0  0  0  0  0  0  0  0  0  0  0  0
    6.5820   -0.4480   28.3690 C   0  0  0  0  0  0  0  0  0  0  0  0
    4.7530    0.2290   26.9010 C   0  0  0  0  0  0  0  0  0  0  0  0
   12.6140   -0.0960   22.9590 C   0  0  0  0  0  0  0  0  0  0  0  0
   10.6490   -1.3130   22.3310 C   0  0  0  0  0  0  0  0  0  0  0  0
    5.5760   -1.2730   29.0900 C   0  0  0  0  0  0  0  0  0  0  0  0
    3.7680   -0.5070   27.5170 N   0  0  0  0  0  0  0  0  0  0  0  0
   12.0090   -1.0620   22.1700 C   0  0  0  0  0  0  0  0  0  0  0  0
    4.1500   -1.2390   28.5760 C   0  0  0  0  0  0  0  0  0  0  0  0
  1  2  2  0
  2  3  1  0
  2  4  1  0
  3  5  1  0
  4  6  1  0
  4  7  1  0
  5  8  1  1
  5  9  1  0
  6  9  1  0
  7 10  2  0
  7 11  1  0
  8 12  2  0
  8 13  1  0
 10 14  1  0
 11 15  2  0
 12 16  1  0
 13 17  2  0
 14 18  2  0
 15 18  1  0
 16 19  2  0
 17 19  1  0
M  END
