DAR-DIA-842b4336-20-acrylamide
     RDKit          3D

 22 24  0  0  0  0  0  0  0  0999 V2000
    6.6230   -5.6310   20.0850 C   0  0  0  0  0  0  0  0  0  0  0  0
    6.9240   -4.2860   20.6740 C   0  0  0  0  0  0  0  0  0  0  0  0
    5.9450   -3.3840   20.0210 C   0  0  0  0  0  0  0  0  0  0  0  0
    4.9240   -3.8580   19.5540 O   0  0  0  0  0  0  0  0  0  0  0  0
    6.2800   -1.9770   19.8950 C   0  0  0  0  0  0  0  0  0  0  0  0
    6.5740   -1.2500   18.6430 C   0  0  0  0  0  0  0  0  0  0  0  0
    6.3780   -1.1460   20.9820 O   0  0  0  0  0  0  0  0  0  0  0  0
    6.8690    0.0580   19.0540 N   0  0  0  0  0  0  0  0  0  0  0  0
    6.7350    0.0360   20.4070 C   0  0  0  0  0  0  0  0  0  0  0  0
    7.0000    1.1930   21.0230 N   0  0  0  0  0  0  0  0  0  0  0  0
    8.3000    1.0050   21.3460 C   0  0  0  0  0  0  0  0  0  0  0  0
    9.1260    1.8950   21.3020 O   0  0  0  0  0  0  0  0  0  0  0  0
    8.7230   -0.2720   21.6880 C   0  0  0  0  0  0  0  0  0  0  0  0
    9.8750   -0.5680   22.5300 C   0  0  0  0  0  0  0  0  0  0  0  0
   10.9780   -1.4690   22.0300 C   0  0  0  0  0  0  0  0  0  0  0  0
   10.1400   -0.1600   23.7690 N   0  0  0  0  0  0  0  0  0  0  0  0
   11.7560   -1.5020   23.0480 C   0  0  0  0  0  0  0  0  0  0  0  0
   11.2930   -0.7270   24.1190 C   0  0  0  0  0  0  0  0  0  0  0  0
   12.9170   -2.1710   23.2170 C   0  0  0  0  0  0  0  0  0  0  0  0
   11.8370   -0.5510   25.2790 N   0  0  0  0  0  0  0  0  0  0  0  0
   13.5940   -2.1040   24.3750 C   0  0  0  0  0  0  0  0  0  0  0  0
   13.0800   -1.3260   25.3540 C   0  0  0  0  0  0  0  0  0  0  0  0
  1  2  1  0
  2  3  1  0
  3  4  2  0
  3  5  1  0
  5  6  2  0
  5  7  1  0
  6  8  1  0
  7  9  1  0
  8  9  2  0
  9 10  1  0
 10 11  1  0
 11 12  2  0
 11 13  1  0
 13 14  1  0
 14 15  2  0
 14 16  1  0
 15 17  1  0
 16 18  1  0
 17 18  2  0
 17 19  1  0
 18 20  1  0
 19 21  2  0
 20 22  2  0
 21 22  1  0
M  END
