DAR-DIA-0cde14eb-29
     RDKit          3D

 28 31  0  0  0  0  0  0  0  0999 V2000
    4.9590    1.0120   21.8900 C   0  0  0  0  0  0  0  0  0  0  0  0
    5.2870    0.9360   20.4150 C   0  0  0  0  0  0  0  0  0  0  0  0
    4.6130    1.8740   19.4920 C   0  0  0  0  0  0  0  0  0  0  0  0
    6.1840    0.0530   19.8390 C   0  0  0  0  0  0  0  0  0  0  0  0
    4.9170    1.8160   18.1480 C   0  0  0  0  0  0  0  0  0  0  0  0
    6.3880    0.1080   18.4790 C   0  0  0  0  0  0  0  0  0  0  0  0
    6.8690   -0.8400   20.5070 N   0  0  0  0  0  0  0  0  0  0  0  0
    5.7950    0.9530   17.6050 N   0  0  0  0  0  0  0  0  0  0  0  0
    8.0110   -0.4370   21.0940 C   0  0  0  0  0  0  0  0  0  0  0  0
    8.4480    0.7140   21.1480 O   0  0  0  0  0  0  0  0  0  0  0  0
    8.6830   -1.4540   21.6680 C   0  0  0  0  0  0  0  0  0  0  0  0
    9.5430   -1.0530   22.8070 C   0  0  0  0  0  0  0  0  0  0  0  0
    8.8930   -0.2710   23.9110 C   0  0  0  0  0  0  0  0  0  0  0  0
   10.8440   -1.3970   22.8160 C   0  0  0  0  0  0  0  0  0  0  0  0
    9.8010    0.0960   25.0540 C   0  0  0  0  0  0  0  0  0  0  0  0
   11.6050   -1.0340   23.8720 C   0  0  0  0  0  0  0  0  0  0  0  0
    9.0970    0.8410   26.1100 N   0  0  0  0  0  0  0  0  0  0  0  0
   11.1350   -0.3220   24.9590 C   0  0  0  0  0  0  0  0  0  0  0  0
   12.9500   -1.3940   23.8640 C   0  0  0  0  0  0  0  0  0  0  0  0
    7.9970    1.5820   25.7130 C   0  0  0  0  0  0  0  0  0  0  0  0
    8.8710    0.1450   27.3940 C   0  0  0  0  0  0  0  0  0  0  0  0
   13.5290   -0.2530   23.1350 C   0  0  0  0  0  0  0  0  0  0  0  0
   13.2180   -2.8150   23.4920 C   0  0  0  0  0  0  0  0  0  0  0  0
   13.5260   -2.3500   24.9040 C   0  0  0  0  0  0  0  0  0  0  0  0
    7.4070    2.3720   26.8330 C   0  0  0  0  0  0  0  0  0  0  0  0
    8.0960    0.8460   28.3310 C   0  0  0  0  0  0  0  0  0  0  0  0
   13.8040    0.6990   22.6070 N   0  0  0  0  0  0  0  0  0  0  0  0
    7.0110    1.5180   27.7790 C   0  0  0  0  0  0  0  0  0  0  0  0
  1  2  1  0
  2  3  2  0
  2  4  1  0
  3  5  1  0
  4  6  2  0
  4  7  1  0
  5  8  2  0
  6  8  1  0
  7  9  1  0
  9 10  2  0
  9 11  1  0
 11 12  1  0
 12 13  2  0
 12 14  1  0
 13 15  1  0
 14 16  2  0
 15 17  1  0
 15 18  2  0
 16 18  1  0
 16 19  1  0
 17 20  1  0
 17 21  1  0
 19 22  1  0
 19 23  1  0
 19 24  1  0
 23 24  1  0
 20 25  1  0
 21 26  1  0
 22 27  3  0
 25 28  1  0
 26 28  1  0
M  END
