DAR-DIA-0cde14eb-77
     RDKit          3D

 22 23  0  0  0  0  0  0  0  0999 V2000
   12.9030   -2.6430   20.9290 C   0  0  0  0  0  0  0  0  0  0  0  0
   12.8680   -2.7100   22.4230 C   0  0  0  0  0  0  0  0  0  0  0  0
   13.0720   -1.4000   22.9880 C   0  0  0  0  0  0  0  0  0  0  0  0
   13.7230   -1.5820   24.1600 F   0  0  0  0  0  0  0  0  0  0  0  0
   13.8430   -0.7380   22.1350 F   0  0  0  0  0  0  0  0  0  0  0  0
   12.0800   -0.5860   23.1760 C   0  0  0  0  0  0  0  0  0  0  0  0
   12.2600    0.6700   23.6780 C   0  0  0  0  0  0  0  0  0  0  0  0
   10.8240   -0.9990   22.8570 C   0  0  0  0  0  0  0  0  0  0  0  0
   11.2270    1.5380   23.8930 C   0  0  0  0  0  0  0  0  0  0  0  0
    9.7680   -0.1370   23.0680 C   0  0  0  0  0  0  0  0  0  0  0  0
    9.9510    1.1320   23.5890 C   0  0  0  0  0  0  0  0  0  0  0  0
    8.3950   -0.5960   22.7030 C   0  0  0  0  0  0  0  0  0  0  0  0
    8.2310    0.0210   21.3530 C   0  0  0  0  0  0  0  0  0  0  0  0
    8.6940    1.1620   21.1290 O   0  0  0  0  0  0  0  0  0  0  0  0
    7.5240   -0.8210   20.4170 N   0  0  0  0  0  0  0  0  0  0  0  0
    6.5370    0.0310   19.7800 C   0  0  0  0  0  0  0  0  0  0  0  0
    6.7730    0.3140   18.4810 C   0  0  0  0  0  0  0  0  0  0  0  0
    5.4160    0.5590   20.4150 C   0  0  0  0  0  0  0  0  0  0  0  0
    5.9870    1.0890   17.7150 N   0  0  0  0  0  0  0  0  0  0  0  0
    4.5810    1.3690   19.6360 C   0  0  0  0  0  0  0  0  0  0  0  0
    5.1420    0.2770   21.8350 C   0  0  0  0  0  0  0  0  0  0  0  0
    4.8980    1.6100   18.2970 C   0  0  0  0  0  0  0  0  0  0  0  0
  1  2  1  0
  2  3  1  0
  3  4  1  0
  3  5  1  0
  3  6  1  0
  6  7  2  0
  6  8  1  0
  7  9  1  0
  8 10  2  0
  9 11  2  0
 10 11  1  0
 10 12  1  0
 12 13  1  0
 13 14  2  0
 13 15  1  0
 15 16  1  0
 16 17  2  0
 16 18  1  0
 17 19  1  0
 18 20  2  0
 18 21  1  0
 19 22  2  0
 20 22  1  0
M  END
