DAR-DIA-caba39e3-6-acrylamide
     RDKit          3D

 30 33  0  0  0  0  0  0  0  0999 V2000
    7.6400   -2.9020   18.2800 C   0  0  0  0  0  0  0  0  0  0  0  0
    6.6870   -2.2550   19.2440 C   0  0  0  0  0  0  0  0  0  0  0  0
    6.1860   -3.0870   20.3830 C   0  0  0  0  0  0  0  0  0  0  0  0
    5.2780   -3.9560   20.3180 O   0  0  0  0  0  0  0  0  0  0  0  0
    6.8120   -2.7970   21.5590 N   0  0  0  0  0  0  0  0  0  0  0  0
    6.3200   -3.1560   22.7630 C   0  0  0  0  0  0  0  0  0  0  0  0
    7.9710   -1.9070   21.6580 C   0  0  0  0  0  0  0  0  0  0  0  0
    7.4610   -3.6990   23.6030 C   0  0  0  0  0  0  0  0  0  0  0  0
    9.2000   -2.5430   22.3480 C   0  0  2  0  0  0  0  0  0  0  0  0
    6.9330   -4.6090   24.6950 C   0  0  0  0  0  0  0  0  0  0  0  0
    8.8140   -3.3980   23.3860 C   0  0  0  0  0  0  0  0  0  0  0  0
   10.0810   -1.4550   22.5610 C   0  0  0  0  0  0  0  0  0  0  0  0
    7.9420   -5.2610   25.6320 C   0  0  0  0  0  0  0  0  0  0  0  0
    9.7710   -3.9700   24.2090 C   0  0  0  0  0  0  0  0  0  0  0  0
   11.4710   -1.6790   22.4150 C   0  0  0  0  0  0  0  0  0  0  0  0
    9.7040   -0.1200   22.9010 C   0  0  0  0  0  0  0  0  0  0  0  0
    9.4150   -4.9260   25.3690 C   0  0  0  0  0  0  0  0  0  0  0  0
   12.3950   -0.6350   22.6040 C   0  0  0  0  0  0  0  0  0  0  0  0
   10.6320    0.8850   23.0720 C   0  0  0  0  0  0  0  0  0  0  0  0
    8.4660    0.4940   23.1230 N   0  0  0  0  0  0  0  0  0  0  0  0
   13.6830   -0.9050   22.4540 F   0  0  0  0  0  0  0  0  0  0  0  0
   11.9690    0.6390   22.9330 C   0  0  0  0  0  0  0  0  0  0  0  0
    9.9360    2.1960   23.4110 C   0  0  0  0  0  0  0  0  0  0  0  0
    8.5970    1.8820   23.4290 C   0  0  0  0  0  0  0  0  0  0  0  0
   10.6360    3.4230   23.6450 C   0  0  0  0  0  0  0  0  0  0  0  0
   10.1720    4.6170   23.0140 C   0  0  0  0  0  0  0  0  0  0  0  0
    9.9210    5.6290   23.9250 N   0  0  0  0  0  0  0  0  0  0  0  0
   10.5260    5.6710   25.1660 C   0  0  0  0  0  0  0  0  0  0  0  0
   11.8690    6.1600   25.1460 C   0  0  0  0  0  0  0  0  0  0  0  0
    9.9200    5.2950   26.2990 O   0  0  0  0  0  0  0  0  0  0  0  0
  1  2  1  0
  2  3  1  0
  3  4  2  0
  3  5  1  0
  5  6  1  0
  5  7  1  0
  6  8  1  0
  7  9  1  0
  8 10  1  0
  8 11  2  0
  9 11  1  0
  9 12  1  1
 10 13  2  0
 11 14  1  0
 12 15  2  0
 12 16  1  0
 13 17  1  0
 14 17  2  0
 15 18  1  0
 16 19  2  0
 16 20  1  0
 18 21  1  0
 18 22  2  0
 19 22  1  0
 19 23  1  0
 20 24  1  0
 23 24  2  0
 23 25  1  0
 25 26  1  0
 26 27  1  0
 27 28  1  0
 28 29  1  0
 28 30  2  0
M  END
