DAR-DIA-2b784ede-36-chloroacetamide
     RDKit          3D

 34 36  0  0  0  0  0  0  0  0999 V2000
    7.4100   -3.3730   19.5580 C   0  0  0  0  0  0  0  0  0  0  0  0
    6.0640   -2.9040   19.8450 C   0  0  0  0  0  0  0  0  0  0  0  0
    5.1000   -3.3580   19.2080 O   0  0  0  0  0  0  0  0  0  0  0  0
    6.0630   -1.9950   20.9060 N   0  0  0  0  0  0  0  0  0  0  0  0
    5.9070   -2.6330   22.1350 C   0  0  0  0  0  0  0  0  0  0  0  0
    7.0410   -0.9200   20.6110 C   0  0  2  0  0  0  0  0  0  0  0  0
    5.4940   -3.8990   22.0810 C   0  0  0  0  0  0  0  0  0  0  0  0
    6.0840   -2.2880   23.4270 N   0  0  0  0  0  0  0  0  0  0  0  0
    8.2940   -0.5040   21.4940 C   0  0  0  0  0  0  0  0  0  0  0  0
    6.2410   -0.0820   19.7350 C   0  0  0  0  0  0  0  0  0  0  0  0
    5.4090   -4.4370   23.3200 C   0  0  0  0  0  0  0  0  0  0  0  0
    5.7700   -3.4310   24.1830 O   0  0  0  0  0  0  0  0  0  0  0  0
    8.2600    0.6470   21.9420 O   0  0  0  0  0  0  0  0  0  0  0  0
    9.3950   -1.4050   21.7040 N   0  0  0  0  0  0  0  0  0  0  0  0
    6.8570    0.2770   18.4590 C   0  0  0  0  0  0  0  0  0  0  0  0
    5.0010    0.3400   19.9950 C   0  0  0  0  0  0  0  0  0  0  0  0
    5.0520   -5.7340   23.6880 C   0  0  0  0  0  0  0  0  0  0  0  0
   10.5140   -1.2210   22.6460 C   0  0  0  0  0  0  0  0  0  0  0  0
    6.2980    0.9880   17.5300 N   0  0  0  0  0  0  0  0  0  0  0  0
    4.4460    1.0510   19.0370 C   0  0  0  0  0  0  0  0  0  0  0  0
    4.2500    0.0970   21.1540 C   0  0  0  0  0  0  0  0  0  0  0  0
    3.6700   -6.3530   23.4330 C   0  0  0  0  0  0  0  0  0  0  0  0
    6.0410   -6.6300   22.9070 C   0  0  0  0  0  0  0  0  0  0  0  0
    5.2870   -5.8530   25.2120 C   0  0  0  0  0  0  0  0  0  0  0  0
   12.0870   -1.2900   22.4970 C   0  0  0  0  0  0  0  0  0  0  0  0
   10.0490   -0.9230   23.9430 C   0  0  0  0  0  0  0  0  0  0  0  0
    5.0870    1.3620   17.8520 C   0  0  0  0  0  0  0  0  0  0  0  0
    5.4590   -5.9220   26.3610 N   0  0  0  0  0  0  0  0  0  0  0  0
   12.9730   -1.6510   21.2870 C   0  0  0  0  0  0  0  0  0  0  0  0
   12.8580   -0.9890   23.6250 C   0  0  0  0  0  0  0  0  0  0  0  0
   10.8980   -0.6450   24.9970 C   0  0  0  0  0  0  0  0  0  0  0  0
    8.7050   -0.9180   24.1810 C   0  0  0  0  0  0  0  0  0  0  0  0
   12.2600   -0.6640   24.8500 C   0  0  0  0  0  0  0  0  0  0  0  0
    8.2320   -0.5510   25.4380 C   0  0  0  0  0  0  0  0  0  0  0  0
  1  2  1  0
  2  3  2  0
  2  4  1  0
  4  5  1  0
  4  6  1  0
  5  7  1  0
  5  8  2  0
  6  9  1  1
  6 10  1  0
  7 11  2  0
  8 12  1  0
 11 12  1  0
  9 13  2  0
  9 14  1  0
 10 15  2  0
 10 16  1  0
 11 17  1  0
 14 18  1  0
 15 19  1  0
 16 20  2  0
 16 21  1  0
 17 22  1  0
 17 23  1  0
 17 24  1  0
 18 25  2  0
 18 26  1  0
 19 27  2  0
 20 27  1  0
 24 28  3  0
 25 29  1  0
 25 30  1  0
 26 31  2  0
 26 32  1  0
 30 33  2  0
 31 33  1  0
 32 34  1  0
M  END
