DAR-DIA-2b784ede-26-chloroacetamide
     RDKit          3D

 34 37  0  0  0  0  0  0  0  0999 V2000
    7.1100   -2.9730   18.8140 C   0  0  0  0  0  0  0  0  0  0  0  0
    6.1950   -3.3300   19.9350 C   0  0  0  0  0  0  0  0  0  0  0  0
    5.3810   -4.2510   19.8020 O   0  0  0  0  0  0  0  0  0  0  0  0
    6.3320   -2.5770   21.1250 N   0  0  0  0  0  0  0  0  0  0  0  0
    6.8640   -1.2280   21.0710 C   0  0  2  0  0  0  0  0  0  0  0  0
    6.2880   -3.3610   22.4180 C   0  0  1  0  0  0  0  0  0  0  0  0
    7.6500   -0.7290   22.1110 C   0  0  0  0  0  0  0  0  0  0  0  0
    6.0000   -0.2360   20.7180 N   0  0  0  0  0  0  0  0  0  0  0  0
    7.6470   -3.5940   23.1550 C   0  0  0  0  0  0  0  0  0  0  0  0
    5.0230   -3.3210   23.3030 C   0  0  0  0  0  0  0  0  0  0  0  0
    7.5370    0.6620   22.1870 C   0  0  0  0  0  0  0  0  0  0  0  0
    6.6920    1.0370   20.9770 C   0  0  0  0  0  0  0  0  0  0  0  0
    7.9520   -4.7430   23.4780 O   0  0  0  0  0  0  0  0  0  0  0  0
    8.4790   -2.5280   23.4520 N   0  0  0  0  0  0  0  0  0  0  0  0
    4.2760   -4.4920   23.4930 C   0  0  0  0  0  0  0  0  0  0  0  0
    4.5390   -2.1670   23.9690 C   0  0  0  0  0  0  0  0  0  0  0  0
    7.1420    1.2110   23.4310 C   0  0  0  0  0  0  0  0  0  0  0  0
    8.9440    1.3080   22.0030 C   0  0  0  0  0  0  0  0  0  0  0  0
    9.8890   -2.6530   23.5530 C   0  0  0  0  0  0  0  0  0  0  0  0
    3.1610   -4.6020   24.2470 N   0  0  0  0  0  0  0  0  0  0  0  0
    3.3990   -2.2670   24.7470 C   0  0  0  0  0  0  0  0  0  0  0  0
    5.1950   -0.8200   23.8900 C   0  0  0  0  0  0  0  0  0  0  0  0
    7.8870    2.4830   23.8070 C   0  0  0  0  0  0  0  0  0  0  0  0
    8.9990    2.6340   22.7730 C   0  0  0  0  0  0  0  0  0  0  0  0
   10.7900   -1.3950   23.4840 C   0  0  0  0  0  0  0  0  0  0  0  0
    2.7480   -3.4810   24.8610 C   0  0  0  0  0  0  0  0  0  0  0  0
   12.0510   -1.3790   22.5530 C   0  0  0  0  0  0  0  0  0  0  0  0
   10.5330   -0.2140   24.2540 C   0  0  0  0  0  0  0  0  0  0  0  0
   12.5130   -2.3810   21.7100 C   0  0  0  0  0  0  0  0  0  0  0  0
   12.8630   -0.2790   22.4940 C   0  0  0  0  0  0  0  0  0  0  0  0
   11.3970    0.8690   24.1300 C   0  0  0  0  0  0  0  0  0  0  0  0
    9.3660   -0.0580   25.2140 C   0  0  0  0  0  0  0  0  0  0  0  0
   12.5120    0.9030   23.3210 C   0  0  0  0  0  0  0  0  0  0  0  0
    8.8470   -1.3810   25.7000 C   0  0  0  0  0  0  0  0  0  0  0  0
  1  2  1  0
  2  3  2  0
  2  4  1  0
  5  4  1  1
  4  6  1  0
  5  7  1  0
  5  8  1  0
  6  9  1  1
  6 10  1  0
 11  7  1  0
  8 12  1  0
 11 12  1  0
  9 13  2  0
  9 14  1  0
 10 15  2  0
 10 16  1  0
 11 17  1  0
 11 18  1  0
 14 19  1  0
 15 20  1  0
 16 21  2  0
 16 22  1  0
 17 23  1  0
 18 24  1  0
 23 24  1  0
 19 25  1  0
 20 26  2  0
 21 26  1  0
 25 27  2  0
 25 28  1  0
 27 29  1  0
 27 30  1  0
 28 31  2  0
 28 32  1  0
 30 33  2  0
 31 33  1  0
 32 34  1  0
M  END
