DAR-DIA-2b784ede-33-chloroacetamide
     RDKit          3D

 25 26  0  0  0  0  0  0  0  0999 V2000
    7.3400   -3.2800   20.6610 C   0  0  0  0  0  0  0  0  0  0  0  0
    6.6700   -1.8930   20.4650 C   0  0  0  0  0  0  0  0  0  0  0  0
    6.2000   -2.5790   19.3250 O   0  0  0  0  0  0  0  0  0  0  0  0
    7.3640   -1.5010   21.8210 N   0  0  0  0  0  0  0  0  0  0  0  0
    6.8080   -2.1550   22.9590 C   0  0  0  0  0  0  0  0  0  0  0  0
    8.2680   -0.2480   22.2250 C   0  0  1  0  0  0  0  0  0  0  0  0
    7.0660   -3.4360   23.2710 C   0  0  0  0  0  0  0  0  0  0  0  0
    5.9570   -1.6820   23.9130 N   0  0  0  0  0  0  0  0  0  0  0  0
    7.5500    0.8480   23.0680 C   0  0  0  0  0  0  0  0  0  0  0  0
    9.7770   -0.4690   22.6010 C   0  0  0  0  0  0  0  0  0  0  0  0
    6.4140   -3.8160   24.3900 C   0  0  0  0  0  0  0  0  0  0  0  0
    5.7060   -2.7320   24.8210 O   0  0  0  0  0  0  0  0  0  0  0  0
    6.5150    1.3830   22.6580 O   0  0  0  0  0  0  0  0  0  0  0  0
    8.1740    1.1650   24.2870 N   0  0  0  0  0  0  0  0  0  0  0  0
   10.8340    0.6670   22.5180 C   0  0  0  0  0  0  0  0  0  0  0  0
   10.3340   -1.6890   23.0290 C   0  0  0  0  0  0  0  0  0  0  0  0
    6.4770   -5.0800   24.9430 C   0  0  0  0  0  0  0  0  0  0  0  0
    8.6400    0.2030   25.2080 C   0  0  0  0  0  0  0  0  0  0  0  0
   12.1540    0.5750   22.7590 N   0  0  0  0  0  0  0  0  0  0  0  0
   11.7070   -1.7440   23.2610 C   0  0  0  0  0  0  0  0  0  0  0  0
    9.4780   -2.9040   23.2240 C   0  0  0  0  0  0  0  0  0  0  0  0
    5.3730   -5.6720   25.8410 C   0  0  0  0  0  0  0  0  0  0  0  0
    6.5270   -5.8930   23.6410 C   0  0  0  0  0  0  0  0  0  0  0  0
    8.0510   -5.2720   25.8120 Cl  0  0  0  0  0  0  0  0  0  0  0  0
   12.5570   -0.6530   23.1120 C   0  0  0  0  0  0  0  0  0  0  0  0
  1  2  1  0
  2  3  2  0
  2  4  1  0
  4  5  1  0
  4  6  1  0
  5  7  1  0
  5  8  2  0
  6  9  1  1
  6 10  1  0
  7 11  2  0
  8 12  1  0
 11 12  1  0
  9 13  2  0
  9 14  1  0
 10 15  2  0
 10 16  1  0
 11 17  1  0
 14 18  1  0
 15 19  1  0
 16 20  2  0
 16 21  1  0
 17 22  1  0
 17 23  1  0
 17 24  1  0
 19 25  2  0
 20 25  1  0
M  END
