DAR-DIA-a80d16a0-7
     RDKit          3D

 21 23  0  0  0  0  0  0  0  0999 V2000
    5.9070    3.3920   26.2530 C   0  0  0  0  0  0  0  0  0  0  0  0
    6.4770    4.5290   25.4440 C   0  0  0  0  0  0  0  0  0  0  0  0
    7.8490    4.3080   24.8200 C   0  0  0  0  0  0  0  0  0  0  0  0
    8.7560    5.4860   24.4830 C   0  0  0  0  0  0  0  0  0  0  0  0
    8.5990    2.7950   24.4030 S   0  0  0  0  0  0  0  0  0  0  0  0
   10.0680    5.0610   23.8780 C   0  0  0  0  0  0  0  0  0  0  0  0
   10.1090    3.5490   23.7810 C   0  0  0  0  0  0  0  0  0  0  0  0
   11.3370    2.8750   23.2080 C   0  0  0  0  0  0  0  0  0  0  0  0
   11.3840    1.4440   23.0180 C   0  0  1  0  0  0  0  0  0  0  0  0
   12.7010    3.8580   23.0830 C   0  0  0  0  0  0  0  0  0  0  0  0
   11.6980    3.7390   22.0830 C   0  0  0  0  0  0  0  0  0  0  0  0
   12.6030    0.7210   23.0960 C   0  0  0  0  0  0  0  0  0  0  0  0
   10.3720    0.6330   23.8450 C   0  0  0  0  0  0  0  0  0  0  0  0
   12.4860   -0.5610   22.5080 C   0  0  0  0  0  0  0  0  0  0  0  0
   10.1990   -0.6970   23.2390 N   0  0  0  0  0  0  0  0  0  0  0  0
   13.4990   -1.1500   21.8660 F   0  0  0  0  0  0  0  0  0  0  0  0
   11.2780   -1.2390   22.5940 C   0  0  0  0  0  0  0  0  0  0  0  0
    8.8490   -1.2020   23.0420 C   0  0  0  0  0  0  0  0  0  0  0  0
    8.5960   -2.2170   23.9500 C   0  0  0  0  0  0  0  0  0  0  0  0
    7.8480   -1.6810   25.0940 N   0  0  0  0  0  0  0  0  0  0  0  0
    8.3200   -0.3700   25.5820 C   0  0  0  0  0  0  0  0  0  0  0  0
  1  2  1  0
  2  3  1  0
  3  4  2  0
  3  5  1  0
  4  6  1  0
  5  7  1  0
  6  7  2  0
  8  7  1  0
  9  8  1  1
  8 10  1  0
  8 11  1  0
 10 11  1  0
  9 12  1  0
  9 13  1  0
 12 14  1  0
 13 15  1  0
 14 16  1  0
 14 17  2  0
 15 17  1  0
 15 18  1  0
 18 19  1  0
 19 20  1  0
 20 21  1  0
M  END
