DAR-DIA-2b784ede-36-vinylsulfonamide
     RDKit          3D

 36 38  0  0  0  0  0  0  0  0999 V2000
    7.2580   -3.2240   19.9220 C   0  0  0  0  0  0  0  0  0  0  0  0
    7.2920   -2.7670   21.4010 C   0  0  0  0  0  0  0  0  0  0  0  0
    5.7320   -2.2320   22.1170 S   0  0  0  0  0  0  0  0  0  0  0  0
    4.6960   -3.0120   21.4390 O   0  0  0  0  0  0  0  0  0  0  0  0
    5.8720   -2.4080   23.5380 O   0  0  0  0  0  0  0  0  0  0  0  0
    5.5940   -0.5180   22.0090 N   0  0  0  0  0  0  0  0  0  0  0  0
    4.3050    0.0940   21.8550 C   0  0  0  0  0  0  0  0  0  0  0  0
    6.6320    0.3370   21.3830 C   0  0  1  0  0  0  0  0  0  0  0  0
    3.4600    0.5140   22.8470 C   0  0  0  0  0  0  0  0  0  0  0  0
    3.6960    0.3890   20.6860 N   0  0  0  0  0  0  0  0  0  0  0  0
    8.2250    0.1920   21.7690 C   0  0  0  0  0  0  0  0  0  0  0  0
    6.2100    0.4190   19.9670 C   0  0  0  0  0  0  0  0  0  0  0  0
    2.3190    1.0700   22.3080 C   0  0  0  0  0  0  0  0  0  0  0  0
    2.4650    0.9880   20.9600 O   0  0  0  0  0  0  0  0  0  0  0  0
    8.6700    1.2490   22.2360 O   0  0  0  0  0  0  0  0  0  0  0  0
    9.1710   -0.9750   21.6630 N   0  0  0  0  0  0  0  0  0  0  0  0
    6.6850   -0.8170   19.4950 C   0  0  0  0  0  0  0  0  0  0  0  0
    5.5490    1.2550   19.0690 C   0  0  0  0  0  0  0  0  0  0  0  0
    1.1890    1.6260   22.9250 C   0  0  0  0  0  0  0  0  0  0  0  0
   10.3370   -0.9610   22.5930 C   0  0  0  0  0  0  0  0  0  0  0  0
    6.6250   -1.2940   18.3210 N   0  0  0  0  0  0  0  0  0  0  0  0
    5.4770    0.7710   17.7880 C   0  0  0  0  0  0  0  0  0  0  0  0
    4.9650    2.4980   19.3430 C   0  0  0  0  0  0  0  0  0  0  0  0
    1.1600    3.1100   23.3360 C   0  0  0  0  0  0  0  0  0  0  0  0
    0.8850    0.8150   24.2020 C   0  0  0  0  0  0  0  0  0  0  0  0
    0.0060    1.4430   21.9410 C   0  0  0  0  0  0  0  0  0  0  0  0
    9.9040   -0.6500   24.0070 C   0  0  0  0  0  0  0  0  0  0  0  0
   11.8070   -1.1800   22.4520 C   0  0  0  0  0  0  0  0  0  0  0  0
    6.0300   -0.4770   17.5020 C   0  0  0  0  0  0  0  0  0  0  0  0
   -0.8650    1.2830   21.1850 N   0  0  0  0  0  0  0  0  0  0  0  0
    8.4360   -0.5720   24.3180 C   0  0  0  0  0  0  0  0  0  0  0  0
   10.7850   -0.4610   25.0520 C   0  0  0  0  0  0  0  0  0  0  0  0
   12.5940   -0.9700   23.5670 C   0  0  0  0  0  0  0  0  0  0  0  0
   12.5840   -1.5830   21.3950 C   0  0  0  0  0  0  0  0  0  0  0  0
   12.1490   -0.6130   24.8010 C   0  0  0  0  0  0  0  0  0  0  0  0
   13.1060   -2.8040   21.5850 C   0  0  0  0  0  0  0  0  0  0  0  0
  1  2  1  0
  2  3  1  0
  3  4  2  0
  3  5  2  0
  3  6  1  0
  6  7  1  0
  6  8  1  0
  7  9  1  0
  7 10  2  0
  8 11  1  6
  8 12  1  0
  9 13  2  0
 10 14  1  0
 13 14  1  0
 11 15  2  0
 11 16  1  0
 12 17  2  0
 12 18  1  0
 13 19  1  0
 16 20  1  0
 17 21  1  0
 18 22  2  0
 18 23  1  0
 19 24  1  0
 19 25  1  0
 19 26  1  0
 20 27  2  0
 20 28  1  0
 21 29  2  0
 22 29  1  0
 26 30  3  0
 27 31  1  0
 27 32  1  0
 28 33  2  0
 28 34  1  0
 32 35  2  0
 33 35  1  0
 34 36  1  0
M  END
