DAR-DIA-2b784ede-43-bromoalkyne
     RDKit          3D

 32 34  0  0  0  0  0  0  0  0999 V2000
    6.9260   -3.2070   19.5490 C   0  0  0  0  0  0  0  0  0  0  0  0
    5.7030   -4.0750   19.8330 C   0  0  0  0  0  0  0  0  0  0  0  0
    6.9870   -1.8560   20.0400 N   0  0  0  0  0  0  0  0  0  0  0  0
    6.2890   -0.6940   19.3890 C   0  0  0  0  0  0  0  0  0  0  0  0
    7.5880   -1.5650   21.4110 C   0  0  1  0  0  0  0  0  0  0  0  0
    5.3010    0.2320   20.1670 C   0  0  0  0  0  0  0  0  0  0  0  0
    6.3130   -0.1310   18.0420 N   0  0  0  0  0  0  0  0  0  0  0  0
    8.4860   -2.5710   21.8910 C   0  0  0  0  0  0  0  0  0  0  0  0
    8.1260   -0.1480   21.5970 C   0  0  0  0  0  0  0  0  0  0  0  0
    4.9300    1.2250   19.0950 C   0  0  0  0  0  0  0  0  0  0  0  0
    5.5530    0.9820   17.7870 N   0  0  0  0  0  0  0  0  0  0  0  0
    7.9530   -3.5490   22.3620 O   0  0  0  0  0  0  0  0  0  0  0  0
    9.8890   -2.4770   21.8490 N   0  0  0  0  0  0  0  0  0  0  0  0
    7.2780    1.1120   21.2670 C   0  0  0  0  0  0  0  0  0  0  0  0
    9.4080    0.0840   22.0870 C   0  0  0  0  0  0  0  0  0  0  0  0
    3.9680    2.3000   19.6330 C   0  0  0  0  0  0  0  0  0  0  0  0
   10.7460   -1.8030   22.7660 C   0  0  0  0  0  0  0  0  0  0  0  0
    7.9350    2.4590   21.5140 C   0  0  0  0  0  0  0  0  0  0  0  0
    9.9970    1.2780   22.3110 N   0  0  0  0  0  0  0  0  0  0  0  0
    3.5250    3.1630   18.4650 C   0  0  0  0  0  0  0  0  0  0  0  0
    2.6980    1.7080   20.2490 C   0  0  0  0  0  0  0  0  0  0  0  0
    4.7030    3.1840   20.6600 C   0  0  0  0  0  0  0  0  0  0  0  0
   10.1050   -1.4210   23.9460 C   0  0  0  0  0  0  0  0  0  0  0  0
   12.1290   -1.5300   22.5200 C   0  0  0  0  0  0  0  0  0  0  0  0
    9.3540    2.4230   22.0590 C   0  0  0  0  0  0  0  0  0  0  0  0
    8.7690   -1.7500   24.1370 C   0  0  0  0  0  0  0  0  0  0  0  0
   10.8250   -0.7220   24.9050 C   0  0  0  0  0  0  0  0  0  0  0  0
   12.8400   -0.8290   23.4790 C   0  0  0  0  0  0  0  0  0  0  0  0
   12.8450   -1.9770   21.2830 C   0  0  0  0  0  0  0  0  0  0  0  0
   10.0650    3.5220   22.3230 N   0  0  0  0  0  0  0  0  0  0  0  0
   12.2830   -0.4000   24.6570 C   0  0  0  0  0  0  0  0  0  0  0  0
   13.8040   -1.0450   20.8250 O   0  0  0  0  0  0  0  0  0  0  0  0
  1  2  2  3
  1  3  1  0
  3  4  1  0
  3  5  1  0
  4  6  2  0
  4  7  1  0
  5  8  1  6
  5  9  1  0
  6 10  1  0
  7 11  1  0
 10 11  2  0
  8 12  2  0
  8 13  1  0
  9 14  2  0
  9 15  1  0
 10 16  1  0
 13 17  1  0
 14 18  1  0
 15 19  2  0
 16 20  1  0
 16 21  1  0
 16 22  1  0
 17 23  2  0
 17 24  1  0
 18 25  2  0
 19 25  1  0
 23 26  1  0
 23 27  1  0
 24 28  2  0
 24 29  1  0
 25 30  1  0
 27 31  2  0
 28 31  1  0
 29 32  1  0
M  END
