DAR-DIA-fb20be43-18-bromoalkyne
     RDKit          3D

 27 29  0  0  0  0  0  0  0  0999 V2000
    7.1000   -3.2780   19.5500 C   0  0  0  0  0  0  0  0  0  0  0  0
    6.2750   -2.8520   18.6230 C   0  0  0  0  0  0  0  0  0  0  0  0
    6.9530   -2.8140   20.8380 N   0  0  0  0  0  0  0  0  0  0  0  0
    7.4210   -1.4640   21.1660 C   0  0  0  0  0  0  0  0  0  0  0  0
    6.6640   -3.6520   21.9880 C   0  0  0  0  0  0  0  0  0  0  0  0
    8.7150   -1.5760   21.9740 C   0  0  0  0  0  0  0  0  0  0  0  0
    7.8260   -3.6940   22.9940 C   0  0  0  0  0  0  0  0  0  0  0  0
    8.6220   -2.4550   23.1630 N   0  0  0  0  0  0  0  0  0  0  0  0
    9.9970   -2.8000   23.5250 C   0  0  0  0  0  0  0  0  0  0  0  0
   10.9030   -1.6110   23.4790 C   0  0  0  0  0  0  0  0  0  0  0  0
   11.9530   -1.6040   22.5420 C   0  0  0  0  0  0  0  0  0  0  0  0
   10.7410   -0.4920   24.3240 C   0  0  0  0  0  0  0  0  0  0  0  0
   12.7560   -0.4960   22.5150 C   0  0  0  0  0  0  0  0  0  0  0  0
   11.5660    0.5340   24.2480 N   0  0  0  0  0  0  0  0  0  0  0  0
    9.7030   -0.2200   25.3850 C   0  0  0  0  0  0  0  0  0  0  0  0
   13.7360   -0.3480   21.6840 O   0  0  0  0  0  0  0  0  0  0  0  0
   12.5270    0.5120   23.3700 C   0  0  0  0  0  0  0  0  0  0  0  0
    9.1860    1.0900   25.2330 N   0  0  0  0  0  0  0  0  0  0  0  0
   13.9480    1.0400   21.9020 C   0  0  0  0  0  0  0  0  0  0  0  0
    9.8880    2.1210   24.4350 C   0  0  0  0  0  0  0  0  0  0  0  0
   11.0760    2.0580   24.1290 O   0  0  0  0  0  0  0  0  0  0  0  0
    9.0660    3.2470   24.0300 N   0  0  0  0  0  0  0  0  0  0  0  0
    9.6080    4.2400   23.2610 C   0  0  0  0  0  0  0  0  0  0  0  0
    7.9810    3.6970   24.9060 C   0  0  0  0  0  0  0  0  0  0  0  0
    9.6350    5.4470   23.8640 C   0  0  0  0  0  0  0  0  0  0  0  0
    8.0800    5.0920   25.1220 C   0  0  0  0  0  0  0  0  0  0  0  0
    8.5210    5.8200   24.2360 O   0  0  0  0  0  0  0  0  0  0  0  0
  1  2  2  3
  1  3  1  0
  3  4  1  0
  3  5  1  0
  4  6  1  0
  5  7  1  0
  6  8  1  0
  7  8  1  0
  8  9  1  0
  9 10  1  0
 10 11  2  0
 10 12  1  0
 11 13  1  0
 12 14  2  0
 12 15  1  0
 13 16  1  0
 13 17  2  0
 14 17  1  0
 15 18  1  0
 16 19  1  0
 18 20  1  0
 20 21  2  0
 20 22  1  0
 22 23  1  0
 22 24  1  0
 23 25  1  0
 24 26  1  0
 25 27  1  0
 26 27  1  0
M  END
