DAR-DIA-2b784ede-51-chloroacetamide
     RDKit          3D

 33 35  0  0  0  0  0  0  0  0999 V2000
    7.2600   -4.0440   20.5030 C   0  0  0  0  0  0  0  0  0  0  0  0
    6.0530   -3.2460   20.1430 C   0  0  0  0  0  0  0  0  0  0  0  0
    5.1280   -3.7250   19.4760 O   0  0  0  0  0  0  0  0  0  0  0  0
    6.0160   -1.9530   20.5920 N   0  0  0  0  0  0  0  0  0  0  0  0
    5.4870   -0.8720   19.7040 C   0  0  0  0  0  0  0  0  0  0  0  0
    7.0280   -1.4100   21.6280 C   0  0  1  0  0  0  0  0  0  0  0  0
    4.7810    0.1870   20.5130 C   0  0  0  0  0  0  0  0  0  0  0  0
    5.3970   -0.4280   18.2610 N   0  0  0  0  0  0  0  0  0  0  0  0
    8.1910   -2.1900   21.9530 C   0  0  0  0  0  0  0  0  0  0  0  0
    7.1390   -0.4980   20.5560 C   0  0  0  0  0  0  0  0  0  0  0  0
    4.3720    1.1050   19.4710 C   0  0  0  0  0  0  0  0  0  0  0  0
    4.7400    0.7510   18.0890 N   0  0  0  0  0  0  0  0  0  0  0  0
    7.7630   -3.3460   22.6510 O   0  0  0  0  0  0  0  0  0  0  0  0
    9.5550   -1.9390   21.7410 N   0  0  0  0  0  0  0  0  0  0  0  0
    7.4150   -1.2910   19.3540 C   0  0  0  0  0  0  0  0  0  0  0  0
    6.9730    0.8670   20.5400 C   0  0  0  0  0  0  0  0  0  0  0  0
    3.6430    2.2100   20.1880 C   0  0  0  0  0  0  0  0  0  0  0  0
   10.5370   -1.5070   22.7270 C   0  0  0  0  0  0  0  0  0  0  0  0
    7.4570   -0.5150   18.1910 C   0  0  0  0  0  0  0  0  0  0  0  0
    7.0250    1.5590   19.3950 N   0  0  0  0  0  0  0  0  0  0  0  0
    2.6160    2.8360   19.2390 C   0  0  0  0  0  0  0  0  0  0  0  0
    4.5990    3.3060   20.7110 C   0  0  0  0  0  0  0  0  0  0  0  0
    2.9690    1.4110   21.3480 C   0  0  0  0  0  0  0  0  0  0  0  0
   10.0020   -1.1210   23.9590 C   0  0  0  0  0  0  0  0  0  0  0  0
   11.9450   -1.4590   22.4950 C   0  0  0  0  0  0  0  0  0  0  0  0
    7.2520    0.8620   18.2480 C   0  0  0  0  0  0  0  0  0  0  0  0
    8.6430   -1.2070   24.1850 C   0  0  0  0  0  0  0  0  0  0  0  0
   10.8470   -0.6550   24.9590 C   0  0  0  0  0  0  0  0  0  0  0  0
   12.7900   -0.9890   23.4950 C   0  0  0  0  0  0  0  0  0  0  0  0
   12.5340   -1.9020   21.2080 C   0  0  0  0  0  0  0  0  0  0  0  0
   12.3400   -0.5740   24.7200 C   0  0  0  0  0  0  0  0  0  0  0  0
   13.0530   -3.2400   20.9940 C   0  0  0  0  0  0  0  0  0  0  0  0
   13.6900   -1.1350   20.7950 C   0  0  0  0  0  0  0  0  0  0  0  0
  1  2  1  0
  2  3  2  0
  2  4  1  0
  4  5  1  0
  4  6  1  0
  5  7  2  0
  5  8  1  0
  6  9  1  6
  6 10  1  0
  7 11  1  0
  8 12  1  0
 11 12  2  0
  9 13  2  0
  9 14  1  0
 10 15  2  0
 10 16  1  0
 11 17  1  0
 14 18  1  0
 15 19  1  0
 16 20  2  0
 17 21  1  0
 17 22  1  0
 17 23  1  0
 18 24  2  0
 18 25  1  0
 19 26  2  0
 20 26  1  0
 24 27  1  0
 24 28  1  0
 25 29  2  0
 25 30  1  0
 28 31  2  0
 29 31  1  0
 30 32  1  0
 30 33  1  0
M  END
