DAR-DIA-23aa0b97-8-chloroacetamide
     RDKit          3D

 20 21  0  0  0  0  0  0  0  0999 V2000
    8.1020   -4.6100   20.9860 C   0  0  0  0  0  0  0  0  0  0  0  0
    8.5210   -3.3150   20.3900 C   0  0  0  0  0  0  0  0  0  0  0  0
    7.8390   -3.2100   19.1640 O   0  0  0  0  0  0  0  0  0  0  0  0
    9.4980   -2.3460   21.3280 C   0  0  0  0  0  0  0  0  0  0  0  0
   11.0390   -2.2650   21.7670 C   0  0  0  0  0  0  0  0  0  0  0  0
    8.8290   -1.3420   21.8860 C   0  0  0  0  0  0  0  0  0  0  0  0
   11.4760   -1.1430   22.7050 C   0  0  0  0  0  0  0  0  0  0  0  0
    9.3290   -0.3670   22.7140 C   0  0  0  0  0  0  0  0  0  0  0  0
   10.6070   -0.2190   23.1600 C   0  0  0  0  0  0  0  0  0  0  0  0
    8.4120    0.5980   23.1020 N   0  0  0  0  0  0  0  0  0  0  0  0
    7.8980    0.8950   21.8740 C   0  0  0  0  0  0  0  0  0  0  0  0
    8.2940    1.7780   21.1130 O   0  0  0  0  0  0  0  0  0  0  0  0
    6.8340   -0.0230   21.4200 N   0  0  0  0  0  0  0  0  0  0  0  0
    6.2230    0.3050   20.2940 C   0  0  0  0  0  0  0  0  0  0  0  0
    6.9370   -0.0340   18.9980 C   0  0  0  0  0  0  0  0  0  0  0  0
    5.0000    0.9460   20.2750 C   0  0  0  0  0  0  0  0  0  0  0  0
    6.2160    0.4230   17.8310 N   0  0  0  0  0  0  0  0  0  0  0  0
    4.4160    1.3270   19.0820 C   0  0  0  0  0  0  0  0  0  0  0  0
    5.0270    1.0750   17.8730 C   0  0  0  0  0  0  0  0  0  0  0  0
    3.2390    1.9570   19.1090 N   0  0  0  0  0  0  0  0  0  0  0  0
  1  2  1  0
  2  3  2  0
  2  4  1  0
  4  5  2  0
  4  6  1  0
  5  7  1  0
  6  8  2  0
  7  9  2  0
  8  9  1  0
  8 10  1  0
 10 11  1  0
 11 12  2  0
 11 13  1  0
 13 14  1  0
 14 15  2  0
 14 16  1  0
 15 17  1  0
 16 18  2  0
 17 19  2  0
 18 19  1  0
 18 20  1  0
M  END
