DAR-DIA-3e9bbd81-14-acrylamide
     RDKit          3D

 28 32  0  0  0  0  0  0  0  0999 V2000
    8.0410   -3.3080   18.9960 C   0  0  0  0  0  0  0  0  0  0  0  0
    6.7870   -2.5460   18.7530 C   0  0  0  0  0  0  0  0  0  0  0  0
    5.9440   -2.6710   19.9560 C   0  0  0  0  0  0  0  0  0  0  0  0
    4.9490   -3.3760   19.9700 O   0  0  0  0  0  0  0  0  0  0  0  0
    6.3850   -1.9740   21.0350 N   0  0  0  0  0  0  0  0  0  0  0  0
    7.5350   -1.0730   20.8840 C   0  0  0  0  0  0  0  0  0  0  0  0
    6.2840   -2.3360   22.4750 C   0  0  2  0  0  0  0  0  0  0  0  0
    7.8360   -0.9680   22.3230 C   0  0  1  0  0  0  0  0  0  0  0  0
    6.7720   -1.0650   23.1890 C   0  0  0  0  0  0  0  0  0  0  0  0
    7.3010   -3.1600   22.8220 C   0  0  0  0  0  0  0  0  0  0  0  0
    8.4770   -2.2780   22.6040 N   0  0  0  0  0  0  0  0  0  0  0  0
    9.4410   -2.2910   23.7020 C   0  0  1  0  0  0  0  0  0  0  0  0
   10.4800   -1.4130   23.4970 C   0  0  0  0  0  0  0  0  0  0  0  0
    8.7710   -2.1740   25.0140 N   0  0  0  0  0  0  0  0  0  0  0  0
   10.6850   -0.1840   24.1770 C   0  0  0  0  0  0  0  0  0  0  0  0
   11.4060   -1.7810   22.5470 C   0  0  0  0  0  0  0  0  0  0  0  0
    8.3170   -1.0260   25.6240 C   0  0  0  0  0  0  0  0  0  0  0  0
    8.5120   -3.2690   25.8310 C   0  0  0  0  0  0  0  0  0  0  0  0
   11.8040    0.6160   23.8800 C   0  0  0  0  0  0  0  0  0  0  0  0
   12.4810   -1.0070   22.2680 C   0  0  0  0  0  0  0  0  0  0  0  0
    7.7660   -1.3700   26.8360 C   0  0  0  0  0  0  0  0  0  0  0  0
    7.8830   -2.7780   26.9830 C   0  0  0  0  0  0  0  0  0  0  0  0
    8.7790   -4.6450   25.6710 C   0  0  0  0  0  0  0  0  0  0  0  0
   12.7200    0.2020   22.9140 C   0  0  0  0  0  0  0  0  0  0  0  0
   13.4640   -1.6590   21.0710 Cl  0  0  0  0  0  0  0  0  0  0  0  0
    7.5120   -3.6840   28.0010 C   0  0  0  0  0  0  0  0  0  0  0  0
    8.4050   -5.5190   26.6990 C   0  0  0  0  0  0  0  0  0  0  0  0
    7.7790   -5.0480   27.8490 C   0  0  0  0  0  0  0  0  0  0  0  0
  1  2  1  0
  2  3  1  0
  3  4  2  0
  3  5  1  0
  5  6  1  0
  5  7  1  0
  8  6  1  6
  7  9  1  0
  8  9  1  0
  7 10  1  6
  8 11  1  0
 10 11  1  0
 11 12  1  0
 12 13  1  6
 12 14  1  0
 13 15  2  0
 13 16  1  0
 14 17  1  0
 14 18  1  0
 15 19  1  0
 16 20  2  0
 17 21  2  0
 18 22  2  0
 21 22  1  0
 18 23  1  0
 19 24  2  0
 20 24  1  0
 20 25  1  0
 22 26  1  0
 23 27  2  0
 26 28  2  0
 27 28  1  0
M  END
