DAR-DIA-43a5904b-7
     RDKit          3D

 22 24  0  0  0  0  0  0  0  0999 V2000
   10.0050    3.0110   22.2650 N   0  0  0  0  0  0  0  0  0  0  0  0
    9.2300    1.8860   22.1530 C   0  0  0  0  0  0  0  0  0  0  0  0
    8.8090    1.5840   21.0460 O   0  0  0  0  0  0  0  0  0  0  0  0
    8.9040    1.1200   23.4180 C   0  0  1  0  0  0  0  0  0  0  0  0
    7.3810    1.0340   23.3370 C   0  0  0  0  0  0  0  0  0  0  0  0
    9.2630   -0.4310   23.4300 C   0  0  1  0  0  0  0  0  0  0  0  0
    7.1220   -0.2710   22.6240 C   0  0  0  0  0  0  0  0  0  0  0  0
    8.2170   -1.0110   22.7110 C   0  0  0  0  0  0  0  0  0  0  0  0
   10.5430   -0.9500   23.2010 C   0  0  0  0  0  0  0  0  0  0  0  0
    5.7890   -0.4940   21.9730 C   0  0  0  0  0  0  0  0  0  0  0  0
   11.0200   -1.1570   21.9200 C   0  0  0  0  0  0  0  0  0  0  0  0
   11.3670   -1.3020   24.2510 C   0  0  0  0  0  0  0  0  0  0  0  0
    5.5360    0.0980   20.7570 C   0  0  0  0  0  0  0  0  0  0  0  0
   12.2900   -1.6940   21.7000 C   0  0  0  0  0  0  0  0  0  0  0  0
   12.6090   -1.8390   24.0310 C   0  0  0  0  0  0  0  0  0  0  0  0
    4.2720    0.6190   20.4380 C   0  0  0  0  0  0  0  0  0  0  0  0
    6.5730    0.1980   19.7860 C   0  0  0  0  0  0  0  0  0  0  0  0
   13.0650   -2.0300   22.7690 C   0  0  0  0  0  0  0  0  0  0  0  0
   13.5850   -2.3070   25.3500 Cl  0  0  0  0  0  0  0  0  0  0  0  0
    4.0210    1.2240   19.2100 C   0  0  0  0  0  0  0  0  0  0  0  0
    6.3450    0.8090   18.5350 C   0  0  0  0  0  0  0  0  0  0  0  0
    5.1000    1.3360   18.1930 C   0  0  0  0  0  0  0  0  0  0  0  0
  1  2  1  0
  2  3  2  0
  4  2  1  6
  4  5  1  0
  4  6  1  0
  5  7  1  0
  6  8  1  0
  7  8  2  0
  6  9  1  6
  7 10  1  0
  9 11  2  0
  9 12  1  0
 10 13  1  0
 11 14  1  0
 12 15  2  0
 13 16  2  0
 13 17  1  0
 14 18  2  0
 15 18  1  0
 15 19  1  0
 16 20  1  0
 17 21  2  0
 20 22  2  0
 21 22  1  0
M  END
