DAR-DIA-fb20be43-6-chloroacetamide
     RDKit          3D

 22 24  0  0  0  0  0  0  0  0999 V2000
    7.3040   -2.9310   18.7490 C   0  0  0  0  0  0  0  0  0  0  0  0
    6.4120   -3.0870   19.7190 C   0  0  0  0  0  0  0  0  0  0  0  0
    5.4790   -3.8860   19.5750 O   0  0  0  0  0  0  0  0  0  0  0  0
    6.5240   -2.3550   20.8840 N   0  0  0  0  0  0  0  0  0  0  0  0
    6.1550   -3.0210   22.1490 C   0  0  0  0  0  0  0  0  0  0  0  0
    7.4830   -1.2420   20.9410 C   0  0  0  0  0  0  0  0  0  0  0  0
    7.3920   -3.2850   23.0220 C   0  0  0  0  0  0  0  0  0  0  0  0
    8.6540   -1.5510   21.8760 C   0  0  0  0  0  0  0  0  0  0  0  0
    8.1900   -2.0730   23.1760 N   0  0  0  0  0  0  0  0  0  0  0  0
    9.3070   -2.2370   24.1000 C   0  0  0  0  0  0  0  0  0  0  0  0
   10.4240   -1.4080   23.5930 C   0  0  0  0  0  0  0  0  0  0  0  0
   11.3700   -1.9950   22.8150 C   0  0  0  0  0  0  0  0  0  0  0  0
   10.4870   -0.0490   23.8690 C   0  0  0  0  0  0  0  0  0  0  0  0
   12.3950   -1.2840   22.2960 C   0  0  0  0  0  0  0  0  0  0  0  0
   11.5620    0.7050   23.3310 C   0  0  0  0  0  0  0  0  0  0  0  0
    9.4070    0.6000   24.7130 C   0  0  0  0  0  0  0  0  0  0  0  0
   13.2160   -2.0400   21.4920 C   0  0  0  0  0  0  0  0  0  0  0  0
   12.5280    0.0620   22.5550 C   0  0  0  0  0  0  0  0  0  0  0  0
   11.6730    2.1910   23.5580 C   0  0  0  0  0  0  0  0  0  0  0  0
    9.4450    2.0970   24.9710 C   0  0  0  0  0  0  0  0  0  0  0  0
   13.7110   -2.7330   20.7580 N   0  0  0  0  0  0  0  0  0  0  0  0
   10.6090    2.8980   24.3660 C   0  0  0  0  0  0  0  0  0  0  0  0
  1  2  1  0
  2  3  2  0
  2  4  1  0
  4  5  1  0
  4  6  1  0
  5  7  1  0
  6  8  1  0
  7  9  1  0
  8  9  1  0
  9 10  1  0
 10 11  1  0
 11 12  2  0
 11 13  1  0
 12 14  1  0
 13 15  2  0
 13 16  1  0
 14 17  1  0
 14 18  2  0
 15 18  1  0
 15 19  1  0
 16 20  2  0
 17 21  3  0
 19 22  2  0
 20 22  1  0
M  END
