DAR-DIA-3e9bbd81-1-chloroacetamide
     RDKit          3D

 22 25  0  0  0  0  0  0  0  0999 V2000
    7.4130   -2.9600   18.7590 C   0  0  0  0  0  0  0  0  0  0  0  0
    6.3700   -3.1540   19.8090 C   0  0  0  0  0  0  0  0  0  0  0  0
    5.3900   -3.8730   19.5870 O   0  0  0  0  0  0  0  0  0  0  0  0
    6.5240   -2.5430   21.0250 N   0  0  0  0  0  0  0  0  0  0  0  0
    6.2390   -3.2980   22.2460 C   0  0  0  0  0  0  0  0  0  0  0  0
    7.3560   -1.3840   21.4320 C   0  0  1  0  0  0  0  0  0  0  0  0
    7.1390   -2.5730   23.2710 C   0  0  2  0  0  0  0  0  0  0  0  0
    6.8500   -1.1300   22.8460 C   0  0  0  0  0  0  0  0  0  0  0  0
    8.7940   -1.8230   21.7510 C   0  0  0  0  0  0  0  0  0  0  0  0
    8.5900   -2.6430   22.9810 N   0  0  0  0  0  0  0  0  0  0  0  0
    9.4810   -2.2990   24.0770 C   0  0  0  0  0  0  0  0  0  0  0  0
   10.4460   -1.4450   23.6040 C   0  0  0  0  0  0  0  0  0  0  0  0
   11.4020   -1.9620   22.7910 C   0  0  0  0  0  0  0  0  0  0  0  0
   10.4530   -0.0710   23.9000 C   0  0  0  0  0  0  0  0  0  0  0  0
   12.3650   -1.1680   22.2740 C   0  0  0  0  0  0  0  0  0  0  0  0
   11.4830    0.7440   23.3520 C   0  0  0  0  0  0  0  0  0  0  0  0
    9.4630    0.5190   24.7020 C   0  0  0  0  0  0  0  0  0  0  0  0
   13.4100   -1.9490   21.2380 Cl  0  0  0  0  0  0  0  0  0  0  0  0
   12.4500    0.1750   22.5540 C   0  0  0  0  0  0  0  0  0  0  0  0
   11.5380    2.1110   23.5730 C   0  0  0  0  0  0  0  0  0  0  0  0
    9.4620    1.8730   24.9400 C   0  0  0  0  0  0  0  0  0  0  0  0
   10.5700    2.7210   24.3270 C   0  0  0  0  0  0  0  0  0  0  0  0
  1  2  1  0
  2  3  2  0
  2  4  1  0
  4  5  1  0
  4  6  1  0
  7  5  1  6
  6  8  1  0
  7  8  1  0
  6  9  1  1
  7 10  1  0
  9 10  1  0
 10 11  1  0
 11 12  1  0
 12 13  2  0
 12 14  1  0
 13 15  1  0
 14 16  2  0
 14 17  1  0
 15 18  1  0
 15 19  2  0
 16 19  1  0
 16 20  1  0
 17 21  2  0
 20 22  2  0
 21 22  1  0
M  END
