DAR-DIA-23aa0b97-11-bromoalkyne
     RDKit          3D

 21 23  0  0  0  0  0  0  0  0999 V2000
    7.5940   -3.4910   19.9400 C   0  0  0  0  0  0  0  0  0  0  0  0
    6.0870   -3.6830   19.6440 C   0  0  0  0  0  0  0  0  0  0  0  0
    8.2090   -2.5520   21.0250 C   0  0  0  0  0  0  0  0  0  0  0  0
    9.7680   -2.5430   21.3910 C   0  0  0  0  0  0  0  0  0  0  0  0
    7.4800   -1.5690   21.8260 C   0  0  0  0  0  0  0  0  0  0  0  0
    9.9540   -1.5580   22.4180 C   0  0  0  0  0  0  0  0  0  0  0  0
    8.3040   -0.8430   22.7310 C   0  0  0  0  0  0  0  0  0  0  0  0
    8.7340   -1.7760   21.9240 C   0  0  0  0  0  0  0  0  0  0  0  0
    7.1800   -0.0700   23.1970 N   0  0  0  0  0  0  0  0  0  0  0  0
    7.1340    1.1690   22.6270 C   0  0  0  0  0  0  0  0  0  0  0  0
    6.8200    2.2180   23.1800 O   0  0  0  0  0  0  0  0  0  0  0  0
    7.5520    1.0180   21.2230 N   0  0  0  0  0  0  0  0  0  0  0  0
    6.6330    1.0380   20.2490 C   0  0  0  0  0  0  0  0  0  0  0  0
    6.8310    0.5440   18.8220 C   0  0  0  0  0  0  0  0  0  0  0  0
    5.2550    1.5310   20.3440 C   0  0  0  0  0  0  0  0  0  0  0  0
    5.5100    0.8160   18.2210 N   0  0  0  0  0  0  0  0  0  0  0  0
    4.6330    1.3870   19.1430 C   0  0  0  0  0  0  0  0  0  0  0  0
    4.6110    2.0810   21.4660 C   0  0  0  0  0  0  0  0  0  0  0  0
    3.3580    1.7510   18.9100 N   0  0  0  0  0  0  0  0  0  0  0  0
    3.2700    2.4750   21.2740 C   0  0  0  0  0  0  0  0  0  0  0  0
    2.6870    2.3000   20.0080 C   0  0  0  0  0  0  0  0  0  0  0  0
  1  2  2  3
  1  3  1  0
  3  4  2  0
  3  5  1  0
  4  6  1  0
  5  7  2  0
  6  8  2  0
  7  8  1  0
  7  9  1  0
  9 10  1  0
 10 11  2  0
 10 12  1  0
 12 13  1  0
 13 14  2  0
 13 15  1  0
 14 16  1  0
 15 17  2  0
 16 17  1  0
 15 18  1  0
 17 19  1  0
 18 20  2  0
 19 21  2  0
 20 21  1  0
M  END
