DAR-DIA-caba39e3-3-acrylamide
     RDKit          3D

 25 28  0  0  0  0  0  0  0  0999 V2000
    7.5020   -2.8600   18.2960 C   0  0  0  0  0  0  0  0  0  0  0  0
    6.6070   -2.2110   19.3000 C   0  0  0  0  0  0  0  0  0  0  0  0
    6.1490   -3.1140   20.4050 C   0  0  0  0  0  0  0  0  0  0  0  0
    5.2750   -3.9960   20.2900 O   0  0  0  0  0  0  0  0  0  0  0  0
    6.7740   -2.9100   21.5970 N   0  0  0  0  0  0  0  0  0  0  0  0
    6.2860   -3.4660   22.7390 C   0  0  0  0  0  0  0  0  0  0  0  0
    7.9440   -2.1490   21.7730 C   0  0  0  0  0  0  0  0  0  0  0  0
    7.4240   -3.8770   23.6570 C   0  0  0  0  0  0  0  0  0  0  0  0
    9.0380   -2.6160   22.4390 C   0  0  2  0  0  0  0  0  0  0  0  0
    6.9600   -4.7950   24.7680 C   0  0  0  0  0  0  0  0  0  0  0  0
    8.7360   -3.4560   23.4870 C   0  0  0  0  0  0  0  0  0  0  0  0
    9.8900   -1.6170   22.8330 C   0  0  0  0  0  0  0  0  0  0  0  0
    8.0040   -5.2920   25.7670 C   0  0  0  0  0  0  0  0  0  0  0  0
    9.7340   -3.8700   24.3580 C   0  0  0  0  0  0  0  0  0  0  0  0
   11.2360   -1.5770   22.4060 C   0  0  0  0  0  0  0  0  0  0  0  0
    9.4060   -0.6090   23.6760 C   0  0  0  0  0  0  0  0  0  0  0  0
    9.4500   -4.8090   25.5470 C   0  0  0  0  0  0  0  0  0  0  0  0
   12.0680   -0.5350   22.8250 C   0  0  0  0  0  0  0  0  0  0  0  0
   10.2050    0.4230   24.0950 C   0  0  0  0  0  0  0  0  0  0  0  0
    8.1250   -0.4110   24.2430 N   0  0  0  0  0  0  0  0  0  0  0  0
   13.3210   -0.4810   22.4200 O   0  0  0  0  0  0  0  0  0  0  0  0
   11.4920    0.5130   23.7230 C   0  0  0  0  0  0  0  0  0  0  0  0
    9.4440    1.2650   24.9060 C   0  0  0  0  0  0  0  0  0  0  0  0
    8.1510    0.7620   25.0130 C   0  0  0  0  0  0  0  0  0  0  0  0
   13.5430    0.8670   22.6690 C   0  0  0  0  0  0  0  0  0  0  0  0
  1  2  1  0
  2  3  1  0
  3  4  2  0
  3  5  1  0
  5  6  1  0
  5  7  1  0
  6  8  1  0
  7  9  1  0
  8 10  1  0
  8 11  2  0
  9 11  1  0
  9 12  1  1
 10 13  2  0
 11 14  1  0
 12 15  2  0
 12 16  1  0
 13 17  1  0
 14 17  2  0
 15 18  1  0
 16 19  2  0
 16 20  1  0
 18 21  1  0
 18 22  2  0
 19 22  1  0
 19 23  1  0
 20 24  1  0
 23 24  2  0
 21 25  1  0
M  END
