DAR-DIA-fb20be43-14-bromoalkyne
     RDKit          3D

 26 28  0  0  0  0  0  0  0  0999 V2000
    6.9770   -3.2810   19.5160 C   0  0  0  0  0  0  0  0  0  0  0  0
    6.0870   -2.8360   18.6670 C   0  0  0  0  0  0  0  0  0  0  0  0
    6.9930   -2.7610   20.7960 N   0  0  0  0  0  0  0  0  0  0  0  0
    6.7340   -3.5000   22.0460 C   0  0  0  0  0  0  0  0  0  0  0  0
    7.4870   -1.3810   20.9340 C   0  0  0  0  0  0  0  0  0  0  0  0
    7.8540   -3.2790   23.0950 C   0  0  0  0  0  0  0  0  0  0  0  0
    8.6680   -1.3320   21.8960 C   0  0  0  0  0  0  0  0  0  0  0  0
    8.3000   -1.8740   23.2070 N   0  0  0  0  0  0  0  0  0  0  0  0
    9.3700   -1.7220   24.1970 C   0  0  0  0  0  0  0  0  0  0  0  0
   10.5170   -0.8880   23.7070 C   0  0  0  0  0  0  0  0  0  0  0  0
   11.6130   -1.5980   23.2120 C   0  0  0  0  0  0  0  0  0  0  0  0
   10.6190    0.5220   23.6700 C   0  0  0  0  0  0  0  0  0  0  0  0
   12.7310   -0.9670   22.7210 C   0  0  0  0  0  0  0  0  0  0  0  0
   11.7410    1.1270   23.1690 C   0  0  0  0  0  0  0  0  0  0  0  0
    9.7750    1.5640   24.0500 N   0  0  0  0  0  0  0  0  0  0  0  0
   13.6370   -1.8140   22.2820 O   0  0  0  0  0  0  0  0  0  0  0  0
   12.8110    0.3950   22.7040 C   0  0  0  0  0  0  0  0  0  0  0  0
   11.5730    2.6110   23.2140 C   0  0  0  0  0  0  0  0  0  0  0  0
   10.3340    2.8120   23.7760 C   0  0  0  0  0  0  0  0  0  0  0  0
   13.3200   -2.1270   20.9530 C   0  0  0  0  0  0  0  0  0  0  0  0
   12.5690    3.6620   22.7190 C   0  0  0  0  0  0  0  0  0  0  0  0
   12.4050    5.0680   23.2550 C   0  0  0  0  0  0  0  0  0  0  0  0
   11.2450    5.6930   22.6270 N   0  0  0  0  0  0  0  0  0  0  0  0
   10.2230    6.1860   23.3920 C   0  0  0  0  0  0  0  0  0  0  0  0
    9.0440    6.6170   22.5770 C   0  0  0  0  0  0  0  0  0  0  0  0
   10.2510    6.2770   24.6150 O   0  0  0  0  0  0  0  0  0  0  0  0
  1  2  2  3
  1  3  1  0
  3  4  1  0
  3  5  1  0
  4  6  1  0
  5  7  1  0
  6  8  1  0
  7  8  1  0
  8  9  1  0
  9 10  1  0
 10 11  2  0
 10 12  1  0
 11 13  1  0
 12 14  2  0
 12 15  1  0
 13 16  1  0
 13 17  2  0
 14 17  1  0
 14 18  1  0
 15 19  1  0
 18 19  2  0
 16 20  1  0
 18 21  1  0
 21 22  1  0
 22 23  1  0
 23 24  1  0
 24 25  1  0
 24 26  2  0
M  END
