DAR-DIA-0cde14eb-11
     RDKit          3D

 22 24  0  0  0  0  0  0  0  0999 V2000
    5.0990    0.8010   22.0010 C   0  0  0  0  0  0  0  0  0  0  0  0
    5.5290    0.6060   20.5670 C   0  0  0  0  0  0  0  0  0  0  0  0
    4.8090    1.3920   19.5220 C   0  0  0  0  0  0  0  0  0  0  0  0
    6.5440   -0.2420   20.1410 C   0  0  0  0  0  0  0  0  0  0  0  0
    5.1850    1.2420   18.2050 C   0  0  0  0  0  0  0  0  0  0  0  0
    6.8070   -0.2880   18.7790 C   0  0  0  0  0  0  0  0  0  0  0  0
    7.2840   -1.0070   20.9600 N   0  0  0  0  0  0  0  0  0  0  0  0
    6.1730    0.4160   17.8000 N   0  0  0  0  0  0  0  0  0  0  0  0
    8.3480   -0.4120   21.5730 C   0  0  0  0  0  0  0  0  0  0  0  0
    8.7330    0.7220   21.3070 O   0  0  0  0  0  0  0  0  0  0  0  0
    9.0130   -1.1420   22.5470 C   0  0  1  0  0  0  0  0  0  0  0  0
    9.2030   -2.6590   22.3850 C   0  0  0  0  0  0  0  0  0  0  0  0
   10.3450   -0.4850   22.6940 C   0  0  0  0  0  0  0  0  0  0  0  0
   11.7070   -1.1700   22.6430 C   0  0  0  0  0  0  0  0  0  0  0  0
   10.3330    0.9200   22.8890 C   0  0  0  0  0  0  0  0  0  0  0  0
   12.8430   -0.3850   22.7870 C   0  0  0  0  0  0  0  0  0  0  0  0
   11.4760    1.7160   23.0250 C   0  0  0  0  0  0  0  0  0  0  0  0
   12.7240    1.0870   22.9790 C   0  0  0  0  0  0  0  0  0  0  0  0
   11.3200    3.1980   23.1990 C   0  0  0  0  0  0  0  0  0  0  0  0
   12.6870    4.1600   22.6010 Cl  0  0  0  0  0  0  0  0  0  0  0  0
   10.5450    3.7680   24.1450 C   0  0  0  0  0  0  0  0  0  0  0  0
    9.9140    3.8020   22.8230 C   0  0  0  0  0  0  0  0  0  0  0  0
  1  2  1  0
  2  3  2  0
  2  4  1  0
  3  5  1  0
  4  6  2  0
  4  7  1  0
  5  8  2  0
  6  8  1  0
  7  9  1  0
  9 10  2  0
  9 11  1  0
 11 12  1  6
 11 13  1  0
 13 14  2  0
 13 15  1  0
 14 16  1  0
 15 17  2  0
 16 18  2  0
 17 18  1  0
 17 19  1  0
 19 20  1  0
 19 21  1  0
 19 22  1  0
 21 22  1  0
M  END
