DAR-DIA-2b784ede-29-acrylamide
     RDKit          3D

 35 37  0  0  0  0  0  0  0  0999 V2000
    7.5540   -2.7610   19.7380 C   0  0  0  0  0  0  0  0  0  0  0  0
    6.9640   -1.8920   20.9580 C   0  0  0  0  0  0  0  0  0  0  0  0
    5.5250   -2.2900   21.2600 C   0  0  0  0  0  0  0  0  0  0  0  0
    4.2850   -2.6340   21.5210 O   0  0  0  0  0  0  0  0  0  0  0  0
    5.5210   -0.7990   21.8100 N   0  0  0  0  0  0  0  0  0  0  0  0
    4.6580    0.1060   21.1120 C   0  0  0  0  0  0  0  0  0  0  0  0
    6.0260   -0.2290   23.2490 C   0  0  1  0  0  0  0  0  0  0  0  0
    4.8830    0.5620   19.8130 C   0  0  0  0  0  0  0  0  0  0  0  0
    3.4910    0.7110   21.4880 C   0  0  0  0  0  0  0  0  0  0  0  0
    7.3980    0.6340   23.4920 C   0  0  0  0  0  0  0  0  0  0  0  0
    4.9040    0.6950   23.7470 C   0  0  0  0  0  0  0  0  0  0  0  0
    3.9550    1.4010   19.3600 N   0  0  0  0  0  0  0  0  0  0  0  0
    3.0940    1.5030   20.3990 N   0  0  0  0  0  0  0  0  0  0  0  0
    7.8700    1.4980   22.7230 O   0  0  0  0  0  0  0  0  0  0  0  0
    8.0360    0.4330   24.7490 N   0  0  0  0  0  0  0  0  0  0  0  0
    3.8300    0.2060   24.4750 C   0  0  0  0  0  0  0  0  0  0  0  0
    4.8950    2.0960   23.4610 C   0  0  0  0  0  0  0  0  0  0  0  0
    1.9050    2.3640   20.2660 C   0  0  0  0  0  0  0  0  0  0  0  0
    9.4330    0.6550   25.0170 C   0  0  0  0  0  0  0  0  0  0  0  0
    2.8100    0.9590   24.9230 N   0  0  0  0  0  0  0  0  0  0  0  0
    3.8500    2.8480   23.9330 C   0  0  0  0  0  0  0  0  0  0  0  0
    5.9600    2.8180   22.6690 C   0  0  0  0  0  0  0  0  0  0  0  0
    1.8400    3.0130   18.8770 C   0  0  0  0  0  0  0  0  0  0  0  0
    0.6360    1.5230   20.5160 C   0  0  0  0  0  0  0  0  0  0  0  0
    1.9620    3.5120   21.3130 C   0  0  0  0  0  0  0  0  0  0  0  0
   10.5660    0.1690   24.0720 C   0  0  0  0  0  0  0  0  0  0  0  0
    2.8290    2.2680   24.6450 C   0  0  0  0  0  0  0  0  0  0  0  0
   11.6610    1.1360   23.4860 C   0  0  0  0  0  0  0  0  0  0  0  0
   10.6290   -1.2160   23.6930 C   0  0  0  0  0  0  0  0  0  0  0  0
   11.7520    2.5200   23.7220 C   0  0  0  0  0  0  0  0  0  0  0  0
   12.6470    0.6170   22.6440 C   0  0  0  0  0  0  0  0  0  0  0  0
   11.6280   -1.6680   22.8450 C   0  0  0  0  0  0  0  0  0  0  0  0
    9.6320   -2.2630   24.1850 C   0  0  0  0  0  0  0  0  0  0  0  0
   12.6170   -0.8560   22.3180 C   0  0  0  0  0  0  0  0  0  0  0  0
    8.9880   -2.9820   23.0250 C   0  0  0  0  0  0  0  0  0  0  0  0
  1  2  1  0
  2  3  1  0
  3  4  2  0
  3  5  1  0
  5  6  1  0
  5  7  1  0
  6  8  1  0
  6  9  2  0
  7 10  1  6
  7 11  1  0
  8 12  2  0
  9 13  1  0
 12 13  1  0
 10 14  2  0
 10 15  1  0
 11 16  2  0
 11 17  1  0
 13 18  1  0
 15 19  1  0
 16 20  1  0
 17 21  2  0
 17 22  1  0
 18 23  1  0
 18 24  1  0
 18 25  1  0
 19 26  1  0
 20 27  2  0
 21 27  1  0
 26 28  2  0
 26 29  1  0
 28 30  1  0
 28 31  1  0
 29 32  2  0
 29 33  1  0
 31 34  2  0
 32 34  1  0
 33 35  1  0
M  END
