DAR-DIA-43a5904b-6
     RDKit          3D

 23 25  0  0  0  0  0  0  0  0999 V2000
    9.5790    2.7690   23.3070 N   0  0  0  0  0  0  0  0  0  0  0  0
    9.0280    2.1580   22.2250 C   0  0  0  0  0  0  0  0  0  0  0  0
    9.3550    2.5220   21.1350 O   0  0  0  0  0  0  0  0  0  0  0  0
    8.0070    1.0850   22.3650 C   0  0  1  0  0  0  0  0  0  0  0  0
    8.7660   -0.2490   22.2160 C   0  0  1  0  0  0  0  0  0  0  0  0
    7.3710    1.0090   23.7480 C   0  0  2  0  0  0  0  0  0  0  0  0
   10.2900   -0.3450   22.3690 C   0  0  0  0  0  0  0  0  0  0  0  0
    7.9860   -1.1060   23.1380 C   0  0  0  0  0  0  0  0  0  0  0  0
    7.2110   -0.3840   23.9560 C   0  0  0  0  0  0  0  0  0  0  0  0
    6.0840    1.6150   23.7250 O   0  0  0  0  0  0  0  0  0  0  0  0
   11.0910    0.7400   23.0080 C   0  0  0  0  0  0  0  0  0  0  0  0
   10.9710   -1.4630   21.8810 C   0  0  0  0  0  0  0  0  0  0  0  0
    6.3280   -0.8890   24.9140 C   0  0  0  0  0  0  0  0  0  0  0  0
   12.4550    0.6470   23.1150 C   0  0  0  0  0  0  0  0  0  0  0  0
   12.3350   -1.5160   21.9950 C   0  0  0  0  0  0  0  0  0  0  0  0
    6.3830   -2.2410   25.2700 C   0  0  0  0  0  0  0  0  0  0  0  0
   13.0430   -0.4840   22.6020 C   0  0  0  0  0  0  0  0  0  0  0  0
   13.1050   -2.8680   21.3560 Cl  0  0  0  0  0  0  0  0  0  0  0  0
    6.2730   -2.6180   26.6100 C   0  0  0  0  0  0  0  0  0  0  0  0
    6.5420   -3.2660   24.3310 C   0  0  0  0  0  0  0  0  0  0  0  0
    6.3280   -3.9630   26.9650 C   0  0  0  0  0  0  0  0  0  0  0  0
    6.6000   -4.5810   24.6490 N   0  0  0  0  0  0  0  0  0  0  0  0
    6.4920   -4.8990   25.9560 C   0  0  0  0  0  0  0  0  0  0  0  0
  1  2  1  0
  2  3  2  0
  4  2  1  1
  4  5  1  0
  4  6  1  0
  5  7  1  1
  5  8  1  0
  6  9  1  0
  8  9  2  0
  6 10  1  6
  7 11  2  0
  7 12  1  0
  9 13  1  0
 11 14  1  0
 12 15  2  0
 13 16  1  0
 14 17  2  0
 15 17  1  0
 15 18  1  0
 16 19  2  0
 16 20  1  0
 19 21  1  0
 20 22  2  0
 21 23  2  0
 22 23  1  0
M  END
