DAR-DIA-2b784ede-1-vinylsulfonamide
     RDKit          3D

 27 28  0  0  0  0  0  0  0  0999 V2000
    7.3210   -3.1490   20.0820 C   0  0  0  0  0  0  0  0  0  0  0  0
    7.3460   -2.7570   21.5870 C   0  0  0  0  0  0  0  0  0  0  0  0
    5.8850   -1.8880   22.0480 S   0  0  0  0  0  0  0  0  0  0  0  0
    4.6610   -2.9820   21.6820 O   0  0  0  0  0  0  0  0  0  0  0  0
    5.9130   -0.5990   21.3840 O   0  0  0  0  0  0  0  0  0  0  0  0
    6.7110   -1.4930   23.6210 N   0  0  0  0  0  0  0  0  0  0  0  0
    6.7300   -2.5640   24.5710 C   0  0  0  0  0  0  0  0  0  0  0  0
    7.8320   -0.3450   23.8200 C   0  0  1  0  0  0  0  0  0  0  0  0
    6.9340   -2.3450   25.9420 C   0  0  0  0  0  0  0  0  0  0  0  0
    6.5520   -3.8290   24.1140 N   0  0  0  0  0  0  0  0  0  0  0  0
    7.5940    0.5200   25.1010 C   0  0  0  0  0  0  0  0  0  0  0  0
    9.3780   -0.5320   23.4450 C   0  0  0  0  0  0  0  0  0  0  0  0
    6.9530   -3.4180   26.8370 C   0  0  0  0  0  0  0  0  0  0  0  0
    6.5730   -4.8670   24.9840 C   0  0  0  0  0  0  0  0  0  0  0  0
    6.8290    1.4880   25.1120 O   0  0  0  0  0  0  0  0  0  0  0  0
    8.2870    0.1610   26.2460 N   0  0  0  0  0  0  0  0  0  0  0  0
   10.2170    0.5760   23.1090 C   0  0  0  0  0  0  0  0  0  0  0  0
   10.0530   -1.7780   23.4000 C   0  0  0  0  0  0  0  0  0  0  0  0
    6.7730   -4.7150   26.3620 C   0  0  0  0  0  0  0  0  0  0  0  0
    9.6210   -0.3810   26.1790 C   0  0  0  0  0  0  0  0  0  0  0  0
   11.5370    0.5040   22.7550 N   0  0  0  0  0  0  0  0  0  0  0  0
   11.3900   -1.8560   23.0280 C   0  0  0  0  0  0  0  0  0  0  0  0
    9.3810   -3.0570   23.7470 C   0  0  0  0  0  0  0  0  0  0  0  0
    6.7890   -5.8920   27.3090 C   0  0  0  0  0  0  0  0  0  0  0  0
   12.0930   -0.7180   22.7100 C   0  0  0  0  0  0  0  0  0  0  0  0
    6.1910   -5.5800   28.6130 C   0  0  0  0  0  0  0  0  0  0  0  0
    5.6860   -5.3430   29.6290 N   0  0  0  0  0  0  0  0  0  0  0  0
  1  2  1  0
  2  3  1  0
  3  4  2  0
  3  5  2  0
  3  6  1  0
  6  7  1  0
  6  8  1  0
  7  9  2  0
  7 10  1  0
  8 11  1  1
  8 12  1  0
  9 13  1  0
 10 14  2  0
 11 15  2  0
 11 16  1  0
 12 17  2  0
 12 18  1  0
 13 19  2  0
 14 19  1  0
 16 20  1  0
 17 21  1  0
 18 22  2  0
 18 23  1  0
 19 24  1  0
 21 25  2  0
 22 25  1  0
 24 26  1  0
 26 27  3  0
M  END
