DAR-DIA-eace69ff-17
     RDKit          3D

 25 27  0  0  0  0  0  0  0  0999 V2000
   13.6740   -2.7660   23.4640 C   0  0  0  0  0  0  0  0  0  0  0  0
   13.1810   -2.0480   22.2500 C   0  0  0  0  0  0  0  0  0  0  0  0
   12.3990   -0.9030   22.7210 C   0  0  0  0  0  0  0  0  0  0  0  0
   11.1840   -1.5700   23.3610 C   0  0  0  0  0  0  0  0  0  0  0  0
   12.6700    0.4220   22.6340 C   0  0  0  0  0  0  0  0  0  0  0  0
   10.1210   -0.6590   23.9950 C   0  0  0  0  0  0  0  0  0  0  0  0
   11.6290    1.3220   23.2290 C   0  0  0  0  0  0  0  0  0  0  0  0
    9.0160   -1.2310   24.5870 N   0  0  0  0  0  0  0  0  0  0  0  0
   10.3810    0.8530   23.9080 C   0  0  0  0  0  0  0  0  0  0  0  0
   11.6810    2.8220   23.2270 C   0  0  0  0  0  0  0  0  0  0  0  0
    8.5610   -2.5980   24.2810 C   0  0  0  0  0  0  0  0  0  0  0  0
   12.6640    3.8590   22.6750 C   0  0  0  0  0  0  0  0  0  0  0  0
   10.4690    3.0970   23.9220 C   0  0  0  0  0  0  0  0  0  0  0  0
    9.6910    1.9350   24.3320 N   0  0  0  0  0  0  0  0  0  0  0  0
    7.1940   -2.6490   24.5660 C   0  0  0  0  0  0  0  0  0  0  0  0
    9.2930   -3.4640   25.0870 C   0  0  0  0  0  0  0  0  0  0  0  0
   12.3420    5.2240   23.1200 N   0  0  0  0  0  0  0  0  0  0  0  0
    8.4880    1.9470   25.0140 C   0  0  0  0  0  0  0  0  0  0  0  0
    6.6470   -3.9310   24.3770 C   0  0  0  0  0  0  0  0  0  0  0  0
    8.6150   -4.5890   25.5340 C   0  0  0  0  0  0  0  0  0  0  0  0
   13.2940    6.1610   22.5230 C   0  0  0  0  0  0  0  0  0  0  0  0
   10.9590    5.5250   22.7750 C   0  0  0  0  0  0  0  0  0  0  0  0
    8.4550    1.0940   26.1090 C   0  0  0  0  0  0  0  0  0  0  0  0
    7.5520    2.6640   24.6590 O   0  0  0  0  0  0  0  0  0  0  0  0
    7.5240   -4.9550   24.7360 C   0  0  0  0  0  0  0  0  0  0  0  0
  1  2  1  0
  2  3  1  0
  3  4  2  0
  3  5  1  0
  4  6  1  0
  5  7  2  0
  6  8  1  0
  6  9  2  0
  7  9  1  0
  7 10  1  0
  8 11  1  0
 10 12  1  0
 10 13  2  0
  9 14  1  0
 13 14  1  0
 11 15  1  0
 11 16  1  0
 12 17  1  0
 14 18  1  0
 15 19  1  0
 16 20  1  0
 17 21  1  0
 17 22  1  0
 18 23  1  0
 18 24  2  0
 19 25  1  0
 20 25  1  0
M  END
