DAR-DIA-23aa0b97-11-chloroacetamide
     RDKit          3D

 22 24  0  0  0  0  0  0  0  0999 V2000
    7.2070   -4.2840   20.7870 C   0  0  0  0  0  0  0  0  0  0  0  0
    7.4400   -2.9550   20.0430 C   0  0  0  0  0  0  0  0  0  0  0  0
    6.6830   -3.4610   19.1830 O   0  0  0  0  0  0  0  0  0  0  0  0
    8.2760   -2.6920   21.3020 C   0  0  0  0  0  0  0  0  0  0  0  0
    8.6140   -3.6520   22.4460 C   0  0  0  0  0  0  0  0  0  0  0  0
    8.7700   -1.4060   21.4260 C   0  0  0  0  0  0  0  0  0  0  0  0
    9.4510   -3.0580   23.5350 C   0  0  0  0  0  0  0  0  0  0  0  0
    9.5240   -0.9480   22.4910 C   0  0  0  0  0  0  0  0  0  0  0  0
    9.8830   -1.7600   23.5530 C   0  0  0  0  0  0  0  0  0  0  0  0
    9.9440    0.4340   22.5270 N   0  0  0  0  0  0  0  0  0  0  0  0
    9.0350    1.2600   21.8890 C   0  0  0  0  0  0  0  0  0  0  0  0
    9.1810    2.3850   21.4400 O   0  0  0  0  0  0  0  0  0  0  0  0
    7.7040    0.6050   21.7630 N   0  0  0  0  0  0  0  0  0  0  0  0
    7.0020    0.5710   20.6020 C   0  0  0  0  0  0  0  0  0  0  0  0
    7.3490   -0.2850   19.3890 C   0  0  0  0  0  0  0  0  0  0  0  0
    5.7890    1.3120   20.2370 C   0  0  0  0  0  0  0  0  0  0  0  0
    6.3120    0.0730   18.4170 N   0  0  0  0  0  0  0  0  0  0  0  0
    5.4210    0.9970   18.9570 C   0  0  0  0  0  0  0  0  0  0  0  0
    5.0720    2.2160   21.0290 C   0  0  0  0  0  0  0  0  0  0  0  0
    4.3560    1.5100   18.3240 N   0  0  0  0  0  0  0  0  0  0  0  0
    3.9360    2.7860   20.4150 C   0  0  0  0  0  0  0  0  0  0  0  0
    3.6160    2.4190   19.0940 C   0  0  0  0  0  0  0  0  0  0  0  0
  1  2  1  0
  2  3  2  0
  2  4  1  0
  4  5  2  0
  4  6  1  0
  5  7  1  0
  6  8  2  0
  7  9  2  0
  8  9  1  0
  8 10  1  0
 10 11  1  0
 11 12  2  0
 11 13  1  0
 13 14  1  0
 14 15  2  0
 14 16  1  0
 15 17  1  0
 16 18  2  0
 17 18  1  0
 16 19  1  0
 18 20  1  0
 19 21  2  0
 20 22  2  0
 21 22  1  0
M  END
