DAR-DIA-0cde14eb-54
     RDKit          3D

 25 28  0  0  0  0  0  0  0  0999 V2000
    9.8910    4.2350   24.7950 N   0  0  0  0  0  0  0  0  0  0  0  0
   10.6650    3.7750   24.0640 C   0  0  0  0  0  0  0  0  0  0  0  0
   11.7030    3.2070   23.1080 C   0  0  0  0  0  0  0  0  0  0  0  0
   11.7070    1.6860   22.9520 C   0  0  0  0  0  0  0  0  0  0  0  0
   11.9280    4.1310   21.8970 C   0  0  0  0  0  0  0  0  0  0  0  0
   13.0220    3.9700   22.9200 C   0  0  0  0  0  0  0  0  0  0  0  0
   12.8480    0.9020   22.9640 C   0  0  0  0  0  0  0  0  0  0  0  0
   10.4950    0.9980   22.7690 C   0  0  0  0  0  0  0  0  0  0  0  0
   12.7950   -0.4960   22.8000 C   0  0  0  0  0  0  0  0  0  0  0  0
   10.4130   -0.3890   22.5920 C   0  0  0  0  0  0  0  0  0  0  0  0
   11.5720   -1.1420   22.6100 C   0  0  0  0  0  0  0  0  0  0  0  0
    9.1620   -1.0210   22.3780 N   0  0  0  0  0  0  0  0  0  0  0  0
    8.3530   -0.2620   21.5820 C   0  0  0  0  0  0  0  0  0  0  0  0
    8.5810    0.9140   21.3360 O   0  0  0  0  0  0  0  0  0  0  0  0
    7.2530   -0.8990   21.0540 N   0  0  0  0  0  0  0  0  0  0  0  0
    6.4490   -0.1580   20.1540 C   0  0  0  0  0  0  0  0  0  0  0  0
    6.8960    0.1070   18.7580 C   0  0  0  0  0  0  0  0  0  0  0  0
    5.1580    0.3920   20.5650 C   0  0  0  0  0  0  0  0  0  0  0  0
    6.1080    0.8920   17.8370 N   0  0  0  0  0  0  0  0  0  0  0  0
    4.3920    1.1530   19.6450 C   0  0  0  0  0  0  0  0  0  0  0  0
    4.6440    0.1960   21.8500 C   0  0  0  0  0  0  0  0  0  0  0  0
    4.8220    1.4180   18.3300 C   0  0  0  0  0  0  0  0  0  0  0  0
    3.0770    1.7140   20.0580 C   0  0  0  0  0  0  0  0  0  0  0  0
    3.4020    0.7300   22.2180 C   0  0  0  0  0  0  0  0  0  0  0  0
    2.6450    1.4780   21.3110 C   0  0  0  0  0  0  0  0  0  0  0  0
  1  2  3  0
  3  2  1  0
  3  4  1  0
  3  5  1  0
  3  6  1  0
  5  6  1  0
  4  7  2  0
  4  8  1  0
  7  9  1  0
  8 10  2  0
  9 11  2  0
 10 11  1  0
 10 12  1  0
 12 13  1  0
 13 14  2  0
 13 15  1  0
 15 16  1  0
 16 17  2  0
 16 18  1  0
 17 19  1  0
 18 20  2  0
 18 21  1  0
 19 22  2  0
 20 22  1  0
 20 23  1  0
 21 24  2  0
 23 25  2  0
 24 25  1  0
M  END
