DAR-DIA-23aa0b97-3-vinylsulfonamide
     RDKit          3D

 22 23  0  0  0  0  0  0  0  0999 V2000
    6.4350   -5.2350   20.4800 C   0  0  0  0  0  0  0  0  0  0  0  0
    6.8500   -5.2680   21.9500 C   0  0  0  0  0  0  0  0  0  0  0  0
    6.2970   -3.7520   22.6450 S   0  0  0  0  0  0  0  0  0  0  0  0
    5.0140   -3.5680   21.6610 O   0  0  0  0  0  0  0  0  0  0  0  0
    5.9700   -4.0600   24.0200 O   0  0  0  0  0  0  0  0  0  0  0  0
    7.9950   -2.7580   22.8540 C   0  0  0  0  0  0  0  0  0  0  0  0
    9.3270   -3.3450   23.4770 C   0  0  0  0  0  0  0  0  0  0  0  0
    8.3200   -1.3210   22.4810 C   0  0  0  0  0  0  0  0  0  0  0  0
    9.8660   -2.1360   23.2180 C   0  0  0  0  0  0  0  0  0  0  0  0
    9.6370   -0.5790   22.6290 C   0  0  0  0  0  0  0  0  0  0  0  0
   10.6900   -1.2560   23.1600 C   0  0  0  0  0  0  0  0  0  0  0  0
    9.7800    0.7350   22.2370 N   0  0  0  0  0  0  0  0  0  0  0  0
    8.7330    1.0440   21.4400 C   0  0  0  0  0  0  0  0  0  0  0  0
    8.5930    2.1680   21.0010 O   0  0  0  0  0  0  0  0  0  0  0  0
    7.7010   -0.0010   21.0490 C   0  0  0  0  0  0  0  0  0  0  0  0
    6.6840    0.6500   20.1640 C   0  0  0  0  0  0  0  0  0  0  0  0
    6.4870    0.5110   18.7670 C   0  0  0  0  0  0  0  0  0  0  0  0
    5.7580    1.4660   20.2820 C   0  0  0  0  0  0  0  0  0  0  0  0
    5.3890    1.3010   17.9920 N   0  0  0  0  0  0  0  0  0  0  0  0
    5.2050    1.7180   19.2040 C   0  0  0  0  0  0  0  0  0  0  0  0
    4.4040    2.2920   18.5650 C   0  0  0  0  0  0  0  0  0  0  0  0
    5.8270    0.9500   18.2750 N   0  0  0  0  0  0  0  0  0  0  0  0
  1  2  1  0
  3  2  1  0
  3  4  2  0
  3  5  2  0
  3  6  1  0
  6  7  2  0
  6  8  1  0
  7  9  1  0
  8 10  2  0
  9 11  2  0
 10 11  1  0
 10 12  1  0
 12 13  1  0
 13 14  2  0
 13 15  1  0
 15 16  1  0
 16 17  2  0
 16 18  1  0
 17 19  1  0
 18 20  2  0
 19 21  2  0
 20 21  1  0
 20 22  1  0
M  END
