DAR-DIA-2b784ede-11-bromoalkyne
     RDKit          3D

 32 34  0  0  0  0  0  0  0  0999 V2000
    7.2890   -2.6810   19.2360 C   0  0  0  0  0  0  0  0  0  0  0  0
    6.8760   -2.2200   17.8870 C   0  0  0  0  0  0  0  0  0  0  0  0
    6.5330   -1.9940   20.3790 N   0  0  0  0  0  0  0  0  0  0  0  0
    5.2710   -2.6600   20.3060 C   0  0  0  0  0  0  0  0  0  0  0  0
    7.2520   -2.0880   21.7080 C   0  0  2  0  0  0  0  0  0  0  0  0
    5.8420   -2.1560   19.1930 C   0  0  0  0  0  0  0  0  0  0  0  0
    5.3800   -2.6370   21.6660 C   0  0  0  0  0  0  0  0  0  0  0  0
    8.7100   -1.5460   21.5550 C   0  0  0  0  0  0  0  0  0  0  0  0
    6.9210   -3.4830   22.2640 C   0  0  0  0  0  0  0  0  0  0  0  0
    6.8980   -1.2620   19.5550 C   0  0  0  0  0  0  0  0  0  0  0  0
    6.3990   -1.7890   22.0320 N   0  0  0  0  0  0  0  0  0  0  0  0
    8.9790   -0.4840   21.0150 O   0  0  0  0  0  0  0  0  0  0  0  0
    9.7860   -2.2210   22.0320 N   0  0  0  0  0  0  0  0  0  0  0  0
    7.5090   -3.9990   23.5540 C   0  0  0  0  0  0  0  0  0  0  0  0
    6.0570   -4.3830   21.6450 C   0  0  0  0  0  0  0  0  0  0  0  0
    7.1680   -1.0610   20.9610 C   0  0  0  0  0  0  0  0  0  0  0  0
   10.5910   -1.7070   23.0430 C   0  0  0  0  0  0  0  0  0  0  0  0
    7.2740   -5.2130   24.1150 N   0  0  0  0  0  0  0  0  0  0  0  0
    5.8470   -5.5840   22.2240 C   0  0  0  0  0  0  0  0  0  0  0  0
    5.3700   -4.1510   20.4720 C   0  0  0  0  0  0  0  0  0  0  0  0
    8.2280   -0.0950   21.5810 C   0  0  0  0  0  0  0  0  0  0  0  0
   10.0410   -1.2900   24.4190 C   0  0  0  0  0  0  0  0  0  0  0  0
   11.9800   -1.5560   22.7660 C   0  0  0  0  0  0  0  0  0  0  0  0
    6.4260   -5.9610   23.3840 C   0  0  0  0  0  0  0  0  0  0  0  0
    7.8410    1.4060   21.4580 C   0  0  0  0  0  0  0  0  0  0  0  0
    8.5610   -1.3540   24.8920 C   0  0  0  0  0  0  0  0  0  0  0  0
   10.9470   -0.7990   25.3420 C   0  0  0  0  0  0  0  0  0  0  0  0
   12.7940   -1.0630   23.7610 C   0  0  0  0  0  0  0  0  0  0  0  0
   12.5300   -1.8680   21.5380 C   0  0  0  0  0  0  0  0  0  0  0  0
    7.5640    2.5300   21.3810 N   0  0  0  0  0  0  0  0  0  0  0  0
   12.3220   -0.6990   25.0040 C   0  0  0  0  0  0  0  0  0  0  0  0
   13.0560   -3.0790   21.2380 C   0  0  0  0  0  0  0  0  0  0  0  0
  1  2  2  3
  1  3  1  0
  3  4  1  0
  3  5  1  0
  4  6  2  0
  4  7  1  0
  5  8  1  6
  5  9  1  0
  6 10  1  0
  7 11  2  0
  8 12  2  0
  8 13  1  0
  9 14  2  0
  9 15  1  0
 10 16  2  0
 11 16  1  0
 13 17  1  0
 14 18  1  0
 15 19  2  0
 15 20  1  0
 16 21  1  0
 17 22  2  0
 17 23  1  0
 18 24  2  0
 19 24  1  0
 21 25  1  0
 22 26  1  0
 22 27  1  0
 23 28  2  0
 23 29  1  0
 25 30  3  0
 27 31  2  0
 28 31  1  0
 29 32  1  0
M  END
