DAR-DIA-2b784ede-8-chloroacetamide
     RDKit          3D

 32 34  0  0  0  0  0  0  0  0999 V2000
    7.7070   -3.0080   18.2540 C   0  0  0  0  0  0  0  0  0  0  0  0
    6.5630   -3.1150   19.1430 C   0  0  0  0  0  0  0  0  0  0  0  0
    5.3950   -3.3280   18.7880 O   0  0  0  0  0  0  0  0  0  0  0  0
    6.9300   -2.9530   20.4630 N   0  0  0  0  0  0  0  0  0  0  0  0
    6.3150   -3.8010   21.4530 C   0  0  0  0  0  0  0  0  0  0  0  0
    7.2160   -1.5310   20.8450 C   0  0  1  0  0  0  0  0  0  0  0  0
    7.0210   -4.2020   22.5910 C   0  0  0  0  0  0  0  0  0  0  0  0
    5.0570   -4.2740   21.4130 N   0  0  0  0  0  0  0  0  0  0  0  0
    8.6830   -1.0270   21.2270 C   0  0  0  0  0  0  0  0  0  0  0  0
    6.1900   -0.5340   20.1930 C   0  0  0  0  0  0  0  0  0  0  0  0
    6.5200   -5.0120   23.6260 C   0  0  0  0  0  0  0  0  0  0  0  0
    4.5520   -5.1190   22.5010 C   0  0  0  0  0  0  0  0  0  0  0  0
    8.8770    0.1910   21.2120 O   0  0  0  0  0  0  0  0  0  0  0  0
    9.7330   -1.9100   21.6540 N   0  0  0  0  0  0  0  0  0  0  0  0
    4.9570   -0.4840   20.9130 C   0  0  0  0  0  0  0  0  0  0  0  0
    6.1390    0.3530   19.0720 C   0  0  0  0  0  0  0  0  0  0  0  0
    5.2190   -5.5210   23.6290 C   0  0  0  0  0  0  0  0  0  0  0  0
   10.6710   -1.4640   22.6700 C   0  0  0  0  0  0  0  0  0  0  0  0
    3.8510    0.2180   20.7250 N   0  0  0  0  0  0  0  0  0  0  0  0
    4.9810    1.0860   18.8710 C   0  0  0  0  0  0  0  0  0  0  0  0
    7.1270    0.5350   18.2150 C   0  0  0  0  0  0  0  0  0  0  0  0
    4.5600   -6.4000   24.7000 C   0  0  0  0  0  0  0  0  0  0  0  0
    9.9480   -1.0920   23.9850 C   0  0  0  0  0  0  0  0  0  0  0  0
   12.1130   -1.3250   22.6420 C   0  0  0  0  0  0  0  0  0  0  0  0
    3.8980    0.9970   19.6830 C   0  0  0  0  0  0  0  0  0  0  0  0
    5.1830   -5.9210   26.3310 Cl  0  0  0  0  0  0  0  0  0  0  0  0
    8.4260   -1.2580   24.1270 C   0  0  0  0  0  0  0  0  0  0  0  0
   10.6600   -0.6090   25.0670 C   0  0  0  0  0  0  0  0  0  0  0  0
   12.7920   -0.8410   23.7350 C   0  0  0  0  0  0  0  0  0  0  0  0
   13.1430   -1.6390   21.6020 C   0  0  0  0  0  0  0  0  0  0  0  0
   12.1700   -0.4890   24.8850 C   0  0  0  0  0  0  0  0  0  0  0  0
   13.0370   -2.8570   20.9870 C   0  0  0  0  0  0  0  0  0  0  0  0
  1  2  1  0
  2  3  2  0
  2  4  1  0
  4  5  1  0
  4  6  1  0
  5  7  2  0
  5  8  1  0
  6  9  1  6
  6 10  1  0
  7 11  1  0
  8 12  2  0
  9 13  2  0
  9 14  1  0
 10 15  2  0
 10 16  1  0
 11 17  2  0
 12 17  1  0
 14 18  1  0
 15 19  1  0
 16 20  2  0
 16 21  1  0
 17 22  1  0
 18 23  2  0
 18 24  1  0
 19 25  2  0
 20 25  1  0
 22 26  1  0
 23 27  1  0
 23 28  1  0
 24 29  2  0
 24 30  1  0
 28 31  2  0
 29 31  1  0
 30 32  1  0
M  END
