DAR-DIA-caba39e3-10-nitrile
     RDKit          3D

 28 31  0  0  0  0  0  0  0  0999 V2000
    7.4530   -3.7000   20.0490 C   0  0  0  0  0  0  0  0  0  0  0  0
    6.2240   -3.8720   19.6400 N   0  0  0  0  0  0  0  0  0  0  0  0
    7.6250   -3.4600   21.4030 N   0  0  0  0  0  0  0  0  0  0  0  0
    6.7650   -3.7690   22.4360 C   0  0  0  0  0  0  0  0  0  0  0  0
    8.6430   -2.5840   21.8230 C   0  0  0  0  0  0  0  0  0  0  0  0
    7.4880   -4.3190   23.6640 C   0  0  0  0  0  0  0  0  0  0  0  0
    9.6230   -3.1570   22.9060 C   0  0  2  0  0  0  0  0  0  0  0  0
    6.8000   -5.1510   24.6780 C   0  0  0  0  0  0  0  0  0  0  0  0
    8.8210   -4.0410   23.8530 C   0  0  0  0  0  0  0  0  0  0  0  0
   10.3730   -2.0930   23.4050 C   0  0  0  0  0  0  0  0  0  0  0  0
    7.5110   -5.7060   25.9000 C   0  0  0  0  0  0  0  0  0  0  0  0
    9.6990   -4.5280   25.0040 C   0  0  0  0  0  0  0  0  0  0  0  0
    9.9460   -1.5310   24.6500 C   0  0  0  0  0  0  0  0  0  0  0  0
   11.5240   -1.4900   22.7530 C   0  0  0  0  0  0  0  0  0  0  0  0
    9.0150   -5.4170   26.1040 C   0  0  0  0  0  0  0  0  0  0  0  0
   10.6140   -0.4520   25.2020 C   0  0  0  0  0  0  0  0  0  0  0  0
   12.1980   -0.3890   23.2640 C   0  0  0  0  0  0  0  0  0  0  0  0
   12.0040   -1.9540   21.5940 C   0  0  0  0  0  0  0  0  0  0  0  0
   10.0700   -0.0570   26.3930 O   0  0  0  0  0  0  0  0  0  0  0  0
   11.8000    0.1470   24.4670 C   0  0  0  0  0  0  0  0  0  0  0  0
   13.3340    0.2560   22.4720 C   0  0  0  0  0  0  0  0  0  0  0  0
   13.0020   -1.3650   20.8460 C   0  0  0  0  0  0  0  0  0  0  0  0
    8.8750   -0.6780   26.8350 C   0  0  0  0  0  0  0  0  0  0  0  0
   13.7320   -0.1980   21.0380 C   0  0  0  0  0  0  0  0  0  0  0  0
   14.8530    0.5830   19.5410 S   0  0  0  0  0  0  0  0  0  0  0  0
   14.7070    2.1940   19.0320 N   0  0  0  0  0  0  0  0  0  0  0  0
   14.3530   -0.0650   18.3960 O   0  0  0  0  0  0  0  0  0  0  0  0
   16.1750    0.8330   19.5640 O   0  0  0  0  0  0  0  0  0  0  0  0
  1  2  2  3
  1  3  1  0
  3  4  1  0
  3  5  1  0
  4  6  1  0
  5  7  1  0
  6  8  1  0
  6  9  2  0
  7  9  1  0
  7 10  1  1
  8 11  2  0
  9 12  1  0
 10 13  2  0
 10 14  1  0
 11 15  1  0
 12 15  2  0
 13 16  1  0
 14 17  2  0
 14 18  1  0
 16 19  1  0
 16 20  2  0
 17 20  1  0
 17 21  1  0
 18 22  2  0
 19 23  1  0
 21 24  2  0
 22 24  1  0
 24 25  1  0
 25 26  1  0
 25 27  2  0
 25 28  2  0
M  END
