DAR-DIA-8e329c92-5
     RDKit          3D

 29 32  0  0  0  0  0  0  0  0999 V2000
   17.0180   -8.0770   25.7300 C   0  0  0  0  0  0  0  0  0  0  0  0
   16.2850   -7.3290   24.8200 O   0  0  0  0  0  0  0  0  0  0  0  0
   16.6120   -6.0860   24.9090 C   0  0  0  0  0  0  0  0  0  0  0  0
   17.9690   -5.9950   24.5180 C   0  0  0  0  0  0  0  0  0  0  0  0
   15.8940   -4.9770   25.3040 C   0  0  0  0  0  0  0  0  0  0  0  0
   18.6800   -4.8810   24.5210 C   0  0  0  0  0  0  0  0  0  0  0  0
   16.6420   -3.9620   25.3130 C   0  0  0  0  0  0  0  0  0  0  0  0
   14.5740   -4.7960   25.6890 O   0  0  0  0  0  0  0  0  0  0  0  0
   17.9920   -3.8600   24.9420 C   0  0  0  0  0  0  0  0  0  0  0  0
   13.9130   -3.4650   25.5970 C   0  0  0  0  0  0  0  0  0  0  0  0
   13.1770   -2.9230   24.3010 C   0  0  2  0  0  0  0  0  0  0  0  0
   12.9100   -1.4090   24.2370 N   0  0  0  0  0  0  0  0  0  0  0  0
   11.8060   -3.3630   23.9960 N   0  0  0  0  0  0  0  0  0  0  0  0
   12.7770   -0.1950   23.6930 C   0  0  0  0  0  0  0  0  0  0  0  0
   10.8420   -3.5650   25.0890 C   0  0  0  0  0  0  0  0  0  0  0  0
   10.8140   -2.3870   23.3030 C   0  0  0  0  0  0  0  0  0  0  0  0
   13.6720    0.2150   22.9370 O   0  0  0  0  0  0  0  0  0  0  0  0
   11.5320    0.6820   23.9180 C   0  0  0  0  0  0  0  0  0  0  0  0
    9.8430   -2.7460   24.4190 C   0  0  0  0  0  0  0  0  0  0  0  0
   10.4260    0.1770   24.6050 C   0  0  0  0  0  0  0  0  0  0  0  0
   11.5070    2.0590   23.4010 C   0  0  0  0  0  0  0  0  0  0  0  0
    9.2300    1.0500   24.7880 C   0  0  0  0  0  0  0  0  0  0  0  0
   10.3200    2.7930   23.4930 C   0  0  0  0  0  0  0  0  0  0  0  0
   12.6220    2.6590   22.8280 C   0  0  0  0  0  0  0  0  0  0  0  0
    8.3210    0.7270   25.5530 O   0  0  0  0  0  0  0  0  0  0  0  0
    9.1830    2.2090   24.0650 N   0  0  0  0  0  0  0  0  0  0  0  0
   10.2790    4.1750   22.9910 C   0  0  0  0  0  0  0  0  0  0  0  0
   12.6290    3.9920   22.3290 C   0  0  0  0  0  0  0  0  0  0  0  0
   11.4790    4.7870   22.3910 C   0  0  0  0  0  0  0  0  0  0  0  0
  1  2  1  0
  2  3  1  0
  3  4  2  0
  3  5  1  0
  4  6  1  0
  5  7  2  0
  5  8  1  0
  6  9  2  0
  7  9  1  0
  8 10  1  0
 11 10  1  1
 11 12  1  0
 11 13  1  0
 12 14  1  0
 13 15  1  0
 13 16  1  0
 14 17  2  0
 14 18  1  0
 15 19  1  0
 16 19  1  0
 18 20  2  0
 18 21  1  0
 20 22  1  0
 21 23  2  0
 21 24  1  0
 22 25  2  0
 22 26  1  0
 23 26  1  0
 23 27  1  0
 24 28  2  0
 27 29  2  0
 28 29  1  0
M  END
