DAR-DIA-842b4336-4
     RDKit          3D

 16 17  0  0  0  0  0  0  0  0999 V2000
    8.8870    1.1650   21.2740 O   0  0  0  0  0  0  0  0  0  0  0  0
    8.3620    0.0880   21.6250 C   0  0  0  0  0  0  0  0  0  0  0  0
    7.2370   -0.4950   20.9590 N   0  0  0  0  0  0  0  0  0  0  0  0
    8.7600   -0.7070   22.6830 N   0  0  0  0  0  0  0  0  0  0  0  0
    6.4770    0.2230   19.9560 C   0  0  0  0  0  0  0  0  0  0  0  0
   10.0700   -1.0730   22.8690 C   0  0  0  0  0  0  0  0  0  0  0  0
    5.1790    0.8440   20.4440 C   0  0  0  0  0  0  0  0  0  0  0  0
    6.8370    0.3900   18.6460 C   0  0  0  0  0  0  0  0  0  0  0  0
   11.0390   -1.2390   21.9160 C   0  0  0  0  0  0  0  0  0  0  0  0
   10.7670   -1.4060   24.3780 S   0  0  0  0  0  0  0  0  0  0  0  0
    4.3850    1.6280   19.4100 C   0  0  0  0  0  0  0  0  0  0  0  0
    6.1310    1.0900   17.7350 N   0  0  0  0  0  0  0  0  0  0  0  0
   12.4200   -1.6250   22.2360 C   0  0  0  0  0  0  0  0  0  0  0  0
   12.3810   -1.7620   23.7330 C   0  0  0  0  0  0  0  0  0  0  0  0
    4.9450    1.7180   18.0250 C   0  0  0  0  0  0  0  0  0  0  0  0
   13.5960   -2.1970   24.7980 Cl  0  0  0  0  0  0  0  0  0  0  0  0
  1  2  2  0
  2  3  1  0
  2  4  1  0
  3  5  1  0
  4  6  1  0
  5  7  2  0
  5  8  1  0
  6  9  2  0
  6 10  1  0
  7 11  1  0
  8 12  2  0
  9 13  1  0
 10 14  1  0
 13 14  2  0
 11 15  2  0
 12 15  1  0
 14 16  1  0
M  END
