DAR-DIA-0cde14eb-56
     RDKit          3D

 25 28  0  0  0  0  0  0  0  0999 V2000
    8.0690   -1.6460   22.9920 C   0  0  0  0  0  0  0  0  0  0  0  0
    8.3190   -0.1630   22.7530 C   0  0  2  0  0  0  0  0  0  0  0  0
    8.0380    0.2460   21.3810 C   0  0  0  0  0  0  0  0  0  0  0  0
    9.7540    0.1480   22.9130 C   0  0  0  0  0  0  0  0  0  0  0  0
    8.5490    1.2880   20.9380 O   0  0  0  0  0  0  0  0  0  0  0  0
    7.1960   -0.6180   20.7280 N   0  0  0  0  0  0  0  0  0  0  0  0
   10.2570    1.3780   22.9880 C   0  0  0  0  0  0  0  0  0  0  0  0
   10.5950   -0.9750   22.9700 C   0  0  0  0  0  0  0  0  0  0  0  0
    6.3600    0.1260   19.8530 C   0  0  0  0  0  0  0  0  0  0  0  0
   11.7150    1.5560   23.1320 C   0  0  0  0  0  0  0  0  0  0  0  0
   11.9190   -0.8500   23.1050 C   0  0  0  0  0  0  0  0  0  0  0  0
    6.7580    0.4160   18.5640 C   0  0  0  0  0  0  0  0  0  0  0  0
    5.1040    0.6000   20.2920 C   0  0  0  0  0  0  0  0  0  0  0  0
   12.5750    0.3820   23.1950 C   0  0  0  0  0  0  0  0  0  0  0  0
   12.5510   -1.9870   23.1370 C   0  0  0  0  0  0  0  0  0  0  0  0
    6.0890    1.1210   17.6620 N   0  0  0  0  0  0  0  0  0  0  0  0
    4.3610    1.3560   19.3490 C   0  0  0  0  0  0  0  0  0  0  0  0
    4.5590    0.3810   21.5710 C   0  0  0  0  0  0  0  0  0  0  0  0
   12.4890   -2.8450   24.6720 Cl  0  0  0  0  0  0  0  0  0  0  0  0
   13.7230   -1.8400   22.6490 C   0  0  0  0  0  0  0  0  0  0  0  0
   12.7810   -2.6970   21.7470 C   0  0  0  0  0  0  0  0  0  0  0  0
    4.9130    1.5690   18.0960 C   0  0  0  0  0  0  0  0  0  0  0  0
    3.1260    1.8620   19.6830 C   0  0  0  0  0  0  0  0  0  0  0  0
    3.1660    0.9400   21.9640 C   0  0  0  0  0  0  0  0  0  0  0  0
    2.4350    1.6820   21.0360 C   0  0  0  0  0  0  0  0  0  0  0  0
  2  1  1  6
  2  3  1  0
  2  4  1  0
  3  5  2  0
  3  6  1  0
  4  7  2  0
  4  8  1  0
  6  9  1  0
  7 10  1  0
  8 11  2  0
  9 12  2  0
  9 13  1  0
 10 14  2  0
 11 14  1  0
 11 15  1  0
 12 16  1  0
 13 17  2  0
 13 18  1  0
 15 19  1  0
 15 20  1  0
 15 21  1  0
 20 21  1  0
 16 22  2  0
 17 22  1  0
 17 23  1  0
 18 24  2  0
 23 25  2  0
 24 25  1  0
M  END
