DAR-DIA-caba39e3-10-bromoalkyne
     RDKit          3D

 28 31  0  0  0  0  0  0  0  0999 V2000
    6.4460   -3.7800   19.7750 C   0  0  0  0  0  0  0  0  0  0  0  0
    5.5410   -3.0410   18.8900 C   0  0  0  0  0  0  0  0  0  0  0  0
    6.2190   -4.0220   21.0870 N   0  0  0  0  0  0  0  0  0  0  0  0
    5.9120   -5.2550   21.7080 C   0  0  0  0  0  0  0  0  0  0  0  0
    6.2970   -2.8780   22.0080 C   0  0  0  0  0  0  0  0  0  0  0  0
    5.7950   -5.2280   23.2250 C   0  0  0  0  0  0  0  0  0  0  0  0
    7.1280   -3.2850   23.2230 C   0  0  2  0  0  0  0  0  0  0  0  0
    4.9860   -6.3040   23.9350 C   0  0  0  0  0  0  0  0  0  0  0  0
    6.4220   -4.2330   23.9280 C   0  0  0  0  0  0  0  0  0  0  0  0
    7.7570   -2.1520   23.8580 C   0  0  0  0  0  0  0  0  0  0  0  0
    4.8360   -6.3330   25.4740 C   0  0  0  0  0  0  0  0  0  0  0  0
    6.3440   -4.1690   25.4490 C   0  0  0  0  0  0  0  0  0  0  0  0
    7.1020   -1.4110   24.8710 C   0  0  0  0  0  0  0  0  0  0  0  0
    9.0640   -1.8270   23.4370 C   0  0  0  0  0  0  0  0  0  0  0  0
    5.5550   -5.2120   26.2620 C   0  0  0  0  0  0  0  0  0  0  0  0
    7.7280   -0.3230   25.5160 C   0  0  0  0  0  0  0  0  0  0  0  0
    9.7500   -0.7720   24.0340 C   0  0  0  0  0  0  0  0  0  0  0  0
    9.6970   -2.5420   22.4400 C   0  0  0  0  0  0  0  0  0  0  0  0
    7.2540    0.4880   26.5090 O   0  0  0  0  0  0  0  0  0  0  0  0
    9.1260   -0.0590   25.0120 C   0  0  0  0  0  0  0  0  0  0  0  0
   11.1550   -0.4690   23.5870 C   0  0  0  0  0  0  0  0  0  0  0  0
   10.9840   -2.3010   22.0050 C   0  0  0  0  0  0  0  0  0  0  0  0
    7.9670    0.4220   27.7430 C   0  0  0  0  0  0  0  0  0  0  0  0
   11.7060   -1.3030   22.5750 C   0  0  0  0  0  0  0  0  0  0  0  0
   13.2770   -1.0930   22.1070 S   0  0  0  0  0  0  0  0  0  0  0  0
   13.5480    0.2000   23.0630 N   0  0  0  0  0  0  0  0  0  0  0  0
   13.9050   -2.1630   22.7450 O   0  0  0  0  0  0  0  0  0  0  0  0
   13.5480   -0.8720   20.7160 O   0  0  0  0  0  0  0  0  0  0  0  0
  1  2  2  3
  1  3  1  0
  3  4  1  0
  3  5  1  0
  4  6  1  0
  5  7  1  0
  6  8  1  0
  6  9  2  0
  7  9  1  0
  7 10  1  1
  8 11  2  0
  9 12  1  0
 10 13  2  0
 10 14  1  0
 11 15  1  0
 12 15  2  0
 13 16  1  0
 14 17  2  0
 14 18  1  0
 16 19  1  0
 16 20  2  0
 17 20  1  0
 17 21  1  0
 18 22  2  0
 19 23  1  0
 21 24  2  0
 22 24  1  0
 24 25  1  0
 25 26  1  0
 25 27  2  0
 25 28  2  0
M  END
