DAR-DIA-a80d16a0-5
     RDKit          3D

 23 25  0  0  0  0  0  0  0  0999 V2000
   13.3260   -2.0140   21.1320 C   0  0  0  0  0  0  0  0  0  0  0  0
   13.5130   -1.1480   22.2260 O   0  0  0  0  0  0  0  0  0  0  0  0
   12.2610   -0.6340   22.5770 C   0  0  0  0  0  0  0  0  0  0  0  0
   10.9740   -1.4010   22.3130 C   0  0  0  0  0  0  0  0  0  0  0  0
   12.1790    0.7470   23.2270 C   0  0  0  0  0  0  0  0  0  0  0  0
    9.7010   -0.8300   22.6720 N   0  0  0  0  0  0  0  0  0  0  0  0
   10.6790    1.1630   23.2220 C   0  0  1  0  0  0  0  0  0  0  0  0
    8.6030   -1.7390   22.9050 C   0  0  0  0  0  0  0  0  0  0  0  0
   10.0070    0.1050   23.7640 C   0  0  0  0  0  0  0  0  0  0  0  0
   10.1960    2.3660   23.7170 C   0  0  0  0  0  0  0  0  0  0  0  0
    8.8830   -2.6290   24.1230 C   0  0  0  0  0  0  0  0  0  0  0  0
   10.8360    3.5750   23.6200 C   0  0  0  0  0  0  0  0  0  0  0  0
    8.5910    2.5150   23.5190 C   0  0  0  0  0  0  0  0  0  0  0  0
    9.1310    2.2700   24.7320 C   0  0  0  0  0  0  0  0  0  0  0  0
    8.3760   -2.2180   25.4390 N   0  0  0  0  0  0  0  0  0  0  0  0
   12.0780    3.7680   22.9710 C   0  0  0  0  0  0  0  0  0  0  0  0
   10.1570    4.7560   24.2470 C   0  0  0  0  0  0  0  0  0  0  0  0
    7.9410   -3.1800   26.3500 C   0  0  0  0  0  0  0  0  0  0  0  0
    8.9990   -1.0440   25.8850 C   0  0  0  0  0  0  0  0  0  0  0  0
   12.7600    4.9770   22.8590 C   0  0  0  0  0  0  0  0  0  0  0  0
   10.9200    6.0370   24.1110 C   0  0  0  0  0  0  0  0  0  0  0  0
   12.1230    6.2080   23.4880 C   0  0  0  0  0  0  0  0  0  0  0  0
   12.7820    7.7520   23.4800 Cl  0  0  0  0  0  0  0  0  0  0  0  0
  1  2  1  0
  2  3  1  0
  3  4  2  0
  3  5  1  0
  4  6  1  0
  5  7  1  0
  6  8  1  0
  6  9  1  0
  7  9  1  0
  7 10  1  1
  8 11  1  0
 10 12  1  0
 10 13  1  0
 10 14  1  0
 13 14  1  0
 11 15  1  0
 12 16  2  0
 12 17  1  0
 15 18  1  0
 15 19  1  0
 16 20  1  0
 17 21  2  0
 20 22  2  0
 21 22  1  0
 22 23  1  0
M  END
