DAR-DIA-2b784ede-36-nitrile
     RDKit          3D

 33 35  0  0  0  0  0  0  0  0999 V2000
    6.8720   -3.6410   19.7910 C   0  0  0  0  0  0  0  0  0  0  0  0
    5.8650   -4.4520   19.9110 N   0  0  0  0  0  0  0  0  0  0  0  0
    6.8460   -2.2770   20.0470 N   0  0  0  0  0  0  0  0  0  0  0  0
    7.1650   -1.3240   19.0910 C   0  0  0  0  0  0  0  0  0  0  0  0
    7.1740   -1.6260   21.3040 C   0  0  2  0  0  0  0  0  0  0  0  0
    7.4220   -1.5040   17.7760 C   0  0  0  0  0  0  0  0  0  0  0  0
    7.2710    0.0070   19.3430 N   0  0  0  0  0  0  0  0  0  0  0  0
    8.1210   -2.4340   22.2410 C   0  0  0  0  0  0  0  0  0  0  0  0
    6.0450   -0.6700   21.7120 C   0  0  0  0  0  0  0  0  0  0  0  0
    7.6800   -0.3450   17.2260 C   0  0  0  0  0  0  0  0  0  0  0  0
    7.5880    0.6190   18.1620 O   0  0  0  0  0  0  0  0  0  0  0  0
    7.7010   -3.2190   23.0970 O   0  0  0  0  0  0  0  0  0  0  0  0
    9.4950   -2.1700   21.9710 N   0  0  0  0  0  0  0  0  0  0  0  0
    5.9630   -0.7870   20.1600 C   0  0  0  0  0  0  0  0  0  0  0  0
    4.9270    0.2410   21.7880 C   0  0  0  0  0  0  0  0  0  0  0  0
    7.9320   -0.0890   15.9670 C   0  0  0  0  0  0  0  0  0  0  0  0
   10.4510   -1.6640   22.9060 C   0  0  0  0  0  0  0  0  0  0  0  0
    5.2200   -0.3010   19.1360 N   0  0  0  0  0  0  0  0  0  0  0  0
    4.1210    0.7820   20.7960 C   0  0  0  0  0  0  0  0  0  0  0  0
    4.5810    0.6750   23.0660 C   0  0  0  0  0  0  0  0  0  0  0  0
    7.5900    1.2080   15.9120 C   0  0  0  0  0  0  0  0  0  0  0  0
    7.1540   -1.2580   15.4450 C   0  0  0  0  0  0  0  0  0  0  0  0
    9.1950   -0.0520   15.2530 C   0  0  0  0  0  0  0  0  0  0  0  0
    9.8830   -1.2540   24.2840 C   0  0  0  0  0  0  0  0  0  0  0  0
   11.8610   -1.5160   22.6460 C   0  0  0  0  0  0  0  0  0  0  0  0
    4.2880    0.5000   19.4750 C   0  0  0  0  0  0  0  0  0  0  0  0
   10.1190    0.0750   14.5740 N   0  0  0  0  0  0  0  0  0  0  0  0
    8.3840   -1.3920   24.6420 C   0  0  0  0  0  0  0  0  0  0  0  0
   10.7560   -0.7460   25.2320 C   0  0  0  0  0  0  0  0  0  0  0  0
   12.7270   -1.0100   23.6050 C   0  0  0  0  0  0  0  0  0  0  0  0
   12.5860   -1.8580   21.3650 C   0  0  0  0  0  0  0  0  0  0  0  0
   12.2400   -0.6380   24.8360 C   0  0  0  0  0  0  0  0  0  0  0  0
   13.1090   -3.0840   21.1370 C   0  0  0  0  0  0  0  0  0  0  0  0
  1  2  2  3
  1  3  1  0
  3  4  1  0
  3  5  1  0
  4  6  1  0
  4  7  2  0
  5  8  1  1
  5  9  1  0
  6 10  2  0
  7 11  1  0
 10 11  1  0
  8 12  2  0
  8 13  1  0
  9 14  2  0
  9 15  1  0
 10 16  1  0
 13 17  1  0
 14 18  1  0
 15 19  2  0
 15 20  1  0
 16 21  1  0
 16 22  1  0
 16 23  1  0
 17 24  2  0
 17 25  1  0
 18 26  2  0
 19 26  1  0
 23 27  3  0
 24 28  1  0
 24 29  1  0
 25 30  2  0
 25 31  1  0
 29 32  2  0
 30 32  1  0
 31 33  1  0
M  END
