DAR-DIA-2b784ede-39-bromoalkyne
     RDKit          3D

 34 36  0  0  0  0  0  0  0  0999 V2000
    7.8710   -3.1880   19.9920 C   0  0  0  0  0  0  0  0  0  0  0  0
    6.3630   -3.1160   19.4530 C   0  0  0  0  0  0  0  0  0  0  0  0
    8.8430   -2.0390   20.5970 N   0  0  0  0  0  0  0  0  0  0  0  0
    9.8650   -2.2360   21.5540 C   0  0  0  0  0  0  0  0  0  0  0  0
    8.8660   -0.7050   21.3770 C   0  0  1  0  0  0  0  0  0  0  0  0
    9.1410   -2.5420   22.5840 C   0  0  0  0  0  0  0  0  0  0  0  0
   11.3050   -2.1350   21.5760 C   0  0  0  0  0  0  0  0  0  0  0  0
    7.9340    0.3410   21.0850 C   0  0  0  0  0  0  0  0  0  0  0  0
    9.1770   -0.5220   22.8630 C   0  0  0  0  0  0  0  0  0  0  0  0
    9.6940   -2.8100   23.6630 C   0  0  0  0  0  0  0  0  0  0  0  0
   11.8960   -2.4350   22.7660 C   0  0  0  0  0  0  0  0  0  0  0  0
    8.3180    1.5140   20.8810 O   0  0  0  0  0  0  0  0  0  0  0  0
    6.6990   -0.1840   21.0960 N   0  0  0  0  0  0  0  0  0  0  0  0
    8.1130   -0.5190   23.7760 C   0  0  0  0  0  0  0  0  0  0  0  0
   10.4780   -0.3130   23.4200 C   0  0  0  0  0  0  0  0  0  0  0  0
   11.0080   -2.7810   23.7480 C   0  0  0  0  0  0  0  0  0  0  0  0
    6.0630    0.3900   20.0790 C   0  0  0  0  0  0  0  0  0  0  0  0
    8.2300   -0.3320   25.1100 N   0  0  0  0  0  0  0  0  0  0  0  0
   10.5920   -0.1280   24.7810 C   0  0  0  0  0  0  0  0  0  0  0  0
   11.7980   -0.2540   22.6900 C   0  0  0  0  0  0  0  0  0  0  0  0
   11.1290   -3.2200   25.0260 C   0  0  0  0  0  0  0  0  0  0  0  0
    5.3780    1.5370   20.4000 C   0  0  0  0  0  0  0  0  0  0  0  0
    6.1240   -0.1070   18.8180 C   0  0  0  0  0  0  0  0  0  0  0  0
    9.4730   -0.1370   25.5690 C   0  0  0  0  0  0  0  0  0  0  0  0
   10.1610   -2.5290   25.8990 C   0  0  0  0  0  0  0  0  0  0  0  0
   12.6040   -3.4250   25.4810 C   0  0  0  0  0  0  0  0  0  0  0  0
   10.1910   -4.3600   24.5060 C   0  0  0  0  0  0  0  0  0  0  0  0
    5.3080    2.0630   21.8110 C   0  0  0  0  0  0  0  0  0  0  0  0
    4.7490    2.2260   19.3800 C   0  0  0  0  0  0  0  0  0  0  0  0
    5.5020    0.5950   17.8190 C   0  0  0  0  0  0  0  0  0  0  0  0
    6.8330   -1.3520   18.4790 C   0  0  0  0  0  0  0  0  0  0  0  0
    6.4400    3.0360   22.1140 C   0  0  0  0  0  0  0  0  0  0  0  0
    4.8280    1.7550   18.0910 C   0  0  0  0  0  0  0  0  0  0  0  0
    8.0830   -1.0150   17.9970 O   0  0  0  0  0  0  0  0  0  0  0  0
  1  2  2  3
  1  3  1  0
  3  4  1  0
  3  5  1  0
  4  6  2  0
  4  7  1  0
  5  8  1  1
  5  9  1  0
  6 10  1  0
  7 11  2  0
  8 12  2  0
  8 13  1  0
  9 14  2  0
  9 15  1  0
 10 16  2  0
 11 16  1  0
 13 17  1  0
 14 18  1  0
 15 19  2  0
 15 20  1  0
 16 21  1  0
 17 22  2  0
 17 23  1  0
 18 24  2  0
 19 24  1  0
 21 25  1  0
 21 26  1  0
 21 27  1  0
 22 28  1  0
 22 29  1  0
 23 30  2  0
 23 31  1  0
 28 32  1  0
 29 33  2  0
 30 33  1  0
 31 34  1  0
M  END
