DAR-DIA-2b784ede-46-nitrile
     RDKit          3D

 31 34  0  0  0  0  0  0  0  0999 V2000
    7.2980   -4.2590   20.5540 C   0  0  0  0  0  0  0  0  0  0  0  0
    6.1260   -4.0830   19.9740 N   0  0  0  0  0  0  0  0  0  0  0  0
    8.0730   -3.2400   21.2570 N   0  0  0  0  0  0  0  0  0  0  0  0
    8.2310   -2.7250   22.6720 C   0  0  0  0  0  0  0  0  0  0  0  0
    7.2590   -2.1570   20.9430 C   0  0  1  0  0  0  0  0  0  0  0  0
    9.6670   -2.4710   21.8760 C   0  0  0  0  0  0  0  0  0  0  0  0
    8.7480   -2.0170   24.2110 S   0  0  0  0  0  0  0  0  0  0  0  0
    5.9820   -2.7040   21.1080 C   0  0  0  0  0  0  0  0  0  0  0  0
    7.4690   -0.8560   21.7160 C   0  0  0  0  0  0  0  0  0  0  0  0
   10.9120   -1.7480   22.5990 C   0  0  0  0  0  0  0  0  0  0  0  0
   10.3650   -1.4690   23.9160 C   0  0  0  0  0  0  0  0  0  0  0  0
    5.7050   -3.4230   22.0750 O   0  0  0  0  0  0  0  0  0  0  0  0
    5.1070   -2.4040   20.1770 N   0  0  0  0  0  0  0  0  0  0  0  0
    8.8170   -0.0970   21.6420 C   0  0  0  0  0  0  0  0  0  0  0  0
    6.4770   -0.2700   22.5160 C   0  0  0  0  0  0  0  0  0  0  0  0
   11.3800   -0.7290   24.7870 C   0  0  0  0  0  0  0  0  0  0  0  0
   12.3300   -1.3630   22.2410 C   0  0  0  0  0  0  0  0  0  0  0  0
    5.5580   -1.1200   19.6550 C   0  0  0  0  0  0  0  0  0  0  0  0
    8.9870    1.2020   22.4100 C   0  0  0  0  0  0  0  0  0  0  0  0
    6.5900    0.8950   23.2250 N   0  0  0  0  0  0  0  0  0  0  0  0
   11.7480    0.4720   23.8690 C   0  0  0  0  0  0  0  0  0  0  0  0
   12.7150   -0.1380   22.8370 C   0  0  0  0  0  0  0  0  0  0  0  0
    6.6690   -1.3320   18.9200 C   0  0  0  0  0  0  0  0  0  0  0  0
    5.0240    0.2360   19.8220 C   0  0  0  0  0  0  0  0  0  0  0  0
    7.7430    1.6050   23.1970 C   0  0  0  0  0  0  0  0  0  0  0  0
    7.1770   -2.5410   18.7360 C   0  0  0  0  0  0  0  0  0  0  0  0
    7.3000   -0.3420   18.3520 C   0  0  0  0  0  0  0  0  0  0  0  0
    5.7060    1.2530   19.1890 C   0  0  0  0  0  0  0  0  0  0  0  0
    3.8390    0.7360   20.5860 C   0  0  0  0  0  0  0  0  0  0  0  0
    6.8210    1.0320   18.4570 C   0  0  0  0  0  0  0  0  0  0  0  0
    3.4150    2.0070   20.0770 O   0  0  0  0  0  0  0  0  0  0  0  0
  1  2  2  3
  1  3  1  0
  3  4  1  0
  3  5  1  0
  4  6  2  0
  4  7  1  0
  5  8  1  1
  5  9  1  0
  6 10  1  0
  7 11  1  0
 10 11  2  0
  8 12  2  0
  8 13  1  0
  9 14  2  0
  9 15  1  0
 11 16  1  0
 10 17  1  0
 13 18  1  0
 14 19  1  0
 15 20  2  0
 16 21  1  0
 17 22  1  0
 21 22  1  0
 18 23  2  0
 18 24  1  0
 19 25  2  0
 20 25  1  0
 23 26  1  0
 23 27  1  0
 24 28  2  0
 24 29  1  0
 27 30  2  0
 28 30  1  0
 29 31  1  0
M  END
