DAR-DIA-fc970077-10
     RDKit          3D

 20 22  0  0  0  0  0  0  0  0999 V2000
    8.6630    0.7710   21.2910 O   0  0  0  0  0  0  0  0  0  0  0  0
    8.3040   -0.3640   21.6080 C   0  0  0  0  0  0  0  0  0  0  0  0
    9.1660   -1.1420   22.4370 N   0  0  0  0  0  0  0  0  0  0  0  0
    7.0490   -0.8770   21.1470 N   0  0  0  0  0  0  0  0  0  0  0  0
   10.5000   -0.6270   22.5920 C   0  0  0  0  0  0  0  0  0  0  0  0
    9.0800   -2.6100   22.5400 C   0  0  0  0  0  0  0  0  0  0  0  0
    6.1430   -1.5790   22.0790 C   0  0  0  0  0  0  0  0  0  0  0  0
    6.3850   -0.1010   20.1150 C   0  0  0  0  0  0  0  0  0  0  0  0
   11.6420   -1.4070   22.3400 C   0  0  0  0  0  0  0  0  0  0  0  0
   10.7010    0.6940   23.0030 C   0  0  0  0  0  0  0  0  0  0  0  0
    7.7860   -3.2020   23.0550 C   0  0  0  0  0  0  0  0  0  0  0  0
    6.8140   -2.0730   23.3490 C   0  0  0  0  0  0  0  0  0  0  0  0
    5.1690    0.5280   20.3450 C   0  0  0  0  0  0  0  0  0  0  0  0
    6.8880    0.0910   18.8320 C   0  0  0  0  0  0  0  0  0  0  0  0
   12.9240   -0.8810   22.4910 C   0  0  0  0  0  0  0  0  0  0  0  0
   11.9820    1.2250   23.1520 C   0  0  0  0  0  0  0  0  0  0  0  0
    4.5290    1.2870   19.3570 C   0  0  0  0  0  0  0  0  0  0  0  0
    6.2980    0.8280   17.8600 N   0  0  0  0  0  0  0  0  0  0  0  0
   13.0790    0.4400   22.8970 C   0  0  0  0  0  0  0  0  0  0  0  0
    5.1350    1.4080   18.1330 C   0  0  0  0  0  0  0  0  0  0  0  0
  1  2  2  0
  2  3  1  0
  2  4  1  0
  3  5  1  0
  3  6  1  0
  4  7  1  0
  4  8  1  0
  5  9  2  0
  5 10  1  0
  6 11  1  0
  7 12  1  0
 11 12  1  0
  8 13  2  0
  8 14  1  0
  9 15  1  0
 10 16  2  0
 13 17  1  0
 14 18  2  0
 15 19  2  0
 16 19  1  0
 17 20  2  0
 18 20  1  0
M  END
