DAR-DIA-23aa0b97-12
     RDKit          3D

 20 22  0  0  0  0  0  0  0  0999 V2000
    8.6510    1.0290   21.4370 O   0  0  0  0  0  0  0  0  0  0  0  0
    8.6460   -0.2060   21.4200 C   0  0  0  0  0  0  0  0  0  0  0  0
    7.4640   -1.0560   21.2860 C   0  0  0  0  0  0  0  0  0  0  0  0
    9.7190   -0.9970   21.4900 N   0  0  0  0  0  0  0  0  0  0  0  0
    6.7840   -0.4090   20.1300 C   0  0  0  0  0  0  0  0  0  0  0  0
   10.6160   -0.6790   22.3960 C   0  0  0  0  0  0  0  0  0  0  0  0
    7.2190   -0.6370   18.7020 C   0  0  0  0  0  0  0  0  0  0  0  0
    5.7020    0.4830   20.1060 C   0  0  0  0  0  0  0  0  0  0  0  0
   10.6920    0.5260   22.9490 C   0  0  0  0  0  0  0  0  0  0  0  0
   11.5170   -1.6520   22.7850 C   0  0  0  0  0  0  0  0  0  0  0  0
    6.3840    0.1210   17.9850 N   0  0  0  0  0  0  0  0  0  0  0  0
    5.4740    0.8000   18.7580 C   0  0  0  0  0  0  0  0  0  0  0  0
    4.8660    1.0870   21.0040 C   0  0  0  0  0  0  0  0  0  0  0  0
   11.6140    0.8220   23.8740 C   0  0  0  0  0  0  0  0  0  0  0  0
   12.4680   -1.3560   23.7410 C   0  0  0  0  0  0  0  0  0  0  0  0
    4.5540    1.6160   18.2080 N   0  0  0  0  0  0  0  0  0  0  0  0
    3.8580    1.9570   20.6050 C   0  0  0  0  0  0  0  0  0  0  0  0
   12.5170   -0.1120   24.2920 C   0  0  0  0  0  0  0  0  0  0  0  0
   13.5720   -2.5390   24.2410 Cl  0  0  0  0  0  0  0  0  0  0  0  0
    3.7710    2.1630   19.2180 C   0  0  0  0  0  0  0  0  0  0  0  0
  1  2  2  0
  2  3  1  0
  2  4  1  0
  3  5  1  0
  4  6  1  0
  5  7  2  0
  5  8  1  0
  6  9  2  0
  6 10  1  0
  7 11  1  0
  8 12  2  0
 11 12  1  0
  8 13  1  0
  9 14  1  0
 10 15  2  0
 12 16  1  0
 13 17  2  0
 14 18  2  0
 15 18  1  0
 15 19  1  0
 16 20  2  0
 17 20  1  0
M  END
