DAR-DIA-fb20be43-6-nitrile
     RDKit          3D

 21 23  0  0  0  0  0  0  0  0999 V2000
    7.1520   -3.2460   19.4420 C   0  0  0  0  0  0  0  0  0  0  0  0
    6.2830   -3.0850   18.5450 N   0  0  0  0  0  0  0  0  0  0  0  0
    6.9990   -2.7310   20.6900 N   0  0  0  0  0  0  0  0  0  0  0  0
    6.5760   -3.5640   21.8190 C   0  0  0  0  0  0  0  0  0  0  0  0
    7.5680   -1.4210   21.0350 C   0  0  0  0  0  0  0  0  0  0  0  0
    7.7050   -3.6460   22.8520 C   0  0  0  0  0  0  0  0  0  0  0  0
    8.6380   -1.5860   21.9350 C   0  0  0  0  0  0  0  0  0  0  0  0
    8.2440   -2.3170   23.1650 N   0  0  0  0  0  0  0  0  0  0  0  0
    9.3620   -2.3950   24.1020 C   0  0  0  0  0  0  0  0  0  0  0  0
   10.4080   -1.4210   23.6340 C   0  0  0  0  0  0  0  0  0  0  0  0
   11.4790   -1.9060   22.7620 C   0  0  0  0  0  0  0  0  0  0  0  0
   10.3570   -0.0670   23.9690 C   0  0  0  0  0  0  0  0  0  0  0  0
   12.3950   -0.9920   22.3090 C   0  0  0  0  0  0  0  0  0  0  0  0
   11.3400    0.8180   23.4700 C   0  0  0  0  0  0  0  0  0  0  0  0
    9.2500    0.4870   24.8480 C   0  0  0  0  0  0  0  0  0  0  0  0
   13.3050   -1.4290   21.4690 C   0  0  0  0  0  0  0  0  0  0  0  0
   12.3460    0.3340   22.6650 C   0  0  0  0  0  0  0  0  0  0  0  0
   11.3260    2.1810   23.7350 C   0  0  0  0  0  0  0  0  0  0  0  0
    9.2270    1.9860   25.1240 C   0  0  0  0  0  0  0  0  0  0  0  0
   13.9010   -1.7410   20.6000 N   0  0  0  0  0  0  0  0  0  0  0  0
   10.2200    2.7810   24.5800 C   0  0  0  0  0  0  0  0  0  0  0  0
  1  2  2  3
  1  3  1  0
  3  4  1  0
  3  5  1  0
  4  6  1  0
  5  7  1  0
  6  8  1  0
  7  8  1  0
  8  9  1  0
  9 10  1  0
 10 11  2  0
 10 12  1  0
 11 13  1  0
 12 14  2  0
 12 15  1  0
 13 16  1  0
 13 17  2  0
 14 17  1  0
 14 18  1  0
 15 19  2  0
 16 20  3  0
 18 21  2  0
 19 21  1  0
M  END
