DAR-DIA-caba39e3-12-nitrile
     RDKit          3D

 30 33  0  0  0  0  0  0  0  0999 V2000
    6.8720   -3.8740   20.0340 C   0  0  0  0  0  0  0  0  0  0  0  0
    5.9030   -3.3960   19.3320 N   0  0  0  0  0  0  0  0  0  0  0  0
    7.5630   -2.9600   20.8130 N   0  0  0  0  0  0  0  0  0  0  0  0
    7.5480   -1.5560   20.7010 C   0  0  0  0  0  0  0  0  0  0  0  0
    8.2110   -3.4600   22.0520 C   0  0  0  0  0  0  0  0  0  0  0  0
    8.1820   -0.7480   21.8700 C   0  0  0  0  0  0  0  0  0  0  0  0
    7.6830   -2.7010   23.2690 C   0  0  2  0  0  0  0  0  0  0  0  0
    8.7290    0.6260   21.7160 C   0  0  0  0  0  0  0  0  0  0  0  0
    8.2490   -1.3110   23.1180 C   0  0  0  0  0  0  0  0  0  0  0  0
    7.7670   -3.5240   24.3710 C   0  0  0  0  0  0  0  0  0  0  0  0
    9.3540    1.4000   22.8670 C   0  0  0  0  0  0  0  0  0  0  0  0
    8.8390   -0.6980   24.4150 C   0  0  0  0  0  0  0  0  0  0  0  0
    8.9230   -4.3470   24.6920 C   0  0  0  0  0  0  0  0  0  0  0  0
    6.6230   -3.5520   25.2380 C   0  0  0  0  0  0  0  0  0  0  0  0
    9.4330    0.7570   24.2740 C   0  0  0  0  0  0  0  0  0  0  0  0
    8.7630   -5.0810   25.8370 C   0  0  0  0  0  0  0  0  0  0  0  0
    6.4890   -4.2960   26.3830 N   0  0  0  0  0  0  0  0  0  0  0  0
    5.3380   -2.7490   25.0340 C   0  0  0  0  0  0  0  0  0  0  0  0
    9.3190   -5.9940   26.7240 C   0  0  0  0  0  0  0  0  0  0  0  0
    7.6130   -5.1370   26.7490 C   0  0  0  0  0  0  0  0  0  0  0  0
    4.5860   -3.1920   23.8680 N   0  0  0  0  0  0  0  0  0  0  0  0
    9.0990   -5.7300   28.0790 N   0  0  0  0  0  0  0  0  0  0  0  0
    3.3760   -4.0280   24.0260 C   0  0  0  0  0  0  0  0  0  0  0  0
    2.4430   -3.6890   24.7480 O   0  0  0  0  0  0  0  0  0  0  0  0
    3.3710   -5.0240   23.4130 N   0  0  0  0  0  0  0  0  0  0  0  0
    4.5760   -5.7000   22.9490 C   0  0  0  0  0  0  0  0  0  0  0  0
    2.2720   -5.9620   23.6290 C   0  0  0  0  0  0  0  0  0  0  0  0
    4.8820   -6.8080   23.7800 C   0  0  0  0  0  0  0  0  0  0  0  0
    2.7210   -7.0270   24.4230 C   0  0  0  0  0  0  0  0  0  0  0  0
    3.8590   -7.6440   24.0580 O   0  0  0  0  0  0  0  0  0  0  0  0
  1  2  2  3
  1  3  1  0
  3  4  1  0
  3  5  1  0
  4  6  1  0
  5  7  1  0
  6  8  1  0
  6  9  2  0
  7  9  1  0
  7 10  1  1
  8 11  2  0
  9 12  1  0
 10 13  2  0
 10 14  1  0
 11 15  1  0
 12 15  2  0
 13 16  1  0
 14 17  2  0
 14 18  1  0
 16 19  1  0
 16 20  2  0
 17 20  1  0
 18 21  1  0
 19 22  3  0
 21 23  1  0
 23 24  2  0
 23 25  1  0
 25 26  1  0
 25 27  1  0
 26 28  1  0
 27 29  1  0
 28 30  1  0
 29 30  1  0
M  END
