DAR-DIA-23aa0b97-10-nitrile
     RDKit          3D

 21 23  0  0  0  0  0  0  0  0999 V2000
    6.7420   -3.5060   19.6940 C   0  0  0  0  0  0  0  0  0  0  0  0
    5.6630   -3.2790   19.0320 N   0  0  0  0  0  0  0  0  0  0  0  0
    7.2150   -2.3490   20.5700 C   0  0  0  0  0  0  0  0  0  0  0  0
    8.3000   -1.8720   21.4700 C   0  0  0  0  0  0  0  0  0  0  0  0
    8.4310   -2.6450   21.1520 C   0  0  0  0  0  0  0  0  0  0  0  0
    9.6330   -2.3500   22.0350 N   0  0  0  0  0  0  0  0  0  0  0  0
    8.7410   -1.3930   21.9720 C   0  0  0  0  0  0  0  0  0  0  0  0
    9.9060   -1.2360   22.7570 C   0  0  0  0  0  0  0  0  0  0  0  0
    7.8930   -0.1950   22.0640 N   0  0  0  0  0  0  0  0  0  0  0  0
    7.9340    0.7580   21.0520 C   0  0  0  0  0  0  0  0  0  0  0  0
    8.6870    1.7350   21.1140 O   0  0  0  0  0  0  0  0  0  0  0  0
    7.0870    0.5050   19.9940 N   0  0  0  0  0  0  0  0  0  0  0  0
    5.8060    1.0600   19.7590 C   0  0  0  0  0  0  0  0  0  0  0  0
    5.3050    1.2310   18.4820 C   0  0  0  0  0  0  0  0  0  0  0  0
    4.7110    1.5740   20.5510 C   0  0  0  0  0  0  0  0  0  0  0  0
    4.0940    1.7620   18.4460 N   0  0  0  0  0  0  0  0  0  0  0  0
    3.6980    1.9850   19.7210 C   0  0  0  0  0  0  0  0  0  0  0  0
    4.3250    1.7930   21.8100 C   0  0  0  0  0  0  0  0  0  0  0  0
    2.5130    2.5170   20.0770 N   0  0  0  0  0  0  0  0  0  0  0  0
    3.0980    2.3440   22.1780 C   0  0  0  0  0  0  0  0  0  0  0  0
    2.0010    2.7890   21.3490 C   0  0  0  0  0  0  0  0  0  0  0  0
  1  2  2  3
  1  3  1  0
  3  4  2  0
  3  5  1  0
  4  6  1  0
  5  7  2  0
  6  8  2  0
  7  8  1  0
  7  9  1  0
  9 10  1  0
 10 11  2  0
 10 12  1  0
 12 13  1  0
 13 14  2  0
 13 15  1  0
 14 16  1  0
 15 17  2  0
 16 17  1  0
 15 18  1  0
 17 19  1  0
 18 20  2  0
 19 21  2  0
 20 21  1  0
M  END
