DAR-DIA-fb20be43-16-chloroacetamide
     RDKit          3D

 28 30  0  0  0  0  0  0  0  0999 V2000
    7.3890   -2.9450   18.7310 C   0  0  0  0  0  0  0  0  0  0  0  0
    6.4750   -3.0730   19.6840 C   0  0  0  0  0  0  0  0  0  0  0  0
    5.4990   -3.8150   19.5250 O   0  0  0  0  0  0  0  0  0  0  0  0
    6.6200   -2.3680   20.8560 N   0  0  0  0  0  0  0  0  0  0  0  0
    6.2980   -3.1040   22.0880 C   0  0  0  0  0  0  0  0  0  0  0  0
    7.5180   -1.2180   21.0130 C   0  0  0  0  0  0  0  0  0  0  0  0
    7.5870   -3.4880   22.8260 C   0  0  0  0  0  0  0  0  0  0  0  0
    8.7570   -1.5980   21.8390 C   0  0  0  0  0  0  0  0  0  0  0  0
    8.4140   -2.3100   23.0820 N   0  0  0  0  0  0  0  0  0  0  0  0
    9.6090   -2.6910   23.8190 C   0  0  0  0  0  0  0  0  0  0  0  0
   10.6710   -1.6660   23.6210 C   0  0  0  0  0  0  0  0  0  0  0  0
   11.5800   -1.9110   22.6260 C   0  0  0  0  0  0  0  0  0  0  0  0
   10.7610   -0.5030   24.3610 C   0  0  0  0  0  0  0  0  0  0  0  0
   12.5650   -1.0240   22.3590 C   0  0  0  0  0  0  0  0  0  0  0  0
   11.8020    0.4060   24.0660 C   0  0  0  0  0  0  0  0  0  0  0  0
    9.7800   -0.1610   25.4580 C   0  0  0  0  0  0  0  0  0  0  0  0
   13.4060   -1.3230   21.3370 C   0  0  0  0  0  0  0  0  0  0  0  0
   12.7030    0.1300   23.0590 C   0  0  0  0  0  0  0  0  0  0  0  0
    8.9520    0.9090   24.9370 N   0  0  0  0  0  0  0  0  0  0  0  0
   13.9930   -1.4830   20.4230 N   0  0  0  0  0  0  0  0  0  0  0  0
    8.8670    2.2160   25.3250 C   0  0  0  0  0  0  0  0  0  0  0  0
    8.4630    2.5840   26.4150 O   0  0  0  0  0  0  0  0  0  0  0  0
    9.1950    3.1160   24.3350 N   0  0  0  0  0  0  0  0  0  0  0  0
   10.3570    2.9120   23.6440 C   0  0  0  0  0  0  0  0  0  0  0  0
    8.1590    3.7900   23.5380 C   0  0  0  0  0  0  0  0  0  0  0  0
   10.1510    3.4280   22.2580 C   0  0  0  0  0  0  0  0  0  0  0  0
    8.1590    3.2340   22.1060 C   0  0  0  0  0  0  0  0  0  0  0  0
    9.2290    2.8950   21.6210 O   0  0  0  0  0  0  0  0  0  0  0  0
  1  2  1  0
  2  3  2  0
  2  4  1  0
  4  5  1  0
  4  6  1  0
  5  7  1  0
  6  8  1  0
  7  9  1  0
  8  9  1  0
  9 10  1  0
 10 11  1  0
 11 12  2  0
 11 13  1  0
 12 14  1  0
 13 15  2  0
 13 16  1  0
 14 17  1  0
 14 18  2  0
 15 18  1  0
 16 19  1  0
 17 20  3  0
 19 21  1  0
 21 22  2  0
 21 23  1  0
 23 24  1  0
 23 25  1  0
 24 26  1  0
 25 27  1  0
 26 28  1  0
 27 28  1  0
M  END
