DAR-DIA-fb20be43-15-nitrile
     RDKit          3D

 25 27  0  0  0  0  0  0  0  0999 V2000
    6.7890   -3.3980   19.6910 C   0  0  0  0  0  0  0  0  0  0  0  0
    5.8300   -3.2430   18.8740 N   0  0  0  0  0  0  0  0  0  0  0  0
    6.8480   -2.6700   20.8360 N   0  0  0  0  0  0  0  0  0  0  0  0
    6.4990   -3.2980   22.1150 C   0  0  0  0  0  0  0  0  0  0  0  0
    7.4740   -1.3410   20.8600 C   0  0  0  0  0  0  0  0  0  0  0  0
    7.6690   -3.1760   23.1030 C   0  0  0  0  0  0  0  0  0  0  0  0
    8.5510   -1.2830   21.9460 C   0  0  0  0  0  0  0  0  0  0  0  0
    8.0950   -1.7780   23.2330 N   0  0  0  0  0  0  0  0  0  0  0  0
    9.0940   -1.6160   24.2880 C   0  0  0  0  0  0  0  0  0  0  0  0
   10.2360   -0.8110   23.7200 C   0  0  0  0  0  0  0  0  0  0  0  0
   11.2360   -1.6280   23.0000 C   0  0  0  0  0  0  0  0  0  0  0  0
   10.4650    0.5910   23.7500 C   0  0  0  0  0  0  0  0  0  0  0  0
   12.3070   -1.0100   22.4260 C   0  0  0  0  0  0  0  0  0  0  0  0
   11.5740    1.1460   23.1470 C   0  0  0  0  0  0  0  0  0  0  0  0
    9.7720    1.6580   24.2860 N   0  0  0  0  0  0  0  0  0  0  0  0
   13.3500   -2.0040   21.5940 Cl  0  0  0  0  0  0  0  0  0  0  0  0
   12.5020    0.3520   22.5060 C   0  0  0  0  0  0  0  0  0  0  0  0
   11.5570    2.5610   23.2890 C   0  0  0  0  0  0  0  0  0  0  0  0
   10.4180    2.8530   24.0060 C   0  0  0  0  0  0  0  0  0  0  0  0
   12.5060    3.4840   22.7780 C   0  0  0  0  0  0  0  0  0  0  0  0
   12.3620    4.8720   23.3860 C   0  0  0  0  0  0  0  0  0  0  0  0
   11.4030    5.6070   22.6700 N   0  0  0  0  0  0  0  0  0  0  0  0
   10.2770    6.1410   23.4300 C   0  0  0  0  0  0  0  0  0  0  0  0
    9.1240    6.5820   22.5340 C   0  0  0  0  0  0  0  0  0  0  0  0
   10.2440    6.2410   24.6510 O   0  0  0  0  0  0  0  0  0  0  0  0
  1  2  2  3
  1  3  1  0
  3  4  1  0
  3  5  1  0
  4  6  1  0
  5  7  1  0
  6  8  1  0
  7  8  1  0
  8  9  1  0
  9 10  1  0
 10 11  2  0
 10 12  1  0
 11 13  1  0
 12 14  2  0
 12 15  1  0
 13 16  1  0
 13 17  2  0
 14 17  1  0
 14 18  1  0
 15 19  1  0
 18 19  2  0
 18 20  1  0
 20 21  1  0
 21 22  1  0
 22 23  1  0
 23 24  1  0
 23 25  2  0
M  END
