DAR-DIA-842b4336-9-acrylamide
     RDKit          3D

 19 20  0  0  0  0  0  0  0  0999 V2000
    7.9400   -3.9980   20.6630 C   0  0  0  0  0  0  0  0  0  0  0  0
    7.0660   -2.7680   20.6240 C   0  0  0  0  0  0  0  0  0  0  0  0
    6.3260   -2.6620   21.9470 C   0  0  0  0  0  0  0  0  0  0  0  0
    5.1290   -3.4470   21.3630 O   0  0  0  0  0  0  0  0  0  0  0  0
    7.7680   -1.8690   22.1360 C   0  0  0  0  0  0  0  0  0  0  0  0
    8.2960   -1.7700   23.5430 C   0  0  0  0  0  0  0  0  0  0  0  0
    8.6960   -1.4680   23.0680 O   0  0  0  0  0  0  0  0  0  0  0  0
    9.3440   -1.2900   24.3650 C   0  0  0  0  0  0  0  0  0  0  0  0
    9.8240   -0.8080   23.0810 C   0  0  0  0  0  0  0  0  0  0  0  0
    9.4880   -0.7510   21.6820 N   0  0  0  0  0  0  0  0  0  0  0  0
    8.6240    0.2530   21.2970 C   0  0  0  0  0  0  0  0  0  0  0  0
    8.8930    1.4460   21.1470 O   0  0  0  0  0  0  0  0  0  0  0  0
    7.2480   -0.1670   21.0350 N   0  0  0  0  0  0  0  0  0  0  0  0
    6.5550    0.3200   20.0080 C   0  0  0  0  0  0  0  0  0  0  0  0
    5.2940    1.1400   20.3280 C   0  0  0  0  0  0  0  0  0  0  0  0
    6.9330    0.1260   18.6990 C   0  0  0  0  0  0  0  0  0  0  0  0
    4.6780    1.6110   19.2340 C   0  0  0  0  0  0  0  0  0  0  0  0
    6.2560    0.6370   17.6260 N   0  0  0  0  0  0  0  0  0  0  0  0
    5.1350    1.3790   17.9560 C   0  0  0  0  0  0  0  0  0  0  0  0
  1  2  1  0
  2  3  1  0
  3  4  2  0
  3  5  1  0
  5  6  2  0
  5  7  1  0
  6  8  1  0
  7  9  1  0
  8  9  2  0
  9 10  1  0
 10 11  1  0
 11 12  2  0
 11 13  1  0
 13 14  1  0
 14 15  2  0
 14 16  1  0
 15 17  1  0
 16 18  2  0
 17 19  2  0
 18 19  1  0
M  END
