DAR-DIA-8e329c92-3
     RDKit          3D

 25 27  0  0  0  0  0  0  0  0999 V2000
   11.4560    6.3710   25.7450 C   0  0  0  0  0  0  0  0  0  0  0  0
   10.1160    5.8760   25.8780 O   0  0  0  0  0  0  0  0  0  0  0  0
    9.3790    5.8490   24.7210 C   0  0  0  0  0  0  0  0  0  0  0  0
    9.6420    6.9140   23.7020 C   0  0  0  0  0  0  0  0  0  0  0  0
    8.3950    4.8470   24.4850 C   0  0  0  0  0  0  0  0  0  0  0  0
    8.9260    6.9240   22.5290 C   0  0  0  0  0  0  0  0  0  0  0  0
    7.7010    4.9060   23.2830 C   0  0  0  0  0  0  0  0  0  0  0  0
    8.2000    3.8950   25.4610 O   0  0  0  0  0  0  0  0  0  0  0  0
    7.9710    5.9160   22.3500 C   0  0  0  0  0  0  0  0  0  0  0  0
    7.6070    2.6360   25.1140 C   0  0  0  0  0  0  0  0  0  0  0  0
    7.7730    1.3860   26.0100 C   0  0  0  0  0  0  0  0  0  0  0  0
    8.8800    0.4760   25.4480 N   0  0  0  0  0  0  0  0  0  0  0  0
    9.3070   -0.4720   24.6270 C   0  0  0  0  0  0  0  0  0  0  0  0
    8.5950   -1.4700   24.3850 O   0  0  0  0  0  0  0  0  0  0  0  0
   10.6890   -0.2960   23.9880 C   0  0  0  0  0  0  0  0  0  0  0  0
   11.4170   -1.4550   23.7390 C   0  0  0  0  0  0  0  0  0  0  0  0
   11.2010    0.9880   23.6600 C   0  0  0  0  0  0  0  0  0  0  0  0
   12.7530   -1.3430   23.1190 C   0  0  0  0  0  0  0  0  0  0  0  0
   12.4810    1.0520   23.0820 C   0  0  0  0  0  0  0  0  0  0  0  0
   10.5210    2.1890   23.8710 C   0  0  0  0  0  0  0  0  0  0  0  0
   13.4130   -2.3490   22.8840 O   0  0  0  0  0  0  0  0  0  0  0  0
   13.2050   -0.1120   22.8330 C   0  0  0  0  0  0  0  0  0  0  0  0
   13.0670    2.3600   22.7330 C   0  0  0  0  0  0  0  0  0  0  0  0
   11.0680    3.4210   23.5290 C   0  0  0  0  0  0  0  0  0  0  0  0
   12.3460    3.5110   22.9570 C   0  0  0  0  0  0  0  0  0  0  0  0
  1  2  1  0
  2  3  1  0
  3  4  2  0
  3  5  1  0
  4  6  1  0
  5  7  2  0
  5  8  1  0
  6  9  2  0
  7  9  1  0
  8 10  1  0
 10 11  1  0
 11 12  1  0
 12 13  1  0
 13 14  2  0
 13 15  1  0
 15 16  2  0
 15 17  1  0
 16 18  1  0
 17 19  2  0
 17 20  1  0
 18 21  1  0
 18 22  2  0
 19 22  1  0
 19 23  1  0
 20 24  2  0
 23 25  2  0
 24 25  1  0
M  END
