DAR-DIA-23aa0b97-9-bromoalkyne
     RDKit          3D

 19 20  0  0  0  0  0  0  0  0999 V2000
    7.6680   -3.2410   19.8380 C   0  0  0  0  0  0  0  0  0  0  0  0
    7.1850   -2.5590   18.4940 C   0  0  0  0  0  0  0  0  0  0  0  0
    8.5130   -2.4110   20.8930 C   0  0  0  0  0  0  0  0  0  0  0  0
   10.0240   -2.5890   21.3300 C   0  0  0  0  0  0  0  0  0  0  0  0
    7.8740   -1.3320   21.5630 C   0  0  0  0  0  0  0  0  0  0  0  0
   10.5730   -1.7650   22.2700 N   0  0  0  0  0  0  0  0  0  0  0  0
    8.5830   -0.5530   22.5010 C   0  0  0  0  0  0  0  0  0  0  0  0
    9.8660   -0.7810   22.8290 C   0  0  0  0  0  0  0  0  0  0  0  0
    8.0560    0.5020   23.1410 N   0  0  0  0  0  0  0  0  0  0  0  0
    7.8270    1.3310   22.0780 C   0  0  0  0  0  0  0  0  0  0  0  0
    8.6330    2.1030   21.5380 O   0  0  0  0  0  0  0  0  0  0  0  0
    6.5280    1.1150   21.7060 N   0  0  0  0  0  0  0  0  0  0  0  0
    6.0460    1.2030   20.4040 C   0  0  0  0  0  0  0  0  0  0  0  0
    6.6810    0.5130   19.2320 C   0  0  0  0  0  0  0  0  0  0  0  0
    4.9210    1.9700   20.1760 C   0  0  0  0  0  0  0  0  0  0  0  0
    6.1860    0.6390   17.9840 N   0  0  0  0  0  0  0  0  0  0  0  0
    4.4300    2.0880   18.9040 C   0  0  0  0  0  0  0  0  0  0  0  0
    5.0890    1.4190   17.8670 C   0  0  0  0  0  0  0  0  0  0  0  0
    3.2850    2.8750   18.6680 N   0  0  0  0  0  0  0  0  0  0  0  0
  1  2  2  3
  1  3  1  0
  3  4  2  0
  3  5  1  0
  4  6  1  0
  5  7  2  0
  6  8  2  0
  7  8  1  0
  7  9  1  0
  9 10  1  0
 10 11  2  0
 10 12  1  0
 12 13  1  0
 13 14  2  0
 13 15  1  0
 14 16  1  0
 15 17  2  0
 16 18  2  0
 17 18  1  0
 17 19  1  0
M  END
