DAR-DIA-842b4336-2
     RDKit          3D

 16 17  0  0  0  0  0  0  0  0999 V2000
   13.4670   -1.3730   24.0940 C   0  0  0  0  0  0  0  0  0  0  0  0
   12.2380   -1.1370   23.5680 N   0  0  0  0  0  0  0  0  0  0  0  0
   11.2860   -0.1390   23.9790 C   0  0  0  0  0  0  0  0  0  0  0  0
   11.8740   -1.9120   22.5440 N   0  0  0  0  0  0  0  0  0  0  0  0
   10.1590   -0.3600   23.0490 C   0  0  0  0  0  0  0  0  0  0  0  0
   10.6660   -1.4960   22.1990 C   0  0  0  0  0  0  0  0  0  0  0  0
    8.9590    0.4840   23.1640 N   0  0  0  0  0  0  0  0  0  0  0  0
    8.5490    0.9210   21.8420 C   0  0  0  0  0  0  0  0  0  0  0  0
    9.0700    1.8350   21.2130 O   0  0  0  0  0  0  0  0  0  0  0  0
    7.4910    0.1540   21.4210 N   0  0  0  0  0  0  0  0  0  0  0  0
    6.6820    0.4570   20.3370 C   0  0  0  0  0  0  0  0  0  0  0  0
    5.6120    1.3120   20.3430 C   0  0  0  0  0  0  0  0  0  0  0  0
    6.9650   -0.1460   19.1110 C   0  0  0  0  0  0  0  0  0  0  0  0
    4.8830    1.5500   19.2070 C   0  0  0  0  0  0  0  0  0  0  0  0
    6.2750    0.0590   17.9630 N   0  0  0  0  0  0  0  0  0  0  0  0
    5.2390    0.9110   18.0310 C   0  0  0  0  0  0  0  0  0  0  0  0
  1  2  1  0
  2  3  1  0
  2  4  1  0
  3  5  2  0
  4  6  2  0
  5  6  1  0
  5  7  1  0
  7  8  1  0
  8  9  2  0
  8 10  1  0
 10 11  1  0
 11 12  2  0
 11 13  1  0
 12 14  1  0
 13 15  2  0
 14 16  2  0
 15 16  1  0
M  END
