DAR-DIA-fb20be43-13-vinylsulfonamide
     RDKit          3D

 29 31  0  0  0  0  0  0  0  0999 V2000
    7.9480   -2.8200   18.7840 C   0  0  0  0  0  0  0  0  0  0  0  0
    6.7000   -2.8960   18.6960 C   0  0  0  0  0  0  0  0  0  0  0  0
    5.9110   -3.2960   20.1780 S   0  0  0  0  0  0  0  0  0  0  0  0
    4.5990   -3.0690   19.7560 O   0  0  0  0  0  0  0  0  0  0  0  0
    6.2900   -4.5820   20.7070 O   0  0  0  0  0  0  0  0  0  0  0  0
    6.4110   -2.1550   21.2630 N   0  0  0  0  0  0  0  0  0  0  0  0
    7.5720   -1.2940   21.0030 C   0  0  0  0  0  0  0  0  0  0  0  0
    6.3310   -2.5820   22.6490 C   0  0  0  0  0  0  0  0  0  0  0  0
    8.7500   -1.5750   21.9670 C   0  0  0  0  0  0  0  0  0  0  0  0
    7.5430   -3.4340   23.0550 C   0  0  0  0  0  0  0  0  0  0  0  0
    8.8490   -2.9100   22.6340 N   0  0  0  0  0  0  0  0  0  0  0  0
    9.7170   -2.7500   23.8080 C   0  0  0  0  0  0  0  0  0  0  0  0
   10.5930   -1.5800   23.5510 C   0  0  0  0  0  0  0  0  0  0  0  0
   11.7770   -1.7480   22.8100 C   0  0  0  0  0  0  0  0  0  0  0  0
   10.2460   -0.3130   24.0150 C   0  0  0  0  0  0  0  0  0  0  0  0
   12.5320   -0.6370   22.5670 C   0  0  0  0  0  0  0  0  0  0  0  0
   11.0350    0.7860   23.7060 C   0  0  0  0  0  0  0  0  0  0  0  0
    9.0890    0.1460   24.8450 C   0  0  0  0  0  0  0  0  0  0  0  0
   13.6350   -0.6340   21.9260 O   0  0  0  0  0  0  0  0  0  0  0  0
   12.1620    0.6010   23.0020 C   0  0  0  0  0  0  0  0  0  0  0  0
    9.3260    1.6190   24.8910 C   0  0  0  0  0  0  0  0  0  0  0  0
   10.4260    2.0260   24.2320 C   0  0  0  0  0  0  0  0  0  0  0  0
   13.7970    0.6490   22.4690 C   0  0  0  0  0  0  0  0  0  0  0  0
   10.9600    3.3900   23.9850 C   0  0  0  0  0  0  0  0  0  0  0  0
    9.8940    4.2700   23.3330 C   0  0  0  0  0  0  0  0  0  0  0  0
    9.5480    5.4220   24.1470 N   0  0  0  0  0  0  0  0  0  0  0  0
   10.3950    6.5060   24.2160 C   0  0  0  0  0  0  0  0  0  0  0  0
   11.8140    6.1850   24.6170 C   0  0  0  0  0  0  0  0  0  0  0  0
   10.0350    7.6510   23.9760 O   0  0  0  0  0  0  0  0  0  0  0  0
  1  2  1  0
  3  2  1  0
  3  4  2  0
  3  5  2  0
  3  6  1  0
  6  7  1  0
  6  8  1  0
  7  9  1  0
  8 10  1  0
  9 11  1  0
 10 11  1  0
 11 12  1  0
 12 13  1  0
 13 14  2  0
 13 15  1  0
 14 16  1  0
 15 17  2  0
 15 18  1  0
 16 19  1  0
 16 20  2  0
 17 20  1  0
 18 21  1  0
 17 22  1  0
 21 22  2  0
 19 23  1  0
 22 24  1  0
 24 25  1  0
 25 26  1  0
 26 27  1  0
 27 28  1  0
 27 29  2  0
M  END
