DAR-DIA-23aa0b97-19-nitrile
     RDKit          3D

 22 24  0  0  0  0  0  0  0  0999 V2000
    7.9910   -3.5140   19.8370 C   0  0  0  0  0  0  0  0  0  0  0  0
    7.6530   -2.9950   18.5980 N   0  0  0  0  0  0  0  0  0  0  0  0
    8.6620   -2.7690   21.1110 C   0  0  0  0  0  0  0  0  0  0  0  0
    8.9330   -3.3940   22.3150 C   0  0  0  0  0  0  0  0  0  0  0  0
    9.0550   -1.4660   21.2500 C   0  0  0  0  0  0  0  0  0  0  0  0
    9.5260   -2.7870   23.4200 C   0  0  0  0  0  0  0  0  0  0  0  0
    9.6430   -0.9170   22.4140 C   0  0  0  0  0  0  0  0  0  0  0  0
    9.9840   -1.4690   23.6650 C   0  0  0  0  0  0  0  0  0  0  0  0
    9.8640    0.4120   22.1700 N   0  0  0  0  0  0  0  0  0  0  0  0
    8.8190    1.0490   21.5690 C   0  0  0  0  0  0  0  0  0  0  0  0
    8.7730    2.2000   21.1610 O   0  0  0  0  0  0  0  0  0  0  0  0
    7.6450    0.0690   21.4550 C   0  0  0  0  0  0  0  0  0  0  0  0
    6.7770    0.3070   20.2600 C   0  0  0  0  0  0  0  0  0  0  0  0
    7.1160   -0.2140   19.0180 C   0  0  0  0  0  0  0  0  0  0  0  0
    5.6040    1.0520   20.3530 C   0  0  0  0  0  0  0  0  0  0  0  0
    6.3960   -0.0290   17.9030 N   0  0  0  0  0  0  0  0  0  0  0  0
    4.8410    1.2490   19.1970 C   0  0  0  0  0  0  0  0  0  0  0  0
    5.1320    1.6240   21.5510 C   0  0  0  0  0  0  0  0  0  0  0  0
    5.2830    0.6960   18.0210 C   0  0  0  0  0  0  0  0  0  0  0  0
    3.6620    1.9890   19.2410 C   0  0  0  0  0  0  0  0  0  0  0  0
    3.9500    2.3570   21.5820 C   0  0  0  0  0  0  0  0  0  0  0  0
    3.2160    2.5390   20.4240 C   0  0  0  0  0  0  0  0  0  0  0  0
  1  2  2  3
  1  3  1  0
  3  4  2  0
  3  5  1  0
  4  6  1  0
  5  7  2  0
  6  8  2  0
  7  8  1  0
  7  9  1  0
  9 10  1  0
 10 11  2  0
 10 12  1  0
 12 13  1  0
 13 14  2  0
 13 15  1  0
 14 16  1  0
 15 17  2  0
 15 18  1  0
 16 19  2  0
 17 19  1  0
 17 20  1  0
 18 21  2  0
 20 22  2  0
 21 22  1  0
M  END
