DAR-DIA-fb20be43-11-acrylamide
     RDKit          3D

 27 29  0  0  0  0  0  0  0  0999 V2000
    7.2750   -3.2210   19.1190 C   0  0  0  0  0  0  0  0  0  0  0  0
    6.6630   -3.6460   20.2060 C   0  0  0  0  0  0  0  0  0  0  0  0
    5.4220   -2.8690   20.4450 C   0  0  0  0  0  0  0  0  0  0  0  0
    4.9180   -3.6650   19.6200 O   0  0  0  0  0  0  0  0  0  0  0  0
    6.3390   -2.2640   21.2810 N   0  0  0  0  0  0  0  0  0  0  0  0
    7.2960   -1.2150   20.9070 C   0  0  0  0  0  0  0  0  0  0  0  0
    6.2640   -2.5930   22.6950 C   0  0  0  0  0  0  0  0  0  0  0  0
    8.5820   -1.2410   21.7650 C   0  0  0  0  0  0  0  0  0  0  0  0
    7.6050   -3.1320   23.1850 C   0  0  0  0  0  0  0  0  0  0  0  0
    8.7450   -2.2670   22.8410 N   0  0  0  0  0  0  0  0  0  0  0  0
    9.4740   -1.7550   24.0020 C   0  0  0  0  0  0  0  0  0  0  0  0
   10.5430   -0.9790   23.5800 C   0  0  0  0  0  0  0  0  0  0  0  0
   11.6100   -1.6910   23.0900 C   0  0  0  0  0  0  0  0  0  0  0  0
   10.6540    0.4420   23.5750 C   0  0  0  0  0  0  0  0  0  0  0  0
   12.7590   -1.0550   22.6110 C   0  0  0  0  0  0  0  0  0  0  0  0
   11.7830    1.0700   23.0930 C   0  0  0  0  0  0  0  0  0  0  0  0
    9.8050    1.4720   23.9770 N   0  0  0  0  0  0  0  0  0  0  0  0
   13.7250   -1.8020   22.1490 F   0  0  0  0  0  0  0  0  0  0  0  0
   12.8670    0.3570   22.6170 C   0  0  0  0  0  0  0  0  0  0  0  0
   11.5970    2.5570   23.1740 C   0  0  0  0  0  0  0  0  0  0  0  0
   10.3540    2.7300   23.7380 C   0  0  0  0  0  0  0  0  0  0  0  0
   12.5760    3.6370   22.7080 C   0  0  0  0  0  0  0  0  0  0  0  0
   12.3670    5.0180   23.3070 C   0  0  0  0  0  0  0  0  0  0  0  0
   11.2340    5.6670   22.6580 N   0  0  0  0  0  0  0  0  0  0  0  0
   10.1960    6.1650   23.4020 C   0  0  0  0  0  0  0  0  0  0  0  0
    9.0400    6.6210   22.5700 C   0  0  0  0  0  0  0  0  0  0  0  0
   10.1990    6.2420   24.6280 O   0  0  0  0  0  0  0  0  0  0  0  0
  1  2  1  0
  2  3  1  0
  3  4  2  0
  3  5  1  0
  5  6  1  0
  5  7  1  0
  6  8  1  0
  7  9  1  0
  8 10  1  0
  9 10  1  0
 10 11  1  0
 11 12  1  0
 12 13  2  0
 12 14  1  0
 13 15  1  0
 14 16  2  0
 14 17  1  0
 15 18  1  0
 15 19  2  0
 16 19  1  0
 16 20  1  0
 17 21  1  0
 20 21  2  0
 20 22  1  0
 22 23  1  0
 23 24  1  0
 24 25  1  0
 25 26  1  0
 25 27  2  0
M  END
