DAR-DIA-fc970077-12
     RDKit          3D

 19 21  0  0  0  0  0  0  0  0999 V2000
    8.7600    0.7170   21.2750 O   0  0  0  0  0  0  0  0  0  0  0  0
    8.2640   -0.3310   21.6890 C   0  0  0  0  0  0  0  0  0  0  0  0
    8.9590   -1.0450   22.8280 C   0  0  2  0  0  0  0  0  0  0  0  0
    7.0600   -0.8570   21.1420 N   0  0  0  0  0  0  0  0  0  0  0  0
   10.2990   -0.6450   22.9050 C   0  0  0  0  0  0  0  0  0  0  0  0
    8.7160   -2.5100   22.8500 C   0  0  0  0  0  0  0  0  0  0  0  0
    6.3770   -2.0330   21.7130 C   0  0  0  0  0  0  0  0  0  0  0  0
    6.3930   -0.1160   20.0970 C   0  0  0  0  0  0  0  0  0  0  0  0
   10.6140    0.5290   23.5950 C   0  0  0  0  0  0  0  0  0  0  0  0
   11.3620   -1.3580   22.3130 C   0  0  0  0  0  0  0  0  0  0  0  0
    7.3960   -3.0140   22.2880 C   0  0  0  0  0  0  0  0  0  0  0  0
    5.2260    0.6040   20.2900 C   0  0  0  0  0  0  0  0  0  0  0  0
    6.8960   -0.0790   18.8040 C   0  0  0  0  0  0  0  0  0  0  0  0
   11.9230    0.9780   23.6830 C   0  0  0  0  0  0  0  0  0  0  0  0
   12.6740   -0.9090   22.4060 C   0  0  0  0  0  0  0  0  0  0  0  0
    4.6280    1.3120   19.2420 C   0  0  0  0  0  0  0  0  0  0  0  0
    6.3580    0.5910   17.7590 N   0  0  0  0  0  0  0  0  0  0  0  0
   12.9530    0.2660   23.0900 C   0  0  0  0  0  0  0  0  0  0  0  0
    5.2310    1.2770   18.0020 C   0  0  0  0  0  0  0  0  0  0  0  0
  1  2  2  0
  2  3  1  0
  2  4  1  0
  3  5  1  6
  3  6  1  0
  4  7  1  0
  4  8  1  0
  5  9  2  0
  5 10  1  0
  6 11  2  0
  7 11  1  0
  8 12  2  0
  8 13  1  0
  9 14  1  0
 10 15  2  0
 12 16  1  0
 13 17  2  0
 14 18  2  0
 15 18  1  0
 16 19  2  0
 17 19  1  0
M  END
