DAR-DIA-2b784ede-37-nitrile
     RDKit          3D

 33 35  0  0  0  0  0  0  0  0999 V2000
    7.6330   -2.9040   19.6710 C   0  0  0  0  0  0  0  0  0  0  0  0
    6.8140   -2.5730   18.6870 N   0  0  0  0  0  0  0  0  0  0  0  0
    8.6320   -1.9270   20.4720 N   0  0  0  0  0  0  0  0  0  0  0  0
    9.7540   -2.1550   21.4060 C   0  0  0  0  0  0  0  0  0  0  0  0
    8.2590   -0.9920   21.6060 C   0  0  2  0  0  0  0  0  0  0  0  0
    9.1170   -2.4690   22.5390 C   0  0  0  0  0  0  0  0  0  0  0  0
   11.2230   -2.1000   21.4430 C   0  0  0  0  0  0  0  0  0  0  0  0
    8.0240    0.4630   21.3750 C   0  0  0  0  0  0  0  0  0  0  0  0
    9.3700   -0.6080   22.5990 C   0  0  0  0  0  0  0  0  0  0  0  0
    9.7330   -2.7390   23.6020 C   0  0  0  0  0  0  0  0  0  0  0  0
   11.8660   -2.4040   22.6090 C   0  0  0  0  0  0  0  0  0  0  0  0
    8.9260    1.2760   21.1160 O   0  0  0  0  0  0  0  0  0  0  0  0
    6.7450    0.6800   21.4970 N   0  0  0  0  0  0  0  0  0  0  0  0
   10.6980   -0.5930   22.2060 C   0  0  0  0  0  0  0  0  0  0  0  0
    9.1460   -0.2190   23.9350 C   0  0  0  0  0  0  0  0  0  0  0  0
   11.0550   -2.7230   23.6380 C   0  0  0  0  0  0  0  0  0  0  0  0
    6.1920    0.6730   20.2910 C   0  0  0  0  0  0  0  0  0  0  0  0
   11.7840   -0.2550   22.9280 N   0  0  0  0  0  0  0  0  0  0  0  0
   10.2310    0.1330   24.7080 C   0  0  0  0  0  0  0  0  0  0  0  0
    7.7910   -0.1550   24.5810 C   0  0  0  0  0  0  0  0  0  0  0  0
   11.2280   -3.0670   24.8060 C   0  0  0  0  0  0  0  0  0  0  0  0
    6.9630    0.1480   19.0970 C   0  0  0  0  0  0  0  0  0  0  0  0
    4.9470    1.1540   20.1560 C   0  0  0  0  0  0  0  0  0  0  0  0
   11.5160    0.1060   24.1840 C   0  0  0  0  0  0  0  0  0  0  0  0
   10.3810   -2.2180   25.6130 C   0  0  0  0  0  0  0  0  0  0  0  0
   10.2890   -4.2780   24.7530 C   0  0  0  0  0  0  0  0  0  0  0  0
   12.7140   -3.1840   25.2500 C   0  0  0  0  0  0  0  0  0  0  0  0
    6.4260    0.1810   17.8470 C   0  0  0  0  0  0  0  0  0  0  0  0
    4.4040    1.1660   18.9100 C   0  0  0  0  0  0  0  0  0  0  0  0
    4.1730    1.6680   21.3280 C   0  0  0  0  0  0  0  0  0  0  0  0
    7.2020   -0.2970   16.6170 C   0  0  0  0  0  0  0  0  0  0  0  0
    5.1160    0.7030   17.8070 C   0  0  0  0  0  0  0  0  0  0  0  0
    7.2900   -1.7950   16.4130 C   0  0  0  0  0  0  0  0  0  0  0  0
  1  2  2  3
  1  3  1  0
  3  4  1  0
  3  5  1  0
  4  6  2  0
  4  7  1  0
  5  8  1  6
  5  9  1  0
  6 10  1  0
  7 11  2  0
  8 12  2  0
  8 13  1  0
  9 14  2  0
  9 15  1  0
 10 16  2  0
 11 16  1  0
 13 17  1  0
 14 18  1  0
 15 19  2  0
 15 20  1  0
 16 21  1  0
 17 22  2  0
 17 23  1  0
 18 24  2  0
 19 24  1  0
 21 25  1  0
 21 26  1  0
 21 27  1  0
 22 28  1  0
 23 29  2  0
 23 30  1  0
 28 31  1  0
 28 32  2  0
 29 32  1  0
 31 33  1  0
M  END
