DAR-DIA-fc970077-11
     RDKit          3D

 20 22  0  0  0  0  0  0  0  0999 V2000
   16.3610    4.9650   24.1690 O   0  0  0  0  0  0  0  0  0  0  0  0
   15.8300    4.7390   23.1190 C   0  0  0  0  0  0  0  0  0  0  0  0
   14.3200    4.9160   22.9480 C   0  0  0  0  0  0  0  0  0  0  0  0
   16.6920    4.2720   22.2020 N   0  0  0  0  0  0  0  0  0  0  0  0
   13.6970    4.2370   21.9490 N   0  0  0  0  0  0  0  0  0  0  0  0
   16.0810    3.9940   20.8410 C   0  0  0  0  0  0  0  0  0  0  0  0
   18.0940    4.2730   22.8800 C   0  0  0  0  0  0  0  0  0  0  0  0
   12.9620    3.0740   22.2680 C   0  0  0  0  0  0  0  0  0  0  0  0
   13.6750    4.9810   20.7160 C   0  0  0  0  0  0  0  0  0  0  0  0
   15.0720    4.9010   20.1010 C   0  0  0  0  0  0  0  0  0  0  0  0
   19.3860    4.7320   22.4380 C   0  0  0  0  0  0  0  0  0  0  0  0
   18.2100    3.8000   24.1960 C   0  0  0  0  0  0  0  0  0  0  0  0
   13.5620    1.7970   22.2920 C   0  0  0  0  0  0  0  0  0  0  0  0
   11.5910    3.1180   22.5870 C   0  0  0  0  0  0  0  0  0  0  0  0
   20.5450    4.7300   23.2430 C   0  0  0  0  0  0  0  0  0  0  0  0
   19.3260    3.7690   25.0020 N   0  0  0  0  0  0  0  0  0  0  0  0
   12.8440    0.6390   22.6170 C   0  0  0  0  0  0  0  0  0  0  0  0
   10.8620    1.9730   22.9080 C   0  0  0  0  0  0  0  0  0  0  0  0
   20.4640    4.2400   24.5130 C   0  0  0  0  0  0  0  0  0  0  0  0
   11.4900    0.7190   22.9270 C   0  0  0  0  0  0  0  0  0  0  0  0
  1  2  2  0
  2  3  1  0
  2  4  1  0
  3  5  1  0
  4  6  1  0
  4  7  1  0
  5  8  1  0
  5  9  1  0
  6 10  1  0
  9 10  1  0
  7 11  2  0
  7 12  1  0
  8 13  2  0
  8 14  1  0
 11 15  1  0
 12 16  2  0
 13 17  1  0
 14 18  2  0
 15 19  2  0
 16 19  1  0
 17 20  2  0
 18 20  1  0
M  END
