DAR-DIA-fb20be43-16-acrylamide
     RDKit          3D

 29 31  0  0  0  0  0  0  0  0999 V2000
    7.7410   -2.6630   18.5180 C   0  0  0  0  0  0  0  0  0  0  0  0
    6.4520   -2.7400   18.6290 C   0  0  0  0  0  0  0  0  0  0  0  0
    5.9370   -3.2300   19.9200 C   0  0  0  0  0  0  0  0  0  0  0  0
    5.1960   -4.2120   19.9390 O   0  0  0  0  0  0  0  0  0  0  0  0
    6.3420   -2.5110   21.0220 N   0  0  0  0  0  0  0  0  0  0  0  0
    6.0980   -3.1020   22.3390 C   0  0  0  0  0  0  0  0  0  0  0  0
    7.2600   -1.3580   20.9760 C   0  0  0  0  0  0  0  0  0  0  0  0
    7.3910   -3.2850   23.1400 C   0  0  0  0  0  0  0  0  0  0  0  0
    8.5380   -1.5810   21.8020 C   0  0  0  0  0  0  0  0  0  0  0  0
    8.2500   -2.0910   23.1450 N   0  0  0  0  0  0  0  0  0  0  0  0
    9.3940   -2.1840   24.0300 C   0  0  0  0  0  0  0  0  0  0  0  0
   10.4510   -1.3740   23.6760 C   0  0  0  0  0  0  0  0  0  0  0  0
   11.3730   -1.7830   22.7650 C   0  0  0  0  0  0  0  0  0  0  0  0
   10.5790   -0.1260   24.2360 C   0  0  0  0  0  0  0  0  0  0  0  0
   12.4360   -0.9530   22.4020 C   0  0  0  0  0  0  0  0  0  0  0  0
   11.6460    0.6900   23.8850 C   0  0  0  0  0  0  0  0  0  0  0  0
    9.5910    0.4180   25.2150 C   0  0  0  0  0  0  0  0  0  0  0  0
   13.2940   -1.4140   21.4490 C   0  0  0  0  0  0  0  0  0  0  0  0
   12.5840    0.2810   22.9680 C   0  0  0  0  0  0  0  0  0  0  0  0
    9.5170    1.8120   24.8350 N   0  0  0  0  0  0  0  0  0  0  0  0
   13.8790   -1.7180   20.5720 N   0  0  0  0  0  0  0  0  0  0  0  0
    8.8330    2.7480   25.5360 C   0  0  0  0  0  0  0  0  0  0  0  0
    7.9070    2.4570   26.2870 O   0  0  0  0  0  0  0  0  0  0  0  0
    9.2500    4.0490   25.3320 N   0  0  0  0  0  0  0  0  0  0  0  0
   10.1480    4.4610   24.3760 C   0  0  0  0  0  0  0  0  0  0  0  0
    8.4530    5.1240   25.9240 C   0  0  0  0  0  0  0  0  0  0  0  0
    9.6240    5.6310   23.5290 C   0  0  0  0  0  0  0  0  0  0  0  0
    8.3430    6.3310   24.9790 C   0  0  0  0  0  0  0  0  0  0  0  0
    9.2390    6.5980   24.1900 O   0  0  0  0  0  0  0  0  0  0  0  0
  1  2  1  0
  2  3  1  0
  3  4  2  0
  3  5  1  0
  5  6  1  0
  5  7  1  0
  6  8  1  0
  7  9  1  0
  8 10  1  0
  9 10  1  0
 10 11  1  0
 11 12  1  0
 12 13  2  0
 12 14  1  0
 13 15  1  0
 14 16  2  0
 14 17  1  0
 15 18  1  0
 15 19  2  0
 16 19  1  0
 17 20  1  0
 18 21  3  0
 20 22  1  0
 22 23  2  0
 22 24  1  0
 24 25  1  0
 24 26  1  0
 25 27  1  0
 26 28  1  0
 27 29  1  0
 28 29  1  0
M  END
