DAR-DIA-23aa0b97-5-bromoalkyne
     RDKit          3D

 18 19  0  0  0  0  0  0  0  0999 V2000
    8.3900   -3.6700   19.9530 C   0  0  0  0  0  0  0  0  0  0  0  0
    6.8260   -3.6900   19.8890 C   0  0  0  0  0  0  0  0  0  0  0  0
    9.1290   -2.6650   21.0370 C   0  0  0  0  0  0  0  0  0  0  0  0
   10.2370   -2.2480   22.0240 C   0  0  0  0  0  0  0  0  0  0  0  0
    8.7280   -1.4810   21.4670 C   0  0  0  0  0  0  0  0  0  0  0  0
   11.4610   -2.6060   22.6290 C   0  0  0  0  0  0  0  0  0  0  0  0
    9.6330   -0.8710   22.4590 C   0  0  0  0  0  0  0  0  0  0  0  0
   10.9240   -1.3550   23.0530 C   0  0  0  0  0  0  0  0  0  0  0  0
    9.2080    0.4020   22.9340 N   0  0  0  0  0  0  0  0  0  0  0  0
    8.5790    1.0500   21.8920 C   0  0  0  0  0  0  0  0  0  0  0  0
    8.9940    2.0510   21.3260 O   0  0  0  0  0  0  0  0  0  0  0  0
    7.3390    0.3200   21.5460 N   0  0  0  0  0  0  0  0  0  0  0  0
    6.7220    0.4630   20.3520 C   0  0  0  0  0  0  0  0  0  0  0  0
    5.4630    1.3320   20.3670 C   0  0  0  0  0  0  0  0  0  0  0  0
    7.1160   -0.0990   19.1430 C   0  0  0  0  0  0  0  0  0  0  0  0
    4.8580    1.4890   19.1850 C   0  0  0  0  0  0  0  0  0  0  0  0
    6.4540    0.1000   17.9530 N   0  0  0  0  0  0  0  0  0  0  0  0
    5.3290    0.9070   18.0370 C   0  0  0  0  0  0  0  0  0  0  0  0
  1  2  2  3
  1  3  1  0
  3  4  2  0
  3  5  1  0
  4  6  1  0
  5  7  2  0
  6  8  2  0
  7  8  1  0
  7  9  1  0
  9 10  1  0
 10 11  2  0
 10 12  1  0
 12 13  1  0
 13 14  2  0
 13 15  1  0
 14 16  1  0
 15 17  2  0
 16 18  2  0
 17 18  1  0
M  END
