DAR-DIA-3e9bbd81-4-nitrile
     RDKit          3D

 25 28  0  0  0  0  0  0  0  0999 V2000
    7.0950   -3.3370   19.5690 C   0  0  0  0  0  0  0  0  0  0  0  0
    6.0660   -3.2060   18.8650 N   0  0  0  0  0  0  0  0  0  0  0  0
    7.1910   -2.7550   20.8030 N   0  0  0  0  0  0  0  0  0  0  0  0
    6.9810   -3.4680   22.0590 C   0  0  0  0  0  0  0  0  0  0  0  0
    8.1450   -1.7090   21.1800 C   0  0  2  0  0  0  0  0  0  0  0  0
    8.1730   -3.1790   22.5940 C   0  0  1  0  0  0  0  0  0  0  0  0
    9.2050   -2.4450   21.6970 C   0  0  0  0  0  0  0  0  0  0  0  0
    7.7720   -1.0510   22.4700 C   0  0  0  0  0  0  0  0  0  0  0  0
    8.0520   -2.0040   23.4830 N   0  0  0  0  0  0  0  0  0  0  0  0
    9.1360   -2.0150   24.3330 C   0  0  0  0  0  0  0  0  0  0  0  0
   10.2190   -1.1600   23.7770 C   0  0  0  0  0  0  0  0  0  0  0  0
   11.3230   -1.6900   22.9630 C   0  0  0  0  0  0  0  0  0  0  0  0
   10.1890    0.2030   23.9830 C   0  0  0  0  0  0  0  0  0  0  0  0
   12.3900   -0.7610   22.3690 C   0  0  0  0  0  0  0  0  0  0  0  0
   11.1420    1.1460   23.4510 C   0  0  0  0  0  0  0  0  0  0  0  0
    9.1190    0.6390   24.7560 C   0  0  0  0  0  0  0  0  0  0  0  0
   13.5120   -1.5400   21.4310 Cl  0  0  0  0  0  0  0  0  0  0  0  0
   12.3210    0.6140   22.6180 C   0  0  0  0  0  0  0  0  0  0  0  0
   10.9140    2.5370   23.7050 C   0  0  0  0  0  0  0  0  0  0  0  0
    8.9030    1.9430   25.0170 C   0  0  0  0  0  0  0  0  0  0  0  0
   11.8150    3.9890   23.1360 S   0  0  0  0  0  0  0  0  0  0  0  0
    9.7080    2.9400   24.5410 C   0  0  0  0  0  0  0  0  0  0  0  0
   10.5110    4.9180   22.6250 N   0  0  0  0  0  0  0  0  0  0  0  0
   12.6080    3.7040   21.9700 O   0  0  0  0  0  0  0  0  0  0  0  0
   12.2710    4.8600   24.1900 O   0  0  0  0  0  0  0  0  0  0  0  0
  1  2  2  3
  1  3  1  0
  3  4  1  0
  3  5  1  0
  6  4  1  6
  5  7  1  0
  6  7  1  0
  5  8  1  1
  6  9  1  0
  8  9  1  0
  9 10  1  0
 10 11  1  0
 11 12  2  0
 11 13  1  0
 12 14  1  0
 13 15  2  0
 13 16  1  0
 14 17  1  0
 14 18  2  0
 15 18  1  0
 15 19  1  0
 16 20  2  0
 19 21  1  0
 19 22  2  0
 20 22  1  0
 21 23  1  0
 21 24  2  0
 21 25  2  0
M  END
