DAR-DIA-03336633-15
     RDKit          3D

 19 20  0  0  0  0  0  0  0  0999 V2000
   13.0920   -3.2130   21.5360 N   0  0  0  0  0  0  0  0  0  0  0  0
   12.0910   -2.5880   20.8880 C   0  0  0  0  0  0  0  0  0  0  0  0
   10.8020   -2.2180   21.6340 C   0  0  0  0  0  0  0  0  0  0  0  0
   11.2450   -1.3000   22.6600 C   0  0  0  0  0  0  0  0  0  0  0  0
   12.6080   -1.6690   23.0600 C   0  0  0  0  0  0  0  0  0  0  0  0
   10.5920   -0.2420   23.2550 C   0  0  0  0  0  0  0  0  0  0  0  0
   13.2500   -0.9130   24.0760 C   0  0  0  0  0  0  0  0  0  0  0  0
   11.3300    0.4260   24.2120 C   0  0  0  0  0  0  0  0  0  0  0  0
    9.2740    0.1720   22.9820 C   0  0  0  0  0  0  0  0  0  0  0  0
   12.6060    0.1480   24.6460 N   0  0  0  0  0  0  0  0  0  0  0  0
    8.7830    0.6770   21.6570 C   0  0  0  0  0  0  0  0  0  0  0  0
    9.1750    1.7510   21.2230 O   0  0  0  0  0  0  0  0  0  0  0  0
    7.8050   -0.2200   21.0210 N   0  0  0  0  0  0  0  0  0  0  0  0
    6.8770    0.2590   20.1200 C   0  0  0  0  0  0  0  0  0  0  0  0
    6.9600    0.2660   18.7820 C   0  0  0  0  0  0  0  0  0  0  0  0
    5.7100    0.8190   20.6560 C   0  0  0  0  0  0  0  0  0  0  0  0
    5.9960    0.7910   17.9430 C   0  0  0  0  0  0  0  0  0  0  0  0
    4.7050    1.3570   19.8330 C   0  0  0  0  0  0  0  0  0  0  0  0
    4.8720    1.3360   18.4730 C   0  0  0  0  0  0  0  0  0  0  0  0
  1  2  1  0
  2  3  1  0
  3  4  1  0
  4  5  2  0
  4  6  1  0
  5  7  1  0
  6  8  2  0
  6  9  1  0
  7 10  2  0
  8 10  1  0
  9 11  1  0
 11 12  2  0
 11 13  1  0
 13 14  1  0
 14 15  2  0
 14 16  1  0
 15 17  1  0
 16 18  2  0
 17 19  2  0
 18 19  1  0
M  END
