DAR-DIA-fb20be43-1-chloroacetamide
     RDKit          3D

 20 21  0  0  0  0  0  0  0  0999 V2000
    7.3850   -2.9340   18.6940 C   0  0  0  0  0  0  0  0  0  0  0  0
    6.3730   -3.0790   19.8000 C   0  0  0  0  0  0  0  0  0  0  0  0
    5.4670   -3.9130   19.6420 O   0  0  0  0  0  0  0  0  0  0  0  0
    6.4940   -2.2930   20.9380 N   0  0  0  0  0  0  0  0  0  0  0  0
    6.2600   -2.9340   22.2340 C   0  0  0  0  0  0  0  0  0  0  0  0
    7.4680   -1.1870   20.9330 C   0  0  0  0  0  0  0  0  0  0  0  0
    7.5630   -3.2010   23.0020 C   0  0  0  0  0  0  0  0  0  0  0  0
    8.7610   -1.5480   21.6900 C   0  0  0  0  0  0  0  0  0  0  0  0
    8.4910   -2.0650   23.0400 N   0  0  0  0  0  0  0  0  0  0  0  0
    9.7330   -2.3970   23.7350 C   0  0  0  0  0  0  0  0  0  0  0  0
   10.8870   -1.4900   23.4340 C   0  0  0  0  0  0  0  0  0  0  0  0
   11.7960   -1.8120   22.4380 C   0  0  0  0  0  0  0  0  0  0  0  0
   11.0760   -0.2990   24.1450 C   0  0  0  0  0  0  0  0  0  0  0  0
   12.8500   -0.9710   22.1680 C   0  0  0  0  0  0  0  0  0  0  0  0
   12.1100    0.5360   23.8860 N   0  0  0  0  0  0  0  0  0  0  0  0
   10.1550    0.0330   25.1520 N   0  0  0  0  0  0  0  0  0  0  0  0
   13.6940   -1.3080   21.2020 F   0  0  0  0  0  0  0  0  0  0  0  0
   12.9830    0.2000   22.9120 C   0  0  0  0  0  0  0  0  0  0  0  0
    9.4500    1.2920   24.9530 C   0  0  0  0  0  0  0  0  0  0  0  0
   10.3210    2.2780   24.1790 C   0  0  0  0  0  0  0  0  0  0  0  0
  1  2  1  0
  2  3  2  0
  2  4  1  0
  4  5  1  0
  4  6  1  0
  5  7  1  0
  6  8  1  0
  7  9  1  0
  8  9  1  0
  9 10  1  0
 10 11  1  0
 11 12  2  0
 11 13  1  0
 12 14  1  0
 13 15  2  0
 13 16  1  0
 14 17  1  0
 14 18  2  0
 15 18  1  0
 16 19  1  0
 19 20  1  0
M  END
