DAR-DIA-0cde14eb-71
     RDKit          3D

 21 23  0  0  0  0  0  0  0  0999 V2000
    4.8640    1.0940   21.8120 C   0  0  0  0  0  0  0  0  0  0  0  0
    5.2710    0.8450   20.3770 C   0  0  0  0  0  0  0  0  0  0  0  0
    4.7420    1.7490   19.3250 C   0  0  0  0  0  0  0  0  0  0  0  0
    6.1150   -0.1680   19.9580 C   0  0  0  0  0  0  0  0  0  0  0  0
    5.1230    1.5310   18.0170 C   0  0  0  0  0  0  0  0  0  0  0  0
    6.4120   -0.2660   18.6160 C   0  0  0  0  0  0  0  0  0  0  0  0
    6.6630   -1.0470   20.7710 N   0  0  0  0  0  0  0  0  0  0  0  0
    5.9570    0.5370   17.6290 N   0  0  0  0  0  0  0  0  0  0  0  0
    7.7350   -0.6290   21.4630 C   0  0  0  0  0  0  0  0  0  0  0  0
    8.3980    0.3830   21.2110 O   0  0  0  0  0  0  0  0  0  0  0  0
    8.0700   -1.4150   22.5300 C   0  0  1  0  0  0  0  0  0  0  0  0
    7.7430   -2.9210   22.5860 C   0  0  0  0  0  0  0  0  0  0  0  0
    9.4950   -1.2090   22.5960 C   0  0  0  0  0  0  0  0  0  0  0  0
   10.6130   -1.9410   21.8930 C   0  0  0  0  0  0  0  0  0  0  0  0
   10.0960   -0.2630   23.3310 C   0  0  0  0  0  0  0  0  0  0  0  0
   11.8410   -1.3620   22.2670 N   0  0  0  0  0  0  0  0  0  0  0  0
   11.3890   -0.4170   23.0880 N   0  0  0  0  0  0  0  0  0  0  0  0
   12.2960    0.3870   23.6730 C   0  0  0  0  0  0  0  0  0  0  0  0
   12.8170   -0.5390   25.0830 Cl  0  0  0  0  0  0  0  0  0  0  0  0
   13.1790    0.6560   22.7500 C   0  0  0  0  0  0  0  0  0  0  0  0
   12.4900    1.8480   23.1280 C   0  0  0  0  0  0  0  0  0  0  0  0
  1  2  1  0
  2  3  2  0
  2  4  1  0
  3  5  1  0
  4  6  2  0
  4  7  1  0
  5  8  2  0
  6  8  1  0
  7  9  1  0
  9 10  2  0
  9 11  1  0
 11 12  1  6
 11 13  1  0
 13 14  1  0
 13 15  2  0
 14 16  2  0
 15 17  1  0
 16 17  1  0
 17 18  1  0
 18 19  1  0
 18 20  1  0
 18 21  1  0
 20 21  1  0
M  END
