DAR-DIA-caba39e3-4-nitrile
     RDKit          3D

 29 32  0  0  0  0  0  0  0  0999 V2000
    6.5310   -3.6280   19.8930 C   0  0  0  0  0  0  0  0  0  0  0  0
    5.6350   -3.3170   19.0530 N   0  0  0  0  0  0  0  0  0  0  0  0
    6.2870   -2.9600   21.0760 N   0  0  0  0  0  0  0  0  0  0  0  0
    5.4420   -3.3190   22.1120 C   0  0  0  0  0  0  0  0  0  0  0  0
    7.2390   -1.9570   21.5330 C   0  0  0  0  0  0  0  0  0  0  0  0
    6.2120   -3.9670   23.2440 C   0  0  0  0  0  0  0  0  0  0  0  0
    8.1930   -2.6460   22.5130 C   0  0  2  0  0  0  0  0  0  0  0  0
    5.6220   -4.9290   24.1850 C   0  0  0  0  0  0  0  0  0  0  0  0
    7.5140   -3.6460   23.3930 C   0  0  0  0  0  0  0  0  0  0  0  0
    8.9930   -1.7170   23.0370 C   0  0  0  0  0  0  0  0  0  0  0  0
    6.4270   -5.5700   25.2890 C   0  0  0  0  0  0  0  0  0  0  0  0
    8.4950   -4.1900   24.4160 C   0  0  0  0  0  0  0  0  0  0  0  0
    8.7110   -0.7870   24.1000 C   0  0  0  0  0  0  0  0  0  0  0  0
   10.1940   -1.6880   22.4880 C   0  0  0  0  0  0  0  0  0  0  0  0
    7.9170   -5.2320   25.4400 C   0  0  0  0  0  0  0  0  0  0  0  0
    9.6850    0.1200   24.5290 C   0  0  0  0  0  0  0  0  0  0  0  0
   11.1650   -0.8520   22.8470 C   0  0  0  0  0  0  0  0  0  0  0  0
   10.6320   -2.4910   21.4850 N   0  0  0  0  0  0  0  0  0  0  0  0
    9.2600    0.9130   25.5440 O   0  0  0  0  0  0  0  0  0  0  0  0
   11.0210    0.1080   23.8600 C   0  0  0  0  0  0  0  0  0  0  0  0
   12.2820   -1.2170   21.9610 C   0  0  0  0  0  0  0  0  0  0  0  0
   11.9330   -2.2150   21.1540 C   0  0  0  0  0  0  0  0  0  0  0  0
    8.6410    0.1800   26.5980 C   0  0  0  0  0  0  0  0  0  0  0  0
   13.5040   -0.5320   22.0430 C   0  0  0  0  0  0  0  0  0  0  0  0
   13.2930    0.4930   22.9200 C   0  0  0  0  0  0  0  0  0  0  0  0
   12.9860   -0.1050   24.1550 N   0  0  0  0  0  0  0  0  0  0  0  0
   13.2260   -1.4720   24.4900 C   0  0  0  0  0  0  0  0  0  0  0  0
   13.1330   -2.4420   23.4580 C   0  0  0  0  0  0  0  0  0  0  0  0
   13.5420   -1.8840   25.7190 O   0  0  0  0  0  0  0  0  0  0  0  0
  1  2  2  3
  1  3  1  0
  3  4  1  0
  3  5  1  0
  4  6  1  0
  5  7  1  0
  6  8  1  0
  6  9  2  0
  7  9  1  0
  7 10  1  1
  8 11  2  0
  9 12  1  0
 10 13  2  0
 10 14  1  0
 11 15  1  0
 12 15  2  0
 13 16  1  0
 14 17  2  0
 14 18  1  0
 16 19  1  0
 16 20  2  0
 17 20  1  0
 17 21  1  0
 18 22  1  0
 21 22  2  0
 19 23  1  0
 21 24  1  0
 24 25  1  0
 25 26  1  0
 26 27  1  0
 27 28  1  0
 27 29  2  0
M  END
