DAR-DIA-2b784ede-39-vinylsulfonamide
     RDKit          3D

 37 39  0  0  0  0  0  0  0  0999 V2000
    6.9930   -4.6840   20.6580 C   0  0  0  0  0  0  0  0  0  0  0  0
    7.2700   -3.7550   21.8200 C   0  0  0  0  0  0  0  0  0  0  0  0
    6.1750   -2.4110   21.5830 S   0  0  0  0  0  0  0  0  0  0  0  0
    4.7660   -3.1230   21.5890 O   0  0  0  0  0  0  0  0  0  0  0  0
    6.4830   -1.9040   20.2830 O   0  0  0  0  0  0  0  0  0  0  0  0
    6.9070   -1.1300   22.6730 N   0  0  0  0  0  0  0  0  0  0  0  0
    8.3830   -0.9610   22.7160 C   0  0  0  0  0  0  0  0  0  0  0  0
    6.4000    0.2340   22.3610 C   0  0  1  0  0  0  0  0  0  0  0  0
    9.5610   -1.3400   22.5550 C   0  0  0  0  0  0  0  0  0  0  0  0
    9.6250   -0.4000   22.9030 C   0  0  0  0  0  0  0  0  0  0  0  0
    7.0170    1.3670   23.2320 C   0  0  0  0  0  0  0  0  0  0  0  0
    6.1220    0.3730   20.8150 C   0  0  0  0  0  0  0  0  0  0  0  0
   10.7670   -0.5270   22.8260 C   0  0  0  0  0  0  0  0  0  0  0  0
   10.9740   -1.1010   22.6070 C   0  0  0  0  0  0  0  0  0  0  0  0
    8.1240    1.8950   23.1000 O   0  0  0  0  0  0  0  0  0  0  0  0
    6.0820    1.6900   24.1950 N   0  0  0  0  0  0  0  0  0  0  0  0
    6.7410   -0.5090   19.9140 C   0  0  0  0  0  0  0  0  0  0  0  0
    5.2630    1.3050   20.1490 C   0  0  0  0  0  0  0  0  0  0  0  0
   12.0990   -0.4710   22.8110 C   0  0  0  0  0  0  0  0  0  0  0  0
    5.4790    0.7210   25.0480 C   0  0  0  0  0  0  0  0  0  0  0  0
    6.5520   -0.5200   18.5920 N   0  0  0  0  0  0  0  0  0  0  0  0
    5.0660    1.2930   18.8040 C   0  0  0  0  0  0  0  0  0  0  0  0
    4.4860    2.3690   20.7680 C   0  0  0  0  0  0  0  0  0  0  0  0
   12.9480   -1.6250   22.3580 C   0  0  0  0  0  0  0  0  0  0  0  0
    4.1120    0.4150   24.7860 C   0  0  0  0  0  0  0  0  0  0  0  0
    6.1420    0.0560   26.1180 C   0  0  0  0  0  0  0  0  0  0  0  0
    5.7160    0.3740   18.0750 C   0  0  0  0  0  0  0  0  0  0  0  0
   13.6090   -2.4340   23.4920 C   0  0  0  0  0  0  0  0  0  0  0  0
   11.8900   -2.6040   21.9220 C   0  0  0  0  0  0  0  0  0  0  0  0
   13.5020   -1.4790   20.9460 C   0  0  0  0  0  0  0  0  0  0  0  0
    3.2970    1.0640   23.6820 C   0  0  0  0  0  0  0  0  0  0  0  0
    3.4380   -0.5380   25.5730 C   0  0  0  0  0  0  0  0  0  0  0  0
    5.4200   -0.8920   26.8780 C   0  0  0  0  0  0  0  0  0  0  0  0
    7.5790    0.2620   26.5440 C   0  0  0  0  0  0  0  0  0  0  0  0
    3.5410    0.4160   22.3330 C   0  0  0  0  0  0  0  0  0  0  0  0
    4.0920   -1.1860   26.6110 C   0  0  0  0  0  0  0  0  0  0  0  0
    7.6990    0.0710   27.9650 O   0  0  0  0  0  0  0  0  0  0  0  0
  1  2  1  0
  2  3  1  0
  3  4  2  0
  3  5  2  0
  3  6  1  0
  6  7  1  0
  6  8  1  0
  7  9  2  0
  7 10  1  0
  8 11  1  6
  8 12  1  0
  9 13  1  0
 10 14  2  0
 11 15  2  0
 11 16  1  0
 12 17  2  0
 12 18  1  0
 13 19  2  0
 14 19  1  0
 16 20  1  0
 17 21  1  0
 18 22  2  0
 18 23  1  0
 19 24  1  0
 20 25  2  0
 20 26  1  0
 21 27  2  0
 22 27  1  0
 24 28  1  0
 24 29  1  0
 24 30  1  0
 25 31  1  0
 25 32  1  0
 26 33  2  0
 26 34  1  0
 31 35  1  0
 32 36  2  0
 33 36  1  0
 34 37  1  0
M  END
