DAR-DIA-2b784ede-41-chloroacetamide
     RDKit          3D

 37 39  0  0  0  0  0  0  0  0999 V2000
    8.0250   -3.7930   20.3960 C   0  0  0  0  0  0  0  0  0  0  0  0
    7.1670   -2.4730   20.1820 C   0  0  0  0  0  0  0  0  0  0  0  0
    6.3500   -3.1090   19.3250 O   0  0  0  0  0  0  0  0  0  0  0  0
    8.2400   -2.0580   21.1560 N   0  0  0  0  0  0  0  0  0  0  0  0
    8.4380   -2.6760   22.4100 C   0  0  0  0  0  0  0  0  0  0  0  0
    8.4950   -0.6910   21.8170 C   0  0  2  0  0  0  0  0  0  0  0  0
    9.9630   -2.6510   22.7190 C   0  0  0  0  0  0  0  0  0  0  0  0
    7.4070   -3.1530   23.1510 C   0  0  0  0  0  0  0  0  0  0  0  0
    7.7330    0.3650   21.4180 C   0  0  0  0  0  0  0  0  0  0  0  0
    9.9370   -0.2240   22.2220 C   0  0  0  0  0  0  0  0  0  0  0  0
   10.2640   -3.2980   24.1010 C   0  0  0  0  0  0  0  0  0  0  0  0
    7.7120   -3.6990   24.3240 C   0  0  0  0  0  0  0  0  0  0  0  0
    8.4680    1.4520   20.9680 O   0  0  0  0  0  0  0  0  0  0  0  0
    6.4380    0.4090   21.4450 N   0  0  0  0  0  0  0  0  0  0  0  0
   10.0840    1.0870   22.7000 C   0  0  0  0  0  0  0  0  0  0  0  0
   11.1730   -0.9520   22.1870 C   0  0  0  0  0  0  0  0  0  0  0  0
    8.9950   -3.8000   24.8110 C   0  0  0  0  0  0  0  0  0  0  0  0
    5.8770    0.9210   20.2520 C   0  0  0  0  0  0  0  0  0  0  0  0
   11.2240    1.6990   23.1050 N   0  0  0  0  0  0  0  0  0  0  0  0
   12.3520   -0.3320   22.6100 C   0  0  0  0  0  0  0  0  0  0  0  0
   11.3340   -2.2510   21.7590 C   0  0  0  0  0  0  0  0  0  0  0  0
    9.3560   -4.4490   26.1010 C   0  0  0  0  0  0  0  0  0  0  0  0
    6.6540    0.6480   19.0140 C   0  0  0  0  0  0  0  0  0  0  0  0
    4.6970    1.6520   20.1460 C   0  0  0  0  0  0  0  0  0  0  0  0
   12.3370    0.9730   23.0540 C   0  0  0  0  0  0  0  0  0  0  0  0
    8.5300   -3.7700   27.2150 C   0  0  0  0  0  0  0  0  0  0  0  0
   10.8360   -4.5160   26.3730 C   0  0  0  0  0  0  0  0  0  0  0  0
    8.9350   -5.8490   25.8240 C   0  0  0  0  0  0  0  0  0  0  0  0
    6.1680    1.1620   17.7140 C   0  0  0  0  0  0  0  0  0  0  0  0
    4.2720    2.1290   18.8870 C   0  0  0  0  0  0  0  0  0  0  0  0
    3.8030    2.0010   21.2990 C   0  0  0  0  0  0  0  0  0  0  0  0
    7.1240    0.7450   16.6430 C   0  0  0  0  0  0  0  0  0  0  0  0
    4.9990    1.8920   17.6960 C   0  0  0  0  0  0  0  0  0  0  0  0
    7.3660   -0.8760   17.1340 S   0  0  0  0  0  0  0  0  0  0  0  0
    7.2300   -1.4530   15.5610 C   0  0  0  0  0  0  0  0  0  0  0  0
    7.6120   -1.3750   18.7450 C   0  0  0  0  0  0  0  0  0  0  0  0
    7.4530   -2.4560   16.6210 N   0  0  0  0  0  0  0  0  0  0  0  0
  1  2  1  0
  2  3  2  0
  2  4  1  0
  4  5  1  0
  4  6  1  0
  5  7  2  0
  5  8  1  0
  6  9  1  6
  6 10  1  0
  7 11  1  0
  8 12  2  0
  9 13  2  0
  9 14  1  0
 10 15  2  0
 10 16  1  0
 11 17  2  0
 12 17  1  0
 14 18  1  0
 15 19  1  0
 16 20  2  0
 16 21  1  0
 17 22  1  0
 18 23  2  0
 18 24  1  0
 19 25  2  0
 20 25  1  0
 22 26  1  0
 22 27  1  0
 22 28  1  0
 23 29  1  0
 24 30  2  0
 24 31  1  0
 29 32  1  0
 29 33  2  0
 30 33  1  0
 32 34  1  0
 34 35  2  0
 34 36  2  0
 34 37  1  0
M  END
