DAR-DIA-8e329c92-12
     RDKit          3D

 30 33  0  0  0  0  0  0  0  0999 V2000
    8.0760    5.2000   22.4120 N   0  0  0  0  0  0  0  0  0  0  0  0
    9.0350    5.1220   23.7920 S   0  0  0  0  0  0  0  0  0  0  0  0
    9.9030    6.2710   23.7010 O   0  0  0  0  0  0  0  0  0  0  0  0
    8.1250    4.9630   24.9150 O   0  0  0  0  0  0  0  0  0  0  0  0
    9.9880    3.6250   23.6720 C   0  0  0  0  0  0  0  0  0  0  0  0
    9.3900    2.3750   24.2780 C   0  0  0  0  0  0  0  0  0  0  0  0
   11.2530    3.5880   23.0490 C   0  0  0  0  0  0  0  0  0  0  0  0
   10.2300    1.1600   24.1740 C   0  0  0  0  0  0  0  0  0  0  0  0
   11.9820    2.3480   22.9960 C   0  0  0  0  0  0  0  0  0  0  0  0
   11.8610    4.8300   22.4370 C   0  0  0  0  0  0  0  0  0  0  0  0
   11.4620    1.1530   23.5690 C   0  0  0  0  0  0  0  0  0  0  0  0
   13.3410    4.8640   22.7170 C   0  0  0  0  0  0  0  0  0  0  0  0
   13.3420    2.3240   22.3070 C   0  0  0  0  0  0  0  0  0  0  0  0
   12.1590   -0.0690   23.5540 C   0  0  0  0  0  0  0  0  0  0  0  0
   14.0020    3.6920   22.0360 C   0  0  0  0  0  0  0  0  0  0  0  0
   12.2740   -0.7660   24.7840 C   0  0  0  0  0  0  0  0  0  0  0  0
   12.5300   -2.0770   24.6180 N   0  0  0  0  0  0  0  0  0  0  0  0
   13.7610   -2.6290   24.8900 C   0  0  0  0  0  0  0  0  0  0  0  0
   14.3270   -2.5520   25.9670 O   0  0  0  0  0  0  0  0  0  0  0  0
   14.3090   -3.3260   23.8170 C   0  0  0  0  0  0  0  0  0  0  0  0
   15.6050   -4.2410   24.0510 C   0  0  0  0  0  0  0  0  0  0  0  0
   13.6440   -3.3290   22.4680 C   0  0  0  0  0  0  0  0  0  0  0  0
   16.2450   -5.0380   22.8860 C   0  0  0  0  0  0  0  0  0  0  0  0
   14.1680   -4.2100   21.3340 C   0  0  0  0  0  0  0  0  0  0  0  0
   12.5170   -2.5670   22.3490 C   0  0  0  0  0  0  0  0  0  0  0  0
   17.3140   -5.5190   23.1760 O   0  0  0  0  0  0  0  0  0  0  0  0
   15.5370   -5.0780   21.5350 N   0  0  0  0  0  0  0  0  0  0  0  0
   13.4470   -4.2580   20.2600 C   0  0  0  0  0  0  0  0  0  0  0  0
   11.8030   -2.6320   21.2270 C   0  0  0  0  0  0  0  0  0  0  0  0
   12.2280   -3.4670   20.2220 C   0  0  0  0  0  0  0  0  0  0  0  0
  2  1  1  0
  2  3  2  0
  2  4  2  0
  2  5  1  0
  5  6  2  0
  5  7  1  0
  6  8  1  0
  7  9  2  0
  7 10  1  0
  8 11  2  0
  9 11  1  0
 10 12  1  0
  9 13  1  0
 11 14  1  0
 12 15  1  0
 13 15  1  0
 14 16  1  0
 16 17  1  0
 17 18  1  0
 18 19  2  0
 18 20  1  0
 20 21  2  0
 20 22  1  0
 21 23  1  0
 22 24  2  0
 22 25  1  0
 23 26  2  0
 23 27  1  0
 24 27  1  0
 24 28  1  0
 25 29  2  0
 28 30  2  0
 29 30  1  0
M  END
