DAR-DIA-3e9bbd81-5-vinylsulfonamide
     RDKit          3D

 30 34  0  0  0  0  0  0  0  0999 V2000
    7.9770   -3.3980   19.4850 C   0  0  0  0  0  0  0  0  0  0  0  0
    7.0080   -2.5550   18.7450 C   0  0  0  0  0  0  0  0  0  0  0  0
    5.6460   -2.6910   19.7680 S   0  0  0  0  0  0  0  0  0  0  0  0
    5.0550   -4.0310   19.6990 O   0  0  0  0  0  0  0  0  0  0  0  0
    4.8670   -1.5120   19.6130 O   0  0  0  0  0  0  0  0  0  0  0  0
    6.5800   -2.5410   21.1210 N   0  0  0  0  0  0  0  0  0  0  0  0
    6.4900   -3.4310   22.2740 C   0  0  0  0  0  0  0  0  0  0  0  0
    6.9390   -1.2160   21.6350 C   0  0  1  0  0  0  0  0  0  0  0  0
    6.7500   -2.4940   23.4420 C   0  0  2  0  0  0  0  0  0  0  0  0
    6.0530   -1.2590   22.8750 C   0  0  0  0  0  0  0  0  0  0  0  0
    8.2790   -1.3550   22.0110 C   0  0  0  0  0  0  0  0  0  0  0  0
    8.0910   -1.8830   23.4170 N   0  0  0  0  0  0  0  0  0  0  0  0
    9.1400   -2.6470   23.8050 C   0  0  2  0  0  0  0  0  0  0  0  0
    9.0170   -3.4460   24.9500 C   0  0  0  0  0  0  0  0  0  0  0  0
   10.2670   -1.6440   23.4690 C   0  0  0  0  0  0  0  0  0  0  0  0
    8.1640   -2.9410   26.1010 C   0  0  0  0  0  0  0  0  0  0  0  0
    9.6340   -4.8270   25.1560 C   0  0  0  0  0  0  0  0  0  0  0  0
   11.3580   -2.1380   22.5930 C   0  0  0  0  0  0  0  0  0  0  0  0
   10.2990   -0.2650   23.8660 C   0  0  0  0  0  0  0  0  0  0  0  0
    7.9750   -3.7060   27.2470 C   0  0  0  0  0  0  0  0  0  0  0  0
    9.3400   -5.4800   26.3820 C   0  0  0  0  0  0  0  0  0  0  0  0
   12.3530   -1.1950   22.2220 C   0  0  0  0  0  0  0  0  0  0  0  0
   11.3580    0.5990   23.4310 C   0  0  0  0  0  0  0  0  0  0  0  0
    9.2260    0.3960   24.7340 C   0  0  0  0  0  0  0  0  0  0  0  0
    8.5530   -4.9510   27.3790 C   0  0  0  0  0  0  0  0  0  0  0  0
   13.4910   -1.7940   21.1850 Cl  0  0  0  0  0  0  0  0  0  0  0  0
   12.3800    0.1250   22.6340 C   0  0  0  0  0  0  0  0  0  0  0  0
   11.3750    1.9410   23.7670 C   0  0  0  0  0  0  0  0  0  0  0  0
    9.2970    1.7480   25.0240 C   0  0  0  0  0  0  0  0  0  0  0  0
   10.3690    2.5150   24.5270 C   0  0  0  0  0  0  0  0  0  0  0  0
  1  2  1  0
  3  2  1  0
  3  4  2  0
  3  5  2  0
  3  6  1  0
  6  7  1  0
  6  8  1  0
  9  7  1  6
  8 10  1  0
  9 10  1  0
  8 11  1  1
  9 12  1  0
 11 12  1  0
 12 13  1  0
 13 14  1  1
 13 15  1  0
 14 16  2  0
 14 17  1  0
 15 18  2  0
 15 19  1  0
 16 20  1  0
 17 21  2  0
 18 22  1  0
 19 23  2  0
 19 24  1  0
 20 25  2  0
 21 25  1  0
 22 26  1  0
 22 27  2  0
 23 27  1  0
 23 28  1  0
 24 29  2  0
 28 30  2  0
 29 30  1  0
M  END
