DAR-DIA-0cde14eb-34
     RDKit          3D

 24 27  0  0  0  0  0  0  0  0999 V2000
    8.8420    0.4440   21.2680 O   0  0  0  0  0  0  0  0  0  0  0  0
    8.4050   -0.6620   21.5740 C   0  0  0  0  0  0  0  0  0  0  0  0
    9.2540   -1.5750   22.4480 C   0  0  0  0  0  0  0  0  0  0  0  0
    7.0960   -1.0960   21.1020 N   0  0  0  0  0  0  0  0  0  0  0  0
   10.5000   -0.8010   22.6880 C   0  0  0  0  0  0  0  0  0  0  0  0
    6.4170   -0.3260   20.1350 C   0  0  0  0  0  0  0  0  0  0  0  0
   11.7810   -1.3010   22.7390 C   0  0  0  0  0  0  0  0  0  0  0  0
   10.3140    0.5600   22.8530 C   0  0  0  0  0  0  0  0  0  0  0  0
    6.8410   -0.2980   18.7240 C   0  0  0  0  0  0  0  0  0  0  0  0
    5.3000    0.4670   20.4830 C   0  0  0  0  0  0  0  0  0  0  0  0
   12.8510   -0.4060   22.9520 C   0  0  0  0  0  0  0  0  0  0  0  0
   11.3340    1.4720   23.0490 C   0  0  0  0  0  0  0  0  0  0  0  0
    6.1750    0.4600   17.8240 N   0  0  0  0  0  0  0  0  0  0  0  0
    4.6530    1.2340   19.4980 C   0  0  0  0  0  0  0  0  0  0  0  0
    4.7950    0.5350   21.7840 C   0  0  0  0  0  0  0  0  0  0  0  0
   12.6240    0.9740   23.1020 C   0  0  0  0  0  0  0  0  0  0  0  0
   10.9530    2.8080   23.1440 C   0  0  0  0  0  0  0  0  0  0  0  0
    5.1170    1.2090   18.1800 C   0  0  0  0  0  0  0  0  0  0  0  0
    3.9950    1.6530   22.0410 C   0  0  0  0  0  0  0  0  0  0  0  0
    3.4620    2.0960   19.8180 C   0  0  0  0  0  0  0  0  0  0  0  0
   12.4150    4.3330   22.7540 I   0  0  0  0  0  0  0  0  0  0  0  0
    9.7610    3.1230   22.4700 C   0  0  0  0  0  0  0  0  0  0  0  0
    9.6520    3.0790   24.0160 C   0  0  0  0  0  0  0  0  0  0  0  0
    2.8660    1.7680   21.0380 C   0  0  0  0  0  0  0  0  0  0  0  0
  1  2  2  0
  2  3  1  0
  2  4  1  0
  3  5  1  0
  4  6  1  0
  5  7  2  0
  5  8  1  0
  6  9  2  0
  6 10  1  0
  7 11  1  0
  8 12  2  0
  9 13  1  0
 10 14  2  0
 10 15  1  0
 11 16  2  0
 12 16  1  0
 12 17  1  0
 13 18  2  0
 14 18  1  0
 15 19  1  0
 14 20  1  0
 17 21  1  0
 17 22  1  0
 17 23  1  0
 22 23  1  0
 19 24  1  0
 20 24  1  0
M  END
