DAR-DIA-eace69ff-18
     RDKit          3D

 23 25  0  0  0  0  0  0  0  0999 V2000
   13.3050   -2.1600   20.8890 C   0  0  0  0  0  0  0  0  0  0  0  0
   13.1970   -2.0890   22.3580 C   0  0  0  0  0  0  0  0  0  0  0  0
   12.4010   -0.9180   22.8010 C   0  0  0  0  0  0  0  0  0  0  0  0
   11.1420   -1.5680   23.3320 C   0  0  0  0  0  0  0  0  0  0  0  0
   12.7270    0.4350   22.7360 C   0  0  0  0  0  0  0  0  0  0  0  0
   10.1310   -0.5770   23.8590 C   0  0  0  0  0  0  0  0  0  0  0  0
   11.8070    1.3590   23.1960 C   0  0  0  0  0  0  0  0  0  0  0  0
    8.9350   -0.9870   24.3870 O   0  0  0  0  0  0  0  0  0  0  0  0
   10.4620    0.7980   23.7850 C   0  0  0  0  0  0  0  0  0  0  0  0
   11.7270    2.8110   23.2870 C   0  0  0  0  0  0  0  0  0  0  0  0
    8.8630   -2.2590   25.0590 C   0  0  0  0  0  0  0  0  0  0  0  0
    9.7360    1.8930   24.1790 N   0  0  0  0  0  0  0  0  0  0  0  0
   10.5130    3.1010   23.8690 C   0  0  0  0  0  0  0  0  0  0  0  0
   12.6570    3.9860   22.8860 C   0  0  0  0  0  0  0  0  0  0  0  0
    8.1460   -2.1550   26.2610 C   0  0  0  0  0  0  0  0  0  0  0  0
    8.2720   -3.2640   24.0640 C   0  0  0  0  0  0  0  0  0  0  0  0
   12.1170    5.3500   23.1840 N   0  0  0  0  0  0  0  0  0  0  0  0
    7.8840   -3.4120   26.8320 C   0  0  0  0  0  0  0  0  0  0  0  0
    8.0200   -4.5370   24.5930 C   0  0  0  0  0  0  0  0  0  0  0  0
   12.1960    5.8570   24.5510 C   0  0  0  0  0  0  0  0  0  0  0  0
   10.8210    5.5370   22.6070 C   0  0  0  0  0  0  0  0  0  0  0  0
    8.9830   -4.2510   26.7240 C   0  0  0  0  0  0  0  0  0  0  0  0
    8.9510   -4.9810   25.5350 C   0  0  0  0  0  0  0  0  0  0  0  0
  1  2  1  0
  2  3  1  0
  3  4  2  0
  3  5  1  0
  4  6  1  0
  5  7  2  0
  6  8  1  0
  6  9  2  0
  7  9  1  0
  7 10  1  0
  8 11  1  0
  9 12  1  0
 10 13  2  0
 12 13  1  0
 10 14  1  0
 11 15  1  0
 11 16  1  0
 14 17  1  0
 15 18  1  0
 16 19  1  0
 17 20  1  0
 17 21  1  0
 18 22  1  0
 19 23  1  0
 22 23  1  0
M  END
