DAR-DIA-2b784ede-36-bromoalkyne
     RDKit          3D

 33 35  0  0  0  0  0  0  0  0999 V2000
    7.2290   -3.3370   19.9180 C   0  0  0  0  0  0  0  0  0  0  0  0
    5.8390   -3.3980   19.4340 C   0  0  0  0  0  0  0  0  0  0  0  0
    7.5690   -2.6560   21.0850 N   0  0  0  0  0  0  0  0  0  0  0  0
    6.9140   -3.1560   22.2600 C   0  0  0  0  0  0  0  0  0  0  0  0
    7.7370   -1.1630   20.9810 C   0  0  1  0  0  0  0  0  0  0  0  0
    6.0530   -4.2150   22.2740 C   0  0  0  0  0  0  0  0  0  0  0  0
    6.9860   -2.7130   23.5350 N   0  0  0  0  0  0  0  0  0  0  0  0
    9.1510   -0.6230   21.3100 C   0  0  0  0  0  0  0  0  0  0  0  0
    6.7270   -0.5740   20.0530 C   0  0  0  0  0  0  0  0  0  0  0  0
    5.5790   -4.4430   23.5380 C   0  0  0  0  0  0  0  0  0  0  0  0
    6.1610   -3.5090   24.3360 O   0  0  0  0  0  0  0  0  0  0  0  0
    9.2690    0.6060   21.3620 O   0  0  0  0  0  0  0  0  0  0  0  0
   10.2080   -1.5070   21.5960 N   0  0  0  0  0  0  0  0  0  0  0  0
    7.0130   -0.0620   18.6870 C   0  0  0  0  0  0  0  0  0  0  0  0
    5.4810   -0.5250   20.4720 C   0  0  0  0  0  0  0  0  0  0  0  0
    4.6780   -5.4090   23.9970 C   0  0  0  0  0  0  0  0  0  0  0  0
   10.9360   -1.2370   22.7720 C   0  0  0  0  0  0  0  0  0  0  0  0
    6.1190    0.4240   17.8810 N   0  0  0  0  0  0  0  0  0  0  0  0
    4.5800   -0.0490   19.6260 C   0  0  0  0  0  0  0  0  0  0  0  0
    5.1480   -0.9730   21.7540 C   0  0  0  0  0  0  0  0  0  0  0  0
    4.6370   -6.8070   23.3710 C   0  0  0  0  0  0  0  0  0  0  0  0
    3.2560   -4.8250   23.8270 C   0  0  0  0  0  0  0  0  0  0  0  0
    4.9430   -5.6410   25.5050 C   0  0  0  0  0  0  0  0  0  0  0  0
   10.1850   -1.1480   24.0790 C   0  0  0  0  0  0  0  0  0  0  0  0
   12.3320   -1.0190   22.8390 C   0  0  0  0  0  0  0  0  0  0  0  0
    4.9310    0.3980   18.3690 C   0  0  0  0  0  0  0  0  0  0  0  0
    5.1570   -5.8130   26.6310 N   0  0  0  0  0  0  0  0  0  0  0  0
    8.6950   -1.4350   24.1980 C   0  0  0  0  0  0  0  0  0  0  0  0
   10.8640   -0.8010   25.2300 C   0  0  0  0  0  0  0  0  0  0  0  0
   12.9140   -0.6980   24.0050 C   0  0  0  0  0  0  0  0  0  0  0  0
   13.2390   -1.0940   21.8780 C   0  0  0  0  0  0  0  0  0  0  0  0
   12.2380   -0.5750   25.1590 C   0  0  0  0  0  0  0  0  0  0  0  0
   13.1380   -2.1240   21.0030 C   0  0  0  0  0  0  0  0  0  0  0  0
  1  2  2  3
  1  3  1  0
  3  4  1  0
  3  5  1  0
  4  6  1  0
  4  7  2  0
  5  8  1  6
  5  9  1  0
  6 10  2  0
  7 11  1  0
 10 11  1  0
  8 12  2  0
  8 13  1  0
  9 14  2  0
  9 15  1  0
 10 16  1  0
 13 17  1  0
 14 18  1  0
 15 19  2  0
 15 20  1  0
 16 21  1  0
 16 22  1  0
 16 23  1  0
 17 24  2  0
 17 25  1  0
 18 26  2  0
 19 26  1  0
 23 27  3  0
 24 28  1  0
 24 29  1  0
 25 30  2  0
 25 31  1  0
 29 32  2  0
 30 32  1  0
 31 33  1  0
M  END
