DAR-DIA-2b784ede-22-chloroacetamide
     RDKit          3D

 29 31  0  0  0  0  0  0  0  0999 V2000
    7.5770   -3.5950   20.5670 C   0  0  0  0  0  0  0  0  0  0  0  0
    6.8340   -2.2140   20.5840 C   0  0  0  0  0  0  0  0  0  0  0  0
    6.2730   -2.7800   19.4440 O   0  0  0  0  0  0  0  0  0  0  0  0
    7.6390   -1.9320   21.8770 N   0  0  0  0  0  0  0  0  0  0  0  0
    7.1110   -2.6260   23.0320 C   0  0  0  0  0  0  0  0  0  0  0  0
    8.2920   -0.5290   22.2370 C   0  0  1  0  0  0  0  0  0  0  0  0
    6.5810   -3.9250   22.9390 C   0  0  0  0  0  0  0  0  0  0  0  0
    7.0780   -2.0580   24.3010 C   0  0  0  0  0  0  0  0  0  0  0  0
    7.4800    0.2160   23.1410 C   0  0  0  0  0  0  0  0  0  0  0  0
    9.8430   -0.4650   22.4980 C   0  0  0  0  0  0  0  0  0  0  0  0
    6.0390   -4.5950   24.0640 C   0  0  0  0  0  0  0  0  0  0  0  0
    6.5460   -2.7200   25.3810 C   0  0  0  0  0  0  0  0  0  0  0  0
    7.9840    0.9830   23.9630 O   0  0  0  0  0  0  0  0  0  0  0  0
    6.1060    0.0640   23.0210 N   0  0  0  0  0  0  0  0  0  0  0  0
   10.4900   -1.6860   22.4620 C   0  0  0  0  0  0  0  0  0  0  0  0
   10.7020    0.6640   22.7420 C   0  0  0  0  0  0  0  0  0  0  0  0
    6.0030   -3.9900   25.3380 C   0  0  0  0  0  0  0  0  0  0  0  0
    5.2660   -0.2870   24.1390 C   0  0  0  0  0  0  0  0  0  0  0  0
   11.8040   -1.9470   22.6050 N   0  0  0  0  0  0  0  0  0  0  0  0
   12.0910    0.4090   22.8900 C   0  0  0  0  0  0  0  0  0  0  0  0
   10.2490    2.1040   22.8350 C   0  0  0  0  0  0  0  0  0  0  0  0
    5.4130   -4.6420   26.6110 C   0  0  0  0  0  0  0  0  0  0  0  0
   12.5650   -0.8790   22.8030 C   0  0  0  0  0  0  0  0  0  0  0  0
    3.8670   -4.5950   26.6160 C   0  0  0  0  0  0  0  0  0  0  0  0
    5.8730   -3.8150   27.8390 C   0  0  0  0  0  0  0  0  0  0  0  0
    5.8670   -6.0780   26.9860 C   0  0  0  0  0  0  0  0  0  0  0  0
    2.7060   -4.5630   26.6110 N   0  0  0  0  0  0  0  0  0  0  0  0
    6.2420   -4.8430   28.9260 C   0  0  0  0  0  0  0  0  0  0  0  0
    5.7510   -6.1880   28.3760 C   0  0  0  0  0  0  0  0  0  0  0  0
  1  2  1  0
  2  3  2  0
  2  4  1  0
  4  5  1  0
  4  6  1  0
  5  7  2  0
  5  8  1  0
  6  9  1  1
  6 10  1  0
  7 11  1  0
  8 12  2  0
  9 13  2  0
  9 14  1  0
 10 15  2  0
 10 16  1  0
 11 17  2  0
 12 17  1  0
 14 18  1  0
 15 19  1  0
 16 20  2  0
 16 21  1  0
 17 22  1  0
 19 23  2  0
 20 23  1  0
 22 24  1  0
 22 25  1  0
 22 26  1  0
 24 27  3  0
 25 28  1  0
 26 29  1  0
 28 29  1  0
M  END
