DAR-DIA-0cde14eb-2
     RDKit          3D

 21 23  0  0  0  0  0  0  0  0999 V2000
    5.1040    0.8050   22.0670 C   0  0  0  0  0  0  0  0  0  0  0  0
    5.4470    0.6830   20.6000 C   0  0  0  0  0  0  0  0  0  0  0  0
    4.6970    1.5480   19.6480 C   0  0  0  0  0  0  0  0  0  0  0  0
    6.4110   -0.1650   20.0630 C   0  0  0  0  0  0  0  0  0  0  0  0
    4.9930    1.4690   18.3070 C   0  0  0  0  0  0  0  0  0  0  0  0
    6.5960   -0.1320   18.6850 C   0  0  0  0  0  0  0  0  0  0  0  0
    7.1690   -0.9940   20.7900 N   0  0  0  0  0  0  0  0  0  0  0  0
    5.9260    0.6510   17.7960 N   0  0  0  0  0  0  0  0  0  0  0  0
    8.2430   -0.4290   21.4020 C   0  0  0  0  0  0  0  0  0  0  0  0
    8.5530    0.7550   21.2780 O   0  0  0  0  0  0  0  0  0  0  0  0
    9.0330   -1.2280   22.2040 C   0  0  0  0  0  0  0  0  0  0  0  0
   10.3500   -0.5180   22.5020 C   0  0  0  0  0  0  0  0  0  0  0  0
   11.6230   -1.3170   22.4600 C   0  0  0  0  0  0  0  0  0  0  0  0
   10.3910    0.9020   22.8010 C   0  0  0  0  0  0  0  0  0  0  0  0
   12.8870   -0.5030   22.7460 C   0  0  0  0  0  0  0  0  0  0  0  0
   11.5750    1.5850   23.0380 C   0  0  0  0  0  0  0  0  0  0  0  0
   12.7990    0.8770   23.0080 C   0  0  0  0  0  0  0  0  0  0  0  0
   11.5340    2.9230   23.2780 C   0  0  0  0  0  0  0  0  0  0  0  0
   10.7070    3.2200   24.3080 F   0  0  0  0  0  0  0  0  0  0  0  0
   11.4650    3.8500   22.3120 C   0  0  0  0  0  0  0  0  0  0  0  0
   12.8140    3.8580   23.0060 C   0  0  0  0  0  0  0  0  0  0  0  0
  1  2  1  0
  2  3  2  0
  2  4  1  0
  3  5  1  0
  4  6  2  0
  4  7  1  0
  5  8  2  0
  6  8  1  0
  7  9  1  0
  9 10  2  0
  9 11  1  0
 11 12  1  0
 12 13  2  0
 12 14  1  0
 13 15  1  0
 14 16  2  0
 15 17  2  0
 16 17  1  0
 16 18  1  0
 18 19  1  0
 18 20  1  0
 18 21  1  0
 20 21  1  0
M  END
