DAR-DIA-0cde14eb-25
     RDKit          3D

 28 31  0  0  0  0  0  0  0  0999 V2000
    5.0900    0.7400   21.9650 C   0  0  0  0  0  0  0  0  0  0  0  0
    5.3720    0.6910   20.4780 C   0  0  0  0  0  0  0  0  0  0  0  0
    4.7330    1.7250   19.6160 C   0  0  0  0  0  0  0  0  0  0  0  0
    6.1800   -0.2310   19.8300 C   0  0  0  0  0  0  0  0  0  0  0  0
    4.9830    1.7060   18.2610 C   0  0  0  0  0  0  0  0  0  0  0  0
    6.3390   -0.1240   18.4680 C   0  0  0  0  0  0  0  0  0  0  0  0
    6.8280   -1.2220   20.4290 N   0  0  0  0  0  0  0  0  0  0  0  0
    5.7760    0.8090   17.6540 N   0  0  0  0  0  0  0  0  0  0  0  0
    7.8800   -0.8920   21.1920 C   0  0  0  0  0  0  0  0  0  0  0  0
    8.5790    0.1120   21.0530 O   0  0  0  0  0  0  0  0  0  0  0  0
    8.1420   -1.7400   22.2320 C   0  0  1  0  0  0  0  0  0  0  0  0
    8.7510   -3.1330   22.1280 C   0  0  0  0  0  0  0  0  0  0  0  0
    9.1060   -0.9800   22.9390 C   0  0  0  0  0  0  0  0  0  0  0  0
    8.8460   -0.3090   24.2240 C   0  0  0  0  0  0  0  0  0  0  0  0
   10.3160   -0.8910   22.3540 C   0  0  0  0  0  0  0  0  0  0  0  0
    9.7980    0.4000   24.8370 C   0  0  0  0  0  0  0  0  0  0  0  0
   11.2790   -0.1850   22.9480 C   0  0  0  0  0  0  0  0  0  0  0  0
    9.3340    0.9450   26.0490 N   0  0  0  0  0  0  0  0  0  0  0  0
   11.0760    0.4690   24.1690 C   0  0  0  0  0  0  0  0  0  0  0  0
   12.5550   -0.1130   22.3060 C   0  0  0  0  0  0  0  0  0  0  0  0
    9.4290    0.0560   27.0490 C   0  0  0  0  0  0  0  0  0  0  0  0
    8.0420    1.6720   25.9940 C   0  0  0  0  0  0  0  0  0  0  0  0
   13.0980   -1.4880   21.9100 C   0  0  0  0  0  0  0  0  0  0  0  0
   13.5320   -0.7080   23.2030 C   0  0  0  0  0  0  0  0  0  0  0  0
   13.5810    0.7540   22.8920 C   0  0  0  0  0  0  0  0  0  0  0  0
    8.5220   -0.9300   27.1180 C   0  0  0  0  0  0  0  0  0  0  0  0
    7.1410    0.9920   26.8300 C   0  0  0  0  0  0  0  0  0  0  0  0
    7.1710   -0.4000   26.8860 C   0  0  0  0  0  0  0  0  0  0  0  0
  1  2  1  0
  2  3  2  0
  2  4  1  0
  3  5  1  0
  4  6  2  0
  4  7  1  0
  5  8  2  0
  6  8  1  0
  7  9  1  0
  9 10  2  0
  9 11  1  0
 11 12  1  6
 11 13  1  0
 13 14  2  0
 13 15  1  0
 14 16  1  0
 15 17  2  0
 16 18  1  0
 16 19  2  0
 17 19  1  0
 17 20  1  0
 18 21  1  0
 18 22  1  0
 20 23  1  0
 20 24  1  0
 20 25  1  0
 24 25  1  0
 21 26  1  0
 22 27  1  0
 26 28  1  0
 27 28  1  0
M  END
