DAR-DIA-0cde14eb-55
     RDKit          3D

 25 28  0  0  0  0  0  0  0  0999 V2000
    7.1730   -1.2920   23.8190 C   0  0  0  0  0  0  0  0  0  0  0  0
    8.2240   -1.2650   22.7250 C   0  0  1  0  0  0  0  0  0  0  0  0
    7.8200   -0.4970   21.5340 C   0  0  0  0  0  0  0  0  0  0  0  0
    9.4540   -0.5910   23.1910 C   0  0  0  0  0  0  0  0  0  0  0  0
    8.4410    0.5060   21.1810 O   0  0  0  0  0  0  0  0  0  0  0  0
    6.7250   -1.0140   20.9090 N   0  0  0  0  0  0  0  0  0  0  0  0
    9.4130    0.5660   23.8520 C   0  0  0  0  0  0  0  0  0  0  0  0
   10.6490   -1.1620   22.9170 C   0  0  0  0  0  0  0  0  0  0  0  0
    6.1650   -0.1310   19.9260 C   0  0  0  0  0  0  0  0  0  0  0  0
   10.6500    1.2130   24.2670 C   0  0  0  0  0  0  0  0  0  0  0  0
   11.8380   -0.5950   23.2910 C   0  0  0  0  0  0  0  0  0  0  0  0
    6.5240   -0.2140   18.5940 C   0  0  0  0  0  0  0  0  0  0  0  0
    5.2250    0.8650   20.2940 C   0  0  0  0  0  0  0  0  0  0  0  0
   11.9240    0.5960   23.9690 C   0  0  0  0  0  0  0  0  0  0  0  0
   12.9080   -1.2010   22.9540 C   0  0  0  0  0  0  0  0  0  0  0  0
    6.0730    0.5540   17.5940 N   0  0  0  0  0  0  0  0  0  0  0  0
    4.7270    1.6930   19.2500 C   0  0  0  0  0  0  0  0  0  0  0  0
    4.7670    1.0830   21.6030 C   0  0  0  0  0  0  0  0  0  0  0  0
   13.5580   -0.2750   22.0710 C   0  0  0  0  0  0  0  0  0  0  0  0
   13.4150   -2.4940   23.6040 C   0  0  0  0  0  0  0  0  0  0  0  0
   12.6570   -2.5320   22.2910 C   0  0  0  0  0  0  0  0  0  0  0  0
    5.1830    1.4840   17.9640 C   0  0  0  0  0  0  0  0  0  0  0  0
    3.8100    2.6840   19.5180 C   0  0  0  0  0  0  0  0  0  0  0  0
    3.7320    2.1980   21.9280 C   0  0  0  0  0  0  0  0  0  0  0  0
    3.2430    3.0060   20.9010 C   0  0  0  0  0  0  0  0  0  0  0  0
  2  1  1  1
  2  3  1  0
  2  4  1  0
  3  5  2  0
  3  6  1  0
  4  7  2  0
  4  8  1  0
  6  9  1  0
  7 10  1  0
  8 11  2  0
  9 12  2  0
  9 13  1  0
 10 14  2  0
 11 14  1  0
 11 15  1  0
 12 16  1  0
 13 17  2  0
 13 18  1  0
 15 19  1  0
 15 20  1  0
 15 21  1  0
 20 21  1  0
 16 22  2  0
 17 22  1  0
 17 23  1  0
 18 24  2  0
 23 25  2  0
 24 25  1  0
M  END
