DAR-DIA-23aa0b97-10-acrylamide
     RDKit          3D

 23 25  0  0  0  0  0  0  0  0999 V2000
    6.9820   -5.6070   20.3690 C   0  0  0  0  0  0  0  0  0  0  0  0
    5.6300   -5.2490   20.8560 C   0  0  0  0  0  0  0  0  0  0  0  0
    5.6690   -4.2740   21.9870 C   0  0  0  0  0  0  0  0  0  0  0  0
    4.6350   -3.6150   22.1110 O   0  0  0  0  0  0  0  0  0  0  0  0
    6.8720   -4.1970   22.9140 C   0  0  0  0  0  0  0  0  0  0  0  0
    7.1250   -5.5180   23.5490 C   0  0  0  0  0  0  0  0  0  0  0  0
    7.6080   -2.8400   23.0480 C   0  0  0  0  0  0  0  0  0  0  0  0
    7.8580   -4.4600   23.7860 N   0  0  0  0  0  0  0  0  0  0  0  0
    6.7430   -2.4420   22.2260 C   0  0  0  0  0  0  0  0  0  0  0  0
    7.5840   -3.2470   23.1640 C   0  0  0  0  0  0  0  0  0  0  0  0
    7.0500   -1.0010   22.0010 N   0  0  0  0  0  0  0  0  0  0  0  0
    8.4070   -0.7800   21.8130 C   0  0  0  0  0  0  0  0  0  0  0  0
    8.4810   -0.5880   23.0220 O   0  0  0  0  0  0  0  0  0  0  0  0
    7.9950   -1.0420   20.5270 N   0  0  0  0  0  0  0  0  0  0  0  0
    7.0070   -0.3940   19.8700 C   0  0  0  0  0  0  0  0  0  0  0  0
    6.4340   -0.8900   18.5810 C   0  0  0  0  0  0  0  0  0  0  0  0
    6.3770    0.9090   20.3790 C   0  0  0  0  0  0  0  0  0  0  0  0
    5.5120   -0.0310   18.2230 N   0  0  0  0  0  0  0  0  0  0  0  0
    5.4820    0.9600   19.2200 C   0  0  0  0  0  0  0  0  0  0  0  0
    5.4610    1.8090   20.0820 C   0  0  0  0  0  0  0  0  0  0  0  0
    4.4960    2.0990   19.0770 N   0  0  0  0  0  0  0  0  0  0  0  0
    5.0170    2.8930   20.6190 C   0  0  0  0  0  0  0  0  0  0  0  0
    4.0620    3.3340   19.7880 C   0  0  0  0  0  0  0  0  0  0  0  0
  1  2  1  0
  2  3  1  0
  3  4  2  0
  3  5  1  0
  5  6  2  0
  5  7  1  0
  6  8  1  0
  7  9  2  0
  8 10  2  0
  9 10  1  0
  9 11  1  0
 11 12  1  0
 12 13  2  0
 12 14  1  0
 14 15  1  0
 15 16  2  0
 15 17  1  0
 16 18  1  0
 17 19  2  0
 18 19  1  0
 17 20  1  0
 19 21  1  0
 20 22  2  0
 21 23  2  0
 22 23  1  0
M  END
