DAR-DIA-03336633-11
     RDKit          3D

 27 29  0  0  0  0  0  0  0  0999 V2000
    8.4510    0.8370   21.0600 O   0  0  0  0  0  0  0  0  0  0  0  0
    8.1230   -0.2890   21.4350 C   0  0  0  0  0  0  0  0  0  0  0  0
    8.9880   -1.0890   22.2520 N   0  0  0  0  0  0  0  0  0  0  0  0
    6.9270   -0.9010   21.1300 N   0  0  0  0  0  0  0  0  0  0  0  0
   10.3240   -0.6340   22.6210 C   0  0  0  0  0  0  0  0  0  0  0  0
    6.2650   -0.1470   20.1890 C   0  0  0  0  0  0  0  0  0  0  0  0
   11.4640   -1.4940   22.0690 C   0  0  0  0  0  0  0  0  0  0  0  0
   10.5460    0.4970   23.4000 C   0  0  0  0  0  0  0  0  0  0  0  0
    6.7840   -0.0180   18.7740 C   0  0  0  0  0  0  0  0  0  0  0  0
    5.0610    0.5300   20.5820 C   0  0  0  0  0  0  0  0  0  0  0  0
   12.8660   -1.0270   22.4160 C   0  0  0  0  0  0  0  0  0  0  0  0
   11.8340    0.8980   23.6990 C   0  0  0  0  0  0  0  0  0  0  0  0
    5.9800    0.8320   17.9130 N   0  0  0  0  0  0  0  0  0  0  0  0
    4.3580    1.3200   19.6620 C   0  0  0  0  0  0  0  0  0  0  0  0
    4.5450    0.4300   21.8880 C   0  0  0  0  0  0  0  0  0  0  0  0
   12.9080    0.2000   23.2440 C   0  0  0  0  0  0  0  0  0  0  0  0
    4.8510    1.4360   18.3740 C   0  0  0  0  0  0  0  0  0  0  0  0
    4.4530    1.6940   22.5110 C   0  0  0  0  0  0  0  0  0  0  0  0
    3.1380    2.3560   22.6070 N   0  0  0  0  0  0  0  0  0  0  0  0
    2.2510    2.0700   23.6120 C   0  0  0  0  0  0  0  0  0  0  0  0
    2.4960    1.2410   24.4720 O   0  0  0  0  0  0  0  0  0  0  0  0
    1.0670    2.8100   23.5590 N   0  0  0  0  0  0  0  0  0  0  0  0
    1.0910    4.2000   23.2330 C   0  0  0  0  0  0  0  0  0  0  0  0
   -0.3140    2.3760   23.9560 C   0  0  0  0  0  0  0  0  0  0  0  0
    0.7120    4.9210   24.3510 C   0  0  0  0  0  0  0  0  0  0  0  0
   -1.1770    3.4680   24.2750 C   0  0  0  0  0  0  0  0  0  0  0  0
   -0.6360    4.5900   24.9040 C   0  0  0  0  0  0  0  0  0  0  0  0
  1  2  2  0
  2  3  1  0
  2  4  1  0
  3  5  1  0
  4  6  1  0
  5  7  2  0
  5  8  1  0
  6  9  2  0
  6 10  1  0
  7 11  1  0
  8 12  2  0
  9 13  1  0
 10 14  2  0
 10 15  1  0
 11 16  2  0
 12 16  1  0
 13 17  2  0
 14 17  1  0
 15 18  1  0
 18 19  1  0
 19 20  1  0
 20 21  2  0
 20 22  1  0
 22 23  1  0
 22 24  1  0
 23 25  1  0
 24 26  1  0
 25 27  1  0
 26 27  1  0
M  END
