DAR-DIA-2b784ede-30-chloroacetamide
     RDKit          3D

 25 26  0  0  0  0  0  0  0  0999 V2000
    6.5640   -3.3250   19.9610 C   0  0  0  0  0  0  0  0  0  0  0  0
    7.6130   -2.3400   19.4260 C   0  0  0  0  0  0  0  0  0  0  0  0
    7.3020   -3.0700   18.4410 O   0  0  0  0  0  0  0  0  0  0  0  0
    7.5260   -1.7200   20.7990 N   0  0  0  0  0  0  0  0  0  0  0  0
    6.6290   -0.8060   20.3460 C   0  0  0  0  0  0  0  0  0  0  0  0
    8.5610   -0.8040   21.5860 C   0  0  0  0  0  0  0  0  0  0  0  0
    5.5110   -0.1760   20.8210 C   0  0  0  0  0  0  0  0  0  0  0  0
    6.8430   -0.3900   19.1350 C   0  0  0  0  0  0  0  0  0  0  0  0
    8.2910    0.7380   21.4100 C   0  0  0  0  0  0  0  0  0  0  0  0
    9.8370   -1.0970   22.5460 C   0  0  0  0  0  0  0  0  0  0  0  0
    5.0310    0.6320   19.8880 N   0  0  0  0  0  0  0  0  0  0  0  0
    5.9210    0.4150   18.8940 N   0  0  0  0  0  0  0  0  0  0  0  0
    9.1910    1.5240   21.1540 O   0  0  0  0  0  0  0  0  0  0  0  0
    6.9990    1.1750   21.6030 N   0  0  0  0  0  0  0  0  0  0  0  0
   11.1040   -0.1710   22.5210 C   0  0  0  0  0  0  0  0  0  0  0  0
   10.0280   -2.0770   23.5130 C   0  0  0  0  0  0  0  0  0  0  0  0
    5.8770    0.9360   17.6660 C   0  0  0  0  0  0  0  0  0  0  0  0
    6.3880    2.3420   21.0660 C   0  0  0  0  0  0  0  0  0  0  0  0
   12.2310   -0.2180   23.2450 N   0  0  0  0  0  0  0  0  0  0  0  0
   11.2080   -2.1210   24.2700 C   0  0  0  0  0  0  0  0  0  0  0  0
    9.0260   -3.1370   23.8450 C   0  0  0  0  0  0  0  0  0  0  0  0
    5.4380   -0.3060   17.3560 C   0  0  0  0  0  0  0  0  0  0  0  0
    7.1770    0.9040   16.8320 C   0  0  0  0  0  0  0  0  0  0  0  0
    4.9240    2.0470   17.6590 C   0  0  0  0  0  0  0  0  0  0  0  0
   12.2520   -1.2080   24.1150 C   0  0  0  0  0  0  0  0  0  0  0  0
  1  2  1  0
  2  3  2  0
  2  4  1  0
  4  5  1  0
  4  6  1  0
  5  7  1  0
  5  8  2  0
  6  9  1  0
  6 10  1  0
  7 11  2  0
  8 12  1  0
 11 12  1  0
  9 13  2  0
  9 14  1  0
 10 15  2  0
 10 16  1  0
 12 17  1  0
 14 18  1  0
 15 19  1  0
 16 20  2  0
 16 21  1  0
 17 22  1  0
 17 23  1  0
 17 24  1  0
 19 25  2  0
 20 25  1  0
M  END
