DAR-DIA-2b784ede-25-bromoalkyne
     RDKit          3D

 24 26  0  0  0  0  0  0  0  0999 V2000
    7.2110   -2.8490   20.2480 C   0  0  0  0  0  0  0  0  0  0  0  0
    6.2180   -2.3060   19.2120 C   0  0  0  0  0  0  0  0  0  0  0  0
    7.4460   -2.1130   21.6700 N   0  0  0  0  0  0  0  0  0  0  0  0
    6.3250   -1.8900   22.5570 C   0  0  1  0  0  0  0  0  0  0  0  0
    8.4640   -0.9120   22.0380 C   0  0  1  0  0  0  0  0  0  0  0  0
    6.1910   -2.7070   23.6880 C   0  0  0  0  0  0  0  0  0  0  0  0
    6.1440   -0.5960   23.0050 N   0  0  0  0  0  0  0  0  0  0  0  0
    7.8010    0.3490   22.6610 C   0  0  0  0  0  0  0  0  0  0  0  0
    9.8970   -1.0790   22.5860 C   0  0  0  0  0  0  0  0  0  0  0  0
    5.4830   -1.9770   24.6270 C   0  0  0  0  0  0  0  0  0  0  0  0
    6.0330   -0.5840   24.4950 C   0  0  0  0  0  0  0  0  0  0  0  0
    6.9460    1.0050   22.0380 O   0  0  0  0  0  0  0  0  0  0  0  0
    8.2670    0.6800   23.9400 N   0  0  0  0  0  0  0  0  0  0  0  0
   10.9290    0.0380   22.3540 C   0  0  0  0  0  0  0  0  0  0  0  0
   10.4200   -2.1430   23.2960 C   0  0  0  0  0  0  0  0  0  0  0  0
    5.1630   -2.4910   25.8980 C   0  0  0  0  0  0  0  0  0  0  0  0
    4.0990   -1.7830   24.0080 C   0  0  0  0  0  0  0  0  0  0  0  0
    8.7680   -0.2700   24.8820 C   0  0  0  0  0  0  0  0  0  0  0  0
   12.2180    0.0650   22.6920 N   0  0  0  0  0  0  0  0  0  0  0  0
   11.7730   -2.1110   23.6400 C   0  0  0  0  0  0  0  0  0  0  0  0
    9.6330   -3.2120   23.6590 C   0  0  0  0  0  0  0  0  0  0  0  0
    3.8410   -1.9120   26.3900 C   0  0  0  0  0  0  0  0  0  0  0  0
    3.0850   -1.5190   25.1170 C   0  0  0  0  0  0  0  0  0  0  0  0
   12.6140   -1.0340   23.3160 C   0  0  0  0  0  0  0  0  0  0  0  0
  1  2  2  3
  1  3  1  0
  4  3  1  1
  3  5  1  0
  4  6  1  0
  4  7  1  0
  5  8  1  1
  5  9  1  0
 10  6  1  0
  7 11  1  0
 10 11  1  0
  8 12  2  0
  8 13  1  0
  9 14  2  0
  9 15  1  0
 10 16  1  0
 10 17  1  0
 13 18  1  0
 14 19  1  0
 15 20  2  0
 15 21  1  0
 16 22  1  0
 17 23  1  0
 22 23  1  0
 19 24  2  0
 20 24  1  0
M  END
