DAR-DIA-8e329c92-8
     RDKit          3D

 32 35  0  0  0  0  0  0  0  0999 V2000
   16.6910   -5.4240   23.6360 C   0  0  0  0  0  0  0  0  0  0  0  0
   18.0760   -5.6350   23.7720 O   0  0  0  0  0  0  0  0  0  0  0  0
   18.5570   -4.5310   24.2940 C   0  0  0  0  0  0  0  0  0  0  0  0
   19.9420   -4.0460   24.1310 C   0  0  0  0  0  0  0  0  0  0  0  0
   17.6960   -3.8250   25.0020 C   0  0  0  0  0  0  0  0  0  0  0  0
   20.4590   -2.9060   24.6400 C   0  0  0  0  0  0  0  0  0  0  0  0
   18.3060   -2.6640   25.5010 C   0  0  0  0  0  0  0  0  0  0  0  0
   16.2820   -4.2530   25.1770 O   0  0  0  0  0  0  0  0  0  0  0  0
   19.5860   -2.2090   25.3510 C   0  0  0  0  0  0  0  0  0  0  0  0
   15.0430   -3.4310   25.5990 C   0  0  0  0  0  0  0  0  0  0  0  0
   13.6340   -3.0960   24.9120 C   0  0  1  0  0  0  0  0  0  0  0  0
   12.6990   -3.8040   25.8920 C   0  0  0  0  0  0  0  0  0  0  0  0
   13.1400   -1.6680   24.9480 N   0  0  0  0  0  0  0  0  0  0  0  0
   11.2180   -3.6050   25.7640 N   0  0  0  0  0  0  0  0  0  0  0  0
   12.9470   -0.8110   23.8350 C   0  0  0  0  0  0  0  0  0  0  0  0
   10.4270   -4.7620   26.2430 C   0  0  0  0  0  0  0  0  0  0  0  0
   10.7560   -3.1470   24.4390 C   0  0  0  0  0  0  0  0  0  0  0  0
   13.8360   -0.4020   23.1480 O   0  0  0  0  0  0  0  0  0  0  0  0
   11.6170   -0.2540   23.4510 C   0  0  0  0  0  0  0  0  0  0  0  0
    9.0660   -4.6750   25.9990 C   0  0  0  0  0  0  0  0  0  0  0  0
    9.3630   -3.3070   24.2920 C   0  0  0  0  0  0  0  0  0  0  0  0
   10.4950   -1.0830   23.3730 C   0  0  0  0  0  0  0  0  0  0  0  0
   11.4690    1.1650   23.1060 C   0  0  0  0  0  0  0  0  0  0  0  0
    8.8280   -4.5290   24.8140 O   0  0  0  0  0  0  0  0  0  0  0  0
    9.2540   -0.5530   22.9870 C   0  0  0  0  0  0  0  0  0  0  0  0
   10.1820    1.6670   22.9030 C   0  0  0  0  0  0  0  0  0  0  0  0
   12.5800    1.9930   22.9740 C   0  0  0  0  0  0  0  0  0  0  0  0
    8.3370   -1.2800   22.6120 O   0  0  0  0  0  0  0  0  0  0  0  0
    9.1010    0.8010   23.0480 N   0  0  0  0  0  0  0  0  0  0  0  0
    9.9310    3.1240   22.5310 C   0  0  0  0  0  0  0  0  0  0  0  0
   12.4980    3.3480   22.6450 C   0  0  0  0  0  0  0  0  0  0  0  0
   11.1590    4.0150   22.3980 C   0  0  0  0  0  0  0  0  0  0  0  0
  1  2  1  0
  2  3  1  0
  3  4  2  0
  3  5  1  0
  4  6  1  0
  5  7  2  0
  5  8  1  0
  6  9  2  0
  7  9  1  0
  8 10  1  0
 11 10  1  1
 11 12  1  0
 11 13  1  0
 12 14  1  0
 13 15  1  0
 14 16  1  0
 14 17  1  0
 15 18  2  0
 15 19  1  0
 16 20  1  0
 17 21  1  0
 19 22  2  0
 19 23  1  0
 20 24  1  0
 21 24  1  0
 22 25  1  0
 23 26  2  0
 23 27  1  0
 25 28  2  0
 25 29  1  0
 26 29  1  0
 26 30  1  0
 27 31  2  0
 30 32  2  0
 31 32  1  0
M  END
