DAR-DIA-2b784ede-50-acrylamide
     RDKit          3D

 35 37  0  0  0  0  0  0  0  0999 V2000
    7.1990   -3.7550   19.5590 C   0  0  0  0  0  0  0  0  0  0  0  0
    6.5520   -2.5590   19.0300 C   0  0  0  0  0  0  0  0  0  0  0  0
    5.5470   -2.8420   20.0510 C   0  0  0  0  0  0  0  0  0  0  0  0
    4.7680   -2.9060   21.0200 O   0  0  0  0  0  0  0  0  0  0  0  0
    6.2170   -1.6390   20.4750 N   0  0  0  0  0  0  0  0  0  0  0  0
    5.8200   -0.4290   19.6790 C   0  0  0  0  0  0  0  0  0  0  0  0
    7.7510   -1.5280   20.9230 C   0  0  2  0  0  0  0  0  0  0  0  0
    4.8140    0.4540   20.5840 C   0  0  0  0  0  0  0  0  0  0  0  0
    6.1430    0.1070   18.3070 N   0  0  0  0  0  0  0  0  0  0  0  0
    8.4800   -2.5240   21.7280 C   0  0  0  0  0  0  0  0  0  0  0  0
    7.9950   -0.1070   21.4810 C   0  0  0  0  0  0  0  0  0  0  0  0
    5.2920    0.6830   19.3130 C   0  0  0  0  0  0  0  0  0  0  0  0
    5.4880    1.2530   18.1800 N   0  0  0  0  0  0  0  0  0  0  0  0
    7.7360   -3.5810   22.4040 O   0  0  0  0  0  0  0  0  0  0  0  0
    9.8580   -2.6510   21.8840 N   0  0  0  0  0  0  0  0  0  0  0  0
    6.9540    0.9380   21.7740 C   0  0  0  0  0  0  0  0  0  0  0  0
    9.3040    0.3080   21.7630 C   0  0  0  0  0  0  0  0  0  0  0  0
    4.3560    1.7410   19.8940 C   0  0  0  0  0  0  0  0  0  0  0  0
   10.4560   -1.6730   22.7240 C   0  0  0  0  0  0  0  0  0  0  0  0
    7.3440    2.1830   22.2760 C   0  0  0  0  0  0  0  0  0  0  0  0
    9.6610    1.5280   22.2550 N   0  0  0  0  0  0  0  0  0  0  0  0
    5.2980    2.7990   20.5020 C   0  0  0  0  0  0  0  0  0  0  0  0
    3.5490    1.0520   21.0240 C   0  0  0  0  0  0  0  0  0  0  0  0
    3.3870    2.2410   18.8870 C   0  0  0  0  0  0  0  0  0  0  0  0
   11.7910   -1.1950   22.4290 C   0  0  0  0  0  0  0  0  0  0  0  0
    9.7900   -1.1360   23.8790 C   0  0  0  0  0  0  0  0  0  0  0  0
    8.6950    2.4330   22.4980 C   0  0  0  0  0  0  0  0  0  0  0  0
   12.6360   -1.7740   21.3360 C   0  0  0  0  0  0  0  0  0  0  0  0
   12.4810   -0.1950   23.1200 C   0  0  0  0  0  0  0  0  0  0  0  0
   10.4910   -0.0450   24.6710 C   0  0  0  0  0  0  0  0  0  0  0  0
    8.4130   -1.5980   24.3870 C   0  0  0  0  0  0  0  0  0  0  0  0
   13.3080   -2.7560   22.2820 C   0  0  0  0  0  0  0  0  0  0  0  0
   11.8460    0.4400   24.2680 C   0  0  0  0  0  0  0  0  0  0  0  0
    7.4170   -1.6630   23.2850 C   0  0  0  0  0  0  0  0  0  0  0  0
    6.6680   -2.8530   23.5260 O   0  0  0  0  0  0  0  0  0  0  0  0
  1  2  1  0
  2  3  1  0
  3  4  2  0
  3  5  1  0
  5  6  1  0
  5  7  1  0
  6  8  2  0
  6  9  1  0
  7 10  1  1
  7 11  1  0
  8 12  1  0
  9 13  1  0
 12 13  2  0
 10 14  2  0
 10 15  1  0
 11 16  2  0
 11 17  1  0
 12 18  1  0
 15 19  1  0
 16 20  1  0
 17 21  2  0
 18 22  1  0
 18 23  1  0
 18 24  1  0
 19 25  2  0
 19 26  1  0
 20 27  2  0
 21 27  1  0
 25 28  1  0
 25 29  1  0
 26 30  2  0
 26 31  1  0
 28 32  1  0
 29 33  2  0
 30 33  1  0
 31 34  1  0
 34 35  1  0
M  END
