DAR-DIA-0cde14eb-30
     RDKit          3D

 29 32  0  0  0  0  0  0  0  0999 V2000
    4.9710    0.9650   21.8530 C   0  0  0  0  0  0  0  0  0  0  0  0
    5.3270    0.9580   20.3860 C   0  0  0  0  0  0  0  0  0  0  0  0
    4.5520    1.8150   19.4600 C   0  0  0  0  0  0  0  0  0  0  0  0
    6.3380    0.2180   19.8090 C   0  0  0  0  0  0  0  0  0  0  0  0
    4.8920    1.8150   18.1280 C   0  0  0  0  0  0  0  0  0  0  0  0
    6.5610    0.3140   18.4650 C   0  0  0  0  0  0  0  0  0  0  0  0
    7.1240   -0.5790   20.4800 N   0  0  0  0  0  0  0  0  0  0  0  0
    5.8820    1.0840   17.5870 N   0  0  0  0  0  0  0  0  0  0  0  0
    8.0210    0.0340   21.2690 C   0  0  0  0  0  0  0  0  0  0  0  0
    8.6090    1.1160   21.0550 O   0  0  0  0  0  0  0  0  0  0  0  0
    8.2500   -0.6680   22.4090 C   0  0  2  0  0  0  0  0  0  0  0  0
    7.2390   -0.6490   23.5690 C   0  0  0  0  0  0  0  0  0  0  0  0
    9.5510   -0.2100   22.8610 C   0  0  0  0  0  0  0  0  0  0  0  0
   10.0350    1.2090   23.0040 C   0  0  0  0  0  0  0  0  0  0  0  0
   10.3780   -1.2020   23.1680 C   0  0  0  0  0  0  0  0  0  0  0  0
   11.3230    1.4790   23.4390 C   0  0  0  0  0  0  0  0  0  0  0  0
   11.6200   -0.9830   23.6020 C   0  0  0  0  0  0  0  0  0  0  0  0
   11.6910    2.8450   23.5250 N   0  0  0  0  0  0  0  0  0  0  0  0
   12.1330    0.3310   23.7470 C   0  0  0  0  0  0  0  0  0  0  0  0
   12.3330   -2.2490   23.8840 C   0  0  0  0  0  0  0  0  0  0  0  0
   12.6160    3.2580   22.6280 C   0  0  0  0  0  0  0  0  0  0  0  0
   10.5840    3.8010   23.7260 C   0  0  0  0  0  0  0  0  0  0  0  0
   12.8180   -2.6640   22.4960 C   0  0  0  0  0  0  0  0  0  0  0  0
   13.7420   -2.2550   23.5240 C   0  0  0  0  0  0  0  0  0  0  0  0
   13.3810   -2.2940   24.9720 C   0  0  0  0  0  0  0  0  0  0  0  0
   13.1250    4.5040   22.7070 C   0  0  0  0  0  0  0  0  0  0  0  0
   11.1470    5.0820   23.8630 C   0  0  0  0  0  0  0  0  0  0  0  0
   13.1220   -2.9040   21.3960 N   0  0  0  0  0  0  0  0  0  0  0  0
   12.0750    5.5030   22.9120 C   0  0  0  0  0  0  0  0  0  0  0  0
  1  2  1  0
  2  3  2  0
  2  4  1  0
  3  5  1  0
  4  6  2  0
  4  7  1  0
  5  8  2  0
  6  8  1  0
  7  9  1  0
  9 10  2  0
  9 11  1  0
 11 12  1  1
 11 13  1  0
 13 14  2  0
 13 15  1  0
 14 16  1  0
 15 17  2  0
 16 18  1  0
 16 19  2  0
 17 19  1  0
 17 20  1  0
 18 21  1  0
 18 22  1  0
 20 23  1  0
 20 24  1  0
 20 25  1  0
 24 25  1  0
 21 26  1  0
 22 27  1  0
 23 28  3  0
 26 29  1  0
 27 29  1  0
M  END
