DAR-DIA-2b784ede-32-nitrile
     RDKit          3D

 25 26  0  0  0  0  0  0  0  0999 V2000
    7.2530   -3.0630   20.2460 C   0  0  0  0  0  0  0  0  0  0  0  0
    6.4460   -2.5810   19.3150 N   0  0  0  0  0  0  0  0  0  0  0  0
    7.5340   -2.4560   21.6800 N   0  0  0  0  0  0  0  0  0  0  0  0
    6.6930   -3.1230   22.6630 C   0  0  0  0  0  0  0  0  0  0  0  0
    8.1720   -1.0790   22.2270 C   0  0  2  0  0  0  0  0  0  0  0  0
    6.1810   -3.9360   23.7430 C   0  0  0  0  0  0  0  0  0  0  0  0
    7.8390   -3.6600   23.0510 N   0  0  0  0  0  0  0  0  0  0  0  0
    7.5100    0.1610   21.5530 C   0  0  0  0  0  0  0  0  0  0  0  0
    9.7100   -0.9190   22.5760 C   0  0  0  0  0  0  0  0  0  0  0  0
    6.7080   -4.8470   24.6990 C   0  0  0  0  0  0  0  0  0  0  0  0
    7.8420   -4.5340   24.0760 O   0  0  0  0  0  0  0  0  0  0  0  0
    8.1510    1.0580   21.0020 O   0  0  0  0  0  0  0  0  0  0  0  0
    6.1180    0.1610   21.6490 N   0  0  0  0  0  0  0  0  0  0  0  0
   10.5850    0.3690   22.3870 C   0  0  0  0  0  0  0  0  0  0  0  0
   10.4560   -1.9620   23.1040 C   0  0  0  0  0  0  0  0  0  0  0  0
    5.3460   -4.8900   25.0520 C   0  0  0  0  0  0  0  0  0  0  0  0
    5.4120   -0.6660   22.5620 C   0  0  0  0  0  0  0  0  0  0  0  0
   11.9110    0.5040   22.6420 N   0  0  0  0  0  0  0  0  0  0  0  0
   11.8160   -1.7840   23.3390 C   0  0  0  0  0  0  0  0  0  0  0  0
    9.7480   -3.2370   23.3930 C   0  0  0  0  0  0  0  0  0  0  0  0
    4.9010   -5.9630   25.8510 C   0  0  0  0  0  0  0  0  0  0  0  0
    4.4620   -4.9340   23.7750 C   0  0  0  0  0  0  0  0  0  0  0  0
    5.0430   -3.6670   25.8340 C   0  0  0  0  0  0  0  0  0  0  0  0
   12.4990   -0.6020   23.0990 C   0  0  0  0  0  0  0  0  0  0  0  0
    4.7940   -2.7330   26.4830 N   0  0  0  0  0  0  0  0  0  0  0  0
  1  2  2  3
  1  3  1  0
  3  4  1  0
  3  5  1  0
  4  6  1  0
  4  7  2  0
  5  8  1  6
  5  9  1  0
  6 10  2  0
  7 11  1  0
 10 11  1  0
  8 12  2  0
  8 13  1  0
  9 14  2  0
  9 15  1  0
 10 16  1  0
 13 17  1  0
 14 18  1  0
 15 19  2  0
 15 20  1  0
 16 21  1  0
 16 22  1  0
 16 23  1  0
 18 24  2  0
 19 24  1  0
 23 25  3  0
M  END
