DAR-DIA-fb20be43-9-chloroacetamide
     RDKit          3D

 24 26  0  0  0  0  0  0  0  0999 V2000
    7.3230   -2.9500   18.7460 C   0  0  0  0  0  0  0  0  0  0  0  0
    6.4790   -3.0780   19.7510 C   0  0  0  0  0  0  0  0  0  0  0  0
    5.5260   -3.8670   19.6210 O   0  0  0  0  0  0  0  0  0  0  0  0
    6.6810   -2.3300   20.9160 N   0  0  0  0  0  0  0  0  0  0  0  0
    7.6370   -1.2020   20.8880 C   0  0  0  0  0  0  0  0  0  0  0  0
    6.4580   -2.9640   22.2260 C   0  0  0  0  0  0  0  0  0  0  0  0
    8.8950   -1.5130   21.7270 C   0  0  0  0  0  0  0  0  0  0  0  0
    7.6690   -3.2390   22.9230 C   0  0  0  0  0  0  0  0  0  0  0  0
    8.5630   -2.0710   23.0440 N   0  0  0  0  0  0  0  0  0  0  0  0
    9.7880   -2.3380   23.8280 C   0  0  0  0  0  0  0  0  0  0  0  0
   10.9110   -1.3970   23.4860 C   0  0  0  0  0  0  0  0  0  0  0  0
   12.0940   -1.8860   22.9160 C   0  0  0  0  0  0  0  0  0  0  0  0
   10.7600   -0.0130   23.7270 C   0  0  0  0  0  0  0  0  0  0  0  0
   13.1080   -1.0100   22.5910 C   0  0  0  0  0  0  0  0  0  0  0  0
   11.7990    0.8860   23.3720 C   0  0  0  0  0  0  0  0  0  0  0  0
    9.4870    0.5710   24.3590 C   0  0  0  0  0  0  0  0  0  0  0  0
   12.9730    0.3810   22.8170 C   0  0  0  0  0  0  0  0  0  0  0  0
   11.6910    2.2780   23.5440 C   0  0  0  0  0  0  0  0  0  0  0  0
    9.4000    2.0880   24.5330 C   0  0  0  0  0  0  0  0  0  0  0  0
   10.4320    2.9110   24.1350 C   0  0  0  0  0  0  0  0  0  0  0  0
   10.2920    4.6860   24.2810 S   0  0  0  0  0  0  0  0  0  0  0  0
    9.0110    4.8750   25.3620 N   0  0  0  0  0  0  0  0  0  0  0  0
   11.4980    5.2450   24.8370 O   0  0  0  0  0  0  0  0  0  0  0  0
    9.7510    5.1830   23.0430 O   0  0  0  0  0  0  0  0  0  0  0  0
  1  2  1  0
  2  3  2  0
  2  4  1  0
  4  5  1  0
  4  6  1  0
  5  7  1  0
  6  8  1  0
  7  9  1  0
  8  9  1  0
  9 10  1  0
 10 11  1  0
 11 12  2  0
 11 13  1  0
 12 14  1  0
 13 15  2  0
 13 16  1  0
 14 17  2  0
 15 17  1  0
 15 18  1  0
 16 19  2  0
 18 20  2  0
 19 20  1  0
 20 21  1  0
 21 22  1  0
 21 23  2  0
 21 24  2  0
M  END
