DAR-DIA-2b784ede-54-nitrile
     RDKit          3D

 39 42  0  0  0  0  0  0  0  0999 V2000
    6.6660   -3.8320   20.0410 C   0  0  0  0  0  0  0  0  0  0  0  0
    5.4630   -3.7430   19.6880 N   0  0  0  0  0  0  0  0  0  0  0  0
    7.3130   -2.6870   20.5370 N   0  0  0  0  0  0  0  0  0  0  0  0
    6.5570   -1.5020   20.2330 C   0  0  0  0  0  0  0  0  0  0  0  0
    7.7670   -2.3630   21.9240 C   0  0  1  0  0  0  0  0  0  0  0  0
    7.1100   -0.9190   18.9070 C   0  0  0  0  0  0  0  0  0  0  0  0
    5.5140   -1.0100   21.0340 C   0  0  0  0  0  0  0  0  0  0  0  0
    7.6380   -3.4000   22.9890 C   0  0  0  0  0  0  0  0  0  0  0  0
    8.9680   -1.4690   22.0560 C   0  0  0  0  0  0  0  0  0  0  0  0
    6.3380    0.3700   18.5040 C   0  0  0  0  0  0  0  0  0  0  0  0
    4.9060    0.0900   20.6260 C   0  0  0  0  0  0  0  0  0  0  0  0
    5.0430   -1.5600   22.2140 C   0  0  0  0  0  0  0  0  0  0  0  0
    6.6020   -3.6720   23.5900 O   0  0  0  0  0  0  0  0  0  0  0  0
    8.8600   -4.1170   23.3090 N   0  0  0  0  0  0  0  0  0  0  0  0
   10.2570   -1.9410   21.8950 C   0  0  0  0  0  0  0  0  0  0  0  0
    8.8070   -0.0950   22.3680 C   0  0  0  0  0  0  0  0  0  0  0  0
    5.2040    0.7660   19.5150 C   0  0  0  0  0  0  0  0  0  0  0  0
    4.8000   -0.6950   23.2930 C   0  0  0  0  0  0  0  0  0  0  0  0
    4.7600   -2.9350   22.4600 C   0  0  0  0  0  0  0  0  0  0  0  0
    9.6600   -3.9020   24.5060 C   0  0  0  0  0  0  0  0  0  0  0  0
   11.3530   -1.1820   22.0250 N   0  0  0  0  0  0  0  0  0  0  0  0
    9.9180    0.6890   22.5050 C   0  0  0  0  0  0  0  0  0  0  0  0
    7.4690    0.5560   22.5660 C   0  0  0  0  0  0  0  0  0  0  0  0
    4.5810    1.9670   19.0100 C   0  0  0  0  0  0  0  0  0  0  0  0
    4.3130   -1.1220   24.5270 C   0  0  0  0  0  0  0  0  0  0  0  0
    4.2660   -3.4310   23.6820 C   0  0  0  0  0  0  0  0  0  0  0  0
    9.6910   -2.4340   24.9870 C   0  0  0  0  0  0  0  0  0  0  0  0
   11.1550    0.1120   22.3330 C   0  0  0  0  0  0  0  0  0  0  0  0
    5.2760    2.9130   19.9910 C   0  0  0  0  0  0  0  0  0  0  0  0
    5.0520    1.7920   17.5640 C   0  0  0  0  0  0  0  0  0  0  0  0
    3.0820    1.9920   19.3180 C   0  0  0  0  0  0  0  0  0  0  0  0
    4.0180   -2.6050   24.7530 C   0  0  0  0  0  0  0  0  0  0  0  0
   10.8120   -1.5510   24.4150 C   0  0  0  0  0  0  0  0  0  0  0  0
   12.0000   -2.2690   23.7760 C   0  0  0  0  0  0  0  0  0  0  0  0
   10.7650   -0.1540   24.4610 C   0  0  0  0  0  0  0  0  0  0  0  0
   13.0550   -1.3460   23.2250 C   0  0  0  0  0  0  0  0  0  0  0  0
   11.7980    0.6080   23.9160 C   0  0  0  0  0  0  0  0  0  0  0  0
   12.9160    0.0430   23.3160 C   0  0  0  0  0  0  0  0  0  0  0  0
   11.7120    1.9340   23.9600 F   0  0  0  0  0  0  0  0  0  0  0  0
  1  2  2  3
  1  3  1  0
  3  4  1  0
  3  5  1  0
  4  6  2  0
  4  7  1  0
  5  8  1  6
  5  9  1  0
  6 10  1  0
  7 11  2  0
  7 12  1  0
  8 13  2  0
  8 14  1  0
  9 15  2  0
  9 16  1  0
 10 17  2  0
 11 17  1  0
 12 18  2  0
 12 19  1  0
 14 20  1  0
 15 21  1  0
 16 22  2  0
 16 23  1  0
 17 24  1  0
 18 25  1  0
 19 26  2  0
 20 27  1  0
 21 28  2  0
 22 28  1  0
 24 29  1  0
 24 30  1  0
 24 31  1  0
 25 32  2  0
 26 32  1  0
 27 33  1  0
 33 34  2  0
 33 35  1  0
 34 36  1  0
 35 37  2  0
 36 38  2  0
 37 38  1  0
 37 39  1  0
M  END
