DAR-DIA-fb20be43-10-acrylamide
     RDKit          3D

 27 29  0  0  0  0  0  0  0  0999 V2000
    7.9260   -3.3690   19.2540 C   0  0  0  0  0  0  0  0  0  0  0  0
    6.9190   -2.5790   18.9370 C   0  0  0  0  0  0  0  0  0  0  0  0
    5.9210   -2.6520   20.0410 C   0  0  0  0  0  0  0  0  0  0  0  0
    4.8320   -3.2270   19.9050 O   0  0  0  0  0  0  0  0  0  0  0  0
    6.3490   -2.0800   21.2110 N   0  0  0  0  0  0  0  0  0  0  0  0
    6.2580   -2.9260   22.4160 C   0  0  0  0  0  0  0  0  0  0  0  0
    7.3800   -1.0300   21.2320 C   0  0  0  0  0  0  0  0  0  0  0  0
    7.6240   -3.3070   23.0260 C   0  0  0  0  0  0  0  0  0  0  0  0
    8.7050   -1.4790   21.8740 C   0  0  0  0  0  0  0  0  0  0  0  0
    8.5410   -2.1700   23.1560 N   0  0  0  0  0  0  0  0  0  0  0  0
    9.8150   -2.4420   23.8270 C   0  0  0  0  0  0  0  0  0  0  0  0
   10.7540   -1.5080   23.4550 C   0  0  0  0  0  0  0  0  0  0  0  0
   11.8530   -1.8430   22.7180 C   0  0  0  0  0  0  0  0  0  0  0  0
   10.5500   -0.1880   23.8310 C   0  0  0  0  0  0  0  0  0  0  0  0
   12.7710   -0.8510   22.3430 C   0  0  0  0  0  0  0  0  0  0  0  0
   11.4300    0.8290   23.4490 C   0  0  0  0  0  0  0  0  0  0  0  0
    9.4290    0.3580   24.6490 C   0  0  0  0  0  0  0  0  0  0  0  0
   13.7950   -1.2270   21.6290 F   0  0  0  0  0  0  0  0  0  0  0  0
   12.5690    0.5150   22.7160 C   0  0  0  0  0  0  0  0  0  0  0  0
    9.7370    1.8140   24.6150 C   0  0  0  0  0  0  0  0  0  0  0  0
   10.8750    2.1170   23.9340 C   0  0  0  0  0  0  0  0  0  0  0  0
   11.4650    3.4530   23.6270 C   0  0  0  0  0  0  0  0  0  0  0  0
   10.5540    4.2980   22.7530 C   0  0  0  0  0  0  0  0  0  0  0  0
    9.8250    5.2870   23.5340 N   0  0  0  0  0  0  0  0  0  0  0  0
   10.4440    6.4170   24.0460 C   0  0  0  0  0  0  0  0  0  0  0  0
   11.8630    6.2230   24.5280 C   0  0  0  0  0  0  0  0  0  0  0  0
    9.8980    7.5140   24.1140 O   0  0  0  0  0  0  0  0  0  0  0  0
  1  2  1  0
  2  3  1  0
  3  4  2  0
  3  5  1  0
  5  6  1  0
  5  7  1  0
  6  8  1  0
  7  9  1  0
  8 10  1  0
  9 10  1  0
 10 11  1  0
 11 12  1  0
 12 13  2  0
 12 14  1  0
 13 15  1  0
 14 16  2  0
 14 17  1  0
 15 18  1  0
 15 19  2  0
 16 19  1  0
 17 20  1  0
 16 21  1  0
 20 21  2  0
 21 22  1  0
 22 23  1  0
 23 24  1  0
 24 25  1  0
 25 26  1  0
 25 27  2  0
M  END
