DAR-DIA-8e329c92-10
     RDKit          3D

 24 26  0  0  0  0  0  0  0  0999 V2000
   16.5780   -5.3690   23.1630 C   0  0  0  0  0  0  0  0  0  0  0  0
   17.7370   -5.4630   23.9040 O   0  0  0  0  0  0  0  0  0  0  0  0
   17.3830   -4.4760   24.6320 C   0  0  0  0  0  0  0  0  0  0  0  0
   18.4660   -3.5350   24.9690 C   0  0  0  0  0  0  0  0  0  0  0  0
   16.0080   -4.3690   25.0000 C   0  0  0  0  0  0  0  0  0  0  0  0
   18.1140   -2.4620   25.7270 C   0  0  0  0  0  0  0  0  0  0  0  0
   15.4840   -3.3130   25.7420 C   0  0  0  0  0  0  0  0  0  0  0  0
   16.5430   -2.3540   26.1530 C   0  0  0  0  0  0  0  0  0  0  0  0
   14.1430   -3.1110   26.1180 N   0  0  0  0  0  0  0  0  0  0  0  0
   13.0720   -2.7810   25.1780 C   0  0  0  0  0  0  0  0  0  0  0  0
   13.6340   -2.0770   24.1060 N   0  0  0  0  0  0  0  0  0  0  0  0
   12.9910   -0.9440   23.6620 C   0  0  0  0  0  0  0  0  0  0  0  0
   13.5450    0.0440   23.2070 O   0  0  0  0  0  0  0  0  0  0  0  0
   11.4570   -0.9420   23.7560 C   0  0  0  0  0  0  0  0  0  0  0  0
   10.7410   -2.2860   23.7640 C   0  0  0  0  0  0  0  0  0  0  0  0
   10.6950    0.3090   23.8260 C   0  0  0  0  0  0  0  0  0  0  0  0
    9.2080   -2.2110   23.8620 C   0  0  0  0  0  0  0  0  0  0  0  0
    9.3450    0.2520   24.1710 C   0  0  0  0  0  0  0  0  0  0  0  0
   11.2520    1.5660   23.5630 C   0  0  0  0  0  0  0  0  0  0  0  0
    8.4730   -3.1250   23.4950 O   0  0  0  0  0  0  0  0  0  0  0  0
    8.7150   -0.9660   24.4410 N   0  0  0  0  0  0  0  0  0  0  0  0
    8.5110    1.4790   24.2650 C   0  0  0  0  0  0  0  0  0  0  0  0
   10.4680    2.7240   23.6480 C   0  0  0  0  0  0  0  0  0  0  0  0
    9.1110    2.6550   23.9990 C   0  0  0  0  0  0  0  0  0  0  0  0
  1  2  1  0
  2  3  1  0
  3  4  2  0
  3  5  1  0
  4  6  1  0
  5  7  2  0
  6  8  2  0
  7  8  1  0
  7  9  1  0
  9 10  1  0
 10 11  1  0
 11 12  1  0
 12 13  2  0
 12 14  1  0
 14 15  2  0
 14 16  1  0
 15 17  1  0
 16 18  2  0
 16 19  1  0
 17 20  2  0
 17 21  1  0
 18 21  1  0
 18 22  1  0
 19 23  2  0
 22 24  2  0
 23 24  1  0
M  END
