DAR-DIA-2b784ede-30-nitrile
     RDKit          3D

 24 25  0  0  0  0  0  0  0  0999 V2000
    6.7940   -3.1990   20.1900 C   0  0  0  0  0  0  0  0  0  0  0  0
    5.6680   -3.6460   19.6810 N   0  0  0  0  0  0  0  0  0  0  0  0
    6.8690   -1.8840   21.0240 N   0  0  0  0  0  0  0  0  0  0  0  0
    6.5720   -0.7410   20.2610 C   0  0  0  0  0  0  0  0  0  0  0  0
    7.6020   -1.5890   22.3990 C   0  0  1  0  0  0  0  0  0  0  0  0
    5.9590    0.4660   20.5780 C   0  0  0  0  0  0  0  0  0  0  0  0
    6.9610   -0.8640   19.0260 C   0  0  0  0  0  0  0  0  0  0  0  0
    6.9490   -2.5130   23.4700 C   0  0  0  0  0  0  0  0  0  0  0  0
    9.1880   -1.2470   22.7030 C   0  0  0  0  0  0  0  0  0  0  0  0
    5.9380    1.2050   19.5110 N   0  0  0  0  0  0  0  0  0  0  0  0
    6.5360    0.3220   18.7080 N   0  0  0  0  0  0  0  0  0  0  0  0
    6.9770   -3.7440   23.3930 O   0  0  0  0  0  0  0  0  0  0  0  0
    6.3150   -1.8310   24.5110 N   0  0  0  0  0  0  0  0  0  0  0  0
    9.9880    0.0990   22.4640 C   0  0  0  0  0  0  0  0  0  0  0  0
   10.0350   -2.2070   23.2680 C   0  0  0  0  0  0  0  0  0  0  0  0
    6.8640    0.2900   17.3940 C   0  0  0  0  0  0  0  0  0  0  0  0
    5.2230   -0.9640   24.2630 C   0  0  0  0  0  0  0  0  0  0  0  0
   11.3210    0.3040   22.7470 N   0  0  0  0  0  0  0  0  0  0  0  0
   11.3980   -1.9510   23.5230 C   0  0  0  0  0  0  0  0  0  0  0  0
    9.4060   -3.5040   23.5880 C   0  0  0  0  0  0  0  0  0  0  0  0
    6.9490    1.2900   16.5280 C   0  0  0  0  0  0  0  0  0  0  0  0
    7.9170   -0.7310   17.1110 C   0  0  0  0  0  0  0  0  0  0  0  0
    5.8090   -0.6500   17.1700 C   0  0  0  0  0  0  0  0  0  0  0  0
   11.9980   -0.7280   23.2570 C   0  0  0  0  0  0  0  0  0  0  0  0
  1  2  2  3
  1  3  1  0
  3  4  1  0
  3  5  1  0
  4  6  1  0
  4  7  2  0
  5  8  1  1
  5  9  1  0
  6 10  2  0
  7 11  1  0
 10 11  1  0
  8 12  2  0
  8 13  1  0
  9 14  2  0
  9 15  1  0
 11 16  1  0
 13 17  1  0
 14 18  1  0
 15 19  2  0
 15 20  1  0
 16 21  1  0
 16 22  1  0
 16 23  1  0
 18 24  2  0
 19 24  1  0
M  END
