DAR-DIA-2b784ede-41-vinylsulfonamide
     RDKit          3D

 39 41  0  0  0  0  0  0  0  0999 V2000
    8.4190   -4.3900   20.5070 C   0  0  0  0  0  0  0  0  0  0  0  0
    7.4560   -3.3090   20.6890 C   0  0  0  0  0  0  0  0  0  0  0  0
    6.6330   -3.6110   22.1650 S   0  0  0  0  0  0  0  0  0  0  0  0
    5.0440   -3.6120   21.6570 O   0  0  0  0  0  0  0  0  0  0  0  0
    7.1150   -4.8840   22.6550 O   0  0  0  0  0  0  0  0  0  0  0  0
    7.8470   -2.3360   22.8300 N   0  0  0  0  0  0  0  0  0  0  0  0
    9.3940   -2.3880   23.4410 C   0  0  0  0  0  0  0  0  0  0  0  0
    7.3480   -0.9830   22.9110 C   0  0  2  0  0  0  0  0  0  0  0  0
   10.0690   -1.3410   22.5770 C   0  0  0  0  0  0  0  0  0  0  0  0
   10.8020   -1.8060   23.3290 C   0  0  0  0  0  0  0  0  0  0  0  0
    8.0140   -0.2060   21.9980 C   0  0  0  0  0  0  0  0  0  0  0  0
    7.0480   -0.5500   24.3090 C   0  0  0  0  0  0  0  0  0  0  0  0
   11.3640   -1.6990   23.4870 C   0  0  0  0  0  0  0  0  0  0  0  0
    9.7190   -1.4640   22.5340 C   0  0  0  0  0  0  0  0  0  0  0  0
    8.7500    0.7680   22.2610 O   0  0  0  0  0  0  0  0  0  0  0  0
    7.7920   -0.5730   20.8220 N   0  0  0  0  0  0  0  0  0  0  0  0
    5.9360   -1.4100   24.1480 C   0  0  0  0  0  0  0  0  0  0  0  0
    6.3120   -0.5210   25.4960 C   0  0  0  0  0  0  0  0  0  0  0  0
    9.9520   -2.2980   23.5620 C   0  0  0  0  0  0  0  0  0  0  0  0
    6.8700    0.1210   20.0100 C   0  0  0  0  0  0  0  0  0  0  0  0
    4.9470   -1.6790   25.0820 N   0  0  0  0  0  0  0  0  0  0  0  0
    5.8940   -0.2270   26.7620 C   0  0  0  0  0  0  0  0  0  0  0  0
    7.2680    0.3680   25.9100 C   0  0  0  0  0  0  0  0  0  0  0  0
    9.4860   -3.3730   24.5760 C   0  0  0  0  0  0  0  0  0  0  0  0
    7.2010    0.3120   18.6120 C   0  0  0  0  0  0  0  0  0  0  0  0
    5.6540    0.6630   20.4690 C   0  0  0  0  0  0  0  0  0  0  0  0
    4.9350   -1.1150   26.3180 C   0  0  0  0  0  0  0  0  0  0  0  0
    8.4010   -2.6280   25.3770 C   0  0  0  0  0  0  0  0  0  0  0  0
   10.5640   -3.8340   25.5820 C   0  0  0  0  0  0  0  0  0  0  0  0
    8.9790   -4.6340   23.8890 C   0  0  0  0  0  0  0  0  0  0  0  0
    6.3210    1.0780   17.7640 C   0  0  0  0  0  0  0  0  0  0  0  0
    4.7890    1.3810   19.5950 C   0  0  0  0  0  0  0  0  0  0  0  0
    5.1580    0.5550   21.8810 C   0  0  0  0  0  0  0  0  0  0  0  0
    7.0180    1.1310   16.4690 C   0  0  0  0  0  0  0  0  0  0  0  0
    5.1280    1.5950   18.2440 C   0  0  0  0  0  0  0  0  0  0  0  0
    7.6420   -0.4240   16.1430 S   0  0  0  0  0  0  0  0  0  0  0  0
    7.4020   -2.0390   16.5750 C   0  0  0  0  0  0  0  0  0  0  0  0
    6.3290   -0.0660   17.1950 C   0  0  0  0  0  0  0  0  0  0  0  0
    8.7910    0.2100   15.0870 N   0  0  0  0  0  0  0  0  0  0  0  0
  1  2  1  0
  2  3  1  0
  3  4  2  0
  3  5  2  0
  3  6  1  0
  6  7  1  0
  6  8  1  0
  7  9  2  0
  7 10  1  0
  8 11  1  1
  8 12  1  0
  9 13  1  0
 10 14  2  0
 11 15  2  0
 11 16  1  0
 12 17  2  0
 12 18  1  0
 13 19  2  0
 14 19  1  0
 16 20  1  0
 17 21  1  0
 18 22  2  0
 18 23  1  0
 19 24  1  0
 20 25  2  0
 20 26  1  0
 21 27  2  0
 22 27  1  0
 24 28  1  0
 24 29  1  0
 24 30  1  0
 25 31  1  0
 26 32  2  0
 26 33  1  0
 31 34  1  0
 31 35  2  0
 32 35  1  0
 34 36  1  0
 36 37  2  0
 36 38  2  0
 36 39  1  0
M  END
