DAR-DIA-fb20be43-7-chloroacetamide
     RDKit          3D

 22 24  0  0  0  0  0  0  0  0999 V2000
    7.3110   -2.9220   18.7380 C   0  0  0  0  0  0  0  0  0  0  0  0
    6.4420   -3.0680   19.7240 C   0  0  0  0  0  0  0  0  0  0  0  0
    5.4830   -3.8460   19.5720 O   0  0  0  0  0  0  0  0  0  0  0  0
    6.6210   -2.3590   20.9050 N   0  0  0  0  0  0  0  0  0  0  0  0
    6.3060   -3.0280   22.1830 C   0  0  0  0  0  0  0  0  0  0  0  0
    7.5990   -1.2560   20.9400 C   0  0  0  0  0  0  0  0  0  0  0  0
    7.5770   -3.3040   23.0120 C   0  0  0  0  0  0  0  0  0  0  0  0
    8.8220   -1.5990   21.8040 C   0  0  0  0  0  0  0  0  0  0  0  0
    8.4320   -2.1200   23.1270 N   0  0  0  0  0  0  0  0  0  0  0  0
    9.5920   -2.3390   24.0050 C   0  0  0  0  0  0  0  0  0  0  0  0
   10.6900   -1.3940   23.6600 C   0  0  0  0  0  0  0  0  0  0  0  0
   11.8340   -1.8590   23.0620 C   0  0  0  0  0  0  0  0  0  0  0  0
   10.5540   -0.0260   23.9240 C   0  0  0  0  0  0  0  0  0  0  0  0
   12.8360   -1.0020   22.7160 C   0  0  0  0  0  0  0  0  0  0  0  0
   11.6070    0.8480   23.5370 C   0  0  0  0  0  0  0  0  0  0  0  0
    9.2960    0.5220   24.6040 C   0  0  0  0  0  0  0  0  0  0  0  0
   13.8090   -1.6490   22.1560 O   0  0  0  0  0  0  0  0  0  0  0  0
   12.7450    0.3380   22.9410 C   0  0  0  0  0  0  0  0  0  0  0  0
   11.5310    2.3310   23.7410 C   0  0  0  0  0  0  0  0  0  0  0  0
    9.1550    2.0190   24.8540 C   0  0  0  0  0  0  0  0  0  0  0  0
   13.3940   -2.0040   20.8770 C   0  0  0  0  0  0  0  0  0  0  0  0
   10.3070    2.9120   24.3930 C   0  0  0  0  0  0  0  0  0  0  0  0
  1  2  1  0
  2  3  2  0
  2  4  1  0
  4  5  1  0
  4  6  1  0
  5  7  1  0
  6  8  1  0
  7  9  1  0
  8  9  1  0
  9 10  1  0
 10 11  1  0
 11 12  2  0
 11 13  1  0
 12 14  1  0
 13 15  2  0
 13 16  1  0
 14 17  1  0
 14 18  2  0
 15 18  1  0
 15 19  1  0
 16 20  2  0
 17 21  1  0
 19 22  2  0
 20 22  1  0
M  END
