DAR-DIA-2b784ede-43-vinylsulfonamide
     RDKit          3D

 35 37  0  0  0  0  0  0  0  0999 V2000
    7.4130   -3.2360   19.2290 C   0  0  0  0  0  0  0  0  0  0  0  0
    7.0360   -3.6040   20.6350 C   0  0  0  0  0  0  0  0  0  0  0  0
    5.8250   -2.4670   21.0530 S   0  0  0  0  0  0  0  0  0  0  0  0
    4.7350   -2.9400   20.2350 O   0  0  0  0  0  0  0  0  0  0  0  0
    5.7480   -2.4170   22.4960 O   0  0  0  0  0  0  0  0  0  0  0  0
    6.6570   -1.1100   20.4620 N   0  0  0  0  0  0  0  0  0  0  0  0
    6.0140   -0.2670   19.4710 C   0  0  0  0  0  0  0  0  0  0  0  0
    7.2400   -0.2240   21.5190 C   0  0  2  0  0  0  0  0  0  0  0  0
    5.0000    0.5000   20.2330 C   0  0  0  0  0  0  0  0  0  0  0  0
    5.9180    0.1850   18.0430 N   0  0  0  0  0  0  0  0  0  0  0  0
    8.5960   -0.4320   21.8620 C   0  0  0  0  0  0  0  0  0  0  0  0
    6.2900    0.3140   22.6350 C   0  0  0  0  0  0  0  0  0  0  0  0
    4.4030    1.3220   19.2460 C   0  0  0  0  0  0  0  0  0  0  0  0
    4.9450    1.1450   17.8730 N   0  0  0  0  0  0  0  0  0  0  0  0
    9.0900    0.8520   22.2910 O   0  0  0  0  0  0  0  0  0  0  0  0
    9.4000   -1.5800   21.8660 N   0  0  0  0  0  0  0  0  0  0  0  0
    6.0220   -0.4650   23.9510 C   0  0  0  0  0  0  0  0  0  0  0  0
    5.6180    1.5440   22.5260 C   0  0  0  0  0  0  0  0  0  0  0  0
    3.3800    2.1200   20.0290 C   0  0  0  0  0  0  0  0  0  0  0  0
   10.5360   -1.3310   22.6900 C   0  0  0  0  0  0  0  0  0  0  0  0
    5.0770    0.1520   24.9870 C   0  0  0  0  0  0  0  0  0  0  0  0
    4.7630    2.1160   23.4410 N   0  0  0  0  0  0  0  0  0  0  0  0
    4.3180    3.1410   20.6960 C   0  0  0  0  0  0  0  0  0  0  0  0
    2.2230    2.8520   19.3190 C   0  0  0  0  0  0  0  0  0  0  0  0
    2.9540    1.1840   21.1930 C   0  0  0  0  0  0  0  0  0  0  0  0
   10.0700   -0.8460   23.9090 C   0  0  0  0  0  0  0  0  0  0  0  0
   11.9450   -1.4880   22.4260 C   0  0  0  0  0  0  0  0  0  0  0  0
    4.4790    1.5010   24.6080 C   0  0  0  0  0  0  0  0  0  0  0  0
    8.7100   -0.7920   24.1350 C   0  0  0  0  0  0  0  0  0  0  0  0
   10.9400   -0.4400   24.8790 C   0  0  0  0  0  0  0  0  0  0  0  0
   12.8200   -1.0740   23.4200 C   0  0  0  0  0  0  0  0  0  0  0  0
   12.5790   -2.0620   21.1900 C   0  0  0  0  0  0  0  0  0  0  0  0
    3.6280    2.1550   25.4290 N   0  0  0  0  0  0  0  0  0  0  0  0
   12.4320   -0.5470   24.6330 C   0  0  0  0  0  0  0  0  0  0  0  0
   13.4120   -3.1640   21.5030 O   0  0  0  0  0  0  0  0  0  0  0  0
  1  2  1  0
  2  3  1  0
  3  4  2  0
  3  5  2  0
  3  6  1  0
  6  7  1  0
  6  8  1  0
  7  9  2  0
  7 10  1  0
  8 11  1  1
  8 12  1  0
  9 13  1  0
 10 14  1  0
 13 14  2  0
 11 15  2  0
 11 16  1  0
 12 17  2  0
 12 18  1  0
 13 19  1  0
 16 20  1  0
 17 21  1  0
 18 22  2  0
 19 23  1  0
 19 24  1  0
 19 25  1  0
 20 26  2  0
 20 27  1  0
 21 28  2  0
 22 28  1  0
 26 29  1  0
 26 30  1  0
 27 31  2  0
 27 32  1  0
 28 33  1  0
 30 34  2  0
 31 34  1  0
 32 35  1  0
M  END
