DAR-DIA-2b784ede-29-chloroacetamide
     RDKit          3D

 34 36  0  0  0  0  0  0  0  0999 V2000
    7.0290   -3.0100   18.9250 C   0  0  0  0  0  0  0  0  0  0  0  0
    6.1440   -3.4950   20.0330 C   0  0  0  0  0  0  0  0  0  0  0  0
    5.2930   -4.3550   19.8210 O   0  0  0  0  0  0  0  0  0  0  0  0
    6.3330   -2.9510   21.3220 N   0  0  0  0  0  0  0  0  0  0  0  0
    6.0970   -3.7010   22.5240 C   0  0  0  0  0  0  0  0  0  0  0  0
    6.7600   -1.5280   21.4270 C   0  0  1  0  0  0  0  0  0  0  0  0
    7.0180   -3.8180   23.5490 C   0  0  0  0  0  0  0  0  0  0  0  0
    5.0170   -4.4420   22.9750 C   0  0  0  0  0  0  0  0  0  0  0  0
    8.2370   -1.3350   21.8810 C   0  0  0  0  0  0  0  0  0  0  0  0
    6.1900   -0.5870   20.3480 C   0  0  0  0  0  0  0  0  0  0  0  0
    6.5920   -4.5540   24.5790 N   0  0  0  0  0  0  0  0  0  0  0  0
    5.3520   -4.9390   24.2260 N   0  0  0  0  0  0  0  0  0  0  0  0
    8.8570   -0.3270   21.5370 O   0  0  0  0  0  0  0  0  0  0  0  0
    8.7470   -2.3500   22.6890 N   0  0  0  0  0  0  0  0  0  0  0  0
    6.8460   -0.3410   19.0190 C   0  0  0  0  0  0  0  0  0  0  0  0
    4.9830    0.1230   20.5250 C   0  0  0  0  0  0  0  0  0  0  0  0
    4.5670   -5.7870   25.1660 C   0  0  0  0  0  0  0  0  0  0  0  0
    9.6760   -2.2320   23.7610 C   0  0  0  0  0  0  0  0  0  0  0  0
    6.3810    0.4650   18.0460 N   0  0  0  0  0  0  0  0  0  0  0  0
    4.5140    0.9550   19.5070 C   0  0  0  0  0  0  0  0  0  0  0  0
    4.1390    0.0480   21.7630 C   0  0  0  0  0  0  0  0  0  0  0  0
    5.3450   -6.1080   26.2960 C   0  0  0  0  0  0  0  0  0  0  0  0
    4.1460   -7.0810   24.4430 C   0  0  0  0  0  0  0  0  0  0  0  0
    3.3610   -5.1250   25.6930 C   0  0  0  0  0  0  0  0  0  0  0  0
   10.7260   -1.1130   23.6190 C   0  0  0  0  0  0  0  0  0  0  0  0
    5.2230    1.0950   18.3160 C   0  0  0  0  0  0  0  0  0  0  0  0
   10.5090    0.2930   24.1810 C   0  0  0  0  0  0  0  0  0  0  0  0
   11.9320   -1.3690   22.9300 C   0  0  0  0  0  0  0  0  0  0  0  0
    9.2460    0.7440   24.9670 C   0  0  0  0  0  0  0  0  0  0  0  0
   11.5050    1.2480   23.9680 C   0  0  0  0  0  0  0  0  0  0  0  0
   12.8770   -0.4010   22.7490 C   0  0  0  0  0  0  0  0  0  0  0  0
   12.2100   -2.5710   22.4120 C   0  0  0  0  0  0  0  0  0  0  0  0
   12.7580    0.8850   23.2080 C   0  0  0  0  0  0  0  0  0  0  0  0
   12.8790   -2.4130   21.0750 C   0  0  0  0  0  0  0  0  0  0  0  0
  1  2  1  0
  2  3  2  0
  2  4  1  0
  4  5  1  0
  4  6  1  0
  5  7  1  0
  5  8  2  0
  6  9  1  6
  6 10  1  0
  7 11  2  0
  8 12  1  0
 11 12  1  0
  9 13  2  0
  9 14  1  0
 10 15  2  0
 10 16  1  0
 12 17  1  0
 14 18  1  0
 15 19  1  0
 16 20  2  0
 16 21  1  0
 17 22  1  0
 17 23  1  0
 17 24  1  0
 18 25  1  0
 19 26  2  0
 20 26  1  0
 25 27  2  0
 25 28  1  0
 27 29  1  0
 27 30  1  0
 28 31  2  0
 28 32  1  0
 30 33  2  0
 31 33  1  0
 32 34  1  0
M  END
