DAR-DIA-3e9bbd81-2-bromoalkyne
     RDKit          3D

 22 25  0  0  0  0  0  0  0  0999 V2000
    6.9860   -3.4140   19.6620 C   0  0  0  0  0  0  0  0  0  0  0  0
    6.2120   -2.8530   18.7290 C   0  0  0  0  0  0  0  0  0  0  0  0
    6.9180   -2.8390   20.9130 N   0  0  0  0  0  0  0  0  0  0  0  0
    6.7090   -3.5190   22.1990 C   0  0  0  0  0  0  0  0  0  0  0  0
    7.8620   -1.7630   21.2760 C   0  0  2  0  0  0  0  0  0  0  0  0
    8.1200   -3.3030   22.8220 C   0  0  1  0  0  0  0  0  0  0  0  0
    8.9730   -2.6850   21.6950 C   0  0  0  0  0  0  0  0  0  0  0  0
    7.5960   -1.0820   22.6470 C   0  0  0  0  0  0  0  0  0  0  0  0
    7.9460   -2.1260   23.6650 N   0  0  0  0  0  0  0  0  0  0  0  0
    9.1370   -1.9160   24.4630 C   0  0  0  0  0  0  0  0  0  0  0  0
   10.2600   -1.1780   23.8030 C   0  0  0  0  0  0  0  0  0  0  0  0
   11.1580   -1.9010   23.0400 C   0  0  0  0  0  0  0  0  0  0  0  0
   10.4100    0.2110   23.9270 C   0  0  0  0  0  0  0  0  0  0  0  0
   12.1980   -1.2780   22.4130 C   0  0  0  0  0  0  0  0  0  0  0  0
   11.4970    0.8500   23.2920 C   0  0  0  0  0  0  0  0  0  0  0  0
    9.5040    0.9860   24.6570 C   0  0  0  0  0  0  0  0  0  0  0  0
   13.0010   -2.1040   21.6250 C   0  0  0  0  0  0  0  0  0  0  0  0
   12.3960    0.0930   22.5480 C   0  0  0  0  0  0  0  0  0  0  0  0
   11.6460    2.2320   23.4040 C   0  0  0  0  0  0  0  0  0  0  0  0
    9.6530    2.3580   24.7510 C   0  0  0  0  0  0  0  0  0  0  0  0
   13.5030   -2.8130   20.8920 N   0  0  0  0  0  0  0  0  0  0  0  0
   10.7270    2.9820   24.1230 C   0  0  0  0  0  0  0  0  0  0  0  0
  1  2  2  3
  1  3  1  0
  3  4  1  0
  3  5  1  0
  6  4  1  6
  5  7  1  0
  6  7  1  0
  5  8  1  1
  6  9  1  0
  8  9  1  0
  9 10  1  0
 10 11  1  0
 11 12  2  0
 11 13  1  0
 12 14  1  0
 13 15  2  0
 13 16  1  0
 14 17  1  0
 14 18  2  0
 15 18  1  0
 15 19  1  0
 16 20  2  0
 17 21  3  0
 19 22  2  0
 20 22  1  0
M  END
