DAR-DIA-2b784ede-26-vinylsulfonamide
     RDKit          3D

 36 39  0  0  0  0  0  0  0  0999 V2000
    7.9190   -3.6620   20.7670 C   0  0  0  0  0  0  0  0  0  0  0  0
    6.9220   -2.4790   21.0300 C   0  0  0  0  0  0  0  0  0  0  0  0
    5.8280   -2.7610   22.4560 S   0  0  0  0  0  0  0  0  0  0  0  0
    4.5410   -3.0710   21.7980 O   0  0  0  0  0  0  0  0  0  0  0  0
    6.4370   -3.9170   23.0790 O   0  0  0  0  0  0  0  0  0  0  0  0
    5.8920   -1.5580   23.7570 N   0  0  0  0  0  0  0  0  0  0  0  0
    5.5520   -2.1220   25.0550 C   0  0  2  0  0  0  0  0  0  0  0  0
    5.8510   -0.0230   23.7400 C   0  0  1  0  0  0  0  0  0  0  0  0
    5.7090   -1.3590   26.2120 C   0  0  0  0  0  0  0  0  0  0  0  0
    5.9760   -3.3640   25.4100 N   0  0  0  0  0  0  0  0  0  0  0  0
    7.2280    0.7540   23.6610 C   0  0  0  0  0  0  0  0  0  0  0  0
    4.5440    0.6110   23.2600 C   0  0  0  0  0  0  0  0  0  0  0  0
    5.4740   -2.1120   27.3490 C   0  0  0  0  0  0  0  0  0  0  0  0
    5.5730   -3.5480   26.8310 C   0  0  0  0  0  0  0  0  0  0  0  0
    7.3830    1.7740   22.9760 O   0  0  0  0  0  0  0  0  0  0  0  0
    8.2290    0.2200   24.4490 N   0  0  0  0  0  0  0  0  0  0  0  0
    4.4660    1.4290   22.1510 C   0  0  0  0  0  0  0  0  0  0  0  0
    3.3140    0.3880   23.9500 C   0  0  0  0  0  0  0  0  0  0  0  0
    4.3400   -1.7830   28.1260 C   0  0  0  0  0  0  0  0  0  0  0  0
    6.6120   -1.8640   28.3930 C   0  0  0  0  0  0  0  0  0  0  0  0
    9.4830    0.8180   24.6860 C   0  0  0  0  0  0  0  0  0  0  0  0
    3.3340    2.0040   21.7120 N   0  0  0  0  0  0  0  0  0  0  0  0
    2.1530    0.9760   23.4990 C   0  0  0  0  0  0  0  0  0  0  0  0
    3.1740   -0.4650   25.1770 C   0  0  0  0  0  0  0  0  0  0  0  0
    4.5940   -1.0610   29.4360 C   0  0  0  0  0  0  0  0  0  0  0  0
    6.1110   -0.9410   29.5210 C   0  0  0  0  0  0  0  0  0  0  0  0
   10.6770    0.2150   23.8980 C   0  0  0  0  0  0  0  0  0  0  0  0
    2.2040    1.7710   22.3850 C   0  0  0  0  0  0  0  0  0  0  0  0
   11.7990    1.0910   23.3020 C   0  0  0  0  0  0  0  0  0  0  0  0
   10.7740   -1.1950   23.6900 C   0  0  0  0  0  0  0  0  0  0  0  0
   11.8810    2.4980   23.3440 C   0  0  0  0  0  0  0  0  0  0  0  0
   12.8390    0.4520   22.6430 C   0  0  0  0  0  0  0  0  0  0  0  0
   11.8270   -1.7750   23.0000 C   0  0  0  0  0  0  0  0  0  0  0  0
    9.7550   -2.1640   24.1900 C   0  0  0  0  0  0  0  0  0  0  0  0
   12.8540   -1.0350   22.4740 C   0  0  0  0  0  0  0  0  0  0  0  0
    8.8730   -2.7560   23.1370 C   0  0  0  0  0  0  0  0  0  0  0  0
  1  2  1  0
  2  3  1  0
  3  4  2  0
  3  5  2  0
  3  6  1  0
  7  6  1  6
  6  8  1  0
  7  9  1  0
  7 10  1  0
  8 11  1  6
  8 12  1  0
 13  9  1  0
 10 14  1  0
 13 14  1  0
 11 15  2  0
 11 16  1  0
 12 17  2  0
 12 18  1  0
 13 19  1  0
 13 20  1  0
 16 21  1  0
 17 22  1  0
 18 23  2  0
 18 24  1  0
 19 25  1  0
 20 26  1  0
 25 26  1  0
 21 27  1  0
 22 28  2  0
 23 28  1  0
 27 29  2  0
 27 30  1  0
 29 31  1  0
 29 32  1  0
 30 33  2  0
 30 34  1  0
 32 35  2  0
 33 35  1  0
 34 36  1  0
M  END
