DAR-DIA-2b784ede-34-nitrile
     RDKit          3D

 32 34  0  0  0  0  0  0  0  0999 V2000
    7.1610   -3.0920   19.0480 C   0  0  0  0  0  0  0  0  0  0  0  0
    6.3980   -2.8440   18.0350 N   0  0  0  0  0  0  0  0  0  0  0  0
    7.1760   -2.5110   20.3020 N   0  0  0  0  0  0  0  0  0  0  0  0
    6.1460   -2.9590   21.1880 C   0  0  0  0  0  0  0  0  0  0  0  0
    7.6230   -1.1130   20.2360 C   0  0  2  0  0  0  0  0  0  0  0  0
    5.9960   -2.5810   22.5080 C   0  0  0  0  0  0  0  0  0  0  0  0
    5.1230   -3.8170   20.9430 N   0  0  0  0  0  0  0  0  0  0  0  0
    8.6890   -0.6210   21.2700 C   0  0  0  0  0  0  0  0  0  0  0  0
    6.5610   -0.2760   19.6710 C   0  0  0  0  0  0  0  0  0  0  0  0
    4.9090   -3.1670   23.0770 C   0  0  0  0  0  0  0  0  0  0  0  0
    4.3620   -3.9420   22.0930 O   0  0  0  0  0  0  0  0  0  0  0  0
    8.5070    0.4870   21.7260 O   0  0  0  0  0  0  0  0  0  0  0  0
    9.8250   -1.4270   21.5820 N   0  0  0  0  0  0  0  0  0  0  0  0
    6.7220    0.2710   18.4410 C   0  0  0  0  0  0  0  0  0  0  0  0
    5.4260   -0.0700   20.3490 C   0  0  0  0  0  0  0  0  0  0  0  0
    4.4080   -3.0390   24.3700 C   0  0  0  0  0  0  0  0  0  0  0  0
   10.7410   -1.1540   22.6750 C   0  0  0  0  0  0  0  0  0  0  0  0
    5.8970    1.0050   17.7420 N   0  0  0  0  0  0  0  0  0  0  0  0
    4.5270    0.6660   19.6940 C   0  0  0  0  0  0  0  0  0  0  0  0
    5.1870   -0.5730   21.6220 C   0  0  0  0  0  0  0  0  0  0  0  0
    3.1610   -3.6100   24.6730 C   0  0  0  0  0  0  0  0  0  0  0  0
    4.2970   -1.5460   24.7250 C   0  0  0  0  0  0  0  0  0  0  0  0
    5.5910   -3.7680   25.5260 Cl  0  0  0  0  0  0  0  0  0  0  0  0
    9.9740   -0.9480   23.9870 C   0  0  0  0  0  0  0  0  0  0  0  0
   12.1980   -1.0550   22.7080 C   0  0  0  0  0  0  0  0  0  0  0  0
    4.7630    1.1970   18.4070 C   0  0  0  0  0  0  0  0  0  0  0  0
    8.4480   -1.1090   24.0490 C   0  0  0  0  0  0  0  0  0  0  0  0
   10.6380   -0.6250   25.1520 C   0  0  0  0  0  0  0  0  0  0  0  0
   12.8010   -0.7340   23.8910 C   0  0  0  0  0  0  0  0  0  0  0  0
   13.2000   -1.2740   21.6350 C   0  0  0  0  0  0  0  0  0  0  0  0
   12.1480   -0.5170   25.0410 C   0  0  0  0  0  0  0  0  0  0  0  0
   12.9120   -2.6160   21.0460 C   0  0  0  0  0  0  0  0  0  0  0  0
  1  2  2  3
  1  3  1  0
  3  4  1  0
  3  5  1  0
  4  6  1  0
  4  7  2  0
  5  8  1  1
  5  9  1  0
  6 10  2  0
  7 11  1  0
 10 11  1  0
  8 12  2  0
  8 13  1  0
  9 14  2  0
  9 15  1  0
 10 16  1  0
 13 17  1  0
 14 18  1  0
 15 19  2  0
 15 20  1  0
 16 21  1  0
 16 22  1  0
 16 23  1  0
 17 24  2  0
 17 25  1  0
 18 26  2  0
 19 26  1  0
 24 27  1  0
 24 28  1  0
 25 29  2  0
 25 30  1  0
 28 31  2  0
 29 31  1  0
 30 32  1  0
M  END
