DAR-DIA-2b784ede-22-nitrile
     RDKit          3D

 28 30  0  0  0  0  0  0  0  0999 V2000
    7.2230   -3.4100   20.1940 C   0  0  0  0  0  0  0  0  0  0  0  0
    6.0870   -3.9680   19.9640 N   0  0  0  0  0  0  0  0  0  0  0  0
    7.3890   -2.0860   20.9280 N   0  0  0  0  0  0  0  0  0  0  0  0
    8.6780   -1.5820   21.6080 C   0  0  0  0  0  0  0  0  0  0  0  0
    6.1620   -1.2570   21.2730 C   0  0  1  0  0  0  0  0  0  0  0  0
    9.4600   -2.4460   22.3460 C   0  0  0  0  0  0  0  0  0  0  0  0
    9.2110   -0.2650   21.5630 C   0  0  0  0  0  0  0  0  0  0  0  0
    6.4430   -0.5590   22.6480 C   0  0  0  0  0  0  0  0  0  0  0  0
    5.7310   -0.2600   20.1690 C   0  0  0  0  0  0  0  0  0  0  0  0
   10.6340   -2.1170   22.9010 C   0  0  0  0  0  0  0  0  0  0  0  0
   10.4200    0.0600   22.1570 C   0  0  0  0  0  0  0  0  0  0  0  0
    6.7490    0.6360   22.6540 O   0  0  0  0  0  0  0  0  0  0  0  0
    6.3660   -1.2160   23.8320 N   0  0  0  0  0  0  0  0  0  0  0  0
    4.5740    0.6370   20.4060 C   0  0  0  0  0  0  0  0  0  0  0  0
    6.2980   -0.0710   18.9230 C   0  0  0  0  0  0  0  0  0  0  0  0
   11.1390   -0.8720   22.7950 C   0  0  0  0  0  0  0  0  0  0  0  0
    7.3790   -2.0430   24.1430 C   0  0  0  0  0  0  0  0  0  0  0  0
    4.0930    1.5310   19.5480 N   0  0  0  0  0  0  0  0  0  0  0  0
    5.7940    0.8460   18.0680 C   0  0  0  0  0  0  0  0  0  0  0  0
    7.4350   -0.8230   18.4710 C   0  0  0  0  0  0  0  0  0  0  0  0
   12.3190   -0.5620   23.2820 C   0  0  0  0  0  0  0  0  0  0  0  0
    4.7390    1.6040   18.3820 C   0  0  0  0  0  0  0  0  0  0  0  0
   12.6750    0.9220   23.2520 C   0  0  0  0  0  0  0  0  0  0  0  0
   12.5640   -1.3050   24.6150 C   0  0  0  0  0  0  0  0  0  0  0  0
   13.2510   -1.3160   22.3930 C   0  0  0  0  0  0  0  0  0  0  0  0
   12.8650    2.0570   23.1470 N   0  0  0  0  0  0  0  0  0  0  0  0
   12.9900   -2.7170   24.2310 C   0  0  0  0  0  0  0  0  0  0  0  0
   13.0150   -2.6570   22.6960 C   0  0  0  0  0  0  0  0  0  0  0  0
  1  2  2  3
  1  3  1  0
  3  4  1  0
  3  5  1  0
  4  6  2  0
  4  7  1  0
  5  8  1  1
  5  9  1  0
  6 10  1  0
  7 11  2  0
  8 12  2  0
  8 13  1  0
  9 14  2  0
  9 15  1  0
 10 16  2  0
 11 16  1  0
 13 17  1  0
 14 18  1  0
 15 19  2  0
 15 20  1  0
 16 21  1  0
 18 22  2  0
 19 22  1  0
 21 23  1  0
 21 24  1  0
 21 25  1  0
 23 26  3  0
 24 27  1  0
 25 28  1  0
 27 28  1  0
M  END
