DAR-DIA-0cde14eb-78
     RDKit          3D

 20 21  0  0  0  0  0  0  0  0999 V2000
    4.6100    0.2610   21.8810 C   0  0  0  0  0  0  0  0  0  0  0  0
    5.2040    0.4110   20.5020 C   0  0  0  0  0  0  0  0  0  0  0  0
    4.4830    1.2910   19.5460 C   0  0  0  0  0  0  0  0  0  0  0  0
    6.3740   -0.1980   20.0530 C   0  0  0  0  0  0  0  0  0  0  0  0
    5.0040    1.4650   18.2830 C   0  0  0  0  0  0  0  0  0  0  0  0
    6.7680    0.0760   18.7420 C   0  0  0  0  0  0  0  0  0  0  0  0
    7.1430   -1.0120   20.7910 N   0  0  0  0  0  0  0  0  0  0  0  0
    6.1350    0.8840   17.8490 N   0  0  0  0  0  0  0  0  0  0  0  0
    8.2250   -0.4410   21.3890 C   0  0  0  0  0  0  0  0  0  0  0  0
    8.5290    0.7430   21.2370 O   0  0  0  0  0  0  0  0  0  0  0  0
    9.0240   -1.2340   22.1980 C   0  0  0  0  0  0  0  0  0  0  0  0
   10.3620   -0.5570   22.4950 C   0  0  0  0  0  0  0  0  0  0  0  0
   11.6320   -1.3690   22.5700 C   0  0  0  0  0  0  0  0  0  0  0  0
   10.3840    0.8150   22.6750 C   0  0  0  0  0  0  0  0  0  0  0  0
   12.8900   -0.5440   22.8500 C   0  0  0  0  0  0  0  0  0  0  0  0
   11.5490    1.5230   22.9130 C   0  0  0  0  0  0  0  0  0  0  0  0
   12.7890    0.8440   23.0020 C   0  0  0  0  0  0  0  0  0  0  0  0
   11.3420    3.3270   23.0610 S   0  0  0  0  0  0  0  0  0  0  0  0
   13.0190    3.9090   22.7040 C   0  0  0  0  0  0  0  0  0  0  0  0
   10.9490    3.6860   24.4030 O   0  0  0  0  0  0  0  0  0  0  0  0
  1  2  1  0
  2  3  2  0
  2  4  1  0
  3  5  1  0
  4  6  2  0
  4  7  1  0
  5  8  2  0
  6  8  1  0
  7  9  1  0
  9 10  2  0
  9 11  1  0
 11 12  1  0
 12 13  2  0
 12 14  1  0
 13 15  1  0
 14 16  2  0
 15 17  2  0
 16 17  1  0
 16 18  1  0
 18 19  1  1
 18 20  1  0
M  CHG  2  18   1  20  -1
M  END
