DAR-DIA-0cde14eb-76
     RDKit          3D

 21 22  0  0  0  0  0  0  0  0999 V2000
    5.1280    0.6860   22.0260 C   0  0  0  0  0  0  0  0  0  0  0  0
    5.4550    0.6560   20.5530 C   0  0  0  0  0  0  0  0  0  0  0  0
    4.7130    1.5960   19.6680 C   0  0  0  0  0  0  0  0  0  0  0  0
    6.3900   -0.1720   19.9430 C   0  0  0  0  0  0  0  0  0  0  0  0
    4.9920    1.6020   18.3200 C   0  0  0  0  0  0  0  0  0  0  0  0
    6.5600   -0.0490   18.5770 C   0  0  0  0  0  0  0  0  0  0  0  0
    7.1420   -1.0750   20.5770 N   0  0  0  0  0  0  0  0  0  0  0  0
    5.9040    0.8010   17.7410 N   0  0  0  0  0  0  0  0  0  0  0  0
    8.3110   -0.7020   21.1610 C   0  0  0  0  0  0  0  0  0  0  0  0
    8.7170    0.4600   21.2600 O   0  0  0  0  0  0  0  0  0  0  0  0
    9.0640   -1.7200   21.7050 C   0  0  0  0  0  0  0  0  0  0  0  0
   10.1610   -1.2070   22.5840 C   0  0  0  0  0  0  0  0  0  0  0  0
   11.6280   -1.2440   22.2320 C   0  0  0  0  0  0  0  0  0  0  0  0
    9.6980   -0.7000   23.7310 C   0  0  0  0  0  0  0  0  0  0  0  0
   12.5290   -0.6400   23.3170 C   0  0  0  0  0  0  0  0  0  0  0  0
   10.4860   -0.1860   24.6710 C   0  0  0  0  0  0  0  0  0  0  0  0
   11.9230   -0.1390   24.4950 C   0  0  0  0  0  0  0  0  0  0  0  0
    9.6900    0.2190   25.6870 C   0  0  0  0  0  0  0  0  0  0  0  0
   10.0710   -0.0700   26.9540 F   0  0  0  0  0  0  0  0  0  0  0  0
    9.3510    1.5300   25.5920 F   0  0  0  0  0  0  0  0  0  0  0  0
    8.4740   -0.3950   25.6160 F   0  0  0  0  0  0  0  0  0  0  0  0
  1  2  1  0
  2  3  2  0
  2  4  1  0
  3  5  1  0
  4  6  2  0
  4  7  1  0
  5  8  2  0
  6  8  1  0
  7  9  1  0
  9 10  2  0
  9 11  1  0
 11 12  1  0
 12 13  2  0
 12 14  1  0
 13 15  1  0
 14 16  2  0
 15 17  2  0
 16 17  1  0
 16 18  1  0
 18 19  1  0
 18 20  1  0
 18 21  1  0
M  END
