DAR-DIA-caba39e3-7-vinylsulfonamide
     RDKit          3D

 26 29  0  0  0  0  0  0  0  0999 V2000
    8.1800   -3.8060   19.8780 C   0  0  0  0  0  0  0  0  0  0  0  0
    7.3590   -2.7910   19.1190 C   0  0  0  0  0  0  0  0  0  0  0  0
    5.9560   -2.7150   20.1500 S   0  0  0  0  0  0  0  0  0  0  0  0
    5.1460   -3.9020   19.9600 O   0  0  0  0  0  0  0  0  0  0  0  0
    5.3580   -1.4490   19.9840 O   0  0  0  0  0  0  0  0  0  0  0  0
    6.7320   -2.6380   21.6250 N   0  0  0  0  0  0  0  0  0  0  0  0
    6.2820   -3.1980   22.8060 C   0  0  0  0  0  0  0  0  0  0  0  0
    7.9210   -1.8580   21.6990 C   0  0  0  0  0  0  0  0  0  0  0  0
    7.3820   -3.7360   23.6820 C   0  0  0  0  0  0  0  0  0  0  0  0
    9.1290   -2.5590   22.4140 C   0  0  2  0  0  0  0  0  0  0  0  0
    6.9470   -4.6560   24.8110 C   0  0  0  0  0  0  0  0  0  0  0  0
    8.7270   -3.4020   23.4590 C   0  0  0  0  0  0  0  0  0  0  0  0
   10.0990   -1.5180   22.7210 C   0  0  0  0  0  0  0  0  0  0  0  0
    8.0080   -5.2350   25.7270 C   0  0  0  0  0  0  0  0  0  0  0  0
    9.8700   -3.9450   24.3460 C   0  0  0  0  0  0  0  0  0  0  0  0
   11.4340   -1.5610   22.3230 C   0  0  0  0  0  0  0  0  0  0  0  0
    9.6410   -0.4390   23.4400 C   0  0  0  0  0  0  0  0  0  0  0  0
    9.4690   -4.8830   25.4960 C   0  0  0  0  0  0  0  0  0  0  0  0
   12.3340   -0.5510   22.6200 C   0  0  0  0  0  0  0  0  0  0  0  0
   10.5600    0.6000   23.7310 C   0  0  0  0  0  0  0  0  0  0  0  0
    8.3050   -0.3110   23.8990 C   0  0  0  0  0  0  0  0  0  0  0  0
   13.6250   -0.6790   22.1920 F   0  0  0  0  0  0  0  0  0  0  0  0
   11.9050    0.5650   23.3360 C   0  0  0  0  0  0  0  0  0  0  0  0
   10.0200    1.7620   24.4850 C   0  0  0  0  0  0  0  0  0  0  0  0
    7.7760    0.7660   24.6190 C   0  0  0  0  0  0  0  0  0  0  0  0
    8.5870    1.8240   24.9320 C   0  0  0  0  0  0  0  0  0  0  0  0
  1  2  1  0
  3  2  1  0
  3  4  2  0
  3  5  2  0
  3  6  1  0
  6  7  1  0
  6  8  1  0
  7  9  1  0
  8 10  1  0
  9 11  1  0
  9 12  2  0
 10 12  1  0
 10 13  1  1
 11 14  2  0
 12 15  1  0
 13 16  2  0
 13 17  1  0
 14 18  1  0
 15 18  2  0
 16 19  1  0
 17 20  2  0
 17 21  1  0
 19 22  1  0
 19 23  2  0
 20 23  1  0
 20 24  1  0
 21 25  2  0
 24 26  2  0
 25 26  1  0
M  END
