DAV-CRI-d1e0885a-6-nitrile
     RDKit          3D

 20 21  0  0  0  0  0  0  0  0999 V2000
    6.8360   -3.3870   19.6070 C   0  0  0  0  0  0  0  0  0  0  0  0
    5.9600   -3.0890   18.7460 N   0  0  0  0  0  0  0  0  0  0  0  0
    6.9380   -2.7130   20.7980 N   0  0  0  0  0  0  0  0  0  0  0  0
    7.4130   -1.3180   20.8490 C   0  0  0  0  0  0  0  0  0  0  0  0
    6.6900   -3.4190   22.0110 C   0  0  0  0  0  0  0  0  0  0  0  0
    8.5750   -1.2340   21.7910 C   0  0  0  0  0  0  0  0  0  0  0  0
    7.5740   -2.9750   23.0100 C   0  0  0  0  0  0  0  0  0  0  0  0
    8.7370   -2.4960   22.5010 N   0  0  0  0  0  0  0  0  0  0  0  0
    9.7630   -2.5520   23.4330 C   0  0  0  0  0  0  0  0  0  0  0  0
   10.6440   -1.3050   23.4250 C   0  0  0  0  0  0  0  0  0  0  0  0
   11.7210   -1.1920   22.6020 C   0  0  0  0  0  0  0  0  0  0  0  0
   10.5190   -0.1500   24.2320 C   0  0  0  0  0  0  0  0  0  0  0  0
   12.0600   -2.1860   21.7230 C   0  0  0  0  0  0  0  0  0  0  0  0
   12.5000    0.0740   22.7320 C   0  0  0  0  0  0  0  0  0  0  0  0
   11.7530    1.0520   23.9300 S   0  0  0  0  0  0  0  0  0  0  0  0
    9.6430    0.2460   25.2140 N   0  0  0  0  0  0  0  0  0  0  0  0
   13.1890   -2.1460   21.0010 N   0  0  0  0  0  0  0  0  0  0  0  0
    8.8830   -0.6670   25.9350 C   0  0  0  0  0  0  0  0  0  0  0  0
    8.9110   -0.4350   27.4530 C   0  0  0  0  0  0  0  0  0  0  0  0
    8.2250   -1.5930   25.4650 O   0  0  0  0  0  0  0  0  0  0  0  0
  1  2  2  3
  1  3  1  0
  3  4  1  0
  3  5  1  0
  4  6  1  0
  5  7  1  0
  6  8  1  0
  7  8  1  0
  8  9  1  0
  9 10  1  0
 10 11  1  0
 10 12  2  0
 11 13  1  0
 11 14  2  0
 12 15  1  0
 14 15  1  0
 12 16  1  0
 13 17  3  0
 16 18  1  0
 18 19  1  0
 18 20  2  0
M  END
