DAV-CRI-f9b12666-7-vinylsulfonamide
     RDKit          3D

 43 46  0  0  0  0  0  0  0  0999 V2000
    7.4350   -2.9950   18.6390 C   0  0  0  0  0  0  0  0  0  0  0  0
    7.0640   -2.6820   19.8670 C   0  0  0  0  0  0  0  0  0  0  0  0
    5.7800   -3.7650   20.4360 S   0  0  0  0  0  0  0  0  0  0  0  0
    4.7770   -2.9360   20.9310 O   0  0  0  0  0  0  0  0  0  0  0  0
    5.4090   -4.8100   19.5370 O   0  0  0  0  0  0  0  0  0  0  0  0
    6.4020   -4.4610   21.8320 N   0  0  0  0  0  0  0  0  0  0  0  0
    7.7410   -4.1110   22.1670 C   0  0  0  0  0  0  0  0  0  0  0  0
    5.9890   -5.7790   22.2770 C   0  0  1  0  0  0  0  0  0  0  0  0
    7.9620   -4.5530   23.5800 C   0  0  2  0  0  0  0  0  0  0  0  0
    7.2830   -6.5170   22.5140 C   0  0  0  0  0  0  0  0  0  0  0  0
    5.2250   -5.5940   23.5490 N   0  0  0  0  0  0  0  0  0  0  0  0
    9.1880   -3.8530   23.9620 C   0  0  0  0  0  0  0  0  0  0  0  0
    7.9220   -5.9030   23.7750 C   0  0  0  0  0  0  0  0  0  0  0  0
    3.9260   -5.3080   23.4630 C   0  0  0  0  0  0  0  0  0  0  0  0
    9.1910   -2.5100   23.6510 N   0  0  0  0  0  0  0  0  0  0  0  0
   10.5960   -4.3800   24.6920 S   0  0  0  0  0  0  0  0  0  0  0  0
    3.5650   -4.1490   23.3070 O   0  0  0  0  0  0  0  0  0  0  0  0
    3.0610   -6.4050   23.5880 C   0  0  1  0  0  0  0  0  0  0  0  0
   10.3250   -1.9490   24.0010 C   0  0  0  0  0  0  0  0  0  0  0  0
   11.2800   -2.7930   24.6080 C   0  0  0  0  0  0  0  0  0  0  0  0
    2.4460   -6.6110   24.8150 C   0  0  0  0  0  0  0  0  0  0  0  0
    1.9720   -6.2720   22.5780 N   0  0  0  0  0  0  0  0  0  0  0  0
   10.4740   -0.5440   23.7240 C   0  0  0  0  0  0  0  0  0  0  0  0
   12.5330   -2.3210   25.0300 C   0  0  0  0  0  0  0  0  0  0  0  0
    2.7890   -7.7970   25.4370 C   0  0  0  0  0  0  0  0  0  0  0  0
    1.0100   -7.3570   22.4260 C   0  0  1  0  0  0  0  0  0  0  0  0
   11.5950    0.0430   24.0540 C   0  0  0  0  0  0  0  0  0  0  0  0
   12.6630   -0.8200   24.7250 C   0  0  0  0  0  0  0  0  0  0  0  0
    2.1620   -8.1040   26.6060 N   0  0  0  0  0  0  0  0  0  0  0  0
    3.6150   -8.5200   24.9380 O   0  0  0  0  0  0  0  0  0  0  0  0
   -0.2730   -6.7970   21.8270 C   0  0  0  0  0  0  0  0  0  0  0  0
    1.5650   -8.3820   21.5570 N   0  0  0  0  0  0  0  0  0  0  0  0
   11.7110    1.3690   23.7420 C   0  0  0  0  0  0  0  0  0  0  0  0
   12.8440    1.6770   23.0710 C   0  0  0  0  0  0  0  0  0  0  0  0
   10.7760    2.3990   24.0210 C   0  0  0  0  0  0  0  0  0  0  0  0
   13.0980    2.9930   22.6550 C   0  0  0  0  0  0  0  0  0  0  0  0
   11.0660    3.8430   23.5560 C   0  0  0  0  0  0  0  0  0  0  0  0
   12.2410    4.0510   22.8820 C   0  0  0  0  0  0  0  0  0  0  0  0
   10.0200    5.2650   23.8070 S   0  0  0  0  0  0  0  0  0  0  0  0
   12.5050    5.1820   22.4900 O   0  0  0  0  0  0  0  0  0  0  0  0
    8.8140    5.0180   22.6570 N   0  0  0  0  0  0  0  0  0  0  0  0
   10.7940    6.4120   23.3860 O   0  0  0  0  0  0  0  0  0  0  0  0
    9.3410    5.2480   25.0850 O   0  0  0  0  0  0  0  0  0  0  0  0
  1  2  1  0
  3  2  1  0
  3  4  2  0
  3  5  2  0
  3  6  1  0
  6  7  1  0
  6  8  1  0
  7  9  1  0
  8 10  1  0
  8 11  1  1
  9 12  1  6
  9 13  1  0
 10 13  1  0
 11 14  1  0
 12 15  2  0
 12 16  1  0
 14 17  2  0
 14 18  1  0
 15 19  1  0
 16 20  1  0
 19 20  2  0
 18 21  1  1
 18 22  1  0
 19 23  1  0
 20 24  1  0
 21 25  1  0
 22 26  1  0
 23 27  2  0
 24 28  2  0
 27 28  1  0
 25 29  1  0
 25 30  2  0
 26 31  1  6
 26 32  1  0
 27 33  1  0
 33 34  2  0
 33 35  1  0
 34 36  1  0
 35 37  2  0
 36 38  2  0
 37 38  1  0
 37 39  1  0
 38 40  1  0
 39 41  1  0
 39 42  2  0
 39 43  2  0
M  END
