DAV-UNK-07f953a2-3-chloroacetamide
     RDKit          3D

 33 36  0  0  0  0  0  0  0  0999 V2000
    6.9650   -3.4840   19.8130 C   0  0  0  0  0  0  0  0  0  0  0  0
    6.2720   -4.6160   20.5230 C   0  0  0  0  0  0  0  0  0  0  0  0
    5.3210   -5.1740   20.0090 O   0  0  0  0  0  0  0  0  0  0  0  0
    6.7520   -5.0660   21.7570 N   0  0  0  0  0  0  0  0  0  0  0  0
    6.1850   -6.3130   22.2180 C   0  0  0  0  0  0  0  0  0  0  0  0
    7.3910   -4.2350   22.7900 C   0  0  0  0  0  0  0  0  0  0  0  0
    5.2900   -6.0690   23.4200 C   0  0  0  0  0  0  0  0  0  0  0  0
    6.5110   -3.9270   23.8520 C   0  0  0  0  0  0  0  0  0  0  0  0
    5.9580   -5.1890   24.4060 N   0  0  0  0  0  0  0  0  0  0  0  0
    5.3220   -5.1990   25.9950 S   0  0  0  0  0  0  0  0  0  0  0  0
    4.6530   -6.4700   26.1600 O   0  0  0  0  0  0  0  0  0  0  0  0
    6.3370   -4.7530   26.9110 O   0  0  0  0  0  0  0  0  0  0  0  0
    4.0790   -3.9310   25.9800 C   0  0  0  0  0  0  0  0  0  0  0  0
    4.4670   -2.4990   26.0030 C   0  0  0  0  0  0  0  0  0  0  0  0
    2.7100   -4.2460   25.9500 C   0  0  0  0  0  0  0  0  0  0  0  0
    3.4910   -1.5360   25.9830 C   0  0  0  0  0  0  0  0  0  0  0  0
    1.6810   -3.2810   25.9340 C   0  0  0  0  0  0  0  0  0  0  0  0
    1.9820   -1.9130   25.9410 C   0  0  0  0  0  0  0  0  0  0  0  0
    1.1000   -0.8630   25.9130 O   0  0  0  0  0  0  0  0  0  0  0  0
    1.6020    0.4300   25.5480 C   0  0  0  0  0  0  0  0  0  0  0  0
    2.2090    0.4590   24.2700 C   0  0  0  0  0  0  0  0  0  0  0  0
    3.1970   -0.2170   24.0030 O   0  0  0  0  0  0  0  0  0  0  0  0
    1.6160    1.3060   23.3560 N   0  0  0  0  0  0  0  0  0  0  0  0
    2.1700    1.5260   22.0330 C   0  0  0  0  0  0  0  0  0  0  0  0
    1.1930    2.0330   21.1760 C   0  0  0  0  0  0  0  0  0  0  0  0
    1.6330    2.8310   19.9190 C   0  0  0  0  0  0  0  0  0  0  0  0
   -0.1780    1.8260   21.4490 C   0  0  0  0  0  0  0  0  0  0  0  0
    0.4680    3.3600   19.0350 C   0  0  0  0  0  0  0  0  0  0  0  0
   -1.2050    2.3300   20.6110 C   0  0  0  0  0  0  0  0  0  0  0  0
   -0.9380    3.0730   19.4440 C   0  0  0  0  0  0  0  0  0  0  0  0
   -2.5450    2.1840   20.7990 O   0  0  0  0  0  0  0  0  0  0  0  0
   -3.0380    3.1470   19.8410 C   0  0  0  0  0  0  0  0  0  0  0  0
   -2.0760    3.4530   18.8070 O   0  0  0  0  0  0  0  0  0  0  0  0
  1  2  1  0
  2  3  2  0
  2  4  1  0
  4  5  1  0
  4  6  1  0
  5  7  1  0
  6  8  1  0
  7  9  1  0
  8  9  1  0
  9 10  1  0
 10 11  2  0
 10 12  2  0
 10 13  1  0
 13 14  2  0
 13 15  1  0
 14 16  1  0
 15 17  2  0
 16 18  2  0
 17 18  1  0
 18 19  1  0
 19 20  1  0
 20 21  1  0
 21 22  2  0
 21 23  1  0
 23 24  1  0
 24 25  1  0
 25 26  2  0
 25 27  1  0
 26 28  1  0
 27 29  2  0
 28 30  2  0
 29 30  1  0
 29 31  1  0
 31 32  1  0
 30 33  1  0
 32 33  1  0
M  END
