DAV-CRI-0207e898-1-acrylamide
     RDKit          3D

 23 25  0  0  0  0  0  0  0  0999 V2000
    7.9420   -2.7500   18.5550 C   0  0  0  0  0  0  0  0  0  0  0  0
    6.4770   -2.7850   18.6380 C   0  0  0  0  0  0  0  0  0  0  0  0
    6.1530   -3.2320   19.9900 C   0  0  0  0  0  0  0  0  0  0  0  0
    5.2360   -4.0230   20.1450 O   0  0  0  0  0  0  0  0  0  0  0  0
    6.9510   -2.7670   21.0280 N   0  0  0  0  0  0  0  0  0  0  0  0
    7.6370   -1.5260   21.1490 C   0  0  0  0  0  0  0  0  0  0  0  0
    7.1120   -3.7570   22.0520 C   0  0  1  0  0  0  0  0  0  0  0  0
    8.8850   -1.6310   21.7900 C   0  0  0  0  0  0  0  0  0  0  0  0
    8.3720   -3.6660   22.6240 C   0  0  0  0  0  0  0  0  0  0  0  0
    5.8730   -3.6690   22.8990 C   0  0  2  0  0  0  0  0  0  0  0  0
    8.8270   -2.3860   22.9090 N   0  0  0  0  0  0  0  0  0  0  0  0
    5.5850   -2.4120   23.7230 C   0  0  0  0  0  0  0  0  0  0  0  0
    5.6940   -4.8170   23.6330 C   0  0  1  0  0  0  0  0  0  0  0  0
   10.0240   -2.6150   23.5040 C   0  0  0  0  0  0  0  0  0  0  0  0
    4.3710   -2.4950   24.6660 C   0  0  0  0  0  0  0  0  0  0  0  0
    4.4110   -4.8720   24.1180 N   0  0  0  0  0  0  0  0  0  0  0  0
    5.9090   -6.3020   22.6500 Cl  0  0  0  0  0  0  0  0  0  0  0  0
   10.9480   -1.4070   23.5200 C   0  0  0  0  0  0  0  0  0  0  0  0
    4.0690   -3.8370   25.0770 C   0  0  0  0  0  0  0  0  0  0  0  0
   12.2140   -1.3840   22.6440 C   0  0  0  0  0  0  0  0  0  0  0  0
   10.7250    0.0320   24.4590 S   0  0  0  0  0  0  0  0  0  0  0  0
   12.9590   -0.0850   22.8190 C   0  0  0  0  0  0  0  0  0  0  0  0
   12.1570    0.7450   23.8220 C   0  0  0  0  0  0  0  0  0  0  0  0
  1  2  1  0
  2  3  1  0
  3  4  2  0
  3  5  1  0
  5  6  1  0
  5  7  1  0
  6  8  1  0
  7  9  1  1
  7 10  1  0
  8 11  1  0
  9 11  1  0
 10 12  1  1
 10 13  1  0
 11 14  1  0
 12 15  1  0
 13 16  1  0
 13 17  1  6
 14 18  1  0
 15 19  1  0
 16 19  1  0
 18 20  2  0
 18 21  1  0
 20 22  1  0
 21 23  1  0
 22 23  2  0
M  END
