DAV-UNK-07f953a2-1-acrylamide
     RDKit          3D

 33 35  0  0  0  0  0  0  0  0999 V2000
    7.3710   -2.9050   18.7000 C   0  0  0  0  0  0  0  0  0  0  0  0
    6.8870   -2.8390   20.1270 C   0  0  0  0  0  0  0  0  0  0  0  0
    5.7800   -3.8330   20.2910 C   0  0  0  0  0  0  0  0  0  0  0  0
    4.9000   -3.9800   19.4580 O   0  0  0  0  0  0  0  0  0  0  0  0
    5.7010   -4.5720   21.4270 N   0  0  0  0  0  0  0  0  0  0  0  0
    6.8240   -5.2470   22.0790 C   0  0  0  0  0  0  0  0  0  0  0  0
    4.8290   -3.9810   22.3630 C   0  0  0  0  0  0  0  0  0  0  0  0
    7.8220   -4.3210   22.7900 C   0  0  0  0  0  0  0  0  0  0  0  0
    5.6110   -3.1980   23.1940 C   0  0  0  0  0  0  0  0  0  0  0  0
    6.6890   -4.0880   23.7990 C   0  0  0  0  0  0  0  0  0  0  0  0
    6.0530   -5.2690   24.0780 N   0  0  0  0  0  0  0  0  0  0  0  0
    5.4280   -5.4040   25.6720 S   0  0  0  0  0  0  0  0  0  0  0  0
    6.4950   -5.0220   26.5760 O   0  0  0  0  0  0  0  0  0  0  0  0
    4.7380   -6.6630   25.8080 O   0  0  0  0  0  0  0  0  0  0  0  0
    4.1890   -4.1380   25.7410 C   0  0  0  0  0  0  0  0  0  0  0  0
    2.7210   -4.3350   25.2160 C   0  0  0  0  0  0  0  0  0  0  0  0
    4.4430   -2.7380   26.3260 C   0  0  0  0  0  0  0  0  0  0  0  0
    1.7730   -3.1660   25.3500 C   0  0  0  0  0  0  0  0  0  0  0  0
    3.4470   -1.7470   26.3790 C   0  0  0  0  0  0  0  0  0  0  0  0
    2.1420   -1.9320   25.9120 C   0  0  0  0  0  0  0  0  0  0  0  0
    1.2270   -0.9110   26.0060 N   0  0  0  0  0  0  0  0  0  0  0  0
    0.5440   -0.6460   27.2440 C   0  0  0  0  0  0  0  0  0  0  0  0
   -0.6640   -0.4730   27.3750 O   0  0  0  0  0  0  0  0  0  0  0  0
    1.4390   -0.6070   28.3150 C   0  0  0  0  0  0  0  0  0  0  0  0
    2.5690    0.1890   27.9790 O   0  0  0  0  0  0  0  0  0  0  0  0
    3.7120    0.0400   28.7290 C   0  0  0  0  0  0  0  0  0  0  0  0
    3.7730   -0.6360   30.1370 C   0  0  0  0  0  0  0  0  0  0  0  0
    4.8930    0.5430   28.1610 C   0  0  0  0  0  0  0  0  0  0  0  0
    5.0910   -0.7150   30.8220 C   0  0  0  0  0  0  0  0  0  0  0  0
    6.1320    0.4620   28.8220 C   0  0  0  0  0  0  0  0  0  0  0  0
    4.8640    1.1500   26.9070 C   0  0  0  0  0  0  0  0  0  0  0  0
    6.2670   -0.1270   30.0850 C   0  0  0  0  0  0  0  0  0  0  0  0
    7.5750   -0.2240   30.8100 C   0  0  0  0  0  0  0  0  0  0  0  0
  1  2  1  0
  2  3  1  0
  3  4  2  0
  3  5  1  0
  5  6  1  0
  5  7  1  0
  6  8  1  0
  7  9  1  0
  8 10  1  0
  9 10  1  0
 10 11  1  0
 12 11  1  0
 12 13  2  0
 12 14  2  0
 12 15  1  0
 15 16  2  0
 15 17  1  0
 16 18  1  0
 17 19  2  0
 18 20  2  0
 19 20  1  0
 20 21  1  0
 21 22  1  0
 22 23  2  0
 22 24  1  0
 24 25  1  0
 25 26  1  0
 26 27  2  0
 26 28  1  0
 27 29  1  0
 28 30  2  0
 28 31  1  0
 29 32  2  0
 30 32  1  0
 32 33  1  0
M  END
