DAV-CRI-3edb475e-6-chloroacetamide
     RDKit          3D

 14 14  0  0  0  0  0  0  0  0999 V2000
    7.6990   -2.8670   18.6400 C   0  0  0  0  0  0  0  0  0  0  0  0
    6.9740   -2.8870   19.8900 C   0  0  0  0  0  0  0  0  0  0  0  0
    6.0140   -3.6930   19.7670 O   0  0  0  0  0  0  0  0  0  0  0  0
    7.4030   -2.0240   20.9790 N   0  0  0  0  0  0  0  0  0  0  0  0
    8.2230   -2.3430   22.2060 C   0  0  2  0  0  0  0  0  0  0  0  0
    7.4700   -2.2690   23.3540 C   0  0  0  0  0  0  0  0  0  0  0  0
    9.4820   -1.4540   22.3980 C   0  0  0  0  0  0  0  0  0  0  0  0
    9.4450   -0.0800   22.7170 C   0  0  0  0  0  0  0  0  0  0  0  0
   10.7430   -2.0140   22.2610 C   0  0  0  0  0  0  0  0  0  0  0  0
   10.7350    0.7250   22.8920 C   0  0  0  0  0  0  0  0  0  0  0  0
   11.9100   -1.3030   22.4200 C   0  0  0  0  0  0  0  0  0  0  0  0
   10.6990    2.0330   23.1780 F   0  0  0  0  0  0  0  0  0  0  0  0
   11.9170    0.0410   22.7330 C   0  0  0  0  0  0  0  0  0  0  0  0
   13.3310   -2.1390   22.2100 Cl  0  0  0  0  0  0  0  0  0  0  0  0
  1  2  1  0
  2  3  2  0
  2  4  1  0
  4  5  1  0
  5  6  1  1
  5  7  1  0
  7  8  2  0
  7  9  1  0
  8 10  1  0
  9 11  2  0
 10 12  1  0
 10 13  2  0
 11 13  1  0
 11 14  1  0
M  END
