DAV-CRI-8c8dd668-1-chloroacetamide
     RDKit          3D

 31 35  0  0  0  0  0  0  0  0999 V2000
    7.6060   -3.0430   18.9610 C   0  0  0  0  0  0  0  0  0  0  0  0
    6.7700   -3.3110   19.9620 C   0  0  0  0  0  0  0  0  0  0  0  0
    5.8320   -4.1310   19.8230 O   0  0  0  0  0  0  0  0  0  0  0  0
    6.9970   -2.6240   21.1850 N   0  0  0  0  0  0  0  0  0  0  0  0
    8.1910   -1.7600   21.3940 C   0  0  0  0  0  0  0  0  0  0  0  0
    6.3310   -3.0610   22.4150 C   0  0  1  0  0  0  0  0  0  0  0  0
    9.3240   -2.5770   22.0570 C   0  0  1  0  0  0  0  0  0  0  0  0
    7.2260   -3.7540   23.2340 C   0  0  0  0  0  0  0  0  0  0  0  0
    5.4930   -2.0370   22.8530 C   0  0  0  0  0  0  0  0  0  0  0  0
   10.2690   -1.5010   22.6290 C   0  0  0  0  0  0  0  0  0  0  0  0
    8.7560   -3.5450   23.0620 C   0  0  0  0  0  0  0  0  0  0  0  0
    6.7170   -4.6380   24.1850 C   0  0  0  0  0  0  0  0  0  0  0  0
    4.9890   -1.9810   24.1500 C   0  0  0  0  0  0  0  0  0  0  0  0
    5.1340   -1.0140   21.9470 C   0  0  0  0  0  0  0  0  0  0  0  0
    9.8100   -0.4810   23.6550 C   0  0  0  0  0  0  0  0  0  0  0  0
   11.6110   -1.4290   22.2090 C   0  0  0  0  0  0  0  0  0  0  0  0
    9.6850   -4.3750   23.9540 C   0  0  0  0  0  0  0  0  0  0  0  0
    7.5250   -5.4050   25.0270 C   0  0  0  0  0  0  0  0  0  0  0  0
    4.1440   -0.9240   24.5220 C   0  0  0  0  0  0  0  0  0  0  0  0
    4.2940    0.0520   22.2920 C   0  0  0  0  0  0  0  0  0  0  0  0
   10.7140    0.4730   24.1290 C   0  0  0  0  0  0  0  0  0  0  0  0
   12.4740   -0.4510   22.7210 C   0  0  0  0  0  0  0  0  0  0  0  0
    9.0720   -5.3490   24.9670 C   0  0  0  0  0  0  0  0  0  0  0  0
    3.8020    0.0750   23.6070 C   0  0  0  0  0  0  0  0  0  0  0  0
    3.9580    1.0690   21.3420 N   0  0  0  0  0  0  0  0  0  0  0  0
   12.0380    0.4860   23.6620 C   0  0  0  0  0  0  0  0  0  0  0  0
    4.9280    1.5160   20.3510 C   0  0  0  0  0  0  0  0  0  0  0  0
    2.6670    1.4810   20.9480 C   0  0  0  0  0  0  0  0  0  0  0  0
    4.0990    1.9540   19.1640 C   0  0  0  0  0  0  0  0  0  0  0  0
    2.8420    2.4710   19.8240 C   0  0  0  0  0  0  0  0  0  0  0  0
    1.5670    1.1520   21.3720 O   0  0  0  0  0  0  0  0  0  0  0  0
  1  2  1  0
  2  3  2  0
  2  4  1  0
  4  5  1  0
  4  6  1  0
  5  7  1  0
  6  8  1  0
  6  9  1  1
  7 10  1  1
  7 11  1  0
  8 11  2  0
  8 12  1  0
  9 13  2  0
  9 14  1  0
 10 15  2  0
 10 16  1  0
 11 17  1  0
 12 18  2  0
 13 19  1  0
 14 20  2  0
 15 21  1  0
 16 22  2  0
 17 23  2  0
 18 23  1  0
 19 24  2  0
 20 24  1  0
 20 25  1  0
 21 26  2  0
 22 26  1  0
 25 27  1  0
 25 28  1  0
 27 29  1  0
 28 30  1  0
 29 30  1  0
 28 31  2  0
M  END
