DAV-CRI-14a23e73-2-acrylamide
     RDKit          3D

 25 26  0  0  0  0  0  0  0  0999 V2000
    7.2670   -3.5310   19.7420 C   0  0  0  0  0  0  0  0  0  0  0  0
    6.8360   -4.4190   20.8720 C   0  0  0  0  0  0  0  0  0  0  0  0
    6.1730   -3.5520   21.8710 C   0  0  0  0  0  0  0  0  0  0  0  0
    4.8630   -3.5740   21.8520 O   0  0  0  0  0  0  0  0  0  0  0  0
    7.1650   -2.8220   22.6810 N   0  0  0  0  0  0  0  0  0  0  0  0
    8.6420   -3.2510   22.8590 C   0  0  2  0  0  0  0  0  0  0  0  0
    8.7520   -4.1690   23.8390 C   0  0  0  0  0  0  0  0  0  0  0  0
    9.8380   -2.1750   22.9090 C   0  0  0  0  0  0  0  0  0  0  0  0
   10.9310   -2.4310   21.9970 C   0  0  0  0  0  0  0  0  0  0  0  0
   10.0040   -0.9870   23.6920 C   0  0  0  0  0  0  0  0  0  0  0  0
   11.9580   -1.5900   21.9380 C   0  0  0  0  0  0  0  0  0  0  0  0
   11.0180    0.0890   23.6840 C   0  0  0  0  0  0  0  0  0  0  0  0
   13.2900   -1.8540   20.9490 Cl  0  0  0  0  0  0  0  0  0  0  0  0
   11.9580   -0.3740   22.7430 C   0  0  0  0  0  0  0  0  0  0  0  0
   12.2150    0.9440   23.3380 C   0  0  0  0  0  0  0  0  0  0  0  0
   10.8030    1.5100   23.7060 C   0  0  0  0  0  0  0  0  0  0  0  0
   12.9030    2.1890   23.0830 C   0  0  0  0  0  0  0  0  0  0  0  0
   10.2510    2.9090   23.8020 C   0  0  0  0  0  0  0  0  0  0  0  0
   12.4620    3.6930   23.1360 C   0  0  0  0  0  0  0  0  0  0  0  0
   11.1580    4.0030   23.5000 C   0  0  0  0  0  0  0  0  0  0  0  0
   13.3720    4.7070   22.8340 O   0  0  0  0  0  0  0  0  0  0  0  0
   10.5000    5.6350   23.6410 S   0  0  0  0  0  0  0  0  0  0  0  0
    9.0980    5.5040   22.7260 N   0  0  0  0  0  0  0  0  0  0  0  0
   11.3830    6.5720   22.9980 O   0  0  0  0  0  0  0  0  0  0  0  0
   10.0740    5.8440   25.0120 O   0  0  0  0  0  0  0  0  0  0  0  0
  1  2  1  0
  2  3  1  0
  3  4  2  0
  3  5  1  0
  5  6  1  0
  6  7  1  1
  6  8  1  0
  8  9  2  0
  8 10  1  0
  9 11  1  0
 10 12  2  0
 11 13  1  0
 11 14  2  0
 12 14  1  0
 12 15  1  0
 15 16  2  0
 15 17  1  0
 16 18  1  0
 17 19  2  0
 18 20  2  0
 19 20  1  0
 19 21  1  0
 20 22  1  0
 22 23  1  0
 22 24  2  0
 22 25  2  0
M  END
