DAV-UNK-07f953a2-4
     RDKit          3D

 23 25  0  0  0  0  0  0  0  0999 V2000
    5.5660   -6.0660   28.1340 C   0  0  0  0  0  0  0  0  0  0  0  0
    4.5630   -6.7110   27.1740 C   0  0  0  0  0  0  0  0  0  0  0  0
    3.6430   -7.5710   27.7110 N   0  0  0  0  0  0  0  0  0  0  0  0
    4.4040   -6.5780   25.7760 C   0  0  0  0  0  0  0  0  0  0  0  0
    2.8940   -7.9960   26.6260 O   0  0  0  0  0  0  0  0  0  0  0  0
    3.3490   -7.4100   25.4850 C   0  0  0  0  0  0  0  0  0  0  0  0
    5.1940   -5.7260   24.8370 C   0  0  0  0  0  0  0  0  0  0  0  0
    2.6210   -7.7900   24.1950 C   0  0  0  0  0  0  0  0  0  0  0  0
    5.4220   -4.6820   25.3990 O   0  0  0  0  0  0  0  0  0  0  0  0
    4.3910   -3.8260   25.6200 C   0  0  0  0  0  0  0  0  0  0  0  0
    4.3930   -2.4740   26.3700 C   0  0  0  0  0  0  0  0  0  0  0  0
    2.9540   -4.1520   25.0870 C   0  0  0  0  0  0  0  0  0  0  0  0
    3.1650   -1.6620   26.5170 C   0  0  0  0  0  0  0  0  0  0  0  0
    1.8360   -3.2860   25.2930 C   0  0  0  0  0  0  0  0  0  0  0  0
    1.9410   -2.0630   25.9940 C   0  0  0  0  0  0  0  0  0  0  0  0
    0.8130   -1.2540   26.1660 C   0  0  0  0  0  0  0  0  0  0  0  0
    0.9370    0.1340   26.2030 C   0  0  0  0  0  0  0  0  0  0  0  0
    2.3610    1.1030   26.0580 S   0  0  0  0  0  0  0  0  0  0  0  0
   -0.2480    1.0170   26.3840 C   0  0  0  0  0  0  0  0  0  0  0  0
    1.4670    2.5930   26.2590 C   0  0  0  0  0  0  0  0  0  0  0  0
    0.1670    2.3090   26.5440 N   0  0  0  0  0  0  0  0  0  0  0  0
   -1.4220    0.6510   26.3840 O   0  0  0  0  0  0  0  0  0  0  0  0
    2.0680    4.1290   26.1320 S   0  0  0  0  0  0  0  0  0  0  0  0
  1  2  1  0
  2  3  2  0
  2  4  1  0
  3  5  1  0
  4  6  2  0
  5  6  1  0
  4  7  1  0
  6  8  1  0
  7  9  1  0
  9 10  1  0
 10 11  2  0
 10 12  1  0
 11 13  1  0
 12 14  2  0
 13 15  2  0
 14 15  1  0
 15 16  1  0
 16 17  2  3
 17 18  1  0
 17 19  1  0
 18 20  1  0
 19 21  1  0
 20 21  1  0
 19 22  2  0
 20 23  2  0
M  END
