DAV-CRI-f4772df7-4-nitrile
     RDKit          3D

 33 37  0  0  0  0  0  0  0  0999 V2000
    6.8860   -3.3670   19.9030 C   0  0  0  0  0  0  0  0  0  0  0  0
    5.8220   -3.3150   19.2000 N   0  0  0  0  0  0  0  0  0  0  0  0
    6.9670   -2.8180   21.2420 N   0  0  0  0  0  0  0  0  0  0  0  0
    8.0070   -1.7840   21.5570 C   0  0  0  0  0  0  0  0  0  0  0  0
    6.6100   -3.6600   22.4140 C   0  0  1  0  0  0  0  0  0  0  0  0
    7.8450   -0.5910   21.3130 O   0  0  0  0  0  0  0  0  0  0  0  0
    9.2660   -2.4010   22.2100 C   0  0  1  0  0  0  0  0  0  0  0  0
    7.6270   -3.8470   23.5250 C   0  0  0  0  0  0  0  0  0  0  0  0
    5.1380   -3.9960   22.7270 C   0  0  1  0  0  0  0  0  0  0  0  0
   10.2520   -1.3180   22.6680 C   0  0  0  0  0  0  0  0  0  0  0  0
    8.8960   -3.2610   23.4240 C   0  0  0  0  0  0  0  0  0  0  0  0
    7.2820   -4.6320   24.6300 C   0  0  0  0  0  0  0  0  0  0  0  0
    5.2460   -5.4850   22.6140 C   0  0  0  0  0  0  0  0  0  0  0  0
    4.0700   -3.7130   23.9210 C   0  0  1  0  0  0  0  0  0  0  0  0
    9.6910   -0.1640   23.5110 C   0  0  0  0  0  0  0  0  0  0  0  0
   11.6120   -1.3990   22.3240 C   0  0  0  0  0  0  0  0  0  0  0  0
    9.8310   -3.4880   24.4590 C   0  0  0  0  0  0  0  0  0  0  0  0
    8.3080   -4.8550   25.7230 C   0  0  0  0  0  0  0  0  0  0  0  0
    3.9900   -6.3540   23.4060 S   0  0  0  0  0  0  0  0  0  0  0  0
    3.1060   -4.9160   23.8670 C   0  0  0  0  0  0  0  0  0  0  0  0
    4.3330   -3.4880   25.3870 N   0  0  0  0  0  0  0  0  0  0  0  0
   10.7190    0.8760   23.9380 C   0  0  0  0  0  0  0  0  0  0  0  0
   12.5380   -0.4320   22.7280 C   0  0  0  0  0  0  0  0  0  0  0  0
    9.5450   -4.2740   25.5880 C   0  0  0  0  0  0  0  0  0  0  0  0
    3.1260   -7.0340   22.4870 O   0  0  0  0  0  0  0  0  0  0  0  0
    4.5150   -6.9830   24.5930 O   0  0  0  0  0  0  0  0  0  0  0  0
    3.2730   -3.9410   26.3260 C   0  0  0  0  0  0  0  0  0  0  0  0
    4.6580   -2.2140   25.8990 C   0  0  0  0  0  0  0  0  0  0  0  0
   12.1470    0.6670   23.4990 C   0  0  0  0  0  0  0  0  0  0  0  0
   10.4730   -4.4570   26.5300 F   0  0  0  0  0  0  0  0  0  0  0  0
    2.6020   -2.7590   26.6440 C   0  0  0  0  0  0  0  0  0  0  0  0
    3.4570   -1.6650   26.6880 C   0  0  0  0  0  0  0  0  0  0  0  0
    5.7150   -1.6330   25.7630 O   0  0  0  0  0  0  0  0  0  0  0  0
  1  2  2  3
  1  3  1  0
  3  4  1  0
  5  3  1  1
  4  6  2  0
  4  7  1  0
  5  8  1  0
  5  9  1  0
  7 10  1  1
  7 11  1  0
  8 11  2  0
  8 12  1  0
  9 13  1  1
  9 14  1  0
 10 15  2  0
 10 16  1  0
 11 17  1  0
 12 18  2  0
 19 13  1  0
 14 20  1  0
 19 20  1  0
 14 21  1  1
 15 22  1  0
 16 23  2  0
 17 24  2  0
 18 24  1  0
 19 25  2  0
 19 26  2  0
 21 27  1  0
 21 28  1  0
 22 29  2  0
 23 29  1  0
 24 30  1  0
 27 31  1  0
 28 32  1  0
 31 32  1  0
 28 33  2  0
M  END
