DAV-CRI-f9b12666-7-bromoalkyne
     RDKit          3D

 40 43  0  0  0  0  0  0  0  0999 V2000
    6.8680   -4.2320   19.9860 C   0  0  0  0  0  0  0  0  0  0  0  0
    5.9910   -3.3660   19.4500 C   0  0  0  0  0  0  0  0  0  0  0  0
    6.8160   -4.6280   21.3630 N   0  0  0  0  0  0  0  0  0  0  0  0
    8.0740   -5.0170   22.0130 C   0  0  0  0  0  0  0  0  0  0  0  0
    5.7210   -5.4960   21.8930 C   0  0  1  0  0  0  0  0  0  0  0  0
    8.1170   -5.0630   23.4860 C   0  0  1  0  0  0  0  0  0  0  0  0
    6.2610   -6.2340   23.1140 C   0  0  0  0  0  0  0  0  0  0  0  0
    4.5470   -4.6440   22.2790 N   0  0  0  0  0  0  0  0  0  0  0  0
    9.0890   -3.9780   23.7550 C   0  0  0  0  0  0  0  0  0  0  0  0
    6.9040   -5.1990   24.0410 C   0  0  0  0  0  0  0  0  0  0  0  0
    3.8490   -4.9510   23.4170 C   0  0  0  0  0  0  0  0  0  0  0  0
    9.0200   -2.6080   23.4760 N   0  0  0  0  0  0  0  0  0  0  0  0
   10.5920   -4.4670   24.4740 S   0  0  0  0  0  0  0  0  0  0  0  0
    3.5330   -4.0360   24.1580 O   0  0  0  0  0  0  0  0  0  0  0  0
    3.5480   -6.3050   23.7640 C   0  0  2  0  0  0  0  0  0  0  0  0
   10.2020   -2.0220   23.8390 C   0  0  0  0  0  0  0  0  0  0  0  0
   11.2080   -2.8530   24.4110 C   0  0  0  0  0  0  0  0  0  0  0  0
    2.8680   -7.2030   22.9220 C   0  0  0  0  0  0  0  0  0  0  0  0
    2.6220   -6.2530   24.9270 N   0  0  0  0  0  0  0  0  0  0  0  0
   10.3980   -0.5950   23.6230 C   0  0  0  0  0  0  0  0  0  0  0  0
   12.4670   -2.3750   24.8320 C   0  0  0  0  0  0  0  0  0  0  0  0
    1.5570   -7.0090   22.4180 C   0  0  0  0  0  0  0  0  0  0  0  0
    2.8570   -7.4670   25.6800 C   0  0  1  0  0  0  0  0  0  0  0  0
   11.5520   -0.0210   23.9610 C   0  0  0  0  0  0  0  0  0  0  0  0
   12.6610   -0.8680   24.5970 C   0  0  0  0  0  0  0  0  0  0  0  0
    1.0400   -8.1240   21.7890 N   0  0  0  0  0  0  0  0  0  0  0  0
    0.8950   -5.9910   22.4800 O   0  0  0  0  0  0  0  0  0  0  0  0
    3.9790   -7.1980   26.6720 C   0  0  0  0  0  0  0  0  0  0  0  0
    1.6340   -7.7400   26.3880 N   0  0  0  0  0  0  0  0  0  0  0  0
   11.6970    1.3140   23.6790 C   0  0  0  0  0  0  0  0  0  0  0  0
   12.8480    1.5750   23.0020 C   0  0  0  0  0  0  0  0  0  0  0  0
   10.8000    2.3770   23.9760 C   0  0  0  0  0  0  0  0  0  0  0  0
   13.1650    2.8700   22.5870 C   0  0  0  0  0  0  0  0  0  0  0  0
   11.1610    3.8110   23.5120 C   0  0  0  0  0  0  0  0  0  0  0  0
   12.3490    3.9620   22.8310 C   0  0  0  0  0  0  0  0  0  0  0  0
   10.1790    5.2740   23.7730 S   0  0  0  0  0  0  0  0  0  0  0  0
   12.7780    5.1700   22.3680 O   0  0  0  0  0  0  0  0  0  0  0  0
    8.9070    5.0440   22.6970 N   0  0  0  0  0  0  0  0  0  0  0  0
    9.5590    5.3120   25.0730 O   0  0  0  0  0  0  0  0  0  0  0  0
   10.9230    6.4060   23.2670 O   0  0  0  0  0  0  0  0  0  0  0  0
  1  2  2  3
  1  3  1  0
  3  4  1  0
  3  5  1  0
  4  6  1  0
  5  7  1  0
  5  8  1  1
  6  9  1  1
  6 10  1  0
  7 10  1  0
  8 11  1  0
  9 12  2  0
  9 13  1  0
 11 14  2  0
 11 15  1  0
 12 16  1  0
 13 17  1  0
 16 17  2  0
 15 18  1  6
 15 19  1  0
 16 20  1  0
 17 21  1  0
 18 22  1  0
 19 23  1  0
 20 24  2  0
 21 25  2  0
 24 25  1  0
 22 26  1  0
 22 27  2  0
 23 28  1  1
 23 29  1  0
 24 30  1  0
 30 31  2  0
 30 32  1  0
 31 33  1  0
 32 34  2  0
 33 35  2  0
 34 35  1  0
 34 36  1  0
 35 37  1  0
 36 38  1  0
 36 39  2  0
 36 40  2  0
M  END
