DAV-CRI-f9b12666-1-nitrile
     RDKit          3D

 39 42  0  0  0  0  0  0  0  0999 V2000
    6.8100   -3.9830   19.8420 C   0  0  0  0  0  0  0  0  0  0  0  0
    6.0440   -3.3290   19.0410 N   0  0  0  0  0  0  0  0  0  0  0  0
    6.4240   -4.0080   21.2220 N   0  0  0  0  0  0  0  0  0  0  0  0
    7.3620   -3.4910   22.1710 C   0  0  0  0  0  0  0  0  0  0  0  0
    5.9460   -5.0670   22.0650 C   0  0  2  0  0  0  0  0  0  0  0  0
    8.3330   -4.6160   22.5760 C   0  0  1  0  0  0  0  0  0  0  0  0
    6.9000   -6.1780   22.0530 C   0  0  0  0  0  0  0  0  0  0  0  0
    4.5780   -5.4590   22.0530 N   0  0  0  0  0  0  0  0  0  0  0  0
    9.4260   -3.8710   23.1690 C   0  0  0  0  0  0  0  0  0  0  0  0
    7.8300   -5.8310   23.0370 C   0  0  0  0  0  0  0  0  0  0  0  0
    3.9060   -5.2570   23.2540 C   0  0  0  0  0  0  0  0  0  0  0  0
    9.5120   -2.5530   22.7200 N   0  0  0  0  0  0  0  0  0  0  0  0
   10.5920   -4.2890   24.2710 S   0  0  0  0  0  0  0  0  0  0  0  0
    4.3750   -4.4850   24.0910 O   0  0  0  0  0  0  0  0  0  0  0  0
    2.6890   -5.9330   23.4940 C   0  0  1  0  0  0  0  0  0  0  0  0
   10.5260   -1.9510   23.3100 C   0  0  0  0  0  0  0  0  0  0  0  0
   11.2740   -2.7080   24.1870 C   0  0  0  0  0  0  0  0  0  0  0  0
    2.5140   -7.1330   22.8260 C   0  0  0  0  0  0  0  0  0  0  0  0
    2.6180   -6.2880   24.9430 N   0  0  0  0  0  0  0  0  0  0  0  0
   10.8560   -0.5490   23.0880 C   0  0  0  0  0  0  0  0  0  0  0  0
   12.4650   -2.1090   24.9050 C   0  0  0  0  0  0  0  0  0  0  0  0
    1.2640   -7.3040   22.2210 C   0  0  0  0  0  0  0  0  0  0  0  0
    2.8830   -7.6370   25.3950 C   0  0  1  0  0  0  0  0  0  0  0  0
   11.9380    0.0740   23.8030 C   0  0  0  0  0  0  0  0  0  0  0  0
   12.7940   -0.7730   24.7500 C   0  0  0  0  0  0  0  0  0  0  0  0
    1.2170   -8.5030   21.3390 N   0  0  0  0  0  0  0  0  0  0  0  0
    0.3030   -6.5520   22.3620 O   0  0  0  0  0  0  0  0  0  0  0  0
    2.8610   -7.7910   26.7720 C   0  0  0  0  0  0  0  0  0  0  0  0
    1.9260   -8.5390   24.7920 N   0  0  0  0  0  0  0  0  0  0  0  0
   11.9610    1.4000   23.5520 C   0  0  0  0  0  0  0  0  0  0  0  0
   10.7400    1.7840   24.0670 C   0  0  0  0  0  0  0  0  0  0  0  0
   12.8280    2.3070   22.9710 C   0  0  0  0  0  0  0  0  0  0  0  0
   10.3180    3.0560   24.0510 C   0  0  0  0  0  0  0  0  0  0  0  0
   12.4020    3.6560   22.9430 C   0  0  0  0  0  0  0  0  0  0  0  0
   11.1430    3.9890   23.5010 C   0  0  0  0  0  0  0  0  0  0  0  0
   10.5830    5.6030   23.5290 S   0  0  0  0  0  0  0  0  0  0  0  0
    9.1330    5.5380   22.6810 N   0  0  0  0  0  0  0  0  0  0  0  0
   11.4810    6.4280   22.7750 O   0  0  0  0  0  0  0  0  0  0  0  0
   10.2420    5.8800   24.9070 O   0  0  0  0  0  0  0  0  0  0  0  0
  1  2  2  3
  1  3  1  0
  3  4  1  0
  3  5  1  0
  4  6  1  0
  5  7  1  0
  5  8  1  6
  6  9  1  1
  6 10  1  0
  7 10  1  0
  8 11  1  0
  9 12  2  0
  9 13  1  0
 11 14  2  0
 11 15  1  0
 12 16  1  0
 13 17  1  0
 16 17  2  0
 15 18  1  6
 15 19  1  0
 16 20  1  0
 17 21  1  0
 18 22  1  0
 19 23  1  0
 20 24  2  0
 21 25  2  0
 24 25  1  0
 22 26  1  0
 22 27  2  0
 23 28  1  1
 23 29  1  0
 24 30  1  0
 30 31  2  0
 30 32  1  0
 31 33  1  0
 32 34  2  0
 33 35  2  0
 34 35  1  0
 35 36  1  0
 36 37  1  0
 36 38  2  0
 36 39  2  0
M  END
