DAV-CRI-1c77f7a9-3-vinylsulfonamide
     RDKit          3D

 29 32  0  0  0  0  0  0  0  0999 V2000
    7.5780   -2.9960   18.4500 C   0  0  0  0  0  0  0  0  0  0  0  0
    7.3380   -2.3670   19.5670 C   0  0  0  0  0  0  0  0  0  0  0  0
    6.4040   -3.3610   20.6790 S   0  0  0  0  0  0  0  0  0  0  0  0
    5.0330   -3.3630   20.2380 O   0  0  0  0  0  0  0  0  0  0  0  0
    7.0270   -4.5950   21.0880 O   0  0  0  0  0  0  0  0  0  0  0  0
    6.6400   -2.3430   22.0000 N   0  0  0  0  0  0  0  0  0  0  0  0
    6.2060   -3.0530   23.1850 C   0  0  0  0  0  0  0  0  0  0  0  0
    7.9200   -1.5990   22.1410 C   0  0  2  0  0  0  0  0  0  0  0  0
    7.4030   -3.5700   23.9600 C   0  0  0  0  0  0  0  0  0  0  0  0
    9.0170   -2.4020   22.5470 C   0  0  2  0  0  0  0  0  0  0  0  0
    7.6820   -0.4970   23.1660 C   0  0  0  0  0  0  0  0  0  0  0  0
    7.0740   -4.4940   25.1400 C   0  0  0  0  0  0  0  0  0  0  0  0
    8.7450   -3.2400   23.6440 C   0  0  0  0  0  0  0  0  0  0  0  0
   10.1130   -1.5480   22.8440 C   0  0  0  0  0  0  0  0  0  0  0  0
    7.2030   -0.9790   24.3860 C   0  0  0  0  0  0  0  0  0  0  0  0
    8.2440   -5.0120   25.9310 C   0  0  0  0  0  0  0  0  0  0  0  0
    9.8080   -3.7450   24.4160 C   0  0  0  0  0  0  0  0  0  0  0  0
   11.3280   -1.7040   22.1140 C   0  0  0  0  0  0  0  0  0  0  0  0
   10.0740   -0.4650   23.9170 C   0  0  0  0  0  0  0  0  0  0  0  0
    6.7220   -0.0710   25.3290 C   0  0  0  0  0  0  0  0  0  0  0  0
    9.6190   -4.5940   25.5170 C   0  0  0  0  0  0  0  0  0  0  0  0
   12.4960   -0.9760   22.2660 C   0  0  0  0  0  0  0  0  0  0  0  0
   11.3980    0.3110   24.0330 C   0  0  0  0  0  0  0  0  0  0  0  0
    7.2450    1.2040   25.4100 C   0  0  0  0  0  0  0  0  0  0  0  0
    5.7040   -0.3650   26.2330 C   0  0  0  0  0  0  0  0  0  0  0  0
   12.5230    0.0960   23.2870 C   0  0  0  0  0  0  0  0  0  0  0  0
    6.8220    2.1620   26.3120 C   0  0  0  0  0  0  0  0  0  0  0  0
    5.2190    0.5140   27.1590 N   0  0  0  0  0  0  0  0  0  0  0  0
    5.8040    1.8730   27.2180 C   0  0  0  0  0  0  0  0  0  0  0  0
  1  2  1  0
  3  2  1  0
  3  4  2  0
  3  5  2  0
  3  6  1  0
  6  7  1  0
  6  8  1  0
  7  9  1  0
  8 10  1  0
  8 11  1  1
  9 12  1  0
  9 13  2  0
 10 13  1  0
 10 14  1  1
 11 15  3  0
 12 16  2  0
 13 17  1  0
 14 18  2  0
 14 19  1  0
 15 20  1  0
 16 21  1  0
 17 21  2  0
 18 22  1  0
 19 23  2  0
 20 24  2  0
 20 25  1  0
 22 26  2  0
 23 26  1  0
 24 27  1  0
 25 28  2  0
 27 29  2  0
 28 29  1  0
M  END
