DAV-CRI-d1e0885a-5-vinylsulfonamide
     RDKit          3D

 22 23  0  0  0  0  0  0  0  0999 V2000
    8.0200   -3.4240   19.5650 C   0  0  0  0  0  0  0  0  0  0  0  0
    6.8690   -2.7250   18.9130 C   0  0  0  0  0  0  0  0  0  0  0  0
    5.6880   -3.3770   19.9960 S   0  0  0  0  0  0  0  0  0  0  0  0
    4.4150   -2.9660   19.6240 O   0  0  0  0  0  0  0  0  0  0  0  0
    5.8560   -4.7920   20.0340 O   0  0  0  0  0  0  0  0  0  0  0  0
    6.2330   -2.6320   21.4220 N   0  0  0  0  0  0  0  0  0  0  0  0
    7.0430   -1.3930   21.3000 C   0  0  0  0  0  0  0  0  0  0  0  0
    6.5000   -3.4560   22.5350 C   0  0  0  0  0  0  0  0  0  0  0  0
    8.4400   -1.5240   21.7910 C   0  0  0  0  0  0  0  0  0  0  0  0
    7.8350   -3.4300   22.9650 C   0  0  0  0  0  0  0  0  0  0  0  0
    8.5450   -2.2450   23.0520 N   0  0  0  0  0  0  0  0  0  0  0  0
    9.8660   -2.4440   23.4630 C   0  0  0  0  0  0  0  0  0  0  0  0
   10.7250   -1.3740   23.5720 C   0  0  0  0  0  0  0  0  0  0  0  0
   11.7140   -1.3140   22.6370 C   0  0  0  0  0  0  0  0  0  0  0  0
   10.7870   -0.2810   24.4890 C   0  0  0  0  0  0  0  0  0  0  0  0
   11.8790   -2.2410   21.6510 C   0  0  0  0  0  0  0  0  0  0  0  0
   12.6360   -0.1460   22.7490 C   0  0  0  0  0  0  0  0  0  0  0  0
   12.1320    0.7890   24.0610 S   0  0  0  0  0  0  0  0  0  0  0  0
   10.0010   -0.0190   25.5340 N   0  0  0  0  0  0  0  0  0  0  0  0
   13.0310   -2.3530   20.9900 N   0  0  0  0  0  0  0  0  0  0  0  0
    8.6220   -0.4250   25.6850 C   0  0  0  0  0  0  0  0  0  0  0  0
    8.1570   -0.3160   26.8090 O   0  0  0  0  0  0  0  0  0  0  0  0
  1  2  1  0
  3  2  1  0
  3  4  2  0
  3  5  2  0
  3  6  1  0
  6  7  1  0
  6  8  1  0
  7  9  1  0
  8 10  1  0
  9 11  1  0
 10 11  1  0
 11 12  1  0
 12 13  1  0
 13 14  1  0
 13 15  2  0
 14 16  1  0
 14 17  2  0
 15 18  1  0
 17 18  1  0
 15 19  1  0
 16 20  3  0
 19 21  1  0
 21 22  1  0
M  END
