DAV-CRI-1c77f7a9-6-nitrile
     RDKit          3D

 27 30  0  0  0  0  0  0  0  0999 V2000
    7.1390   -3.4540   19.4880 C   0  0  0  0  0  0  0  0  0  0  0  0
    6.2880   -3.0300   18.6320 N   0  0  0  0  0  0  0  0  0  0  0  0
    7.2560   -2.7850   20.6740 N   0  0  0  0  0  0  0  0  0  0  0  0
    6.0540   -2.1740   21.2840 C   0  0  0  0  0  0  0  0  0  0  0  0
    8.4050   -2.9530   21.5770 C   0  0  1  0  0  0  0  0  0  0  0  0
    6.3600   -2.0450   22.7590 C   0  0  0  0  0  0  0  0  0  0  0  0
    8.6020   -1.5850   22.2090 C   0  0  1  0  0  0  0  0  0  0  0  0
    7.9070   -3.9580   22.6380 C   0  0  0  0  0  0  0  0  0  0  0  0
    5.2170   -2.2550   23.7620 C   0  0  0  0  0  0  0  0  0  0  0  0
    7.6550   -1.7560   23.1830 C   0  0  0  0  0  0  0  0  0  0  0  0
    9.9210   -1.2420   22.5580 C   0  0  0  0  0  0  0  0  0  0  0  0
    8.5820   -4.2900   23.5950 O   0  0  0  0  0  0  0  0  0  0  0  0
    6.5020   -4.4250   22.3340 N   0  0  0  0  0  0  0  0  0  0  0  0
    5.5700   -2.1370   25.2550 C   0  0  0  0  0  0  0  0  0  0  0  0
    7.9530   -1.6630   24.4990 C   0  0  0  0  0  0  0  0  0  0  0  0
   10.9470   -2.1840   22.7900 C   0  0  0  0  0  0  0  0  0  0  0  0
   10.2760    0.1080   22.6890 C   0  0  0  0  0  0  0  0  0  0  0  0
    5.4550   -4.9360   23.1790 C   0  0  0  0  0  0  0  0  0  0  0  0
    7.0310   -1.8220   25.5070 C   0  0  0  0  0  0  0  0  0  0  0  0
   12.2710   -1.8270   23.1400 C   0  0  0  0  0  0  0  0  0  0  0  0
   11.5580    0.5340   23.0290 C   0  0  0  0  0  0  0  0  0  0  0  0
    4.5150   -4.1510   23.8150 C   0  0  0  0  0  0  0  0  0  0  0  0
    5.3270   -6.3130   23.4010 C   0  0  0  0  0  0  0  0  0  0  0  0
   12.6630   -0.4890   23.2810 C   0  0  0  0  0  0  0  0  0  0  0  0
    3.5250   -4.6460   24.6130 C   0  0  0  0  0  0  0  0  0  0  0  0
    4.3470   -6.8720   24.2000 N   0  0  0  0  0  0  0  0  0  0  0  0
    3.4720   -6.0160   24.7820 C   0  0  0  0  0  0  0  0  0  0  0  0
  1  2  2  3
  1  3  1  0
  3  4  1  0
  3  5  1  0
  4  6  1  0
  5  7  1  0
  5  8  1  1
  6  9  1  0
  6 10  2  0
  7 10  1  0
  7 11  1  1
  8 12  2  0
  8 13  1  0
  9 14  2  0
 10 15  1  0
 11 16  2  0
 11 17  1  0
 13 18  1  0
 14 19  1  0
 15 19  2  0
 16 20  1  0
 17 21  2  0
 18 22  2  0
 18 23  1  0
 20 24  2  0
 21 24  1  0
 22 25  1  0
 23 26  2  0
 25 27  2  0
 26 27  1  0
M  END
