DAV-CRI-1c77f7a9-6-chloroacetamide
     RDKit          3D

 28 31  0  0  0  0  0  0  0  0999 V2000
    7.3780   -3.0400   18.9370 C   0  0  0  0  0  0  0  0  0  0  0  0
    6.6470   -3.4020   19.9780 C   0  0  0  0  0  0  0  0  0  0  0  0
    5.6630   -4.1590   19.8250 O   0  0  0  0  0  0  0  0  0  0  0  0
    7.0660   -2.9150   21.2570 N   0  0  0  0  0  0  0  0  0  0  0  0
    6.3890   -3.3380   22.4980 C   0  0  0  0  0  0  0  0  0  0  0  0
    8.2720   -2.0560   21.4660 C   0  0  2  0  0  0  0  0  0  0  0  0
    7.4320   -3.7480   23.5340 C   0  0  0  0  0  0  0  0  0  0  0  0
    8.7260   -1.9040   22.8000 C   0  0  1  0  0  0  0  0  0  0  0  0
    7.9290   -0.6820   20.8970 C   0  0  0  0  0  0  0  0  0  0  0  0
    7.1310   -4.9820   24.4200 C   0  0  0  0  0  0  0  0  0  0  0  0
    8.6110   -3.0060   23.6470 C   0  0  0  0  0  0  0  0  0  0  0  0
   10.0160   -1.3220   22.8420 C   0  0  0  0  0  0  0  0  0  0  0  0
    7.0750   -0.5850   20.0110 O   0  0  0  0  0  0  0  0  0  0  0  0
    8.6320    0.4680   21.4710 N   0  0  0  0  0  0  0  0  0  0  0  0
    8.2490   -5.2880   25.4080 C   0  0  0  0  0  0  0  0  0  0  0  0
    9.6060   -3.3440   24.5720 C   0  0  0  0  0  0  0  0  0  0  0  0
   10.1120   -0.1750   23.6630 C   0  0  0  0  0  0  0  0  0  0  0  0
   11.2680   -1.7940   22.1180 C   0  0  0  0  0  0  0  0  0  0  0  0
    8.1160    1.7660   21.7230 C   0  0  0  0  0  0  0  0  0  0  0  0
    9.4740   -4.4280   25.4340 C   0  0  0  0  0  0  0  0  0  0  0  0
   11.2460    0.5990   23.8950 C   0  0  0  0  0  0  0  0  0  0  0  0
   12.5040   -0.9220   22.3960 C   0  0  0  0  0  0  0  0  0  0  0  0
    8.9710    2.7710   22.1570 C   0  0  0  0  0  0  0  0  0  0  0  0
    6.7680    2.1300   21.5630 C   0  0  0  0  0  0  0  0  0  0  0  0
   12.5190    0.1910   23.2120 C   0  0  0  0  0  0  0  0  0  0  0  0
    8.5000    4.0410   22.4090 C   0  0  0  0  0  0  0  0  0  0  0  0
    6.2490    3.3740   21.7990 N   0  0  0  0  0  0  0  0  0  0  0  0
    7.1680    4.3610   22.2400 C   0  0  0  0  0  0  0  0  0  0  0  0
  1  2  1  0
  2  3  2  0
  2  4  1  0
  4  5  1  0
  4  6  1  0
  5  7  1  0
  6  8  1  0
  6  9  1  1
  7 10  1  0
  7 11  2  0
  8 11  1  0
  8 12  1  6
  9 13  2  0
  9 14  1  0
 10 15  2  0
 11 16  1  0
 12 17  2  0
 12 18  1  0
 14 19  1  0
 15 20  1  0
 16 20  2  0
 17 21  1  0
 18 22  2  0
 19 23  2  0
 19 24  1  0
 21 25  2  0
 22 25  1  0
 23 26  1  0
 24 27  2  0
 26 28  2  0
 27 28  1  0
M  END
