DAV-CRI-3edb475e-3-bromoalkyne
     RDKit          3D

 13 13  0  0  0  0  0  0  0  0999 V2000
    7.5310   -3.4620   20.0280 C   0  0  0  0  0  0  0  0  0  0  0  0
    6.0400   -3.6200   19.7190 C   0  0  0  0  0  0  0  0  0  0  0  0
    8.1170   -2.2840   20.6060 N   0  0  0  0  0  0  0  0  0  0  0  0
    8.1880   -1.7440   22.0420 C   0  0  1  0  0  0  0  0  0  0  0  0
    7.6790   -2.5670   23.0110 C   0  0  0  0  0  0  0  0  0  0  0  0
    9.5950   -1.2610   22.4280 C   0  0  0  0  0  0  0  0  0  0  0  0
   10.6720   -1.8610   21.8260 C   0  0  0  0  0  0  0  0  0  0  0  0
    9.8510   -0.2160   23.3750 C   0  0  0  0  0  0  0  0  0  0  0  0
   12.0700   -1.4460   22.1220 C   0  0  0  0  0  0  0  0  0  0  0  0
   11.1880    0.1570   23.6460 C   0  0  0  0  0  0  0  0  0  0  0  0
    8.9510    0.3820   23.9670 O   0  0  0  0  0  0  0  0  0  0  0  0
   13.2580   -2.2700   21.2820 Cl  0  0  0  0  0  0  0  0  0  0  0  0
   12.2820   -0.4350   23.0380 C   0  0  0  0  0  0  0  0  0  0  0  0
  1  2  2  3
  1  3  1  0
  3  4  1  0
  4  5  1  1
  4  6  1  0
  6  7  2  0
  6  8  1  0
  7  9  1  0
  8 10  2  0
  8 11  1  0
  9 12  1  0
  9 13  2  0
 10 13  1  0
M  END
