DAV-CRI-d1e0885a-6-bromoalkyne
     RDKit          3D

 20 21  0  0  0  0  0  0  0  0999 V2000
    6.8360   -3.3280   19.6150 C   0  0  0  0  0  0  0  0  0  0  0  0
    5.8790   -2.7980   18.6310 C   0  0  0  0  0  0  0  0  0  0  0  0
    6.7610   -2.7960   20.8960 N   0  0  0  0  0  0  0  0  0  0  0  0
    7.1470   -1.4120   21.0830 C   0  0  0  0  0  0  0  0  0  0  0  0
    6.7150   -3.5480   22.1190 C   0  0  0  0  0  0  0  0  0  0  0  0
    8.4260   -1.3660   21.7910 C   0  0  0  0  0  0  0  0  0  0  0  0
    7.9520   -3.4880   22.7730 C   0  0  0  0  0  0  0  0  0  0  0  0
    8.4910   -2.2390   22.9710 N   0  0  0  0  0  0  0  0  0  0  0  0
    9.8160   -2.3690   23.3520 C   0  0  0  0  0  0  0  0  0  0  0  0
   10.6470   -1.2730   23.4180 C   0  0  0  0  0  0  0  0  0  0  0  0
   11.7030   -1.2570   22.5620 C   0  0  0  0  0  0  0  0  0  0  0  0
   10.6200   -0.1030   24.2550 C   0  0  0  0  0  0  0  0  0  0  0  0
   11.9830   -2.2390   21.6580 C   0  0  0  0  0  0  0  0  0  0  0  0
   12.5130   -0.0280   22.7450 C   0  0  0  0  0  0  0  0  0  0  0  0
   11.9500    1.0330   23.9250 S   0  0  0  0  0  0  0  0  0  0  0  0
    9.7540    0.2080   25.2040 N   0  0  0  0  0  0  0  0  0  0  0  0
   13.1550   -2.3260   21.0270 N   0  0  0  0  0  0  0  0  0  0  0  0
    9.1440   -0.8330   26.0130 C   0  0  0  0  0  0  0  0  0  0  0  0
    8.7350   -0.3790   27.4040 C   0  0  0  0  0  0  0  0  0  0  0  0
    8.9610   -1.9900   25.6470 O   0  0  0  0  0  0  0  0  0  0  0  0
  1  2  2  3
  1  3  1  0
  3  4  1  0
  3  5  1  0
  4  6  1  0
  5  7  1  0
  6  8  1  0
  7  8  1  0
  8  9  1  0
  9 10  1  0
 10 11  1  0
 10 12  2  0
 11 13  1  0
 11 14  2  0
 12 15  1  0
 14 15  1  0
 12 16  1  0
 13 17  3  0
 16 18  1  0
 18 19  1  0
 18 20  2  0
M  END
