DAV-CRI-3edb475e-1-vinylsulfonamide
     RDKit          3D

 16 16  0  0  0  0  0  0  0  0999 V2000
    7.9140   -3.3560   19.3610 C   0  0  0  0  0  0  0  0  0  0  0  0
    6.7860   -2.4060   19.4520 C   0  0  0  0  0  0  0  0  0  0  0  0
    6.2170   -2.2950   21.1010 S   0  0  0  0  0  0  0  0  0  0  0  0
    4.9950   -3.2590   21.2510 O   0  0  0  0  0  0  0  0  0  0  0  0
    6.1320   -0.8570   21.2990 O   0  0  0  0  0  0  0  0  0  0  0  0
    7.6630   -2.7620   21.9160 N   0  0  0  0  0  0  0  0  0  0  0  0
    8.2540   -2.0590   23.1070 C   0  0  2  0  0  0  0  0  0  0  0  0
    7.4030   -1.1170   23.6220 C   0  0  0  0  0  0  0  0  0  0  0  0
    9.6740   -1.4500   22.9210 C   0  0  0  0  0  0  0  0  0  0  0  0
   10.0220   -0.2030   23.4430 C   0  0  0  0  0  0  0  0  0  0  0  0
   10.7170   -2.0820   22.2340 C   0  0  0  0  0  0  0  0  0  0  0  0
   11.4110    0.3730   23.2680 C   0  0  0  0  0  0  0  0  0  0  0  0
   12.0070   -1.5320   22.0820 C   0  0  0  0  0  0  0  0  0  0  0  0
   12.3750   -0.3070   22.6010 C   0  0  0  0  0  0  0  0  0  0  0  0
   13.1690   -2.3940   21.2200 Cl  0  0  0  0  0  0  0  0  0  0  0  0
   13.4920    0.1740   22.4820 O   0  0  0  0  0  0  0  0  0  0  0  0
  1  2  1  0
  2  3  1  0
  3  4  2  0
  3  5  2  0
  3  6  1  0
  6  7  1  0
  7  8  1  6
  7  9  1  0
  9 10  2  0
  9 11  1  0
 10 12  1  0
 11 13  2  0
 12 14  2  0
 13 14  1  0
 13 15  1  0
 14 16  1  0
M  END
