DAV-CRI-f9b12666-9-acrylamide
     RDKit          3D

 42 45  0  0  0  0  0  0  0  0999 V2000
    7.1780   -2.9140   18.6860 C   0  0  0  0  0  0  0  0  0  0  0  0
    6.6140   -2.7450   19.8860 C   0  0  0  0  0  0  0  0  0  0  0  0
    6.0370   -4.0460   20.3950 C   0  0  0  0  0  0  0  0  0  0  0  0
    5.1210   -4.5880   19.8070 O   0  0  0  0  0  0  0  0  0  0  0  0
    6.6390   -4.6040   21.5130 N   0  0  0  0  0  0  0  0  0  0  0  0
    7.6360   -3.8250   22.2220 C   0  0  0  0  0  0  0  0  0  0  0  0
    5.9510   -5.3320   22.5470 C   0  0  2  0  0  0  0  0  0  0  0  0
    7.7110   -4.2630   23.7140 C   0  0  2  0  0  0  0  0  0  0  0  0
    6.9460   -6.3180   23.0410 C   0  0  0  0  0  0  0  0  0  0  0  0
    4.7270   -5.8490   22.3570 N   0  0  0  0  0  0  0  0  0  0  0  0
    9.0640   -3.8750   24.1430 C   0  0  0  0  0  0  0  0  0  0  0  0
    7.7110   -5.7030   24.0220 C   0  0  0  0  0  0  0  0  0  0  0  0
    3.8280   -5.3270   23.2780 C   0  0  0  0  0  0  0  0  0  0  0  0
    9.5390   -2.7010   23.5660 N   0  0  0  0  0  0  0  0  0  0  0  0
   10.1900   -4.6700   25.2520 S   0  0  0  0  0  0  0  0  0  0  0  0
    4.0750   -4.2690   23.8540 O   0  0  0  0  0  0  0  0  0  0  0  0
    2.6330   -6.0280   23.5400 C   0  0  1  0  0  0  0  0  0  0  0  0
   10.7700   -2.4730   23.9780 C   0  0  0  0  0  0  0  0  0  0  0  0
   11.3120   -3.3940   24.8700 C   0  0  0  0  0  0  0  0  0  0  0  0
    2.5250   -7.2600   22.9160 C   0  0  0  0  0  0  0  0  0  0  0  0
    2.6210   -6.3070   25.0070 N   0  0  0  0  0  0  0  0  0  0  0  0
   11.4160   -1.4000   23.5140 C   0  0  0  0  0  0  0  0  0  0  0  0
   12.7250   -3.1230   25.3100 C   0  0  0  0  0  0  0  0  0  0  0  0
    1.2220   -7.4460   22.1540 C   0  0  0  0  0  0  0  0  0  0  0  0
    3.0610   -7.6440   25.3710 C   0  0  2  0  0  0  0  0  0  0  0  0
   12.6630   -1.1110   23.8540 C   0  0  0  0  0  0  0  0  0  0  0  0
   13.3460   -1.9970   24.7770 C   0  0  0  0  0  0  0  0  0  0  0  0
    1.0600   -8.6830   21.6030 N   0  0  0  0  0  0  0  0  0  0  0  0
    0.3740   -6.5780   22.0220 O   0  0  0  0  0  0  0  0  0  0  0  0
    2.3420   -8.7030   24.5610 C   0  0  0  0  0  0  0  0  0  0  0  0
    2.6750   -7.8140   26.7510 N   0  0  0  0  0  0  0  0  0  0  0  0
   13.1240    0.0150   23.2350 C   0  0  0  0  0  0  0  0  0  0  0  0
   12.3000    1.1310   23.3980 C   0  0  0  0  0  0  0  0  0  0  0  0
   12.8350    2.3370   22.9290 C   0  0  0  0  0  0  0  0  0  0  0  0
   10.9280    1.1340   24.0280 C   0  0  0  0  0  0  0  0  0  0  0  0
   12.2660    3.5980   22.9640 C   0  0  0  0  0  0  0  0  0  0  0  0
   10.3180    2.5430   24.0630 C   0  0  0  0  0  0  0  0  0  0  0  0
   10.9000    3.7190   23.5880 C   0  0  0  0  0  0  0  0  0  0  0  0
   10.1040    5.2970   23.7110 S   0  0  0  0  0  0  0  0  0  0  0  0
    8.7870    5.1480   22.6750 N   0  0  0  0  0  0  0  0  0  0  0  0
   10.9720    6.2940   23.1330 O   0  0  0  0  0  0  0  0  0  0  0  0
    9.5550    5.4490   25.0380 O   0  0  0  0  0  0  0  0  0  0  0  0
  1  2  1  0
  2  3  1  0
  3  4  2  0
  3  5  1  0
  5  6  1  0
  5  7  1  0
  6  8  1  0
  7  9  1  0
  7 10  1  6
  8 11  1  6
  8 12  1  0
  9 12  1  0
 10 13  1  0
 11 14  2  0
 11 15  1  0
 13 16  2  0
 13 17  1  0
 14 18  1  0
 15 19  1  0
 18 19  2  0
 17 20  1  6
 17 21  1  0
 18 22  1  0
 19 23  1  0
 20 24  1  0
 21 25  1  0
 22 26  2  0
 23 27  2  0
 26 27  1  0
 24 28  1  0
 24 29  2  0
 25 30  1  6
 25 31  1  0
 26 32  1  0
 32 33  1  0
 33 34  2  0
 33 35  1  0
 34 36  1  0
 35 37  2  0
 36 38  2  0
 37 38  1  0
 38 39  1  0
 39 40  1  0
 39 41  2  0
 39 42  2  0
M  END
