DAV-CRI-3fe943ba-2-chloroacetamide
     RDKit          3D

 27 30  0  0  0  0  0  0  0  0999 V2000
    7.2790   -3.0400   18.8010 C   0  0  0  0  0  0  0  0  0  0  0  0
    6.3650   -3.4720   19.9400 C   0  0  0  0  0  0  0  0  0  0  0  0
    5.4430   -4.2680   19.7650 O   0  0  0  0  0  0  0  0  0  0  0  0
    6.5850   -2.9640   21.1820 N   0  0  0  0  0  0  0  0  0  0  0  0
    6.0250   -3.7090   22.3480 C   0  0  0  0  0  0  0  0  0  0  0  0
    7.9140   -2.3740   21.3340 C   0  0  0  0  0  0  0  0  0  0  0  0
    7.0510   -3.9930   23.3640 C   0  0  0  0  0  0  0  0  0  0  0  0
    8.1160   -1.9640   22.7340 C   0  0  1  0  0  0  0  0  0  0  0  0
    7.0530   -5.1970   24.2620 C   0  0  0  0  0  0  0  0  0  0  0  0
    8.1490   -3.0480   23.5270 C   0  0  0  0  0  0  0  0  0  0  0  0
    9.5090   -1.4510   22.9090 C   0  0  0  0  0  0  0  0  0  0  0  0
    8.0640   -5.3900   25.1860 C   0  0  0  0  0  0  0  0  0  0  0  0
    9.1030   -3.2930   24.4370 C   0  0  0  0  0  0  0  0  0  0  0  0
    8.8950   -0.2800   23.6090 C   0  0  0  0  0  0  0  0  0  0  0  0
   10.9640   -1.7020   22.6380 C   0  0  0  0  0  0  0  0  0  0  0  0
    9.0670   -4.4280   25.2370 C   0  0  0  0  0  0  0  0  0  0  0  0
    9.7360    0.6490   24.0310 C   0  0  0  0  0  0  0  0  0  0  0  0
   11.6480   -0.6320   23.1570 C   0  0  0  0  0  0  0  0  0  0  0  0
   11.0450    0.4320   23.7830 C   0  0  0  0  0  0  0  0  0  0  0  0
   13.1380   -0.5740   23.0620 C   0  0  0  0  0  0  0  0  0  0  0  0
   13.2920    0.7910   22.5250 C   0  0  0  0  0  0  0  0  0  0  0  0
   11.9020    1.4250   24.2250 C   0  0  0  0  0  0  0  0  0  0  0  0
   12.5660    1.9220   23.2160 C   0  0  2  0  0  0  0  0  0  0  0  0
   11.3680    3.0420   22.4240 S   0  0  0  0  0  0  0  0  0  0  0  0
   10.9450    4.1570   23.6420 N   0  0  0  0  0  0  0  0  0  0  0  0
   12.0080    3.8420   21.4090 O   0  0  0  0  0  0  0  0  0  0  0  0
   10.1270    2.3420   22.1870 O   0  0  0  0  0  0  0  0  0  0  0  0
  1  2  1  0
  2  3  2  0
  2  4  1  0
  4  5  1  0
  4  6  1  0
  5  7  1  0
  6  8  1  0
  7  9  1  0
  7 10  2  0
  8 10  1  0
  8 11  1  6
  9 12  2  0
 10 13  1  0
 11 14  2  0
 11 15  1  0
 12 16  1  0
 13 16  2  0
 14 17  1  0
 15 18  2  0
 17 19  2  0
 18 19  1  0
 18 20  1  0
 20 21  1  0
 19 22  1  0
 21 23  1  0
 22 23  1  0
 23 24  1  6
 24 25  1  0
 24 26  2  0
 24 27  2  0
M  END
