DAV-CRI-f4772df7-3-acrylamide
     RDKit          3D

 34 38  0  0  0  0  0  0  0  0999 V2000
    7.8860   -3.2860   19.3290 C   0  0  0  0  0  0  0  0  0  0  0  0
    6.8880   -2.4120   19.4150 C   0  0  0  0  0  0  0  0  0  0  0  0
    6.1160   -2.7490   20.6550 C   0  0  0  0  0  0  0  0  0  0  0  0
    4.9620   -3.1540   20.5170 O   0  0  0  0  0  0  0  0  0  0  0  0
    6.7620   -2.6510   21.9080 N   0  0  0  0  0  0  0  0  0  0  0  0
    7.9130   -1.7280   21.9740 C   0  0  0  0  0  0  0  0  0  0  0  0
    6.5520   -3.6950   22.9390 C   0  0  1  0  0  0  0  0  0  0  0  0
    9.1700   -2.3950   22.5470 C   0  0  1  0  0  0  0  0  0  0  0  0
    7.5540   -3.8810   23.8860 C   0  0  0  0  0  0  0  0  0  0  0  0
    5.2610   -3.4820   23.4450 C   0  0  1  0  0  0  0  0  0  0  0  0
   10.2090   -1.3330   22.9120 C   0  0  0  0  0  0  0  0  0  0  0  0
    8.8570   -3.2840   23.7440 C   0  0  0  0  0  0  0  0  0  0  0  0
    7.2710   -4.7050   24.9990 C   0  0  0  0  0  0  0  0  0  0  0  0
    4.5840   -4.1090   22.4440 C   0  0  0  0  0  0  0  0  0  0  0  0
    4.3830   -4.1320   24.5760 C   0  0  1  0  0  0  0  0  0  0  0  0
   11.5930   -1.4530   22.3360 C   0  0  0  0  0  0  0  0  0  0  0  0
    9.8860   -0.2770   23.7600 C   0  0  0  0  0  0  0  0  0  0  0  0
    9.8520   -3.5080   24.6840 C   0  0  0  0  0  0  0  0  0  0  0  0
    8.3840   -4.9330   26.0090 C   0  0  0  0  0  0  0  0  0  0  0  0
    4.5160   -5.8720   22.8390 S   0  0  0  0  0  0  0  0  0  0  0  0
    4.6180   -5.6200   24.5590 C   0  0  0  0  0  0  0  0  0  0  0  0
    3.9580   -3.5880   25.8710 N   0  0  0  0  0  0  0  0  0  0  0  0
   12.5320   -0.4690   22.6790 C   0  0  0  0  0  0  0  0  0  0  0  0
   10.8700    0.6670   24.0580 C   0  0  0  0  0  0  0  0  0  0  0  0
    9.6470   -4.3800   25.9030 C   0  0  0  0  0  0  0  0  0  0  0  0
    3.1830   -6.3570   22.5700 O   0  0  0  0  0  0  0  0  0  0  0  0
    5.7220   -6.5210   22.3910 O   0  0  0  0  0  0  0  0  0  0  0  0
    2.5580   -3.7260   26.3610 C   0  0  0  0  0  0  0  0  0  0  0  0
    4.4540   -2.3290   26.3100 C   0  0  0  0  0  0  0  0  0  0  0  0
   12.1650    0.5800   23.5310 C   0  0  0  0  0  0  0  0  0  0  0  0
   10.5890   -4.6290   26.8400 O   0  0  0  0  0  0  0  0  0  0  0  0
    2.2870   -2.5010   26.9640 C   0  0  0  0  0  0  0  0  0  0  0  0
    3.4140   -1.7120   27.0130 C   0  0  0  0  0  0  0  0  0  0  0  0
    5.5620   -1.8650   26.1240 O   0  0  0  0  0  0  0  0  0  0  0  0
  1  2  1  0
  2  3  1  0
  3  4  2  0
  3  5  1  0
  5  6  1  0
  7  5  1  1
  6  8  1  0
  7  9  1  0
  7 10  1  0
  8 11  1  1
  8 12  1  0
  9 12  2  0
  9 13  1  0
 10 14  1  6
 10 15  1  0
 11 16  2  0
 11 17  1  0
 12 18  1  0
 13 19  2  0
 20 14  1  0
 15 21  1  0
 20 21  1  0
 15 22  1  1
 16 23  1  0
 17 24  2  0
 18 25  2  0
 19 25  1  0
 20 26  2  0
 20 27  2  0
 22 28  1  0
 22 29  1  0
 23 30  2  0
 24 30  1  0
 25 31  1  0
 28 32  1  0
 29 33  1  0
 32 33  1  0
 29 34  2  0
M  END
