DAV-CRI-f9b12666-10-acrylamide
     RDKit          3D

 42 45  0  0  0  0  0  0  0  0999 V2000
    8.2240   -3.6550   20.0830 C   0  0  0  0  0  0  0  0  0  0  0  0
    7.0290   -3.0940   19.8500 C   0  0  0  0  0  0  0  0  0  0  0  0
    6.0210   -4.0230   20.4590 C   0  0  0  0  0  0  0  0  0  0  0  0
    5.1200   -4.5060   19.7880 O   0  0  0  0  0  0  0  0  0  0  0  0
    6.2040   -4.3250   21.8010 N   0  0  0  0  0  0  0  0  0  0  0  0
    7.3170   -3.6300   22.4460 C   0  0  0  0  0  0  0  0  0  0  0  0
    6.0750   -5.7110   22.2510 C   0  0  1  0  0  0  0  0  0  0  0  0
    7.7130   -4.2510   23.7910 C   0  0  2  0  0  0  0  0  0  0  0  0
    7.4370   -6.2460   22.6220 C   0  0  0  0  0  0  0  0  0  0  0  0
    5.3010   -5.8070   23.3580 N   0  0  0  0  0  0  0  0  0  0  0  0
    9.0880   -3.7600   24.0830 C   0  0  0  0  0  0  0  0  0  0  0  0
    7.9630   -5.6960   23.7890 C   0  0  0  0  0  0  0  0  0  0  0  0
    4.0020   -5.4020   23.3720 C   0  0  0  0  0  0  0  0  0  0  0  0
    9.5230   -2.5770   23.4510 N   0  0  0  0  0  0  0  0  0  0  0  0
   10.2970   -4.4950   25.1340 S   0  0  0  0  0  0  0  0  0  0  0  0
    3.6990   -4.2250   23.2320 O   0  0  0  0  0  0  0  0  0  0  0  0
    3.0620   -6.4350   23.5880 C   0  0  2  0  0  0  0  0  0  0  0  0
   10.7940   -2.3060   23.7890 C   0  0  0  0  0  0  0  0  0  0  0  0
   11.3790   -3.2120   24.6680 C   0  0  0  0  0  0  0  0  0  0  0  0
    1.7740   -6.1960   23.1340 C   0  0  0  0  0  0  0  0  0  0  0  0
    2.8550   -6.4120   25.0530 N   0  0  0  0  0  0  0  0  0  0  0  0
   11.4360   -1.2120   23.2750 C   0  0  0  0  0  0  0  0  0  0  0  0
   12.8040   -2.9250   25.0320 C   0  0  0  0  0  0  0  0  0  0  0  0
    1.0830   -7.1620   22.1710 C   0  0  0  0  0  0  0  0  0  0  0  0
    2.9440   -7.7240   25.6260 C   0  0  2  0  0  0  0  0  0  0  0  0
   12.7280   -0.8850   23.5550 C   0  0  0  0  0  0  0  0  0  0  0  0
   13.4050   -1.7990   24.4600 C   0  0  0  0  0  0  0  0  0  0  0  0
    1.6490   -8.3800   21.9280 N   0  0  0  0  0  0  0  0  0  0  0  0
    0.0410   -6.8660   21.6260 O   0  0  0  0  0  0  0  0  0  0  0  0
    2.3940   -8.7660   24.6730 C   0  0  0  0  0  0  0  0  0  0  0  0
    2.1150   -7.6760   26.8010 N   0  0  0  0  0  0  0  0  0  0  0  0
   13.1920    0.2940   22.9030 C   0  0  0  0  0  0  0  0  0  0  0  0
   12.2870    1.3100   23.2290 C   0  0  0  0  0  0  0  0  0  0  0  0
   11.2870    0.6720   23.9070 C   0  0  0  0  0  0  0  0  0  0  0  0
   12.2330    2.8370   22.9870 C   0  0  0  0  0  0  0  0  0  0  0  0
   10.1500    1.2050   24.4350 C   0  0  0  0  0  0  0  0  0  0  0  0
   10.9390    3.4630   23.6040 C   0  0  0  0  0  0  0  0  0  0  0  0
   10.0050    2.6770   24.2530 C   0  0  0  0  0  0  0  0  0  0  0  0
   10.5200    5.1980   23.5670 S   0  0  0  0  0  0  0  0  0  0  0  0
    9.0930    5.1920   22.6790 N   0  0  0  0  0  0  0  0  0  0  0  0
   10.1060    5.6020   24.8930 O   0  0  0  0  0  0  0  0  0  0  0  0
   11.4860    5.9540   22.8120 O   0  0  0  0  0  0  0  0  0  0  0  0
  1  2  1  0
  2  3  1  0
  3  4  2  0
  3  5  1  0
  5  6  1  0
  5  7  1  0
  6  8  1  0
  7  9  1  0
  7 10  1  1
  8 11  1  6
  8 12  1  0
  9 12  1  0
 10 13  1  0
 11 14  2  0
 11 15  1  0
 13 16  2  0
 13 17  1  0
 14 18  1  0
 15 19  1  0
 18 19  2  0
 17 20  1  6
 17 21  1  0
 18 22  1  0
 19 23  1  0
 20 24  1  0
 21 25  1  0
 22 26  2  0
 23 27  2  0
 26 27  1  0
 24 28  1  0
 24 29  2  0
 25 30  1  6
 25 31  1  0
 26 32  1  0
 32 33  1  0
 33 34  2  0
 33 35  1  0
 34 36  1  0
 35 37  2  0
 36 38  2  0
 37 38  1  0
 37 39  1  0
 39 40  1  0
 39 41  2  0
 39 42  2  0
M  END
