DAV-UNK-07f953a2-3-nitrile
     RDKit          3D

 32 35  0  0  0  0  0  0  0  0999 V2000
    6.6170   -4.2910   20.2260 C   0  0  0  0  0  0  0  0  0  0  0  0
    5.5210   -3.9140   19.7200 N   0  0  0  0  0  0  0  0  0  0  0  0
    6.7870   -4.8550   21.4910 N   0  0  0  0  0  0  0  0  0  0  0  0
    7.5250   -4.1680   22.5610 C   0  0  0  0  0  0  0  0  0  0  0  0
    6.0820   -6.0570   21.9330 C   0  0  0  0  0  0  0  0  0  0  0  0
    6.6560   -3.8930   23.7860 C   0  0  0  0  0  0  0  0  0  0  0  0
    5.2060   -5.7850   23.0020 C   0  0  0  0  0  0  0  0  0  0  0  0
    5.9080   -5.1210   24.1460 N   0  0  0  0  0  0  0  0  0  0  0  0
    5.1950   -5.2320   25.6880 S   0  0  0  0  0  0  0  0  0  0  0  0
    6.1140   -4.7700   26.6920 O   0  0  0  0  0  0  0  0  0  0  0  0
    4.5700   -6.5310   25.8030 O   0  0  0  0  0  0  0  0  0  0  0  0
    3.8870   -4.0230   25.7060 C   0  0  0  0  0  0  0  0  0  0  0  0
    2.5560   -4.5110   25.1000 C   0  0  0  0  0  0  0  0  0  0  0  0
    4.2460   -2.7940   26.2740 C   0  0  0  0  0  0  0  0  0  0  0  0
    1.7830   -3.2150   25.3410 C   0  0  0  0  0  0  0  0  0  0  0  0
    3.3600   -1.7670   26.3770 C   0  0  0  0  0  0  0  0  0  0  0  0
    2.1090   -1.9880   25.9030 C   0  0  0  0  0  0  0  0  0  0  0  0
    1.0310   -1.0390   25.9240 O   0  0  0  0  0  0  0  0  0  0  0  0
    1.3500    0.2970   26.3270 C   0  0  0  0  0  0  0  0  0  0  0  0
    0.8300    0.6320   27.7070 C   0  0  0  0  0  0  0  0  0  0  0  0
    0.0610   -0.1950   28.4790 O   0  0  0  0  0  0  0  0  0  0  0  0
    1.2110    1.8880   28.1340 N   0  0  0  0  0  0  0  0  0  0  0  0
    1.4910    2.9830   27.2320 C   0  0  0  0  0  0  0  0  0  0  0  0
    0.3610    3.7790   27.0230 C   0  0  0  0  0  0  0  0  0  0  0  0
   -0.5640    3.3970   26.0450 C   0  0  0  0  0  0  0  0  0  0  0  0
    0.1880    4.9510   27.8100 C   0  0  0  0  0  0  0  0  0  0  0  0
   -1.8250    4.2610   25.7960 C   0  0  0  0  0  0  0  0  0  0  0  0
   -0.9360    5.7890   27.6390 C   0  0  0  0  0  0  0  0  0  0  0  0
   -1.9310    5.5230   26.7020 C   0  0  0  0  0  0  0  0  0  0  0  0
   -1.2190    6.9300   28.3220 O   0  0  0  0  0  0  0  0  0  0  0  0
   -2.5470    7.2050   27.8130 C   0  0  0  0  0  0  0  0  0  0  0  0
   -2.9100    6.4650   26.7180 O   0  0  0  0  0  0  0  0  0  0  0  0
  1  2  2  3
  1  3  1  0
  3  4  1  0
  3  5  1  0
  4  6  1  0
  5  7  1  0
  6  8  1  0
  7  8  1  0
  8  9  1  0
  9 10  2  0
  9 11  2  0
  9 12  1  0
 12 13  2  0
 12 14  1  0
 13 15  1  0
 14 16  2  0
 15 17  2  0
 16 17  1  0
 17 18  1  0
 18 19  1  0
 19 20  1  0
 20 21  2  0
 20 22  1  0
 22 23  1  0
 23 24  1  0
 24 25  2  0
 24 26  1  0
 25 27  1  0
 26 28  2  0
 27 29  2  0
 28 29  1  0
 28 30  1  0
 30 31  1  0
 29 32  1  0
 31 32  1  0
M  END
