DAV-CRI-14a23e73-5-vinylsulfonamide
     RDKit          3D

 25 26  0  0  0  0  0  0  0  0999 V2000
    7.4260   -2.9140   18.5420 C   0  0  0  0  0  0  0  0  0  0  0  0
    7.2230   -2.3280   19.8960 C   0  0  0  0  0  0  0  0  0  0  0  0
    6.5550   -3.4020   21.1210 S   0  0  0  0  0  0  0  0  0  0  0  0
    5.0390   -3.2940   21.1900 O   0  0  0  0  0  0  0  0  0  0  0  0
    7.0250   -4.7490   20.9250 O   0  0  0  0  0  0  0  0  0  0  0  0
    7.5200   -2.9260   22.4560 N   0  0  0  0  0  0  0  0  0  0  0  0
    7.8970   -1.5370   22.8010 C   0  0  1  0  0  0  0  0  0  0  0  0
    7.4470   -1.2420   24.0630 C   0  0  0  0  0  0  0  0  0  0  0  0
    9.3960   -1.1380   22.7080 C   0  0  0  0  0  0  0  0  0  0  0  0
   10.4650   -1.8920   22.2120 C   0  0  0  0  0  0  0  0  0  0  0  0
    9.7440    0.1590   23.1690 C   0  0  0  0  0  0  0  0  0  0  0  0
   11.8850   -1.3550   22.1730 C   0  0  0  0  0  0  0  0  0  0  0  0
   11.0580    0.6750   23.1360 C   0  0  0  0  0  0  0  0  0  0  0  0
   13.1600   -2.2670   21.5480 Cl  0  0  0  0  0  0  0  0  0  0  0  0
   12.1170   -0.0780   22.6490 C   0  0  0  0  0  0  0  0  0  0  0  0
   11.4340    2.0790   23.6070 C   0  0  0  0  0  0  0  0  0  0  0  0
   10.6680    3.2060   22.8940 C   0  0  1  0  0  0  0  0  0  0  0  0
    9.1500    2.9250   22.8500 C   0  0  0  0  0  0  0  0  0  0  0  0
   10.8580    4.4290   23.6390 C   0  0  0  0  0  0  0  0  0  0  0  0
    8.4900    4.0230   23.6130 C   0  0  0  0  0  0  0  0  0  0  0  0
    9.5770    4.9350   24.0890 C   0  0  0  0  0  0  0  0  0  0  0  0
    9.3540    6.3760   25.0230 S   0  0  0  0  0  0  0  0  0  0  0  0
   10.8660    7.0920   25.0440 N   0  0  0  0  0  0  0  0  0  0  0  0
    8.5030    7.2740   24.2790 O   0  0  0  0  0  0  0  0  0  0  0  0
    9.0370    6.0560   26.4110 O   0  0  0  0  0  0  0  0  0  0  0  0
  1  2  1  0
  2  3  1  0
  3  4  2  0
  3  5  2  0
  3  6  1  0
  6  7  1  0
  7  8  1  1
  7  9  1  0
  9 10  2  0
  9 11  1  0
 10 12  1  0
 11 13  2  0
 12 14  1  0
 12 15  2  0
 13 15  1  0
 13 16  1  0
 17 16  1  1
 17 18  1  0
 17 19  1  0
 18 20  2  0
 19 21  2  0
 20 21  1  0
 21 22  1  0
 22 23  1  0
 22 24  2  0
 22 25  2  0
M  END
