DAV-CRI-3fe943ba-2-vinylsulfonamide
     RDKit          3D

 29 32  0  0  0  0  0  0  0  0999 V2000
    7.3340   -2.8620   18.2510 C   0  0  0  0  0  0  0  0  0  0  0  0
    6.6650   -2.2400   19.4390 C   0  0  0  0  0  0  0  0  0  0  0  0
    5.9210   -3.4720   20.4540 S   0  0  0  0  0  0  0  0  0  0  0  0
    4.7860   -2.9810   21.1070 O   0  0  0  0  0  0  0  0  0  0  0  0
    5.7360   -4.7430   19.8040 O   0  0  0  0  0  0  0  0  0  0  0  0
    7.0700   -3.5030   21.6600 N   0  0  0  0  0  0  0  0  0  0  0  0
    6.4990   -3.6810   22.9780 C   0  0  0  0  0  0  0  0  0  0  0  0
    8.0290   -2.3920   21.6950 C   0  0  0  0  0  0  0  0  0  0  0  0
    7.6150   -3.8790   23.8950 C   0  0  0  0  0  0  0  0  0  0  0  0
    9.3250   -2.7840   22.4280 C   0  0  2  0  0  0  0  0  0  0  0  0
    7.4470   -4.5730   25.1820 C   0  0  0  0  0  0  0  0  0  0  0  0
    9.0250   -3.4160   23.6140 C   0  0  0  0  0  0  0  0  0  0  0  0
    9.8620   -1.4270   22.8640 C   0  0  0  0  0  0  0  0  0  0  0  0
    8.4840   -4.7680   26.0180 C   0  0  0  0  0  0  0  0  0  0  0  0
   10.0760   -3.6260   24.5020 C   0  0  0  0  0  0  0  0  0  0  0  0
   11.2740   -1.5120   22.3310 C   0  0  0  0  0  0  0  0  0  0  0  0
    9.3350   -0.2210   23.5560 C   0  0  0  0  0  0  0  0  0  0  0  0
    9.7740   -4.3150   25.7110 C   0  0  0  0  0  0  0  0  0  0  0  0
   12.1120   -0.4270   22.4560 C   0  0  0  0  0  0  0  0  0  0  0  0
   10.2640    0.7930   23.5960 C   0  0  0  0  0  0  0  0  0  0  0  0
   11.5700    0.7140   23.0700 C   0  0  0  0  0  0  0  0  0  0  0  0
    9.6770    2.0380   24.2730 C   0  0  0  0  0  0  0  0  0  0  0  0
   10.2890    3.2890   23.6650 C   0  0  0  0  0  0  0  0  0  0  0  0
   12.3530    1.9410   23.1850 C   0  0  0  0  0  0  0  0  0  0  0  0
   11.5070    3.0210   22.8270 C   0  0  2  0  0  0  0  0  0  0  0  0
   12.4490    4.5650   22.6670 S   0  0  0  0  0  0  0  0  0  0  0  0
   11.2300    5.7330   22.3970 N   0  0  0  0  0  0  0  0  0  0  0  0
   13.2440    4.5630   21.4570 O   0  0  0  0  0  0  0  0  0  0  0  0
   13.0160    4.9590   23.9270 O   0  0  0  0  0  0  0  0  0  0  0  0
  1  2  1  0
  3  2  1  0
  3  4  2  0
  3  5  2  0
  3  6  1  0
  6  7  1  0
  6  8  1  0
  7  9  1  0
  8 10  1  0
  9 11  1  0
  9 12  2  0
 10 12  1  0
 10 13  1  1
 11 14  2  0
 12 15  1  0
 13 16  2  0
 13 17  1  0
 14 18  1  0
 15 18  2  0
 16 19  1  0
 17 20  2  0
 19 21  2  0
 20 21  1  0
 20 22  1  0
 22 23  1  0
 21 24  1  0
 23 25  1  0
 24 25  1  0
 25 26  1  1
 26 27  1  0
 26 28  2  0
 26 29  2  0
M  END
