DAV-CRI-25b90884-2-nitrile
     RDKit          3D

 25 26  0  0  0  0  0  0  0  0999 V2000
    6.5060   -4.4050   20.2450 C   0  0  0  0  0  0  0  0  0  0  0  0
    5.3540   -4.1080   19.7840 N   0  0  0  0  0  0  0  0  0  0  0  0
    7.3070   -3.4440   20.7360 N   0  0  0  0  0  0  0  0  0  0  0  0
    7.6620   -3.1200   22.1070 C   0  0  1  0  0  0  0  0  0  0  0  0
    7.9160   -1.7790   22.0210 C   0  0  0  0  0  0  0  0  0  0  0  0
    6.6480   -3.5250   23.1700 C   0  0  0  0  0  0  0  0  0  0  0  0
    7.6390   -0.8510   22.9970 C   0  0  0  0  0  0  0  0  0  0  0  0
    6.4430   -4.8780   23.4920 C   0  0  0  0  0  0  0  0  0  0  0  0
    5.8970   -2.5730   23.8670 C   0  0  0  0  0  0  0  0  0  0  0  0
    7.9620    0.4180   22.6080 C   0  0  1  0  0  0  0  0  0  0  0  0
    5.5190   -5.2290   24.4740 C   0  0  0  0  0  0  0  0  0  0  0  0
    4.9780   -2.9080   24.8490 C   0  0  0  0  0  0  0  0  0  0  0  0
    9.3930    0.4090   22.3640 N   0  0  0  0  0  0  0  0  0  0  0  0
    7.2690    0.6490   21.2760 C   0  0  0  0  0  0  0  0  0  0  0  0
    4.7770   -4.2650   25.1650 C   0  0  0  0  0  0  0  0  0  0  0  0
    4.1040   -1.6630   25.6580 Cl  0  0  0  0  0  0  0  0  0  0  0  0
   10.1530   -0.5900   22.9340 C   0  0  0  0  0  0  0  0  0  0  0  0
    6.3630    1.8200   20.9520 C   0  0  0  0  0  0  0  0  0  0  0  0
    7.5040   -0.3340   20.2910 C   0  0  0  0  0  0  0  0  0  0  0  0
   10.6760   -1.6920   22.0180 C   0  0  0  0  0  0  0  0  0  0  0  0
   10.3970   -0.6370   24.2600 O   0  0  0  0  0  0  0  0  0  0  0  0
    5.7220    1.9050   19.5620 C   0  0  0  0  0  0  0  0  0  0  0  0
    6.9550   -0.3460   18.9570 C   0  0  0  0  0  0  0  0  0  0  0  0
    6.0430    0.7950   18.5740 C   0  0  0  0  0  0  0  0  0  0  0  0
    5.5250    0.7590   17.2660 O   0  0  0  0  0  0  0  0  0  0  0  0
  1  2  2  3
  1  3  1  0
  3  4  1  0
  4  5  1  6
  4  6  1  0
  5  7  2  3
  6  8  2  0
  6  9  1  0
 10  7  1  6
  8 11  1  0
  9 12  2  0
 10 13  1  0
 10 14  1  0
 11 15  2  0
 12 15  1  0
 12 16  1  0
 13 17  1  0
 14 18  2  0
 14 19  1  0
 17 20  1  0
 17 21  2  0
 18 22  1  0
 19 23  2  0
 22 24  2  0
 23 24  1  0
 24 25  1  0
M  END
