DAV-CRI-1c77f7a9-5-bromoalkyne
     RDKit          3D

 26 29  0  0  0  0  0  0  0  0999 V2000
    7.1460   -3.2690   19.6930 C   0  0  0  0  0  0  0  0  0  0  0  0
    6.1820   -2.9360   18.8240 C   0  0  0  0  0  0  0  0  0  0  0  0
    7.0750   -2.8650   21.0600 N   0  0  0  0  0  0  0  0  0  0  0  0
    6.3660   -3.5010   22.1560 C   0  0  0  0  0  0  0  0  0  0  0  0
    7.9070   -1.8140   21.6320 C   0  0  1  0  0  0  0  0  0  0  0  0
    7.4530   -4.0120   23.0920 C   0  0  0  0  0  0  0  0  0  0  0  0
    9.2190   -2.5180   22.1680 C   0  0  2  0  0  0  0  0  0  0  0  0
    8.0990   -0.7920   20.7240 C   0  0  0  0  0  0  0  0  0  0  0  0
    6.9710   -5.0940   24.0770 C   0  0  0  0  0  0  0  0  0  0  0  0
    8.8080   -3.5380   23.0510 C   0  0  0  0  0  0  0  0  0  0  0  0
   10.0710   -1.5380   22.7370 C   0  0  0  0  0  0  0  0  0  0  0  0
    6.9940    0.0310   20.4930 C   0  0  0  0  0  0  0  0  0  0  0  0
    8.0790   -5.6190   24.9520 C   0  0  0  0  0  0  0  0  0  0  0  0
    9.7540   -4.0940   23.8870 C   0  0  0  0  0  0  0  0  0  0  0  0
   11.3930   -1.4460   22.2140 C   0  0  0  0  0  0  0  0  0  0  0  0
    9.6610   -0.5940   23.8470 C   0  0  0  0  0  0  0  0  0  0  0  0
    6.4900    0.1430   19.1970 C   0  0  0  0  0  0  0  0  0  0  0  0
    6.3460    0.7700   21.4810 C   0  0  0  0  0  0  0  0  0  0  0  0
    9.4490   -5.0960   24.7910 C   0  0  0  0  0  0  0  0  0  0  0  0
   12.3990   -0.5490   22.6110 C   0  0  0  0  0  0  0  0  0  0  0  0
   10.7660    0.3800   24.2570 C   0  0  0  0  0  0  0  0  0  0  0  0
    8.3230   -0.4830   24.5960 C   0  0  0  0  0  0  0  0  0  0  0  0
    5.3980    0.9420   18.8740 C   0  0  0  0  0  0  0  0  0  0  0  0
    5.2750    1.5750   21.2520 N   0  0  0  0  0  0  0  0  0  0  0  0
   12.0390    0.4260   23.7060 C   0  0  0  0  0  0  0  0  0  0  0  0
    4.7520    1.6830   19.8720 C   0  0  0  0  0  0  0  0  0  0  0  0
  1  2  2  3
  1  3  1  0
  3  4  1  0
  3  5  1  0
  4  6  1  0
  5  7  1  0
  5  8  1  6
  6  9  1  0
  6 10  2  0
  7 10  1  0
  7 11  1  1
  8 12  1  0
  9 13  2  0
 10 14  1  0
 11 15  2  0
 11 16  1  0
 12 17  2  0
 12 18  1  0
 13 19  1  0
 14 19  2  0
 15 20  1  0
 16 21  2  0
 16 22  1  0
 17 23  1  0
 18 24  2  0
 20 25  2  0
 21 25  1  0
 23 26  2  0
 24 26  1  0
M  END
