DAV-CRI-d1e0885a-2-bromoalkyne
     RDKit          3D

 20 21  0  0  0  0  0  0  0  0999 V2000
    6.9100   -3.3470   19.6850 C   0  0  0  0  0  0  0  0  0  0  0  0
    5.9510   -2.8060   18.6800 C   0  0  0  0  0  0  0  0  0  0  0  0
    6.9010   -2.7420   20.9500 N   0  0  0  0  0  0  0  0  0  0  0  0
    7.3520   -1.3490   21.0610 C   0  0  0  0  0  0  0  0  0  0  0  0
    6.8420   -3.4060   22.2440 C   0  0  0  0  0  0  0  0  0  0  0  0
    8.5880   -1.2330   21.8710 C   0  0  0  0  0  0  0  0  0  0  0  0
    8.1250   -3.2810   22.8010 C   0  0  0  0  0  0  0  0  0  0  0  0
    8.5490   -2.0320   23.0970 N   0  0  0  0  0  0  0  0  0  0  0  0
    9.8060   -2.0950   23.7330 C   0  0  0  0  0  0  0  0  0  0  0  0
   10.7820   -1.1380   23.5050 C   0  0  0  0  0  0  0  0  0  0  0  0
   10.3050    0.0880   23.9130 C   0  0  0  0  0  0  0  0  0  0  0  0
   12.0580   -1.3150   22.9520 C   0  0  0  0  0  0  0  0  0  0  0  0
   11.1740    1.1430   23.7220 C   0  0  0  0  0  0  0  0  0  0  0  0
   12.9700   -0.1050   22.7820 C   0  0  0  0  0  0  0  0  0  0  0  0
   12.5450   -2.5400   22.5430 C   0  0  0  0  0  0  0  0  0  0  0  0
   10.9200    2.4200   24.0200 N   0  0  0  0  0  0  0  0  0  0  0  0
   12.4730    1.0650   23.1760 N   0  0  0  0  0  0  0  0  0  0  0  0
   13.0040   -2.3420   21.2570 N   0  0  0  0  0  0  0  0  0  0  0  0
   10.9950    3.4420   23.0700 C   0  0  0  0  0  0  0  0  0  0  0  0
   12.3960    3.7890   22.5090 C   0  0  0  0  0  0  0  0  0  0  0  0
  1  2  2  3
  1  3  1  0
  3  4  1  0
  3  5  1  0
  4  6  1  0
  5  7  1  0
  6  8  1  0
  7  8  1  0
  8  9  1  0
  9 10  1  0
 10 11  2  0
 10 12  1  0
 11 13  1  0
 12 14  2  0
 12 15  1  0
 13 16  1  0
 13 17  2  0
 14 17  1  0
 15 18  3  0
 16 19  1  0
 19 20  1  0
M  END
