DAV-CRI-1c77f7a9-8-nitrile
     RDKit          3D

 26 29  0  0  0  0  0  0  0  0999 V2000
    6.8510   -3.7210   19.9810 C   0  0  0  0  0  0  0  0  0  0  0  0
    6.2660   -3.0890   19.0260 N   0  0  0  0  0  0  0  0  0  0  0  0
    6.9660   -3.1930   21.3010 N   0  0  0  0  0  0  0  0  0  0  0  0
    6.2740   -3.7760   22.4520 C   0  0  0  0  0  0  0  0  0  0  0  0
    7.5220   -1.8690   21.6540 C   0  0  1  0  0  0  0  0  0  0  0  0
    7.3510   -3.9480   23.4990 C   0  0  0  0  0  0  0  0  0  0  0  0
    8.5080   -1.8770   22.9150 C   0  0  1  0  0  0  0  0  0  0  0  0
    7.9730   -1.2130   20.3750 C   0  0  0  0  0  0  0  0  0  0  0  0
    7.2310   -5.1950   24.3760 C   0  0  0  0  0  0  0  0  0  0  0  0
    8.4070   -3.0420   23.6800 C   0  0  0  0  0  0  0  0  0  0  0  0
    9.7880   -1.2950   22.8850 C   0  0  0  0  0  0  0  0  0  0  0  0
    7.0160   -0.0640   20.0510 C   0  0  0  0  0  0  0  0  0  0  0  0
    8.3080   -5.4320   25.4590 C   0  0  0  0  0  0  0  0  0  0  0  0
    9.3760   -3.2820   24.6600 C   0  0  0  0  0  0  0  0  0  0  0  0
   10.9110   -1.7890   22.1820 C   0  0  0  0  0  0  0  0  0  0  0  0
    9.9610   -0.1230   23.6450 C   0  0  0  0  0  0  0  0  0  0  0  0
    6.3210   -0.1600   18.8500 C   0  0  0  0  0  0  0  0  0  0  0  0
    6.7640    1.0670   20.8250 C   0  0  0  0  0  0  0  0  0  0  0  0
    9.3900   -4.3680   25.5130 C   0  0  0  0  0  0  0  0  0  0  0  0
   12.1590   -1.1560   22.2210 C   0  0  0  0  0  0  0  0  0  0  0  0
   11.1780    0.5510   23.7200 C   0  0  0  0  0  0  0  0  0  0  0  0
    5.4080    0.7670   18.3710 C   0  0  0  0  0  0  0  0  0  0  0  0
    5.7940    2.1330   20.4020 N   0  0  0  0  0  0  0  0  0  0  0  0
   12.3730    0.0060   22.9540 C   0  0  0  0  0  0  0  0  0  0  0  0
    5.1200    1.9090   19.1040 C   0  0  0  0  0  0  0  0  0  0  0  0
   13.5620    0.5790   22.9610 F   0  0  0  0  0  0  0  0  0  0  0  0
  1  2  2  3
  1  3  1  0
  3  4  1  0
  3  5  1  0
  4  6  1  0
  5  7  1  0
  5  8  1  6
  6  9  1  0
  6 10  2  0
  7 10  1  0
  7 11  1  6
  8 12  1  0
  9 13  2  0
 10 14  1  0
 11 15  2  0
 11 16  1  0
 12 17  2  0
 12 18  1  0
 13 19  1  0
 14 19  2  0
 15 20  1  0
 16 21  2  0
 17 22  1  0
 18 23  2  0
 20 24  2  0
 21 24  1  0
 22 25  2  0
 23 25  1  0
 24 26  1  0
M  END
