DAV-CRI-f4772df7-7-chloroacetamide
     RDKit          3D

 35 39  0  0  0  0  0  0  0  0999 V2000
    7.1460   -2.9650   19.0160 C   0  0  0  0  0  0  0  0  0  0  0  0
    6.4210   -3.3450   20.0690 C   0  0  0  0  0  0  0  0  0  0  0  0
    5.5560   -4.2300   19.8800 O   0  0  0  0  0  0  0  0  0  0  0  0
    6.7340   -2.6670   21.3360 N   0  0  0  0  0  0  0  0  0  0  0  0
    7.9210   -1.7590   21.4250 C   0  0  0  0  0  0  0  0  0  0  0  0
    6.2920   -2.9800   22.7380 C   0  0  2  0  0  0  0  0  0  0  0  0
    7.9040   -0.4150   20.9610 O   0  0  0  0  0  0  0  0  0  0  0  0
    9.1190   -2.4670   22.0800 C   0  0  1  0  0  0  0  0  0  0  0  0
    7.3240   -3.4440   23.5800 C   0  0  0  0  0  0  0  0  0  0  0  0
    5.2210   -3.8180   23.0000 C   0  0  1  0  0  0  0  0  0  0  0  0
   10.2300   -1.5390   22.5700 C   0  0  0  0  0  0  0  0  0  0  0  0
    8.6780   -3.2190   23.3140 C   0  0  0  0  0  0  0  0  0  0  0  0
    6.9530   -4.1620   24.7340 C   0  0  0  0  0  0  0  0  0  0  0  0
    5.5130   -5.0680   22.4980 C   0  0  0  0  0  0  0  0  0  0  0  0
    4.6430   -3.9590   24.4870 C   0  0  2  0  0  0  0  0  0  0  0  0
    9.8290   -0.6650   23.7220 C   0  0  0  0  0  0  0  0  0  0  0  0
   11.5170   -1.4920   22.0370 C   0  0  0  0  0  0  0  0  0  0  0  0
    9.6670   -3.6780   24.1790 C   0  0  0  0  0  0  0  0  0  0  0  0
    8.0680   -4.6480   25.6440 C   0  0  0  0  0  0  0  0  0  0  0  0
    4.3550   -6.2220   23.1650 S   0  0  0  0  0  0  0  0  0  0  0  0
    4.0790   -5.3620   24.6630 C   0  0  0  0  0  0  0  0  0  0  0  0
    3.6600   -3.0540   25.1100 N   0  0  0  0  0  0  0  0  0  0  0  0
   10.9200    0.2230   24.2070 C   0  0  0  0  0  0  0  0  0  0  0  0
   12.4830   -0.6260   22.5510 C   0  0  0  0  0  0  0  0  0  0  0  0
    9.3890   -4.3860   25.3400 C   0  0  0  0  0  0  0  0  0  0  0  0
    5.0860   -7.4050   23.4950 O   0  0  0  0  0  0  0  0  0  0  0  0
    3.1000   -6.1970   22.4660 O   0  0  0  0  0  0  0  0  0  0  0  0
    2.3120   -3.4490   25.6040 C   0  0  0  0  0  0  0  0  0  0  0  0
    4.1960   -2.1570   26.0630 C   0  0  0  0  0  0  0  0  0  0  0  0
   12.1870    0.2210   23.6190 C   0  0  0  0  0  0  0  0  0  0  0  0
   13.5950   -0.6070   22.0630 O   0  0  0  0  0  0  0  0  0  0  0  0
   10.5660   -4.8150   26.1790 C   0  0  0  0  0  0  0  0  0  0  0  0
    2.0320   -2.5510   26.6510 C   0  0  0  0  0  0  0  0  0  0  0  0
    3.2000   -1.9000   27.0080 C   0  0  0  0  0  0  0  0  0  0  0  0
    5.3220   -1.6930   26.0670 O   0  0  0  0  0  0  0  0  0  0  0  0
  1  2  1  0
  2  3  2  0
  2  4  1  0
  4  5  1  0
  6  4  1  6
  5  7  2  0
  5  8  1  0
  6  9  1  0
  6 10  1  0
  8 11  1  1
  8 12  1  0
  9 12  2  0
  9 13  1  0
 10 14  1  1
 10 15  1  0
 11 16  2  0
 11 17  1  0
 12 18  1  0
 13 19  2  0
 20 14  1  0
 15 21  1  0
 20 21  1  0
 15 22  1  6
 16 23  1  0
 17 24  2  0
 18 25  2  0
 19 25  1  0
 20 26  2  0
 20 27  2  0
 22 28  1  0
 22 29  1  0
 23 30  2  0
 24 30  1  0
 24 31  1  0
 25 32  1  0
 28 33  1  0
 29 34  1  0
 33 34  1  0
 29 35  2  0
M  END
