DAV-UNK-07f953a2-7
     RDKit          3D

 30 32  0  0  0  0  0  0  0  0999 V2000
    5.7870   -2.2730   19.0500 C   0  0  0  0  0  0  0  0  0  0  0  0
    5.6340   -3.6790   19.1710 O   0  0  0  0  0  0  0  0  0  0  0  0
    5.6330   -4.2410   20.3970 C   0  0  0  0  0  0  0  0  0  0  0  0
    5.5730   -3.5470   21.7310 C   0  0  0  0  0  0  0  0  0  0  0  0
    5.6780   -5.6230   20.4220 C   0  0  0  0  0  0  0  0  0  0  0  0
    5.5630   -4.4370   22.9520 C   0  0  0  0  0  0  0  0  0  0  0  0
    5.6760   -6.3100   21.5970 C   0  0  0  0  0  0  0  0  0  0  0  0
    5.7140   -6.2820   19.2580 O   0  0  0  0  0  0  0  0  0  0  0  0
    5.4810   -3.8500   24.2850 C   0  0  2  0  0  0  0  0  0  0  0  0
    5.6200   -5.7970   22.8310 C   0  0  0  0  0  0  0  0  0  0  0  0
    6.2550   -2.6670   24.5080 N   0  0  0  0  0  0  0  0  0  0  0  0
    6.0000   -4.9510   25.2030 C   0  0  1  0  0  0  0  0  0  0  0  0
    6.4700   -2.4880   25.8310 C   0  0  0  0  0  0  0  0  0  0  0  0
    7.4380   -4.5650   25.6510 C   0  0  1  0  0  0  0  0  0  0  0  0
    5.0040   -5.1220   26.1720 C   0  0  0  0  0  0  0  0  0  0  0  0
    5.8350   -1.7200   26.5190 O   0  0  0  0  0  0  0  0  0  0  0  0
    7.4380   -3.2920   26.3440 N   0  0  0  0  0  0  0  0  0  0  0  0
    7.8240   -5.4280   26.7270 O   0  0  0  0  0  0  0  0  0  0  0  0
    8.3620   -4.9190   24.4270 C   0  0  0  0  0  0  0  0  0  0  0  0
    4.9940   -6.0560   26.9750 O   0  0  0  0  0  0  0  0  0  0  0  0
    3.9580   -4.1960   26.1950 C   0  0  0  0  0  0  0  0  0  0  0  0
    8.5400   -3.8210   23.6490 F   0  0  0  0  0  0  0  0  0  0  0  0
    7.9210   -5.9220   23.6480 F   0  0  0  0  0  0  0  0  0  0  0  0
    9.5930   -5.2690   24.8790 F   0  0  0  0  0  0  0  0  0  0  0  0
    4.0480   -3.0520   26.9960 C   0  0  0  0  0  0  0  0  0  0  0  0
    2.7180   -4.2460   25.4570 C   0  0  0  0  0  0  0  0  0  0  0  0
    2.9300   -1.9750   27.0590 C   0  0  0  0  0  0  0  0  0  0  0  0
    1.6330   -3.3660   25.4150 C   0  0  0  0  0  0  0  0  0  0  0  0
    1.6640   -2.2120   26.1850 C   0  0  0  0  0  0  0  0  0  0  0  0
    0.5380   -1.2310   26.1890 C   0  0  0  0  0  0  0  0  0  0  0  0
  1  2  1  0
  2  3  1  0
  3  4  2  0
  3  5  1  0
  4  6  1  0
  5  7  2  0
  5  8  1  0
  9  6  1  6
  6 10  2  0
  7 10  1  0
  9 11  1  0
  9 12  1  0
 11 13  1  0
 12 14  1  0
 12 15  1  1
 13 16  2  0
 13 17  1  0
 14 17  1  0
 14 18  1  1
 14 19  1  0
 15 20  2  0
 15 21  1  0
 19 22  1  0
 19 23  1  0
 19 24  1  0
 21 25  2  0
 21 26  1  0
 25 27  1  0
 26 28  2  0
 27 29  2  0
 28 29  1  0
 29 30  1  0
M  END
