DAV-CRI-8c8dd668-1-bromoalkyne
     RDKit          3D

 30 34  0  0  0  0  0  0  0  0999 V2000
    7.1490   -3.3180   19.8670 C   0  0  0  0  0  0  0  0  0  0  0  0
    5.8670   -3.3960   19.3990 C   0  0  0  0  0  0  0  0  0  0  0  0
    7.5580   -3.1110   21.2270 N   0  0  0  0  0  0  0  0  0  0  0  0
    8.7580   -2.1990   21.4140 C   0  0  0  0  0  0  0  0  0  0  0  0
    6.7650   -3.3040   22.5080 C   0  0  2  0  0  0  0  0  0  0  0  0
    8.9520   -1.7280   22.8520 C   0  0  2  0  0  0  0  0  0  0  0  0
    7.5950   -3.6800   23.5530 C   0  0  0  0  0  0  0  0  0  0  0  0
    5.7880   -4.2340   22.5220 C   0  0  0  0  0  0  0  0  0  0  0  0
   10.2890   -1.0230   22.9180 C   0  0  0  0  0  0  0  0  0  0  0  0
    8.8170   -2.8600   23.7780 C   0  0  0  0  0  0  0  0  0  0  0  0
    7.2940   -4.7910   24.3520 C   0  0  0  0  0  0  0  0  0  0  0  0
    5.9610   -5.3430   21.7730 C   0  0  0  0  0  0  0  0  0  0  0  0
    4.6330   -4.0800   23.3260 C   0  0  0  0  0  0  0  0  0  0  0  0
   11.5540   -1.5320   22.2590 C   0  0  0  0  0  0  0  0  0  0  0  0
   10.3510    0.1670   23.6360 C   0  0  0  0  0  0  0  0  0  0  0  0
    9.7850   -3.2460   24.9090 C   0  0  0  0  0  0  0  0  0  0  0  0
    8.1170   -5.2090   25.4080 C   0  0  0  0  0  0  0  0  0  0  0  0
    5.0190   -6.3160   21.8090 C   0  0  0  0  0  0  0  0  0  0  0  0
    3.6500   -5.0680   23.3780 C   0  0  0  0  0  0  0  0  0  0  0  0
   12.7220   -0.7830   22.4040 C   0  0  0  0  0  0  0  0  0  0  0  0
   11.5430    0.8660   23.7390 C   0  0  0  0  0  0  0  0  0  0  0  0
    9.4350   -4.4690   25.7680 C   0  0  0  0  0  0  0  0  0  0  0  0
    3.8740   -6.2000   22.6020 C   0  0  0  0  0  0  0  0  0  0  0  0
    2.4710   -4.9630   24.1730 N   0  0  0  0  0  0  0  0  0  0  0  0
   12.7080    0.4060   23.1380 C   0  0  0  0  0  0  0  0  0  0  0  0
    1.3350   -5.8300   23.9450 C   0  0  0  0  0  0  0  0  0  0  0  0
    2.1080   -3.8760   24.9840 C   0  0  0  0  0  0  0  0  0  0  0  0
    0.1280   -5.0750   24.4690 C   0  0  0  0  0  0  0  0  0  0  0  0
    0.7090   -4.1240   25.4940 C   0  0  0  0  0  0  0  0  0  0  0  0
    2.7460   -2.8720   25.2690 O   0  0  0  0  0  0  0  0  0  0  0  0
  1  2  2  3
  1  3  1  0
  3  4  1  0
  3  5  1  0
  4  6  1  0
  5  7  1  0
  5  8  1  6
  6  9  1  6
  6 10  1  0
  7 10  2  0
  7 11  1  0
  8 12  2  0
  8 13  1  0
  9 14  2  0
  9 15  1  0
 10 16  1  0
 11 17  2  0
 12 18  1  0
 13 19  2  0
 14 20  1  0
 15 21  2  0
 16 22  2  0
 17 22  1  0
 18 23  2  0
 19 23  1  0
 19 24  1  0
 20 25  2  0
 21 25  1  0
 24 26  1  0
 24 27  1  0
 26 28  1  0
 27 29  1  0
 28 29  1  0
 27 30  2  0
M  END
