DAV-CRI-d1e0885a-4-chloroacetamide
     RDKit          3D

 20 21  0  0  0  0  0  0  0  0999 V2000
    7.3120   -2.9710   18.8080 C   0  0  0  0  0  0  0  0  0  0  0  0
    6.2840   -3.1950   19.8810 C   0  0  0  0  0  0  0  0  0  0  0  0
    5.4170   -4.0650   19.7110 O   0  0  0  0  0  0  0  0  0  0  0  0
    6.3530   -2.4370   21.0460 N   0  0  0  0  0  0  0  0  0  0  0  0
    6.2540   -3.1500   22.3120 C   0  0  0  0  0  0  0  0  0  0  0  0
    7.1740   -1.2510   21.0710 C   0  0  0  0  0  0  0  0  0  0  0  0
    7.5000   -3.1040   23.1230 C   0  0  0  0  0  0  0  0  0  0  0  0
    8.4200   -1.5570   21.6080 C   0  0  0  0  0  0  0  0  0  0  0  0
    8.4040   -1.9580   22.9010 N   0  0  0  0  0  0  0  0  0  0  0  0
    9.7160   -2.2030   23.2650 C   0  0  0  0  0  0  0  0  0  0  0  0
   10.6260   -1.1950   23.3650 C   0  0  0  0  0  0  0  0  0  0  0  0
   11.6860   -1.2570   22.5090 C   0  0  0  0  0  0  0  0  0  0  0  0
   10.6850   -0.0580   24.2290 C   0  0  0  0  0  0  0  0  0  0  0  0
   11.8790   -2.2500   21.5830 C   0  0  0  0  0  0  0  0  0  0  0  0
   12.5900   -0.1030   22.7280 C   0  0  0  0  0  0  0  0  0  0  0  0
   12.1010    0.9690   23.9340 S   0  0  0  0  0  0  0  0  0  0  0  0
    9.8310    0.2900   25.1850 N   0  0  0  0  0  0  0  0  0  0  0  0
   13.0780   -2.5370   21.0720 N   0  0  0  0  0  0  0  0  0  0  0  0
    8.9410   -0.6770   25.7980 C   0  0  0  0  0  0  0  0  0  0  0  0
    8.8960   -0.4520   27.3100 C   0  0  0  0  0  0  0  0  0  0  0  0
  1  2  1  0
  2  3  2  0
  2  4  1  0
  4  5  1  0
  4  6  1  0
  5  7  1  0
  6  8  1  0
  7  9  1  0
  8  9  1  0
  9 10  1  0
 10 11  1  0
 11 12  1  0
 11 13  2  0
 12 14  1  0
 12 15  2  0
 13 16  1  0
 15 16  1  0
 13 17  1  0
 14 18  3  0
 17 19  1  0
 19 20  1  0
M  END
