DAV-CRI-3edb475e-6-nitrile
     RDKit          3D

 13 13  0  0  0  0  0  0  0  0999 V2000
    7.5250   -3.3200   19.8090 C   0  0  0  0  0  0  0  0  0  0  0  0
    6.2580   -3.4670   19.5030 N   0  0  0  0  0  0  0  0  0  0  0  0
    8.0130   -3.0590   21.1320 N   0  0  0  0  0  0  0  0  0  0  0  0
    8.1370   -1.8150   21.9830 C   0  0  1  0  0  0  0  0  0  0  0  0
    7.4400   -2.0060   23.1610 C   0  0  0  0  0  0  0  0  0  0  0  0
    9.5580   -1.3070   22.3170 C   0  0  0  0  0  0  0  0  0  0  0  0
    9.8220   -0.2090   23.1330 C   0  0  0  0  0  0  0  0  0  0  0  0
   10.7010   -1.9110   21.8020 C   0  0  0  0  0  0  0  0  0  0  0  0
   11.0490    0.3570   23.4930 C   0  0  0  0  0  0  0  0  0  0  0  0
   11.9900   -1.4700   22.0620 C   0  0  0  0  0  0  0  0  0  0  0  0
   11.1490    1.4230   24.2800 F   0  0  0  0  0  0  0  0  0  0  0  0
   12.2240   -0.3580   22.8890 C   0  0  0  0  0  0  0  0  0  0  0  0
   13.2230   -2.3280   21.3190 Cl  0  0  0  0  0  0  0  0  0  0  0  0
  1  2  2  3
  1  3  1  0
  3  4  1  0
  4  5  1  1
  4  6  1  0
  6  7  2  0
  6  8  1  0
  7  9  1  0
  8 10  2  0
  9 11  1  0
  9 12  2  0
 10 12  1  0
 10 13  1  0
M  END
