DAV-CRI-de95a6f4-1
     RDKit          3D

 26 28  0  0  0  0  0  0  0  0999 V2000
   13.6390   -2.0430   25.2310 N   0  0  0  0  0  0  0  0  0  0  0  0
   12.6600   -2.6060   24.0100 S   0  0  0  0  0  0  0  0  0  0  0  0
   11.7540   -3.5580   24.5970 O   0  0  0  0  0  0  0  0  0  0  0  0
   13.5610   -2.8940   22.9380 O   0  0  0  0  0  0  0  0  0  0  0  0
   11.6600   -1.2600   23.5000 C   0  0  0  0  0  0  0  0  0  0  0  0
   12.2000    0.1290   23.2980 C   0  0  0  0  0  0  0  0  0  0  0  0
   10.3220   -1.5500   23.2880 C   0  0  0  0  0  0  0  0  0  0  0  0
   11.2100    1.2020   22.8670 C   0  0  0  0  0  0  0  0  0  0  0  0
    9.3250   -0.6460   22.8860 C   0  0  0  0  0  0  0  0  0  0  0  0
    9.7380    0.8100   22.6600 C   0  0  0  0  0  0  0  0  0  0  0  0
    8.5980    1.7590   22.2440 C   0  0  1  0  0  0  0  0  0  0  0  0
    7.6870    0.9600   21.3220 C   0  0  0  0  0  0  0  0  0  0  0  0
    7.4380    2.0160   23.6280 S   0  0  0  0  0  0  0  0  0  0  0  0
    6.5800    0.2060   22.0360 C   0  0  0  0  0  0  0  0  0  0  0  0
    6.4580    0.4670   23.4150 C   0  0  1  0  0  0  0  0  0  0  0  0
    6.9140   -0.4900   24.3490 C   0  0  0  0  0  0  0  0  0  0  0  0
    6.4920   -1.7410   24.3390 N   0  0  0  0  0  0  0  0  0  0  0  0
    5.0550   -1.8920   24.0560 C   0  0  0  0  0  0  0  0  0  0  0  0
    7.2760   -2.6700   23.5070 C   0  0  0  0  0  0  0  0  0  0  0  0
    4.5820   -2.2350   22.7940 C   0  0  0  0  0  0  0  0  0  0  0  0
    6.4690   -3.7380   23.0740 C   0  0  0  0  0  0  0  0  0  0  0  0
    5.3630   -3.3070   22.1570 N   0  0  0  0  0  0  0  0  0  0  0  0
    5.7540   -3.3660   20.7340 C   0  0  1  0  0  0  0  0  0  0  0  0
    5.0250   -3.9710   19.9590 O   0  0  0  0  0  0  0  0  0  0  0  0
    6.1310   -2.2080   20.0150 C   0  0  0  0  0  0  0  0  0  0  0  0
    5.1460   -0.7980   19.9960 Cl  0  0  0  0  0  0  0  0  0  0  0  0
  2  1  1  0
  2  3  2  0
  2  4  2  0
  2  5  1  0
  5  6  2  0
  5  7  1  0
  6  8  1  0
  7  9  2  0
  8 10  2  0
  9 10  1  0
 11 10  1  1
 11 12  1  0
 11 13  1  0
 12 14  1  0
 13 15  1  0
 14 15  1  0
 15 16  1  1
 16 17  1  0
 17 18  1  0
 17 19  1  0
 18 20  1  0
 19 21  1  0
 20 22  1  0
 21 22  1  0
 22 23  1  0
 23 24  1  6
 23 25  1  0
 25 26  1  0
M  END
