DAV-CRI-14a23e73-5-nitrile
     RDKit          3D

 22 23  0  0  0  0  0  0  0  0999 V2000
    7.2500   -3.4410   19.8730 C   0  0  0  0  0  0  0  0  0  0  0  0
    6.5990   -2.8970   18.9070 N   0  0  0  0  0  0  0  0  0  0  0  0
    8.2220   -2.7570   20.6360 N   0  0  0  0  0  0  0  0  0  0  0  0
    8.1290   -1.8860   21.8460 C   0  0  1  0  0  0  0  0  0  0  0  0
    7.5490   -2.5550   22.9030 C   0  0  0  0  0  0  0  0  0  0  0  0
    9.4730   -1.2520   22.2140 C   0  0  0  0  0  0  0  0  0  0  0  0
   10.6710   -1.8000   21.9130 C   0  0  0  0  0  0  0  0  0  0  0  0
    9.5350   -0.0050   22.9000 C   0  0  0  0  0  0  0  0  0  0  0  0
   11.9160   -1.3090   22.1790 C   0  0  0  0  0  0  0  0  0  0  0  0
   10.7630    0.6320   23.2410 C   0  0  0  0  0  0  0  0  0  0  0  0
   13.2710   -2.1340   21.7010 Cl  0  0  0  0  0  0  0  0  0  0  0  0
   11.9580   -0.0010   22.8950 C   0  0  0  0  0  0  0  0  0  0  0  0
   10.7770    1.9440   23.9400 C   0  0  0  0  0  0  0  0  0  0  0  0
   10.4490    3.1280   23.0160 C   0  0  2  0  0  0  0  0  0  0  0  0
   11.7410    3.9630   22.8160 C   0  0  0  0  0  0  0  0  0  0  0  0
    9.5030    4.1190   23.7620 C   0  0  0  0  0  0  0  0  0  0  0  0
   11.4870    5.3250   23.4320 C   0  0  0  0  0  0  0  0  0  0  0  0
   10.0980    5.3180   23.9830 C   0  0  0  0  0  0  0  0  0  0  0  0
    9.3120    6.6750   24.8190 S   0  0  0  0  0  0  0  0  0  0  0  0
   10.5480    7.7570   25.2070 N   0  0  0  0  0  0  0  0  0  0  0  0
    8.7930    6.2090   26.0940 O   0  0  0  0  0  0  0  0  0  0  0  0
    8.4710    7.3770   23.8730 O   0  0  0  0  0  0  0  0  0  0  0  0
  1  2  2  3
  1  3  1  0
  3  4  1  0
  4  5  1  1
  4  6  1  0
  6  7  2  0
  6  8  1  0
  7  9  1  0
  8 10  2  0
  9 11  1  0
  9 12  2  0
 10 12  1  0
 10 13  1  0
 14 13  1  1
 14 15  1  0
 14 16  1  0
 15 17  2  0
 16 18  2  0
 17 18  1  0
 18 19  1  0
 19 20  1  0
 19 21  2  0
 19 22  2  0
M  END
