DAV-CRI-1c77f7a9-5-chloroacetamide
     RDKit          3D

 27 30  0  0  0  0  0  0  0  0999 V2000
    7.3180   -2.9860   18.9360 C   0  0  0  0  0  0  0  0  0  0  0  0
    6.5900   -3.3670   19.9670 C   0  0  0  0  0  0  0  0  0  0  0  0
    5.6200   -4.1320   19.8030 O   0  0  0  0  0  0  0  0  0  0  0  0
    6.9710   -2.9090   21.2670 N   0  0  0  0  0  0  0  0  0  0  0  0
    6.3780   -3.4980   22.4630 C   0  0  0  0  0  0  0  0  0  0  0  0
    7.9610   -1.8650   21.6130 C   0  0  2  0  0  0  0  0  0  0  0  0
    7.4530   -3.8130   23.5020 C   0  0  0  0  0  0  0  0  0  0  0  0
    9.2130   -2.5700   22.3020 C   0  0  2  0  0  0  0  0  0  0  0  0
    7.2870   -0.9770   22.4490 C   0  0  0  0  0  0  0  0  0  0  0  0
    6.9670   -4.6790   24.6900 C   0  0  0  0  0  0  0  0  0  0  0  0
    8.7960   -3.3530   23.3910 C   0  0  0  0  0  0  0  0  0  0  0  0
   10.1840   -1.6270   22.7210 C   0  0  0  0  0  0  0  0  0  0  0  0
    7.5170    0.3790   22.1770 C   0  0  0  0  0  0  0  0  0  0  0  0
    8.0550   -4.9830   25.7080 C   0  0  0  0  0  0  0  0  0  0  0  0
    9.7400   -3.6810   24.3760 C   0  0  0  0  0  0  0  0  0  0  0  0
   11.4430   -1.6530   22.0630 C   0  0  0  0  0  0  0  0  0  0  0  0
    9.9760   -0.6030   23.8260 C   0  0  0  0  0  0  0  0  0  0  0  0
    8.7900    0.9440   22.1220 C   0  0  0  0  0  0  0  0  0  0  0  0
    6.4440    1.2390   21.9560 C   0  0  0  0  0  0  0  0  0  0  0  0
    9.4340   -4.4490   25.4890 C   0  0  0  0  0  0  0  0  0  0  0  0
   12.5480   -0.8240   22.3050 C   0  0  0  0  0  0  0  0  0  0  0  0
   11.1920    0.2860   24.0490 C   0  0  0  0  0  0  0  0  0  0  0  0
    8.7650   -0.3230   24.7330 C   0  0  0  0  0  0  0  0  0  0  0  0
    8.9920    2.2970   21.8700 C   0  0  0  0  0  0  0  0  0  0  0  0
    6.5550    2.5620   21.7020 N   0  0  0  0  0  0  0  0  0  0  0  0
   12.3860    0.2190   23.3750 C   0  0  0  0  0  0  0  0  0  0  0  0
    7.9050    3.1450   21.6550 C   0  0  0  0  0  0  0  0  0  0  0  0
  1  2  1  0
  2  3  2  0
  2  4  1  0
  4  5  1  0
  4  6  1  0
  5  7  1  0
  6  8  1  0
  6  9  1  1
  7 10  1  0
  7 11  2  0
  8 11  1  0
  8 12  1  1
  9 13  1  0
 10 14  2  0
 11 15  1  0
 12 16  2  0
 12 17  1  0
 13 18  2  0
 13 19  1  0
 14 20  1  0
 15 20  2  0
 16 21  1  0
 17 22  2  0
 17 23  1  0
 18 24  1  0
 19 25  2  0
 21 26  2  0
 22 26  1  0
 24 27  2  0
 25 27  1  0
M  END
