DAV-CRI-f4772df7-3-bromoalkyne
     RDKit          3D

 32 36  0  0  0  0  0  0  0  0999 V2000
    6.8960   -3.6050   19.9670 C   0  0  0  0  0  0  0  0  0  0  0  0
    5.7740   -3.2010   19.3210 C   0  0  0  0  0  0  0  0  0  0  0  0
    7.2500   -3.0780   21.2940 N   0  0  0  0  0  0  0  0  0  0  0  0
    8.4880   -2.2070   21.3990 C   0  0  0  0  0  0  0  0  0  0  0  0
    6.4910   -3.1060   22.6320 C   0  0  2  0  0  0  0  0  0  0  0  0
    8.8410   -1.8080   22.8210 C   0  0  2  0  0  0  0  0  0  0  0  0
    7.4130   -3.5510   23.6080 C   0  0  0  0  0  0  0  0  0  0  0  0
    5.2250   -3.9600   22.6620 C   0  0  1  0  0  0  0  0  0  0  0  0
   10.1720   -1.0660   22.9600 C   0  0  0  0  0  0  0  0  0  0  0  0
    8.6540   -2.9510   23.7740 C   0  0  0  0  0  0  0  0  0  0  0  0
    7.1560   -4.7200   24.5670 C   0  0  0  0  0  0  0  0  0  0  0  0
    5.6630   -5.2290   22.3470 C   0  0  0  0  0  0  0  0  0  0  0  0
    4.0930   -4.0630   23.8160 C   0  0  1  0  0  0  0  0  0  0  0  0
   11.3950   -1.6340   22.2610 C   0  0  0  0  0  0  0  0  0  0  0  0
   10.2770    0.1190   23.7080 C   0  0  0  0  0  0  0  0  0  0  0  0
    9.6500   -3.3210   24.7070 C   0  0  0  0  0  0  0  0  0  0  0  0
    8.1390   -5.0770   25.4870 C   0  0  0  0  0  0  0  0  0  0  0  0
    4.5210   -6.3560   23.1200 S   0  0  0  0  0  0  0  0  0  0  0  0
    4.2490   -5.2850   24.4550 C   0  0  0  0  0  0  0  0  0  0  0  0
    3.7250   -3.0890   24.8840 N   0  0  0  0  0  0  0  0  0  0  0  0
   12.6570   -0.8600   22.4300 C   0  0  0  0  0  0  0  0  0  0  0  0
   11.5030    0.7910   23.8160 C   0  0  0  0  0  0  0  0  0  0  0  0
    9.4780   -4.3720   25.6020 C   0  0  0  0  0  0  0  0  0  0  0  0
    5.2170   -7.5020   23.6170 O   0  0  0  0  0  0  0  0  0  0  0  0
    3.2530   -6.4060   22.4520 O   0  0  0  0  0  0  0  0  0  0  0  0
    2.3850   -3.3090   25.5010 C   0  0  0  0  0  0  0  0  0  0  0  0
    4.5360   -2.3440   25.8920 C   0  0  0  0  0  0  0  0  0  0  0  0
   12.6460    0.3000   23.1890 C   0  0  0  0  0  0  0  0  0  0  0  0
   10.4030   -4.7640   26.5180 O   0  0  0  0  0  0  0  0  0  0  0  0
    2.4110   -2.5500   26.6700 C   0  0  0  0  0  0  0  0  0  0  0  0
    3.6670   -2.0330   26.9210 C   0  0  0  0  0  0  0  0  0  0  0  0
    5.7120   -2.0520   25.8480 O   0  0  0  0  0  0  0  0  0  0  0  0
  1  2  2  3
  1  3  1  0
  3  4  1  0
  5  3  1  6
  4  6  1  0
  5  7  1  0
  5  8  1  0
  6  9  1  6
  6 10  1  0
  7 10  2  0
  7 11  1  0
  8 12  1  1
  8 13  1  0
  9 14  2  0
  9 15  1  0
 10 16  1  0
 11 17  2  0
 18 12  1  0
 13 19  1  0
 18 19  1  0
 13 20  1  1
 14 21  1  0
 15 22  2  0
 16 23  2  0
 17 23  1  0
 18 24  2  0
 18 25  2  0
 20 26  1  0
 20 27  1  0
 21 28  2  0
 22 28  1  0
 23 29  1  0
 26 30  1  0
 27 31  1  0
 30 31  1  0
 27 32  2  0
M  END
