DAV-UNK-07f953a2-2-vinylsulfonamide
     RDKit          3D

 35 37  0  0  0  0  0  0  0  0999 V2000
    7.4090   -2.8910   18.6860 C   0  0  0  0  0  0  0  0  0  0  0  0
    7.0670   -2.0400   19.8880 C   0  0  0  0  0  0  0  0  0  0  0  0
    5.3430   -1.7430   19.6650 S   0  0  0  0  0  0  0  0  0  0  0  0
    4.6690   -3.0360   19.8800 O   0  0  0  0  0  0  0  0  0  0  0  0
    5.2080   -1.0350   18.4140 O   0  0  0  0  0  0  0  0  0  0  0  0
    4.9290   -0.6490   20.8940 N   0  0  0  0  0  0  0  0  0  0  0  0
    4.2530    0.5950   20.5720 C   0  0  0  0  0  0  0  0  0  0  0  0
    5.7550   -0.6450   22.0970 C   0  0  0  0  0  0  0  0  0  0  0  0
    3.4660    1.1220   21.7830 C   0  0  0  0  0  0  0  0  0  0  0  0
    4.9900   -0.2020   23.3590 C   0  0  2  0  0  0  0  0  0  0  0  0
    4.2130    1.1130   23.1070 C   0  0  2  0  0  0  0  0  0  0  0  0
    5.9470   -0.1040   24.6040 C   0  0  0  0  0  0  0  0  0  0  0  0
    3.2760    1.2930   24.2010 O   0  0  0  0  0  0  0  0  0  0  0  0
    2.1600    0.4020   24.2070 C   0  0  0  0  0  0  0  0  0  0  0  0
    1.4050    0.4590   25.3880 C   0  0  0  0  0  0  0  0  0  0  0  0
    0.9410    1.5130   25.8180 O   0  0  0  0  0  0  0  0  0  0  0  0
    1.2540   -0.8520   26.0020 N   0  0  0  0  0  0  0  0  0  0  0  0
    2.2570   -1.8290   26.0770 C   0  0  0  0  0  0  0  0  0  0  0  0
    3.7130   -1.4770   26.1170 C   0  0  0  0  0  0  0  0  0  0  0  0
    1.9090   -3.1880   26.1090 C   0  0  0  0  0  0  0  0  0  0  0  0
    4.6410   -2.5110   26.1740 C   0  0  0  0  0  0  0  0  0  0  0  0
    2.8920   -4.1860   26.1620 C   0  0  0  0  0  0  0  0  0  0  0  0
    4.2520   -3.8420   26.1920 C   0  0  0  0  0  0  0  0  0  0  0  0
    5.5030   -5.0890   26.2580 S   0  0  0  0  0  0  0  0  0  0  0  0
    4.9520   -6.3330   25.7700 O   0  0  0  0  0  0  0  0  0  0  0  0
    6.1250   -5.0030   27.5520 O   0  0  0  0  0  0  0  0  0  0  0  0
    6.6820   -4.4720   25.2190 N   0  0  0  0  0  0  0  0  0  0  0  0
    6.4360   -4.5130   23.8450 C   0  0  0  0  0  0  0  0  0  0  0  0
    7.1360   -5.6660   23.1680 C   0  0  0  0  0  0  0  0  0  0  0  0
    5.6400   -3.5760   23.2090 C   0  0  0  0  0  0  0  0  0  0  0  0
    6.8430   -5.6890   21.7040 C   0  0  0  0  0  0  0  0  0  0  0  0
    5.4030   -3.6560   21.8550 C   0  0  0  0  0  0  0  0  0  0  0  0
    5.9520   -4.6670   21.1140 C   0  0  0  0  0  0  0  0  0  0  0  0
    5.6620   -4.7710   19.8450 O   0  0  0  0  0  0  0  0  0  0  0  0
    5.6840   -6.1600   19.9540 C   0  0  0  0  0  0  0  0  0  0  0  0
  1  2  1  0
  3  2  1  0
  3  4  2  0
  3  5  2  0
  3  6  1  0
  6  7  1  0
  6  8  1  0
  7  9  1  0
  8 10  1  0
  9 11  1  0
 10 11  1  0
 10 12  1  1
 11 13  1  1
 13 14  1  0
 14 15  1  0
 15 16  2  0
 15 17  1  0
 17 18  1  0
 18 19  2  0
 18 20  1  0
 19 21  1  0
 20 22  2  0
 21 23  2  0
 22 23  1  0
 23 24  1  0
 24 25  2  0
 24 26  2  0
 24 27  1  0
 27 28  1  0
 28 29  2  0
 28 30  1  0
 29 31  1  0
 30 32  2  0
 31 33  2  0
 32 33  1  0
 33 34  1  0
 34 35  1  0
M  END
