DAV-CRI-3edb475e-5-acrylamide
     RDKit          3D

 17 17  0  0  0  0  0  0  0  0999 V2000
    7.8880   -3.7710   20.2460 C   0  0  0  0  0  0  0  0  0  0  0  0
    6.7490   -2.8220   20.0960 C   0  0  0  0  0  0  0  0  0  0  0  0
    6.1690   -2.7300   21.4770 C   0  0  0  0  0  0  0  0  0  0  0  0
    5.0560   -3.2370   20.9620 O   0  0  0  0  0  0  0  0  0  0  0  0
    7.5190   -2.2370   21.6100 N   0  0  0  0  0  0  0  0  0  0  0  0
    8.0100   -1.3820   22.7320 C   0  0  1  0  0  0  0  0  0  0  0  0
    7.5400   -1.8090   23.9530 C   0  0  0  0  0  0  0  0  0  0  0  0
    9.5420   -1.0420   22.7850 C   0  0  0  0  0  0  0  0  0  0  0  0
    8.3550   -2.3000   24.9760 N   0  0  0  0  0  0  0  0  0  0  0  0
    9.9360    0.1370   23.6650 C   0  0  0  0  0  0  0  0  0  0  0  0
   10.5600   -1.7360   22.0860 C   0  0  0  0  0  0  0  0  0  0  0  0
    9.0980   -3.5170   24.6720 C   0  0  0  0  0  0  0  0  0  0  0  0
    9.0010   -1.2510   25.7740 C   0  0  0  0  0  0  0  0  0  0  0  0
   11.4060    0.5470   23.7710 C   0  0  0  0  0  0  0  0  0  0  0  0
   11.9940   -1.3940   22.1430 C   0  0  0  0  0  0  0  0  0  0  0  0
   12.4460   -0.2220   23.0050 C   0  0  0  0  0  0  0  0  0  0  0  0
   13.1250   -2.2810   21.2560 Cl  0  0  0  0  0  0  0  0  0  0  0  0
  1  2  1  0
  2  3  1  0
  3  4  2  0
  3  5  1  0
  5  6  1  0
  6  7  1  1
  6  8  1  0
  7  9  1  0
  8 10  2  0
  8 11  1  0
  9 12  1  0
  9 13  1  0
 10 14  1  0
 11 15  2  0
 14 16  2  0
 15 16  1  0
 15 17  1  0
M  END
