DAV-CRI-f9b12666-4-nitrile
     RDKit          3D

 39 42  0  0  0  0  0  0  0  0999 V2000
    7.0610   -3.9590   19.8730 C   0  0  0  0  0  0  0  0  0  0  0  0
    6.2150   -3.3370   19.1350 N   0  0  0  0  0  0  0  0  0  0  0  0
    6.8470   -4.2700   21.2180 N   0  0  0  0  0  0  0  0  0  0  0  0
    8.0360   -4.0540   21.9860 C   0  0  0  0  0  0  0  0  0  0  0  0
    6.1730   -5.4520   21.7300 C   0  0  1  0  0  0  0  0  0  0  0  0
    7.7640   -3.8880   23.4110 C   0  0  2  0  0  0  0  0  0  0  0  0
    7.0140   -6.0370   22.8890 C   0  0  0  0  0  0  0  0  0  0  0  0
    4.8360   -5.0500   22.1710 N   0  0  0  0  0  0  0  0  0  0  0  0
    9.0840   -3.3370   23.7980 C   0  0  0  0  0  0  0  0  0  0  0  0
    7.4460   -5.1520   23.9090 C   0  0  0  0  0  0  0  0  0  0  0  0
    4.2750   -5.2730   23.4300 C   0  0  0  0  0  0  0  0  0  0  0  0
    9.4420   -1.9390   23.7130 N   0  0  0  0  0  0  0  0  0  0  0  0
   10.2830   -4.3610   24.3360 S   0  0  0  0  0  0  0  0  0  0  0  0
    4.8950   -4.9480   24.4360 O   0  0  0  0  0  0  0  0  0  0  0  0
    2.9660   -5.8360   23.5250 C   0  0  1  0  0  0  0  0  0  0  0  0
   10.7350   -1.7930   24.1270 C   0  0  0  0  0  0  0  0  0  0  0  0
   11.3420   -3.0320   24.5240 C   0  0  0  0  0  0  0  0  0  0  0  0
    2.7170   -7.0310   22.8530 C   0  0  0  0  0  0  0  0  0  0  0  0
    2.6860   -6.1870   24.9500 N   0  0  0  0  0  0  0  0  0  0  0  0
   11.6390   -0.5500   24.2320 C   0  0  0  0  0  0  0  0  0  0  0  0
   12.7470   -3.1520   25.0410 C   0  0  0  0  0  0  0  0  0  0  0  0
    1.4260   -7.1990   22.3110 C   0  0  0  0  0  0  0  0  0  0  0  0
    3.1380   -7.4540   25.4780 C   0  0  2  0  0  0  0  0  0  0  0  0
   11.4600    0.9570   23.8950 C   0  0  0  0  0  0  0  0  0  0  0  0
   12.9140   -0.7570   24.7070 C   0  0  0  0  0  0  0  0  0  0  0  0
   13.5000   -2.0810   25.1340 C   0  0  0  0  0  0  0  0  0  0  0  0
    1.2480   -8.5140   21.6210 N   0  0  0  0  0  0  0  0  0  0  0  0
    0.5250   -6.3640   22.3620 O   0  0  0  0  0  0  0  0  0  0  0  0
    2.1470   -8.3000   25.9680 C   0  0  0  0  0  0  0  0  0  0  0  0
    4.1160   -7.1480   26.5010 N   0  0  0  0  0  0  0  0  0  0  0  0
   12.6300    1.3150   23.2460 C   0  0  0  0  0  0  0  0  0  0  0  0
   10.4710    2.0050   24.0960 C   0  0  0  0  0  0  0  0  0  0  0  0
   12.8920    2.5920   22.8040 C   0  0  0  0  0  0  0  0  0  0  0  0
   10.8090    3.3370   23.6070 C   0  0  0  0  0  0  0  0  0  0  0  0
   12.0000    3.5890   22.9770 C   0  0  0  0  0  0  0  0  0  0  0  0
    9.8110    4.7520   23.7510 S   0  0  0  0  0  0  0  0  0  0  0  0
    8.6240    4.6060   22.5740 N   0  0  0  0  0  0  0  0  0  0  0  0
    9.1080    4.8410   25.0040 O   0  0  0  0  0  0  0  0  0  0  0  0
   10.6760    5.8460   23.3450 O   0  0  0  0  0  0  0  0  0  0  0  0
  1  2  2  3
  1  3  1  0
  3  4  1  0
  3  5  1  0
  4  6  1  0
  5  7  1  0
  5  8  1  1
  6  9  1  1
  6 10  1  0
  7 10  1  0
  8 11  1  0
  9 12  2  0
  9 13  1  0
 11 14  2  0
 11 15  1  0
 12 16  1  0
 13 17  1  0
 16 17  2  0
 15 18  1  6
 15 19  1  0
 16 20  1  0
 17 21  1  0
 18 22  1  0
 19 23  1  0
 20 24  1  0
 20 25  2  0
 21 26  2  0
 25 26  1  0
 22 27  1  0
 22 28  2  0
 23 29  1  1
 23 30  1  0
 24 31  2  0
 24 32  1  0
 31 33  1  0
 32 34  2  0
 33 35  2  0
 34 35  1  0
 34 36  1  0
 36 37  1  0
 36 38  2  0
 36 39  2  0
M  END
