DAV-CRI-1c77f7a9-8-chloroacetamide
     RDKit          3D

 27 30  0  0  0  0  0  0  0  0999 V2000
    7.2900   -3.0080   18.9440 C   0  0  0  0  0  0  0  0  0  0  0  0
    6.5410   -3.3670   19.9700 C   0  0  0  0  0  0  0  0  0  0  0  0
    5.6000   -4.1650   19.8200 O   0  0  0  0  0  0  0  0  0  0  0  0
    6.8840   -2.8190   21.2480 N   0  0  0  0  0  0  0  0  0  0  0  0
    6.2720   -3.3450   22.4690 C   0  0  0  0  0  0  0  0  0  0  0  0
    8.0540   -1.9420   21.5060 C   0  0  2  0  0  0  0  0  0  0  0  0
    7.3250   -3.6910   23.5270 C   0  0  0  0  0  0  0  0  0  0  0  0
    9.0780   -2.5560   22.2790 C   0  0  2  0  0  0  0  0  0  0  0  0
    7.5960   -0.5830   22.0260 C   0  0  0  0  0  0  0  0  0  0  0  0
    6.8210   -4.5140   24.7380 C   0  0  0  0  0  0  0  0  0  0  0  0
    8.6740   -3.2850   23.4020 C   0  0  0  0  0  0  0  0  0  0  0  0
   10.0450   -1.6110   22.6180 C   0  0  0  0  0  0  0  0  0  0  0  0
    6.7920    0.1290   21.1340 C   0  0  0  0  0  0  0  0  0  0  0  0
    7.9070   -4.8290   25.7560 C   0  0  0  0  0  0  0  0  0  0  0  0
    9.6140   -3.6070   24.3830 C   0  0  0  0  0  0  0  0  0  0  0  0
    9.7090   -0.6400   23.5690 C   0  0  0  0  0  0  0  0  0  0  0  0
   11.4250   -1.6090   22.0030 C   0  0  0  0  0  0  0  0  0  0  0  0
    6.9020   -0.0150   19.7510 C   0  0  0  0  0  0  0  0  0  0  0  0
    5.8250    1.0340   21.5660 C   0  0  0  0  0  0  0  0  0  0  0  0
    9.2970   -4.3400   25.5190 C   0  0  0  0  0  0  0  0  0  0  0  0
   10.5310    0.3730   24.0140 C   0  0  0  0  0  0  0  0  0  0  0  0
   12.3330   -0.4810   22.4970 C   0  0  0  0  0  0  0  0  0  0  0  0
    6.1080    0.6870   18.8510 C   0  0  0  0  0  0  0  0  0  0  0  0
    4.9500    1.8120   20.6640 N   0  0  0  0  0  0  0  0  0  0  0  0
   11.9200    0.4540   23.4270 C   0  0  0  0  0  0  0  0  0  0  0  0
    5.1250    1.6040   19.2180 C   0  0  0  0  0  0  0  0  0  0  0  0
   12.7250    1.4110   23.7990 F   0  0  0  0  0  0  0  0  0  0  0  0
  1  2  1  0
  2  3  2  0
  2  4  1  0
  4  5  1  0
  4  6  1  0
  5  7  1  0
  6  8  1  0
  6  9  1  1
  7 10  1  0
  7 11  2  0
  8 11  1  0
  8 12  1  1
  9 13  1  0
 10 14  2  0
 11 15  1  0
 12 16  2  0
 12 17  1  0
 13 18  2  0
 13 19  1  0
 14 20  1  0
 15 20  2  0
 16 21  1  0
 17 22  2  0
 18 23  1  0
 19 24  2  0
 21 25  2  0
 22 25  1  0
 23 26  2  0
 24 26  1  0
 25 27  1  0
M  END
