DAV-CRI-d1e0885a-2-chloroacetamide
     RDKit          3D

 21 22  0  0  0  0  0  0  0  0999 V2000
    7.2520   -2.9630   18.7270 C   0  0  0  0  0  0  0  0  0  0  0  0
    6.3150   -3.2490   19.8670 C   0  0  0  0  0  0  0  0  0  0  0  0
    5.4390   -4.1180   19.7330 O   0  0  0  0  0  0  0  0  0  0  0  0
    6.4890   -2.5430   21.0480 N   0  0  0  0  0  0  0  0  0  0  0  0
    7.3510   -1.3460   20.9830 C   0  0  0  0  0  0  0  0  0  0  0  0
    6.4440   -3.2680   22.3300 C   0  0  0  0  0  0  0  0  0  0  0  0
    8.5850   -1.5210   21.7710 C   0  0  0  0  0  0  0  0  0  0  0  0
    7.7310   -3.3310   22.8970 C   0  0  0  0  0  0  0  0  0  0  0  0
    8.2530   -2.0970   23.0630 N   0  0  0  0  0  0  0  0  0  0  0  0
    9.2380   -2.0150   24.0390 C   0  0  0  0  0  0  0  0  0  0  0  0
   10.1980   -1.0380   23.9580 C   0  0  0  0  0  0  0  0  0  0  0  0
   11.3380   -1.5980   23.5490 C   0  0  0  0  0  0  0  0  0  0  0  0
   10.0710    0.3240   24.2350 C   0  0  0  0  0  0  0  0  0  0  0  0
   12.3730   -0.7430   23.4160 C   0  0  0  0  0  0  0  0  0  0  0  0
   11.2880    1.2430   24.0500 C   0  0  0  0  0  0  0  0  0  0  0  0
    8.8710    0.8820   24.6670 C   0  0  0  0  0  0  0  0  0  0  0  0
   13.4750   -1.2490   23.0270 N   0  0  0  0  0  0  0  0  0  0  0  0
   12.4030    0.6540   23.6410 N   0  0  0  0  0  0  0  0  0  0  0  0
    8.5670    0.2530   25.8570 N   0  0  0  0  0  0  0  0  0  0  0  0
   13.2390   -2.4600   22.4630 C   0  0  0  0  0  0  0  0  0  0  0  0
   13.1920   -2.3700   20.9420 C   0  0  0  0  0  0  0  0  0  0  0  0
  1  2  1  0
  2  3  2  0
  2  4  1  0
  4  5  1  0
  4  6  1  0
  5  7  1  0
  6  8  1  0
  7  9  1  0
  8  9  1  0
  9 10  1  0
 10 11  1  0
 11 12  2  0
 11 13  1  0
 12 14  1  0
 13 15  2  0
 13 16  1  0
 14 17  1  0
 14 18  2  0
 15 18  1  0
 16 19  3  0
 17 20  1  0
 20 21  1  0
M  END
