DAV-CRI-e1c2b579-3
     RDKit          3D

 23 23  0  0  0  0  0  0  0  0999 V2000
    1.6150   -9.0360   20.4150 C   0  0  0  0  0  0  0  0  0  0  0  0
    1.0240   -8.4580   21.6890 C   0  0  0  0  0  0  0  0  0  0  0  0
    1.6550   -7.2080   22.3390 C   0  0  0  0  0  0  0  0  0  0  0  0
    0.8850   -6.1270   22.6550 O   0  0  0  0  0  0  0  0  0  0  0  0
    3.1180   -7.0890   22.5780 N   0  0  0  0  0  0  0  0  0  0  0  0
    3.7100   -6.4660   23.7780 C   0  0  2  0  0  0  0  0  0  0  0  0
    2.6520   -6.2850   24.8650 C   0  0  0  0  0  0  0  0  0  0  0  0
    4.7020   -5.2560   23.3970 C   0  0  2  0  0  0  0  0  0  0  0  0
    2.5970   -7.6340   25.5680 C   0  0  0  0  0  0  0  0  0  0  0  0
    5.4430   -5.5310   22.2410 C   0  0  0  0  0  0  0  0  0  0  0  0
    5.6640   -4.8930   24.5020 N   0  0  0  0  0  0  0  0  0  0  0  0
    1.8220   -7.8680   26.7840 N   0  0  0  0  0  0  0  0  0  0  0  0
    3.3960   -8.5860   24.8600 O   0  0  0  0  0  0  0  0  0  0  0  0
    6.1680   -4.2840   21.9460 N   0  0  0  0  0  0  0  0  0  0  0  0
    6.8450   -4.2670   24.2260 C   0  0  0  0  0  0  0  0  0  0  0  0
    5.7200   -5.7400   25.7400 C   0  0  2  0  0  0  0  0  0  0  0  0
    6.6280   -4.0230   20.6790 C   0  0  1  0  0  0  0  0  0  0  0  0
    7.1570   -4.1760   22.8780 C   0  0  0  0  0  0  0  0  0  0  0  0
    4.6640   -5.2780   26.7350 C   0  0  0  0  0  0  0  0  0  0  0  0
    6.9810   -5.9490   26.4030 O   0  0  0  0  0  0  0  0  0  0  0  0
    5.7040   -4.3710   19.9340 O   0  0  0  0  0  0  0  0  0  0  0  0
    7.2430   -2.7970   20.4420 C   0  0  0  0  0  0  0  0  0  0  0  0
    6.5300   -1.7530   19.2770 Cl  0  0  0  0  0  0  0  0  0  0  0  0
  1  2  1  0
  2  3  1  0
  3  4  2  0
  3  5  1  0
  5  6  1  0
  6  7  1  1
  6  8  1  0
  7  9  1  0
  8 10  1  6
  8 11  1  0
  9 12  1  0
  9 13  2  0
 10 14  1  0
 11 15  1  0
 11 16  1  0
 14 17  1  0
 14 18  1  0
 15 18  1  0
 16 19  1  1
 16 20  1  0
 17 21  1  6
 17 22  1  0
 22 23  1  0
M  END
