DAV-CRI-1c77f7a9-6-acrylamide
     RDKit          3D

 29 32  0  0  0  0  0  0  0  0999 V2000
    7.8440   -3.3050   19.1880 C   0  0  0  0  0  0  0  0  0  0  0  0
    6.7910   -2.5090   19.1900 C   0  0  0  0  0  0  0  0  0  0  0  0
    6.1280   -2.7370   20.5110 C   0  0  0  0  0  0  0  0  0  0  0  0
    5.0230   -3.2510   20.5540 O   0  0  0  0  0  0  0  0  0  0  0  0
    6.8320   -2.4200   21.6660 N   0  0  0  0  0  0  0  0  0  0  0  0
    6.2900   -3.0380   22.8690 C   0  0  0  0  0  0  0  0  0  0  0  0
    8.1920   -1.8230   21.6840 C   0  0  2  0  0  0  0  0  0  0  0  0
    7.4400   -3.5400   23.7160 C   0  0  0  0  0  0  0  0  0  0  0  0
    8.8140   -1.7430   22.9700 C   0  0  1  0  0  0  0  0  0  0  0  0
    8.0520   -0.5080   21.2010 C   0  0  0  0  0  0  0  0  0  0  0  0
    7.2000   -4.7680   24.5440 C   0  0  0  0  0  0  0  0  0  0  0  0
    8.6630   -2.9010   23.7400 C   0  0  0  0  0  0  0  0  0  0  0  0
   10.1020   -1.2150   22.9740 C   0  0  0  0  0  0  0  0  0  0  0  0
    7.1380   -0.1900   20.4450 O   0  0  0  0  0  0  0  0  0  0  0  0
    9.0120    0.3850   21.6660 N   0  0  0  0  0  0  0  0  0  0  0  0
    8.3220   -5.2710   25.3910 C   0  0  0  0  0  0  0  0  0  0  0  0
    9.7020   -3.4090   24.5460 C   0  0  0  0  0  0  0  0  0  0  0  0
   11.2240   -1.7030   22.2950 C   0  0  0  0  0  0  0  0  0  0  0  0
   10.1270    0.0500   23.8600 C   0  0  0  0  0  0  0  0  0  0  0  0
    8.8350    1.7550   22.0100 C   0  0  0  0  0  0  0  0  0  0  0  0
    9.5340   -4.5630   25.3500 C   0  0  0  0  0  0  0  0  0  0  0  0
   12.5060   -0.9030   22.4700 C   0  0  0  0  0  0  0  0  0  0  0  0
   11.3120    0.7950   24.0180 C   0  0  0  0  0  0  0  0  0  0  0  0
    7.6500    2.4140   21.6660 C   0  0  0  0  0  0  0  0  0  0  0  0
    9.7980    2.5340   22.6970 C   0  0  0  0  0  0  0  0  0  0  0  0
   12.5980    0.3520   23.3160 C   0  0  0  0  0  0  0  0  0  0  0  0
    7.4310    3.7400   21.9780 C   0  0  0  0  0  0  0  0  0  0  0  0
    9.6630    3.8600   23.0510 N   0  0  0  0  0  0  0  0  0  0  0  0
    8.3850    4.4680   22.6490 C   0  0  0  0  0  0  0  0  0  0  0  0
  1  2  1  0
  2  3  1  0
  3  4  2  0
  3  5  1  0
  5  6  1  0
  5  7  1  0
  6  8  1  0
  7  9  1  0
  7 10  1  1
  8 11  1  0
  8 12  2  0
  9 12  1  0
  9 13  1  6
 10 14  2  0
 10 15  1  0
 11 16  2  0
 12 17  1  0
 13 18  2  0
 13 19  1  0
 15 20  1  0
 16 21  1  0
 17 21  2  0
 18 22  1  0
 19 23  2  0
 20 24  2  0
 20 25  1  0
 22 26  2  0
 23 26  1  0
 24 27  1  0
 25 28  2  0
 27 29  2  0
 28 29  1  0
M  END
