DAV-CRI-3fe943ba-1-bromoalkyne
     RDKit          3D

 26 29  0  0  0  0  0  0  0  0999 V2000
    6.8870   -3.5480   19.7930 C   0  0  0  0  0  0  0  0  0  0  0  0
    5.7520   -3.0110   18.9710 C   0  0  0  0  0  0  0  0  0  0  0  0
    7.0720   -3.0420   21.0770 N   0  0  0  0  0  0  0  0  0  0  0  0
    6.3360   -3.3680   22.3030 C   0  0  0  0  0  0  0  0  0  0  0  0
    8.0210   -1.9790   21.3220 C   0  0  0  0  0  0  0  0  0  0  0  0
    7.3590   -3.7120   23.3080 C   0  0  0  0  0  0  0  0  0  0  0  0
    9.2510   -2.5300   22.0620 C   0  0  2  0  0  0  0  0  0  0  0  0
    7.0070   -4.5440   24.5250 C   0  0  0  0  0  0  0  0  0  0  0  0
    8.8010   -3.2750   23.1590 C   0  0  0  0  0  0  0  0  0  0  0  0
    9.8850   -1.1860   22.4940 C   0  0  0  0  0  0  0  0  0  0  0  0
    7.9620   -4.9000   25.4500 C   0  0  0  0  0  0  0  0  0  0  0  0
    9.6630   -3.6830   24.1230 C   0  0  0  0  0  0  0  0  0  0  0  0
   11.3570   -1.4950   22.2980 C   0  0  0  0  0  0  0  0  0  0  0  0
    9.3530    0.1500   22.9320 C   0  0  0  0  0  0  0  0  0  0  0  0
    9.2620   -4.4620   25.2120 C   0  0  0  0  0  0  0  0  0  0  0  0
   12.2290   -0.4360   22.5280 C   0  0  0  0  0  0  0  0  0  0  0  0
   10.3440    1.1030   23.0990 C   0  0  0  0  0  0  0  0  0  0  0  0
   11.7140    0.8230   22.9030 C   0  0  0  0  0  0  0  0  0  0  0  0
    9.7600    2.5010   23.5010 C   0  0  0  0  0  0  0  0  0  0  0  0
   10.8980    3.5040   23.6700 C   0  0  2  0  0  0  0  0  0  0  0  0
   12.6580    1.9380   23.0980 C   0  0  0  0  0  0  0  0  0  0  0  0
   10.2270    5.1850   23.6720 S   0  0  0  0  0  0  0  0  0  0  0  0
   12.0770    3.1810   22.7980 C   0  0  0  0  0  0  0  0  0  0  0  0
    8.8280    5.0820   22.6930 N   0  0  0  0  0  0  0  0  0  0  0  0
    9.7400    5.4780   25.0070 O   0  0  0  0  0  0  0  0  0  0  0  0
   11.1820    6.0830   23.0630 O   0  0  0  0  0  0  0  0  0  0  0  0
  1  2  2  3
  1  3  1  0
  3  4  1  0
  3  5  1  0
  4  6  1  0
  5  7  1  0
  6  8  1  0
  6  9  2  0
  7  9  1  0
  7 10  1  1
  8 11  2  0
  9 12  1  0
 10 13  2  0
 10 14  1  0
 11 15  1  0
 12 15  2  0
 13 16  1  0
 14 17  2  0
 16 18  2  0
 17 18  1  0
 17 19  1  0
 19 20  1  0
 18 21  1  0
 20 22  1  6
 20 23  1  0
 21 23  1  0
 22 24  1  0
 22 25  2  0
 22 26  2  0
M  END
