DAV-CRI-f4772df7-5-acrylamide
     RDKit          3D

 35 39  0  0  0  0  0  0  0  0999 V2000
    6.8050   -3.1120   18.7380 C   0  0  0  0  0  0  0  0  0  0  0  0
    6.7110   -2.1020   19.5510 C   0  0  0  0  0  0  0  0  0  0  0  0
    6.0900   -2.6810   20.7810 C   0  0  0  0  0  0  0  0  0  0  0  0
    5.1710   -3.5170   20.6780 O   0  0  0  0  0  0  0  0  0  0  0  0
    6.6180   -2.2490   21.9870 N   0  0  0  0  0  0  0  0  0  0  0  0
    7.8900   -1.5260   21.9190 C   0  0  0  0  0  0  0  0  0  0  0  0
    6.3450   -2.8540   23.2800 C   0  0  2  0  0  0  0  0  0  0  0  0
    8.1960   -0.2580   21.5120 O   0  0  0  0  0  0  0  0  0  0  0  0
    9.1510   -2.2620   22.3860 C   0  0  1  0  0  0  0  0  0  0  0  0
    7.4430   -3.4460   23.9230 C   0  0  0  0  0  0  0  0  0  0  0  0
    5.2730   -3.7360   23.3760 C   0  0  1  0  0  0  0  0  0  0  0  0
   10.1720   -1.2320   22.8470 C   0  0  0  0  0  0  0  0  0  0  0  0
    8.8190   -3.1920   23.5530 C   0  0  0  0  0  0  0  0  0  0  0  0
    7.1720   -4.3320   24.9840 C   0  0  0  0  0  0  0  0  0  0  0  0
    5.5350   -4.9530   22.7570 C   0  0  0  0  0  0  0  0  0  0  0  0
    4.5850   -3.9850   24.7780 C   0  0  2  0  0  0  0  0  0  0  0  0
   11.5760   -1.3570   22.3050 C   0  0  0  0  0  0  0  0  0  0  0  0
    9.8380   -0.2110   23.7330 C   0  0  0  0  0  0  0  0  0  0  0  0
    9.9100   -3.7640   24.2090 C   0  0  0  0  0  0  0  0  0  0  0  0
    8.3360   -4.9710   25.7000 C   0  0  0  0  0  0  0  0  0  0  0  0
    4.2500   -6.0850   23.2280 S   0  0  0  0  0  0  0  0  0  0  0  0
    3.8690   -5.3260   24.7540 C   0  0  0  0  0  0  0  0  0  0  0  0
    3.6380   -3.0350   25.3570 N   0  0  0  0  0  0  0  0  0  0  0  0
   12.5250   -0.4160   22.7140 C   0  0  0  0  0  0  0  0  0  0  0  0
   10.8290    0.6930   24.0980 C   0  0  0  0  0  0  0  0  0  0  0  0
    9.6470   -4.7190   25.3630 C   0  0  0  0  0  0  0  0  0  0  0  0
    4.8270   -7.3530   23.5810 O   0  0  0  0  0  0  0  0  0  0  0  0
    3.0770   -5.9080   22.4210 O   0  0  0  0  0  0  0  0  0  0  0  0
    2.2480   -3.3380   25.7860 C   0  0  0  0  0  0  0  0  0  0  0  0
    4.1890   -2.1270   26.2780 C   0  0  0  0  0  0  0  0  0  0  0  0
   12.1300    0.5880   23.5980 C   0  0  0  0  0  0  0  0  0  0  0  0
   10.6970   -5.2750   26.0030 O   0  0  0  0  0  0  0  0  0  0  0  0
    1.9950   -2.4210   26.8210 C   0  0  0  0  0  0  0  0  0  0  0  0
    3.1860   -1.8180   27.1960 C   0  0  0  0  0  0  0  0  0  0  0  0
    5.3300   -1.6960   26.2760 O   0  0  0  0  0  0  0  0  0  0  0  0
  1  2  1  0
  2  3  1  0
  3  4  2  0
  3  5  1  0
  5  6  1  0
  7  5  1  6
  6  8  2  0
  6  9  1  0
  7 10  1  0
  7 11  1  0
  9 12  1  1
  9 13  1  0
 10 13  2  0
 10 14  1  0
 11 15  1  1
 11 16  1  0
 12 17  2  0
 12 18  1  0
 13 19  1  0
 14 20  2  0
 21 15  1  0
 16 22  1  0
 21 22  1  0
 16 23  1  6
 17 24  1  0
 18 25  2  0
 19 26  2  0
 20 26  1  0
 21 27  2  0
 21 28  2  0
 23 29  1  0
 23 30  1  0
 24 31  2  0
 25 31  1  0
 26 32  1  0
 29 33  1  0
 30 34  1  0
 33 34  1  0
 30 35  2  0
M  END
