DAV-CRI-f4772df7-8-bromoalkyne
     RDKit          3D

 34 38  0  0  0  0  0  0  0  0999 V2000
    6.8070   -3.6410   20.1540 C   0  0  0  0  0  0  0  0  0  0  0  0
    5.6290   -3.6270   19.5560 C   0  0  0  0  0  0  0  0  0  0  0  0
    7.0340   -2.9210   21.3810 N   0  0  0  0  0  0  0  0  0  0  0  0
    7.9960   -1.7840   21.4600 C   0  0  0  0  0  0  0  0  0  0  0  0
    6.4250   -3.1550   22.7430 C   0  0  2  0  0  0  0  0  0  0  0  0
    8.2560   -0.8730   20.4870 O   0  0  0  0  0  0  0  0  0  0  0  0
    8.6560   -1.6460   22.8480 C   0  0  2  0  0  0  0  0  0  0  0  0
    7.4020   -3.6060   23.6220 C   0  0  0  0  0  0  0  0  0  0  0  0
    5.3150   -3.9530   22.9610 C   0  0  1  0  0  0  0  0  0  0  0  0
   10.0830   -1.1090   22.8290 C   0  0  0  0  0  0  0  0  0  0  0  0
    8.5650   -2.8790   23.7010 C   0  0  0  0  0  0  0  0  0  0  0  0
    7.2080   -4.7580   24.3980 C   0  0  0  0  0  0  0  0  0  0  0  0
    5.5440   -5.2120   22.4270 C   0  0  0  0  0  0  0  0  0  0  0  0
    4.6870   -4.0780   24.4280 C   0  0  2  0  0  0  0  0  0  0  0  0
   10.1600    0.1630   23.6390 C   0  0  0  0  0  0  0  0  0  0  0  0
   11.2010   -1.6480   22.1920 C   0  0  0  0  0  0  0  0  0  0  0  0
    9.6030   -3.2520   24.5400 C   0  0  0  0  0  0  0  0  0  0  0  0
    8.3630   -5.1370   25.3150 C   0  0  0  0  0  0  0  0  0  0  0  0
    4.3890   -6.3640   23.1350 S   0  0  0  0  0  0  0  0  0  0  0  0
    3.9480   -5.3980   24.5070 C   0  0  0  0  0  0  0  0  0  0  0  0
    3.7540   -3.1120   25.0480 N   0  0  0  0  0  0  0  0  0  0  0  0
   11.5130    0.7890   23.6860 C   0  0  0  0  0  0  0  0  0  0  0  0
   12.4310   -1.0060   22.2870 C   0  0  0  0  0  0  0  0  0  0  0  0
    9.5180   -4.3700   25.3470 C   0  0  0  0  0  0  0  0  0  0  0  0
    3.1650   -6.4480   22.4070 O   0  0  0  0  0  0  0  0  0  0  0  0
    5.0730   -7.5020   23.6590 O   0  0  0  0  0  0  0  0  0  0  0  0
    2.3830   -3.4510   25.5220 C   0  0  0  0  0  0  0  0  0  0  0  0
    4.3090   -2.2290   26.0040 C   0  0  0  0  0  0  0  0  0  0  0  0
   12.5690    0.1780   23.0090 C   0  0  0  0  0  0  0  0  0  0  0  0
   10.7180   -4.6690   26.2040 C   0  0  0  0  0  0  0  0  0  0  0  0
    2.1270   -2.5580   26.5790 C   0  0  0  0  0  0  0  0  0  0  0  0
    3.3130   -1.9440   26.9420 C   0  0  0  0  0  0  0  0  0  0  0  0
    5.4420   -1.7870   26.0220 O   0  0  0  0  0  0  0  0  0  0  0  0
   13.8690    0.7350   23.0070 O   0  0  0  0  0  0  0  0  0  0  0  0
  1  2  2  3
  1  3  1  0
  3  4  1  0
  5  3  1  6
  4  6  2  0
  4  7  1  0
  5  8  1  0
  5  9  1  0
  7 10  1  6
  7 11  1  0
  8 11  2  0
  8 12  1  0
  9 13  1  1
  9 14  1  0
 10 15  2  0
 10 16  1  0
 11 17  1  0
 12 18  2  0
 19 13  1  0
 14 20  1  0
 19 20  1  0
 14 21  1  6
 15 22  1  0
 16 23  2  0
 17 24  2  0
 18 24  1  0
 19 25  2  0
 19 26  2  0
 21 27  1  0
 21 28  1  0
 22 29  2  0
 23 29  1  0
 24 30  1  0
 27 31  1  0
 28 32  1  0
 31 32  1  0
 28 33  2  0
 29 34  1  0
M  END
