DAV-CRI-14a23e73-1-vinylsulfonamide
     RDKit          3D

 25 26  0  0  0  0  0  0  0  0999 V2000
    8.5850   -4.9650   20.8450 C   0  0  0  0  0  0  0  0  0  0  0  0
    7.1380   -4.9940   21.3030 C   0  0  0  0  0  0  0  0  0  0  0  0
    6.3990   -3.4240   21.4970 S   0  0  0  0  0  0  0  0  0  0  0  0
    4.9310   -3.6690   21.8090 O   0  0  0  0  0  0  0  0  0  0  0  0
    6.6600   -2.6780   20.2840 O   0  0  0  0  0  0  0  0  0  0  0  0
    7.5680   -2.8630   22.6770 N   0  0  0  0  0  0  0  0  0  0  0  0
    8.9360   -2.4910   22.0770 C   0  0  1  0  0  0  0  0  0  0  0  0
    8.7110   -1.3980   21.2720 C   0  0  0  0  0  0  0  0  0  0  0  0
   10.3080   -2.2250   22.8510 C   0  0  0  0  0  0  0  0  0  0  0  0
   11.0890   -3.1800   23.5040 C   0  0  0  0  0  0  0  0  0  0  0  0
   10.6400   -0.9290   22.7870 C   0  0  0  0  0  0  0  0  0  0  0  0
   12.2770   -2.2110   23.9860 C   0  0  0  0  0  0  0  0  0  0  0  0
   11.7010   -0.3250   23.2810 C   0  0  0  0  0  0  0  0  0  0  0  0
   13.4550   -3.0340   24.8850 Cl  0  0  0  0  0  0  0  0  0  0  0  0
   12.7380   -0.8450   23.9580 C   0  0  0  0  0  0  0  0  0  0  0  0
   11.7290    1.1650   23.1480 C   0  0  0  0  0  0  0  0  0  0  0  0
   10.3070    1.5810   23.2090 C   0  0  0  0  0  0  0  0  0  0  0  0
   12.6990    2.0350   23.0550 C   0  0  0  0  0  0  0  0  0  0  0  0
    9.7600    3.0270   23.2540 C   0  0  0  0  0  0  0  0  0  0  0  0
   12.3270    3.3790   23.0910 C   0  0  0  0  0  0  0  0  0  0  0  0
   11.0620    3.8320   23.2020 C   0  0  0  0  0  0  0  0  0  0  0  0
   10.6970    5.5600   23.3470 S   0  0  0  0  0  0  0  0  0  0  0  0
    9.2140    5.6530   22.5850 N   0  0  0  0  0  0  0  0  0  0  0  0
   11.6500    6.3440   22.6220 O   0  0  0  0  0  0  0  0  0  0  0  0
   10.4210    5.8040   24.7550 O   0  0  0  0  0  0  0  0  0  0  0  0
  1  2  1  0
  2  3  1  0
  3  4  2  0
  3  5  2  0
  3  6  1  0
  6  7  1  0
  7  8  1  1
  7  9  1  0
  9 10  2  0
  9 11  1  0
 10 12  1  0
 11 13  2  0
 12 14  1  0
 12 15  2  0
 13 15  1  0
 13 16  1  0
 16 17  2  0
 16 18  1  0
 17 19  1  0
 18 20  2  0
 19 21  2  0
 20 21  1  0
 21 22  1  0
 22 23  1  0
 22 24  2  0
 22 25  2  0
M  END
