DAV-CRI-f9b12666-6-vinylsulfonamide
     RDKit          3D

 43 46  0  0  0  0  0  0  0  0999 V2000
    7.2780   -2.9780   18.7980 C   0  0  0  0  0  0  0  0  0  0  0  0
    6.6440   -2.4100   19.8300 C   0  0  0  0  0  0  0  0  0  0  0  0
    5.5100   -3.5580   20.6180 S   0  0  0  0  0  0  0  0  0  0  0  0
    4.5770   -2.8790   21.4300 O   0  0  0  0  0  0  0  0  0  0  0  0
    5.0940   -4.5820   19.6990 O   0  0  0  0  0  0  0  0  0  0  0  0
    6.4090   -4.2990   21.8240 N   0  0  0  0  0  0  0  0  0  0  0  0
    7.1350   -3.4290   22.7090 C   0  0  0  0  0  0  0  0  0  0  0  0
    5.9820   -5.5710   22.3760 C   0  0  1  0  0  0  0  0  0  0  0  0
    8.2160   -4.3030   23.2000 C   0  0  1  0  0  0  0  0  0  0  0  0
    7.2530   -6.3170   22.6910 C   0  0  0  0  0  0  0  0  0  0  0  0
    5.2540   -5.2120   23.6340 N   0  0  0  0  0  0  0  0  0  0  0  0
    9.3930   -3.5980   23.7260 C   0  0  0  0  0  0  0  0  0  0  0  0
    7.8530   -5.4870   23.8290 C   0  0  0  0  0  0  0  0  0  0  0  0
    3.9280   -5.1920   23.5920 C   0  0  0  0  0  0  0  0  0  0  0  0
    9.6940   -2.2000   23.5780 N   0  0  0  0  0  0  0  0  0  0  0  0
   10.5110   -4.4780   24.5350 S   0  0  0  0  0  0  0  0  0  0  0  0
    3.3400   -4.1460   23.3860 O   0  0  0  0  0  0  0  0  0  0  0  0
    3.3280   -6.4280   23.8230 C   0  0  1  0  0  0  0  0  0  0  0  0
   10.9270   -1.9540   24.1200 C   0  0  0  0  0  0  0  0  0  0  0  0
   11.5450   -3.1390   24.6810 C   0  0  0  0  0  0  0  0  0  0  0  0
    2.4950   -6.6390   24.9060 C   0  0  0  0  0  0  0  0  0  0  0  0
    2.6730   -6.8980   22.5680 N   0  0  0  0  0  0  0  0  0  0  0  0
   11.6410   -0.6320   24.1800 C   0  0  0  0  0  0  0  0  0  0  0  0
   12.8090   -3.2660   25.2850 C   0  0  0  0  0  0  0  0  0  0  0  0
    2.7440   -7.8680   25.4980 C   0  0  0  0  0  0  0  0  0  0  0  0
    1.3300   -7.4580   22.5740 C   0  0  1  0  0  0  0  0  0  0  0  0
   11.4330    0.7310   23.8550 C   0  0  0  0  0  0  0  0  0  0  0  0
   12.9530   -0.7630   24.7940 C   0  0  0  0  0  0  0  0  0  0  0  0
   13.5540   -2.0170   25.3350 C   0  0  0  0  0  0  0  0  0  0  0  0
    2.2690   -8.1220   26.7420 N   0  0  0  0  0  0  0  0  0  0  0  0
    3.3940   -8.6890   24.9010 O   0  0  0  0  0  0  0  0  0  0  0  0
    0.2630   -6.4200   22.2490 C   0  0  0  0  0  0  0  0  0  0  0  0
    1.4250   -8.5020   21.5750 N   0  0  0  0  0  0  0  0  0  0  0  0
   10.2660    1.2450   24.3690 C   0  0  0  0  0  0  0  0  0  0  0  0
   12.2880    1.6100   23.1340 C   0  0  0  0  0  0  0  0  0  0  0  0
    9.9150    2.5650   24.2380 C   0  0  0  0  0  0  0  0  0  0  0  0
   11.9590    2.9770   22.9770 C   0  0  0  0  0  0  0  0  0  0  0  0
   10.7610    3.4310   23.5620 C   0  0  0  0  0  0  0  0  0  0  0  0
   12.6950    3.9300   22.3200 O   0  0  0  0  0  0  0  0  0  0  0  0
   10.3050    5.1580   23.4680 S   0  0  0  0  0  0  0  0  0  0  0  0
    8.8780    5.1430   22.5800 N   0  0  0  0  0  0  0  0  0  0  0  0
   11.3100    5.8940   22.7390 O   0  0  0  0  0  0  0  0  0  0  0  0
    9.9270    5.5710   24.8040 O   0  0  0  0  0  0  0  0  0  0  0  0
  1  2  1  0
  3  2  1  0
  3  4  2  0
  3  5  2  0
  3  6  1  0
  6  7  1  0
  6  8  1  0
  7  9  1  0
  8 10  1  0
  8 11  1  1
  9 12  1  1
  9 13  1  0
 10 13  1  0
 11 14  1  0
 12 15  2  0
 12 16  1  0
 14 17  2  0
 14 18  1  0
 15 19  1  0
 16 20  1  0
 19 20  2  0
 18 21  1  1
 18 22  1  0
 19 23  1  0
 20 24  1  0
 21 25  1  0
 22 26  1  0
 23 27  1  0
 23 28  2  0
 24 29  2  0
 28 29  1  0
 25 30  1  0
 25 31  2  0
 26 32  1  6
 26 33  1  0
 27 34  2  0
 27 35  1  0
 34 36  1  0
 35 37  2  0
 36 38  2  0
 37 38  1  0
 37 39  1  0
 38 40  1  0
 40 41  1  0
 40 42  2  0
 40 43  2  0
M  END
