DAV-CRI-1c77f7a9-4-nitrile
     RDKit          3D

 26 29  0  0  0  0  0  0  0  0999 V2000
    7.0330   -3.5580   19.9180 C   0  0  0  0  0  0  0  0  0  0  0  0
    6.4370   -3.0780   18.8840 N   0  0  0  0  0  0  0  0  0  0  0  0
    6.9310   -2.8990   21.1760 N   0  0  0  0  0  0  0  0  0  0  0  0
    6.2820   -3.4850   22.3400 C   0  0  0  0  0  0  0  0  0  0  0  0
    7.8880   -1.9120   21.6710 C   0  0  1  0  0  0  0  0  0  0  0  0
    7.4330   -3.9990   23.1850 C   0  0  0  0  0  0  0  0  0  0  0  0
    9.2020   -2.6200   22.1080 C   0  0  2  0  0  0  0  0  0  0  0  0
    8.1000   -0.8880   20.5900 C   0  0  0  0  0  0  0  0  0  0  0  0
    7.0130   -5.0360   24.2290 C   0  0  0  0  0  0  0  0  0  0  0  0
    8.7940   -3.5920   23.0440 C   0  0  0  0  0  0  0  0  0  0  0  0
   10.0950   -1.6100   22.5500 C   0  0  0  0  0  0  0  0  0  0  0  0
    7.4380    0.4390   20.9500 C   0  0  0  0  0  0  0  0  0  0  0  0
    8.1120   -5.6460   25.1010 C   0  0  0  0  0  0  0  0  0  0  0  0
    9.7500   -4.1800   23.8440 C   0  0  0  0  0  0  0  0  0  0  0  0
   11.4970   -1.6920   22.3630 C   0  0  0  0  0  0  0  0  0  0  0  0
    9.6090   -0.4670   23.1940 C   0  0  0  0  0  0  0  0  0  0  0  0
    8.2780    1.4460   21.3980 C   0  0  0  0  0  0  0  0  0  0  0  0
    6.0780    0.7520   20.8730 C   0  0  0  0  0  0  0  0  0  0  0  0
    9.5000   -5.1430   24.7970 C   0  0  0  0  0  0  0  0  0  0  0  0
   12.3990   -0.6960   22.7900 C   0  0  0  0  0  0  0  0  0  0  0  0
   10.4460    0.5620   23.6380 C   0  0  0  0  0  0  0  0  0  0  0  0
    7.8810    2.7180   21.7640 C   0  0  0  0  0  0  0  0  0  0  0  0
    5.5350    2.1000   21.2470 N   0  0  0  0  0  0  0  0  0  0  0  0
   11.9660    0.4650   23.4360 C   0  0  0  0  0  0  0  0  0  0  0  0
    9.6990    1.9080   24.3880 Cl  0  0  0  0  0  0  0  0  0  0  0  0
    6.5410    3.0810   21.7040 C   0  0  0  0  0  0  0  0  0  0  0  0
  1  2  2  3
  1  3  1  0
  3  4  1  0
  3  5  1  0
  4  6  1  0
  5  7  1  0
  5  8  1  6
  6  9  1  0
  6 10  2  0
  7 10  1  0
  7 11  1  1
  8 12  1  0
  9 13  2  0
 10 14  1  0
 11 15  2  0
 11 16  1  0
 12 17  2  0
 12 18  1  0
 13 19  1  0
 14 19  2  0
 15 20  1  0
 16 21  2  0
 17 22  1  0
 18 23  2  0
 20 24  2  0
 21 24  1  0
 21 25  1  0
 22 26  2  0
 23 26  1  0
M  END
