DAV-CRI-3edb475e-2-bromoalkyne
     RDKit          3D

 13 13  0  0  0  0  0  0  0  0999 V2000
    7.6810   -3.2050   19.7410 C   0  0  0  0  0  0  0  0  0  0  0  0
    6.1880   -3.2830   19.3720 C   0  0  0  0  0  0  0  0  0  0  0  0
    8.1720   -3.0950   21.0960 N   0  0  0  0  0  0  0  0  0  0  0  0
    8.2890   -1.8730   22.0260 C   0  0  1  0  0  0  0  0  0  0  0  0
    7.7170   -2.1070   23.2600 C   0  0  0  0  0  0  0  0  0  0  0  0
    9.7180   -1.3190   22.2170 C   0  0  0  0  0  0  0  0  0  0  0  0
   10.0110   -0.0600   22.7940 C   0  0  0  0  0  0  0  0  0  0  0  0
   10.7890   -2.0600   21.7990 C   0  0  0  0  0  0  0  0  0  0  0  0
   11.4600    0.4170   22.9240 C   0  0  0  0  0  0  0  0  0  0  0  0
   12.0830   -1.6240   21.9280 C   0  0  0  0  0  0  0  0  0  0  0  0
   11.7770    1.4990   23.3860 O   0  0  0  0  0  0  0  0  0  0  0  0
   12.4640   -0.4090   22.4860 C   0  0  0  0  0  0  0  0  0  0  0  0
   13.2070   -2.6970   21.3180 Cl  0  0  0  0  0  0  0  0  0  0  0  0
  1  2  2  3
  1  3  1  0
  3  4  1  0
  4  5  1  1
  4  6  1  0
  6  7  2  0
  6  8  1  0
  7  9  1  0
  8 10  2  0
  9 11  1  0
  9 12  2  0
 10 12  1  0
 10 13  1  0
M  END
