DAV-CRI-0207e898-1-vinylsulfonamide
     RDKit          3D

 24 26  0  0  0  0  0  0  0  0999 V2000
    7.7780   -2.9390   18.1490 C   0  0  0  0  0  0  0  0  0  0  0  0
    6.5110   -2.9120   18.9290 C   0  0  0  0  0  0  0  0  0  0  0  0
    6.5900   -3.4900   20.5850 S   0  0  0  0  0  0  0  0  0  0  0  0
    5.2890   -3.9640   20.8180 O   0  0  0  0  0  0  0  0  0  0  0  0
    7.6330   -4.4050   20.9810 O   0  0  0  0  0  0  0  0  0  0  0  0
    6.8460   -2.0700   21.4070 N   0  0  0  0  0  0  0  0  0  0  0  0
    7.9830   -1.3420   21.0610 C   0  0  0  0  0  0  0  0  0  0  0  0
    6.8720   -2.3110   22.8310 C   0  0  2  0  0  0  0  0  0  0  0  0
    9.0400   -1.3770   21.9540 C   0  0  0  0  0  0  0  0  0  0  0  0
    8.0900   -2.9350   23.1300 C   0  0  0  0  0  0  0  0  0  0  0  0
    5.5740   -3.1120   22.9310 C   0  0  2  0  0  0  0  0  0  0  0  0
    9.0990   -2.5080   22.7130 N   0  0  0  0  0  0  0  0  0  0  0  0
    4.5040   -2.3100   23.6740 C   0  0  0  0  0  0  0  0  0  0  0  0
    5.8510   -4.4000   23.4850 C   0  0  1  0  0  0  0  0  0  0  0  0
   10.0300   -2.2740   23.6790 C   0  0  0  0  0  0  0  0  0  0  0  0
    4.2830   -2.6160   25.1480 C   0  0  0  0  0  0  0  0  0  0  0  0
    4.7800   -4.8940   24.2130 N   0  0  0  0  0  0  0  0  0  0  0  0
    6.0940   -5.6680   22.3470 Cl  0  0  0  0  0  0  0  0  0  0  0  0
   10.9800   -1.2840   23.5550 C   0  0  0  0  0  0  0  0  0  0  0  0
    4.4510   -4.1340   25.3930 C   0  0  0  0  0  0  0  0  0  0  0  0
   12.2620   -1.3550   22.7320 C   0  0  0  0  0  0  0  0  0  0  0  0
   10.8080    0.2530   24.3470 S   0  0  0  0  0  0  0  0  0  0  0  0
   13.0240   -0.0690   22.8210 C   0  0  0  0  0  0  0  0  0  0  0  0
   12.2690    0.9040   23.7120 C   0  0  0  0  0  0  0  0  0  0  0  0
  1  2  1  0
  3  2  1  0
  3  4  2  0
  3  5  2  0
  3  6  1  0
  6  7  1  0
  6  8  1  0
  7  9  1  0
  8 10  1  6
  8 11  1  0
  9 12  1  0
 10 12  1  0
 11 13  1  1
 11 14  1  0
 12 15  1  0
 13 16  1  0
 14 17  1  0
 14 18  1  6
 15 19  1  0
 16 20  1  0
 17 20  1  0
 19 21  2  0
 19 22  1  0
 21 23  1  0
 22 24  1  0
 23 24  2  0
M  END
