DAV-CRI-f4772df7-7-nitrile
     RDKit          3D

 34 38  0  0  0  0  0  0  0  0999 V2000
    6.8650   -3.7180   20.1890 C   0  0  0  0  0  0  0  0  0  0  0  0
    5.7260   -3.6510   19.5970 N   0  0  0  0  0  0  0  0  0  0  0  0
    7.1500   -3.0120   21.4280 N   0  0  0  0  0  0  0  0  0  0  0  0
    8.0880   -1.8320   21.4210 C   0  0  0  0  0  0  0  0  0  0  0  0
    6.4850   -3.1340   22.8090 C   0  0  2  0  0  0  0  0  0  0  0  0
    8.2740   -1.1170   20.4510 O   0  0  0  0  0  0  0  0  0  0  0  0
    8.7100   -1.5730   22.8080 C   0  0  2  0  0  0  0  0  0  0  0  0
    7.5220   -3.4970   23.6390 C   0  0  0  0  0  0  0  0  0  0  0  0
    5.5890   -4.2830   23.1920 C   0  0  2  0  0  0  0  0  0  0  0  0
   10.1220   -1.0050   22.8370 C   0  0  0  0  0  0  0  0  0  0  0  0
    8.6660   -2.7830   23.6930 C   0  0  0  0  0  0  0  0  0  0  0  0
    7.3690   -4.7350   24.5140 C   0  0  0  0  0  0  0  0  0  0  0  0
    4.7790   -4.6930   22.2380 C   0  0  0  0  0  0  0  0  0  0  0  0
    4.7850   -4.3270   24.5800 C   0  0  2  0  0  0  0  0  0  0  0  0
   10.1770    0.2590   23.6970 C   0  0  0  0  0  0  0  0  0  0  0  0
   11.2420   -1.5290   22.1930 C   0  0  0  0  0  0  0  0  0  0  0  0
    9.6920   -3.2000   24.5500 C   0  0  0  0  0  0  0  0  0  0  0  0
    8.4020   -5.1170   25.3560 C   0  0  0  0  0  0  0  0  0  0  0  0
    4.2780   -6.2300   22.9580 S   0  0  0  0  0  0  0  0  0  0  0  0
    4.1520   -5.5820   24.5860 C   0  0  0  0  0  0  0  0  0  0  0  0
    3.8770   -3.3260   24.9920 N   0  0  0  0  0  0  0  0  0  0  0  0
   11.5380    0.9090   23.7990 C   0  0  0  0  0  0  0  0  0  0  0  0
   12.4850   -0.9020   22.3130 C   0  0  0  0  0  0  0  0  0  0  0  0
    9.5620   -4.3350   25.3580 C   0  0  0  0  0  0  0  0  0  0  0  0
    5.4360   -7.0910   22.9600 O   0  0  0  0  0  0  0  0  0  0  0  0
    2.9470   -6.6180   22.5660 O   0  0  0  0  0  0  0  0  0  0  0  0
    2.5350   -3.5460   25.4400 C   0  0  0  0  0  0  0  0  0  0  0  0
    4.3680   -2.3400   25.9190 C   0  0  0  0  0  0  0  0  0  0  0  0
   12.6650    0.2610   23.0680 C   0  0  0  0  0  0  0  0  0  0  0  0
   13.5790   -1.4960   21.6200 O   0  0  0  0  0  0  0  0  0  0  0  0
   10.6050   -4.6850   26.1660 C   0  0  0  0  0  0  0  0  0  0  0  0
    2.2180   -2.7180   26.4910 C   0  0  0  0  0  0  0  0  0  0  0  0
    3.3490   -1.9960   26.8230 C   0  0  0  0  0  0  0  0  0  0  0  0
    5.4890   -1.8680   25.9370 O   0  0  0  0  0  0  0  0  0  0  0  0
  1  2  2  3
  1  3  1  0
  3  4  1  0
  5  3  1  6
  4  6  2  0
  4  7  1  0
  5  8  1  0
  5  9  1  0
  7 10  1  6
  7 11  1  0
  8 11  2  0
  8 12  1  0
  9 13  1  6
  9 14  1  0
 10 15  2  0
 10 16  1  0
 11 17  1  0
 12 18  2  0
 19 13  1  0
 14 20  1  0
 19 20  1  0
 14 21  1  6
 15 22  1  0
 16 23  2  0
 17 24  2  0
 18 24  1  0
 19 25  2  0
 19 26  2  0
 21 27  1  0
 21 28  1  0
 22 29  2  0
 23 29  1  0
 23 30  1  0
 24 31  1  0
 27 32  1  0
 28 33  1  0
 32 33  1  0
 28 34  2  0
M  END
