DAV-CRI-14a23e73-4-vinylsulfonamide
     RDKit          3D

 26 27  0  0  0  0  0  0  0  0999 V2000
    7.5800   -3.1790   19.4300 C   0  0  0  0  0  0  0  0  0  0  0  0
    6.3820   -2.4310   19.9520 C   0  0  0  0  0  0  0  0  0  0  0  0
    6.0870   -2.6550   21.6790 S   0  0  0  0  0  0  0  0  0  0  0  0
    5.0210   -3.7500   21.7100 O   0  0  0  0  0  0  0  0  0  0  0  0
    5.7390   -1.3430   22.1890 O   0  0  0  0  0  0  0  0  0  0  0  0
    7.7450   -2.9800   22.2010 N   0  0  0  0  0  0  0  0  0  0  0  0
    8.3850   -2.7060   23.5600 C   0  0  2  0  0  0  0  0  0  0  0  0
    7.5170   -1.9720   24.3300 C   0  0  0  0  0  0  0  0  0  0  0  0
    9.8620   -2.0770   23.7480 C   0  0  0  0  0  0  0  0  0  0  0  0
   10.9990   -2.7410   24.2510 C   0  0  0  0  0  0  0  0  0  0  0  0
   10.1970   -0.7350   23.4910 C   0  0  0  0  0  0  0  0  0  0  0  0
   12.3840   -2.1460   24.4870 C   0  0  0  0  0  0  0  0  0  0  0  0
   11.4710   -0.1670   23.7270 C   0  0  0  0  0  0  0  0  0  0  0  0
   13.6790   -3.0160   25.1270 Cl  0  0  0  0  0  0  0  0  0  0  0  0
   12.5510   -0.8390   24.1980 C   0  0  0  0  0  0  0  0  0  0  0  0
   11.5660    1.2880   23.5060 C   0  0  0  0  0  0  0  0  0  0  0  0
   12.7130    2.0710   22.9380 C   0  0  0  0  0  0  0  0  0  0  0  0
   10.4010    1.8640   23.9360 C   0  0  0  0  0  0  0  0  0  0  0  0
   12.3640    3.5910   22.9420 C   0  0  0  0  0  0  0  0  0  0  0  0
   10.1250    3.1950   23.9220 C   0  0  0  0  0  0  0  0  0  0  0  0
   10.9920    4.0930   23.4820 C   0  0  0  0  0  0  0  0  0  0  0  0
    8.8610    3.5900   24.4070 C   0  0  0  0  0  0  0  0  0  0  0  0
   10.4690    5.7670   23.5850 S   0  0  0  0  0  0  0  0  0  0  0  0
    9.0760    5.6970   22.6680 N   0  0  0  0  0  0  0  0  0  0  0  0
   11.4220    6.6080   22.9190 O   0  0  0  0  0  0  0  0  0  0  0  0
   10.0570    6.0030   24.9570 O   0  0  0  0  0  0  0  0  0  0  0  0
  1  2  1  0
  2  3  1  0
  3  4  2  0
  3  5  2  0
  3  6  1  0
  6  7  1  0
  7  8  1  6
  7  9  1  0
  9 10  2  0
  9 11  1  0
 10 12  1  0
 11 13  2  0
 12 14  1  0
 12 15  2  0
 13 15  1  0
 13 16  1  0
 16 17  2  0
 16 18  1  0
 17 19  1  0
 18 20  2  0
 19 21  2  0
 20 21  1  0
 20 22  1  0
 21 23  1  0
 23 24  1  0
 23 25  2  0
 23 26  2  0
M  END
