DAV-CRI-3edb475e-5-nitrile
     RDKit          3D

 15 15  0  0  0  0  0  0  0  0999 V2000
    6.9420   -4.1110   20.3650 C   0  0  0  0  0  0  0  0  0  0  0  0
    6.0580   -3.4700   19.6480 N   0  0  0  0  0  0  0  0  0  0  0  0
    7.6060   -3.6000   21.6090 N   0  0  0  0  0  0  0  0  0  0  0  0
    8.0510   -2.2000   21.9720 C   0  0  2  0  0  0  0  0  0  0  0  0
    8.1710   -1.7590   20.7340 C   0  0  0  0  0  0  0  0  0  0  0  0
    9.3350   -1.7580   22.5340 C   0  0  0  0  0  0  0  0  0  0  0  0
    7.0700   -1.0890   20.1220 N   0  0  0  0  0  0  0  0  0  0  0  0
    9.5400   -0.8640   23.7760 C   0  0  0  0  0  0  0  0  0  0  0  0
   10.5210   -2.1040   21.8880 C   0  0  0  0  0  0  0  0  0  0  0  0
    7.2270    0.3450   20.3360 C   0  0  0  0  0  0  0  0  0  0  0  0
    7.1190   -1.5270   18.7350 C   0  0  0  0  0  0  0  0  0  0  0  0
   10.8380   -0.4570   24.1670 C   0  0  0  0  0  0  0  0  0  0  0  0
   11.9140   -1.6520   22.3160 C   0  0  0  0  0  0  0  0  0  0  0  0
   12.0960   -0.8440   23.4290 C   0  0  0  0  0  0  0  0  0  0  0  0
   13.1880   -2.1940   21.3390 Cl  0  0  0  0  0  0  0  0  0  0  0  0
  1  2  2  3
  1  3  1  0
  3  4  1  0
  4  5  1  6
  4  6  1  0
  5  7  1  0
  6  8  2  0
  6  9  1  0
  7 10  1  0
  7 11  1  0
  8 12  1  0
  9 13  2  0
 12 14  2  0
 13 14  1  0
 13 15  1  0
M  END
