DAV-UNK-07f953a2-1-vinylsulfonamide
     RDKit          3D

 34 36  0  0  0  0  0  0  0  0999 V2000
    8.1580   -3.1400   19.0760 C   0  0  0  0  0  0  0  0  0  0  0  0
    6.6560   -3.2400   19.0320 C   0  0  0  0  0  0  0  0  0  0  0  0
    5.8500   -4.1440   20.2690 S   0  0  0  0  0  0  0  0  0  0  0  0
    4.9800   -3.2070   20.9240 O   0  0  0  0  0  0  0  0  0  0  0  0
    5.3600   -5.3580   19.7110 O   0  0  0  0  0  0  0  0  0  0  0  0
    6.9910   -4.4980   21.3950 N   0  0  0  0  0  0  0  0  0  0  0  0
    7.2270   -5.8860   21.5110 C   0  0  0  0  0  0  0  0  0  0  0  0
    6.4730   -4.0180   22.6020 C   0  0  0  0  0  0  0  0  0  0  0  0
    6.9330   -6.5150   22.8640 C   0  0  0  0  0  0  0  0  0  0  0  0
    5.2920   -4.7600   22.7680 C   0  0  0  0  0  0  0  0  0  0  0  0
    5.7560   -5.9090   23.5720 C   0  0  0  0  0  0  0  0  0  0  0  0
    6.1940   -5.1800   24.7740 N   0  0  0  0  0  0  0  0  0  0  0  0
    5.3370   -5.2890   26.2080 S   0  0  0  0  0  0  0  0  0  0  0  0
    4.7240   -6.5970   26.2510 O   0  0  0  0  0  0  0  0  0  0  0  0
    6.2290   -4.8380   27.2450 O   0  0  0  0  0  0  0  0  0  0  0  0
    4.0260   -4.1000   26.0470 C   0  0  0  0  0  0  0  0  0  0  0  0
    2.8150   -4.4590   25.4530 C   0  0  0  0  0  0  0  0  0  0  0  0
    4.2230   -2.8020   26.5370 C   0  0  0  0  0  0  0  0  0  0  0  0
    1.6840   -3.3830   25.3640 C   0  0  0  0  0  0  0  0  0  0  0  0
    3.2370   -1.8030   26.4790 C   0  0  0  0  0  0  0  0  0  0  0  0
    1.9710   -2.0190   25.9250 C   0  0  0  0  0  0  0  0  0  0  0  0
    0.9490   -1.0550   25.8580 N   0  0  0  0  0  0  0  0  0  0  0  0
   -0.3200   -1.1540   26.4080 C   0  0  0  0  0  0  0  0  0  0  0  0
   -0.6730   -1.9850   27.2430 O   0  0  0  0  0  0  0  0  0  0  0  0
   -1.2010   -0.1870   25.9140 C   0  0  0  0  0  0  0  0  0  0  0  0
   -1.6630    0.7780   26.8380 O   0  0  0  0  0  0  0  0  0  0  0  0
   -1.9620    2.0290   26.3640 C   0  0  0  0  0  0  0  0  0  0  0  0
   -3.3920    2.6300   26.3080 C   0  0  0  0  0  0  0  0  0  0  0  0
   -0.8590    2.7670   25.9150 C   0  0  0  0  0  0  0  0  0  0  0  0
   -3.4810    4.0700   25.7290 C   0  0  0  0  0  0  0  0  0  0  0  0
   -0.9850    4.0550   25.4030 C   0  0  0  0  0  0  0  0  0  0  0  0
    0.4130    2.1970   25.9820 C   0  0  0  0  0  0  0  0  0  0  0  0
   -2.2130    4.7270   25.2900 C   0  0  0  0  0  0  0  0  0  0  0  0
   -2.2870    6.1290   24.7230 C   0  0  0  0  0  0  0  0  0  0  0  0
  1  2  1  0
  3  2  1  0
  3  4  2  0
  3  5  2  0
  3  6  1  0
  6  7  1  0
  6  8  1  0
  7  9  1  0
  8 10  1  0
  9 11  1  0
 10 11  1  0
 11 12  1  0
 13 12  1  0
 13 14  2  0
 13 15  2  0
 13 16  1  0
 16 17  2  0
 16 18  1  0
 17 19  1  0
 18 20  2  0
 19 21  2  0
 20 21  1  0
 21 22  1  0
 22 23  1  0
 23 24  2  0
 23 25  1  0
 25 26  1  0
 26 27  1  0
 27 28  2  0
 27 29  1  0
 28 30  1  0
 29 31  2  0
 29 32  1  0
 30 33  2  0
 31 33  1  0
 33 34  1  0
M  END
