DAV-CRI-d1e0885a-3-acrylamide
     RDKit          3D

 22 23  0  0  0  0  0  0  0  0999 V2000
    6.3700   -4.6620   19.9430 C   0  0  0  0  0  0  0  0  0  0  0  0
    6.8260   -3.2910   19.5070 C   0  0  0  0  0  0  0  0  0  0  0  0
    5.9770   -2.6960   20.4960 C   0  0  0  0  0  0  0  0  0  0  0  0
    4.7950   -2.9560   20.4130 O   0  0  0  0  0  0  0  0  0  0  0  0
    6.5650   -2.0190   21.5340 N   0  0  0  0  0  0  0  0  0  0  0  0
    6.6130   -2.8390   22.7590 C   0  0  0  0  0  0  0  0  0  0  0  0
    7.7600   -1.2050   21.2660 C   0  0  0  0  0  0  0  0  0  0  0  0
    7.9990   -3.4150   23.0640 C   0  0  0  0  0  0  0  0  0  0  0  0
    8.9300   -1.9400   21.5520 C   0  0  0  0  0  0  0  0  0  0  0  0
    8.9990   -2.3790   22.8310 N   0  0  0  0  0  0  0  0  0  0  0  0
   10.3190   -2.4790   23.3230 C   0  0  0  0  0  0  0  0  0  0  0  0
   10.6350   -1.1790   23.5790 C   0  0  0  0  0  0  0  0  0  0  0  0
   11.7920   -0.7640   22.9310 C   0  0  0  0  0  0  0  0  0  0  0  0
    9.8460   -0.3980   24.3870 C   0  0  0  0  0  0  0  0  0  0  0  0
   12.0450    0.6250   23.2110 C   0  0  0  0  0  0  0  0  0  0  0  0
   10.2200    1.0290   24.5980 C   0  0  0  0  0  0  0  0  0  0  0  0
    8.6960   -0.8820   25.0100 C   0  0  0  0  0  0  0  0  0  0  0  0
   13.1320    1.4390   22.7150 N   0  0  0  0  0  0  0  0  0  0  0  0
   11.3020    1.4590   23.9860 N   0  0  0  0  0  0  0  0  0  0  0  0
    8.2940    0.0930   25.8990 N   0  0  0  0  0  0  0  0  0  0  0  0
   12.7980    2.8050   22.6010 C   0  0  0  0  0  0  0  0  0  0  0  0
   11.8370    2.9830   23.3330 O   0  0  0  0  0  0  0  0  0  0  0  0
  1  2  1  0
  2  3  1  0
  3  4  2  0
  3  5  1  0
  5  6  1  0
  5  7  1  0
  6  8  1  0
  7  9  1  0
  8 10  1  0
  9 10  1  0
 10 11  1  0
 11 12  1  0
 12 13  2  0
 12 14  1  0
 13 15  1  0
 14 16  2  0
 14 17  1  0
 15 18  1  0
 15 19  2  0
 16 19  1  0
 17 20  3  0
 18 21  1  0
 21 22  1  0
M  END
