DAV-CRI-25b90884-4-bromoalkyne
     RDKit          3D

 26 27  0  0  0  0  0  0  0  0999 V2000
    6.9100   -3.9440   20.0990 C   0  0  0  0  0  0  0  0  0  0  0  0
    5.8500   -3.2430   19.3000 C   0  0  0  0  0  0  0  0  0  0  0  0
    7.9730   -3.2250   20.6360 N   0  0  0  0  0  0  0  0  0  0  0  0
    8.1270   -2.5680   22.0000 C   0  0  1  0  0  0  0  0  0  0  0  0
    7.0420   -1.8560   22.5140 N   0  0  0  0  0  0  0  0  0  0  0  0
    8.7700   -3.4450   23.0760 C   0  0  0  0  0  0  0  0  0  0  0  0
    7.3080   -0.6750   23.1640 C   0  0  0  0  0  0  0  0  0  0  0  0
    9.4990   -2.5990   22.3410 C   0  0  0  0  0  0  0  0  0  0  0  0
    7.4980   -3.7460   23.0960 C   0  0  0  0  0  0  0  0  0  0  0  0
    8.5310   -0.5520   23.9120 O   0  0  0  0  0  0  0  0  0  0  0  0
    6.3870    0.3680   23.0240 C   0  0  2  0  0  0  0  0  0  0  0  0
    8.5410   -1.9790   21.4400 C   0  0  0  0  0  0  0  0  0  0  0  0
    6.4840   -3.2940   22.3670 C   0  0  0  0  0  0  0  0  0  0  0  0
    5.1550    0.0600   23.7500 N   0  0  0  0  0  0  0  0  0  0  0  0
    6.0800    0.5720   21.5470 C   0  0  0  0  0  0  0  0  0  0  0  0
    7.0630   -2.3040   21.4360 C   0  0  0  0  0  0  0  0  0  0  0  0
    4.8420   -3.7940   22.5110 Cl  0  0  0  0  0  0  0  0  0  0  0  0
    5.1990   -0.4470   25.0240 C   0  0  0  0  0  0  0  0  0  0  0  0
    7.1530    0.2880   20.5330 C   0  0  0  0  0  0  0  0  0  0  0  0
    4.8110    1.0180   21.0970 C   0  0  0  0  0  0  0  0  0  0  0  0
    5.4360   -1.9510   25.0890 C   0  0  0  0  0  0  0  0  0  0  0  0
    5.0630    0.2480   26.0320 O   0  0  0  0  0  0  0  0  0  0  0  0
    6.8750    0.4700   19.0540 C   0  0  0  0  0  0  0  0  0  0  0  0
    4.4470    1.2270   19.6860 C   0  0  0  0  0  0  0  0  0  0  0  0
    5.5090    0.9440   18.6220 C   0  0  0  0  0  0  0  0  0  0  0  0
    5.2970    1.0950   17.2280 O   0  0  0  0  0  0  0  0  0  0  0  0
  1  2  2  3
  1  3  1  0
  4  3  1  6
  4  5  1  0
  4  6  1  0
  5  7  1  0
  6  8  2  0
  6  9  1  0
  7 10  2  0
  7 11  1  0
  8 12  1  0
  9 13  2  0
 11 14  1  1
 11 15  1  0
 12 16  2  0
 13 16  1  0
 13 17  1  0
 14 18  1  0
 15 19  2  0
 15 20  1  0
 18 21  1  0
 18 22  2  0
 19 23  1  0
 20 24  2  0
 23 25  2  0
 24 25  1  0
 25 26  1  0
M  END
