DAV-UNK-07f953a2-2-nitrile
     RDKit          3D

 32 34  0  0  0  0  0  0  0  0999 V2000
    7.2270   -2.5540   18.8390 C   0  0  0  0  0  0  0  0  0  0  0  0
    6.2020   -2.7340   18.1240 N   0  0  0  0  0  0  0  0  0  0  0  0
    7.0790   -1.5890   19.8660 N   0  0  0  0  0  0  0  0  0  0  0  0
    6.2110   -0.4250   19.5820 C   0  0  0  0  0  0  0  0  0  0  0  0
    7.8950   -1.5080   21.1240 C   0  0  0  0  0  0  0  0  0  0  0  0
    5.3560    0.0450   20.7710 C   0  0  0  0  0  0  0  0  0  0  0  0
    7.4660   -0.3510   22.0560 C   0  0  2  0  0  0  0  0  0  0  0  0
    5.9260   -0.3250   22.1380 C   0  0  1  0  0  0  0  0  0  0  0  0
    7.9680    0.9480   21.4530 C   0  0  0  0  0  0  0  0  0  0  0  0
    5.4870    0.6330   23.1440 O   0  0  0  0  0  0  0  0  0  0  0  0
    4.0640    0.5650   23.3560 C   0  0  0  0  0  0  0  0  0  0  0  0
    3.3700    0.8480   24.6790 C   0  0  0  0  0  0  0  0  0  0  0  0
    3.5970    1.9890   25.0530 O   0  0  0  0  0  0  0  0  0  0  0  0
    2.6130   -0.1020   25.3040 N   0  0  0  0  0  0  0  0  0  0  0  0
    3.0860   -1.3890   25.5180 C   0  0  0  0  0  0  0  0  0  0  0  0
    2.3940   -2.7690   25.3210 C   0  0  0  0  0  0  0  0  0  0  0  0
    4.4040   -1.4150   25.9740 C   0  0  0  0  0  0  0  0  0  0  0  0
    3.1930   -3.9910   25.6200 C   0  0  0  0  0  0  0  0  0  0  0  0
    5.0940   -2.5980   26.2360 C   0  0  0  0  0  0  0  0  0  0  0  0
    4.5220   -3.8610   26.0650 C   0  0  0  0  0  0  0  0  0  0  0  0
    5.5750   -5.2220   26.4300 S   0  0  0  0  0  0  0  0  0  0  0  0
    6.0420   -5.0710   27.7850 O   0  0  0  0  0  0  0  0  0  0  0  0
    4.9210   -6.4160   25.9490 O   0  0  0  0  0  0  0  0  0  0  0  0
    6.8330   -4.8540   25.3640 N   0  0  0  0  0  0  0  0  0  0  0  0
    6.4260   -4.6090   24.0540 C   0  0  0  0  0  0  0  0  0  0  0  0
    5.9930   -3.3960   23.4690 C   0  0  0  0  0  0  0  0  0  0  0  0
    6.4240   -5.6870   23.1740 C   0  0  0  0  0  0  0  0  0  0  0  0
    5.5480   -3.3480   21.9540 C   0  0  0  0  0  0  0  0  0  0  0  0
    6.0760   -5.7880   21.8920 C   0  0  0  0  0  0  0  0  0  0  0  0
    5.6280   -4.7100   21.2010 C   0  0  0  0  0  0  0  0  0  0  0  0
    5.2830   -4.8560   19.9180 O   0  0  0  0  0  0  0  0  0  0  0  0
    5.6910   -6.2010   19.7640 C   0  0  0  0  0  0  0  0  0  0  0  0
  1  2  2  3
  1  3  1  0
  3  4  1  0
  3  5  1  0
  4  6  1  0
  5  7  1  0
  6  8  1  0
  7  8  1  0
  7  9  1  6
  8 10  1  1
 10 11  1  0
 11 12  1  0
 12 13  2  0
 12 14  1  0
 14 15  1  0
 15 16  2  0
 15 17  1  0
 16 18  1  0
 17 19  2  0
 18 20  2  0
 19 20  1  0
 20 21  1  0
 21 22  2  0
 21 23  2  0
 21 24  1  0
 24 25  1  0
 25 26  2  0
 25 27  1  0
 26 28  1  0
 27 29  2  0
 28 30  2  0
 29 30  1  0
 30 31  1  0
 31 32  1  0
M  END
