DAV-CRI-f9b12666-2-chloroacetamide
     RDKit          3D

 40 43  0  0  0  0  0  0  0  0999 V2000
    7.2650   -3.2920   19.4990 C   0  0  0  0  0  0  0  0  0  0  0  0
    6.2360   -3.8780   20.2190 C   0  0  0  0  0  0  0  0  0  0  0  0
    5.1920   -4.2560   19.7270 O   0  0  0  0  0  0  0  0  0  0  0  0
    6.3300   -4.0180   21.6120 N   0  0  0  0  0  0  0  0  0  0  0  0
    7.2230   -3.1920   22.3680 C   0  0  0  0  0  0  0  0  0  0  0  0
    5.9100   -5.1270   22.4840 C   0  0  2  0  0  0  0  0  0  0  0  0
    8.2950   -4.1160   22.8380 C   0  0  1  0  0  0  0  0  0  0  0  0
    7.0580   -6.0790   22.6540 C   0  0  0  0  0  0  0  0  0  0  0  0
    4.6290   -5.7410   22.1150 N   0  0  0  0  0  0  0  0  0  0  0  0
    9.4120   -3.3720   23.3780 C   0  0  0  0  0  0  0  0  0  0  0  0
    7.9690   -5.2690   23.5430 C   0  0  0  0  0  0  0  0  0  0  0  0
    3.7510   -5.5640   23.1180 C   0  0  0  0  0  0  0  0  0  0  0  0
    9.7530   -2.0030   23.3220 N   0  0  0  0  0  0  0  0  0  0  0  0
   10.4950   -4.4120   24.2040 S   0  0  0  0  0  0  0  0  0  0  0  0
    3.7360   -4.5080   23.7510 O   0  0  0  0  0  0  0  0  0  0  0  0
    2.8930   -6.6400   23.3960 C   0  0  2  0  0  0  0  0  0  0  0  0
   10.9660   -1.8670   23.9410 C   0  0  0  0  0  0  0  0  0  0  0  0
   11.5290   -3.0970   24.4690 C   0  0  0  0  0  0  0  0  0  0  0  0
    1.5560   -6.4880   23.0380 C   0  0  0  0  0  0  0  0  0  0  0  0
    2.7590   -6.5590   24.8850 N   0  0  0  0  0  0  0  0  0  0  0  0
   11.7030   -0.5850   24.1030 C   0  0  0  0  0  0  0  0  0  0  0  0
   12.7460   -3.2570   25.1240 C   0  0  0  0  0  0  0  0  0  0  0  0
    0.9310   -7.2870   22.0490 C   0  0  0  0  0  0  0  0  0  0  0  0
    3.0250   -7.8530   25.4510 C   0  0  2  0  0  0  0  0  0  0  0  0
   11.4870    0.7760   23.8040 C   0  0  0  0  0  0  0  0  0  0  0  0
   12.9860   -0.7480   24.7870 C   0  0  0  0  0  0  0  0  0  0  0  0
   13.5190   -2.0530   25.2940 C   0  0  0  0  0  0  0  0  0  0  0  0
    1.4630   -8.5050   21.6950 N   0  0  0  0  0  0  0  0  0  0  0  0
   -0.0840   -6.9090   21.5040 O   0  0  0  0  0  0  0  0  0  0  0  0
    2.1100   -8.8760   24.8130 C   0  0  0  0  0  0  0  0  0  0  0  0
    2.7180   -7.7750   26.8540 N   0  0  0  0  0  0  0  0  0  0  0  0
   10.2650    1.2350   24.2450 C   0  0  0  0  0  0  0  0  0  0  0  0
   12.3990    1.6640   23.1670 C   0  0  0  0  0  0  0  0  0  0  0  0
    9.9070    2.5540   24.1100 C   0  0  0  0  0  0  0  0  0  0  0  0
   12.0370    3.0220   23.0320 C   0  0  0  0  0  0  0  0  0  0  0  0
   10.7940    3.4460   23.5260 C   0  0  0  0  0  0  0  0  0  0  0  0
   10.3570    5.1150   23.4410 S   0  0  0  0  0  0  0  0  0  0  0  0
    8.9420    5.0820   22.5430 N   0  0  0  0  0  0  0  0  0  0  0  0
   11.3470    5.8450   22.6940 O   0  0  0  0  0  0  0  0  0  0  0  0
    9.9430    5.5420   24.7650 O   0  0  0  0  0  0  0  0  0  0  0  0
  1  2  1  0
  2  3  2  0
  2  4  1  0
  4  5  1  0
  4  6  1  0
  5  7  1  0
  6  8  1  0
  6  9  1  6
  7 10  1  1
  7 11  1  0
  8 11  1  0
  9 12  1  0
 10 13  2  0
 10 14  1  0
 12 15  2  0
 12 16  1  0
 13 17  1  0
 14 18  1  0
 17 18  2  0
 16 19  1  6
 16 20  1  0
 17 21  1  0
 18 22  1  0
 19 23  1  0
 20 24  1  0
 21 25  1  0
 21 26  2  0
 22 27  2  0
 26 27  1  0
 23 28  1  0
 23 29  2  0
 24 30  1  6
 24 31  1  0
 25 32  2  0
 25 33  1  0
 32 34  1  0
 33 35  2  0
 34 36  2  0
 35 36  1  0
 36 37  1  0
 37 38  1  0
 37 39  2  0
 37 40  2  0
M  END
