DAV-CRI-25b90884-4-nitrile
     RDKit          3D

 26 27  0  0  0  0  0  0  0  0999 V2000
    7.7560   -3.4410   19.9810 C   0  0  0  0  0  0  0  0  0  0  0  0
    7.8770   -3.0270   18.8210 N   0  0  0  0  0  0  0  0  0  0  0  0
    7.0510   -2.5760   20.8100 N   0  0  0  0  0  0  0  0  0  0  0  0
    7.2660   -1.8620   22.1290 C   0  0  2  0  0  0  0  0  0  0  0  0
    8.2690   -0.7650   22.2510 N   0  0  0  0  0  0  0  0  0  0  0  0
    7.1870   -2.8270   23.3080 C   0  0  0  0  0  0  0  0  0  0  0  0
    7.7730    0.4720   22.6770 C   0  0  0  0  0  0  0  0  0  0  0  0
    7.8920   -4.1440   23.3360 C   0  0  0  0  0  0  0  0  0  0  0  0
    6.4010   -2.4740   24.4310 C   0  0  0  0  0  0  0  0  0  0  0  0
    8.6050    1.5580   23.0900 O   0  0  0  0  0  0  0  0  0  0  0  0
    6.3990    0.5240   22.6090 C   0  0  1  0  0  0  0  0  0  0  0  0
    7.7770   -5.0040   24.4290 C   0  0  0  0  0  0  0  0  0  0  0  0
    6.3260   -3.3900   25.5130 C   0  0  0  0  0  0  0  0  0  0  0  0
    5.9070    1.6980   23.3160 N   0  0  0  0  0  0  0  0  0  0  0  0
    6.1380    0.6880   21.1350 C   0  0  0  0  0  0  0  0  0  0  0  0
    6.9990   -4.6190   25.5050 C   0  0  0  0  0  0  0  0  0  0  0  0
    5.3740   -2.9830   26.8860 Cl  0  0  0  0  0  0  0  0  0  0  0  0
    5.5800    1.5750   24.6440 C   0  0  0  0  0  0  0  0  0  0  0  0
    5.1520    1.5420   20.6290 C   0  0  0  0  0  0  0  0  0  0  0  0
    6.9630   -0.0740   20.2870 C   0  0  0  0  0  0  0  0  0  0  0  0
    4.5980    0.6130   24.9150 C   0  0  0  0  0  0  0  0  0  0  0  0
    6.1800    2.3660   25.6710 O   0  0  0  0  0  0  0  0  0  0  0  0
    4.9450    1.6750   19.1390 C   0  0  0  0  0  0  0  0  0  0  0  0
    6.8360   -0.0100   18.7960 C   0  0  0  0  0  0  0  0  0  0  0  0
    5.8050    0.8880   18.1540 C   0  0  0  0  0  0  0  0  0  0  0  0
    5.6820    0.9710   16.9690 O   0  0  0  0  0  0  0  0  0  0  0  0
  1  2  2  3
  1  3  1  0
  4  3  1  6
  4  5  1  0
  4  6  1  0
  5  7  1  0
  6  8  2  0
  6  9  1  0
  7 10  2  0
  7 11  1  0
  8 12  1  0
  9 13  2  0
 11 14  1  1
 11 15  1  0
 12 16  2  0
 13 16  1  0
 13 17  1  0
 14 18  1  0
 15 19  2  0
 15 20  1  0
 18 21  1  0
 18 22  2  0
 19 23  1  0
 20 24  2  0
 23 25  2  0
 24 25  1  0
 25 26  1  0
M  END
