DAV-CRI-d1e0885a-4-vinylsulfonamide
     RDKit          3D

 22 23  0  0  0  0  0  0  0  0999 V2000
    7.4250   -2.8080   18.1280 C   0  0  0  0  0  0  0  0  0  0  0  0
    6.4150   -2.1080   19.0040 C   0  0  0  0  0  0  0  0  0  0  0  0
    5.7270   -3.0250   20.3450 S   0  0  0  0  0  0  0  0  0  0  0  0
    5.2430   -4.3740   20.0340 O   0  0  0  0  0  0  0  0  0  0  0  0
    4.8660   -2.1280   20.9640 O   0  0  0  0  0  0  0  0  0  0  0  0
    7.0200   -2.8590   21.3840 N   0  0  0  0  0  0  0  0  0  0  0  0
    7.5350   -1.4970   21.3950 C   0  0  0  0  0  0  0  0  0  0  0  0
    7.0750   -3.6150   22.5980 C   0  0  0  0  0  0  0  0  0  0  0  0
    8.8520   -1.4710   22.0130 C   0  0  0  0  0  0  0  0  0  0  0  0
    8.2610   -3.3130   23.2920 C   0  0  0  0  0  0  0  0  0  0  0  0
    9.2680   -2.7700   22.5340 N   0  0  0  0  0  0  0  0  0  0  0  0
   10.4640   -2.5920   23.2210 C   0  0  0  0  0  0  0  0  0  0  0  0
   10.5260   -1.4120   23.8750 C   0  0  0  0  0  0  0  0  0  0  0  0
   11.6120   -1.3510   22.9540 C   0  0  0  0  0  0  0  0  0  0  0  0
   10.7950   -0.1010   24.4200 C   0  0  0  0  0  0  0  0  0  0  0  0
   11.8780   -2.3910   22.0940 C   0  0  0  0  0  0  0  0  0  0  0  0
   12.5550   -0.2100   22.8020 C   0  0  0  0  0  0  0  0  0  0  0  0
   12.1100    0.9440   23.8680 S   0  0  0  0  0  0  0  0  0  0  0  0
   10.0060    0.3470   25.3780 N   0  0  0  0  0  0  0  0  0  0  0  0
   12.8650   -2.3290   21.1750 N   0  0  0  0  0  0  0  0  0  0  0  0
    8.7210   -0.2030   25.7290 C   0  0  0  0  0  0  0  0  0  0  0  0
    8.5320    0.0240   27.2340 C   0  0  0  0  0  0  0  0  0  0  0  0
  1  2  1  0
  3  2  1  0
  3  4  2  0
  3  5  2  0
  3  6  1  0
  6  7  1  0
  6  8  1  0
  7  9  1  0
  8 10  1  0
  9 11  1  0
 10 11  1  0
 11 12  1  0
 12 13  1  0
 13 14  1  0
 13 15  2  0
 14 16  1  0
 14 17  2  0
 15 18  1  0
 17 18  1  0
 15 19  1  0
 16 20  3  0
 19 21  1  0
 21 22  1  0
M  END
