DAV-CRI-d1e0885a-6-vinylsulfonamide
     RDKit          3D

 23 24  0  0  0  0  0  0  0  0999 V2000
    7.8850   -3.3380   19.5860 C   0  0  0  0  0  0  0  0  0  0  0  0
    6.9500   -2.4740   18.8040 C   0  0  0  0  0  0  0  0  0  0  0  0
    5.5840   -2.5580   19.8590 S   0  0  0  0  0  0  0  0  0  0  0  0
    5.1060   -3.9350   19.8410 O   0  0  0  0  0  0  0  0  0  0  0  0
    4.7550   -1.4200   19.5440 O   0  0  0  0  0  0  0  0  0  0  0  0
    6.3480   -2.1880   21.3210 N   0  0  0  0  0  0  0  0  0  0  0  0
    7.2070   -1.0040   21.3000 C   0  0  0  0  0  0  0  0  0  0  0  0
    6.6130   -3.2600   22.2730 C   0  0  0  0  0  0  0  0  0  0  0  0
    8.5550   -1.2870   21.8150 C   0  0  0  0  0  0  0  0  0  0  0  0
    7.9750   -3.3350   22.6010 C   0  0  0  0  0  0  0  0  0  0  0  0
    8.5550   -2.1650   22.9790 N   0  0  0  0  0  0  0  0  0  0  0  0
    9.8580   -2.3170   23.4540 C   0  0  0  0  0  0  0  0  0  0  0  0
   10.6860   -1.2170   23.5190 C   0  0  0  0  0  0  0  0  0  0  0  0
   11.8470   -1.2700   22.8080 C   0  0  0  0  0  0  0  0  0  0  0  0
   10.5340    0.0170   24.2100 C   0  0  0  0  0  0  0  0  0  0  0  0
   12.2240   -2.3430   22.0500 C   0  0  0  0  0  0  0  0  0  0  0  0
   12.7030   -0.0450   22.9030 C   0  0  0  0  0  0  0  0  0  0  0  0
   11.9150    1.0780   23.9050 S   0  0  0  0  0  0  0  0  0  0  0  0
    9.5040    0.3780   24.9740 N   0  0  0  0  0  0  0  0  0  0  0  0
   13.0110   -2.2080   20.9770 N   0  0  0  0  0  0  0  0  0  0  0  0
    9.2660   -0.0060   26.3480 C   0  0  0  0  0  0  0  0  0  0  0  0
    7.7970   -0.1840   26.6890 C   0  0  0  0  0  0  0  0  0  0  0  0
   10.1070   -0.1560   27.1660 O   0  0  0  0  0  0  0  0  0  0  0  0
  1  2  1  0
  3  2  1  0
  3  4  2  0
  3  5  2  0
  3  6  1  0
  6  7  1  0
  6  8  1  0
  7  9  1  0
  8 10  1  0
  9 11  1  0
 10 11  1  0
 11 12  1  0
 12 13  1  0
 13 14  1  0
 13 15  2  0
 14 16  1  0
 14 17  2  0
 15 18  1  0
 17 18  1  0
 15 19  1  0
 16 20  3  0
 19 21  1  0
 21 22  1  0
 21 23  2  0
M  END
