DAV-CRI-f9b12666-10-vinylsulfonamide
     RDKit          3D

 43 46  0  0  0  0  0  0  0  0999 V2000
    8.1080   -3.6230   20.0470 C   0  0  0  0  0  0  0  0  0  0  0  0
    7.1220   -2.7670   19.7950 C   0  0  0  0  0  0  0  0  0  0  0  0
    5.6730   -3.3900   20.5710 S   0  0  0  0  0  0  0  0  0  0  0  0
    5.0560   -4.3180   19.6560 O   0  0  0  0  0  0  0  0  0  0  0  0
    4.9870   -2.2500   21.1230 O   0  0  0  0  0  0  0  0  0  0  0  0
    6.2440   -4.2830   21.9160 N   0  0  0  0  0  0  0  0  0  0  0  0
    7.4400   -3.7010   22.5200 C   0  0  0  0  0  0  0  0  0  0  0  0
    6.0340   -5.7350   22.0380 C   0  0  1  0  0  0  0  0  0  0  0  0
    7.6950   -4.1450   23.9520 C   0  0  2  0  0  0  0  0  0  0  0  0
    7.1000   -6.2630   22.7720 C   0  0  0  0  0  0  0  0  0  0  0  0
    4.7860   -6.0730   22.4260 N   0  0  0  0  0  0  0  0  0  0  0  0
    9.1110   -3.7220   24.2650 C   0  0  0  0  0  0  0  0  0  0  0  0
    7.4300   -5.6260   24.1460 C   0  0  0  0  0  0  0  0  0  0  0  0
    3.9790   -5.4050   23.3150 C   0  0  0  0  0  0  0  0  0  0  0  0
    9.5000   -2.5560   23.5840 N   0  0  0  0  0  0  0  0  0  0  0  0
   10.3650   -4.3660   25.2560 S   0  0  0  0  0  0  0  0  0  0  0  0
    4.2740   -4.3120   23.7910 O   0  0  0  0  0  0  0  0  0  0  0  0
    2.7750   -6.0630   23.6520 C   0  0  2  0  0  0  0  0  0  0  0  0
   10.7640   -2.2460   23.8490 C   0  0  0  0  0  0  0  0  0  0  0  0
   11.4380   -3.0910   24.7190 C   0  0  0  0  0  0  0  0  0  0  0  0
    2.5570   -6.3960   24.9960 C   0  0  0  0  0  0  0  0  0  0  0  0
    2.6370   -7.3230   22.8560 N   0  0  0  0  0  0  0  0  0  0  0  0
   11.4370   -1.0740   23.2510 C   0  0  0  0  0  0  0  0  0  0  0  0
   12.7590   -2.8210   25.0000 C   0  0  0  0  0  0  0  0  0  0  0  0
    3.0040   -7.6580   25.3670 C   0  0  0  0  0  0  0  0  0  0  0  0
    1.3280   -7.5400   22.2530 C   0  0  2  0  0  0  0  0  0  0  0  0
   12.7430   -0.7940   23.5250 C   0  0  0  0  0  0  0  0  0  0  0  0
   13.3760   -1.7120   24.4070 C   0  0  0  0  0  0  0  0  0  0  0  0
    2.4440   -8.2220   26.4780 N   0  0  0  0  0  0  0  0  0  0  0  0
    3.8530   -8.2310   24.7280 O   0  0  0  0  0  0  0  0  0  0  0  0
    0.3410   -7.9840   23.2920 C   0  0  0  0  0  0  0  0  0  0  0  0
    1.5560   -8.6330   21.3370 N   0  0  0  0  0  0  0  0  0  0  0  0
   13.2190    0.3820   22.8610 C   0  0  0  0  0  0  0  0  0  0  0  0
   12.2690    1.3310   23.2200 C   0  0  0  0  0  0  0  0  0  0  0  0
   11.2920    0.6450   23.8780 C   0  0  0  0  0  0  0  0  0  0  0  0
   12.1280    2.7570   23.0530 C   0  0  0  0  0  0  0  0  0  0  0  0
   10.1600    1.2220   24.3850 C   0  0  0  0  0  0  0  0  0  0  0  0
   10.9730    3.4480   23.5710 C   0  0  0  0  0  0  0  0  0  0  0  0
    9.9510    2.5630   24.2640 C   0  0  0  0  0  0  0  0  0  0  0  0
   10.5930    5.1890   23.5200 S   0  0  0  0  0  0  0  0  0  0  0  0
    9.1480    5.1750   22.6580 N   0  0  0  0  0  0  0  0  0  0  0  0
   10.2300    5.6010   24.8610 O   0  0  0  0  0  0  0  0  0  0  0  0
   11.5730    5.9120   22.7570 O   0  0  0  0  0  0  0  0  0  0  0  0
  1  2  1  0
  3  2  1  0
  3  4  2  0
  3  5  2  0
  3  6  1  0
  6  7  1  0
  6  8  1  0
  7  9  1  0
  8 10  1  0
  8 11  1  1
  9 12  1  6
  9 13  1  0
 10 13  1  0
 11 14  1  0
 12 15  2  0
 12 16  1  0
 14 17  2  0
 14 18  1  0
 15 19  1  0
 16 20  1  0
 19 20  2  0
 18 21  1  1
 18 22  1  0
 19 23  1  0
 20 24  1  0
 21 25  1  0
 22 26  1  0
 23 27  2  0
 24 28  2  0
 27 28  1  0
 25 29  1  0
 25 30  2  0
 26 31  1  1
 26 32  1  0
 27 33  1  0
 33 34  1  0
 34 35  2  0
 34 36  1  0
 35 37  1  0
 36 38  2  0
 37 39  2  0
 38 39  1  0
 38 40  1  0
 40 41  1  0
 40 42  2  0
 40 43  2  0
M  END
