DAV-UNK-07f953a2-3-vinylsulfonamide
     RDKit          3D

 35 38  0  0  0  0  0  0  0  0999 V2000
    7.3960   -3.0760   18.8960 C   0  0  0  0  0  0  0  0  0  0  0  0
    7.0710   -3.0670   20.3740 C   0  0  0  0  0  0  0  0  0  0  0  0
    6.3790   -4.6500   20.7280 S   0  0  0  0  0  0  0  0  0  0  0  0
    5.1560   -4.8210   19.9560 O   0  0  0  0  0  0  0  0  0  0  0  0
    7.4280   -5.6390   20.9000 O   0  0  0  0  0  0  0  0  0  0  0  0
    5.9600   -4.6640   22.2640 N   0  0  0  0  0  0  0  0  0  0  0  0
    5.6110   -6.0150   22.5950 C   0  0  0  0  0  0  0  0  0  0  0  0
    6.9510   -4.0900   23.1500 C   0  0  0  0  0  0  0  0  0  0  0  0
    4.9920   -6.0130   23.9540 C   0  0  0  0  0  0  0  0  0  0  0  0
    6.3440   -3.8970   24.3810 C   0  0  0  0  0  0  0  0  0  0  0  0
    5.8100   -5.1910   24.8830 N   0  0  0  0  0  0  0  0  0  0  0  0
    5.1790   -5.1430   26.4220 S   0  0  0  0  0  0  0  0  0  0  0  0
    6.2230   -4.6640   27.2980 O   0  0  0  0  0  0  0  0  0  0  0  0
    4.5270   -6.4150   26.6320 O   0  0  0  0  0  0  0  0  0  0  0  0
    3.9260   -3.8760   26.3120 C   0  0  0  0  0  0  0  0  0  0  0  0
    4.3380   -2.4390   26.3500 C   0  0  0  0  0  0  0  0  0  0  0  0
    2.5790   -4.2480   26.1980 C   0  0  0  0  0  0  0  0  0  0  0  0
    3.3300   -1.4770   26.2720 C   0  0  0  0  0  0  0  0  0  0  0  0
    1.5590   -3.2920   26.1220 C   0  0  0  0  0  0  0  0  0  0  0  0
    1.8360   -1.9300   26.1510 C   0  0  0  0  0  0  0  0  0  0  0  0
    0.9150   -0.9050   26.0870 O   0  0  0  0  0  0  0  0  0  0  0  0
    0.0330   -0.8510   24.9660 C   0  0  0  0  0  0  0  0  0  0  0  0
   -1.3220   -0.5530   25.1920 C   0  0  0  0  0  0  0  0  0  0  0  0
   -1.6810    0.2620   26.0380 O   0  0  0  0  0  0  0  0  0  0  0  0
   -2.1960   -1.2560   24.3740 N   0  0  0  0  0  0  0  0  0  0  0  0
   -2.7610   -0.7100   23.1550 C   0  0  0  0  0  0  0  0  0  0  0  0
   -2.7780   -1.6310   22.0970 C   0  0  0  0  0  0  0  0  0  0  0  0
   -2.8280   -1.1040   20.6290 C   0  0  0  0  0  0  0  0  0  0  0  0
   -2.7500   -3.0290   22.3330 C   0  0  0  0  0  0  0  0  0  0  0  0
   -2.8440   -2.2030   19.5180 C   0  0  0  0  0  0  0  0  0  0  0  0
   -2.7630   -3.9740   21.2760 C   0  0  0  0  0  0  0  0  0  0  0  0
   -2.8100   -3.6300   19.9420 C   0  0  0  0  0  0  0  0  0  0  0  0
   -2.7240   -5.2760   21.6020 O   0  0  0  0  0  0  0  0  0  0  0  0
   -2.4580   -5.7420   20.2400 C   0  0  0  0  0  0  0  0  0  0  0  0
   -2.8150   -4.7680   19.2010 O   0  0  0  0  0  0  0  0  0  0  0  0
  1  2  1  0
  3  2  1  0
  3  4  2  0
  3  5  2  0
  3  6  1  0
  6  7  1  0
  6  8  1  0
  7  9  1  0
  8 10  1  0
  9 11  1  0
 10 11  1  0
 11 12  1  0
 12 13  2  0
 12 14  2  0
 12 15  1  0
 15 16  2  0
 15 17  1  0
 16 18  1  0
 17 19  2  0
 18 20  2  0
 19 20  1  0
 20 21  1  0
 21 22  1  0
 22 23  1  0
 23 24  2  0
 23 25  1  0
 25 26  1  0
 26 27  1  0
 27 28  2  0
 27 29  1  0
 28 30  1  0
 29 31  2  0
 30 32  2  0
 31 32  1  0
 31 33  1  0
 33 34  1  0
 32 35  1  0
 34 35  1  0
M  END
