DAV-CRI-de95a6f4-2
     RDKit          3D

 27 29  0  0  0  0  0  0  0  0999 V2000
   12.0310    6.9240   24.2550 N   0  0  0  0  0  0  0  0  0  0  0  0
   11.6120    6.2560   22.7650 S   0  0  0  0  0  0  0  0  0  0  0  0
   10.2840    6.7100   22.4290 O   0  0  0  0  0  0  0  0  0  0  0  0
   12.7850    6.4550   21.9470 O   0  0  0  0  0  0  0  0  0  0  0  0
   11.6050    4.5410   23.1210 C   0  0  0  0  0  0  0  0  0  0  0  0
   12.8030    3.8050   22.6210 C   0  0  0  0  0  0  0  0  0  0  0  0
   10.5710    3.9010   23.8340 C   0  0  0  0  0  0  0  0  0  0  0  0
   12.9090    2.3520   22.9260 C   0  0  0  0  0  0  0  0  0  0  0  0
   10.6050    2.5160   24.1550 C   0  0  0  0  0  0  0  0  0  0  0  0
    9.4750    4.6000   24.2770 O   0  0  0  0  0  0  0  0  0  0  0  0
   11.8250    1.6930   23.7120 C   0  0  0  0  0  0  0  0  0  0  0  0
   11.9390    0.2350   24.0970 C   0  0  2  0  0  0  0  0  0  0  0  0
   12.5830   -0.4940   22.9460 C   0  0  0  0  0  0  0  0  0  0  0  0
   10.3260   -0.5460   24.2920 S   0  0  0  0  0  0  0  0  0  0  0  0
   11.7950   -1.6960   22.5460 C   0  0  0  0  0  0  0  0  0  0  0  0
   10.9070   -2.1080   23.5570 C   0  0  2  0  0  0  0  0  0  0  0  0
    9.8250   -2.8750   23.1560 C   0  0  0  0  0  0  0  0  0  0  0  0
    8.6260   -2.3460   23.1150 N   0  0  0  0  0  0  0  0  0  0  0  0
    8.5340   -1.4530   21.9380 C   0  0  0  0  0  0  0  0  0  0  0  0
    7.6590   -3.4350   22.8880 C   0  0  0  0  0  0  0  0  0  0  0  0
    7.2990   -0.9440   21.5170 C   0  0  0  0  0  0  0  0  0  0  0  0
    6.3800   -2.9700   22.4900 C   0  0  0  0  0  0  0  0  0  0  0  0
    6.3590   -2.0640   21.2910 N   0  0  0  0  0  0  0  0  0  0  0  0
    6.2950   -2.7940   20.0260 C   0  0  1  0  0  0  0  0  0  0  0  0
    5.3990   -3.6080   19.7770 O   0  0  0  0  0  0  0  0  0  0  0  0
    6.4780   -2.0280   18.8630 C   0  0  0  0  0  0  0  0  0  0  0  0
    5.6080   -0.5460   18.7460 Cl  0  0  0  0  0  0  0  0  0  0  0  0
  2  1  1  0
  2  3  2  0
  2  4  2  0
  2  5  1  0
  5  6  2  0
  5  7  1  0
  6  8  1  0
  7  9  2  0
  7 10  1  0
  8 11  2  0
  9 11  1  0
 12 11  1  6
 12 13  1  0
 12 14  1  0
 13 15  1  0
 14 16  1  0
 15 16  1  0
 16 17  1  6
 17 18  1  0
 18 19  1  0
 18 20  1  0
 19 21  1  0
 20 22  1  0
 21 23  1  0
 22 23  1  0
 23 24  1  0
 24 25  1  6
 24 26  1  0
 26 27  1  0
M  END
