DAV-CRI-25b90884-1-chloroacetamide
     RDKit          3D

 26 27  0  0  0  0  0  0  0  0999 V2000
    8.1080   -3.5580   20.4450 C   0  0  0  0  0  0  0  0  0  0  0  0
    7.7030   -2.2450   19.7540 C   0  0  0  0  0  0  0  0  0  0  0  0
    6.9940   -2.8690   18.8090 O   0  0  0  0  0  0  0  0  0  0  0  0
    8.4970   -1.8750   20.8500 N   0  0  0  0  0  0  0  0  0  0  0  0
    7.8580   -0.9850   21.8400 C   0  0  2  0  0  0  0  0  0  0  0  0
    8.6720   -0.0960   22.5170 C   0  0  0  0  0  0  0  0  0  0  0  0
    6.8660   -1.8170   22.6710 C   0  0  0  0  0  0  0  0  0  0  0  0
    7.9040    0.9370   23.0700 C   0  0  0  0  0  0  0  0  0  0  0  0
    5.7980   -2.4350   22.0170 C   0  0  0  0  0  0  0  0  0  0  0  0
    6.9890   -1.9780   24.0710 C   0  0  0  0  0  0  0  0  0  0  0  0
    6.8560    1.7140   22.5400 C   0  0  2  0  0  0  0  0  0  0  0  0
    4.8740   -3.1940   22.7320 C   0  0  0  0  0  0  0  0  0  0  0  0
    6.0820   -2.7140   24.7570 C   0  0  0  0  0  0  0  0  0  0  0  0
    5.6910    1.5270   23.2920 N   0  0  0  0  0  0  0  0  0  0  0  0
    6.4510    1.3220   21.1350 C   0  0  0  0  0  0  0  0  0  0  0  0
    5.0180   -3.3320   24.1080 C   0  0  0  0  0  0  0  0  0  0  0  0
    6.2080   -2.9060   26.4610 Cl  0  0  0  0  0  0  0  0  0  0  0  0
    5.8030    1.0610   24.6650 C   0  0  0  0  0  0  0  0  0  0  0  0
    5.1280    1.8980   20.5940 C   0  0  0  0  0  0  0  0  0  0  0  0
    7.2280    0.4710   20.3110 C   0  0  0  0  0  0  0  0  0  0  0  0
    5.0600   -0.1010   24.8660 C   0  0  0  0  0  0  0  0  0  0  0  0
    6.5180    1.6550   25.6660 O   0  0  0  0  0  0  0  0  0  0  0  0
    4.7480    1.5120   19.1850 C   0  0  0  0  0  0  0  0  0  0  0  0
    6.8950    0.1260   19.0700 C   0  0  0  0  0  0  0  0  0  0  0  0
    5.7030    0.5890   18.4360 C   0  0  0  0  0  0  0  0  0  0  0  0
    5.4570    0.1740   17.1380 O   0  0  0  0  0  0  0  0  0  0  0  0
  1  2  1  0
  2  3  2  0
  2  4  1  0
  4  5  1  0
  5  6  1  1
  5  7  1  0
  6  8  1  0
  7  9  2  0
  7 10  1  0
 11  8  1  1
  9 12  1  0
 10 13  2  0
 11 14  1  0
 11 15  1  0
 12 16  2  0
 13 16  1  0
 13 17  1  0
 14 18  1  0
 15 19  2  0
 15 20  1  0
 18 21  1  0
 18 22  2  0
 19 23  1  0
 20 24  2  0
 23 25  2  0
 24 25  1  0
 25 26  1  0
M  END
