DAV-UNK-07f953a2-2-acrylamide
     RDKit          3D

 34 36  0  0  0  0  0  0  0  0999 V2000
    7.6370   -2.4260   18.6620 C   0  0  0  0  0  0  0  0  0  0  0  0
    6.1420   -2.1540   18.6240 C   0  0  0  0  0  0  0  0  0  0  0  0
    5.5780   -2.1100   20.0130 C   0  0  0  0  0  0  0  0  0  0  0  0
    4.8470   -3.0260   20.3780 O   0  0  0  0  0  0  0  0  0  0  0  0
    5.9100   -1.0280   20.8380 N   0  0  0  0  0  0  0  0  0  0  0  0
    5.7770   -1.1460   22.3020 C   0  0  0  0  0  0  0  0  0  0  0  0
    5.6310    0.3180   20.3510 C   0  0  0  0  0  0  0  0  0  0  0  0
    6.5630   -0.0830   23.0690 C   0  0  0  0  0  0  0  0  0  0  0  0
    5.2280    1.2280   21.5280 C   0  0  2  0  0  0  0  0  0  0  0  0
    5.1470    0.3690   22.8250 C   0  0  2  0  0  0  0  0  0  0  0  0
    4.0600    1.9220   21.1730 C   0  0  0  0  0  0  0  0  0  0  0  0
    4.7970    1.0350   23.8180 O   0  0  0  0  0  0  0  0  0  0  0  0
    3.4860    0.8370   24.2000 C   0  0  0  0  0  0  0  0  0  0  0  0
    2.9200    0.9660   25.6680 C   0  0  0  0  0  0  0  0  0  0  0  0
    3.1460    1.9910   26.5460 O   0  0  0  0  0  0  0  0  0  0  0  0
    2.1490   -0.1660   25.8790 N   0  0  0  0  0  0  0  0  0  0  0  0
    2.8190   -1.4340   25.9890 C   0  0  0  0  0  0  0  0  0  0  0  0
    2.1440   -2.5940   25.5520 C   0  0  0  0  0  0  0  0  0  0  0  0
    4.1030   -1.5570   26.5000 C   0  0  0  0  0  0  0  0  0  0  0  0
    2.7810   -3.8300   25.6400 C   0  0  0  0  0  0  0  0  0  0  0  0
    4.6990   -2.8030   26.5710 C   0  0  0  0  0  0  0  0  0  0  0  0
    4.0700   -3.9670   26.1490 C   0  0  0  0  0  0  0  0  0  0  0  0
    5.0340   -5.3660   26.3370 S   0  0  0  0  0  0  0  0  0  0  0  0
    4.3760   -6.4890   25.7160 O   0  0  0  0  0  0  0  0  0  0  0  0
    5.5480   -5.4100   27.6860 O   0  0  0  0  0  0  0  0  0  0  0  0
    6.2710   -4.8730   25.3310 N   0  0  0  0  0  0  0  0  0  0  0  0
    6.0510   -4.8570   24.0490 C   0  0  0  0  0  0  0  0  0  0  0  0
    6.8160   -5.8440   23.1700 C   0  0  0  0  0  0  0  0  0  0  0  0
    5.1410   -3.9610   23.5420 C   0  0  0  0  0  0  0  0  0  0  0  0
    6.5050   -5.8080   21.7620 C   0  0  0  0  0  0  0  0  0  0  0  0
    4.8590   -3.9300   22.1960 C   0  0  0  0  0  0  0  0  0  0  0  0
    5.4760   -4.8060   21.3140 C   0  0  0  0  0  0  0  0  0  0  0  0
    5.2960   -4.9480   19.9980 O   0  0  0  0  0  0  0  0  0  0  0  0
    5.6820   -6.2820   19.8250 C   0  0  0  0  0  0  0  0  0  0  0  0
  1  2  1  0
  2  3  1  0
  3  4  2  0
  3  5  1  0
  5  6  1  0
  5  7  1  0
  6  8  1  0
  7  9  1  0
  8 10  1  0
  9 10  1  0
  9 11  1  6
 10 12  1  1
 12 13  1  0
 13 14  1  0
 14 15  2  0
 14 16  1  0
 16 17  1  0
 17 18  2  0
 17 19  1  0
 18 20  1  0
 19 21  2  0
 20 22  2  0
 21 22  1  0
 22 23  1  0
 23 24  2  0
 23 25  2  0
 23 26  1  0
 26 27  1  0
 27 28  2  0
 27 29  1  0
 28 30  1  0
 29 31  2  0
 30 32  2  0
 31 32  1  0
 32 33  1  0
 33 34  1  0
M  END
