DAV-CRI-f9b12666-7-acrylamide
     RDKit          3D

 42 45  0  0  0  0  0  0  0  0999 V2000
    8.2640   -3.5840   19.9700 C   0  0  0  0  0  0  0  0  0  0  0  0
    7.1700   -2.8590   19.7590 C   0  0  0  0  0  0  0  0  0  0  0  0
    6.0820   -3.7110   20.3080 C   0  0  0  0  0  0  0  0  0  0  0  0
    5.0000   -3.7080   19.7790 O   0  0  0  0  0  0  0  0  0  0  0  0
    6.4710   -4.4550   21.4180 N   0  0  0  0  0  0  0  0  0  0  0  0
    7.6450   -3.9660   22.0640 C   0  0  0  0  0  0  0  0  0  0  0  0
    5.7960   -5.6550   21.9330 C   0  0  1  0  0  0  0  0  0  0  0  0
    7.6640   -4.3410   23.5070 C   0  0  2  0  0  0  0  0  0  0  0  0
    6.6010   -6.4530   22.8040 C   0  0  0  0  0  0  0  0  0  0  0  0
    4.5380   -5.3080   22.2700 N   0  0  0  0  0  0  0  0  0  0  0  0
    8.9700   -3.7590   23.9070 C   0  0  0  0  0  0  0  0  0  0  0  0
    7.7220   -5.7830   23.6460 C   0  0  0  0  0  0  0  0  0  0  0  0
    3.9340   -5.2950   23.5000 C   0  0  0  0  0  0  0  0  0  0  0  0
    9.0610   -2.4030   23.6460 N   0  0  0  0  0  0  0  0  0  0  0  0
   10.4400   -4.3990   24.6160 S   0  0  0  0  0  0  0  0  0  0  0  0
    3.9770   -4.3200   24.2380 O   0  0  0  0  0  0  0  0  0  0  0  0
    3.2860   -6.4990   23.8270 C   0  0  2  0  0  0  0  0  0  0  0  0
   10.2400   -1.9300   23.9960 C   0  0  0  0  0  0  0  0  0  0  0  0
   11.1600   -2.7990   24.5480 C   0  0  0  0  0  0  0  0  0  0  0  0
    2.6830   -7.3380   22.8790 C   0  0  0  0  0  0  0  0  0  0  0  0
    2.5140   -6.4510   25.0880 N   0  0  0  0  0  0  0  0  0  0  0  0
   10.5010   -0.6470   23.8020 C   0  0  0  0  0  0  0  0  0  0  0  0
   12.4040   -2.2530   24.9140 C   0  0  0  0  0  0  0  0  0  0  0  0
    1.3800   -7.1030   22.4280 C   0  0  0  0  0  0  0  0  0  0  0  0
    3.0820   -7.5630   25.8230 C   0  0  1  0  0  0  0  0  0  0  0  0
   11.6310   -0.0550   24.1000 C   0  0  0  0  0  0  0  0  0  0  0  0
   12.6570   -0.8530   24.6920 C   0  0  0  0  0  0  0  0  0  0  0  0
    0.8490   -8.1760   21.7510 N   0  0  0  0  0  0  0  0  0  0  0  0
    0.7360   -6.0820   22.5590 O   0  0  0  0  0  0  0  0  0  0  0  0
    4.1990   -7.0520   26.6990 C   0  0  0  0  0  0  0  0  0  0  0  0
    2.0700   -8.1610   26.6500 N   0  0  0  0  0  0  0  0  0  0  0  0
   11.7220    1.2930   23.7780 C   0  0  0  0  0  0  0  0  0  0  0  0
   12.8680    1.6200   23.1090 C   0  0  0  0  0  0  0  0  0  0  0  0
   10.7620    2.3310   24.0380 C   0  0  0  0  0  0  0  0  0  0  0  0
   13.1560    2.9090   22.6700 C   0  0  0  0  0  0  0  0  0  0  0  0
   11.0150    3.6720   23.6010 C   0  0  0  0  0  0  0  0  0  0  0  0
   12.3080    3.9630   22.8650 C   0  0  0  0  0  0  0  0  0  0  0  0
    9.9680    5.1060   23.8120 S   0  0  0  0  0  0  0  0  0  0  0  0
   12.5560    5.2340   22.4410 O   0  0  0  0  0  0  0  0  0  0  0  0
    8.7860    4.8900   22.6380 N   0  0  0  0  0  0  0  0  0  0  0  0
   10.7450    6.2470   23.3630 O   0  0  0  0  0  0  0  0  0  0  0  0
    9.2940    5.1430   25.0880 O   0  0  0  0  0  0  0  0  0  0  0  0
  1  2  1  0
  2  3  1  0
  3  4  2  0
  3  5  1  0
  5  6  1  0
  5  7  1  0
  6  8  1  0
  7  9  1  0
  7 10  1  1
  8 11  1  6
  8 12  1  0
  9 12  1  0
 10 13  1  0
 11 14  2  0
 11 15  1  0
 13 16  2  0
 13 17  1  0
 14 18  1  0
 15 19  1  0
 18 19  2  0
 17 20  1  6
 17 21  1  0
 18 22  1  0
 19 23  1  0
 20 24  1  0
 21 25  1  0
 22 26  2  0
 23 27  2  0
 26 27  1  0
 24 28  1  0
 24 29  2  0
 25 30  1  1
 25 31  1  0
 26 32  1  0
 32 33  2  0
 32 34  1  0
 33 35  1  0
 34 36  2  0
 35 37  2  0
 36 37  1  0
 36 38  1  0
 37 39  1  0
 38 40  1  0
 38 41  2  0
 38 42  2  0
M  END
