DAV-CRI-8c8dd668-1-vinylsulfonamide
     RDKit          3D

 33 37  0  0  0  0  0  0  0  0999 V2000
    7.5600   -2.9950   18.5040 C   0  0  0  0  0  0  0  0  0  0  0  0
    7.4290   -2.4420   19.6840 C   0  0  0  0  0  0  0  0  0  0  0  0
    6.5770   -3.5200   20.7880 S   0  0  0  0  0  0  0  0  0  0  0  0
    5.2030   -3.6780   20.3510 O   0  0  0  0  0  0  0  0  0  0  0  0
    7.3700   -4.6830   21.1930 O   0  0  0  0  0  0  0  0  0  0  0  0
    6.6680   -2.4400   22.0730 N   0  0  0  0  0  0  0  0  0  0  0  0
    7.8860   -1.5580   22.1270 C   0  0  0  0  0  0  0  0  0  0  0  0
    6.2860   -3.1150   23.3160 C   0  0  1  0  0  0  0  0  0  0  0  0
    9.1180   -2.4030   22.5030 C   0  0  1  0  0  0  0  0  0  0  0  0
    7.3380   -3.6280   24.0440 C   0  0  0  0  0  0  0  0  0  0  0  0
    5.3940   -2.3740   24.0870 C   0  0  0  0  0  0  0  0  0  0  0  0
   10.2810   -1.4560   22.7950 C   0  0  0  0  0  0  0  0  0  0  0  0
    8.7980   -3.2710   23.6770 C   0  0  0  0  0  0  0  0  0  0  0  0
    7.0150   -4.4640   25.1320 C   0  0  0  0  0  0  0  0  0  0  0  0
    4.0600   -2.7440   24.2120 C   0  0  0  0  0  0  0  0  0  0  0  0
    5.8500   -1.2260   24.7730 C   0  0  0  0  0  0  0  0  0  0  0  0
   11.6100   -1.6190   22.0810 C   0  0  0  0  0  0  0  0  0  0  0  0
   10.1770   -0.4230   23.7280 C   0  0  0  0  0  0  0  0  0  0  0  0
    9.8740   -3.8600   24.5970 C   0  0  0  0  0  0  0  0  0  0  0  0
    7.9910   -5.0220   25.9710 C   0  0  0  0  0  0  0  0  0  0  0  0
    3.1990   -1.9770   25.0130 C   0  0  0  0  0  0  0  0  0  0  0  0
    5.0070   -0.4430   25.5780 C   0  0  0  0  0  0  0  0  0  0  0  0
   12.6590   -0.7520   22.3730 C   0  0  0  0  0  0  0  0  0  0  0  0
   11.2720    0.4040   23.9650 C   0  0  0  0  0  0  0  0  0  0  0  0
    9.4910   -4.7520   25.7630 C   0  0  0  0  0  0  0  0  0  0  0  0
    3.6670   -0.8480   25.6820 C   0  0  0  0  0  0  0  0  0  0  0  0
    5.4840    0.7140   26.2670 N   0  0  0  0  0  0  0  0  0  0  0  0
   12.4860    0.2560   23.3100 C   0  0  0  0  0  0  0  0  0  0  0  0
    6.6900    1.4060   25.8480 C   0  0  0  0  0  0  0  0  0  0  0  0
    5.1600    1.0850   27.5800 C   0  0  0  0  0  0  0  0  0  0  0  0
    6.9630    2.4600   26.9050 C   0  0  0  0  0  0  0  0  0  0  0  0
    5.7540    2.4470   27.8180 C   0  0  0  0  0  0  0  0  0  0  0  0
    4.5270    0.4750   28.4290 O   0  0  0  0  0  0  0  0  0  0  0  0
  1  2  1  0
  3  2  1  0
  3  4  2  0
  3  5  2  0
  3  6  1  0
  6  7  1  0
  6  8  1  0
  7  9  1  0
  8 10  1  0
  8 11  1  1
  9 12  1  1
  9 13  1  0
 10 13  2  0
 10 14  1  0
 11 15  2  0
 11 16  1  0
 12 17  2  0
 12 18  1  0
 13 19  1  0
 14 20  2  0
 15 21  1  0
 16 22  2  0
 17 23  1  0
 18 24  2  0
 19 25  2  0
 20 25  1  0
 21 26  2  0
 22 26  1  0
 22 27  1  0
 23 28  2  0
 24 28  1  0
 27 29  1  0
 27 30  1  0
 29 31  1  0
 30 32  1  0
 31 32  1  0
 30 33  2  0
M  END
