DAV-CRI-f4772df7-2-vinylsulfonamide
     RDKit          3D

 35 39  0  0  0  0  0  0  0  0999 V2000
    7.9350   -3.3660   19.6080 C   0  0  0  0  0  0  0  0  0  0  0  0
    7.0870   -2.5000   19.0670 C   0  0  0  0  0  0  0  0  0  0  0  0
    5.7770   -2.5140   20.2190 S   0  0  0  0  0  0  0  0  0  0  0  0
    5.1500   -3.8240   20.0090 O   0  0  0  0  0  0  0  0  0  0  0  0
    5.0460   -1.2710   20.1180 O   0  0  0  0  0  0  0  0  0  0  0  0
    6.7080   -2.4480   21.6820 N   0  0  0  0  0  0  0  0  0  0  0  0
    7.9570   -1.6510   21.6260 C   0  0  0  0  0  0  0  0  0  0  0  0
    6.1680   -2.7090   23.0360 C   0  0  2  0  0  0  0  0  0  0  0  0
    9.0980   -2.3600   22.3630 C   0  0  1  0  0  0  0  0  0  0  0  0
    7.2210   -3.3060   23.7900 C   0  0  0  0  0  0  0  0  0  0  0  0
    4.9720   -3.6490   22.8400 C   0  0  1  0  0  0  0  0  0  0  0  0
   10.2410   -1.4170   22.7530 C   0  0  0  0  0  0  0  0  0  0  0  0
    8.6220   -3.1890   23.5470 C   0  0  0  0  0  0  0  0  0  0  0  0
    6.9290   -4.1760   25.0180 C   0  0  0  0  0  0  0  0  0  0  0  0
    5.5450   -4.7050   22.1250 C   0  0  0  0  0  0  0  0  0  0  0  0
    4.1170   -4.2300   24.0520 C   0  0  1  0  0  0  0  0  0  0  0  0
   11.5700   -1.6510   22.0650 C   0  0  0  0  0  0  0  0  0  0  0  0
   10.1250   -0.3790   23.6870 C   0  0  0  0  0  0  0  0  0  0  0  0
    9.6270   -3.7890   24.3400 C   0  0  0  0  0  0  0  0  0  0  0  0
    7.9370   -4.7560   25.7740 C   0  0  0  0  0  0  0  0  0  0  0  0
    5.0860   -6.1910   22.9730 S   0  0  0  0  0  0  0  0  0  0  0  0
    4.7730   -5.3690   24.5040 C   0  0  0  0  0  0  0  0  0  0  0  0
    3.6790   -3.3950   25.1970 N   0  0  0  0  0  0  0  0  0  0  0  0
   12.6950   -0.7490   22.4270 C   0  0  0  0  0  0  0  0  0  0  0  0
   11.2280    0.4310   23.9750 C   0  0  0  0  0  0  0  0  0  0  0  0
    9.4030   -4.5800   25.4600 C   0  0  0  0  0  0  0  0  0  0  0  0
    3.8300   -6.6550   22.4560 O   0  0  0  0  0  0  0  0  0  0  0  0
    6.2580   -7.0200   23.0440 O   0  0  0  0  0  0  0  0  0  0  0  0
    2.3020   -3.5560   25.7280 C   0  0  0  0  0  0  0  0  0  0  0  0
    4.3790   -2.3800   26.0310 C   0  0  0  0  0  0  0  0  0  0  0  0
   12.4670    0.2470   23.3600 C   0  0  0  0  0  0  0  0  0  0  0  0
   10.4050   -5.1110   26.1630 F   0  0  0  0  0  0  0  0  0  0  0  0
    2.2360   -2.6090   26.7500 C   0  0  0  0  0  0  0  0  0  0  0  0
    3.4480   -1.9650   26.9620 C   0  0  0  0  0  0  0  0  0  0  0  0
    5.5240   -1.9860   25.9330 O   0  0  0  0  0  0  0  0  0  0  0  0
  1  2  1  0
  3  2  1  0
  3  4  2  0
  3  5  2  0
  3  6  1  0
  6  7  1  0
  8  6  1  6
  7  9  1  0
  8 10  1  0
  8 11  1  0
  9 12  1  1
  9 13  1  0
 10 13  2  0
 10 14  1  0
 11 15  1  1
 11 16  1  0
 12 17  2  0
 12 18  1  0
 13 19  1  0
 14 20  2  0
 21 15  1  0
 16 22  1  0
 21 22  1  0
 16 23  1  1
 17 24  1  0
 18 25  2  0
 19 26  2  0
 20 26  1  0
 21 27  2  0
 21 28  2  0
 23 29  1  0
 23 30  1  0
 24 31  2  0
 25 31  1  0
 26 32  1  0
 29 33  1  0
 30 34  1  0
 33 34  1  0
 30 35  2  0
M  END
