DAV-CRI-14a23e73-6-bromoalkyne
     RDKit          3D

 23 24  0  0  0  0  0  0  0  0999 V2000
    7.2580   -3.5350   20.0050 C   0  0  0  0  0  0  0  0  0  0  0  0
    6.2500   -2.8970   19.0710 C   0  0  0  0  0  0  0  0  0  0  0  0
    8.2690   -2.7730   20.6340 N   0  0  0  0  0  0  0  0  0  0  0  0
    8.3830   -2.3660   22.0790 C   0  0  2  0  0  0  0  0  0  0  0  0
    7.2720   -1.7490   22.5930 C   0  0  0  0  0  0  0  0  0  0  0  0
    9.6250   -1.5050   22.3460 C   0  0  0  0  0  0  0  0  0  0  0  0
   10.8560   -2.0980   22.4060 C   0  0  0  0  0  0  0  0  0  0  0  0
    9.5660   -0.0900   22.5500 C   0  0  0  0  0  0  0  0  0  0  0  0
   12.0750   -1.2840   22.6820 C   0  0  0  0  0  0  0  0  0  0  0  0
   10.7250    0.7040   22.8040 C   0  0  0  0  0  0  0  0  0  0  0  0
   13.5150   -2.1010   22.7500 Cl  0  0  0  0  0  0  0  0  0  0  0  0
   11.9620    0.0770   22.8680 C   0  0  0  0  0  0  0  0  0  0  0  0
   10.7120    2.2390   23.0110 C   0  0  0  0  0  0  0  0  0  0  0  0
   11.7210    2.9100   22.7860 O   0  0  0  0  0  0  0  0  0  0  0  0
    9.3760    2.8130   23.5260 C   0  0  2  0  0  0  0  0  0  0  0  0
    8.4090    3.0710   22.3390 C   0  0  0  0  0  0  0  0  0  0  0  0
    9.6310    4.0890   24.1070 C   0  0  0  0  0  0  0  0  0  0  0  0
    8.0810    4.5490   22.2610 C   0  0  0  0  0  0  0  0  0  0  0  0
    8.8930    5.0920   23.4000 C   0  0  0  0  0  0  0  0  0  0  0  0
    8.9320    6.8140   23.8190 S   0  0  0  0  0  0  0  0  0  0  0  0
   10.2950    6.9020   24.7960 N   0  0  0  0  0  0  0  0  0  0  0  0
    7.7900    7.1160   24.6560 O   0  0  0  0  0  0  0  0  0  0  0  0
    9.1870    7.5920   22.6310 O   0  0  0  0  0  0  0  0  0  0  0  0
  1  2  2  3
  1  3  1  0
  3  4  1  0
  4  5  1  6
  4  6  1  0
  6  7  2  0
  6  8  1  0
  7  9  1  0
  8 10  2  0
  9 11  1  0
  9 12  2  0
 10 12  1  0
 10 13  1  0
 13 14  2  0
 15 13  1  6
 15 16  1  0
 15 17  1  0
 16 18  2  0
 17 19  2  0
 18 19  1  0
 19 20  1  0
 20 21  1  0
 20 22  2  0
 20 23  2  0
M  END
