DAV-CRI-1c77f7a9-4-chloroacetamide
     RDKit          3D

 27 30  0  0  0  0  0  0  0  0999 V2000
    7.2200   -3.0420   18.9860 C   0  0  0  0  0  0  0  0  0  0  0  0
    6.4750   -3.4450   20.0180 C   0  0  0  0  0  0  0  0  0  0  0  0
    5.5600   -4.2660   19.8470 O   0  0  0  0  0  0  0  0  0  0  0  0
    6.7820   -2.9110   21.3080 N   0  0  0  0  0  0  0  0  0  0  0  0
    6.0880   -3.3820   22.5250 C   0  0  0  0  0  0  0  0  0  0  0  0
    8.0210   -2.1410   21.5680 C   0  0  2  0  0  0  0  0  0  0  0  0
    7.1060   -3.8060   23.5820 C   0  0  0  0  0  0  0  0  0  0  0  0
    8.4250   -1.9750   22.8970 C   0  0  1  0  0  0  0  0  0  0  0  0
    7.9510   -0.8080   20.8530 C   0  0  0  0  0  0  0  0  0  0  0  0
    6.8010   -5.0420   24.4570 C   0  0  0  0  0  0  0  0  0  0  0  0
    8.2750   -3.0730   23.7230 C   0  0  0  0  0  0  0  0  0  0  0  0
    9.7700   -1.6680   22.9470 C   0  0  0  0  0  0  0  0  0  0  0  0
    6.7190   -0.3000   20.4440 C   0  0  0  0  0  0  0  0  0  0  0  0
    7.9080   -5.3550   25.4600 C   0  0  0  0  0  0  0  0  0  0  0  0
    9.2630   -3.4170   24.6630 C   0  0  0  0  0  0  0  0  0  0  0  0
   10.5800   -1.8640   21.8370 C   0  0  0  0  0  0  0  0  0  0  0  0
   10.3620   -1.1510   24.1920 C   0  0  0  0  0  0  0  0  0  0  0  0
    6.5440    0.0610   19.1120 C   0  0  0  0  0  0  0  0  0  0  0  0
    5.6180   -0.1120   21.2760 C   0  0  0  0  0  0  0  0  0  0  0  0
    9.1290   -4.4990   25.5120 C   0  0  0  0  0  0  0  0  0  0  0  0
   11.9430   -1.6280   21.7170 C   0  0  0  0  0  0  0  0  0  0  0  0
   11.8350   -0.9270   24.0410 C   0  0  0  0  0  0  0  0  0  0  0  0
    5.3610    0.5840   18.6160 C   0  0  0  0  0  0  0  0  0  0  0  0
    4.3260    0.4410   20.8100 N   0  0  0  0  0  0  0  0  0  0  0  0
   12.6000   -1.1140   22.9370 C   0  0  0  0  0  0  0  0  0  0  0  0
   12.6460   -0.4310   25.3510 Cl  0  0  0  0  0  0  0  0  0  0  0  0
    4.2250    0.8030   19.3870 C   0  0  0  0  0  0  0  0  0  0  0  0
  1  2  1  0
  2  3  2  0
  2  4  1  0
  4  5  1  0
  4  6  1  0
  5  7  1  0
  6  8  1  0
  6  9  1  1
  7 10  1  0
  7 11  2  0
  8 11  1  0
  8 12  1  6
  9 13  1  0
 10 14  2  0
 11 15  1  0
 12 16  2  0
 12 17  1  0
 13 18  2  0
 13 19  1  0
 14 20  1  0
 15 20  2  0
 16 21  1  0
 17 22  2  0
 18 23  1  0
 19 24  2  0
 21 25  2  0
 22 25  1  0
 22 26  1  0
 23 27  2  0
 24 27  1  0
M  END
