DAV-CRI-25b90884-3-acrylamide
     RDKit          3D

 27 28  0  0  0  0  0  0  0  0999 V2000
    6.6770   -4.9370   20.6360 C   0  0  0  0  0  0  0  0  0  0  0  0
    6.7240   -5.1870   22.1910 C   0  0  0  0  0  0  0  0  0  0  0  0
    5.6390   -4.3680   22.9080 C   0  0  0  0  0  0  0  0  0  0  0  0
    4.9010   -4.7340   21.9290 O   0  0  0  0  0  0  0  0  0  0  0  0
    6.7250   -4.1870   23.7430 N   0  0  0  0  0  0  0  0  0  0  0  0
    7.3220   -2.8950   23.8480 C   0  0  2  0  0  0  0  0  0  0  0  0
    6.5230   -1.9960   24.5660 C   0  0  0  0  0  0  0  0  0  0  0  0
    7.5790   -2.4420   22.5720 C   0  0  0  0  0  0  0  0  0  0  0  0
    6.1860   -0.6630   24.2180 C   0  0  0  0  0  0  0  0  0  0  0  0
    8.5600   -1.6030   22.2120 C   0  0  0  0  0  0  0  0  0  0  0  0
    6.7960   -2.9110   21.5700 C   0  0  0  0  0  0  0  0  0  0  0  0
    4.7730   -0.3370   23.7710 C   0  0  2  0  0  0  0  0  0  0  0  0
    8.6570   -1.2380   20.8770 C   0  0  0  0  0  0  0  0  0  0  0  0
    6.8620   -2.6150   20.2400 C   0  0  0  0  0  0  0  0  0  0  0  0
    3.8730   -1.3300   23.7790 N   0  0  0  0  0  0  0  0  0  0  0  0
    4.8330    0.1440   22.2800 C   0  0  0  0  0  0  0  0  0  0  0  0
    7.8430   -1.7060   19.7480 C   0  0  0  0  0  0  0  0  0  0  0  0
    5.7350   -3.3800   19.1280 Cl  0  0  0  0  0  0  0  0  0  0  0  0
    3.0200   -1.6050   24.9510 C   0  0  0  0  0  0  0  0  0  0  0  0
    5.0180   -0.9010   21.1620 C   0  0  0  0  0  0  0  0  0  0  0  0
    4.7090    1.5480   21.8980 C   0  0  0  0  0  0  0  0  0  0  0  0
    2.6830   -3.0650   25.1240 C   0  0  0  0  0  0  0  0  0  0  0  0
    2.5400   -0.7240   25.7130 O   0  0  0  0  0  0  0  0  0  0  0  0
    5.0560   -0.3540   19.7390 C   0  0  0  0  0  0  0  0  0  0  0  0
    4.7990    1.9970   20.5450 C   0  0  0  0  0  0  0  0  0  0  0  0
    4.9740    1.1760   19.4520 C   0  0  0  0  0  0  0  0  0  0  0  0
    5.0360    1.6140   18.3040 O   0  0  0  0  0  0  0  0  0  0  0  0
  1  2  1  0
  2  3  1  0
  3  4  2  0
  3  5  1  0
  5  6  1  0
  6  7  1  6
  6  8  1  0
  7  9  3  0
  8 10  2  0
  8 11  1  0
 12  9  1  6
 10 13  1  0
 11 14  2  0
 12 15  1  0
 12 16  1  0
 13 17  2  0
 14 17  1  0
 14 18  1  0
 15 19  1  0
 16 20  2  0
 16 21  1  0
 19 22  1  0
 19 23  2  0
 20 24  1  0
 21 25  2  0
 24 26  2  0
 25 26  1  0
 26 27  1  0
M  END
