DAV-CRI-3fe943ba-2-bromoalkyne
     RDKit          3D

 26 29  0  0  0  0  0  0  0  0999 V2000
    6.5630   -3.9370   19.8610 C   0  0  0  0  0  0  0  0  0  0  0  0
    6.4690   -2.9240   18.7290 C   0  0  0  0  0  0  0  0  0  0  0  0
    6.8530   -3.4140   21.0600 N   0  0  0  0  0  0  0  0  0  0  0  0
    6.1220   -3.8070   22.2960 C   0  0  0  0  0  0  0  0  0  0  0  0
    8.0910   -2.6150   21.1670 C   0  0  0  0  0  0  0  0  0  0  0  0
    7.1140   -4.0770   23.3310 C   0  0  0  0  0  0  0  0  0  0  0  0
    8.1550   -2.1000   22.5650 C   0  0  1  0  0  0  0  0  0  0  0  0
    7.1040   -5.2360   24.2830 C   0  0  0  0  0  0  0  0  0  0  0  0
    8.2030   -3.1290   23.4260 C   0  0  0  0  0  0  0  0  0  0  0  0
    9.2630   -1.0610   22.8530 C   0  0  0  0  0  0  0  0  0  0  0  0
    8.1230   -5.3780   25.2040 C   0  0  0  0  0  0  0  0  0  0  0  0
    9.1290   -3.3180   24.3070 C   0  0  0  0  0  0  0  0  0  0  0  0
   10.6290   -1.4840   22.2950 C   0  0  0  0  0  0  0  0  0  0  0  0
    9.0320    0.2210   23.5310 C   0  0  0  0  0  0  0  0  0  0  0  0
    9.1220   -4.4090   25.1790 C   0  0  0  0  0  0  0  0  0  0  0  0
   11.6620   -0.5190   22.4420 C   0  0  0  0  0  0  0  0  0  0  0  0
   10.1010    1.0230   23.5790 C   0  0  0  0  0  0  0  0  0  0  0  0
   11.3620    0.7290   23.0620 C   0  0  0  0  0  0  0  0  0  0  0  0
    9.6770    2.3120   24.2740 C   0  0  0  0  0  0  0  0  0  0  0  0
   10.3860    3.4490   23.5980 C   0  0  0  0  0  0  0  0  0  0  0  0
   12.3100    1.8590   23.2110 C   0  0  0  0  0  0  0  0  0  0  0  0
   11.5550    3.0110   22.7890 C   0  0  2  0  0  0  0  0  0  0  0  0
   12.4720    4.5490   22.4680 S   0  0  0  0  0  0  0  0  0  0  0  0
   13.8140    4.4880   23.4940 N   0  0  0  0  0  0  0  0  0  0  0  0
   11.6780    5.6560   22.9660 O   0  0  0  0  0  0  0  0  0  0  0  0
   12.9300    4.5670   21.1090 O   0  0  0  0  0  0  0  0  0  0  0  0
  1  2  2  3
  1  3  1  0
  3  4  1  0
  3  5  1  0
  4  6  1  0
  5  7  1  0
  6  8  1  0
  6  9  2  0
  7  9  1  0
  7 10  1  6
  8 11  2  0
  9 12  1  0
 10 13  2  0
 10 14  1  0
 11 15  1  0
 12 15  2  0
 13 16  1  0
 14 17  2  0
 16 18  2  0
 17 18  1  0
 17 19  1  0
 19 20  1  0
 18 21  1  0
 20 22  1  0
 21 22  1  0
 22 23  1  1
 23 24  1  0
 23 25  2  0
 23 26  2  0
M  END
