DAV-CRI-e1c2b579-7
     RDKit          3D

 23 23  0  0  0  0  0  0  0  0999 V2000
    1.2110   -8.6700   21.4100 C   0  0  0  0  0  0  0  0  0  0  0  0
    1.3630   -7.3650   22.1670 C   0  0  0  0  0  0  0  0  0  0  0  0
    0.4410   -6.5640   22.2490 O   0  0  0  0  0  0  0  0  0  0  0  0
    2.6190   -7.1500   22.7160 N   0  0  0  0  0  0  0  0  0  0  0  0
    2.9100   -6.0210   23.6480 C   0  0  1  0  0  0  0  0  0  0  0  0
    2.3710   -6.4040   25.0230 C   0  0  0  0  0  0  0  0  0  0  0  0
    4.4660   -5.7290   23.7190 C   0  0  1  0  0  0  0  0  0  0  0  0
    2.8780   -7.8000   25.3780 C   0  0  0  0  0  0  0  0  0  0  0  0
    5.2600   -5.8410   22.4430 C   0  0  0  0  0  0  0  0  0  0  0  0
    4.8410   -4.4970   24.5350 N   0  0  0  0  0  0  0  0  0  0  0  0
    2.2640   -8.4960   26.5090 N   0  0  0  0  0  0  0  0  0  0  0  0
    3.7770   -8.2770   24.7050 O   0  0  0  0  0  0  0  0  0  0  0  0
    5.9240   -4.7180   22.0270 N   0  0  0  0  0  0  0  0  0  0  0  0
    6.1710   -4.3110   24.3910 C   0  0  0  0  0  0  0  0  0  0  0  0
    4.0420   -3.4050   24.4780 C   0  0  2  0  0  0  0  0  0  0  0  0
    6.2250   -4.2610   20.7450 C   0  0  1  0  0  0  0  0  0  0  0  0
    6.5930   -4.0870   23.0860 C   0  0  0  0  0  0  0  0  0  0  0  0
    4.7800   -2.2420   24.4980 O   0  0  0  0  0  0  0  0  0  0  0  0
    2.9860   -3.1910   25.3740 C   0  0  0  0  0  0  0  0  0  0  0  0
    5.5660   -5.1790   19.8600 O   0  0  0  0  0  0  0  0  0  0  0  0
    5.6860   -3.0080   20.4350 C   0  0  0  0  0  0  0  0  0  0  0  0
    2.8960   -2.0310   26.0940 O   0  0  0  0  0  0  0  0  0  0  0  0
    6.7570   -1.7650   19.9100 Cl  0  0  0  0  0  0  0  0  0  0  0  0
  1  2  1  0
  2  3  2  0
  2  4  1  0
  4  5  1  0
  5  6  1  1
  5  7  1  0
  6  8  1  0
  7  9  1  6
  7 10  1  0
  8 11  1  0
  8 12  2  0
  9 13  1  0
 10 14  1  0
 10 15  1  0
 13 16  1  0
 13 17  1  0
 14 17  1  0
 15 18  1  1
 15 19  1  0
 16 20  1  6
 16 21  1  0
 19 22  1  0
 21 23  1  0
M  END
