DAV-CRI-f9b12666-6-chloroacetamide
     RDKit          3D

 41 44  0  0  0  0  0  0  0  0999 V2000
    7.1400   -3.2650   19.3380 C   0  0  0  0  0  0  0  0  0  0  0  0
    6.2270   -3.9480   20.1000 C   0  0  0  0  0  0  0  0  0  0  0  0
    5.1130   -4.2150   19.6930 O   0  0  0  0  0  0  0  0  0  0  0  0
    6.5490   -4.3610   21.4020 N   0  0  0  0  0  0  0  0  0  0  0  0
    7.6430   -3.6500   22.0530 C   0  0  0  0  0  0  0  0  0  0  0  0
    6.3770   -5.7520   21.8620 C   0  0  1  0  0  0  0  0  0  0  0  0
    7.7000   -3.7860   23.5330 C   0  0  2  0  0  0  0  0  0  0  0  0
    7.4370   -6.0840   22.8910 C   0  0  0  0  0  0  0  0  0  0  0  0
    4.9590   -6.0940   22.2920 N   0  0  0  0  0  0  0  0  0  0  0  0
    9.0810   -3.2910   23.8220 C   0  0  0  0  0  0  0  0  0  0  0  0
    7.4460   -5.0630   24.0200 C   0  0  0  0  0  0  0  0  0  0  0  0
    4.2770   -5.4590   23.2840 C   0  0  0  0  0  0  0  0  0  0  0  0
    9.5300   -1.9430   23.7030 N   0  0  0  0  0  0  0  0  0  0  0  0
   10.3190   -4.4420   24.3580 S   0  0  0  0  0  0  0  0  0  0  0  0
    4.7530   -4.5330   23.9410 O   0  0  0  0  0  0  0  0  0  0  0  0
    2.9490   -5.9310   23.5020 C   0  0  1  0  0  0  0  0  0  0  0  0
   10.8470   -1.8540   24.0680 C   0  0  0  0  0  0  0  0  0  0  0  0
   11.4450   -3.1170   24.4790 C   0  0  0  0  0  0  0  0  0  0  0  0
    2.6530   -7.1880   22.9410 C   0  0  0  0  0  0  0  0  0  0  0  0
    2.8530   -6.1710   24.9850 N   0  0  0  0  0  0  0  0  0  0  0  0
   11.6490   -0.5690   24.0780 C   0  0  0  0  0  0  0  0  0  0  0  0
   12.7650   -3.2510   24.9320 C   0  0  0  0  0  0  0  0  0  0  0  0
    1.4050   -7.3280   22.2890 C   0  0  0  0  0  0  0  0  0  0  0  0
    2.8790   -7.5730   25.3700 C   0  0  1  0  0  0  0  0  0  0  0  0
   11.4310    0.8040   23.8070 C   0  0  0  0  0  0  0  0  0  0  0  0
   13.0340   -0.7390   24.5190 C   0  0  0  0  0  0  0  0  0  0  0  0
   13.5760   -2.0610   24.9470 C   0  0  0  0  0  0  0  0  0  0  0  0
    1.1610   -8.5620   21.7440 N   0  0  0  0  0  0  0  0  0  0  0  0
    0.5680   -6.4330   22.1810 O   0  0  0  0  0  0  0  0  0  0  0  0
    2.8650   -7.7020   26.8770 C   0  0  0  0  0  0  0  0  0  0  0  0
    1.6360   -8.1170   24.8660 N   0  0  0  0  0  0  0  0  0  0  0  0
   12.3760    1.6400   23.1530 C   0  0  0  0  0  0  0  0  0  0  0  0
   10.2380    1.3370   24.2600 C   0  0  0  0  0  0  0  0  0  0  0  0
   12.1090    3.0190   22.9910 C   0  0  0  0  0  0  0  0  0  0  0  0
    9.9750    2.6820   24.1030 C   0  0  0  0  0  0  0  0  0  0  0  0
   10.8950    3.5160   23.4970 C   0  0  0  0  0  0  0  0  0  0  0  0
    8.7620    3.0930   24.6040 O   0  0  0  0  0  0  0  0  0  0  0  0
   10.3580    5.1590   23.4800 S   0  0  0  0  0  0  0  0  0  0  0  0
    8.9330    5.0940   22.5920 N   0  0  0  0  0  0  0  0  0  0  0  0
    9.9380    5.4890   24.8240 O   0  0  0  0  0  0  0  0  0  0  0  0
   11.2930    5.9940   22.7630 O   0  0  0  0  0  0  0  0  0  0  0  0
  1  2  1  0
  2  3  2  0
  2  4  1  0
  4  5  1  0
  4  6  1  0
  5  7  1  0
  6  8  1  0
  6  9  1  1
  7 10  1  6
  7 11  1  0
  8 11  1  0
  9 12  1  0
 10 13  2  0
 10 14  1  0
 12 15  2  0
 12 16  1  0
 13 17  1  0
 14 18  1  0
 17 18  2  0
 16 19  1  6
 16 20  1  0
 17 21  1  0
 18 22  1  0
 19 23  1  0
 20 24  1  0
 21 25  1  0
 21 26  2  0
 22 27  2  0
 26 27  1  0
 23 28  1  0
 23 29  2  0
 24 30  1  1
 24 31  1  0
 25 32  2  0
 25 33  1  0
 32 34  1  0
 33 35  2  0
 34 36  2  0
 35 36  1  0
 35 37  1  0
 36 38  1  0
 38 39  1  0
 38 40  2  0
 38 41  2  0
M  END
