DAV-CRI-14a23e73-4-chloroacetamide
     RDKit          3D

 24 25  0  0  0  0  0  0  0  0999 V2000
    8.2040   -3.6460   20.1630 C   0  0  0  0  0  0  0  0  0  0  0  0
    7.1760   -2.6550   19.9990 C   0  0  0  0  0  0  0  0  0  0  0  0
    6.2590   -2.9210   19.1420 O   0  0  0  0  0  0  0  0  0  0  0  0
    7.3890   -1.5350   20.8430 N   0  0  0  0  0  0  0  0  0  0  0  0
    7.9470   -1.5300   22.2540 C   0  0  1  0  0  0  0  0  0  0  0  0
    7.8120   -2.7090   22.9350 C   0  0  0  0  0  0  0  0  0  0  0  0
    9.3850   -0.9940   22.3820 C   0  0  0  0  0  0  0  0  0  0  0  0
   10.5240   -1.7700   22.1940 C   0  0  0  0  0  0  0  0  0  0  0  0
    9.5920    0.3640   22.7110 C   0  0  0  0  0  0  0  0  0  0  0  0
   11.9020   -1.1760   22.3450 C   0  0  0  0  0  0  0  0  0  0  0  0
   10.8700    0.9480   22.8510 C   0  0  0  0  0  0  0  0  0  0  0  0
   13.2380   -2.1680   22.0980 Cl  0  0  0  0  0  0  0  0  0  0  0  0
   12.0070    0.1690   22.6750 C   0  0  0  0  0  0  0  0  0  0  0  0
   11.0460    2.4400   23.1870 C   0  0  0  0  0  0  0  0  0  0  0  0
    9.8970    3.0260   23.9950 C   0  0  0  0  0  0  0  0  0  0  0  0
   12.1330    3.2380   22.8230 C   0  0  0  0  0  0  0  0  0  0  0  0
   10.0770    4.5090   24.3580 C   0  0  0  0  0  0  0  0  0  0  0  0
   12.2620    4.5990   23.1660 C   0  0  0  0  0  0  0  0  0  0  0  0
   11.3340    5.2690   23.9000 C   0  0  0  0  0  0  0  0  0  0  0  0
   13.4220    5.2490   22.7120 C   0  0  0  0  0  0  0  0  0  0  0  0
   11.5190    6.9700   24.3520 S   0  0  0  0  0  0  0  0  0  0  0  0
    9.9440    7.5160   24.1430 N   0  0  0  0  0  0  0  0  0  0  0  0
   12.3760    7.6250   23.3960 O   0  0  0  0  0  0  0  0  0  0  0  0
   11.8100    7.0360   25.7660 O   0  0  0  0  0  0  0  0  0  0  0  0
  1  2  1  0
  2  3  2  0
  2  4  1  0
  4  5  1  0
  5  6  1  6
  5  7  1  0
  7  8  2  0
  7  9  1  0
  8 10  1  0
  9 11  2  0
 10 12  1  0
 10 13  2  0
 11 13  1  0
 11 14  1  0
 14 15  2  0
 14 16  1  0
 15 17  1  0
 16 18  2  0
 17 19  2  0
 18 19  1  0
 18 20  1  0
 19 21  1  0
 21 22  1  0
 21 23  2  0
 21 24  2  0
M  END
