DAV-CRI-14a23e73-1-chloroacetamide
     RDKit          3D

 23 24  0  0  0  0  0  0  0  0999 V2000
    7.7380   -2.8480   18.5910 C   0  0  0  0  0  0  0  0  0  0  0  0
    7.0190   -2.8760   19.8520 C   0  0  0  0  0  0  0  0  0  0  0  0
    6.0590   -3.6870   19.7510 O   0  0  0  0  0  0  0  0  0  0  0  0
    7.4680   -2.0110   20.9230 N   0  0  0  0  0  0  0  0  0  0  0  0
    8.2130   -2.3430   22.1930 C   0  0  2  0  0  0  0  0  0  0  0  0
    7.4290   -2.1520   23.3090 C   0  0  0  0  0  0  0  0  0  0  0  0
    9.5250   -1.5540   22.4090 C   0  0  0  0  0  0  0  0  0  0  0  0
   10.7330   -2.2190   22.4780 C   0  0  0  0  0  0  0  0  0  0  0  0
    9.5870   -0.1370   22.5600 C   0  0  0  0  0  0  0  0  0  0  0  0
   12.0220   -1.4970   22.6980 C   0  0  0  0  0  0  0  0  0  0  0  0
   10.8160    0.5500   22.7630 C   0  0  0  0  0  0  0  0  0  0  0  0
   13.4380   -2.3770   22.7770 Cl  0  0  0  0  0  0  0  0  0  0  0  0
   12.0050   -0.1410   22.8300 C   0  0  0  0  0  0  0  0  0  0  0  0
   10.9730    2.0510   22.9150 C   0  0  0  0  0  0  0  0  0  0  0  0
    9.6930    2.8110   23.1740 C   0  0  0  0  0  0  0  0  0  0  0  0
   12.2100    2.6740   22.8220 C   0  0  0  0  0  0  0  0  0  0  0  0
    9.9190    4.3280   23.3230 C   0  0  0  0  0  0  0  0  0  0  0  0
   12.3750    4.0640   22.9600 C   0  0  0  0  0  0  0  0  0  0  0  0
   11.3450    4.8920   23.1980 C   0  0  0  0  0  0  0  0  0  0  0  0
   11.6570    6.6110   23.3630 S   0  0  0  0  0  0  0  0  0  0  0  0
   12.1130    6.7280   24.9630 N   0  0  0  0  0  0  0  0  0  0  0  0
   12.8300    6.8940   22.5700 O   0  0  0  0  0  0  0  0  0  0  0  0
   10.4070    7.3110   23.1880 O   0  0  0  0  0  0  0  0  0  0  0  0
  1  2  1  0
  2  3  2  0
  2  4  1  0
  4  5  1  0
  5  6  1  1
  5  7  1  0
  7  8  2  0
  7  9  1  0
  8 10  1  0
  9 11  2  0
 10 12  1  0
 10 13  2  0
 11 13  1  0
 11 14  1  0
 14 15  2  0
 14 16  1  0
 15 17  1  0
 16 18  2  0
 17 19  2  0
 18 19  1  0
 19 20  1  0
 20 21  1  0
 20 22  2  0
 20 23  2  0
M  END
