DAV-CRI-d1e0885a-5-bromoalkyne
     RDKit          3D

 19 20  0  0  0  0  0  0  0  0999 V2000
    6.9480   -3.3540   19.6250 C   0  0  0  0  0  0  0  0  0  0  0  0
    6.0200   -2.8010   18.5960 C   0  0  0  0  0  0  0  0  0  0  0  0
    6.8290   -2.9120   20.9310 N   0  0  0  0  0  0  0  0  0  0  0  0
    7.1080   -1.5080   21.2110 C   0  0  0  0  0  0  0  0  0  0  0  0
    6.7860   -3.7050   22.0900 C   0  0  0  0  0  0  0  0  0  0  0  0
    8.4170   -1.3810   21.8500 C   0  0  0  0  0  0  0  0  0  0  0  0
    7.9130   -3.4880   22.9090 C   0  0  0  0  0  0  0  0  0  0  0  0
    8.5390   -2.2370   23.0230 N   0  0  0  0  0  0  0  0  0  0  0  0
    9.8670   -2.3750   23.4120 C   0  0  0  0  0  0  0  0  0  0  0  0
   10.6870   -1.2700   23.4620 C   0  0  0  0  0  0  0  0  0  0  0  0
   11.7440   -1.2570   22.6050 C   0  0  0  0  0  0  0  0  0  0  0  0
   10.6590   -0.0780   24.2730 C   0  0  0  0  0  0  0  0  0  0  0  0
   12.0480   -2.2380   21.7160 C   0  0  0  0  0  0  0  0  0  0  0  0
   12.5450   -0.0220   22.7620 C   0  0  0  0  0  0  0  0  0  0  0  0
   11.9800    1.0540   23.9180 S   0  0  0  0  0  0  0  0  0  0  0  0
    9.8080    0.2830   25.2210 N   0  0  0  0  0  0  0  0  0  0  0  0
   13.1500   -2.1710   20.9710 N   0  0  0  0  0  0  0  0  0  0  0  0
    8.9750   -0.6310   25.9680 C   0  0  0  0  0  0  0  0  0  0  0  0
    9.2170   -0.8850   27.1460 O   0  0  0  0  0  0  0  0  0  0  0  0
  1  2  2  3
  1  3  1  0
  3  4  1  0
  3  5  1  0
  4  6  1  0
  5  7  1  0
  6  8  1  0
  7  8  1  0
  8  9  1  0
  9 10  1  0
 10 11  1  0
 10 12  2  0
 11 13  1  0
 11 14  2  0
 12 15  1  0
 14 15  1  0
 12 16  1  0
 13 17  3  0
 16 18  1  0
 18 19  1  0
M  END
