DAV-CRI-d1e0885a-4-acrylamide
     RDKit          3D

 21 22  0  0  0  0  0  0  0  0999 V2000
    7.4520   -2.8180   18.2590 C   0  0  0  0  0  0  0  0  0  0  0  0
    6.4630   -2.1540   19.1640 C   0  0  0  0  0  0  0  0  0  0  0  0
    5.9470   -3.0320   20.2580 C   0  0  0  0  0  0  0  0  0  0  0  0
    5.2190   -4.0400   20.0480 O   0  0  0  0  0  0  0  0  0  0  0  0
    6.3780   -2.6140   21.5140 N   0  0  0  0  0  0  0  0  0  0  0  0
    6.7910   -3.6560   22.4440 C   0  0  0  0  0  0  0  0  0  0  0  0
    7.1700   -1.3730   21.6290 C   0  0  0  0  0  0  0  0  0  0  0  0
    7.6480   -3.1350   23.6050 C   0  0  0  0  0  0  0  0  0  0  0  0
    8.5030   -1.6740   21.9650 C   0  0  0  0  0  0  0  0  0  0  0  0
    8.6600   -2.1190   23.2370 N   0  0  0  0  0  0  0  0  0  0  0  0
    9.9870   -2.4800   23.4970 C   0  0  0  0  0  0  0  0  0  0  0  0
   10.8160   -1.3990   23.5140 C   0  0  0  0  0  0  0  0  0  0  0  0
   11.7190   -1.3480   22.4820 C   0  0  0  0  0  0  0  0  0  0  0  0
   10.9100   -0.3160   24.4350 C   0  0  0  0  0  0  0  0  0  0  0  0
   11.8220   -2.3080   21.4770 C   0  0  0  0  0  0  0  0  0  0  0  0
   12.5080   -0.1180   22.6830 C   0  0  0  0  0  0  0  0  0  0  0  0
   12.1520    0.8720   24.0120 S   0  0  0  0  0  0  0  0  0  0  0  0
   10.1780   -0.1300   25.5570 N   0  0  0  0  0  0  0  0  0  0  0  0
   13.0990   -2.7850   20.9530 N   0  0  0  0  0  0  0  0  0  0  0  0
    8.7330   -0.2370   25.5810 C   0  0  0  0  0  0  0  0  0  0  0  0
    8.3660    0.0460   26.9010 C   0  0  0  0  0  0  0  0  0  0  0  0
  1  2  1  0
  2  3  1  0
  3  4  2  0
  3  5  1  0
  5  6  1  0
  5  7  1  0
  6  8  1  0
  7  9  1  0
  8 10  1  0
  9 10  1  0
 10 11  1  0
 11 12  1  0
 12 13  1  0
 12 14  2  0
 13 15  1  0
 13 16  2  0
 14 17  1  0
 16 17  1  0
 14 18  1  0
 15 19  3  0
 18 20  1  0
 20 21  1  0
M  END
