DAV-CRI-1c77f7a9-6-bromoalkyne
     RDKit          3D

 27 30  0  0  0  0  0  0  0  0999 V2000
    7.4690   -3.2810   19.5020 C   0  0  0  0  0  0  0  0  0  0  0  0
    6.2340   -3.1730   18.9750 C   0  0  0  0  0  0  0  0  0  0  0  0
    7.7840   -3.2800   20.8580 N   0  0  0  0  0  0  0  0  0  0  0  0
    7.0760   -4.1760   21.7780 C   0  0  0  0  0  0  0  0  0  0  0  0
    8.1500   -2.0090   21.5080 C   0  0  2  0  0  0  0  0  0  0  0  0
    7.8540   -4.2490   23.0860 C   0  0  0  0  0  0  0  0  0  0  0  0
    9.2940   -2.5540   22.1830 C   0  0  2  0  0  0  0  0  0  0  0  0
    6.6530   -2.2590   21.5950 C   0  0  0  0  0  0  0  0  0  0  0  0
    7.3720   -5.2450   24.1680 C   0  0  0  0  0  0  0  0  0  0  0  0
    8.9720   -3.4260   23.2390 C   0  0  0  0  0  0  0  0  0  0  0  0
   10.1180   -1.5100   22.6830 C   0  0  0  0  0  0  0  0  0  0  0  0
    5.9220   -2.1550   20.6140 O   0  0  0  0  0  0  0  0  0  0  0  0
    6.1570   -2.6490   22.9050 N   0  0  0  0  0  0  0  0  0  0  0  0
    8.2560   -5.2460   25.4030 C   0  0  0  0  0  0  0  0  0  0  0  0
    9.7440   -3.4790   24.4010 C   0  0  0  0  0  0  0  0  0  0  0  0
   11.4760   -1.4720   22.2510 C   0  0  0  0  0  0  0  0  0  0  0  0
    9.6410   -0.4430   23.6550 C   0  0  0  0  0  0  0  0  0  0  0  0
    5.3040   -3.7260   23.2580 C   0  0  0  0  0  0  0  0  0  0  0  0
    9.4390   -4.3370   25.4490 C   0  0  0  0  0  0  0  0  0  0  0  0
   12.4580   -0.5400   22.6260 C   0  0  0  0  0  0  0  0  0  0  0  0
   10.7260    0.5690   24.0500 C   0  0  0  0  0  0  0  0  0  0  0  0
    4.5360   -3.4990   24.3630 C   0  0  0  0  0  0  0  0  0  0  0  0
    5.1350   -4.9990   22.6370 C   0  0  0  0  0  0  0  0  0  0  0  0
   12.0340    0.5490   23.5900 C   0  0  0  0  0  0  0  0  0  0  0  0
    3.6720   -4.4300   24.8340 C   0  0  0  0  0  0  0  0  0  0  0  0
    4.2780   -5.9720   23.0720 N   0  0  0  0  0  0  0  0  0  0  0  0
    3.5200   -5.6600   24.2240 C   0  0  0  0  0  0  0  0  0  0  0  0
  1  2  2  3
  1  3  1  0
  3  4  1  0
  3  5  1  0
  4  6  1  0
  5  7  1  0
  5  8  1  1
  6  9  1  0
  6 10  2  0
  7 10  1  0
  7 11  1  1
  8 12  2  0
  8 13  1  0
  9 14  2  0
 10 15  1  0
 11 16  2  0
 11 17  1  0
 13 18  1  0
 14 19  1  0
 15 19  2  0
 16 20  1  0
 17 21  2  0
 18 22  2  0
 18 23  1  0
 20 24  2  0
 21 24  1  0
 22 25  1  0
 23 26  2  0
 25 27  2  0
 26 27  1  0
M  END
