DAV-CRI-f4772df7-4-bromoalkyne
     RDKit          3D

 33 37  0  0  0  0  0  0  0  0999 V2000
    6.6860   -3.1340   19.6650 C   0  0  0  0  0  0  0  0  0  0  0  0
    5.9080   -2.7360   18.6960 C   0  0  0  0  0  0  0  0  0  0  0  0
    6.6040   -2.3200   20.8540 N   0  0  0  0  0  0  0  0  0  0  0  0
    7.4830   -1.0770   20.9300 C   0  0  0  0  0  0  0  0  0  0  0  0
    6.0860   -2.6700   22.2080 C   0  0  2  0  0  0  0  0  0  0  0  0
    7.6070   -0.1520   19.9440 O   0  0  0  0  0  0  0  0  0  0  0  0
    8.2200   -0.8960   22.2960 C   0  0  2  0  0  0  0  0  0  0  0  0
    7.2230   -3.0430   22.7850 C   0  0  0  0  0  0  0  0  0  0  0  0
    4.9950   -3.7150   22.3830 C   0  0  1  0  0  0  0  0  0  0  0  0
    9.7390   -0.5300   22.3730 C   0  0  0  0  0  0  0  0  0  0  0  0
    8.3130   -2.2340   22.8700 C   0  0  0  0  0  0  0  0  0  0  0  0
    7.3830   -4.4010   23.3460 C   0  0  0  0  0  0  0  0  0  0  0  0
    5.4360   -4.9150   21.8300 C   0  0  0  0  0  0  0  0  0  0  0  0
    4.2050   -4.0250   23.7440 C   0  0  1  0  0  0  0  0  0  0  0  0
   10.0270    0.9000   22.7560 C   0  0  0  0  0  0  0  0  0  0  0  0
   10.8140   -1.4270   22.1490 C   0  0  0  0  0  0  0  0  0  0  0  0
    9.5140   -2.5210   23.4120 C   0  0  0  0  0  0  0  0  0  0  0  0
    8.5700   -4.6990   23.8670 C   0  0  0  0  0  0  0  0  0  0  0  0
    4.8460   -6.2120   22.9000 S   0  0  0  0  0  0  0  0  0  0  0  0
    4.7670   -5.1630   24.3080 C   0  0  0  0  0  0  0  0  0  0  0  0
    3.7700   -3.0560   24.7730 N   0  0  0  0  0  0  0  0  0  0  0  0
   11.4920    1.2450   22.8760 C   0  0  0  0  0  0  0  0  0  0  0  0
   12.1560   -1.0290   22.2900 C   0  0  0  0  0  0  0  0  0  0  0  0
    9.7610   -3.6980   23.9270 C   0  0  0  0  0  0  0  0  0  0  0  0
    5.9060   -7.1710   23.0350 O   0  0  0  0  0  0  0  0  0  0  0  0
    3.4810   -6.5490   22.5710 O   0  0  0  0  0  0  0  0  0  0  0  0
    2.4630   -3.3200   25.4100 C   0  0  0  0  0  0  0  0  0  0  0  0
    4.5750   -2.3490   25.7980 C   0  0  0  0  0  0  0  0  0  0  0  0
   12.4870    0.2830   22.6510 C   0  0  0  0  0  0  0  0  0  0  0  0
   10.9980   -3.8690   24.4180 F   0  0  0  0  0  0  0  0  0  0  0  0
    2.4530   -2.4950   26.5340 C   0  0  0  0  0  0  0  0  0  0  0  0
    3.7170   -1.9640   26.8140 C   0  0  0  0  0  0  0  0  0  0  0  0
    5.7710   -2.1370   25.7770 O   0  0  0  0  0  0  0  0  0  0  0  0
  1  2  2  3
  1  3  1  0
  3  4  1  0
  5  3  1  6
  4  6  2  0
  4  7  1  0
  5  8  1  0
  5  9  1  0
  7 10  1  6
  7 11  1  0
  8 11  2  0
  8 12  1  0
  9 13  1  1
  9 14  1  0
 10 15  2  0
 10 16  1  0
 11 17  1  0
 12 18  2  0
 19 13  1  0
 14 20  1  0
 19 20  1  0
 14 21  1  1
 15 22  1  0
 16 23  2  0
 17 24  2  0
 18 24  1  0
 19 25  2  0
 19 26  2  0
 21 27  1  0
 21 28  1  0
 22 29  2  0
 23 29  1  0
 24 30  1  0
 27 31  1  0
 28 32  1  0
 31 32  1  0
 28 33  2  0
M  END
