DAV-UNK-07f953a2-3-bromoalkyne
     RDKit          3D

 32 35  0  0  0  0  0  0  0  0999 V2000
    6.6430   -4.2290   20.0480 C   0  0  0  0  0  0  0  0  0  0  0  0
    5.4710   -3.5110   19.4850 C   0  0  0  0  0  0  0  0  0  0  0  0
    6.7600   -4.6530   21.3920 N   0  0  0  0  0  0  0  0  0  0  0  0
    7.2970   -3.7720   22.4260 C   0  0  0  0  0  0  0  0  0  0  0  0
    6.2310   -5.9470   21.8790 C   0  0  0  0  0  0  0  0  0  0  0  0
    7.1650   -4.3730   23.8280 C   0  0  0  0  0  0  0  0  0  0  0  0
    5.2830   -5.8220   22.9290 C   0  0  0  0  0  0  0  0  0  0  0  0
    5.8520   -5.0280   24.0540 N   0  0  0  0  0  0  0  0  0  0  0  0
    5.2020   -5.1840   25.6390 S   0  0  0  0  0  0  0  0  0  0  0  0
    6.1370   -4.7200   26.6280 O   0  0  0  0  0  0  0  0  0  0  0  0
    4.6000   -6.4940   25.7410 O   0  0  0  0  0  0  0  0  0  0  0  0
    3.8900   -3.9880   25.7060 C   0  0  0  0  0  0  0  0  0  0  0  0
    2.5300   -4.3280   25.2190 C   0  0  0  0  0  0  0  0  0  0  0  0
    4.1190   -2.6980   26.2250 C   0  0  0  0  0  0  0  0  0  0  0  0
    1.5430   -3.3820   25.2950 C   0  0  0  0  0  0  0  0  0  0  0  0
    3.1280   -1.7000   26.3160 C   0  0  0  0  0  0  0  0  0  0  0  0
    1.8160   -1.9630   25.8750 C   0  0  0  0  0  0  0  0  0  0  0  0
    0.8860   -0.9550   25.9910 O   0  0  0  0  0  0  0  0  0  0  0  0
    1.2990    0.2870   26.5450 C   0  0  0  0  0  0  0  0  0  0  0  0
    0.2660    1.2110   26.8340 C   0  0  0  0  0  0  0  0  0  0  0  0
    0.3730    2.0250   27.7540 O   0  0  0  0  0  0  0  0  0  0  0  0
   -0.8540    1.1430   26.0270 N   0  0  0  0  0  0  0  0  0  0  0  0
   -1.5850    2.3160   25.5980 C   0  0  0  0  0  0  0  0  0  0  0  0
   -2.4410    1.9980   24.5390 C   0  0  0  0  0  0  0  0  0  0  0  0
   -3.7700    1.2540   24.8260 C   0  0  0  0  0  0  0  0  0  0  0  0
   -2.0900    2.3540   23.2140 C   0  0  0  0  0  0  0  0  0  0  0  0
   -4.6370    0.9510   23.5710 C   0  0  0  0  0  0  0  0  0  0  0  0
   -2.9140    2.0550   22.1000 C   0  0  0  0  0  0  0  0  0  0  0  0
   -4.1460    1.3820   22.2260 C   0  0  0  0  0  0  0  0  0  0  0  0
   -2.6490    2.3600   20.8010 O   0  0  0  0  0  0  0  0  0  0  0  0
   -3.6890    1.6020   20.1420 C   0  0  0  0  0  0  0  0  0  0  0  0
   -4.7600    1.2070   21.0280 O   0  0  0  0  0  0  0  0  0  0  0  0
  1  2  2  3
  1  3  1  0
  3  4  1  0
  3  5  1  0
  4  6  1  0
  5  7  1  0
  6  8  1  0
  7  8  1  0
  8  9  1  0
  9 10  2  0
  9 11  2  0
  9 12  1  0
 12 13  2  0
 12 14  1  0
 13 15  1  0
 14 16  2  0
 15 17  2  0
 16 17  1  0
 17 18  1  0
 18 19  1  0
 19 20  1  0
 20 21  2  0
 20 22  1  0
 22 23  1  0
 23 24  1  0
 24 25  2  0
 24 26  1  0
 25 27  1  0
 26 28  2  0
 27 29  2  0
 28 29  1  0
 28 30  1  0
 30 31  1  0
 29 32  1  0
 31 32  1  0
M  END
