DAV-CRI-f4772df7-6-bromoalkyne
     RDKit          3D

 33 37  0  0  0  0  0  0  0  0999 V2000
    6.7820   -3.4980   20.0480 C   0  0  0  0  0  0  0  0  0  0  0  0
    5.6770   -3.3640   19.3320 C   0  0  0  0  0  0  0  0  0  0  0  0
    6.9860   -2.7300   21.2760 N   0  0  0  0  0  0  0  0  0  0  0  0
    8.1540   -1.8280   21.4220 C   0  0  0  0  0  0  0  0  0  0  0  0
    6.3890   -2.9770   22.6500 C   0  0  2  0  0  0  0  0  0  0  0  0
    8.2590   -0.5390   20.9800 O   0  0  0  0  0  0  0  0  0  0  0  0
    9.2910   -2.5270   22.1800 C   0  0  1  0  0  0  0  0  0  0  0  0
    7.3450   -3.4650   23.5600 C   0  0  0  0  0  0  0  0  0  0  0  0
    5.2610   -3.7950   22.7170 C   0  0  1  0  0  0  0  0  0  0  0  0
   10.3480   -1.5280   22.6430 C   0  0  0  0  0  0  0  0  0  0  0  0
    8.7370   -3.2800   23.3840 C   0  0  0  0  0  0  0  0  0  0  0  0
    6.8650   -4.1640   24.6750 C   0  0  0  0  0  0  0  0  0  0  0  0
    5.5970   -5.0470   22.2250 C   0  0  0  0  0  0  0  0  0  0  0  0
    4.1190   -3.9770   23.8480 C   0  0  1  0  0  0  0  0  0  0  0  0
    9.8800   -0.6030   23.7260 C   0  0  0  0  0  0  0  0  0  0  0  0
   11.6510   -1.4530   22.1360 C   0  0  0  0  0  0  0  0  0  0  0  0
    9.6480   -3.7870   24.3130 C   0  0  0  0  0  0  0  0  0  0  0  0
    7.8960   -4.6980   25.6520 C   0  0  0  0  0  0  0  0  0  0  0  0
    4.6010   -6.2960   23.0140 S   0  0  0  0  0  0  0  0  0  0  0  0
    4.3450   -5.3550   24.4490 C   0  0  0  0  0  0  0  0  0  0  0  0
    3.6250   -3.0970   24.9440 N   0  0  0  0  0  0  0  0  0  0  0  0
   10.9120    0.3640   24.1750 C   0  0  0  0  0  0  0  0  0  0  0  0
   12.5630   -0.5120   22.6130 C   0  0  0  0  0  0  0  0  0  0  0  0
    9.2470   -4.4960   25.4450 C   0  0  0  0  0  0  0  0  0  0  0  0
    3.2940   -6.4190   22.4440 O   0  0  0  0  0  0  0  0  0  0  0  0
    5.4520   -7.3950   23.3480 O   0  0  0  0  0  0  0  0  0  0  0  0
    2.3130   -3.3060   25.6170 C   0  0  0  0  0  0  0  0  0  0  0  0
    4.4550   -2.3980   25.8520 C   0  0  0  0  0  0  0  0  0  0  0  0
   12.1960    0.3860   23.6180 C   0  0  0  0  0  0  0  0  0  0  0  0
   10.3090   -5.0080   26.3880 C   0  0  0  0  0  0  0  0  0  0  0  0
    2.3350   -2.4410   26.7210 C   0  0  0  0  0  0  0  0  0  0  0  0
    3.6440   -2.0330   26.9370 C   0  0  0  0  0  0  0  0  0  0  0  0
    5.6360   -2.1410   25.7410 O   0  0  0  0  0  0  0  0  0  0  0  0
  1  2  2  3
  1  3  1  0
  3  4  1  0
  5  3  1  6
  4  6  2  0
  4  7  1  0
  5  8  1  0
  5  9  1  0
  7 10  1  1
  7 11  1  0
  8 11  2  0
  8 12  1  0
  9 13  1  1
  9 14  1  0
 10 15  2  0
 10 16  1  0
 11 17  1  0
 12 18  2  0
 19 13  1  0
 14 20  1  0
 19 20  1  0
 14 21  1  1
 15 22  1  0
 16 23  2  0
 17 24  2  0
 18 24  1  0
 19 25  2  0
 19 26  2  0
 21 27  1  0
 21 28  1  0
 22 29  2  0
 23 29  1  0
 24 30  1  0
 27 31  1  0
 28 32  1  0
 31 32  1  0
 28 33  2  0
M  END
