DAV-CRI-f9b12666-3-nitrile
     RDKit          3D

 39 42  0  0  0  0  0  0  0  0999 V2000
    6.8060   -4.1060   20.1230 C   0  0  0  0  0  0  0  0  0  0  0  0
    5.7370   -3.6860   19.5610 N   0  0  0  0  0  0  0  0  0  0  0  0
    6.8170   -4.6610   21.4340 N   0  0  0  0  0  0  0  0  0  0  0  0
    8.1550   -4.9620   22.0080 C   0  0  0  0  0  0  0  0  0  0  0  0
    5.8770   -5.6790   21.8610 C   0  0  1  0  0  0  0  0  0  0  0  0
    8.2460   -5.2440   23.4880 C   0  0  1  0  0  0  0  0  0  0  0  0
    6.3560   -6.2750   23.1680 C   0  0  0  0  0  0  0  0  0  0  0  0
    4.5890   -5.0990   22.1390 N   0  0  0  0  0  0  0  0  0  0  0  0
    9.2470   -4.2470   23.9600 C   0  0  0  0  0  0  0  0  0  0  0  0
    7.0110   -5.3700   24.0120 C   0  0  0  0  0  0  0  0  0  0  0  0
    4.0160   -5.1400   23.4010 C   0  0  0  0  0  0  0  0  0  0  0  0
    9.1410   -2.9160   23.5100 N   0  0  0  0  0  0  0  0  0  0  0  0
   10.5750   -4.5330   24.9580 S   0  0  0  0  0  0  0  0  0  0  0  0
    4.3820   -4.3030   24.2190 O   0  0  0  0  0  0  0  0  0  0  0  0
    3.0290   -6.1150   23.7700 C   0  0  1  0  0  0  0  0  0  0  0  0
   10.1840   -2.2090   23.9510 C   0  0  0  0  0  0  0  0  0  0  0  0
   11.1080   -2.8950   24.7280 C   0  0  0  0  0  0  0  0  0  0  0  0
    2.6960   -7.1810   22.9340 C   0  0  0  0  0  0  0  0  0  0  0  0
    3.6880   -6.8680   24.8550 N   0  0  0  0  0  0  0  0  0  0  0  0
   10.3820   -0.7730   23.6380 C   0  0  0  0  0  0  0  0  0  0  0  0
   12.3370   -2.1900   25.2220 C   0  0  0  0  0  0  0  0  0  0  0  0
    1.4320   -7.1460   22.3140 C   0  0  0  0  0  0  0  0  0  0  0  0
    2.9990   -7.6470   25.8450 C   0  0  1  0  0  0  0  0  0  0  0  0
   11.5490   -0.0450   24.1190 C   0  0  0  0  0  0  0  0  0  0  0  0
   12.5860   -0.8350   24.9620 C   0  0  0  0  0  0  0  0  0  0  0  0
    1.1170   -8.4080   21.5750 N   0  0  0  0  0  0  0  0  0  0  0  0
    0.6500   -6.1960   22.3370 O   0  0  0  0  0  0  0  0  0  0  0  0
    1.9140   -7.0510   26.4620 C   0  0  0  0  0  0  0  0  0  0  0  0
    2.6630   -8.9670   25.3840 N   0  0  0  0  0  0  0  0  0  0  0  0
   11.6630    1.2990   23.7720 C   0  0  0  0  0  0  0  0  0  0  0  0
   12.8160    1.5840   23.1170 C   0  0  0  0  0  0  0  0  0  0  0  0
   10.7040    2.3240   24.0320 C   0  0  0  0  0  0  0  0  0  0  0  0
   13.0850    2.8730   22.6960 C   0  0  0  0  0  0  0  0  0  0  0  0
   10.9970    3.6320   23.5920 C   0  0  0  0  0  0  0  0  0  0  0  0
   12.1780    3.8800   22.9320 C   0  0  0  0  0  0  0  0  0  0  0  0
    9.9490    5.0590   23.8140 S   0  0  0  0  0  0  0  0  0  0  0  0
    8.7600    4.8440   22.6470 N   0  0  0  0  0  0  0  0  0  0  0  0
    9.2280    5.0410   25.0620 O   0  0  0  0  0  0  0  0  0  0  0  0
   10.7500    6.2050   23.4300 O   0  0  0  0  0  0  0  0  0  0  0  0
  1  2  2  3
  1  3  1  0
  3  4  1  0
  3  5  1  0
  4  6  1  0
  5  7  1  0
  5  8  1  1
  6  9  1  1
  6 10  1  0
  7 10  1  0
  8 11  1  0
  9 12  2  0
  9 13  1  0
 11 14  2  0
 11 15  1  0
 12 16  1  0
 13 17  1  0
 16 17  2  0
 15 18  1  6
 15 19  1  0
 16 20  1  0
 17 21  1  0
 18 22  1  0
 19 23  1  0
 20 24  2  0
 21 25  2  0
 24 25  1  0
 22 26  1  0
 22 27  2  0
 23 28  1  6
 23 29  1  0
 24 30  1  0
 30 31  2  0
 30 32  1  0
 31 33  1  0
 32 34  2  0
 33 35  2  0
 34 35  1  0
 34 36  1  0
 36 37  1  0
 36 38  2  0
 36 39  2  0
M  END
