DAV-CRI-d1e0885a-3-bromoalkyne
     RDKit          3D

 20 21  0  0  0  0  0  0  0  0999 V2000
    6.8790   -3.3480   19.6630 C   0  0  0  0  0  0  0  0  0  0  0  0
    5.9400   -2.7990   18.6500 C   0  0  0  0  0  0  0  0  0  0  0  0
    6.8160   -2.7880   20.9450 N   0  0  0  0  0  0  0  0  0  0  0  0
    7.2520   -1.3970   21.0890 C   0  0  0  0  0  0  0  0  0  0  0  0
    6.8750   -3.5300   22.1750 C   0  0  0  0  0  0  0  0  0  0  0  0
    8.5120   -1.3050   21.8540 C   0  0  0  0  0  0  0  0  0  0  0  0
    8.1590   -3.3920   22.7090 C   0  0  0  0  0  0  0  0  0  0  0  0
    8.5390   -2.1470   23.0580 N   0  0  0  0  0  0  0  0  0  0  0  0
    9.8230   -2.1920   23.6170 C   0  0  0  0  0  0  0  0  0  0  0  0
   10.7280   -1.1800   23.3960 C   0  0  0  0  0  0  0  0  0  0  0  0
   10.3220    0.0120   23.9590 C   0  0  0  0  0  0  0  0  0  0  0  0
   11.9170   -1.1860   22.7070 C   0  0  0  0  0  0  0  0  0  0  0  0
   11.1920    1.1030   23.7400 C   0  0  0  0  0  0  0  0  0  0  0  0
   12.8090   -0.0020   22.5420 C   0  0  0  0  0  0  0  0  0  0  0  0
   12.6810   -2.2270   21.9290 C   0  0  0  0  0  0  0  0  0  0  0  0
   10.9600    2.3350   24.1450 N   0  0  0  0  0  0  0  0  0  0  0  0
   12.4540    1.1240   23.0460 N   0  0  0  0  0  0  0  0  0  0  0  0
   13.3100   -3.0690   21.1100 N   0  0  0  0  0  0  0  0  0  0  0  0
   11.0870    3.4180   23.2800 C   0  0  0  0  0  0  0  0  0  0  0  0
   10.2770    4.5040   23.4400 O   0  0  0  0  0  0  0  0  0  0  0  0
  1  2  2  3
  1  3  1  0
  3  4  1  0
  3  5  1  0
  4  6  1  0
  5  7  1  0
  6  8  1  0
  7  8  1  0
  8  9  1  0
  9 10  1  0
 10 11  2  0
 10 12  1  0
 11 13  1  0
 12 14  2  0
 12 15  1  0
 13 16  1  0
 13 17  2  0
 14 17  1  0
 15 18  3  0
 16 19  1  0
 19 20  1  0
M  END
