DAV-CRI-1c77f7a9-7-vinylsulfonamide
     RDKit          3D

 30 33  0  0  0  0  0  0  0  0999 V2000
    7.2970   -2.8930   18.3290 C   0  0  0  0  0  0  0  0  0  0  0  0
    6.9880   -1.9790   19.2020 C   0  0  0  0  0  0  0  0  0  0  0  0
    5.8390   -2.5570   20.4150 S   0  0  0  0  0  0  0  0  0  0  0  0
    5.2020   -3.8740   20.0890 O   0  0  0  0  0  0  0  0  0  0  0  0
    5.0090   -1.4340   20.7650 O   0  0  0  0  0  0  0  0  0  0  0  0
    6.9490   -2.6840   21.7100 N   0  0  0  0  0  0  0  0  0  0  0  0
    6.3720   -3.2830   22.9130 C   0  0  0  0  0  0  0  0  0  0  0  0
    8.2640   -1.9510   21.8070 C   0  0  2  0  0  0  0  0  0  0  0  0
    7.4810   -3.7190   23.8450 C   0  0  0  0  0  0  0  0  0  0  0  0
    8.7460   -1.8580   23.1200 C   0  0  1  0  0  0  0  0  0  0  0  0
    8.1480   -0.4850   21.3620 C   0  0  0  0  0  0  0  0  0  0  0  0
    7.2510   -4.9670   24.6950 C   0  0  0  0  0  0  0  0  0  0  0  0
    8.6750   -2.9920   23.9250 C   0  0  0  0  0  0  0  0  0  0  0  0
   10.0040   -1.2100   23.1250 C   0  0  0  0  0  0  0  0  0  0  0  0
    9.1210    0.2540   21.4440 O   0  0  0  0  0  0  0  0  0  0  0  0
    6.8550    0.0080   20.8710 N   0  0  0  0  0  0  0  0  0  0  0  0
    8.3870   -5.3530   25.6120 C   0  0  0  0  0  0  0  0  0  0  0  0
    9.7200   -3.3780   24.7830 C   0  0  0  0  0  0  0  0  0  0  0  0
   11.1460   -1.7180   22.4370 C   0  0  0  0  0  0  0  0  0  0  0  0
   10.1460    0.0960   23.9000 C   0  0  0  0  0  0  0  0  0  0  0  0
    6.3470    1.3290   21.0260 C   0  0  0  0  0  0  0  0  0  0  0  0
    9.6260   -4.5050   25.6120 C   0  0  0  0  0  0  0  0  0  0  0  0
   12.4050   -1.1210   22.4100 C   0  0  0  0  0  0  0  0  0  0  0  0
   11.5540    0.7160   23.8320 C   0  0  0  0  0  0  0  0  0  0  0  0
    5.1250    1.6580   20.4020 C   0  0  0  0  0  0  0  0  0  0  0  0
    7.0240    2.3040   21.7780 C   0  0  0  0  0  0  0  0  0  0  0  0
   12.6050    0.1640   23.1500 C   0  0  0  0  0  0  0  0  0  0  0  0
    4.5330    2.9200   20.4900 C   0  0  0  0  0  0  0  0  0  0  0  0
    6.4320    3.7000   21.9150 C   0  0  0  0  0  0  0  0  0  0  0  0
    5.1490    3.9120   21.2180 N   0  0  0  0  0  0  0  0  0  0  0  0
  1  2  1  0
  3  2  1  0
  3  4  2  0
  3  5  2  0
  3  6  1  0
  6  7  1  0
  6  8  1  0
  7  9  1  0
  8 10  1  0
  8 11  1  1
  9 12  1  0
  9 13  2  0
 10 13  1  0
 10 14  1  6
 11 15  2  0
 11 16  1  0
 12 17  2  0
 13 18  1  0
 14 19  2  0
 14 20  1  0
 16 21  1  0
 17 22  1  0
 18 22  2  0
 19 23  1  0
 20 24  2  0
 21 25  2  0
 21 26  1  0
 23 27  2  0
 24 27  1  0
 25 28  1  0
 26 29  2  0
 28 30  2  0
 29 30  1  0
M  END
