DAV-CRI-f9b12666-6-bromoalkyne
     RDKit          3D

 40 43  0  0  0  0  0  0  0  0999 V2000
    6.9700   -3.8950   19.9380 C   0  0  0  0  0  0  0  0  0  0  0  0
    6.1370   -3.2540   19.1170 C   0  0  0  0  0  0  0  0  0  0  0  0
    6.6190   -4.2070   21.2640 N   0  0  0  0  0  0  0  0  0  0  0  0
    7.1330   -3.3390   22.2970 C   0  0  0  0  0  0  0  0  0  0  0  0
    5.9930   -5.4850   21.7580 C   0  0  1  0  0  0  0  0  0  0  0  0
    8.0660   -4.2010   23.0500 C   0  0  1  0  0  0  0  0  0  0  0  0
    6.7880   -6.1670   22.9030 C   0  0  0  0  0  0  0  0  0  0  0  0
    4.5670   -5.1330   22.1330 N   0  0  0  0  0  0  0  0  0  0  0  0
    9.2630   -3.4840   23.5660 C   0  0  0  0  0  0  0  0  0  0  0  0
    7.4660   -5.1510   23.8350 C   0  0  0  0  0  0  0  0  0  0  0  0
    4.0800   -5.2520   23.3970 C   0  0  0  0  0  0  0  0  0  0  0  0
    9.6390   -2.1080   23.4770 N   0  0  0  0  0  0  0  0  0  0  0  0
   10.4060   -4.5160   24.3810 S   0  0  0  0  0  0  0  0  0  0  0  0
    4.0860   -4.2890   24.1560 O   0  0  0  0  0  0  0  0  0  0  0  0
    3.5920   -6.5240   23.7820 C   0  0  2  0  0  0  0  0  0  0  0  0
   10.8880   -1.9510   24.0480 C   0  0  0  0  0  0  0  0  0  0  0  0
   11.4640   -3.1780   24.5800 C   0  0  0  0  0  0  0  0  0  0  0  0
    2.7960   -7.3190   22.9380 C   0  0  0  0  0  0  0  0  0  0  0  0
    2.7400   -6.3950   24.9950 N   0  0  0  0  0  0  0  0  0  0  0  0
   11.6520   -0.6510   24.1540 C   0  0  0  0  0  0  0  0  0  0  0  0
   12.7190   -3.3060   25.1950 C   0  0  0  0  0  0  0  0  0  0  0  0
    1.5060   -7.0040   22.4590 C   0  0  0  0  0  0  0  0  0  0  0  0
    3.1870   -7.5190   25.7820 C   0  0  1  0  0  0  0  0  0  0  0  0
   11.4370    0.7160   23.8430 C   0  0  0  0  0  0  0  0  0  0  0  0
   12.9710   -0.7930   24.7880 C   0  0  0  0  0  0  0  0  0  0  0  0
   13.5090   -2.0950   25.3020 C   0  0  0  0  0  0  0  0  0  0  0  0
    0.9470   -8.0460   21.7510 N   0  0  0  0  0  0  0  0  0  0  0  0
    0.8970   -5.9630   22.6050 O   0  0  0  0  0  0  0  0  0  0  0  0
    4.2930   -7.0350   26.7150 C   0  0  0  0  0  0  0  0  0  0  0  0
    2.0960   -8.0430   26.5600 N   0  0  0  0  0  0  0  0  0  0  0  0
   10.2480    1.1760   24.3510 C   0  0  0  0  0  0  0  0  0  0  0  0
   12.3050    1.6130   23.1420 C   0  0  0  0  0  0  0  0  0  0  0  0
    9.8790    2.4860   24.2330 C   0  0  0  0  0  0  0  0  0  0  0  0
   11.9260    2.9770   23.0170 C   0  0  0  0  0  0  0  0  0  0  0  0
   10.7090    3.3830   23.5940 C   0  0  0  0  0  0  0  0  0  0  0  0
   12.6560    3.7660   22.4310 O   0  0  0  0  0  0  0  0  0  0  0  0
   10.2150    5.0400   23.5420 S   0  0  0  0  0  0  0  0  0  0  0  0
    8.8750    4.9980   22.5310 N   0  0  0  0  0  0  0  0  0  0  0  0
   11.2530    5.8510   22.9510 O   0  0  0  0  0  0  0  0  0  0  0  0
    9.6380    5.3570   24.8470 O   0  0  0  0  0  0  0  0  0  0  0  0
  1  2  2  3
  1  3  1  0
  3  4  1  0
  3  5  1  0
  4  6  1  0
  5  7  1  0
  5  8  1  1
  6  9  1  1
  6 10  1  0
  7 10  1  0
  8 11  1  0
  9 12  2  0
  9 13  1  0
 11 14  2  0
 11 15  1  0
 12 16  1  0
 13 17  1  0
 16 17  2  0
 15 18  1  6
 15 19  1  0
 16 20  1  0
 17 21  1  0
 18 22  1  0
 19 23  1  0
 20 24  1  0
 20 25  2  0
 21 26  2  0
 25 26  1  0
 22 27  1  0
 22 28  2  0
 23 29  1  1
 23 30  1  0
 24 31  2  0
 24 32  1  0
 31 33  1  0
 32 34  2  0
 33 35  2  0
 34 35  1  0
 34 36  1  0
 35 37  1  0
 37 38  1  0
 37 39  2  0
 37 40  2  0
M  END
