DAV-CRI-f9b12666-3-vinylsulfonamide
     RDKit          3D

 42 45  0  0  0  0  0  0  0  0999 V2000
    7.3580   -2.9660   18.7060 C   0  0  0  0  0  0  0  0  0  0  0  0
    6.9830   -2.6320   19.9310 C   0  0  0  0  0  0  0  0  0  0  0  0
    5.6810   -3.7030   20.4860 S   0  0  0  0  0  0  0  0  0  0  0  0
    4.7130   -2.9040   21.1140 O   0  0  0  0  0  0  0  0  0  0  0  0
    5.2930   -4.6820   19.5210 O   0  0  0  0  0  0  0  0  0  0  0  0
    6.2890   -4.5190   21.8150 N   0  0  0  0  0  0  0  0  0  0  0  0
    7.5730   -4.0630   22.2070 C   0  0  0  0  0  0  0  0  0  0  0  0
    6.1260   -5.9490   21.8980 C   0  0  1  0  0  0  0  0  0  0  0  0
    7.7480   -4.3990   23.6480 C   0  0  2  0  0  0  0  0  0  0  0  0
    7.3510   -6.4800   22.6470 C   0  0  0  0  0  0  0  0  0  0  0  0
    4.7880   -6.3320   22.4600 N   0  0  0  0  0  0  0  0  0  0  0  0
    9.0540   -3.7900   23.9070 C   0  0  0  0  0  0  0  0  0  0  0  0
    7.5450   -5.7180   23.9650 C   0  0  0  0  0  0  0  0  0  0  0  0
    4.1670   -5.6470   23.4440 C   0  0  0  0  0  0  0  0  0  0  0  0
    9.0960   -2.4260   23.6940 N   0  0  0  0  0  0  0  0  0  0  0  0
   10.5160   -4.4400   24.3920 S   0  0  0  0  0  0  0  0  0  0  0  0
    4.7040   -4.7450   24.0940 O   0  0  0  0  0  0  0  0  0  0  0  0
    2.8330   -6.0500   23.6540 C   0  0  1  0  0  0  0  0  0  0  0  0
   10.2980   -1.9410   23.9230 C   0  0  0  0  0  0  0  0  0  0  0  0
   11.2830   -2.8630   24.3360 C   0  0  0  0  0  0  0  0  0  0  0  0
    2.3230   -7.1430   22.9380 C   0  0  0  0  0  0  0  0  0  0  0  0
    2.6390   -6.3570   25.1130 N   0  0  0  0  0  0  0  0  0  0  0  0
   10.4740   -0.5230   23.7200 C   0  0  0  0  0  0  0  0  0  0  0  0
   12.6100   -2.4630   24.6190 C   0  0  0  0  0  0  0  0  0  0  0  0
    1.0730   -7.0220   22.3210 C   0  0  0  0  0  0  0  0  0  0  0  0
    3.0310   -7.7050   25.5050 C   0  0  2  0  0  0  0  0  0  0  0  0
   11.6520    0.0060   23.9190 C   0  0  0  0  0  0  0  0  0  0  0  0
   12.7760   -0.9420   24.3840 C   0  0  0  0  0  0  0  0  0  0  0  0
    1.4790   -8.2260   21.7830 N   0  0  0  0  0  0  0  0  0  0  0  0
    0.0780   -7.2160   21.6410 O   0  0  0  0  0  0  0  0  0  0  0  0
    2.2330   -8.7850   24.8030 C   0  0  0  0  0  0  0  0  0  0  0  0
    2.7910   -7.7940   26.9220 N   0  0  0  0  0  0  0  0  0  0  0  0
   11.7730    1.3480   23.6560 C   0  0  0  0  0  0  0  0  0  0  0  0
   12.9210    1.6880   23.0380 C   0  0  0  0  0  0  0  0  0  0  0  0
   10.8190    2.3700   23.9310 C   0  0  0  0  0  0  0  0  0  0  0  0
   13.1830    3.0180   22.6730 C   0  0  0  0  0  0  0  0  0  0  0  0
   11.1150    3.8360   23.5220 C   0  0  0  0  0  0  0  0  0  0  0  0
   12.3140    4.0630   22.9020 C   0  0  0  0  0  0  0  0  0  0  0  0
   10.0610    5.2560   23.7670 S   0  0  0  0  0  0  0  0  0  0  0  0
    8.8170    4.9720   22.6720 N   0  0  0  0  0  0  0  0  0  0  0  0
    9.4740    5.2700   25.0820 O   0  0  0  0  0  0  0  0  0  0  0  0
   10.8120    6.3940   23.2870 O   0  0  0  0  0  0  0  0  0  0  0  0
  1  2  1  0
  3  2  1  0
  3  4  2  0
  3  5  2  0
  3  6  1  0
  6  7  1  0
  6  8  1  0
  7  9  1  0
  8 10  1  0
  8 11  1  1
  9 12  1  6
  9 13  1  0
 10 13  1  0
 11 14  1  0
 12 15  2  0
 12 16  1  0
 14 17  2  0
 14 18  1  0
 15 19  1  0
 16 20  1  0
 19 20  2  0
 18 21  1  6
 18 22  1  0
 19 23  1  0
 20 24  1  0
 21 25  1  0
 22 26  1  0
 23 27  2  0
 24 28  2  0
 27 28  1  0
 25 29  1  0
 25 30  2  0
 26 31  1  6
 26 32  1  0
 27 33  1  0
 33 34  2  0
 33 35  1  0
 34 36  1  0
 35 37  2  0
 36 38  2  0
 37 38  1  0
 37 39  1  0
 39 40  1  0
 39 41  2  0
 39 42  2  0
M  END
