DAV-CRI-3edb475e-2-acrylamide
     RDKit          3D

 15 15  0  0  0  0  0  0  0  0999 V2000
    7.7280   -3.3250   19.5610 C   0  0  0  0  0  0  0  0  0  0  0  0
    6.5560   -2.4660   19.9340 C   0  0  0  0  0  0  0  0  0  0  0  0
    6.1870   -2.7250   21.3930 C   0  0  0  0  0  0  0  0  0  0  0  0
    5.0570   -3.2330   20.9290 O   0  0  0  0  0  0  0  0  0  0  0  0
    7.4830   -2.1200   21.5170 N   0  0  0  0  0  0  0  0  0  0  0  0
    8.2130   -1.9960   22.8140 C   0  0  2  0  0  0  0  0  0  0  0  0
    7.4260   -1.3870   23.7630 C   0  0  0  0  0  0  0  0  0  0  0  0
    9.6050   -1.3140   22.7130 C   0  0  0  0  0  0  0  0  0  0  0  0
    9.9160    0.1360   23.1300 C   0  0  0  0  0  0  0  0  0  0  0  0
   10.6670   -2.0450   22.2150 C   0  0  0  0  0  0  0  0  0  0  0  0
   11.2110    0.6900   23.0170 C   0  0  0  0  0  0  0  0  0  0  0  0
   12.0510   -1.4440   22.1000 C   0  0  0  0  0  0  0  0  0  0  0  0
   11.4080    1.8500   23.3440 O   0  0  0  0  0  0  0  0  0  0  0  0
   12.3240   -0.1490   22.4900 C   0  0  0  0  0  0  0  0  0  0  0  0
   13.2170   -2.4610   21.4510 Cl  0  0  0  0  0  0  0  0  0  0  0  0
  1  2  1  0
  2  3  1  0
  3  4  2  0
  3  5  1  0
  5  6  1  0
  6  7  1  1
  6  8  1  0
  8  9  2  0
  8 10  1  0
  9 11  1  0
 10 12  2  0
 11 13  1  0
 11 14  2  0
 12 14  1  0
 12 15  1  0
M  END
