DAV-CRI-1c77f7a9-1-bromoalkyne
     RDKit          3D

 25 28  0  0  0  0  0  0  0  0999 V2000
    7.0120   -3.6460   19.8790 C   0  0  0  0  0  0  0  0  0  0  0  0
    6.0970   -3.0150   19.1070 C   0  0  0  0  0  0  0  0  0  0  0  0
    7.3120   -3.2020   21.1820 N   0  0  0  0  0  0  0  0  0  0  0  0
    6.4790   -3.5130   22.3600 C   0  0  0  0  0  0  0  0  0  0  0  0
    8.2940   -2.1190   21.4140 C   0  0  2  0  0  0  0  0  0  0  0  0
    7.4590   -3.8360   23.4710 C   0  0  0  0  0  0  0  0  0  0  0  0
    8.6640   -1.9040   22.7780 C   0  0  1  0  0  0  0  0  0  0  0  0
    7.5870   -0.9360   20.7280 C   0  0  0  0  0  0  0  0  0  0  0  0
    7.1850   -5.0720   24.3540 C   0  0  0  0  0  0  0  0  0  0  0  0
    8.5710   -3.0040   23.6410 C   0  0  0  0  0  0  0  0  0  0  0  0
    9.9140   -1.2450   22.9220 C   0  0  0  0  0  0  0  0  0  0  0  0
    7.8730    0.3320   21.2420 C   0  0  0  0  0  0  0  0  0  0  0  0
    8.2540   -5.2850   25.4170 C   0  0  0  0  0  0  0  0  0  0  0  0
    9.5240   -3.2570   24.6340 C   0  0  0  0  0  0  0  0  0  0  0  0
   11.1020   -1.6770   22.2600 C   0  0  0  0  0  0  0  0  0  0  0  0
    9.9960   -0.0290   23.8210 C   0  0  0  0  0  0  0  0  0  0  0  0
    9.1160    0.7210   21.7110 C   0  0  0  0  0  0  0  0  0  0  0  0
    6.8880    1.3210   21.3070 C   0  0  0  0  0  0  0  0  0  0  0  0
    9.4120   -4.3370   25.5050 C   0  0  0  0  0  0  0  0  0  0  0  0
   12.3740   -1.0790   22.3490 C   0  0  0  0  0  0  0  0  0  0  0  0
   11.3810    0.6030   23.8920 C   0  0  0  0  0  0  0  0  0  0  0  0
    9.4030    1.9810   22.2140 C   0  0  0  0  0  0  0  0  0  0  0  0
    7.0920    2.6890   21.8230 N   0  0  0  0  0  0  0  0  0  0  0  0
   12.4970    0.1470   23.2290 C   0  0  0  0  0  0  0  0  0  0  0  0
    8.4490    2.9840   22.2900 C   0  0  0  0  0  0  0  0  0  0  0  0
  1  2  2  3
  1  3  1  0
  3  4  1  0
  3  5  1  0
  4  6  1  0
  5  7  1  0
  5  8  1  1
  6  9  1  0
  6 10  2  0
  7 10  1  0
  7 11  1  6
  8 12  1  0
  9 13  2  0
 10 14  1  0
 11 15  2  0
 11 16  1  0
 12 17  2  0
 12 18  1  0
 13 19  1  0
 14 19  2  0
 15 20  1  0
 16 21  2  0
 17 22  1  0
 18 23  2  0
 20 24  2  0
 21 24  1  0
 22 25  2  0
 23 25  1  0
M  END
