DAV-CRI-d1e0885a-1-nitrile
     RDKit          3D

 16 17  0  0  0  0  0  0  0  0999 V2000
    6.8400   -3.3250   19.5740 C   0  0  0  0  0  0  0  0  0  0  0  0
    5.9640   -3.0680   18.6900 N   0  0  0  0  0  0  0  0  0  0  0  0
    6.8510   -2.7290   20.8260 N   0  0  0  0  0  0  0  0  0  0  0  0
    7.4040   -1.3900   21.0680 C   0  0  0  0  0  0  0  0  0  0  0  0
    6.5950   -3.4030   21.9650 C   0  0  0  0  0  0  0  0  0  0  0  0
    8.7030   -1.4750   21.8230 C   0  0  0  0  0  0  0  0  0  0  0  0
    7.8360   -3.3890   22.8950 C   0  0  0  0  0  0  0  0  0  0  0  0
    8.6610   -2.3100   23.0250 N   0  0  0  0  0  0  0  0  0  0  0  0
    9.9380   -2.6590   23.4690 C   0  0  0  0  0  0  0  0  0  0  0  0
   10.7950   -1.4060   23.6160 C   0  0  0  0  0  0  0  0  0  0  0  0
   10.5540   -0.0170   24.5810 S   0  0  0  0  0  0  0  0  0  0  0  0
   12.0720   -1.2920   22.8080 C   0  0  0  0  0  0  0  0  0  0  0  0
   12.0150    0.6350   23.9400 C   0  0  0  0  0  0  0  0  0  0  0  0
   12.7330   -0.1170   23.0230 C   0  0  0  0  0  0  0  0  0  0  0  0
   12.6620   -2.1740   21.8980 C   0  0  0  0  0  0  0  0  0  0  0  0
   13.4710   -1.6290   20.9500 N   0  0  0  0  0  0  0  0  0  0  0  0
  1  2  2  3
  1  3  1  0
  3  4  1  0
  3  5  1  0
  4  6  1  0
  5  7  1  0
  6  8  1  0
  7  8  1  0
  8  9  1  0
  9 10  1  0
 10 11  1  0
 10 12  2  0
 11 13  1  0
 12 14  1  0
 13 14  2  0
 12 15  1  0
 15 16  3  0
M  END
