DAV-CRI-8c8dd668-1-nitrile
     RDKit          3D

 30 34  0  0  0  0  0  0  0  0999 V2000
    6.9060   -3.7010   20.0230 C   0  0  0  0  0  0  0  0  0  0  0  0
    6.2920   -3.1430   19.0510 N   0  0  0  0  0  0  0  0  0  0  0  0
    7.2490   -3.0730   21.2420 N   0  0  0  0  0  0  0  0  0  0  0  0
    8.5470   -2.3230   21.3420 C   0  0  0  0  0  0  0  0  0  0  0  0
    6.6850   -3.5840   22.5650 C   0  0  1  0  0  0  0  0  0  0  0  0
    8.8790   -1.9760   22.7980 C   0  0  2  0  0  0  0  0  0  0  0  0
    7.6280   -3.9510   23.5120 C   0  0  0  0  0  0  0  0  0  0  0  0
    5.7350   -2.7950   23.2180 C   0  0  0  0  0  0  0  0  0  0  0  0
   10.1580   -1.1320   22.9450 C   0  0  0  0  0  0  0  0  0  0  0  0
    8.7780   -3.1690   23.6780 C   0  0  0  0  0  0  0  0  0  0  0  0
    7.3840   -5.0820   24.2900 C   0  0  0  0  0  0  0  0  0  0  0  0
    4.4720   -3.3160   23.4600 C   0  0  0  0  0  0  0  0  0  0  0  0
    6.0320   -1.4900   23.6820 C   0  0  0  0  0  0  0  0  0  0  0  0
   11.3560   -1.7230   22.2210 C   0  0  0  0  0  0  0  0  0  0  0  0
   10.2740    0.0550   23.6670 C   0  0  0  0  0  0  0  0  0  0  0  0
    9.7920   -3.4400   24.6130 C   0  0  0  0  0  0  0  0  0  0  0  0
    8.4060   -5.5050   25.3780 C   0  0  0  0  0  0  0  0  0  0  0  0
    3.5330   -2.5650   24.1510 C   0  0  0  0  0  0  0  0  0  0  0  0
    5.0890   -0.7150   24.3830 C   0  0  0  0  0  0  0  0  0  0  0  0
   12.6440   -0.9330   22.3510 C   0  0  0  0  0  0  0  0  0  0  0  0
   11.4970    0.7290   23.7390 C   0  0  0  0  0  0  0  0  0  0  0  0
    9.6700   -4.6530   25.5450 C   0  0  0  0  0  0  0  0  0  0  0  0
    3.8360   -1.2770   24.6100 C   0  0  0  0  0  0  0  0  0  0  0  0
    5.4040    0.5920   24.8570 N   0  0  0  0  0  0  0  0  0  0  0  0
   12.6470    0.2530   23.1020 C   0  0  0  0  0  0  0  0  0  0  0  0
    5.7110    0.8290   26.2530 C   0  0  0  0  0  0  0  0  0  0  0  0
    5.7680    1.7120   24.0840 C   0  0  0  0  0  0  0  0  0  0  0  0
    6.7440    1.9290   26.2320 C   0  0  0  0  0  0  0  0  0  0  0  0
    6.3530    2.7470   25.0200 C   0  0  0  0  0  0  0  0  0  0  0  0
    5.6670    1.9000   22.8790 O   0  0  0  0  0  0  0  0  0  0  0  0
  1  2  2  3
  1  3  1  0
  3  4  1  0
  3  5  1  0
  4  6  1  0
  5  7  1  0
  5  8  1  1
  6  9  1  6
  6 10  1  0
  7 10  2  0
  7 11  1  0
  8 12  2  0
  8 13  1  0
  9 14  2  0
  9 15  1  0
 10 16  1  0
 11 17  2  0
 12 18  1  0
 13 19  2  0
 14 20  1  0
 15 21  2  0
 16 22  2  0
 17 22  1  0
 18 23  2  0
 19 23  1  0
 19 24  1  0
 20 25  2  0
 21 25  1  0
 24 26  1  0
 24 27  1  0
 26 28  1  0
 27 29  1  0
 28 29  1  0
 27 30  2  0
M  END
