DAV-CRI-1c77f7a9-6-vinylsulfonamide
     RDKit          3D

 30 33  0  0  0  0  0  0  0  0999 V2000
    7.4310   -2.9130   18.4170 C   0  0  0  0  0  0  0  0  0  0  0  0
    7.0740   -1.9970   19.2800 C   0  0  0  0  0  0  0  0  0  0  0  0
    5.8750   -2.5680   20.4570 S   0  0  0  0  0  0  0  0  0  0  0  0
    5.2090   -3.8640   20.1060 O   0  0  0  0  0  0  0  0  0  0  0  0
    5.0590   -1.4320   20.8100 O   0  0  0  0  0  0  0  0  0  0  0  0
    6.9990   -2.7340   21.7410 N   0  0  0  0  0  0  0  0  0  0  0  0
    6.4700   -3.6220   22.7620 C   0  0  0  0  0  0  0  0  0  0  0  0
    7.7050   -1.5500   22.3120 C   0  0  1  0  0  0  0  0  0  0  0  0
    7.5720   -3.9250   23.7510 C   0  0  0  0  0  0  0  0  0  0  0  0
    8.5880   -1.7780   23.4020 C   0  0  1  0  0  0  0  0  0  0  0  0
    8.4150   -0.6470   21.3310 C   0  0  0  0  0  0  0  0  0  0  0  0
    7.5210   -5.2720   24.4570 C   0  0  0  0  0  0  0  0  0  0  0  0
    8.6070   -3.0160   24.0250 C   0  0  0  0  0  0  0  0  0  0  0  0
    9.8600   -1.1500   23.2780 C   0  0  0  0  0  0  0  0  0  0  0  0
    9.6040   -0.7680   21.1280 O   0  0  0  0  0  0  0  0  0  0  0  0
    7.5770    0.3990   20.7270 N   0  0  0  0  0  0  0  0  0  0  0  0
    8.6420   -5.5440   25.4370 C   0  0  0  0  0  0  0  0  0  0  0  0
    9.6380   -3.3100   24.9320 C   0  0  0  0  0  0  0  0  0  0  0  0
   10.9840   -1.6990   22.5800 C   0  0  0  0  0  0  0  0  0  0  0  0
   10.0330    0.2100   23.9560 C   0  0  0  0  0  0  0  0  0  0  0  0
    7.3970    1.7180   21.2310 C   0  0  0  0  0  0  0  0  0  0  0  0
    9.6980   -4.5100   25.6320 C   0  0  0  0  0  0  0  0  0  0  0  0
   12.2380   -1.0970   22.4630 C   0  0  0  0  0  0  0  0  0  0  0  0
   11.4290    0.8320   23.7970 C   0  0  0  0  0  0  0  0  0  0  0  0
    8.5080    2.3790   21.7660 C   0  0  0  0  0  0  0  0  0  0  0  0
    6.1780    2.4100   21.2380 C   0  0  0  0  0  0  0  0  0  0  0  0
   12.4620    0.2410   23.1110 C   0  0  0  0  0  0  0  0  0  0  0  0
    8.3820    3.6600   22.2720 C   0  0  0  0  0  0  0  0  0  0  0  0
    5.9930    3.6680   21.7240 N   0  0  0  0  0  0  0  0  0  0  0  0
    7.1490    4.2910   22.2510 C   0  0  0  0  0  0  0  0  0  0  0  0
  1  2  1  0
  3  2  1  0
  3  4  2  0
  3  5  2  0
  3  6  1  0
  6  7  1  0
  6  8  1  0
  7  9  1  0
  8 10  1  0
  8 11  1  6
  9 12  1  0
  9 13  2  0
 10 13  1  0
 10 14  1  6
 11 15  2  0
 11 16  1  0
 12 17  2  0
 13 18  1  0
 14 19  2  0
 14 20  1  0
 16 21  1  0
 17 22  1  0
 18 22  2  0
 19 23  1  0
 20 24  2  0
 21 25  2  0
 21 26  1  0
 23 27  2  0
 24 27  1  0
 25 28  1  0
 26 29  2  0
 28 30  2  0
 29 30  1  0
M  END
