DAV-CRI-d1e0885a-4-bromoalkyne
     RDKit          3D

 19 20  0  0  0  0  0  0  0  0999 V2000
    6.8440   -3.3130   19.6110 C   0  0  0  0  0  0  0  0  0  0  0  0
    5.8980   -2.7830   18.6140 C   0  0  0  0  0  0  0  0  0  0  0  0
    6.7550   -2.7950   20.8980 N   0  0  0  0  0  0  0  0  0  0  0  0
    7.1320   -1.4050   21.0940 C   0  0  0  0  0  0  0  0  0  0  0  0
    6.7250   -3.5640   22.1130 C   0  0  0  0  0  0  0  0  0  0  0  0
    8.4100   -1.3400   21.8090 C   0  0  0  0  0  0  0  0  0  0  0  0
    7.9500   -3.4470   22.7810 C   0  0  0  0  0  0  0  0  0  0  0  0
    8.4780   -2.2030   22.9930 N   0  0  0  0  0  0  0  0  0  0  0  0
    9.8030   -2.3300   23.3780 C   0  0  0  0  0  0  0  0  0  0  0  0
   10.6410   -1.2390   23.4220 C   0  0  0  0  0  0  0  0  0  0  0  0
   11.6920   -1.2270   22.5570 C   0  0  0  0  0  0  0  0  0  0  0  0
   10.6290   -0.0640   24.2530 C   0  0  0  0  0  0  0  0  0  0  0  0
   11.9690   -2.2130   21.6530 C   0  0  0  0  0  0  0  0  0  0  0  0
   12.5050   -0.0030   22.7310 C   0  0  0  0  0  0  0  0  0  0  0  0
   11.9560    1.0650   23.9110 S   0  0  0  0  0  0  0  0  0  0  0  0
    9.7740    0.2560   25.2110 N   0  0  0  0  0  0  0  0  0  0  0  0
   13.1300   -2.2730   20.9980 N   0  0  0  0  0  0  0  0  0  0  0  0
    8.8860   -0.7260   25.7980 C   0  0  0  0  0  0  0  0  0  0  0  0
    8.8360   -0.5190   27.3110 C   0  0  0  0  0  0  0  0  0  0  0  0
  1  2  2  3
  1  3  1  0
  3  4  1  0
  3  5  1  0
  4  6  1  0
  5  7  1  0
  6  8  1  0
  7  8  1  0
  8  9  1  0
  9 10  1  0
 10 11  1  0
 10 12  2  0
 11 13  1  0
 11 14  2  0
 12 15  1  0
 14 15  1  0
 12 16  1  0
 13 17  3  0
 16 18  1  0
 18 19  1  0
M  END
