DAV-CRI-25b90884-3-vinylsulfonamide
     RDKit          3D

 28 29  0  0  0  0  0  0  0  0999 V2000
    7.4620   -2.9670   18.6190 C   0  0  0  0  0  0  0  0  0  0  0  0
    7.0880   -2.2610   19.8810 C   0  0  0  0  0  0  0  0  0  0  0  0
    6.6070   -3.1830   21.3150 S   0  0  0  0  0  0  0  0  0  0  0  0
    5.0660   -3.4550   21.3680 O   0  0  0  0  0  0  0  0  0  0  0  0
    7.4380   -4.3180   21.4040 O   0  0  0  0  0  0  0  0  0  0  0  0
    7.4330   -2.2770   22.5290 N   0  0  0  0  0  0  0  0  0  0  0  0
    8.6340   -1.4470   22.1070 C   0  0  1  0  0  0  0  0  0  0  0  0
    8.2520   -0.1580   21.9750 C   0  0  0  0  0  0  0  0  0  0  0  0
    9.9450   -1.2780   22.9110 C   0  0  0  0  0  0  0  0  0  0  0  0
    7.4130    0.2940   22.9510 C   0  0  0  0  0  0  0  0  0  0  0  0
   10.0110   -0.7370   24.1290 C   0  0  0  0  0  0  0  0  0  0  0  0
   11.2680   -1.6000   22.5200 C   0  0  0  0  0  0  0  0  0  0  0  0
    6.1490    0.7880   22.7110 C   0  0  1  0  0  0  0  0  0  0  0  0
   11.2750   -0.6320   24.6610 C   0  0  0  0  0  0  0  0  0  0  0  0
   12.6300   -1.6660   22.7080 C   0  0  0  0  0  0  0  0  0  0  0  0
    5.9750    2.0350   23.3120 N   0  0  0  0  0  0  0  0  0  0  0  0
    5.9880    0.8820   21.2030 C   0  0  0  0  0  0  0  0  0  0  0  0
   12.4570   -1.0610   23.9920 C   0  0  0  0  0  0  0  0  0  0  0  0
   12.5080   -2.3600   21.1620 Cl  0  0  0  0  0  0  0  0  0  0  0  0
    6.6100    2.2460   24.6160 C   0  0  0  0  0  0  0  0  0  0  0  0
    4.8620    1.7110   20.5670 C   0  0  0  0  0  0  0  0  0  0  0  0
    6.8910    0.1960   20.3540 C   0  0  0  0  0  0  0  0  0  0  0  0
    8.0110    2.2540   24.5870 C   0  0  0  0  0  0  0  0  0  0  0  0
    5.9500    2.4030   25.6360 O   0  0  0  0  0  0  0  0  0  0  0  0
    4.7320    1.7870   19.0530 C   0  0  0  0  0  0  0  0  0  0  0  0
    6.7960    0.2470   19.0270 C   0  0  0  0  0  0  0  0  0  0  0  0
    5.8030    0.9790   18.2950 C   0  0  0  0  0  0  0  0  0  0  0  0
    5.7680    0.9920   16.9620 O   0  0  0  0  0  0  0  0  0  0  0  0
  1  2  1  0
  2  3  1  0
  3  4  2  0
  3  5  2  0
  3  6  1  0
  6  7  1  0
  7  8  1  1
  7  9  1  0
  8 10  3  0
  9 11  2  0
  9 12  1  0
 13 10  1  6
 11 14  1  0
 12 15  2  0
 13 16  1  0
 13 17  1  0
 14 18  2  0
 15 18  1  0
 15 19  1  0
 16 20  1  0
 17 21  2  0
 17 22  1  0
 20 23  1  0
 20 24  2  0
 21 25  1  0
 22 26  2  0
 25 27  2  0
 26 27  1  0
 27 28  1  0
M  END
