DAV-CRI-25b90884-1-vinylsulfonamide
     RDKit          3D

 28 29  0  0  0  0  0  0  0  0999 V2000
    6.5320   -4.6890   20.2870 C   0  0  0  0  0  0  0  0  0  0  0  0
    6.8640   -4.5630   21.7830 C   0  0  0  0  0  0  0  0  0  0  0  0
    5.8250   -3.5510   22.8060 S   0  0  0  0  0  0  0  0  0  0  0  0
    4.5940   -3.3060   21.9700 O   0  0  0  0  0  0  0  0  0  0  0  0
    5.6470   -4.3310   24.0210 O   0  0  0  0  0  0  0  0  0  0  0  0
    6.8800   -2.1990   23.2570 N   0  0  0  0  0  0  0  0  0  0  0  0
    8.3380   -2.3860   22.9330 C   0  0  1  0  0  0  0  0  0  0  0  0
    8.2260   -2.5420   21.6420 C   0  0  0  0  0  0  0  0  0  0  0  0
    9.5120   -1.3710   22.9410 C   0  0  0  0  0  0  0  0  0  0  0  0
    7.7600   -1.3850   21.0610 C   0  0  0  0  0  0  0  0  0  0  0  0
    9.5480   -0.0270   23.2920 C   0  0  0  0  0  0  0  0  0  0  0  0
   10.7360   -1.9220   22.4860 C   0  0  0  0  0  0  0  0  0  0  0  0
    6.7620   -1.3400   20.0830 C   0  0  2  0  0  0  0  0  0  0  0  0
   10.7350    0.7160   23.1920 C   0  0  0  0  0  0  0  0  0  0  0  0
   11.8660   -1.2050   22.3930 C   0  0  0  0  0  0  0  0  0  0  0  0
    7.3340   -0.8190   18.9460 N   0  0  0  0  0  0  0  0  0  0  0  0
    5.5960   -0.4340   20.4850 C   0  0  0  0  0  0  0  0  0  0  0  0
   11.9010    0.1250   22.7470 C   0  0  0  0  0  0  0  0  0  0  0  0
   13.2590   -1.9600   21.8150 Cl  0  0  0  0  0  0  0  0  0  0  0  0
    6.9940    0.5790   18.7610 C   0  0  0  0  0  0  0  0  0  0  0  0
    5.4130   -0.2790   22.0530 C   0  0  0  0  0  0  0  0  0  0  0  0
    4.8730    0.1300   19.3990 C   0  0  0  0  0  0  0  0  0  0  0  0
    7.0520    1.3270   19.9450 C   0  0  0  0  0  0  0  0  0  0  0  0
    6.6900    1.0240   17.6710 O   0  0  0  0  0  0  0  0  0  0  0  0
    4.1960    0.6930   21.9700 C   0  0  0  0  0  0  0  0  0  0  0  0
    3.8600    0.9400   19.4660 C   0  0  0  0  0  0  0  0  0  0  0  0
    3.4470    1.2820   20.7590 C   0  0  0  0  0  0  0  0  0  0  0  0
    2.4020    2.1130   21.0090 O   0  0  0  0  0  0  0  0  0  0  0  0
  1  2  1  0
  2  3  1  0
  3  4  2  0
  3  5  2  0
  3  6  1  0
  6  7  1  0
  7  8  1  6
  7  9  1  0
  8 10  1  0
  9 11  2  0
  9 12  1  0
 13 10  1  1
 11 14  1  0
 12 15  2  0
 13 16  1  0
 13 17  1  0
 14 18  2  0
 15 18  1  0
 15 19  1  0
 16 20  1  0
 17 21  2  0
 17 22  1  0
 20 23  1  0
 20 24  2  0
 21 25  1  0
 22 26  2  0
 25 27  2  0
 26 27  1  0
 27 28  1  0
M  END
