DAV-CRI-d1e0885a-5-chloroacetamide
     RDKit          3D

 20 21  0  0  0  0  0  0  0  0999 V2000
    7.2660   -2.9580   18.7430 C   0  0  0  0  0  0  0  0  0  0  0  0
    6.3010   -3.2240   19.8660 C   0  0  0  0  0  0  0  0  0  0  0  0
    5.4530   -4.1200   19.7380 O   0  0  0  0  0  0  0  0  0  0  0  0
    6.4090   -2.4560   21.0160 N   0  0  0  0  0  0  0  0  0  0  0  0
    6.2890   -3.1480   22.3020 C   0  0  0  0  0  0  0  0  0  0  0  0
    7.1800   -1.2740   21.0850 C   0  0  0  0  0  0  0  0  0  0  0  0
    7.5930   -3.3030   23.0000 C   0  0  0  0  0  0  0  0  0  0  0  0
    8.4150   -1.5440   21.6720 C   0  0  0  0  0  0  0  0  0  0  0  0
    8.4380   -2.1060   22.9310 N   0  0  0  0  0  0  0  0  0  0  0  0
    9.7640   -2.2880   23.2970 C   0  0  0  0  0  0  0  0  0  0  0  0
   10.6330   -1.2280   23.3870 C   0  0  0  0  0  0  0  0  0  0  0  0
   11.7120   -1.2750   22.5590 C   0  0  0  0  0  0  0  0  0  0  0  0
   10.6350   -0.0470   24.2120 C   0  0  0  0  0  0  0  0  0  0  0  0
   11.9660   -2.2870   21.6730 C   0  0  0  0  0  0  0  0  0  0  0  0
   12.5740   -0.0840   22.7520 C   0  0  0  0  0  0  0  0  0  0  0  0
   12.0260    1.0140   23.9050 S   0  0  0  0  0  0  0  0  0  0  0  0
    9.7660    0.3430   25.1380 N   0  0  0  0  0  0  0  0  0  0  0  0
   13.1320   -2.4090   21.0430 N   0  0  0  0  0  0  0  0  0  0  0  0
    9.1640   -0.5360   26.1240 C   0  0  0  0  0  0  0  0  0  0  0  0
    9.6700   -0.7140   27.2140 O   0  0  0  0  0  0  0  0  0  0  0  0
  1  2  1  0
  2  3  2  0
  2  4  1  0
  4  5  1  0
  4  6  1  0
  5  7  1  0
  6  8  1  0
  7  9  1  0
  8  9  1  0
  9 10  1  0
 10 11  1  0
 11 12  1  0
 11 13  2  0
 12 14  1  0
 12 15  2  0
 13 16  1  0
 15 16  1  0
 13 17  1  0
 14 18  3  0
 17 19  1  0
 19 20  1  0
M  END
