DAV-CRI-f4772df7-1-nitrile
     RDKit          3D

 32 36  0  0  0  0  0  0  0  0999 V2000
    6.8970   -3.8650   20.0720 C   0  0  0  0  0  0  0  0  0  0  0  0
    6.3300   -3.1930   19.1350 N   0  0  0  0  0  0  0  0  0  0  0  0
    7.1720   -3.3450   21.3770 N   0  0  0  0  0  0  0  0  0  0  0  0
    8.0900   -2.1740   21.5590 C   0  0  0  0  0  0  0  0  0  0  0  0
    6.7350   -4.0830   22.6190 C   0  0  1  0  0  0  0  0  0  0  0  0
    9.3140   -2.5870   22.3910 C   0  0  1  0  0  0  0  0  0  0  0  0
    7.7020   -4.1400   23.5710 C   0  0  0  0  0  0  0  0  0  0  0  0
    5.5110   -3.4550   23.2520 C   0  0  1  0  0  0  0  0  0  0  0  0
   10.2730   -1.4730   22.8220 C   0  0  0  0  0  0  0  0  0  0  0  0
    8.9380   -3.4860   23.5690 C   0  0  0  0  0  0  0  0  0  0  0  0
    7.3170   -5.0370   24.7110 C   0  0  0  0  0  0  0  0  0  0  0  0
    4.6550   -3.8360   22.2980 C   0  0  0  0  0  0  0  0  0  0  0  0
    4.9070   -4.0240   24.6210 C   0  0  2  0  0  0  0  0  0  0  0  0
   11.6890   -1.5230   22.1800 C   0  0  0  0  0  0  0  0  0  0  0  0
    9.8840   -0.4840   23.7400 C   0  0  0  0  0  0  0  0  0  0  0  0
    9.7920   -3.7100   24.6830 C   0  0  0  0  0  0  0  0  0  0  0  0
    8.1890   -5.1970   25.7360 C   0  0  0  0  0  0  0  0  0  0  0  0
    4.2580   -5.5310   22.7020 S   0  0  0  0  0  0  0  0  0  0  0  0
    4.3850   -5.3150   24.4190 C   0  0  0  0  0  0  0  0  0  0  0  0
    3.9150   -3.2240   25.2140 N   0  0  0  0  0  0  0  0  0  0  0  0
   12.6030   -0.3990   22.6440 C   0  0  0  0  0  0  0  0  0  0  0  0
   10.7820    0.5070   24.1100 C   0  0  0  0  0  0  0  0  0  0  0  0
    9.4110   -4.5610   25.7500 C   0  0  0  0  0  0  0  0  0  0  0  0
    2.8590   -5.7990   22.4960 O   0  0  0  0  0  0  0  0  0  0  0  0
    5.3060   -6.4070   22.2570 O   0  0  0  0  0  0  0  0  0  0  0  0
    2.5890   -3.5760   25.6150 C   0  0  0  0  0  0  0  0  0  0  0  0
    4.3130   -2.2200   26.1510 C   0  0  0  0  0  0  0  0  0  0  0  0
   12.0780    0.5940   23.6210 C   0  0  0  0  0  0  0  0  0  0  0  0
   10.2090   -4.8040   26.8330 C   0  0  0  0  0  0  0  0  0  0  0  0
    2.1550   -2.7760   26.6480 C   0  0  0  0  0  0  0  0  0  0  0  0
    3.2250   -1.9670   26.9960 C   0  0  0  0  0  0  0  0  0  0  0  0
    5.3980   -1.6780   26.2130 O   0  0  0  0  0  0  0  0  0  0  0  0
  1  2  2  3
  1  3  1  0
  3  4  1  0
  5  3  1  6
  4  6  1  0
  5  7  1  0
  5  8  1  0
  6  9  1  1
  6 10  1  0
  7 10  2  0
  7 11  1  0
  8 12  1  6
  8 13  1  0
  9 14  2  0
  9 15  1  0
 10 16  1  0
 11 17  2  0
 18 12  1  0
 13 19  1  0
 18 19  1  0
 13 20  1  6
 14 21  1  0
 15 22  2  0
 16 23  2  0
 17 23  1  0
 18 24  2  0
 18 25  2  0
 20 26  1  0
 20 27  1  0
 21 28  2  0
 22 28  1  0
 23 29  1  0
 26 30  1  0
 27 31  1  0
 30 31  1  0
 27 32  2  0
M  END
