DAV-CRI-f9b12666-4-vinylsulfonamide
     RDKit          3D

 42 45  0  0  0  0  0  0  0  0999 V2000
    8.1250   -3.5700   19.9310 C   0  0  0  0  0  0  0  0  0  0  0  0
    7.0630   -2.9550   19.3790 C   0  0  0  0  0  0  0  0  0  0  0  0
    5.7130   -3.7740   20.1550 S   0  0  0  0  0  0  0  0  0  0  0  0
    4.7850   -2.9160   20.7830 O   0  0  0  0  0  0  0  0  0  0  0  0
    5.2480   -4.8720   19.4090 O   0  0  0  0  0  0  0  0  0  0  0  0
    6.5450   -4.4620   21.4170 N   0  0  0  0  0  0  0  0  0  0  0  0
    7.0780   -3.4810   22.3260 C   0  0  0  0  0  0  0  0  0  0  0  0
    5.8940   -5.6350   21.9790 C   0  0  1  0  0  0  0  0  0  0  0  0
    7.9850   -4.2850   23.1510 C   0  0  1  0  0  0  0  0  0  0  0  0
    6.6860   -6.2580   23.1210 C   0  0  0  0  0  0  0  0  0  0  0  0
    4.5210   -5.1750   22.3600 N   0  0  0  0  0  0  0  0  0  0  0  0
    9.1810   -3.5470   23.6480 C   0  0  0  0  0  0  0  0  0  0  0  0
    7.3540   -5.1710   23.9980 C   0  0  0  0  0  0  0  0  0  0  0  0
    4.0300   -5.4130   23.5930 C   0  0  0  0  0  0  0  0  0  0  0  0
    9.4760   -2.1300   23.5330 N   0  0  0  0  0  0  0  0  0  0  0  0
   10.3390   -4.4320   24.3960 S   0  0  0  0  0  0  0  0  0  0  0  0
    4.6540   -5.0930   24.6010 O   0  0  0  0  0  0  0  0  0  0  0  0
    2.7480   -6.0150   23.6370 C   0  0  1  0  0  0  0  0  0  0  0  0
   10.7220   -1.8620   24.0680 C   0  0  0  0  0  0  0  0  0  0  0  0
   11.3500   -3.0750   24.5900 C   0  0  0  0  0  0  0  0  0  0  0  0
    2.5050   -7.1920   22.9230 C   0  0  0  0  0  0  0  0  0  0  0  0
    2.4160   -6.3260   25.0660 N   0  0  0  0  0  0  0  0  0  0  0  0
   11.4580   -0.5240   24.1480 C   0  0  0  0  0  0  0  0  0  0  0  0
   12.6130   -3.2270   25.1880 C   0  0  0  0  0  0  0  0  0  0  0  0
    1.2950   -7.3690   22.2250 C   0  0  0  0  0  0  0  0  0  0  0  0
    3.1820   -7.4340   25.5980 C   0  0  1  0  0  0  0  0  0  0  0  0
   11.3950    0.8840   23.8330 C   0  0  0  0  0  0  0  0  0  0  0  0
   12.7930   -0.7000   24.7760 C   0  0  0  0  0  0  0  0  0  0  0  0
   13.3750   -1.9800   25.2830 C   0  0  0  0  0  0  0  0  0  0  0  0
    1.1390   -8.5780   21.5970 N   0  0  0  0  0  0  0  0  0  0  0  0
    0.4130   -6.5130   22.1460 O   0  0  0  0  0  0  0  0  0  0  0  0
    4.3400   -6.8820   26.4200 C   0  0  0  0  0  0  0  0  0  0  0  0
    2.2770   -8.2080   26.4210 N   0  0  0  0  0  0  0  0  0  0  0  0
   12.5800    1.2250   23.2160 C   0  0  0  0  0  0  0  0  0  0  0  0
   10.4490    1.9610   24.0330 C   0  0  0  0  0  0  0  0  0  0  0  0
   12.8960    2.4940   22.8000 C   0  0  0  0  0  0  0  0  0  0  0  0
   10.7860    3.2930   23.5980 C   0  0  0  0  0  0  0  0  0  0  0  0
   12.0040    3.5200   22.9880 C   0  0  0  0  0  0  0  0  0  0  0  0
    9.8430    4.8240   23.7260 S   0  0  0  0  0  0  0  0  0  0  0  0
    8.6710    4.6390   22.5330 N   0  0  0  0  0  0  0  0  0  0  0  0
    9.1620    4.9630   24.9920 O   0  0  0  0  0  0  0  0  0  0  0  0
   10.7350    5.8780   23.2820 O   0  0  0  0  0  0  0  0  0  0  0  0
  1  2  1  0
  3  2  1  0
  3  4  2  0
  3  5  2  0
  3  6  1  0
  6  7  1  0
  6  8  1  0
  7  9  1  0
  8 10  1  0
  8 11  1  1
  9 12  1  1
  9 13  1  0
 10 13  1  0
 11 14  1  0
 12 15  2  0
 12 16  1  0
 14 17  2  0
 14 18  1  0
 15 19  1  0
 16 20  1  0
 19 20  2  0
 18 21  1  6
 18 22  1  0
 19 23  1  0
 20 24  1  0
 21 25  1  0
 22 26  1  0
 23 27  1  0
 23 28  2  0
 24 29  2  0
 28 29  1  0
 25 30  1  0
 25 31  2  0
 26 32  1  1
 26 33  1  0
 27 34  2  0
 27 35  1  0
 34 36  1  0
 35 37  2  0
 36 38  2  0
 37 38  1  0
 37 39  1  0
 39 40  1  0
 39 41  2  0
 39 42  2  0
M  END
