DAV-UNK-07f953a2-1-nitrile
     RDKit          3D

 31 33  0  0  0  0  0  0  0  0999 V2000
    6.7160   -3.7260   19.7840 C   0  0  0  0  0  0  0  0  0  0  0  0
    5.7890   -3.2350   19.0560 N   0  0  0  0  0  0  0  0  0  0  0  0
    6.4650   -4.3840   20.9570 N   0  0  0  0  0  0  0  0  0  0  0  0
    7.3450   -4.4490   22.1190 C   0  0  0  0  0  0  0  0  0  0  0  0
    5.6210   -5.5490   20.9420 C   0  0  0  0  0  0  0  0  0  0  0  0
    7.1670   -5.8170   22.7660 C   0  0  0  0  0  0  0  0  0  0  0  0
    4.8540   -5.6110   22.1370 C   0  0  0  0  0  0  0  0  0  0  0  0
    5.7720   -5.9270   23.2960 C   0  0  0  0  0  0  0  0  0  0  0  0
    5.7370   -4.8880   24.3280 N   0  0  0  0  0  0  0  0  0  0  0  0
    5.1590   -5.1800   25.8780 S   0  0  0  0  0  0  0  0  0  0  0  0
    6.1170   -4.7460   26.8560 O   0  0  0  0  0  0  0  0  0  0  0  0
    4.5540   -6.4940   25.9190 O   0  0  0  0  0  0  0  0  0  0  0  0
    3.8750   -3.9710   25.8970 C   0  0  0  0  0  0  0  0  0  0  0  0
    2.5360   -4.2620   25.3440 C   0  0  0  0  0  0  0  0  0  0  0  0
    4.0940   -2.7010   26.4350 C   0  0  0  0  0  0  0  0  0  0  0  0
    1.5270   -3.3360   25.3530 C   0  0  0  0  0  0  0  0  0  0  0  0
    3.1070   -1.7110   26.4760 C   0  0  0  0  0  0  0  0  0  0  0  0
    1.8090   -1.9290   25.9690 C   0  0  0  0  0  0  0  0  0  0  0  0
    1.0060   -0.8600   26.1030 N   0  0  0  0  0  0  0  0  0  0  0  0
   -0.2110   -0.6940   26.6990 C   0  0  0  0  0  0  0  0  0  0  0  0
   -1.1210   -1.4950   26.4570 O   0  0  0  0  0  0  0  0  0  0  0  0
   -0.4840    0.3650   27.5850 C   0  0  0  0  0  0  0  0  0  0  0  0
    0.3800    1.2210   27.7920 O   0  0  0  0  0  0  0  0  0  0  0  0
    0.4620    2.2950   26.9410 C   0  0  0  0  0  0  0  0  0  0  0  0
   -0.4580    3.3550   26.8490 C   0  0  0  0  0  0  0  0  0  0  0  0
    1.5700    2.4070   26.0330 C   0  0  0  0  0  0  0  0  0  0  0  0
   -0.2630    4.5330   25.8370 C   0  0  0  0  0  0  0  0  0  0  0  0
    1.8520    3.4020   25.0910 C   0  0  0  0  0  0  0  0  0  0  0  0
    2.5110    1.3700   26.0950 C   0  0  0  0  0  0  0  0  0  0  0  0
    1.0030    4.4870   24.9260 C   0  0  0  0  0  0  0  0  0  0  0  0
    1.2960    5.5630   23.9190 C   0  0  0  0  0  0  0  0  0  0  0  0
  1  2  2  3
  1  3  1  0
  3  4  1  0
  3  5  1  0
  4  6  1  0
  5  7  1  0
  6  8  1  0
  7  8  1  0
  8  9  1  0
 10  9  1  0
 10 11  2  0
 10 12  2  0
 10 13  1  0
 13 14  2  0
 13 15  1  0
 14 16  1  0
 15 17  2  0
 16 18  2  0
 17 18  1  0
 18 19  1  0
 19 20  1  0
 20 21  2  0
 20 22  1  0
 22 23  1  0
 23 24  1  0
 24 25  2  0
 24 26  1  0
 25 27  1  0
 26 28  2  0
 26 29  1  0
 27 30  2  0
 28 30  1  0
 30 31  1  0
M  END
