DAV-CRI-f9b12666-10-bromoalkyne
     RDKit          3D

 40 43  0  0  0  0  0  0  0  0999 V2000
    6.9020   -4.0090   20.0100 C   0  0  0  0  0  0  0  0  0  0  0  0
    5.9840   -3.3690   19.2820 C   0  0  0  0  0  0  0  0  0  0  0  0
    6.7390   -4.3940   21.3460 N   0  0  0  0  0  0  0  0  0  0  0  0
    7.1240   -3.4650   22.3660 C   0  0  0  0  0  0  0  0  0  0  0  0
    5.8960   -5.4840   21.8650 C   0  0  1  0  0  0  0  0  0  0  0  0
    7.6930   -4.1580   23.5830 C   0  0  2  0  0  0  0  0  0  0  0  0
    6.7220   -6.3400   22.6000 C   0  0  0  0  0  0  0  0  0  0  0  0
    4.7680   -5.0000   22.4650 N   0  0  0  0  0  0  0  0  0  0  0  0
    9.0710   -3.6020   23.7480 C   0  0  0  0  0  0  0  0  0  0  0  0
    7.7670   -5.6860   23.5360 C   0  0  0  0  0  0  0  0  0  0  0  0
    4.2700   -5.3320   23.7300 C   0  0  0  0  0  0  0  0  0  0  0  0
    9.4440   -2.3530   23.2410 N   0  0  0  0  0  0  0  0  0  0  0  0
   10.4000   -4.4370   24.5850 S   0  0  0  0  0  0  0  0  0  0  0  0
    4.5800   -4.6410   24.6900 O   0  0  0  0  0  0  0  0  0  0  0  0
    3.4150   -6.4680   23.8050 C   0  0  2  0  0  0  0  0  0  0  0  0
   10.7350   -2.1220   23.5470 C   0  0  0  0  0  0  0  0  0  0  0  0
   11.4320   -3.0830   24.2740 C   0  0  0  0  0  0  0  0  0  0  0  0
    2.6630   -6.7120   22.6850 C   0  0  0  0  0  0  0  0  0  0  0  0
    2.6100   -6.4840   25.0530 N   0  0  0  0  0  0  0  0  0  0  0  0
   11.4310   -0.9020   23.1360 C   0  0  0  0  0  0  0  0  0  0  0  0
   12.7550   -2.8600   24.6200 C   0  0  0  0  0  0  0  0  0  0  0  0
    1.3750   -7.2510   22.6990 C   0  0  0  0  0  0  0  0  0  0  0  0
    3.1410   -7.6010   25.7960 C   0  0  1  0  0  0  0  0  0  0  0  0
   12.7370   -0.6820   23.4520 C   0  0  0  0  0  0  0  0  0  0  0  0
   13.3800   -1.6830   24.2110 C   0  0  0  0  0  0  0  0  0  0  0  0
    1.2390   -8.5350   22.2340 N   0  0  0  0  0  0  0  0  0  0  0  0
    0.3850   -6.6360   23.0400 O   0  0  0  0  0  0  0  0  0  0  0  0
    4.2440   -7.0970   26.6930 C   0  0  0  0  0  0  0  0  0  0  0  0
    2.1010   -8.1740   26.6050 N   0  0  0  0  0  0  0  0  0  0  0  0
   13.1960    0.5430   22.9290 C   0  0  0  0  0  0  0  0  0  0  0  0
   12.2430    1.4750   23.2810 C   0  0  0  0  0  0  0  0  0  0  0  0
   11.2770    0.7880   23.9370 C   0  0  0  0  0  0  0  0  0  0  0  0
   12.1040    2.8870   23.1000 C   0  0  0  0  0  0  0  0  0  0  0  0
   10.1320    1.3280   24.4510 C   0  0  0  0  0  0  0  0  0  0  0  0
   10.9320    3.5220   23.6290 C   0  0  0  0  0  0  0  0  0  0  0  0
    9.8760    2.6770   24.3430 C   0  0  0  0  0  0  0  0  0  0  0  0
   10.5530    5.2620   23.5580 S   0  0  0  0  0  0  0  0  0  0  0  0
    9.1330    5.2710   22.6600 N   0  0  0  0  0  0  0  0  0  0  0  0
   10.1780    5.6900   24.8880 O   0  0  0  0  0  0  0  0  0  0  0  0
   11.5340    5.9770   22.7880 O   0  0  0  0  0  0  0  0  0  0  0  0
  1  2  2  3
  1  3  1  0
  3  4  1  0
  3  5  1  0
  4  6  1  0
  5  7  1  0
  5  8  1  1
  6  9  1  6
  6 10  1  0
  7 10  1  0
  8 11  1  0
  9 12  2  0
  9 13  1  0
 11 14  2  0
 11 15  1  0
 12 16  1  0
 13 17  1  0
 16 17  2  0
 15 18  1  6
 15 19  1  0
 16 20  1  0
 17 21  1  0
 18 22  1  0
 19 23  1  0
 20 24  2  0
 21 25  2  0
 24 25  1  0
 22 26  1  0
 22 27  2  0
 23 28  1  1
 23 29  1  0
 24 30  1  0
 30 31  1  0
 31 32  2  0
 31 33  1  0
 32 34  1  0
 33 35  2  0
 34 36  2  0
 35 36  1  0
 35 37  1  0
 37 38  1  0
 37 39  2  0
 37 40  2  0
M  END
