DAV-CRI-f4772df7-2-bromoalkyne
     RDKit          3D

 32 36  0  0  0  0  0  0  0  0999 V2000
    6.8170   -3.5450   19.8810 C   0  0  0  0  0  0  0  0  0  0  0  0
    5.8950   -2.9690   19.1190 C   0  0  0  0  0  0  0  0  0  0  0  0
    7.1130   -2.9010   21.1810 N   0  0  0  0  0  0  0  0  0  0  0  0
    8.1460   -1.8330   21.3250 C   0  0  0  0  0  0  0  0  0  0  0  0
    6.4470   -2.9580   22.5540 C   0  0  2  0  0  0  0  0  0  0  0  0
    9.3030   -2.3230   22.2180 C   0  0  1  0  0  0  0  0  0  0  0  0
    7.4420   -3.4580   23.4380 C   0  0  0  0  0  0  0  0  0  0  0  0
    5.2120   -3.8370   22.7680 C   0  0  1  0  0  0  0  0  0  0  0  0
   10.2480   -1.2370   22.7410 C   0  0  0  0  0  0  0  0  0  0  0  0
    8.8210   -3.2030   23.3640 C   0  0  0  0  0  0  0  0  0  0  0  0
    7.0870   -4.3720   24.6240 C   0  0  0  0  0  0  0  0  0  0  0  0
    5.4430   -5.0140   22.0960 C   0  0  0  0  0  0  0  0  0  0  0  0
    4.7220   -4.1280   24.2720 C   0  0  2  0  0  0  0  0  0  0  0  0
   11.6730   -1.3420   22.2330 C   0  0  0  0  0  0  0  0  0  0  0  0
    9.8810   -0.2050   23.6260 C   0  0  0  0  0  0  0  0  0  0  0  0
    9.7870   -3.7000   24.2660 C   0  0  0  0  0  0  0  0  0  0  0  0
    8.0230   -4.8730   25.5160 C   0  0  0  0  0  0  0  0  0  0  0  0
    4.6170   -6.3220   22.9570 S   0  0  0  0  0  0  0  0  0  0  0  0
    4.0680   -5.3620   24.3090 C   0  0  0  0  0  0  0  0  0  0  0  0
    3.8730   -3.1690   25.0330 N   0  0  0  0  0  0  0  0  0  0  0  0
   12.6200   -0.3030   22.7210 C   0  0  0  0  0  0  0  0  0  0  0  0
   10.8320    0.7430   24.0450 C   0  0  0  0  0  0  0  0  0  0  0  0
    9.4920   -4.5230   25.3510 C   0  0  0  0  0  0  0  0  0  0  0  0
    3.3770   -6.7340   22.3810 O   0  0  0  0  0  0  0  0  0  0  0  0
    5.6310   -7.2390   23.3560 O   0  0  0  0  0  0  0  0  0  0  0  0
    2.5080   -3.5710   25.4790 C   0  0  0  0  0  0  0  0  0  0  0  0
    4.3800   -2.2020   26.0480 C   0  0  0  0  0  0  0  0  0  0  0  0
   12.1570    0.6760   23.5890 C   0  0  0  0  0  0  0  0  0  0  0  0
   10.4540   -4.9560   26.1650 F   0  0  0  0  0  0  0  0  0  0  0  0
    2.2450   -2.6860   26.5260 C   0  0  0  0  0  0  0  0  0  0  0  0
    3.3410   -1.9360   26.9180 C   0  0  0  0  0  0  0  0  0  0  0  0
    5.4950   -1.7290   26.1120 O   0  0  0  0  0  0  0  0  0  0  0  0
  1  2  2  3
  1  3  1  0
  3  4  1  0
  5  3  1  6
  4  6  1  0
  5  7  1  0
  5  8  1  0
  6  9  1  1
  6 10  1  0
  7 10  2  0
  7 11  1  0
  8 12  1  1
  8 13  1  0
  9 14  2  0
  9 15  1  0
 10 16  1  0
 11 17  2  0
 18 12  1  0
 13 19  1  0
 18 19  1  0
 13 20  1  6
 14 21  1  0
 15 22  2  0
 16 23  2  0
 17 23  1  0
 18 24  2  0
 18 25  2  0
 20 26  1  0
 20 27  1  0
 21 28  2  0
 22 28  1  0
 23 29  1  0
 26 30  1  0
 27 31  1  0
 30 31  1  0
 27 32  2  0
M  END
