DAV-CRI-25b90884-4-chloroacetamide
     RDKit          3D

 27 28  0  0  0  0  0  0  0  0999 V2000
    8.5010   -3.5290   20.3090 C   0  0  0  0  0  0  0  0  0  0  0  0
    7.3020   -2.6200   20.3040 C   0  0  0  0  0  0  0  0  0  0  0  0
    6.5750   -3.4580   19.5240 O   0  0  0  0  0  0  0  0  0  0  0  0
    8.3180   -2.0030   21.0870 N   0  0  0  0  0  0  0  0  0  0  0  0
    7.9740   -1.2160   22.3000 C   0  0  2  0  0  0  0  0  0  0  0  0
    8.7360   -0.0740   22.4550 N   0  0  0  0  0  0  0  0  0  0  0  0
    7.9300   -2.0510   23.5710 C   0  0  0  0  0  0  0  0  0  0  0  0
    8.0690    1.0670   22.7720 C   0  0  0  0  0  0  0  0  0  0  0  0
    8.8650   -3.0640   23.8150 C   0  0  0  0  0  0  0  0  0  0  0  0
    6.9470   -1.8380   24.5460 C   0  0  0  0  0  0  0  0  0  0  0  0
    8.7270    2.2780   23.1280 O   0  0  0  0  0  0  0  0  0  0  0  0
    6.6960    0.9740   22.6990 C   0  0  1  0  0  0  0  0  0  0  0  0
    8.7990   -3.8160   24.9900 C   0  0  0  0  0  0  0  0  0  0  0  0
    6.8740   -2.5840   25.7210 C   0  0  0  0  0  0  0  0  0  0  0  0
    6.0650    2.1760   23.2410 N   0  0  0  0  0  0  0  0  0  0  0  0
    6.2900    0.8950   21.2490 C   0  0  0  0  0  0  0  0  0  0  0  0
    7.8200   -3.5960   25.9500 C   0  0  0  0  0  0  0  0  0  0  0  0
    5.6410   -2.2760   26.8820 Cl  0  0  0  0  0  0  0  0  0  0  0  0
    6.6720    3.4100   23.2260 C   0  0  0  0  0  0  0  0  0  0  0  0
    5.0950    1.6250   20.6990 C   0  0  0  0  0  0  0  0  0  0  0  0
    7.0840    0.1030   20.4050 C   0  0  0  0  0  0  0  0  0  0  0  0
    7.0900    3.8900   21.8400 C   0  0  0  0  0  0  0  0  0  0  0  0
    6.8610    4.0840   24.2390 O   0  0  0  0  0  0  0  0  0  0  0  0
    4.7740    1.4870   19.2240 C   0  0  0  0  0  0  0  0  0  0  0  0
    6.8620   -0.0920   19.0040 C   0  0  0  0  0  0  0  0  0  0  0  0
    5.6840    0.6120   18.3880 C   0  0  0  0  0  0  0  0  0  0  0  0
    5.5170    0.3960   17.0430 O   0  0  0  0  0  0  0  0  0  0  0  0
  1  2  1  0
  2  3  2  0
  2  4  1  0
  5  4  1  6
  5  6  1  0
  5  7  1  0
  6  8  1  0
  7  9  2  0
  7 10  1  0
  8 11  2  0
  8 12  1  0
  9 13  1  0
 10 14  2  0
 12 15  1  6
 12 16  1  0
 13 17  2  0
 14 17  1  0
 14 18  1  0
 15 19  1  0
 16 20  2  0
 16 21  1  0
 19 22  1  0
 19 23  2  0
 20 24  1  0
 21 25  2  0
 24 26  2  0
 25 26  1  0
 26 27  1  0
M  END
