DAV-CRI-d1e0885a-4-nitrile
     RDKit          3D

 19 20  0  0  0  0  0  0  0  0999 V2000
    6.7840   -3.3600   19.6390 C   0  0  0  0  0  0  0  0  0  0  0  0
    5.8730   -3.0930   18.8040 N   0  0  0  0  0  0  0  0  0  0  0  0
    6.8860   -2.6410   20.8190 N   0  0  0  0  0  0  0  0  0  0  0  0
    7.5340   -1.3300   20.8720 C   0  0  0  0  0  0  0  0  0  0  0  0
    6.5720   -3.2320   22.0650 C   0  0  0  0  0  0  0  0  0  0  0  0
    8.7320   -1.4130   21.7760 C   0  0  0  0  0  0  0  0  0  0  0  0
    7.7380   -3.3230   22.8390 C   0  0  0  0  0  0  0  0  0  0  0  0
    8.5490   -2.2310   22.9860 N   0  0  0  0  0  0  0  0  0  0  0  0
    9.7600   -2.6580   23.5140 C   0  0  0  0  0  0  0  0  0  0  0  0
   10.7660   -1.5160   23.5380 C   0  0  0  0  0  0  0  0  0  0  0  0
   11.7350   -1.3720   22.5930 C   0  0  0  0  0  0  0  0  0  0  0  0
   10.8540   -0.4880   24.4830 C   0  0  0  0  0  0  0  0  0  0  0  0
   11.8860   -2.2330   21.5550 C   0  0  0  0  0  0  0  0  0  0  0  0
   12.6380   -0.2060   22.7520 C   0  0  0  0  0  0  0  0  0  0  0  0
   12.1440    0.6440   24.1440 S   0  0  0  0  0  0  0  0  0  0  0  0
   10.1640   -0.1590   25.6230 N   0  0  0  0  0  0  0  0  0  0  0  0
   13.0860   -2.3940   20.9730 N   0  0  0  0  0  0  0  0  0  0  0  0
    8.8000   -0.1620   25.7980 C   0  0  0  0  0  0  0  0  0  0  0  0
    8.4520    0.1080   27.2790 C   0  0  0  0  0  0  0  0  0  0  0  0
  1  2  2  3
  1  3  1  0
  3  4  1  0
  3  5  1  0
  4  6  1  0
  5  7  1  0
  6  8  1  0
  7  8  1  0
  8  9  1  0
  9 10  1  0
 10 11  1  0
 10 12  2  0
 11 13  1  0
 11 14  2  0
 12 15  1  0
 14 15  1  0
 12 16  1  0
 13 17  3  0
 16 18  1  0
 18 19  1  0
M  END
