DEM-REL-172c3d60-5
     RDKit          3D

 23 25  0  0  0  0  0  0  0  0999 V2000
    7.0610    0.0630   18.4920 O   0  0  0  0  0  0  0  0  0  0  0  0
    7.1050   -0.8660   19.3050 C   0  0  0  0  0  0  0  0  0  0  0  0
    6.1650   -2.0200   19.0980 C   0  0  0  0  0  0  0  0  0  0  0  0
    7.9230   -1.0020   20.3990 N   0  0  0  0  0  0  0  0  0  0  0  0
    6.1090   -3.0290   20.0880 C   0  0  0  0  0  0  0  0  0  0  0  0
    7.3490   -1.5850   21.6250 C   0  0  1  0  0  0  0  0  0  0  0  0
    6.8960   -3.0070   21.2580 C   0  0  0  0  0  0  0  0  0  0  0  0
    8.2250   -1.4840   22.7270 C   0  0  1  0  0  0  0  0  0  0  0  0
    8.1100   -2.6850   23.5510 N   0  0  0  0  0  0  0  0  0  0  0  0
    9.6030   -1.2250   22.6050 C   0  0  0  0  0  0  0  0  0  0  0  0
    8.0600   -2.5490   24.9230 C   0  0  0  0  0  0  0  0  0  0  0  0
   10.4340   -2.1580   21.9930 C   0  0  0  0  0  0  0  0  0  0  0  0
   10.1840   -0.0380   23.1030 C   0  0  0  0  0  0  0  0  0  0  0  0
    7.7680   -1.4760   25.4170 O   0  0  0  0  0  0  0  0  0  0  0  0
    8.3670   -3.7270   25.7340 C   0  0  0  0  0  0  0  0  0  0  0  0
   11.8070   -1.9490   21.8710 C   0  0  0  0  0  0  0  0  0  0  0  0
   11.5440    0.1520   22.9760 C   0  0  0  0  0  0  0  0  0  0  0  0
    9.2730   -4.7550   25.2600 C   0  0  0  0  0  0  0  0  0  0  0  0
    7.6940   -4.0490   27.3740 S   0  0  0  0  0  0  0  0  0  0  0  0
   12.3520   -0.7790   22.3770 C   0  0  0  0  0  0  0  0  0  0  0  0
    9.3920   -5.8410   26.3170 C   0  0  0  0  0  0  0  0  0  0  0  0
    8.5350   -5.5400   27.5600 C   0  0  0  0  0  0  0  0  0  0  0  0
   13.6480   -0.5560   22.2820 F   0  0  0  0  0  0  0  0  0  0  0  0
  1  2  2  0
  2  3  1  0
  2  4  1  0
  3  5  2  0
  4  6  1  0
  5  7  1  0
  6  7  1  6
  6  8  1  0
  8  9  1  6
  8 10  1  0
  9 11  1  0
 10 12  2  0
 10 13  1  0
 11 14  2  0
 11 15  1  0
 12 16  1  0
 13 17  2  0
 15 18  2  0
 15 19  1  0
 16 20  2  0
 17 20  1  0
 18 21  1  0
 19 22  1  0
 21 22  2  0
 20 23  1  0
M  END
