DEM-REL-172c3d60-6
     RDKit          3D

 26 29  0  0  0  0  0  0  0  0999 V2000
    6.4440    0.1870   18.4100 O   0  0  0  0  0  0  0  0  0  0  0  0
    6.6740   -0.6310   19.3000 C   0  0  0  0  0  0  0  0  0  0  0  0
    6.7100   -2.0980   18.9420 C   0  0  0  0  0  0  0  0  0  0  0  0
    6.9690   -0.2180   20.7110 C   0  0  0  0  0  0  0  0  0  0  0  0
    6.3390   -2.9230   20.0360 C   0  0  0  0  0  0  0  0  0  0  0  0
    7.6910   -1.3770   21.3780 C   0  0  2  0  0  0  0  0  0  0  0  0
    5.5770   -3.8890   19.8270 O   0  0  0  0  0  0  0  0  0  0  0  0
    6.8770   -2.5660   21.3080 N   0  0  0  0  0  0  0  0  0  0  0  0
    7.9150   -1.2160   22.5880 O   0  0  0  0  0  0  0  0  0  0  0  0
    7.2540   -3.5580   22.2870 C   0  0  0  0  0  0  0  0  0  0  0  0
    9.2420   -0.9720   23.0650 C   0  0  0  0  0  0  0  0  0  0  0  0
    6.7000   -4.8210   22.5500 C   0  0  0  0  0  0  0  0  0  0  0  0
    8.3300   -3.2180   23.0940 N   0  0  0  0  0  0  0  0  0  0  0  0
   10.2780   -1.0500   22.1390 C   0  0  0  0  0  0  0  0  0  0  0  0
    9.5880   -0.6600   24.3910 C   0  0  0  0  0  0  0  0  0  0  0  0
    7.4870   -5.2720   23.5710 C   0  0  0  0  0  0  0  0  0  0  0  0
    8.4940   -4.2720   23.8990 C   0  0  0  0  0  0  0  0  0  0  0  0
   11.5920   -0.8160   22.5100 C   0  0  0  0  0  0  0  0  0  0  0  0
   10.9240   -0.4320   24.7430 C   0  0  0  0  0  0  0  0  0  0  0  0
    9.4990   -4.4570   24.9420 C   0  0  0  0  0  0  0  0  0  0  0  0
   11.9340   -0.5000   23.7990 C   0  0  0  0  0  0  0  0  0  0  0  0
   10.8660   -3.7210   24.8910 C   0  0  0  0  0  0  0  0  0  0  0  0
    9.3960   -5.2960   26.0940 C   0  0  0  0  0  0  0  0  0  0  0  0
   13.1900   -0.2700   24.1290 F   0  0  0  0  0  0  0  0  0  0  0  0
   11.5970   -4.2270   26.1600 C   0  0  0  0  0  0  0  0  0  0  0  0
   10.3950   -4.4890   25.6570 N   0  0  0  0  0  0  0  0  0  0  0  0
  1  2  2  0
  2  3  1  0
  2  4  1  0
  3  5  1  0
  4  6  1  0
  5  7  2  0
  5  8  1  0
  6  8  1  0
  6  9  1  1
  8 10  1  0
  9 11  1  0
 10 12  2  0
 10 13  1  0
 11 14  2  0
 11 15  1  0
 12 16  1  0
 13 17  1  0
 16 17  2  0
 14 18  1  0
 15 19  2  0
 17 20  1  0
 18 21  2  0
 19 21  1  0
 20 22  1  0
 20 23  2  0
 21 24  1  0
 22 25  2  0
 23 26  1  0
 25 26  1  0
M  END
