DOU-UNK-b5326f8f-1-bromoalkyne
     RDKit          3D

 17 18  0  0  0  0  0  0  0  0999 V2000
    6.8480   -4.0450   20.1000 C   0  0  0  0  0  0  0  0  0  0  0  0
    5.6720   -3.3450   19.3870 C   0  0  0  0  0  0  0  0  0  0  0  0
    7.2000   -3.5290   21.4520 C   0  0  2  0  0  0  0  0  0  0  0  0
    8.4830   -2.5680   21.3540 C   0  0  0  0  0  0  0  0  0  0  0  0
    7.2930   -4.5940   22.4080 C   0  0  0  0  0  0  0  0  0  0  0  0
    8.6460   -1.7070   22.6620 C   0  0  0  0  0  0  0  0  0  0  0  0
    7.9930   -4.0160   23.3770 C   0  0  0  0  0  0  0  0  0  0  0  0
    7.8590   -4.8650   23.7300 C   0  0  0  0  0  0  0  0  0  0  0  0
    8.6800   -2.7820   23.8070 C   0  0  1  0  0  0  0  0  0  0  0  0
    7.5880   -5.6170   23.6280 S   0  0  0  0  0  0  0  0  0  0  0  0
    7.5870   -4.0900   22.7080 C   0  0  0  0  0  0  0  0  0  0  0  0
   10.0650   -3.1950   24.0110 O   0  0  0  0  0  0  0  0  0  0  0  0
    8.0590   -2.8040   23.0060 C   0  0  0  0  0  0  0  0  0  0  0  0
   11.0350   -2.1720   23.8030 C   0  0  0  0  0  0  0  0  0  0  0  0
    6.7900   -2.7700   23.6060 N   0  0  0  0  0  0  0  0  0  0  0  0
    8.0340   -1.5270   23.5280 O   0  0  0  0  0  0  0  0  0  0  0  0
   12.3420   -2.6080   24.4770 C   0  0  0  0  0  0  0  0  0  0  0  0
  1  2  2  3
  3  1  1  6
  3  4  1  0
  3  5  1  0
  4  6  1  0
  5  7  2  0
  5  8  1  0
  6  9  1  0
  7  9  1  0
  7 10  1  0
  8 11  2  0
 10 11  1  0
  9 12  1  6
 11 13  1  0
 12 14  1  0
 13 15  1  0
 13 16  2  0
 14 17  1  0
M  END
