DOU-UNK-b5326f8f-1-acrylamide
     RDKit          3D

 19 20  0  0  0  0  0  0  0  0999 V2000
    7.9940   -3.5050   19.9930 C   0  0  0  0  0  0  0  0  0  0  0  0
    6.8090   -2.6410   19.5840 C   0  0  0  0  0  0  0  0  0  0  0  0
    6.2060   -2.2870   20.8940 C   0  0  0  0  0  0  0  0  0  0  0  0
    4.9170   -3.0150   21.1340 O   0  0  0  0  0  0  0  0  0  0  0  0
    7.2790   -1.1600   21.7050 C   0  0  2  0  0  0  0  0  0  0  0  0
    8.4450   -0.2880   21.0960 C   0  0  0  0  0  0  0  0  0  0  0  0
    8.0820   -1.8470   22.5250 C   0  0  0  0  0  0  0  0  0  0  0  0
    9.1080    0.6520   22.2320 C   0  0  0  0  0  0  0  0  0  0  0  0
    9.3110   -1.5480   23.1390 C   0  0  0  0  0  0  0  0  0  0  0  0
    7.6730   -2.9850   22.8090 C   0  0  0  0  0  0  0  0  0  0  0  0
   10.0720   -0.2830   22.9960 C   0  0  1  0  0  0  0  0  0  0  0  0
    9.8090   -2.8830   24.0990 S   0  0  0  0  0  0  0  0  0  0  0  0
    8.3700   -3.6800   23.5790 C   0  0  0  0  0  0  0  0  0  0  0  0
   11.2370   -0.5590   22.2310 O   0  0  0  0  0  0  0  0  0  0  0  0
    7.7730   -4.8450   23.7740 C   0  0  0  0  0  0  0  0  0  0  0  0
   12.4390   -0.6720   22.9880 C   0  0  0  0  0  0  0  0  0  0  0  0
    7.6470   -5.5030   22.5800 N   0  0  0  0  0  0  0  0  0  0  0  0
    7.2980   -5.2360   24.7930 O   0  0  0  0  0  0  0  0  0  0  0  0
   12.9690   -2.1100   22.8980 C   0  0  0  0  0  0  0  0  0  0  0  0
  1  2  1  0
  2  3  1  0
  3  4  2  0
  5  3  1  6
  5  6  1  0
  5  7  1  0
  6  8  1  0
  7  9  2  0
  7 10  1  0
  8 11  1  0
  9 11  1  0
  9 12  1  0
 10 13  2  0
 12 13  1  0
 11 14  1  6
 13 15  1  0
 14 16  1  0
 15 17  1  0
 15 18  2  0
 16 19  1  0
M  END
