DOU-UNK-b5326f8f-4
     RDKit          3D

 27 30  0  0  0  0  0  0  0  0999 V2000
    7.3180   -2.2870   18.8440 C   0  0  0  0  0  0  0  0  0  0  0  0
    7.0420   -2.5200   20.3270 C   0  0  0  0  0  0  0  0  0  0  0  0
    6.3900   -3.7920   20.6420 O   0  0  0  0  0  0  0  0  0  0  0  0
    7.3670   -1.5460   21.2750 N   0  0  0  0  0  0  0  0  0  0  0  0
    8.6490   -1.0890   21.5830 C   0  0  0  0  0  0  0  0  0  0  0  0
    6.6100   -1.5660   22.4780 C   0  0  2  0  0  0  0  0  0  0  0  0
    9.1720   -2.4280   22.0460 C   0  0  0  0  0  0  0  0  0  0  0  0
    7.1930   -2.4740   23.6230 C   0  0  2  0  0  0  0  0  0  0  0  0
    5.2930   -1.8800   22.1210 N   0  0  0  0  0  0  0  0  0  0  0  0
    8.6050   -2.8220   23.3590 N   0  0  0  0  0  0  0  0  0  0  0  0
    6.2240   -3.4530   23.6530 C   0  0  0  0  0  0  0  0  0  0  0  0
    5.3460   -3.2750   22.5800 C   0  0  0  0  0  0  0  0  0  0  0  0
    5.1520   -1.1340   20.7030 C   0  0  0  0  0  0  0  0  0  0  0  0
    9.6450   -2.8920   24.3990 C   0  0  2  0  0  0  0  0  0  0  0  0
    4.7400   -4.2490   22.2050 O   0  0  0  0  0  0  0  0  0  0  0  0
    5.6730   -1.7410   19.3990 C   0  0  0  0  0  0  0  0  0  0  0  0
    4.5750    0.2060   20.4590 C   0  0  0  0  0  0  0  0  0  0  0  0
    9.1350   -2.3680   25.6020 O   0  0  0  0  0  0  0  0  0  0  0  0
   10.8390   -2.0660   23.8840 C   0  0  0  0  0  0  0  0  0  0  0  0
    5.5800   -1.0070   18.1300 N   0  0  0  0  0  0  0  0  0  0  0  0
    4.5420    0.8080   19.1770 C   0  0  0  0  0  0  0  0  0  0  0  0
    4.0200    1.0220   21.4370 C   0  0  0  0  0  0  0  0  0  0  0  0
   10.3500   -0.8300   23.1430 C   0  0  0  0  0  0  0  0  0  0  0  0
   12.6230   -2.2920   23.9860 S   0  0  0  0  0  0  0  0  0  0  0  0
    5.0270    0.2320   18.0460 C   0  0  0  0  0  0  0  0  0  0  0  0
   11.6220   -0.1900   22.7050 C   0  0  0  0  0  0  0  0  0  0  0  0
   12.9300   -0.8100   23.0590 C   0  0  0  0  0  0  0  0  0  0  0  0
  1  2  1  0
  2  3  2  0
  2  4  1  0
  4  5  1  0
  6  4  1  6
  5  7  1  0
  6  8  1  0
  6  9  1  0
  7 10  1  0
  8 10  1  0
  8 11  1  6
  9 12  1  0
 11 12  1  0
  9 13  1  0
 10 14  1  0
 12 15  2  0
 13 16  2  0
 13 17  1  0
 14 18  1  1
 14 19  1  0
 16 20  1  0
 17 21  2  0
 17 22  1  0
 19 23  2  0
 19 24  1  0
 20 25  2  0
 21 25  1  0
 23 26  1  0
 24 27  1  0
 26 27  2  0
M  END
