DOU-UNK-b5326f8f-1-chloroacetamide
     RDKit          3D

 18 19  0  0  0  0  0  0  0  0999 V2000
    7.4560   -4.2420   20.7180 C   0  0  0  0  0  0  0  0  0  0  0  0
    6.7550   -2.9330   20.1500 C   0  0  0  0  0  0  0  0  0  0  0  0
    5.9390   -3.6780   19.5810 O   0  0  0  0  0  0  0  0  0  0  0  0
    7.8920   -2.3830   20.9900 C   0  0  1  0  0  0  0  0  0  0  0  0
    8.1040   -0.8390   20.8770 C   0  0  0  0  0  0  0  0  0  0  0  0
    7.5720   -2.6300   22.3100 C   0  0  0  0  0  0  0  0  0  0  0  0
    9.4440   -0.5570   21.6240 C   0  0  0  0  0  0  0  0  0  0  0  0
    8.1020   -1.8710   23.3040 C   0  0  0  0  0  0  0  0  0  0  0  0
    6.7460   -3.5570   22.8740 C   0  0  0  0  0  0  0  0  0  0  0  0
    9.0570   -0.7670   23.1000 C   0  0  1  0  0  0  0  0  0  0  0  0
    7.5780   -2.2770   24.8830 S   0  0  0  0  0  0  0  0  0  0  0  0
    6.6210   -3.5360   24.2440 C   0  0  0  0  0  0  0  0  0  0  0  0
    9.9640   -1.1110   23.8650 O   0  0  0  0  0  0  0  0  0  0  0  0
    5.8290   -4.4160   24.9560 C   0  0  0  0  0  0  0  0  0  0  0  0
   10.4030   -0.1930   24.7770 C   0  0  0  0  0  0  0  0  0  0  0  0
    6.4770   -5.2250   24.0520 N   0  0  0  0  0  0  0  0  0  0  0  0
    5.3070   -5.6220   25.2920 O   0  0  0  0  0  0  0  0  0  0  0  0
    9.3600    0.0840   25.8670 C   0  0  0  0  0  0  0  0  0  0  0  0
  1  2  1  0
  2  3  2  0
  4  2  1  6
  4  5  1  0
  4  6  1  0
  5  7  1  0
  6  8  2  0
  6  9  1  0
  7 10  1  0
  8 10  1  0
  8 11  1  0
  9 12  2  0
 11 12  1  0
 10 13  1  1
 12 14  1  0
 13 15  1  0
 14 16  1  0
 14 17  2  0
 15 18  1  0
M  END
