DRA-CSI-47e38074-2
     RDKit          3D

 16 17  0  0  0  0  0  0  0  0999 V2000
    6.0710   -2.0470   18.7550 C   0  0  0  0  0  0  0  0  0  0  0  0
    5.9290   -2.9390   19.9830 C   0  0  0  0  0  0  0  0  0  0  0  0
    5.4530   -4.0770   19.8460 O   0  0  0  0  0  0  0  0  0  0  0  0
    6.3730   -2.4690   21.1680 N   0  0  0  0  0  0  0  0  0  0  0  0
    7.2550   -1.4050   21.1390 C   0  0  0  0  0  0  0  0  0  0  0  0
    6.3920   -3.1650   22.3980 C   0  0  0  0  0  0  0  0  0  0  0  0
    8.1920   -1.3660   22.1550 C   0  0  0  0  0  0  0  0  0  0  0  0
    7.6870   -3.5970   22.7740 C   0  0  0  0  0  0  0  0  0  0  0  0
    8.6800   -2.5970   22.5820 C   0  0  0  0  0  0  0  0  0  0  0  0
    9.6200   -2.5770   23.7920 C   0  0  0  0  0  0  0  0  0  0  0  0
   10.7280   -1.5700   23.5310 C   0  0  0  0  0  0  0  0  0  0  0  0
   11.8180   -1.8670   22.6960 C   0  0  0  0  0  0  0  0  0  0  0  0
   10.6700   -0.3020   24.1350 C   0  0  0  0  0  0  0  0  0  0  0  0
   12.8200   -0.9240   22.4730 C   0  0  0  0  0  0  0  0  0  0  0  0
   11.6890    0.6330   23.8920 C   0  0  0  0  0  0  0  0  0  0  0  0
   12.7610    0.3270   23.0680 C   0  0  0  0  0  0  0  0  0  0  0  0
  1  2  1  0
  2  3  2  0
  2  4  1  0
  4  5  1  0
  4  6  1  0
  5  7  1  0
  6  8  1  0
  7  9  1  0
  8  9  1  0
  9 10  1  0
 10 11  1  0
 11 12  2  0
 11 13  1  0
 12 14  1  0
 13 15  2  0
 14 16  2  0
 15 16  1  0
M  END
