DRA-CSI-3ab97369-3
     RDKit          3D

 38 42  0  0  0  0  0  0  0  0999 V2000
    3.2320  -11.7960   17.5400 C   0  0  0  0  0  0  0  0  0  0  0  0
    2.7990  -10.5880   16.8110 O   0  0  0  0  0  0  0  0  0  0  0  0
    3.3820   -9.6110   17.4820 C   0  0  0  0  0  0  0  0  0  0  0  0
    2.6080   -9.5750   18.8090 C   0  0  0  0  0  0  0  0  0  0  0  0
    4.6410   -8.6450   17.1450 C   0  0  0  0  0  0  0  0  0  0  0  0
    3.0690   -8.6650   19.8810 C   0  0  0  0  0  0  0  0  0  0  0  0
    5.2640   -7.6310   18.2490 C   0  0  0  0  0  0  0  0  0  0  0  0
    4.6810   -7.5210   19.6450 C   0  0  0  0  0  0  0  0  0  0  0  0
    5.3430   -6.4920   20.7610 C   0  0  0  0  0  0  0  0  0  0  0  0
    6.2280   -6.7730   21.7910 N   0  0  0  0  0  0  0  0  0  0  0  0
    5.0310   -5.1060   20.7740 O   0  0  0  0  0  0  0  0  0  0  0  0
    6.4650   -5.5230   22.4210 C   0  0  0  0  0  0  0  0  0  0  0  0
    5.7540   -4.5340   21.8260 C   0  0  0  0  0  0  0  0  0  0  0  0
    7.3020   -5.3550   23.4850 C   0  0  0  0  0  0  0  0  0  0  0  0
    5.8120   -3.2100   22.2760 C   0  0  0  0  0  0  0  0  0  0  0  0
    7.4180   -4.0410   23.9950 C   0  0  0  0  0  0  0  0  0  0  0  0
    6.6690   -2.9740   23.3930 C   0  0  0  0  0  0  0  0  0  0  0  0
    6.7490   -1.7180   23.8700 N   0  0  0  0  0  0  0  0  0  0  0  0
    6.5740   -1.6420   25.2210 C   0  0  0  0  0  0  0  0  0  0  0  0
    5.8520   -2.5210   25.9640 O   0  0  0  0  0  0  0  0  0  0  0  0
    7.1480   -0.5880   26.1560 C   0  0  0  0  0  0  0  0  0  0  0  0
    6.8010   -0.8760   27.6120 C   0  0  0  0  0  0  0  0  0  0  0  0
    6.4300    0.7290   25.8170 C   0  0  0  0  0  0  0  0  0  0  0  0
    7.2920    0.2180   28.5410 C   0  0  0  0  0  0  0  0  0  0  0  0
    6.7390    1.8650   26.8200 C   0  0  0  0  0  0  0  0  0  0  0  0
    6.5410    1.4160   28.2190 N   0  0  0  0  0  0  0  0  0  0  0  0
    6.5640    2.6650   29.3800 S   0  0  0  0  0  0  0  0  0  0  0  0
    7.5580    2.2770   30.3540 O   0  0  0  0  0  0  0  0  0  0  0  0
    5.2010    2.9580   29.7710 O   0  0  0  0  0  0  0  0  0  0  0  0
    7.1730    4.0590   28.4690 C   0  0  0  0  0  0  0  0  0  0  0  0
    8.5270    3.9860   27.8530 C   0  0  0  0  0  0  0  0  0  0  0  0
    6.3970    5.2170   28.3260 C   0  0  0  0  0  0  0  0  0  0  0  0
    9.0960    5.1630   27.0560 C   0  0  0  0  0  0  0  0  0  0  0  0
    6.9100    6.4400   27.5360 C   0  0  0  0  0  0  0  0  0  0  0  0
    8.3030    6.4310   26.8720 C   0  0  0  0  0  0  0  0  0  0  0  0
    8.7430    7.5350   26.1680 N   0  0  0  0  0  0  0  0  0  0  0  0
    7.9770    8.0110   25.3180 O   0  0  0  0  0  0  0  0  0  0  0  0
    9.7870    8.0820   26.5550 O   0  0  0  0  0  0  0  0  0  0  0  0
  1  2  1  0
  2  3  1  0
  3  4  2  0
  3  5  1  0
  4  6  1  0
  5  7  2  0
  6  8  2  0
  7  8  1  0
  8  9  1  0
  9 10  2  0
  9 11  1  0
 10 12  1  0
 11 13  1  0
 12 13  2  0
 12 14  1  0
 13 15  1  0
 14 16  2  0
 15 17  2  0
 16 17  1  0
 17 18  1  0
 18 19  1  0
 19 20  2  0
 19 21  1  0
 21 22  1  0
 21 23  1  0
 22 24  1  0
 23 25  1  0
 24 26  1  0
 25 26  1  0
 26 27  1  0
 27 28  2  0
 27 29  2  0
 27 30  1  0
 30 31  2  0
 30 32  1  0
 31 33  1  0
 32 34  2  0
 33 35  2  0
 34 35  1  0
 35 36  1  0
 36 37  2  0
 36 38  1  0
M  CHG  2  36   1  38  -1
M  END
