DRA-CSI-0a78d9ba-6
     RDKit          3D

 35 39  0  0  0  0  0  0  0  0999 V2000
   16.2250   -8.2230   13.2310 C   0  0  0  0  0  0  0  0  0  0  0  0
   16.2320   -7.5040   14.4700 O   0  0  0  0  0  0  0  0  0  0  0  0
   15.0590   -7.0250   15.0180 C   0  0  0  0  0  0  0  0  0  0  0  0
   13.8360   -7.3610   14.7520 C   0  0  0  0  0  0  0  0  0  0  0  0
   15.2280   -6.0840   15.9430 C   0  0  0  0  0  0  0  0  0  0  0  0
   12.7270   -6.7820   15.3510 C   0  0  0  0  0  0  0  0  0  0  0  0
   14.2900   -5.4080   16.7160 C   0  0  0  0  0  0  0  0  0  0  0  0
   12.8280   -5.8430   16.3700 C   0  0  0  0  0  0  0  0  0  0  0  0
   15.9950   -4.9030   17.1170 Br  0  0  0  0  0  0  0  0  0  0  0  0
   11.3690   -5.3240   17.5980 C   0  0  0  0  0  0  0  0  0  0  0  0
    9.9740   -5.1500   17.4660 N   0  0  0  0  0  0  0  0  0  0  0  0
   11.6970   -4.9460   18.9680 O   0  0  0  0  0  0  0  0  0  0  0  0
    9.5360   -4.4160   18.5710 C   0  0  0  0  0  0  0  0  0  0  0  0
   10.5320   -4.3230   19.4760 C   0  0  0  0  0  0  0  0  0  0  0  0
    8.3110   -3.7220   18.8800 C   0  0  0  0  0  0  0  0  0  0  0  0
   10.3540   -3.5950   20.6710 C   0  0  0  0  0  0  0  0  0  0  0  0
    8.1090   -2.9980   20.0250 C   0  0  0  0  0  0  0  0  0  0  0  0
    9.1010   -2.9070   20.9400 C   0  0  0  0  0  0  0  0  0  0  0  0
    8.8860   -2.1500   22.0260 N   0  0  0  0  0  0  0  0  0  0  0  0
    7.5960   -2.0360   22.4410 C   0  0  0  0  0  0  0  0  0  0  0  0
    6.7310   -2.7350   21.9310 O   0  0  0  0  0  0  0  0  0  0  0  0
    7.2040   -1.0820   23.5560 C   0  0  0  0  0  0  0  0  0  0  0  0
    7.2150    0.3710   23.0620 C   0  0  0  0  0  0  0  0  0  0  0  0
    5.8200   -1.4160   24.1100 C   0  0  0  0  0  0  0  0  0  0  0  0
    6.7870    1.1910   24.2960 C   0  0  0  0  0  0  0  0  0  0  0  0
    5.5600   -0.5420   25.3230 C   0  0  0  0  0  0  0  0  0  0  0  0
    6.6290    0.4600   25.4540 N   0  0  0  0  0  0  0  0  0  0  0  0
    7.8900   -0.1560   25.9410 C   0  0  0  0  0  0  0  0  0  0  0  0
    9.1920    0.0810   25.1630 C   0  0  0  0  0  0  0  0  0  0  0  0
    9.5220    1.3600   24.6790 C   0  0  0  0  0  0  0  0  0  0  0  0
   10.0850   -0.9760   24.9210 C   0  0  0  0  0  0  0  0  0  0  0  0
   10.7190    1.5690   23.9840 C   0  0  0  0  0  0  0  0  0  0  0  0
   11.2750   -0.7570   24.2300 C   0  0  0  0  0  0  0  0  0  0  0  0
   11.5960    0.5160   23.7610 C   0  0  0  0  0  0  0  0  0  0  0  0
   12.8840    0.7320   23.0220 C   0  0  0  0  0  0  0  0  0  0  0  0
  1  2  1  0
  2  3  1  0
  3  4  2  0
  3  5  1  0
  4  6  1  0
  5  7  2  0
  6  8  2  0
  7  8  1  0
  7  9  1  0
  8 10  1  0
 10 11  2  0
 10 12  1  0
 11 13  1  0
 12 14  1  0
 13 14  2  0
 13 15  1  0
 14 16  1  0
 15 17  2  0
 16 18  2  0
 17 18  1  0
 18 19  1  0
 19 20  1  0
 20 21  2  0
 20 22  1  0
 22 23  1  0
 22 24  1  0
 23 25  1  0
 24 26  1  0
 25 27  1  0
 26 27  1  0
 27 28  1  0
 28 29  1  0
 29 30  2  0
 29 31  1  0
 30 32  1  0
 31 33  2  0
 32 34  2  0
 33 34  1  0
 34 35  1  0
M  END
