DRA-CSI-3ab97369-16
     RDKit          3D

 21 23  0  0  0  0  0  0  0  0999 V2000
    6.9510   -3.0910   27.0400 O   0  0  0  0  0  0  0  0  0  0  0  0
    6.3940   -2.4380   26.2090 C   0  0  0  0  0  0  0  0  0  0  0  0
    6.9880   -1.7670   25.1060 N   0  0  0  0  0  0  0  0  0  0  0  0
    4.9180   -2.2930   26.4070 C   0  0  0  0  0  0  0  0  0  0  0  0
    6.7930   -2.3900   23.8550 C   0  0  0  0  0  0  0  0  0  0  0  0
    4.3970   -3.1540   27.4060 C   0  0  0  0  0  0  0  0  0  0  0  0
    3.8890   -1.3830   25.7340 C   0  0  0  0  0  0  0  0  0  0  0  0
    6.2630   -3.5710   23.6090 N   0  0  0  0  0  0  0  0  0  0  0  0
    7.2730   -1.4710   22.5790 S   0  0  0  0  0  0  0  0  0  0  0  0
    3.0220   -3.1670   27.7550 C   0  0  0  0  0  0  0  0  0  0  0  0
    2.5610   -1.4310   26.1090 C   0  0  0  0  0  0  0  0  0  0  0  0
    6.1880   -3.7670   22.2430 N   0  0  0  0  0  0  0  0  0  0  0  0
    6.6720   -2.7030   21.6270 C   0  0  0  0  0  0  0  0  0  0  0  0
    2.1290   -2.3130   27.1100 C   0  0  0  0  0  0  0  0  0  0  0  0
    6.7600   -2.3990   20.1840 C   0  0  0  0  0  0  0  0  0  0  0  0
    0.8410   -2.3430   27.4620 F   0  0  0  0  0  0  0  0  0  0  0  0
    6.1910   -3.2380   19.1250 C   0  0  0  0  0  0  0  0  0  0  0  0
    7.5430   -0.9850   19.5280 S   0  0  0  0  0  0  0  0  0  0  0  0
    6.5340   -2.5680   17.8190 C   0  0  0  0  0  0  0  0  0  0  0  0
    7.2220   -1.3810   17.9190 C   0  0  0  0  0  0  0  0  0  0  0  0
    7.7060   -0.3850   16.3590 Br  0  0  0  0  0  0  0  0  0  0  0  0
  1  2  2  0
  2  3  1  0
  2  4  1  0
  3  5  1  0
  4  6  2  0
  4  7  1  0
  5  8  2  0
  5  9  1  0
  6 10  1  0
  7 11  2  0
  8 12  1  0
  9 13  1  0
 12 13  2  0
 10 14  2  0
 11 14  1  0
 13 15  1  0
 14 16  1  0
 15 17  2  0
 15 18  1  0
 17 19  1  0
 18 20  1  0
 19 20  2  0
 20 21  1  0
M  END
