DRA-CSI-3ab97369-5
     RDKit          3D

 39 43  0  0  0  0  0  0  0  0999 V2000
    7.3750   -8.8070   23.1130 C   0  0  0  0  0  0  0  0  0  0  0  0
    8.4530   -8.1540   23.6980 O   0  0  0  0  0  0  0  0  0  0  0  0
    8.0500   -7.0000   23.3710 C   0  0  0  0  0  0  0  0  0  0  0  0
    6.8240   -7.1410   22.5270 C   0  0  0  0  0  0  0  0  0  0  0  0
    8.6110   -5.8260   23.7090 C   0  0  0  0  0  0  0  0  0  0  0  0
    6.1330   -5.9660   21.9950 C   0  0  0  0  0  0  0  0  0  0  0  0
    8.0000   -4.6990   23.2320 C   0  0  0  0  0  0  0  0  0  0  0  0
    6.8390   -4.7380   22.4400 C   0  0  0  0  0  0  0  0  0  0  0  0
    8.8160   -3.0480   23.7080 Br  0  0  0  0  0  0  0  0  0  0  0  0
    6.4110   -3.4390   22.1760 C   0  0  0  0  0  0  0  0  0  0  0  0
    6.2160   -2.5670   21.1500 N   0  0  0  0  0  0  0  0  0  0  0  0
    6.1600   -3.0490   23.4160 O   0  0  0  0  0  0  0  0  0  0  0  0
    5.8020   -1.4770   21.9850 C   0  0  0  0  0  0  0  0  0  0  0  0
    5.7900   -1.8350   23.2910 C   0  0  0  0  0  0  0  0  0  0  0  0
    5.4600   -0.2330   21.5980 C   0  0  0  0  0  0  0  0  0  0  0  0
    5.4680   -1.0990   24.3250 C   0  0  0  0  0  0  0  0  0  0  0  0
    5.0930    0.6670   22.6620 C   0  0  0  0  0  0  0  0  0  0  0  0
    5.1130    0.1770   24.0370 C   0  0  0  0  0  0  0  0  0  0  0  0
    4.8340    0.7770   25.1870 N   0  0  0  0  0  0  0  0  0  0  0  0
    5.3700    0.0590   26.2290 C   0  0  0  0  0  0  0  0  0  0  0  0
    4.8870   -1.0900   26.7770 O   0  0  0  0  0  0  0  0  0  0  0  0
    6.6500    0.4310   26.9450 C   0  0  0  0  0  0  0  0  0  0  0  0
    6.8450   -0.3180   28.2580 C   0  0  0  0  0  0  0  0  0  0  0  0
    6.4100    1.8880   27.3210 C   0  0  0  0  0  0  0  0  0  0  0  0
    6.5880    0.5710   29.4700 C   0  0  0  0  0  0  0  0  0  0  0  0
    5.1410    2.0350   28.1730 C   0  0  0  0  0  0  0  0  0  0  0  0
    5.2580    1.1560   29.3570 N   0  0  0  0  0  0  0  0  0  0  0  0
    4.5710    1.7820   30.7890 S   0  0  0  0  0  0  0  0  0  0  0  0
    3.1520    1.5190   30.6930 O   0  0  0  0  0  0  0  0  0  0  0  0
    5.3450    1.3160   31.9200 O   0  0  0  0  0  0  0  0  0  0  0  0
    4.8360    3.5340   30.6490 C   0  0  0  0  0  0  0  0  0  0  0  0
    3.8140    4.3770   29.9670 C   0  0  0  0  0  0  0  0  0  0  0  0
    5.9950    4.1180   31.1750 C   0  0  0  0  0  0  0  0  0  0  0  0
    4.0120    5.8890   29.8280 C   0  0  0  0  0  0  0  0  0  0  0  0
    6.2550    5.6380   31.0680 C   0  0  0  0  0  0  0  0  0  0  0  0
    5.2400    6.5690   30.3740 C   0  0  0  0  0  0  0  0  0  0  0  0
    5.4840    7.9270   30.2840 N   0  0  0  0  0  0  0  0  0  0  0  0
    4.5360    8.6960   30.5010 O   0  0  0  0  0  0  0  0  0  0  0  0
    6.6200    8.2860   29.9460 O   0  0  0  0  0  0  0  0  0  0  0  0
  1  2  1  0
  2  3  1  0
  3  4  2  0
  3  5  1  0
  4  6  1  0
  5  7  2  0
  6  8  2  0
  7  8  1  0
  7  9  1  0
  8 10  1  0
 10 11  2  0
 10 12  1  0
 11 13  1  0
 12 14  1  0
 13 14  2  0
 13 15  1  0
 14 16  1  0
 15 17  2  0
 16 18  2  0
 17 18  1  0
 18 19  1  0
 19 20  1  0
 20 21  2  0
 20 22  1  0
 22 23  1  0
 22 24  1  0
 23 25  1  0
 24 26  1  0
 25 27  1  0
 26 27  1  0
 27 28  1  0
 28 29  2  0
 28 30  2  0
 28 31  1  0
 31 32  2  0
 31 33  1  0
 32 34  1  0
 33 35  2  0
 34 36  2  0
 35 36  1  0
 36 37  1  0
 37 38  2  0
 37 39  1  0
M  CHG  2  37   1  39  -1
M  END
