DRA-CSI-47e38074-3
     RDKit          3D

 17 18  0  0  0  0  0  0  0  0999 V2000
    6.9750   -1.0720   18.7790 C   0  0  0  0  0  0  0  0  0  0  0  0
    5.9870   -2.0930   18.8420 O   0  0  0  0  0  0  0  0  0  0  0  0
    5.8890   -2.8630   19.9750 C   0  0  0  0  0  0  0  0  0  0  0  0
    5.4150   -4.0020   19.8520 O   0  0  0  0  0  0  0  0  0  0  0  0
    6.3330   -2.4270   21.1790 N   0  0  0  0  0  0  0  0  0  0  0  0
    6.3420   -3.3450   22.2260 C   0  0  0  0  0  0  0  0  0  0  0  0
    7.2370   -1.3500   21.3550 C   0  0  0  0  0  0  0  0  0  0  0  0
    7.3780   -3.3040   23.1640 C   0  0  0  0  0  0  0  0  0  0  0  0
    8.4860   -1.8090   21.8030 C   0  0  0  0  0  0  0  0  0  0  0  0
    8.2780   -2.2320   23.1130 C   0  0  0  0  0  0  0  0  0  0  0  0
    9.5890   -2.4730   23.8590 C   0  0  0  0  0  0  0  0  0  0  0  0
   10.6610   -1.4420   23.5810 C   0  0  0  0  0  0  0  0  0  0  0  0
   10.6000   -0.1620   24.1550 C   0  0  0  0  0  0  0  0  0  0  0  0
   11.7450   -1.7610   22.7420 C   0  0  0  0  0  0  0  0  0  0  0  0
   11.5950    0.7750   23.8950 C   0  0  0  0  0  0  0  0  0  0  0  0
   12.7410   -0.8020   22.4940 C   0  0  0  0  0  0  0  0  0  0  0  0
   12.6670    0.4640   23.0710 C   0  0  0  0  0  0  0  0  0  0  0  0
  1  2  1  0
  2  3  1  0
  3  4  2  0
  3  5  1  0
  5  6  1  0
  5  7  1  0
  6  8  1  0
  7  9  1  0
  8 10  1  0
  9 10  1  0
 10 11  1  0
 11 12  1  0
 12 13  2  0
 12 14  1  0
 13 15  1  0
 14 16  2  0
 15 17  2  0
 16 17  1  0
M  END
