DRA-CSI-47e38074-1
     RDKit          3D

 13 14  0  0  0  0  0  0  0  0999 V2000
   12.8110    0.3430   23.1140 C   0  0  0  0  0  0  0  0  0  0  0  0
   11.6430    0.6730   24.0150 C   0  0  0  0  0  0  0  0  0  0  0  0
   10.6370   -0.2570   24.2040 C   0  0  0  0  0  0  0  0  0  0  0  0
   12.7690   -0.9180   22.5280 C   0  0  0  0  0  0  0  0  0  0  0  0
   11.7130   -1.8150   22.7600 C   0  0  0  0  0  0  0  0  0  0  0  0
   10.6150   -1.5160   23.6010 C   0  0  0  0  0  0  0  0  0  0  0  0
    9.5740   -2.4160   23.8220 C   0  0  0  0  0  0  0  0  0  0  0  0
    8.3990   -2.2500   23.1760 N   0  0  0  0  0  0  0  0  0  0  0  0
    7.5890   -3.3250   23.1000 C   0  0  0  0  0  0  0  0  0  0  0  0
    8.5500   -1.6540   21.8930 C   0  0  0  0  0  0  0  0  0  0  0  0
    6.2360   -2.9470   22.5480 C   0  0  0  0  0  0  0  0  0  0  0  0
    7.3170   -1.2840   21.3450 C   0  0  0  0  0  0  0  0  0  0  0  0
    6.5290   -2.3800   21.2710 N   0  0  0  0  0  0  0  0  0  0  0  0
  1  2  2  0
  2  3  1  0
  1  4  1  0
  4  5  2  0
  3  6  2  0
  5  6  1  0
  6  7  1  0
  7  8  1  0
  8  9  1  0
  8 10  1  0
  9 11  1  0
 10 12  1  0
 11 13  1  0
 12 13  1  0
M  END
