DRA-CSI-3ab97369-17
     RDKit          3D

 19 21  0  0  0  0  0  0  0  0999 V2000
    5.9070    0.3650   18.2100 Br  0  0  0  0  0  0  0  0  0  0  0  0
    6.2420   -1.2630   19.1440 C   0  0  0  0  0  0  0  0  0  0  0  0
    5.3780   -2.4820   19.0730 C   0  0  0  0  0  0  0  0  0  0  0  0
    7.5630   -1.4860   20.1890 S   0  0  0  0  0  0  0  0  0  0  0  0
    5.8710   -3.5580   19.9670 C   0  0  0  0  0  0  0  0  0  0  0  0
    7.1020   -3.0770   20.6600 C   0  0  0  0  0  0  0  0  0  0  0  0
    7.7820   -3.9240   21.6890 C   0  0  0  0  0  0  0  0  0  0  0  0
    8.1930   -4.2900   22.9720 N   0  0  0  0  0  0  0  0  0  0  0  0
    6.8600   -2.4660   22.1460 S   0  0  0  0  0  0  0  0  0  0  0  0
    7.9160   -3.6020   24.1320 N   0  0  0  0  0  0  0  0  0  0  0  0
    7.1340   -2.4710   23.8010 C   0  0  0  0  0  0  0  0  0  0  0  0
    6.6910   -1.5320   24.6040 N   0  0  0  0  0  0  0  0  0  0  0  0
    6.5240   -1.8120   26.0070 C   0  0  0  0  0  0  0  0  0  0  0  0
    5.2420   -2.0860   26.4380 C   0  0  0  0  0  0  0  0  0  0  0  0
    4.7990   -3.0200   27.4110 C   0  0  0  0  0  0  0  0  0  0  0  0
    4.0620   -1.3030   25.8220 C   0  0  0  0  0  0  0  0  0  0  0  0
    3.4410   -3.2030   27.7740 C   0  0  0  0  0  0  0  0  0  0  0  0
    2.7360   -1.5200   26.2130 C   0  0  0  0  0  0  0  0  0  0  0  0
    2.4080   -2.4690   27.1930 C   0  0  0  0  0  0  0  0  0  0  0  0
  1  2  1  0
  2  3  2  0
  2  4  1  0
  3  5  1  0
  4  6  1  0
  5  6  2  0
  6  7  1  0
  7  8  2  0
  7  9  1  0
  8 10  1  0
  9 11  1  0
 10 11  2  0
 11 12  1  0
 12 13  1  0
 13 14  1  0
 14 15  2  0
 14 16  1  0
 15 17  1  0
 16 18  2  0
 17 19  2  0
 18 19  1  0
M  END
