DRA-CSI-0a78d9ba-8
     RDKit          3D

 38 42  0  0  0  0  0  0  0  0999 V2000
   12.4290    4.4840   21.5200 C   0  0  0  0  0  0  0  0  0  0  0  0
   12.3300    3.8100   22.8780 C   0  0  0  0  0  0  0  0  0  0  0  0
   11.4920    2.6890   23.0190 C   0  0  0  0  0  0  0  0  0  0  0  0
   12.0810    1.4200   23.1720 C   0  0  0  0  0  0  0  0  0  0  0  0
   11.3060    0.2840   23.3650 C   0  0  0  0  0  0  0  0  0  0  0  0
   10.1840    0.2770   24.3990 C   0  0  0  0  0  0  0  0  0  0  0  0
   11.5540   -0.8710   22.6110 C   0  0  0  0  0  0  0  0  0  0  0  0
    9.4320   -1.0320   24.4940 C   0  0  0  0  0  0  0  0  0  0  0  0
   10.8010   -2.0380   22.7660 C   0  0  0  0  0  0  0  0  0  0  0  0
    9.7470   -2.1400   23.6890 C   0  0  0  0  0  0  0  0  0  0  0  0
    9.0580   -3.3640   23.7580 C   0  0  0  0  0  0  0  0  0  0  0  0
    7.7250   -3.3880   24.4040 N   0  0  0  0  0  0  0  0  0  0  0  0
    6.9010   -4.4610   23.8260 C   0  0  0  0  0  0  0  0  0  0  0  0
    7.0220   -2.1010   24.4770 C   0  0  0  0  0  0  0  0  0  0  0  0
    6.3670   -4.0680   22.5980 C   0  0  0  0  0  0  0  0  0  0  0  0
    6.5370   -1.6150   23.1170 C   0  0  0  0  0  0  0  0  0  0  0  0
    6.7880   -2.6950   22.0640 C   0  0  0  0  0  0  0  0  0  0  0  0
    6.1270   -2.2890   20.7440 C   0  0  0  0  0  0  0  0  0  0  0  0
    5.1090   -2.8570   20.3280 O   0  0  0  0  0  0  0  0  0  0  0  0
    6.6530   -1.2980   19.9620 N   0  0  0  0  0  0  0  0  0  0  0  0
    6.8480   -1.1220   18.5820 C   0  0  0  0  0  0  0  0  0  0  0  0
    7.4550   -0.0370   17.9880 C   0  0  0  0  0  0  0  0  0  0  0  0
    6.3680   -2.1320   17.7670 C   0  0  0  0  0  0  0  0  0  0  0  0
    7.6250    0.0780   16.4930 C   0  0  0  0  0  0  0  0  0  0  0  0
    6.5090   -1.9650   16.3960 C   0  0  0  0  0  0  0  0  0  0  0  0
    7.0810   -0.9520   15.7590 C   0  0  0  0  0  0  0  0  0  0  0  0
    6.0420   -2.7950   15.4540 O   0  0  0  0  0  0  0  0  0  0  0  0
    6.9520   -1.1660   14.4290 N   0  0  0  0  0  0  0  0  0  0  0  0
    6.1840   -2.2590   14.2420 C   0  0  0  0  0  0  0  0  0  0  0  0
    5.4360   -2.7880   13.0120 C   0  0  0  0  0  0  0  0  0  0  0  0
    5.8750   -2.6200   11.9150 C   0  0  0  0  0  0  0  0  0  0  0  0
    4.2690   -3.4350   12.5120 C   0  0  0  0  0  0  0  0  0  0  0  0
    5.5900   -2.9830   10.7370 C   0  0  0  0  0  0  0  0  0  0  0  0
    4.1030   -3.7160   11.5790 C   0  0  0  0  0  0  0  0  0  0  0  0
    2.5400   -4.2900   12.8440 Br  0  0  0  0  0  0  0  0  0  0  0  0
    4.8490   -3.5780   10.5800 C   0  0  0  0  0  0  0  0  0  0  0  0
    4.9560   -4.1710    9.3180 O   0  0  0  0  0  0  0  0  0  0  0  0
    6.3480   -5.0640    8.8170 C   0  0  0  0  0  0  0  0  0  0  0  0
  1  2  1  0
  2  3  1  0
  3  4  1  0
  4  5  1  0
  5  6  2  0
  5  7  1  0
  6  8  1  0
  7  9  2  0
  8 10  2  0
  9 10  1  0
 10 11  1  0
 11 12  1  0
 12 13  1  0
 12 14  1  0
 13 15  1  0
 14 16  1  0
 15 17  1  0
 16 17  1  0
 17 18  1  0
 18 19  2  0
 18 20  1  0
 20 21  1  0
 21 22  2  0
 21 23  1  0
 22 24  1  0
 23 25  2  0
 24 26  2  0
 25 26  1  0
 25 27  1  0
 26 28  1  0
 27 29  1  0
 28 29  2  0
 29 30  1  0
 30 31  2  0
 30 32  1  0
 31 33  1  0
 32 34  2  0
 32 35  1  0
 33 36  2  0
 34 36  1  0
 36 37  1  0
 37 38  1  0
M  END
