DRA-CSI-47e38074-16
     RDKit          3D

 18 19  0  0  0  0  0  0  0  0999 V2000
    7.4910   -1.7530   17.8110 C   0  0  0  0  0  0  0  0  0  0  0  0
    6.9070   -1.6800   19.1570 C   0  0  0  0  0  0  0  0  0  0  0  0
    5.7740   -2.3170   19.3240 N   0  0  0  0  0  0  0  0  0  0  0  0
    5.7900   -3.2420   20.3340 C   0  0  0  0  0  0  0  0  0  0  0  0
    5.3790   -4.4980   20.0500 N   0  0  0  0  0  0  0  0  0  0  0  0
    6.2710   -2.7850   21.6550 N   0  0  0  0  0  0  0  0  0  0  0  0
    6.9050   -1.4360   21.7040 C   0  0  0  0  0  0  0  0  0  0  0  0
    6.7120   -3.7440   22.6730 C   0  0  0  0  0  0  0  0  0  0  0  0
    8.2400   -1.4380   22.1250 C   0  0  0  0  0  0  0  0  0  0  0  0
    7.5510   -3.1500   23.6330 C   0  0  0  0  0  0  0  0  0  0  0  0
    8.6840   -2.5790   23.0310 C   0  0  0  0  0  0  0  0  0  0  0  0
    9.7490   -2.2360   24.0530 C   0  0  0  0  0  0  0  0  0  0  0  0
   10.7190   -1.2700   23.7400 C   0  0  0  0  0  0  0  0  0  0  0  0
   10.7280    0.0500   24.1840 C   0  0  0  0  0  0  0  0  0  0  0  0
   11.7820   -1.6450   22.9210 C   0  0  0  0  0  0  0  0  0  0  0  0
   11.7380    0.9440   23.8320 C   0  0  0  0  0  0  0  0  0  0  0  0
   12.7990   -0.7650   22.5600 C   0  0  0  0  0  0  0  0  0  0  0  0
   12.7780    0.5400   23.0210 C   0  0  0  0  0  0  0  0  0  0  0  0
  1  2  1  0
  2  3  1  0
  3  4  1  0
  4  5  2  3
  4  6  1  0
  6  7  1  0
  6  8  1  0
  7  9  1  0
  8 10  1  0
  9 11  1  0
 10 11  1  0
 11 12  1  0
 12 13  1  0
 13 14  2  0
 13 15  1  0
 14 16  1  0
 15 17  2  0
 16 18  2  0
 17 18  1  0
M  END
