DRA-CSI-0a78d9ba-12
     RDKit          3D

 36 40  0  0  0  0  0  0  0  0999 V2000
    3.7500   -3.3410   11.9910 C   0  0  0  0  0  0  0  0  0  0  0  0
    2.9210   -4.3670   12.1650 O   0  0  0  0  0  0  0  0  0  0  0  0
    3.0240   -5.2330   13.1190 C   0  0  0  0  0  0  0  0  0  0  0  0
    4.1960   -6.6130   13.3360 C   0  0  0  0  0  0  0  0  0  0  0  0
    1.6830   -4.9190   14.2090 C   0  0  0  0  0  0  0  0  0  0  0  0
    4.3650   -7.6880   14.3790 C   0  0  0  0  0  0  0  0  0  0  0  0
    1.6340   -6.0060   15.6940 C   0  0  0  0  0  0  0  0  0  0  0  0
    3.5220   -7.8060   15.5500 C   0  0  0  0  0  0  0  0  0  0  0  0
    0.2110   -4.9920   16.5920 Br  0  0  0  0  0  0  0  0  0  0  0  0
    3.9080   -8.7530   17.1260 C   0  0  0  0  0  0  0  0  0  0  0  0
    5.0360   -7.9720   17.8400 N   0  0  0  0  0  0  0  0  0  0  0  0
    2.8100   -9.3940   18.0580 O   0  0  0  0  0  0  0  0  0  0  0  0
    4.5960   -7.7500   19.4040 C   0  0  0  0  0  0  0  0  0  0  0  0
    3.0440   -8.6890   19.5410 C   0  0  0  0  0  0  0  0  0  0  0  0
    5.1350   -6.8900   20.7320 C   0  0  0  0  0  0  0  0  0  0  0  0
    2.2510   -8.5880   20.9350 C   0  0  0  0  0  0  0  0  0  0  0  0
    4.2340   -6.8190   22.0390 C   0  0  0  0  0  0  0  0  0  0  0  0
    2.8280   -7.6110   22.1600 C   0  0  0  0  0  0  0  0  0  0  0  0
    2.2170   -7.4370   23.3260 N   0  0  0  0  0  0  0  0  0  0  0  0
    3.1760   -7.3610   24.2970 C   0  0  0  0  0  0  0  0  0  0  0  0
    3.3220   -8.3490   25.0070 O   0  0  0  0  0  0  0  0  0  0  0  0
    4.1350   -6.1700   24.5610 C   0  0  0  0  0  0  0  0  0  0  0  0
    5.5800   -6.5700   24.2150 C   0  0  0  0  0  0  0  0  0  0  0  0
    3.8000   -4.9010   23.7540 C   0  0  0  0  0  0  0  0  0  0  0  0
    6.3990   -5.3960   24.7680 C   0  0  0  0  0  0  0  0  0  0  0  0
    5.0730   -4.2090   23.1910 C   0  0  0  0  0  0  0  0  0  0  0  0
    6.2570   -4.2080   24.0910 N   0  0  0  0  0  0  0  0  0  0  0  0
    7.5350   -3.8010   23.4320 C   0  0  0  0  0  0  0  0  0  0  0  0
    8.0500   -2.3880   23.7300 C   0  0  0  0  0  0  0  0  0  0  0  0
    7.2930   -1.5260   24.1810 O   0  0  0  0  0  0  0  0  0  0  0  0
    9.4060   -2.0390   23.4890 C   0  0  0  0  0  0  0  0  0  0  0  0
   10.1200   -1.3400   24.4830 C   0  0  0  0  0  0  0  0  0  0  0  0
   10.0580   -2.3690   22.2830 C   0  0  0  0  0  0  0  0  0  0  0  0
   11.4530   -0.9770   24.2940 C   0  0  0  0  0  0  0  0  0  0  0  0
   11.3970   -2.0250   22.0420 C   0  0  0  0  0  0  0  0  0  0  0  0
   12.1260   -1.3390   23.0030 C   0  0  0  0  0  0  0  0  0  0  0  0
  1  2  1  0
  2  3  1  0
  3  4  2  0
  3  5  1  0
  4  6  1  0
  5  7  2  0
  6  8  2  0
  7  8  1  0
  7  9  1  0
  8 10  1  0
 10 11  2  0
 10 12  1  0
 11 13  1  0
 12 14  1  0
 13 14  2  0
 13 15  1  0
 14 16  1  0
 15 17  2  0
 16 18  2  0
 17 18  1  0
 18 19  1  0
 19 20  1  0
 20 21  2  0
 20 22  1  0
 22 23  1  0
 22 24  1  0
 23 25  1  0
 24 26  1  0
 25 27  1  0
 26 27  1  0
 27 28  1  0
 28 29  1  0
 29 30  2  0
 29 31  1  0
 31 32  2  0
 31 33  1  0
 32 34  1  0
 33 35  2  0
 34 36  2  0
 35 36  1  0
M  END
