DRA-CSI-0a78d9ba-2
     RDKit          3D

 34 38  0  0  0  0  0  0  0  0999 V2000
   15.0560    2.4060   10.4390 C   0  0  0  0  0  0  0  0  0  0  0  0
   14.1920    1.5230    9.8010 O   0  0  0  0  0  0  0  0  0  0  0  0
   13.1760    1.4150   10.6300 C   0  0  0  0  0  0  0  0  0  0  0  0
   12.2500    2.1200   10.9380 C   0  0  0  0  0  0  0  0  0  0  0  0
   13.0290    0.4820   11.3120 C   0  0  0  0  0  0  0  0  0  0  0  0
   11.2670    1.8660   11.8410 C   0  0  0  0  0  0  0  0  0  0  0  0
   11.9130    0.3530   12.3220 C   0  0  0  0  0  0  0  0  0  0  0  0
   10.9580    0.9770   12.7140 C   0  0  0  0  0  0  0  0  0  0  0  0
    9.9000    0.5020   14.0370 C   0  0  0  0  0  0  0  0  0  0  0  0
    9.9280   -0.4990   14.7510 N   0  0  0  0  0  0  0  0  0  0  0  0
    8.7740    1.1510   14.6450 O   0  0  0  0  0  0  0  0  0  0  0  0
    8.8460   -0.6140   15.6560 C   0  0  0  0  0  0  0  0  0  0  0  0
    8.1650    0.4630   15.6040 C   0  0  0  0  0  0  0  0  0  0  0  0
    8.3790   -1.5910   16.5450 C   0  0  0  0  0  0  0  0  0  0  0  0
    7.0540    0.7770   16.3810 C   0  0  0  0  0  0  0  0  0  0  0  0
    7.2820   -1.3660   17.3310 C   0  0  0  0  0  0  0  0  0  0  0  0
    6.6160   -0.1900   17.2750 C   0  0  0  0  0  0  0  0  0  0  0  0
    5.5640   -0.0060   18.0670 N   0  0  0  0  0  0  0  0  0  0  0  0
    5.5750   -0.9400   19.0550 C   0  0  0  0  0  0  0  0  0  0  0  0
    4.9920   -2.0050   18.8630 O   0  0  0  0  0  0  0  0  0  0  0  0
    6.3240   -0.7760   20.3760 C   0  0  0  0  0  0  0  0  0  0  0  0
    6.6340    0.6880   20.7040 C   0  0  0  0  0  0  0  0  0  0  0  0
    5.4740   -1.3190   21.5280 C   0  0  0  0  0  0  0  0  0  0  0  0
    7.4560    0.5430   21.9940 C   0  0  0  0  0  0  0  0  0  0  0  0
    6.1720   -1.2450   22.8790 C   0  0  0  0  0  0  0  0  0  0  0  0
    6.7360    0.0930   23.0860 N   0  0  0  0  0  0  0  0  0  0  0  0
    7.5340    0.1060   24.3240 C   0  0  0  0  0  0  0  0  0  0  0  0
    8.9070   -0.5280   24.2310 C   0  0  0  0  0  0  0  0  0  0  0  0
    9.1450   -1.5820   23.3230 C   0  0  0  0  0  0  0  0  0  0  0  0
    9.9600   -0.0840   25.0390 C   0  0  0  0  0  0  0  0  0  0  0  0
   10.4100   -2.1650   23.2350 C   0  0  0  0  0  0  0  0  0  0  0  0
   11.2140   -0.6720   24.9440 C   0  0  0  0  0  0  0  0  0  0  0  0
   11.4320   -1.7020   24.0510 C   0  0  0  0  0  0  0  0  0  0  0  0
   13.1490   -2.4500   23.9770 Br  0  0  0  0  0  0  0  0  0  0  0  0
  1  2  1  0
  2  3  1  0
  3  4  2  0
  3  5  1  0
  4  6  1  0
  5  7  2  0
  6  8  2  0
  7  8  1  0
  8  9  1  0
  9 10  2  0
  9 11  1  0
 10 12  1  0
 11 13  1  0
 12 13  2  0
 12 14  1  0
 13 15  1  0
 14 16  2  0
 15 17  2  0
 16 17  1  0
 17 18  1  0
 18 19  1  0
 19 20  2  0
 19 21  1  0
 21 22  1  0
 21 23  1  0
 22 24  1  0
 23 25  1  0
 24 26  1  0
 25 26  1  0
 26 27  1  0
 27 28  1  0
 28 29  2  0
 28 30  1  0
 29 31  1  0
 30 32  2  0
 31 33  2  0
 32 33  1  0
 33 34  1  0
M  END
