DRA-CSI-7ec17797-14-bromoalkyne
     RDKit          3D

 36 40  0  0  0  0  0  0  0  0999 V2000
    7.6710   -2.9780   19.5860 C   0  0  0  0  0  0  0  0  0  0  0  0
    6.1870   -2.9110   19.1440 C   0  0  0  0  0  0  0  0  0  0  0  0
    8.0120   -2.6070   20.9740 C   0  0  0  0  0  0  0  0  0  0  0  0
    8.0670   -1.0600   21.0550 C   0  0  0  0  0  0  0  0  0  0  0  0
    8.2250   -3.6870   21.9440 C   0  0  0  0  0  0  0  0  0  0  0  0
    8.4050   -0.5640   22.4020 C   0  0  0  0  0  0  0  0  0  0  0  0
    8.5290   -2.9610   23.1460 C   0  0  0  0  0  0  0  0  0  0  0  0
    8.6190   -1.5980   23.4070 C   0  0  0  0  0  0  0  0  0  0  0  0
    8.9190   -1.1400   24.6810 C   0  0  0  0  0  0  0  0  0  0  0  0
   10.0800   -1.1910   25.0690 O   0  0  0  0  0  0  0  0  0  0  0  0
    7.8420   -0.6310   25.4080 N   0  0  0  0  0  0  0  0  0  0  0  0
    7.1590    0.4490   24.7120 C   0  0  0  0  0  0  0  0  0  0  0  0
    6.9360   -1.5190   26.1480 C   0  0  0  0  0  0  0  0  0  0  0  0
    6.2200   -0.0410   23.8150 C   0  0  0  0  0  0  0  0  0  0  0  0
    5.4670   -1.2270   25.8660 C   0  0  0  0  0  0  0  0  0  0  0  0
    5.1950   -0.9980   24.3680 C   0  0  0  0  0  0  0  0  0  0  0  0
    5.0110   -2.2620   23.7620 C   0  0  0  0  0  0  0  0  0  0  0  0
    3.8020   -2.9740   24.0810 O   0  0  0  0  0  0  0  0  0  0  0  0
    5.9940   -2.7540   22.8970 N   0  0  0  0  0  0  0  0  0  0  0  0
    5.7980   -3.9620   22.1720 C   0  0  0  0  0  0  0  0  0  0  0  0
    5.3590   -5.1070   23.0730 C   0  0  0  0  0  0  0  0  0  0  0  0
    5.9680   -4.1120   20.7790 C   0  0  0  0  0  0  0  0  0  0  0  0
    5.1050   -6.3600   22.2520 C   0  0  0  0  0  0  0  0  0  0  0  0
    5.7010   -5.3580   20.1710 C   0  0  0  0  0  0  0  0  0  0  0  0
    5.2800   -6.3990   20.8210 C   0  0  0  0  0  0  0  0  0  0  0  0
    5.7770   -5.7850   18.8380 O   0  0  0  0  0  0  0  0  0  0  0  0
    5.0340   -7.4000   19.8590 N   0  0  0  0  0  0  0  0  0  0  0  0
    5.3400   -7.1300   18.5940 C   0  0  0  0  0  0  0  0  0  0  0  0
    5.2770   -7.6540   16.9310 C   0  0  0  0  0  0  0  0  0  0  0  0
    6.1090   -7.7940   16.3750 C   0  0  0  0  0  0  0  0  0  0  0  0
    4.2260   -7.8490   15.6980 C   0  0  0  0  0  0  0  0  0  0  0  0
    6.0680   -7.9070   15.0560 C   0  0  0  0  0  0  0  0  0  0  0  0
    4.3380   -7.9910   14.3960 C   0  0  0  0  0  0  0  0  0  0  0  0
    5.1640   -8.0080   13.9450 C   0  0  0  0  0  0  0  0  0  0  0  0
    5.2510   -8.2990   12.6060 O   0  0  0  0  0  0  0  0  0  0  0  0
    5.6750   -9.6740   11.8300 C   0  0  0  0  0  0  0  0  0  0  0  0
  1  2  2  3
  1  3  1  0
  3  4  2  0
  3  5  1  0
  4  6  1  0
  5  7  2  0
  6  8  2  0
  7  8  1  0
  8  9  1  0
  9 10  2  0
  9 11  1  0
 11 12  1  0
 11 13  1  0
 12 14  1  0
 13 15  1  0
 14 16  1  0
 15 16  1  0
 16 17  1  0
 17 18  2  0
 17 19  1  0
 19 20  1  0
 20 21  2  0
 20 22  1  0
 21 23  1  0
 22 24  2  0
 23 25  2  0
 24 25  1  0
 24 26  1  0
 25 27  1  0
 26 28  1  0
 27 28  2  0
 28 29  1  0
 29 30  2  0
 29 31  1  0
 30 32  1  0
 31 33  2  0
 32 34  2  0
 33 34  1  0
 34 35  1  0
 35 36  1  0
M  END
