DRA-CSI-0a78d9ba-5
     RDKit          3D

 34 38  0  0  0  0  0  0  0  0999 V2000
    2.6230    8.6310   14.5290 C   0  0  0  0  0  0  0  0  0  0  0  0
    1.6370    7.9790   15.3160 O   0  0  0  0  0  0  0  0  0  0  0  0
    2.0940    6.8800   16.0000 C   0  0  0  0  0  0  0  0  0  0  0  0
    1.6590    6.4320   17.2520 C   0  0  0  0  0  0  0  0  0  0  0  0
    3.0940    6.1640   15.3470 C   0  0  0  0  0  0  0  0  0  0  0  0
    2.2480    5.2930   17.7980 C   0  0  0  0  0  0  0  0  0  0  0  0
    3.6710    5.0150   15.9200 C   0  0  0  0  0  0  0  0  0  0  0  0
    3.2520    4.5460   17.1890 C   0  0  0  0  0  0  0  0  0  0  0  0
    5.0080    4.2580   14.7910 Br  0  0  0  0  0  0  0  0  0  0  0  0
    3.8030    3.2930   17.9320 C   0  0  0  0  0  0  0  0  0  0  0  0
    3.5310    2.8810   19.1570 N   0  0  0  0  0  0  0  0  0  0  0  0
    4.6590    2.4330   17.2440 O   0  0  0  0  0  0  0  0  0  0  0  0
    4.1760    1.6830   19.2600 C   0  0  0  0  0  0  0  0  0  0  0  0
    4.8520    1.3980   18.1040 C   0  0  0  0  0  0  0  0  0  0  0  0
    4.2480    0.7520   20.2860 C   0  0  0  0  0  0  0  0  0  0  0  0
    5.5860    0.2340   17.8840 C   0  0  0  0  0  0  0  0  0  0  0  0
    4.9590   -0.4360   20.1160 C   0  0  0  0  0  0  0  0  0  0  0  0
    5.6220   -0.7180   18.9250 C   0  0  0  0  0  0  0  0  0  0  0  0
    6.2930   -1.8770   18.7320 N   0  0  0  0  0  0  0  0  0  0  0  0
    6.2110   -2.8290   19.7050 C   0  0  0  0  0  0  0  0  0  0  0  0
    5.4350   -3.7890   19.5770 O   0  0  0  0  0  0  0  0  0  0  0  0
    7.1430   -2.7780   20.8970 C   0  0  0  0  0  0  0  0  0  0  0  0
    7.5860   -1.3480   21.1570 C   0  0  0  0  0  0  0  0  0  0  0  0
    6.5640   -3.2930   22.2140 C   0  0  0  0  0  0  0  0  0  0  0  0
    8.7820   -1.6200   22.0530 C   0  0  0  0  0  0  0  0  0  0  0  0
    7.6740   -3.3790   23.2660 C   0  0  0  0  0  0  0  0  0  0  0  0
    8.4450   -2.1210   23.2900 N   0  0  0  0  0  0  0  0  0  0  0  0
    9.6420   -2.2380   24.1130 C   0  0  0  0  0  0  0  0  0  0  0  0
   10.8020   -1.3710   23.6930 C   0  0  0  0  0  0  0  0  0  0  0  0
   10.8110   -0.0630   24.1830 C   0  0  0  0  0  0  0  0  0  0  0  0
   11.8450   -1.8000   22.8520 C   0  0  0  0  0  0  0  0  0  0  0  0
   11.8340    0.8120   23.8480 C   0  0  0  0  0  0  0  0  0  0  0  0
   12.8720   -0.9180   22.5180 C   0  0  0  0  0  0  0  0  0  0  0  0
   12.8630    0.3860   23.0180 C   0  0  0  0  0  0  0  0  0  0  0  0
  1  2  1  0
  2  3  1  0
  3  4  2  0
  3  5  1  0
  4  6  1  0
  5  7  2  0
  6  8  2  0
  7  8  1  0
  7  9  1  0
  8 10  1  0
 10 11  2  0
 10 12  1  0
 11 13  1  0
 12 14  1  0
 13 14  2  0
 13 15  1  0
 14 16  1  0
 15 17  2  0
 16 18  2  0
 17 18  1  0
 18 19  1  0
 19 20  1  0
 20 21  2  0
 20 22  1  0
 22 23  1  0
 22 24  1  0
 23 25  1  0
 24 26  1  0
 25 27  1  0
 26 27  1  0
 27 28  1  0
 28 29  1  0
 29 30  2  0
 29 31  1  0
 30 32  1  0
 31 33  2  0
 32 34  2  0
 33 34  1  0
M  END
