DRA-CSI-13f611db-2
     RDKit          3D

 20 22  0  0  0  0  0  0  0  0999 V2000
    9.0090    1.2240   22.5080 O   0  0  0  0  0  0  0  0  0  0  0  0
   10.2230    1.2400   22.6240 C   0  0  0  0  0  0  0  0  0  0  0  0
   11.0180    0.1410   22.7380 N   0  0  0  0  0  0  0  0  0  0  0  0
   10.9240    2.6050   22.6280 C   0  0  0  0  0  0  0  0  0  0  0  0
   10.2840   -0.9340   23.1260 C   0  0  0  0  0  0  0  0  0  0  0  0
   12.4410    2.6880   22.7810 C   0  0  0  0  0  0  0  0  0  0  0  0
   10.2590    3.8370   22.4950 C   0  0  0  0  0  0  0  0  0  0  0  0
    9.3320   -1.5940   22.5050 N   0  0  0  0  0  0  0  0  0  0  0  0
   10.6610   -1.5120   24.6850 S   0  0  0  0  0  0  0  0  0  0  0  0
   13.0920    3.9390   22.7800 C   0  0  0  0  0  0  0  0  0  0  0  0
   11.0040    5.0150   22.5150 C   0  0  0  0  0  0  0  0  0  0  0  0
    8.8380   -2.6130   23.2690 N   0  0  0  0  0  0  0  0  0  0  0  0
    9.4330   -2.6930   24.4450 C   0  0  0  0  0  0  0  0  0  0  0  0
   12.3740    5.1180   22.6490 C   0  0  0  0  0  0  0  0  0  0  0  0
    8.9970   -3.7560   25.4800 C   0  0  0  0  0  0  0  0  0  0  0  0
    9.9380   -4.9410   25.5470 C   0  0  0  0  0  0  0  0  0  0  0  0
    7.6430   -3.7360   26.5000 S   0  0  0  0  0  0  0  0  0  0  0  0
    9.3790   -5.9230   26.6100 C   0  0  0  0  0  0  0  0  0  0  0  0
    8.0850   -5.2850   27.1840 C   0  0  0  0  0  0  0  0  0  0  0  0
    6.9820   -6.0480   28.5290 Br  0  0  0  0  0  0  0  0  0  0  0  0
  1  2  2  0
  2  3  1  0
  2  4  1  0
  3  5  1  0
  4  6  2  0
  4  7  1  0
  5  8  2  0
  5  9  1  0
  6 10  1  0
  7 11  2  0
  8 12  1  0
  9 13  1  0
 12 13  2  0
 10 14  2  0
 11 14  1  0
 13 15  1  0
 15 16  2  0
 15 17  1  0
 16 18  1  0
 17 19  1  0
 18 19  2  0
 19 20  1  0
M  END
