DRA-CSI-47e38074-8
     RDKit          3D

 25 27  0  0  0  0  0  0  0  0999 V2000
    2.8500    4.1850   19.6620 C   0  0  0  0  0  0  0  0  0  0  0  0
    3.8080    3.6820   20.5810 O   0  0  0  0  0  0  0  0  0  0  0  0
    4.4370    2.5400   20.1650 C   0  0  0  0  0  0  0  0  0  0  0  0
    3.9610    1.6430   19.2110 C   0  0  0  0  0  0  0  0  0  0  0  0
    5.6700    2.2620   20.7650 C   0  0  0  0  0  0  0  0  0  0  0  0
    4.7310    0.5200   18.9130 C   0  0  0  0  0  0  0  0  0  0  0  0
    6.4320    1.1340   20.4590 C   0  0  0  0  0  0  0  0  0  0  0  0
    5.9530    0.2240   19.5040 C   0  0  0  0  0  0  0  0  0  0  0  0
    6.7280   -1.0460   19.1250 C   0  0  0  0  0  0  0  0  0  0  0  0
    6.1950   -2.2330   18.8460 N   0  0  0  0  0  0  0  0  0  0  0  0
    6.0060   -3.0150   19.9770 C   0  0  0  0  0  0  0  0  0  0  0  0
    5.4110   -4.3110   19.8820 N   0  0  0  0  0  0  0  0  0  0  0  0
    6.4130   -2.5980   21.2310 N   0  0  0  0  0  0  0  0  0  0  0  0
    6.3660   -3.4090   22.3870 C   0  0  0  0  0  0  0  0  0  0  0  0
    7.0430   -1.4150   21.4220 C   0  0  0  0  0  0  0  0  0  0  0  0
    7.5530   -3.5410   23.1160 C   0  0  0  0  0  0  0  0  0  0  0  0
    8.4710   -1.7270   21.8770 C   0  0  0  0  0  0  0  0  0  0  0  0
    8.4110   -2.4500   23.2330 C   0  0  0  0  0  0  0  0  0  0  0  0
    9.7250   -2.6930   23.6150 C   0  0  0  0  0  0  0  0  0  0  0  0
   10.7220   -1.5410   23.4990 C   0  0  0  0  0  0  0  0  0  0  0  0
   11.9220   -1.8670   22.5860 C   0  0  0  0  0  0  0  0  0  0  0  0
   10.5540   -0.3060   24.1570 C   0  0  0  0  0  0  0  0  0  0  0  0
   12.9230   -0.7110   22.4600 C   0  0  0  0  0  0  0  0  0  0  0  0
   11.5030    0.6750   23.9810 C   0  0  0  0  0  0  0  0  0  0  0  0
   12.6270    0.4600   23.1670 C   0  0  0  0  0  0  0  0  0  0  0  0
  1  2  1  0
  2  3  1  0
  3  4  2  0
  3  5  1  0
  4  6  1  0
  5  7  2  0
  6  8  2  0
  7  8  1  0
  8  9  1  0
  9 10  1  0
 10 11  1  0
 11 12  2  3
 11 13  1  0
 13 14  1  0
 13 15  1  0
 14 16  1  0
 15 17  1  0
 16 18  1  0
 17 18  1  0
 18 19  1  0
 19 20  1  0
 20 21  2  0
 20 22  1  0
 21 23  1  0
 22 24  2  0
 23 25  2  0
 24 25  1  0
M  END
