DRA-CSI-3ab97369-11
     RDKit          3D

 35 39  0  0  0  0  0  0  0  0999 V2000
   -0.9720  -15.7470   28.4860 C   0  0  0  0  0  0  0  0  0  0  0  0
   -0.1750  -14.7200   29.0560 O   0  0  0  0  0  0  0  0  0  0  0  0
    0.1270  -13.6520   28.2590 C   0  0  0  0  0  0  0  0  0  0  0  0
    0.0150  -13.8990   26.7520 C   0  0  0  0  0  0  0  0  0  0  0  0
    0.5210  -12.3730   28.6750 C   0  0  0  0  0  0  0  0  0  0  0  0
    0.3230  -12.7950   25.7550 C   0  0  0  0  0  0  0  0  0  0  0  0
    0.8140  -11.3240   27.7590 C   0  0  0  0  0  0  0  0  0  0  0  0
    0.7430  -11.4490   26.3480 C   0  0  0  0  0  0  0  0  0  0  0  0
    1.0890  -10.2740   25.4550 C   0  0  0  0  0  0  0  0  0  0  0  0
    0.3610   -9.6330   24.4740 N   0  0  0  0  0  0  0  0  0  0  0  0
    2.3540   -9.7410   25.6400 O   0  0  0  0  0  0  0  0  0  0  0  0
    1.3050   -8.6210   24.0400 C   0  0  0  0  0  0  0  0  0  0  0  0
    2.4650   -8.7040   24.7410 C   0  0  0  0  0  0  0  0  0  0  0  0
    1.1080   -7.6830   23.0640 C   0  0  0  0  0  0  0  0  0  0  0  0
    3.5400   -7.8610   24.5370 C   0  0  0  0  0  0  0  0  0  0  0  0
    2.1860   -6.7800   22.8080 C   0  0  0  0  0  0  0  0  0  0  0  0
    3.4220   -6.8780   23.5510 C   0  0  0  0  0  0  0  0  0  0  0  0
    4.5430   -6.0290   23.4110 C   0  0  0  0  0  0  0  0  0  0  0  0
    5.8370   -6.0250   22.5390 C   0  0  0  0  0  0  0  0  0  0  0  0
    4.4090   -5.0090   24.2820 C   0  0  0  0  0  0  0  0  0  0  0  0
    6.7930   -4.8580   22.8020 C   0  0  0  0  0  0  0  0  0  0  0  0
    5.2250   -4.0070   24.5050 N   0  0  0  0  0  0  0  0  0  0  0  0
    6.3940   -3.8300   23.8570 C   0  0  0  0  0  0  0  0  0  0  0  0
    7.1570   -2.6500   24.2530 N   0  0  0  0  0  0  0  0  0  0  0  0
    6.7760   -1.8520   25.3050 C   0  0  0  0  0  0  0  0  0  0  0  0
    5.4170   -2.0720   25.9050 C   0  0  0  0  0  0  0  0  0  0  0  0
    4.2890   -1.1870   25.3690 C   0  0  0  0  0  0  0  0  0  0  0  0
    5.1670   -3.0240   26.8980 C   0  0  0  0  0  0  0  0  0  0  0  0
    2.9010   -1.3630   25.9350 C   0  0  0  0  0  0  0  0  0  0  0  0
    3.7730   -3.1920   27.4540 C   0  0  0  0  0  0  0  0  0  0  0  0
    2.6950   -2.4100   27.0030 C   0  0  0  0  0  0  0  0  0  0  0  0
    1.3200   -2.6020   27.5710 C   0  0  0  0  0  0  0  0  0  0  0  0
    0.8830   -4.0810   27.4550 C   0  0  0  0  0  0  0  0  0  0  0  0
    0.2430   -1.7710   26.8410 C   0  0  0  0  0  0  0  0  0  0  0  0
    1.3120   -2.1770   29.0560 C   0  0  0  0  0  0  0  0  0  0  0  0
  1  2  1  0
  2  3  1  0
  3  4  2  0
  3  5  1  0
  4  6  1  0
  5  7  2  0
  6  8  2  0
  7  8  1  0
  8  9  1  0
  9 10  2  0
  9 11  1  0
 10 12  1  0
 11 13  1  0
 12 13  2  0
 12 14  1  0
 13 15  1  0
 14 16  2  0
 15 17  2  0
 16 17  1  0
 17 18  1  0
 18 19  2  0
 18 20  1  0
 19 21  1  0
 20 22  2  0
 21 23  2  0
 22 23  1  0
 23 24  1  0
 24 25  1  0
 25 26  1  0
 26 27  2  0
 26 28  1  0
 27 29  1  0
 28 30  2  0
 29 31  2  0
 30 31  1  0
 31 32  1  0
 32 33  1  0
 32 34  1  0
 32 35  1  0
M  END
