DRA-CSI-57d71107-1
     RDKit          3D

 19 21  0  0  0  0  0  0  0  0999 V2000
    6.1610   -5.8960   29.2240 Br  0  0  0  0  0  0  0  0  0  0  0  0
    7.2690   -5.2950   27.7960 C   0  0  0  0  0  0  0  0  0  0  0  0
    8.7410   -5.6350   27.6480 C   0  0  0  0  0  0  0  0  0  0  0  0
    6.6590   -4.3130   26.5530 S   0  0  0  0  0  0  0  0  0  0  0  0
    9.3290   -5.0120   26.3800 C   0  0  0  0  0  0  0  0  0  0  0  0
    8.1610   -4.2520   25.7330 C   0  0  0  0  0  0  0  0  0  0  0  0
    8.6170   -3.6090   24.4600 C   0  0  0  0  0  0  0  0  0  0  0  0
    7.7060   -3.3080   23.4290 N   0  0  0  0  0  0  0  0  0  0  0  0
   10.2310   -3.2120   24.1270 S   0  0  0  0  0  0  0  0  0  0  0  0
    8.3560   -2.7750   22.3530 N   0  0  0  0  0  0  0  0  0  0  0  0
    9.6950   -2.6910   22.5830 C   0  0  0  0  0  0  0  0  0  0  0  0
   10.7120   -2.2210   21.6620 N   0  0  0  0  0  0  0  0  0  0  0  0
   12.1020   -2.3450   22.0940 C   0  0  0  0  0  0  0  0  0  0  0  0
   12.3690   -0.9550   22.4900 C   0  0  0  0  0  0  0  0  0  0  0  0
   13.4480   -0.1750   21.8220 C   0  0  0  0  0  0  0  0  0  0  0  0
   11.6230   -0.3200   23.4680 C   0  0  0  0  0  0  0  0  0  0  0  0
   13.6450    1.1390   22.1970 C   0  0  0  0  0  0  0  0  0  0  0  0
   11.8840    0.9790   23.7710 C   0  0  0  0  0  0  0  0  0  0  0  0
   12.8600    1.7090   23.1560 C   0  0  0  0  0  0  0  0  0  0  0  0
  1  2  1  0
  2  3  2  0
  2  4  1  0
  3  5  1  0
  4  6  1  0
  5  6  2  0
  6  7  1  0
  7  8  2  0
  7  9  1  0
  8 10  1  0
  9 11  1  0
 10 11  2  0
 11 12  1  0
 12 13  1  0
 13 14  1  0
 14 15  2  0
 14 16  1  0
 15 17  1  0
 16 18  2  0
 17 19  2  0
 18 19  1  0
M  END
