DRA-CSI-0a78d9ba-4
     RDKit          3D

 37 41  0  0  0  0  0  0  0  0999 V2000
   12.3300    6.6240   23.3470 C   0  0  0  0  0  0  0  0  0  0  0  0
   11.0020    6.8530   23.7970 O   0  0  0  0  0  0  0  0  0  0  0  0
   10.0860    6.0020   23.2480 C   0  0  0  0  0  0  0  0  0  0  0  0
    8.8340    6.3430   22.7230 C   0  0  0  0  0  0  0  0  0  0  0  0
   10.4900    4.6590   23.2260 C   0  0  0  0  0  0  0  0  0  0  0  0
    8.0410    5.3260   22.1940 C   0  0  0  0  0  0  0  0  0  0  0  0
    9.6680    3.6580   22.6850 C   0  0  0  0  0  0  0  0  0  0  0  0
    8.4130    3.9850   22.1500 C   0  0  0  0  0  0  0  0  0  0  0  0
    7.4870    2.9340   21.5380 C   0  0  0  0  0  0  0  0  0  0  0  0
    6.1690    2.8920   21.5190 N   0  0  0  0  0  0  0  0  0  0  0  0
    8.0990    1.8680   20.9080 O   0  0  0  0  0  0  0  0  0  0  0  0
    5.8870    1.7280   20.8630 C   0  0  0  0  0  0  0  0  0  0  0  0
    7.0470    1.0850   20.4910 C   0  0  0  0  0  0  0  0  0  0  0  0
    4.6860    1.1120   20.5300 C   0  0  0  0  0  0  0  0  0  0  0  0
    7.0800   -0.1470   19.8160 C   0  0  0  0  0  0  0  0  0  0  0  0
    4.6860   -0.1110   19.8660 C   0  0  0  0  0  0  0  0  0  0  0  0
    5.8570   -0.7700   19.5030 C   0  0  0  0  0  0  0  0  0  0  0  0
    5.8510   -1.9790   18.8860 N   0  0  0  0  0  0  0  0  0  0  0  0
    5.8010   -3.0240   19.7750 C   0  0  0  0  0  0  0  0  0  0  0  0
    5.2280   -4.0680   19.4910 O   0  0  0  0  0  0  0  0  0  0  0  0
    6.5070   -2.9770   21.1230 C   0  0  0  0  0  0  0  0  0  0  0  0
    5.6100   -3.0400   22.3490 C   0  0  0  0  0  0  0  0  0  0  0  0
    7.2940   -1.7010   21.1960 C   0  0  0  0  0  0  0  0  0  0  0  0
    6.6520   -3.0670   23.4920 C   0  0  0  0  0  0  0  0  0  0  0  0
    8.3450   -1.9270   22.2230 C   0  0  0  0  0  0  0  0  0  0  0  0
    7.9760   -3.0380   23.1100 N   0  0  0  0  0  0  0  0  0  0  0  0
    8.8370   -2.9310   24.2500 C   0  0  0  0  0  0  0  0  0  0  0  0
    9.9150   -1.9600   23.9170 C   0  0  0  0  0  0  0  0  0  0  0  0
    9.9070   -0.6650   24.4720 C   0  0  0  0  0  0  0  0  0  0  0  0
   10.9020   -2.3820   23.0350 C   0  0  0  0  0  0  0  0  0  0  0  0
   10.9170    0.2060   24.1200 C   0  0  0  0  0  0  0  0  0  0  0  0
   11.8890   -1.5250   22.6980 C   0  0  0  0  0  0  0  0  0  0  0  0
   11.8630   -0.2770   23.2440 C   0  0  0  0  0  0  0  0  0  0  0  0
   12.9500    0.4620   22.8300 C   0  0  0  0  0  0  0  0  0  0  0  0
   12.8550    1.8190   22.8150 F   0  0  0  0  0  0  0  0  0  0  0  0
   13.6850    0.0600   23.8030 F   0  0  0  0  0  0  0  0  0  0  0  0
   13.5490   -0.0870   21.7620 F   0  0  0  0  0  0  0  0  0  0  0  0
  1  2  1  0
  2  3  1  0
  3  4  2  0
  3  5  1  0
  4  6  1  0
  5  7  2  0
  6  8  2  0
  7  8  1  0
  8  9  1  0
  9 10  2  0
  9 11  1  0
 10 12  1  0
 11 13  1  0
 12 13  2  0
 12 14  1  0
 13 15  1  0
 14 16  2  0
 15 17  2  0
 16 17  1  0
 17 18  1  0
 18 19  1  0
 19 20  2  0
 19 21  1  0
 21 22  1  0
 21 23  1  0
 22 24  1  0
 23 25  1  0
 24 26  1  0
 25 26  1  0
 26 27  1  0
 27 28  1  0
 28 29  2  0
 28 30  1  0
 29 31  1  0
 30 32  2  0
 31 33  2  0
 32 33  1  0
 33 34  1  0
 34 35  1  0
 34 36  1  0
 34 37  1  0
M  END
