DRA-CSI-7ec17797-4
     RDKit          3D

 31 34  0  0  0  0  0  0  0  0999 V2000
    8.3210   -0.1540   16.1880 C   0  0  0  0  0  0  0  0  0  0  0  0
    7.7290    0.7250   17.2140 N   0  0  0  0  0  0  0  0  0  0  0  0
    6.9430    1.3820   16.4430 C   0  0  0  0  0  0  0  0  0  0  0  0
    7.1160   -0.0230   18.0940 C   0  0  0  0  0  0  0  0  0  0  0  0
    6.7870    0.1030   19.4290 N   0  0  0  0  0  0  0  0  0  0  0  0
    6.8470   -1.0390   17.4110 C   0  0  0  0  0  0  0  0  0  0  0  0
    6.1290   -1.0020   19.9440 C   0  0  0  0  0  0  0  0  0  0  0  0
    6.2200   -1.9810   18.0190 C   0  0  0  0  0  0  0  0  0  0  0  0
    7.1250   -1.2970   16.1090 N   0  0  0  0  0  0  0  0  0  0  0  0
    5.7290   -1.1520   21.2840 N   0  0  0  0  0  0  0  0  0  0  0  0
    5.8020   -2.0810   19.2640 N   0  0  0  0  0  0  0  0  0  0  0  0
    6.1360   -2.7890   17.0510 N   0  0  0  0  0  0  0  0  0  0  0  0
    6.6550   -2.4480   15.8830 C   0  0  0  0  0  0  0  0  0  0  0  0
    5.6070   -2.4280   21.8570 C   0  0  0  0  0  0  0  0  0  0  0  0
    4.6780   -3.2360   21.7200 O   0  0  0  0  0  0  0  0  0  0  0  0
    6.8280   -2.8290   22.6950 C   0  0  0  0  0  0  0  0  0  0  0  0
    6.3720   -3.4430   23.9970 C   0  0  0  0  0  0  0  0  0  0  0  0
    7.8470   -1.6830   22.8750 C   0  0  0  0  0  0  0  0  0  0  0  0
    5.9940   -2.4630   24.9060 C   0  0  0  0  0  0  0  0  0  0  0  0
    7.5020   -0.7450   23.8870 C   0  0  0  0  0  0  0  0  0  0  0  0
    6.9900   -1.3830   24.9670 N   0  0  0  0  0  0  0  0  0  0  0  0
    7.9780   -1.3490   26.3510 S   0  0  0  0  0  0  0  0  0  0  0  0
    9.3370   -1.3500   25.8750 O   0  0  0  0  0  0  0  0  0  0  0  0
    7.4910   -0.2930   27.2130 O   0  0  0  0  0  0  0  0  0  0  0  0
    7.6240   -2.9280   27.0860 C   0  0  0  0  0  0  0  0  0  0  0  0
    8.1500   -4.1380   26.6260 C   0  0  0  0  0  0  0  0  0  0  0  0
    6.6820   -3.0450   28.3090 C   0  0  0  0  0  0  0  0  0  0  0  0
    7.8770   -5.3620   27.1980 C   0  0  0  0  0  0  0  0  0  0  0  0
    6.4270   -4.3070   28.8580 C   0  0  0  0  0  0  0  0  0  0  0  0
    6.9570   -5.5120   28.3990 C   0  0  0  0  0  0  0  0  0  0  0  0
    6.6650   -6.6810   28.9820 F   0  0  0  0  0  0  0  0  0  0  0  0
  1  2  1  0
  2  3  1  0
  2  4  1  0
  4  5  2  0
  4  6  1  0
  5  7  1  0
  6  8  2  0
  6  9  1  0
  7 10  1  0
  7 11  2  0
  8 11  1  0
  8 12  1  0
  9 13  2  0
 12 13  1  0
 10 14  1  0
 14 15  2  0
 14 16  1  0
 16 17  1  0
 16 18  1  0
 17 19  1  0
 18 20  1  0
 19 21  1  0
 20 21  1  0
 21 22  1  0
 22 23  2  0
 22 24  2  0
 22 25  1  0
 25 26  2  0
 25 27  1  0
 26 28  1  0
 27 29  2  0
 28 30  2  0
 29 30  1  0
 30 31  1  0
M  END
