DRA-CSI-0a78d9ba-15
     RDKit          3D

 38 42  0  0  0  0  0  0  0  0999 V2000
    1.8840    8.9400   18.8660 C   0  0  0  0  0  0  0  0  0  0  0  0
    1.1650    7.8060   19.3270 O   0  0  0  0  0  0  0  0  0  0  0  0
    1.8130    6.6090   19.1650 C   0  0  0  0  0  0  0  0  0  0  0  0
    3.0330    6.3520   19.8030 C   0  0  0  0  0  0  0  0  0  0  0  0
    1.2870    5.5870   18.3540 C   0  0  0  0  0  0  0  0  0  0  0  0
    3.6600    5.1290   19.6110 C   0  0  0  0  0  0  0  0  0  0  0  0
    1.9450    4.3640   18.1810 C   0  0  0  0  0  0  0  0  0  0  0  0
    3.1630    4.1200   18.8200 C   0  0  0  0  0  0  0  0  0  0  0  0
    3.9370    2.8100   18.6720 C   0  0  0  0  0  0  0  0  0  0  0  0
    4.8960    2.5660   17.8190 N   0  0  0  0  0  0  0  0  0  0  0  0
    3.7090    1.7000   19.4450 N   0  0  0  0  0  0  0  0  0  0  0  0
    5.3090    1.2910   18.0330 C   0  0  0  0  0  0  0  0  0  0  0  0
    4.5860    0.7050   19.0390 C   0  0  0  0  0  0  0  0  0  0  0  0
    2.7220    1.6280   20.4820 C   0  0  0  0  0  0  0  0  0  0  0  0
    6.2920    0.4680   17.4640 C   0  0  0  0  0  0  0  0  0  0  0  0
    4.7540   -0.5660   19.4810 N   0  0  0  0  0  0  0  0  0  0  0  0
    7.3470    0.9400   16.2470 Cl  0  0  0  0  0  0  0  0  0  0  0  0
    6.4670   -0.7560   17.8490 N   0  0  0  0  0  0  0  0  0  0  0  0
    5.7210   -1.2400   18.8080 C   0  0  0  0  0  0  0  0  0  0  0  0
    6.0450   -2.5060   19.0260 N   0  0  0  0  0  0  0  0  0  0  0  0
    5.7950   -3.1370   20.1720 C   0  0  0  0  0  0  0  0  0  0  0  0
    5.3920   -4.3000   20.1060 O   0  0  0  0  0  0  0  0  0  0  0  0
    6.0090   -2.5410   21.4220 C   0  0  0  0  0  0  0  0  0  0  0  0
    7.0360   -1.3940   21.4870 C   0  0  0  0  0  0  0  0  0  0  0  0
    6.1870   -3.5860   22.5460 C   0  0  0  0  0  0  0  0  0  0  0  0
    8.4170   -1.8160   21.9930 C   0  0  0  0  0  0  0  0  0  0  0  0
    7.5500   -3.8560   22.7350 C   0  0  0  0  0  0  0  0  0  0  0  0
    8.2560   -2.6210   23.0880 N   0  0  0  0  0  0  0  0  0  0  0  0
    9.4740   -2.8930   23.6570 C   0  0  0  0  0  0  0  0  0  0  0  0
   10.3520   -1.8200   23.5460 C   0  0  0  0  0  0  0  0  0  0  0  0
   11.5810   -1.9270   22.6610 C   0  0  0  0  0  0  0  0  0  0  0  0
   10.0820   -0.6310   24.2540 C   0  0  0  0  0  0  0  0  0  0  0  0
   12.4420   -0.8370   22.5410 C   0  0  0  0  0  0  0  0  0  0  0  0
   10.9300    0.4560   24.1360 C   0  0  0  0  0  0  0  0  0  0  0  0
   12.1400    0.3300   23.2420 C   0  0  0  0  0  0  0  0  0  0  0  0
   12.9800    1.4670   23.1310 N   0  0  0  0  0  0  0  0  0  0  0  0
   12.3980    2.5460   22.9410 O   0  0  0  0  0  0  0  0  0  0  0  0
   14.0690    1.1760   22.6600 O   0  0  0  0  0  0  0  0  0  0  0  0
  1  2  1  0
  2  3  1  0
  3  4  2  0
  3  5  1  0
  4  6  1  0
  5  7  2  0
  6  8  2  0
  7  8  1  0
  8  9  1  0
  9 10  2  0
  9 11  1  0
 10 12  1  0
 11 13  1  0
 12 13  2  0
 11 14  1  0
 12 15  1  0
 13 16  1  0
 15 17  1  0
 15 18  2  0
 16 19  2  0
 18 19  1  0
 19 20  1  0
 20 21  1  0
 21 22  2  0
 21 23  1  0
 23 24  1  0
 23 25  1  0
 24 26  1  0
 25 27  1  0
 26 28  1  0
 27 28  1  0
 28 29  1  0
 29 30  1  0
 30 31  2  0
 30 32  1  0
 31 33  1  0
 32 34  2  0
 33 35  2  0
 34 35  1  0
 35 36  1  0
 36 37  2  0
 36 38  1  0
M  CHG  2  36   1  38  -1
M  END
