DRA-CSI-0a78d9ba-14
     RDKit          3D

 30 33  0  0  0  0  0  0  0  0999 V2000
   -0.1470    5.3150   17.3820 C   0  0  0  0  0  0  0  0  0  0  0  0
   -0.0150    4.8840   18.7240 O   0  0  0  0  0  0  0  0  0  0  0  0
    1.0560    4.0610   18.9560 C   0  0  0  0  0  0  0  0  0  0  0  0
    2.2930    4.1020   18.3090 C   0  0  0  0  0  0  0  0  0  0  0  0
    0.8510    3.0900   19.9500 C   0  0  0  0  0  0  0  0  0  0  0  0
    3.2730    3.1830   18.6690 C   0  0  0  0  0  0  0  0  0  0  0  0
    1.8590    2.1850   20.2840 C   0  0  0  0  0  0  0  0  0  0  0  0
    3.1020    2.2200   19.6380 C   0  0  0  0  0  0  0  0  0  0  0  0
    4.2060    1.2230   19.9970 C   0  0  0  0  0  0  0  0  0  0  0  0
    4.2790   -0.0110   19.5510 N   0  0  0  0  0  0  0  0  0  0  0  0
    5.2770    1.4750   20.8460 N   0  0  0  0  0  0  0  0  0  0  0  0
    5.3690   -0.5670   20.1200 C   0  0  0  0  0  0  0  0  0  0  0  0
    6.0270    0.3200   20.9310 C   0  0  0  0  0  0  0  0  0  0  0  0
    5.5590    2.7140   21.5270 C   0  0  0  0  0  0  0  0  0  0  0  0
    5.9360   -1.8220   20.0540 C   0  0  0  0  0  0  0  0  0  0  0  0
    7.1520    0.0580   21.6330 N   0  0  0  0  0  0  0  0  0  0  0  0
    5.2390   -2.9890   19.1160 Cl  0  0  0  0  0  0  0  0  0  0  0  0
    7.0160   -2.1400   20.7160 N   0  0  0  0  0  0  0  0  0  0  0  0
    7.5780   -1.2280   21.4560 C   0  0  0  0  0  0  0  0  0  0  0  0
    8.6830   -1.5590   22.1130 N   0  0  0  0  0  0  0  0  0  0  0  0
    8.7180   -2.7060   22.8500 C   0  0  0  0  0  0  0  0  0  0  0  0
    8.1020   -3.7430   22.6140 O   0  0  0  0  0  0  0  0  0  0  0  0
    9.5350   -2.6500   23.9510 C   0  0  0  0  0  0  0  0  0  0  0  0
   10.4640   -1.5030   23.7280 C   0  0  0  0  0  0  0  0  0  0  0  0
   11.6760   -1.7560   22.8340 C   0  0  0  0  0  0  0  0  0  0  0  0
   10.1820   -0.2650   24.2930 C   0  0  0  0  0  0  0  0  0  0  0  0
   12.5140   -0.5140   22.5860 C   0  0  0  0  0  0  0  0  0  0  0  0
   10.9760    0.8040   24.0250 C   0  0  0  0  0  0  0  0  0  0  0  0
   12.0890    0.6880   23.1870 C   0  0  0  0  0  0  0  0  0  0  0  0
   12.8860    2.1500   22.9190 Cl  0  0  0  0  0  0  0  0  0  0  0  0
  1  2  1  0
  2  3  1  0
  3  4  2  0
  3  5  1  0
  4  6  1  0
  5  7  2  0
  6  8  2  0
  7  8  1  0
  8  9  1  0
  9 10  2  0
  9 11  1  0
 10 12  1  0
 11 13  1  0
 12 13  2  0
 11 14  1  0
 12 15  1  0
 13 16  1  0
 15 17  1  0
 15 18  2  0
 16 19  2  0
 18 19  1  0
 19 20  1  0
 20 21  1  0
 21 22  2  0
 21 23  1  0
 23 24  1  0
 24 25  2  0
 24 26  1  0
 25 27  1  0
 26 28  2  0
 27 29  2  0
 28 29  1  0
 29 30  1  0
M  END
