DRA-CSI-47e38074-15
     RDKit          3D

 24 26  0  0  0  0  0  0  0  0999 V2000
    4.7630    1.8590   18.3510 C   0  0  0  0  0  0  0  0  0  0  0  0
    5.8690    1.1290   18.8560 O   0  0  0  0  0  0  0  0  0  0  0  0
    6.4810    0.3170   17.9430 C   0  0  0  0  0  0  0  0  0  0  0  0
    7.2480    0.7530   16.8330 C   0  0  0  0  0  0  0  0  0  0  0  0
    6.3180   -1.0720   18.1460 C   0  0  0  0  0  0  0  0  0  0  0  0
    7.8220   -0.1740   15.9830 C   0  0  0  0  0  0  0  0  0  0  0  0
    6.9130   -1.9070   17.2510 C   0  0  0  0  0  0  0  0  0  0  0  0
    5.5630   -1.5590   19.2340 N   0  0  0  0  0  0  0  0  0  0  0  0
    7.6440   -1.4940   16.2100 C   0  0  0  0  0  0  0  0  0  0  0  0
    5.7370   -2.7310   19.9810 C   0  0  0  0  0  0  0  0  0  0  0  0
    5.3660   -3.8730   19.6610 O   0  0  0  0  0  0  0  0  0  0  0  0
    6.4050   -2.4430   21.1200 N   0  0  0  0  0  0  0  0  0  0  0  0
    7.2010   -1.3610   21.1090 C   0  0  0  0  0  0  0  0  0  0  0  0
    6.1250   -3.0120   22.4410 C   0  0  0  0  0  0  0  0  0  0  0  0
    8.0150   -1.2360   22.2310 C   0  0  0  0  0  0  0  0  0  0  0  0
    7.2940   -3.3410   23.1360 C   0  0  0  0  0  0  0  0  0  0  0  0
    8.4840   -2.4340   22.7460 C   0  0  0  0  0  0  0  0  0  0  0  0
    9.4530   -2.2920   23.9140 C   0  0  0  0  0  0  0  0  0  0  0  0
   10.6510   -1.4010   23.5850 C   0  0  0  0  0  0  0  0  0  0  0  0
   10.5810   -0.0090   24.2030 C   0  0  0  0  0  0  0  0  0  0  0  0
   11.7630   -1.7670   22.7750 C   0  0  0  0  0  0  0  0  0  0  0  0
   11.6100    0.8720   23.9530 C   0  0  0  0  0  0  0  0  0  0  0  0
   12.8140   -0.8570   22.5280 C   0  0  0  0  0  0  0  0  0  0  0  0
   12.7570    0.4160   23.0860 C   0  0  0  0  0  0  0  0  0  0  0  0
  1  2  1  0
  2  3  1  0
  3  4  2  0
  3  5  1  0
  4  6  1  0
  5  7  2  0
  5  8  1  0
  6  9  2  0
  7  9  1  0
  8 10  1  0
 10 11  2  0
 10 12  1  0
 12 13  1  0
 12 14  1  0
 13 15  1  0
 14 16  1  0
 15 17  1  0
 16 17  1  0
 17 18  1  0
 18 19  1  0
 19 20  2  0
 19 21  1  0
 20 22  1  0
 21 23  2  0
 22 24  2  0
 23 24  1  0
M  END
