DRA-CSI-3ab97369-10
     RDKit          3D

 31 35  0  0  0  0  0  0  0  0999 V2000
   10.0500  -12.5310   19.8900 C   0  0  0  0  0  0  0  0  0  0  0  0
    9.4400  -11.8860   18.9380 O   0  0  0  0  0  0  0  0  0  0  0  0
    9.3510  -11.0540   19.8270 C   0  0  0  0  0  0  0  0  0  0  0  0
    8.3330  -11.5860   20.9320 C   0  0  0  0  0  0  0  0  0  0  0  0
   10.0350   -9.7460   20.0340 C   0  0  0  0  0  0  0  0  0  0  0  0
    7.9140  -10.5980   22.1660 C   0  0  0  0  0  0  0  0  0  0  0  0
    9.6550   -8.9010   21.2090 C   0  0  0  0  0  0  0  0  0  0  0  0
    8.5770   -9.1860   22.2000 C   0  0  0  0  0  0  0  0  0  0  0  0
    8.0370   -8.0960   23.1370 C   0  0  0  0  0  0  0  0  0  0  0  0
    6.7510   -8.1020   23.6490 N   0  0  0  0  0  0  0  0  0  0  0  0
    8.6910   -6.9380   23.4010 O   0  0  0  0  0  0  0  0  0  0  0  0
    6.6070   -6.8080   24.2090 C   0  0  0  0  0  0  0  0  0  0  0  0
    7.7500   -6.1120   24.0510 C   0  0  0  0  0  0  0  0  0  0  0  0
    5.4660   -6.3210   24.8080 C   0  0  0  0  0  0  0  0  0  0  0  0
    7.8500   -4.7980   24.4800 C   0  0  0  0  0  0  0  0  0  0  0  0
    5.4980   -4.9730   25.2670 C   0  0  0  0  0  0  0  0  0  0  0  0
    6.7110   -4.2210   25.0780 C   0  0  0  0  0  0  0  0  0  0  0  0
    6.8320   -2.8780   25.4600 C   0  0  0  0  0  0  0  0  0  0  0  0
    7.7740   -2.0370   24.6330 C   0  0  0  0  0  0  0  0  0  0  0  0
    6.1830   -2.2370   26.5090 C   0  0  0  0  0  0  0  0  0  0  0  0
    7.9590   -0.5830   24.9800 C   0  0  0  0  0  0  0  0  0  0  0  0
    6.3530   -0.7950   26.8690 N   0  0  0  0  0  0  0  0  0  0  0  0
    7.2100    0.0330   26.1450 C   0  0  0  0  0  0  0  0  0  0  0  0
    7.4380    1.4730   26.4360 N   0  0  0  0  0  0  0  0  0  0  0  0
    7.0900    2.1990   27.5410 C   0  0  0  0  0  0  0  0  0  0  0  0
    7.2930    1.5490   28.8680 C   0  0  0  0  0  0  0  0  0  0  0  0
    8.1370    0.2640   28.8360 C   0  0  0  0  0  0  0  0  0  0  0  0
    6.7550    2.0750   30.0490 C   0  0  0  0  0  0  0  0  0  0  0  0
    8.4110   -0.4810   30.1210 C   0  0  0  0  0  0  0  0  0  0  0  0
    6.9970    1.3630   31.3850 C   0  0  0  0  0  0  0  0  0  0  0  0
    7.8340    0.0790   31.3990 C   0  0  0  0  0  0  0  0  0  0  0  0
  1  2  1  0
  2  3  1  0
  3  4  2  0
  3  5  1  0
  4  6  1  0
  5  7  2  0
  6  8  2  0
  7  8  1  0
  8  9  1  0
  9 10  2  0
  9 11  1  0
 10 12  1  0
 11 13  1  0
 12 13  2  0
 12 14  1  0
 13 15  1  0
 14 16  2  0
 15 17  2  0
 16 17  1  0
 17 18  1  0
 18 19  2  0
 18 20  1  0
 19 21  1  0
 20 22  2  0
 21 23  2  0
 22 23  1  0
 23 24  1  0
 24 25  1  0
 25 26  1  0
 26 27  2  0
 26 28  1  0
 27 29  1  0
 28 30  2  0
 29 31  2  0
 30 31  1  0
M  END
