DRA-CSI-7ec17797-17
     RDKit          3D

 35 39  0  0  0  0  0  0  0  0999 V2000
   15.7570    4.7800   19.4300 C   0  0  0  0  0  0  0  0  0  0  0  0
   15.6950    3.3750   19.5640 O   0  0  0  0  0  0  0  0  0  0  0  0
   14.8440    2.7590   18.7130 C   0  0  0  0  0  0  0  0  0  0  0  0
   14.9580    1.3810   18.1160 C   0  0  0  0  0  0  0  0  0  0  0  0
   13.8180    3.5130   18.3370 C   0  0  0  0  0  0  0  0  0  0  0  0
   13.7960    0.9010   17.1490 C   0  0  0  0  0  0  0  0  0  0  0  0
   12.8010    3.0180   17.4170 C   0  0  0  0  0  0  0  0  0  0  0  0
   12.5190    1.5930   16.7380 C   0  0  0  0  0  0  0  0  0  0  0  0
   11.9630    4.4560   16.9260 Br  0  0  0  0  0  0  0  0  0  0  0  0
   10.3690    0.4970   15.1650 C   0  0  0  0  0  0  0  0  0  0  0  0
    9.5320    0.0530   14.2330 N   0  0  0  0  0  0  0  0  0  0  0  0
    9.4640    0.2020   16.1560 O   0  0  0  0  0  0  0  0  0  0  0  0
    8.3330   -0.4520   15.1510 C   0  0  0  0  0  0  0  0  0  0  0  0
    8.4100   -0.2690   16.3100 C   0  0  0  0  0  0  0  0  0  0  0  0
    7.0460   -1.2090   15.0560 C   0  0  0  0  0  0  0  0  0  0  0  0
    7.6950   -0.4770   17.5280 C   0  0  0  0  0  0  0  0  0  0  0  0
    6.2440   -1.5380   16.3150 C   0  0  0  0  0  0  0  0  0  0  0  0
    6.5800   -1.1340   17.4850 C   0  0  0  0  0  0  0  0  0  0  0  0
    5.6980   -1.4360   18.6260 N   0  0  0  0  0  0  0  0  0  0  0  0
    5.8430   -2.4510   19.5800 C   0  0  0  0  0  0  0  0  0  0  0  0
    5.4320   -3.7460   19.3900 O   0  0  0  0  0  0  0  0  0  0  0  0
    6.4410   -2.0880   20.8910 C   0  0  0  0  0  0  0  0  0  0  0  0
    7.8440   -1.5470   20.9040 C   0  0  0  0  0  0  0  0  0  0  0  0
    6.2670   -3.2110   21.9290 C   0  0  0  0  0  0  0  0  0  0  0  0
    8.3050   -1.3440   22.3370 C   0  0  0  0  0  0  0  0  0  0  0  0
    7.5780   -3.7020   22.5490 C   0  0  0  0  0  0  0  0  0  0  0  0
    8.4740   -2.6350   23.0070 N   0  0  0  0  0  0  0  0  0  0  0  0
    9.6410   -3.0850   23.6330 C   0  0  0  0  0  0  0  0  0  0  0  0
    9.6530   -4.1940   24.1600 O   0  0  0  0  0  0  0  0  0  0  0  0
   10.8120   -2.3130   23.6870 C   0  0  0  0  0  0  0  0  0  0  0  0
   10.7020   -1.0730   24.3220 C   0  0  0  0  0  0  0  0  0  0  0  0
   11.2470   -1.9960   22.2470 C   0  0  0  0  0  0  0  0  0  0  0  0
   11.5950   -0.1290   23.8340 C   0  0  0  0  0  0  0  0  0  0  0  0
   12.7320   -1.6990   22.2770 C   0  0  0  0  0  0  0  0  0  0  0  0
   12.9430   -0.7260   23.4190 C   0  0  0  0  0  0  0  0  0  0  0  0
  1  2  1  0
  2  3  1  0
  3  4  2  0
  3  5  1  0
  4  6  1  0
  5  7  2  0
  6  8  2  0
  7  8  1  0
  7  9  1  0
  8 10  1  0
 10 11  2  0
 10 12  1  0
 11 13  1  0
 12 14  1  0
 13 14  2  0
 13 15  1  0
 14 16  1  0
 15 17  2  0
 16 18  2  0
 17 18  1  0
 18 19  1  0
 19 20  1  0
 20 21  2  0
 20 22  1  0
 22 23  1  0
 22 24  1  0
 23 25  1  0
 24 26  1  0
 25 27  1  0
 26 27  1  0
 27 28  1  0
 28 29  2  0
 28 30  1  0
 30 31  1  0
 30 32  1  0
 31 33  1  0
 32 34  1  0
 33 35  1  0
 34 35  1  0
M  END
