DRA-CSI-3ab97369-2
     RDKit          3D

 32 36  0  0  0  0  0  0  0  0999 V2000
   14.7860   -4.8680   20.4800 C   0  0  0  0  0  0  0  0  0  0  0  0
   14.3450   -3.5050   20.1980 O   0  0  0  0  0  0  0  0  0  0  0  0
   13.2900   -3.0080   20.9320 C   0  0  0  0  0  0  0  0  0  0  0  0
   13.3460   -2.1520   22.2450 C   0  0  0  0  0  0  0  0  0  0  0  0
   12.0880   -3.2790   20.5020 C   0  0  0  0  0  0  0  0  0  0  0  0
   12.0880   -1.7120   22.9880 C   0  0  0  0  0  0  0  0  0  0  0  0
   10.9700   -2.8860   21.1640 C   0  0  0  0  0  0  0  0  0  0  0  0
   10.8400   -2.2040   22.3020 C   0  0  0  0  0  0  0  0  0  0  0  0
    9.4040   -2.1790   22.6420 C   0  0  0  0  0  0  0  0  0  0  0  0
    8.3630   -2.3270   21.7370 N   0  0  0  0  0  0  0  0  0  0  0  0
    9.0320   -2.1220   23.9490 O   0  0  0  0  0  0  0  0  0  0  0  0
    7.2450   -2.4250   22.6180 C   0  0  0  0  0  0  0  0  0  0  0  0
    7.6750   -2.3000   23.8990 C   0  0  0  0  0  0  0  0  0  0  0  0
    5.9190   -2.6250   22.2690 C   0  0  0  0  0  0  0  0  0  0  0  0
    6.7270   -2.3710   25.0480 C   0  0  0  0  0  0  0  0  0  0  0  0
    4.9510   -2.7100   23.3300 C   0  0  0  0  0  0  0  0  0  0  0  0
    5.3910   -2.5780   24.7100 C   0  0  0  0  0  0  0  0  0  0  0  0
    4.6600   -2.6270   25.8210 N   0  0  0  0  0  0  0  0  0  0  0  0
    5.4470   -2.2610   26.8700 C   0  0  0  0  0  0  0  0  0  0  0  0
    5.8720   -3.0520   27.8870 O   0  0  0  0  0  0  0  0  0  0  0  0
    6.0240   -0.8570   27.0320 C   0  0  0  0  0  0  0  0  0  0  0  0
    6.8440   -0.7020   28.3160 C   0  0  0  0  0  0  0  0  0  0  0  0
    4.9120    0.2050   27.0180 C   0  0  0  0  0  0  0  0  0  0  0  0
    6.2480    0.3090   29.2920 C   0  0  0  0  0  0  0  0  0  0  0  0
    5.4490    1.5980   27.3680 C   0  0  0  0  0  0  0  0  0  0  0  0
    6.1930    1.6080   28.6410 N   0  0  0  0  0  0  0  0  0  0  0  0
    5.8860    2.9600   29.6340 S   0  0  0  0  0  0  0  0  0  0  0  0
    4.9870    3.8080   28.8860 O   0  0  0  0  0  0  0  0  0  0  0  0
    7.1490    3.4600   30.1370 O   0  0  0  0  0  0  0  0  0  0  0  0
    5.0040    2.2700   31.0120 C   0  0  0  0  0  0  0  0  0  0  0  0
    4.5390    3.1450   32.0190 C   0  0  0  0  0  0  0  0  0  0  0  0
    3.4390    2.8340   31.1460 C   0  0  0  0  0  0  0  0  0  0  0  0
  1  2  1  0
  2  3  1  0
  3  4  2  0
  3  5  1  0
  4  6  1  0
  5  7  2  0
  6  8  2  0
  7  8  1  0
  8  9  1  0
  9 10  2  0
  9 11  1  0
 10 12  1  0
 11 13  1  0
 12 13  2  0
 12 14  1  0
 13 15  1  0
 14 16  2  0
 15 17  2  0
 16 17  1  0
 17 18  1  0
 18 19  1  0
 19 20  2  0
 19 21  1  0
 21 22  1  0
 21 23  1  0
 22 24  1  0
 23 25  1  0
 24 26  1  0
 25 26  1  0
 27 26  1  0
 27 28  2  0
 27 29  2  0
 27 30  1  0
 30 31  1  0
 30 32  1  0
 31 32  1  0
M  END
