DRA-CSI-0a78d9ba-10
     RDKit          3D

 36 40  0  0  0  0  0  0  0  0999 V2000
    8.3420   -3.2020    9.5940 C   0  0  0  0  0  0  0  0  0  0  0  0
    7.0800   -2.6540    9.3860 O   0  0  0  0  0  0  0  0  0  0  0  0
    6.2140   -2.8920   10.3780 C   0  0  0  0  0  0  0  0  0  0  0  0
    4.9050   -3.2630   10.6600 C   0  0  0  0  0  0  0  0  0  0  0  0
    6.9170   -2.6260   11.3020 C   0  0  0  0  0  0  0  0  0  0  0  0
    4.5060   -3.3900   12.0740 C   0  0  0  0  0  0  0  0  0  0  0  0
    6.4030   -2.7870   12.5640 C   0  0  0  0  0  0  0  0  0  0  0  0
    5.5280   -3.0780   13.0310 C   0  0  0  0  0  0  0  0  0  0  0  0
    6.2430   -2.8240   14.3840 Br  0  0  0  0  0  0  0  0  0  0  0  0
    6.2220   -2.8740   14.7880 C   0  0  0  0  0  0  0  0  0  0  0  0
    5.9610   -2.0450   15.8450 N   0  0  0  0  0  0  0  0  0  0  0  0
    7.2560   -3.5350   15.6380 O   0  0  0  0  0  0  0  0  0  0  0  0
    6.4800   -2.0550   17.0920 C   0  0  0  0  0  0  0  0  0  0  0  0
    7.3210   -2.9750   17.0450 C   0  0  0  0  0  0  0  0  0  0  0  0
    6.1980   -1.2750   18.2130 C   0  0  0  0  0  0  0  0  0  0  0  0
    8.0540   -3.2340   18.1870 C   0  0  0  0  0  0  0  0  0  0  0  0
    6.8660   -1.5120   19.3790 C   0  0  0  0  0  0  0  0  0  0  0  0
    7.8070   -2.5060   19.3730 C   0  0  0  0  0  0  0  0  0  0  0  0
    8.5460   -2.8410   20.4400 N   0  0  0  0  0  0  0  0  0  0  0  0
    7.9200   -2.8570   21.6420 C   0  0  0  0  0  0  0  0  0  0  0  0
    7.1530   -3.7880   21.8920 O   0  0  0  0  0  0  0  0  0  0  0  0
    8.1420   -1.7620   22.6920 C   0  0  0  0  0  0  0  0  0  0  0  0
    7.6860   -0.4040   22.1560 C   0  0  0  0  0  0  0  0  0  0  0  0
    7.3290   -2.0050   23.9690 C   0  0  0  0  0  0  0  0  0  0  0  0
    8.3010    0.5840   23.1600 C   0  0  0  0  0  0  0  0  0  0  0  0
    7.0710   -0.7000   24.7250 C   0  0  0  0  0  0  0  0  0  0  0  0
    8.1870    0.2260   24.4880 N   0  0  0  0  0  0  0  0  0  0  0  0
    9.4290   -0.3480   25.0510 C   0  0  0  0  0  0  0  0  0  0  0  0
   10.7370   -0.0980   24.3130 C   0  0  0  0  0  0  0  0  0  0  0  0
   11.0280    1.1890   23.8250 C   0  0  0  0  0  0  0  0  0  0  0  0
   11.6710   -1.1320   24.1050 C   0  0  0  0  0  0  0  0  0  0  0  0
   10.1700    2.2030   24.0000 F   0  0  0  0  0  0  0  0  0  0  0  0
   12.2210    1.4290   23.1480 C   0  0  0  0  0  0  0  0  0  0  0  0
   12.8560   -0.8830   23.4280 C   0  0  0  0  0  0  0  0  0  0  0  0
   11.4430   -2.3760   24.5500 F   0  0  0  0  0  0  0  0  0  0  0  0
   13.1280    0.3960   22.9510 C   0  0  0  0  0  0  0  0  0  0  0  0
  1  2  1  0
  2  3  1  0
  3  4  2  0
  3  5  1  0
  4  6  1  0
  5  7  2  0
  6  8  2  0
  7  8  1  0
  7  9  1  0
  8 10  1  0
 10 11  2  0
 10 12  1  0
 11 13  1  0
 12 14  1  0
 13 14  2  0
 13 15  1  0
 14 16  1  0
 15 17  2  0
 16 18  2  0
 17 18  1  0
 18 19  1  0
 19 20  1  0
 20 21  2  0
 20 22  1  0
 22 23  1  0
 22 24  1  0
 23 25  1  0
 24 26  1  0
 25 27  1  0
 26 27  1  0
 27 28  1  0
 28 29  1  0
 29 30  2  0
 29 31  1  0
 30 32  1  0
 30 33  1  0
 31 34  2  0
 31 35  1  0
 33 36  2  0
 34 36  1  0
M  END
