DRE-WAB-eb790b7a-1
     RDKit          3D

 23 24  0  0  0  0  0  0  0  0999 V2000
    5.2870    0.5450   22.1220 C   0  0  0  0  0  0  0  0  0  0  0  0
    5.6350    0.4910   20.6680 C   0  0  0  0  0  0  0  0  0  0  0  0
    4.9450    1.3020   19.6030 C   0  0  0  0  0  0  0  0  0  0  0  0
    6.6740   -0.3840   20.3380 C   0  0  0  0  0  0  0  0  0  0  0  0
    5.4150    1.1320   18.2020 C   0  0  0  0  0  0  0  0  0  0  0  0
    7.0660   -0.4650   18.8520 C   0  0  0  0  0  0  0  0  0  0  0  0
    7.3640   -1.1790   21.2710 N   0  0  0  0  0  0  0  0  0  0  0  0
    6.3580    0.3560   17.8260 N   0  0  0  0  0  0  0  0  0  0  0  0
    8.5500   -0.6680   21.9540 C   0  0  0  0  0  0  0  0  0  0  0  0
    9.0930    0.3750   21.5530 O   0  0  0  0  0  0  0  0  0  0  0  0
    9.0980   -1.4320   23.1680 C   0  0  1  0  0  0  0  0  0  0  0  0
    8.9550   -2.9450   23.4250 C   0  0  0  0  0  0  0  0  0  0  0  0
   10.5460   -1.1290   23.0000 C   0  0  0  0  0  0  0  0  0  0  0  0
    7.8870   -3.2410   24.4400 N   0  0  0  0  0  0  0  0  0  0  0  0
   11.5590   -1.9590   22.5240 C   0  0  0  0  0  0  0  0  0  0  0  0
   10.9200    0.2000   23.3620 C   0  0  0  0  0  0  0  0  0  0  0  0
    8.1180   -4.1460   25.8670 S   0  0  0  0  0  0  0  0  0  0  0  0
   12.9540   -1.5040   22.3960 C   0  0  0  0  0  0  0  0  0  0  0  0
   12.2360    0.6790   23.2600 C   0  0  0  0  0  0  0  0  0  0  0  0
    6.5990   -5.0460   26.0570 C   0  0  0  0  0  0  0  0  0  0  0  0
    9.1810   -5.1050   25.6340 O   0  0  0  0  0  0  0  0  0  0  0  0
    8.2020   -3.1790   26.9420 O   0  0  0  0  0  0  0  0  0  0  0  0
   13.2430   -0.1190   22.7950 C   0  0  0  0  0  0  0  0  0  0  0  0
  1  2  1  0
  2  3  2  0
  2  4  1  0
  3  5  1  0
  4  6  2  0
  4  7  1  0
  5  8  2  0
  6  8  1  0
  7  9  1  0
  9 10  2  0
  9 11  1  0
 11 12  1  6
 11 13  1  0
 12 14  1  0
 13 15  2  0
 13 16  1  0
 17 14  1  0
 15 18  1  0
 16 19  2  0
 17 20  1  0
 17 21  2  0
 17 22  2  0
 18 23  2  0
 19 23  1  0
M  END
