DRE-WAB-ae4a693c-1
     RDKit          3D

 22 23  0  0  0  0  0  0  0  0999 V2000
    9.4110   -0.0310   25.8530 C   0  0  0  0  0  0  0  0  0  0  0  0
    7.6450   -0.1130   25.6400 S   0  0  0  0  0  0  0  0  0  0  0  0
    7.0960    1.2120   25.8200 O   0  0  0  0  0  0  0  0  0  0  0  0
    7.1410   -1.2480   26.3780 O   0  0  0  0  0  0  0  0  0  0  0  0
    7.5340   -0.5250   24.0160 N   0  0  0  0  0  0  0  0  0  0  0  0
    8.2040   -1.7490   23.5440 C   0  0  0  0  0  0  0  0  0  0  0  0
    9.0640   -1.4460   22.2960 C   0  0  1  0  0  0  0  0  0  0  0  0
    8.1950   -0.4800   21.4790 C   0  0  0  0  0  0  0  0  0  0  0  0
   10.3930   -0.8150   22.6010 C   0  0  0  0  0  0  0  0  0  0  0  0
    8.5610    0.6930   21.2890 O   0  0  0  0  0  0  0  0  0  0  0  0
    6.9500   -1.0580   20.9650 N   0  0  0  0  0  0  0  0  0  0  0  0
   10.4060    0.3850   23.3540 C   0  0  0  0  0  0  0  0  0  0  0  0
   11.5910   -1.4070   22.1280 C   0  0  0  0  0  0  0  0  0  0  0  0
    6.3460   -0.1720   19.9650 C   0  0  0  0  0  0  0  0  0  0  0  0
   11.7180    1.0980   23.6710 C   0  0  0  0  0  0  0  0  0  0  0  0
   12.8380   -0.8420   22.3610 C   0  0  0  0  0  0  0  0  0  0  0  0
    5.0270    0.5070   20.2950 C   0  0  0  0  0  0  0  0  0  0  0  0
    6.8910    0.1070   18.7190 C   0  0  0  0  0  0  0  0  0  0  0  0
   12.9840    0.4620   23.1480 C   0  0  0  0  0  0  0  0  0  0  0  0
    4.3900    1.3660   19.4040 C   0  0  0  0  0  0  0  0  0  0  0  0
    6.2760    1.0110   17.7390 N   0  0  0  0  0  0  0  0  0  0  0  0
    5.0200    1.5830   18.1930 C   0  0  0  0  0  0  0  0  0  0  0  0
  1  2  1  0
  2  3  2  0
  2  4  2  0
  2  5  1  0
  5  6  1  0
  7  6  1  1
  7  8  1  0
  7  9  1  0
  8 10  2  0
  8 11  1  0
  9 12  2  0
  9 13  1  0
 11 14  1  0
 12 15  1  0
 13 16  2  0
 14 17  2  0
 14 18  1  0
 15 19  2  0
 16 19  1  0
 17 20  1  0
 18 21  2  0
 20 22  2  0
 21 22  1  0
M  END
