DRV-UNK-7620afc8-1-bromoalkyne
     RDKit          3D

 14 14  0  0  0  0  0  0  0  0999 V2000
    6.3380   -5.0250   20.4580 C   0  0  0  0  0  0  0  0  0  0  0  0
    5.6280   -6.2260   19.9460 C   0  0  0  0  0  0  0  0  0  0  0  0
    6.2710   -4.8000   21.9590 C   0  0  0  0  0  0  0  0  0  0  0  0
    7.4340   -4.1640   22.3840 N   0  0  0  0  0  0  0  0  0  0  0  0
    5.1240   -5.1890   22.9050 C   0  0  0  0  0  0  0  0  0  0  0  0
    7.4520   -3.8950   23.8120 C   0  0  0  0  0  0  0  0  0  0  0  0
    5.2630   -4.8880   24.2160 N   0  0  0  0  0  0  0  0  0  0  0  0
    3.9250   -5.7720   22.7550 N   0  0  0  0  0  0  0  0  0  0  0  0
    6.3360   -4.2720   24.7240 C   0  0  0  0  0  0  0  0  0  0  0  0
    2.8410   -4.9840   23.0610 C   0  0  0  0  0  0  0  0  0  0  0  0
    3.6270   -7.0210   23.8570 S   0  0  0  0  0  0  0  0  0  0  0  0
    2.3100   -7.8170   23.0850 C   0  0  0  0  0  0  0  0  0  0  0  0
    4.7480   -7.8960   23.9230 O   0  0  0  0  0  0  0  0  0  0  0  0
    3.1250   -6.4140   25.0760 O   0  0  0  0  0  0  0  0  0  0  0  0
  1  2  2  3
  1  3  1  0
  3  4  2  0
  3  5  1  0
  4  6  1  0
  5  7  2  0
  5  8  1  0
  6  9  2  0
  7  9  1  0
  8 10  1  0
 11  8  1  0
 11 12  1  0
 11 13  2  0
 11 14  2  0
M  END
