DRV-UNK-dd7f8c68-6
     RDKit          3D

 30 33  0  0  0  0  0  0  0  0999 V2000
    5.5810    3.4940   -6.2450 C   0  0  0  0  0  0  0  0  0  0  0  0
    4.8290    2.6760   -7.2100 C   0  0  0  0  0  0  0  0  0  0  0  0
    4.2930    3.2840   -8.2370 C   0  0  0  0  0  0  0  0  0  0  0  0
    5.7350    1.5570   -7.6830 C   0  0  0  0  0  0  0  0  0  0  0  0
    5.6980    0.5230   -6.8780 N   0  0  0  0  0  0  0  0  0  0  0  0
    5.5930   -0.6150   -7.4790 C   0  0  0  0  0  0  0  0  0  0  0  0
    6.8870    0.3800   -6.0360 C   0  0  0  0  0  0  0  0  0  0  0  0
    5.2730   -1.8540   -6.7090 C   0  0  0  0  0  0  0  0  0  0  0  0
    7.0490   -0.9950   -5.3710 C   0  0  0  0  0  0  0  0  0  0  0  0
    6.4130   -2.1550   -6.0820 N   0  0  0  0  0  0  0  0  0  0  0  0
    7.2090   -2.7180   -7.0120 C   0  0  0  0  0  0  0  0  0  0  0  0
    8.5670   -2.1460   -7.4050 C   0  0  0  0  0  0  0  0  0  0  0  0
    6.8200   -3.9280   -7.7170 C   0  0  0  0  0  0  0  0  0  0  0  0
    9.4430   -2.7920   -8.4370 C   0  0  0  0  0  0  0  0  0  0  0  0
    7.6300   -4.5690   -8.6950 C   0  0  0  0  0  0  0  0  0  0  0  0
    5.2850   -4.8540   -7.5180 S   0  0  0  0  0  0  0  0  0  0  0  0
    8.9010   -4.1200   -9.1170 C   0  0  0  0  0  0  0  0  0  0  0  0
    4.0690   -3.9340   -6.7890 N   0  0  0  0  0  0  0  0  0  0  0  0
    4.8000   -5.0810   -8.8610 O   0  0  0  0  0  0  0  0  0  0  0  0
    5.5570   -6.0330   -6.7370 O   0  0  0  0  0  0  0  0  0  0  0  0
    9.6400   -4.8000  -10.0900 C   0  0  1  0  0  0  0  0  0  0  0  0
   10.8180   -5.3720   -9.7700 N   0  0  0  0  0  0  0  0  0  0  0  0
    8.9880   -6.0010  -10.7280 C   0  0  0  0  0  0  0  0  0  0  0  0
   11.2060   -6.1970  -10.7770 C   0  0  0  0  0  0  0  0  0  0  0  0
   10.0150   -6.8200  -11.1300 C   0  0  0  0  0  0  0  0  0  0  0  0
    7.5390   -6.4670  -11.0030 C   0  0  0  0  0  0  0  0  0  0  0  0
   12.3080   -6.3540  -11.2690 O   0  0  0  0  0  0  0  0  0  0  0  0
    9.7730   -8.1550  -11.8260 C   0  0  0  0  0  0  0  0  0  0  0  0
    7.3560   -7.7190  -11.6550 C   0  0  0  0  0  0  0  0  0  0  0  0
    8.4490   -8.5040  -12.0360 C   0  0  0  0  0  0  0  0  0  0  0  0
  1  2  1  0
  2  3  1  0
  2  4  1  0
  4  5  1  0
  5  6  1  0
  5  7  1  0
  6  8  1  0
  7  9  1  0
  8 10  1  0
  9 10  1  0
 10 11  1  0
 11 12  2  0
 11 13  1  0
 12 14  1  0
 13 15  2  0
 13 16  1  0
 14 17  2  0
 15 17  1  0
 16 18  1  0
 16 19  2  0
 16 20  2  0
 21 17  1  1
 21 22  1  0
 21 23  1  0
 22 24  1  0
 23 25  2  0
 24 25  1  0
 23 26  1  0
 24 27  2  0
 25 28  1  0
 26 29  2  0
 28 30  2  0
 29 30  1  0
M  END
