DRV-UNK-7620afc8-1-chloroacetamide
     RDKit          3D

 15 15  0  0  0  0  0  0  0  0999 V2000
    5.7390   -6.2300   19.7050 C   0  0  0  0  0  0  0  0  0  0  0  0
    5.2800   -5.0550   20.4080 C   0  0  0  0  0  0  0  0  0  0  0  0
    4.8950   -4.1330   19.7080 O   0  0  0  0  0  0  0  0  0  0  0  0
    5.3460   -5.0470   21.9210 C   0  0  0  0  0  0  0  0  0  0  0  0
    6.4860   -4.2840   22.1340 N   0  0  0  0  0  0  0  0  0  0  0  0
    4.4470   -5.6950   23.0080 C   0  0  0  0  0  0  0  0  0  0  0  0
    6.8150   -4.1380   23.5300 C   0  0  0  0  0  0  0  0  0  0  0  0
    4.8740   -5.4610   24.2780 N   0  0  0  0  0  0  0  0  0  0  0  0
    3.3050   -6.4770   23.0540 N   0  0  0  0  0  0  0  0  0  0  0  0
    5.9760   -4.7460   24.5970 C   0  0  0  0  0  0  0  0  0  0  0  0
    1.9670   -6.1330   22.8390 C   0  0  0  0  0  0  0  0  0  0  0  0
    3.2550   -7.2300   24.5810 S   0  0  0  0  0  0  0  0  0  0  0  0
    1.9710   -8.3600   24.4530 C   0  0  0  0  0  0  0  0  0  0  0  0
    4.4450   -7.9940   24.6950 O   0  0  0  0  0  0  0  0  0  0  0  0
    2.8950   -6.2640   25.5960 O   0  0  0  0  0  0  0  0  0  0  0  0
  1  2  1  0
  2  3  2  0
  2  4  1  0
  4  5  2  0
  4  6  1  0
  5  7  1  0
  6  8  2  0
  6  9  1  0
  7 10  2  0
  8 10  1  0
  9 11  1  0
 12  9  1  0
 12 13  1  0
 12 14  2  0
 12 15  2  0
M  END
