DRV-DNY-3e405af9-7
     RDKit          3D

 34 38  0  0  0  0  0  0  0  0999 V2000
    3.6160   -6.1780   24.4870 O   0  0  0  0  0  0  0  0  0  0  0  0
    4.2120   -6.1730   23.3980 N   0  0  0  0  0  0  0  0  0  0  0  0
    3.6540   -6.4520   22.3490 O   0  0  0  0  0  0  0  0  0  0  0  0
    5.2450   -5.2840   23.2960 C   0  0  0  0  0  0  0  0  0  0  0  0
    6.1840   -5.2480   24.4360 C   0  0  0  0  0  0  0  0  0  0  0  0
    5.4380   -4.4330   22.2040 C   0  0  0  0  0  0  0  0  0  0  0  0
    7.3860   -4.3230   24.5360 C   0  0  0  0  0  0  0  0  0  0  0  0
    6.5980   -3.4690   22.2110 C   0  0  0  0  0  0  0  0  0  0  0  0
    7.4990   -3.4130   23.2940 C   0  0  0  0  0  0  0  0  0  0  0  0
    6.6880   -2.6810   21.1200 N   0  0  0  0  0  0  0  0  0  0  0  0
    8.6440   -2.5150   23.4730 N   0  0  0  0  0  0  0  0  0  0  0  0
    7.6980   -1.9840   20.9970 O   0  0  0  0  0  0  0  0  0  0  0  0
    5.8470   -2.8810   20.2360 O   0  0  0  0  0  0  0  0  0  0  0  0
    9.0330   -1.4600   22.7200 N   0  0  0  0  0  0  0  0  0  0  0  0
    9.4880   -2.7330   24.6530 C   0  0  0  0  0  0  0  0  0  0  0  0
   10.2060   -0.9430   23.5010 C   0  0  0  0  0  0  0  0  0  0  0  0
   10.4540   -1.8120   24.6920 C   0  0  0  0  0  0  0  0  0  0  0  0
    9.1580   -3.7420   25.5110 C   0  0  0  0  0  0  0  0  0  0  0  0
   11.0080    0.2880   23.1950 C   0  0  0  0  0  0  0  0  0  0  0  0
    8.0980   -3.3470   26.2950 C   0  0  0  0  0  0  0  0  0  0  0  0
    9.7180   -5.0270   25.6820 C   0  0  0  0  0  0  0  0  0  0  0  0
   12.3830    0.2510   23.0530 C   0  0  0  0  0  0  0  0  0  0  0  0
   10.3340    1.5160   23.0800 C   0  0  0  0  0  0  0  0  0  0  0  0
    7.5610   -4.1600   27.2440 C   0  0  0  0  0  0  0  0  0  0  0  0
    9.1700   -5.8790   26.6540 C   0  0  0  0  0  0  0  0  0  0  0  0
   13.0730    1.4220   22.8080 C   0  0  0  0  0  0  0  0  0  0  0  0
   11.0310    2.6890   22.8360 C   0  0  0  0  0  0  0  0  0  0  0  0
    8.0790   -5.4070   27.4270 C   0  0  0  0  0  0  0  0  0  0  0  0
   12.4150    2.6320   22.7000 C   0  0  0  0  0  0  0  0  0  0  0  0
   10.3350    4.0630   22.7120 C   0  0  0  0  0  0  0  0  0  0  0  0
    7.2900   -6.2920   28.6420 Cl  0  0  0  0  0  0  0  0  0  0  0  0
   13.1650    3.7880   22.4560 C   0  0  0  0  0  0  0  0  0  0  0  0
   11.2420    5.2860   22.4480 C   0  0  0  0  0  0  0  0  0  0  0  0
   12.6070    5.0770   22.3340 C   0  0  0  0  0  0  0  0  0  0  0  0
  1  2  2  0
  2  3  1  0
  2  4  1  0
  4  5  2  0
  4  6  1  0
  5  7  1  0
  6  8  2  0
  7  9  2  0
  8  9  1  0
  8 10  1  0
  9 11  1  0
 10 12  2  0
 10 13  1  0
 11 14  1  0
 11 15  1  0
 14 16  2  0
 15 17  2  0
 16 17  1  0
 15 18  1  0
 16 19  1  0
 18 20  2  0
 18 21  1  0
 19 22  2  0
 19 23  1  0
 20 24  1  0
 21 25  2  0
 22 26  1  0
 23 27  2  0
 24 28  2  0
 25 28  1  0
 26 29  2  0
 27 29  1  0
 27 30  1  0
 28 31  1  0
 29 32  1  0
 30 33  2  0
 32 34  2  0
 33 34  1  0
M  CHG  4   2   1   3  -1  10   1  13  -1
M  END
