DRV-DNY-3e405af9-1
     RDKit          3D

 33 36  0  0  0  0  0  0  0  0999 V2000
   12.9280    4.4150   21.3510 O   0  0  0  0  0  0  0  0  0  0  0  0
   12.2500    4.2830   22.3720 N   0  0  0  0  0  0  0  0  0  0  0  0
   12.0430    5.1900   23.1940 O   0  0  0  0  0  0  0  0  0  0  0  0
   11.5590    3.1140   22.5500 C   0  0  0  0  0  0  0  0  0  0  0  0
   12.3110    1.8410   22.8600 C   0  0  0  0  0  0  0  0  0  0  0  0
   10.1710    3.1020   22.4500 C   0  0  0  0  0  0  0  0  0  0  0  0
   11.6350    0.4740   23.0930 C   0  0  0  0  0  0  0  0  0  0  0  0
    9.4700    1.9160   22.6480 C   0  0  0  0  0  0  0  0  0  0  0  0
   10.1130    0.6980   22.9520 C   0  0  0  0  0  0  0  0  0  0  0  0
    9.4020   -0.6330   23.2390 C   0  0  0  0  0  0  0  0  0  0  0  0
    9.7290   -1.4020   24.4710 C   0  0  0  0  0  0  0  0  0  0  0  0
    8.4170   -1.3170   22.5700 N   0  0  0  0  0  0  0  0  0  0  0  0
    8.9770   -2.5140   24.5740 C   0  0  0  0  0  0  0  0  0  0  0  0
    8.1630   -2.4130   23.3970 N   0  0  0  0  0  0  0  0  0  0  0  0
    8.8230   -3.5510   25.4720 C   0  0  0  0  0  0  0  0  0  0  0  0
    7.1240   -3.3970   23.1780 C   0  0  0  0  0  0  0  0  0  0  0  0
    9.4150   -4.8110   25.3400 C   0  0  0  0  0  0  0  0  0  0  0  0
    8.0070   -3.2600   26.5640 C   0  0  0  0  0  0  0  0  0  0  0  0
    6.7540   -4.1940   24.4530 C   0  0  0  0  0  0  0  0  0  0  0  0
    6.4520   -3.6450   21.9870 C   0  0  0  0  0  0  0  0  0  0  0  0
    9.1970   -5.8080   26.3080 C   0  0  0  0  0  0  0  0  0  0  0  0
    7.7650   -4.3340   27.6150 C   0  0  0  0  0  0  0  0  0  0  0  0
    5.6470   -5.1960   24.3080 C   0  0  0  0  0  0  0  0  0  0  0  0
    5.4250   -4.6070   21.9540 C   0  0  0  0  0  0  0  0  0  0  0  0
    6.8070   -2.9340   20.8900 N   0  0  0  0  0  0  0  0  0  0  0  0
    8.3700   -5.5490   27.4300 C   0  0  0  0  0  0  0  0  0  0  0  0
    5.0420   -5.3440   23.0920 C   0  0  0  0  0  0  0  0  0  0  0  0
    8.1630   -2.5860   20.8220 O   0  0  0  0  0  0  0  0  0  0  0  0
    6.1180   -3.0830   19.8950 O   0  0  0  0  0  0  0  0  0  0  0  0
    8.1450   -6.4700   28.3480 F   0  0  0  0  0  0  0  0  0  0  0  0
    4.0240   -6.1950   22.8810 N   0  0  0  0  0  0  0  0  0  0  0  0
    2.9460   -5.6240   22.6920 O   0  0  0  0  0  0  0  0  0  0  0  0
    4.0730   -7.1990   23.6070 O   0  0  0  0  0  0  0  0  0  0  0  0
  1  2  2  0
  2  3  1  0
  2  4  1  0
  4  5  2  0
  4  6  1  0
  5  7  1  0
  6  8  2  0
  7  9  2  0
  8  9  1  0
  9 10  1  0
 10 11  1  0
 10 12  2  0
 11 13  2  0
 12 14  1  0
 13 14  1  0
 13 15  1  0
 14 16  1  0
 15 17  2  0
 15 18  1  0
 16 19  2  0
 16 20  1  0
 17 21  1  0
 18 22  2  0
 19 23  1  0
 20 24  2  0
 20 25  1  0
 21 26  2  0
 22 26  1  0
 23 27  2  0
 24 27  1  0
 25 28  2  0
 25 29  1  0
 26 30  1  0
 27 31  1  0
 31 32  2  0
 31 33  1  0
M  CHG  6   2   1   3  -1  25   1  29  -1  31   1  33  -1
M  END
