DRV-UNK-dd7f8c68-2-acrylamide
     RDKit          3D

 30 33  0  0  0  0  0  0  0  0999 V2000
    5.8050   -5.2420   21.3240 C   0  0  0  0  0  0  0  0  0  0  0  0
    6.2270   -3.8980   22.1130 C   0  0  0  0  0  0  0  0  0  0  0  0
    4.8440   -3.2870   22.6630 C   0  0  0  0  0  0  0  0  0  0  0  0
    3.4870   -3.2260   22.5400 O   0  0  0  0  0  0  0  0  0  0  0  0
    4.7870   -3.7040   21.4660 N   0  0  0  0  0  0  0  0  0  0  0  0
    4.9980   -3.0520   20.1200 C   0  0  0  0  0  0  0  0  0  0  0  0
    6.0270   -4.2190   21.4230 C   0  0  0  0  0  0  0  0  0  0  0  0
    5.8490   -3.8870   19.0730 C   0  0  0  0  0  0  0  0  0  0  0  0
    5.1610   -4.9560   20.3400 C   0  0  0  0  0  0  0  0  0  0  0  0
    5.6140   -5.4250   19.1460 N   0  0  0  0  0  0  0  0  0  0  0  0
    5.3710   -6.9730   18.5210 C   0  0  0  0  0  0  0  0  0  0  0  0
    5.6910   -7.6230   17.2410 C   0  0  0  0  0  0  0  0  0  0  0  0
    5.2380   -8.2380   17.8770 C   0  0  0  0  0  0  0  0  0  0  0  0
    6.3430   -7.2450   16.1270 C   0  0  0  0  0  0  0  0  0  0  0  0
    5.8780   -7.9100   16.4280 C   0  0  0  0  0  0  0  0  0  0  0  0
    4.7330   -7.5000   19.4160 S   0  0  0  0  0  0  0  0  0  0  0  0
    6.4880   -7.5980   15.0470 C   0  0  0  0  0  0  0  0  0  0  0  0
    5.6330   -7.0290   17.9750 N   0  0  0  0  0  0  0  0  0  0  0  0
    3.4260   -8.4380   19.2350 O   0  0  0  0  0  0  0  0  0  0  0  0
    4.9420   -6.0750   19.8420 O   0  0  0  0  0  0  0  0  0  0  0  0
    7.2700   -5.5020   14.5120 C   0  0  2  0  0  0  0  0  0  0  0  0
    7.5950   -4.4280   14.7720 N   0  0  0  0  0  0  0  0  0  0  0  0
    6.8940   -4.0780   13.4360 C   0  0  0  0  0  0  0  0  0  0  0  0
    6.8710   -4.0610   13.4660 C   0  0  0  0  0  0  0  0  0  0  0  0
    7.7550   -4.8100   12.4490 C   0  0  0  0  0  0  0  0  0  0  0  0
    6.1420   -3.5450   14.4520 C   0  0  0  0  0  0  0  0  0  0  0  0
    5.8310   -3.6550   13.2330 O   0  0  0  0  0  0  0  0  0  0  0  0
    8.0420   -4.1290   11.2830 C   0  0  0  0  0  0  0  0  0  0  0  0
    6.9890   -4.3150   13.5110 C   0  0  0  0  0  0  0  0  0  0  0  0
    7.2840   -3.2590   11.8220 C   0  0  0  0  0  0  0  0  0  0  0  0
  1  2  1  0
  2  3  1  0
  3  4  2  0
  3  5  1  0
  5  6  1  0
  5  7  1  0
  6  8  1  0
  7  9  1  0
  8 10  1  0
  9 10  1  0
 10 11  1  0
 11 12  2  0
 11 13  1  0
 12 14  1  0
 13 15  2  0
 13 16  1  0
 14 17  2  0
 15 17  1  0
 16 18  1  0
 16 19  2  0
 16 20  2  0
 21 17  1  1
 21 22  1  0
 21 23  1  0
 22 24  1  0
 23 25  2  0
 24 25  1  0
 23 26  1  0
 24 27  2  0
 25 28  1  0
 26 29  2  0
 28 30  2  0
 29 30  1  0
M  END
