DRV-DNY-3e405af9-2
     RDKit          3D

 34 38  0  0  0  0  0  0  0  0999 V2000
    4.3410   -6.6090   22.3120 O   0  0  0  0  0  0  0  0  0  0  0  0
    5.3180   -6.3680   21.5880 N   0  0  0  0  0  0  0  0  0  0  0  0
    5.3520   -6.5520   20.3710 O   0  0  0  0  0  0  0  0  0  0  0  0
    6.0700   -5.3510   21.9870 C   0  0  0  0  0  0  0  0  0  0  0  0
    7.1850   -5.6000   22.9310 C   0  0  0  0  0  0  0  0  0  0  0  0
    5.7850   -4.1030   21.5090 C   0  0  0  0  0  0  0  0  0  0  0  0
    8.1030   -4.5050   23.4590 C   0  0  0  0  0  0  0  0  0  0  0  0
    6.6270   -2.9730   21.9660 C   0  0  0  0  0  0  0  0  0  0  0  0
    7.6850   -3.1460   22.8620 C   0  0  0  0  0  0  0  0  0  0  0  0
    6.2960   -1.7800   21.4560 N   0  0  0  0  0  0  0  0  0  0  0  0
    8.4920   -2.0400   23.3410 N   0  0  0  0  0  0  0  0  0  0  0  0
    7.2190   -1.0810   21.0420 O   0  0  0  0  0  0  0  0  0  0  0  0
    5.1030   -1.5920   21.2090 O   0  0  0  0  0  0  0  0  0  0  0  0
    8.7430   -0.8620   22.7270 N   0  0  0  0  0  0  0  0  0  0  0  0
    9.0930   -2.1500   24.6510 C   0  0  0  0  0  0  0  0  0  0  0  0
    9.5660   -0.1110   23.7340 C   0  0  0  0  0  0  0  0  0  0  0  0
    9.7670   -0.9990   24.9330 C   0  0  0  0  0  0  0  0  0  0  0  0
    8.8850   -3.2920   25.3920 C   0  0  0  0  0  0  0  0  0  0  0  0
   10.0460    1.3240   23.5280 C   0  0  0  0  0  0  0  0  0  0  0  0
    7.9230   -3.1360   26.3720 C   0  0  0  0  0  0  0  0  0  0  0  0
    9.5490   -4.5330   25.2410 C   0  0  0  0  0  0  0  0  0  0  0  0
    9.0720    2.3180   23.7160 C   0  0  0  0  0  0  0  0  0  0  0  0
   11.3500    1.7220   23.1800 C   0  0  0  0  0  0  0  0  0  0  0  0
    7.6100   -4.1780   27.2070 C   0  0  0  0  0  0  0  0  0  0  0  0
    9.2350   -5.5990   26.0880 C   0  0  0  0  0  0  0  0  0  0  0  0
    9.3580    3.6690   23.5710 C   0  0  0  0  0  0  0  0  0  0  0  0
   11.6350    3.0930   23.0330 C   0  0  0  0  0  0  0  0  0  0  0  0
    8.2570   -5.3780   27.0640 C   0  0  0  0  0  0  0  0  0  0  0  0
   10.6250    4.0620   23.2340 C   0  0  0  0  0  0  0  0  0  0  0  0
   13.0330    3.6090   22.6560 C   0  0  0  0  0  0  0  0  0  0  0  0
    7.9090   -6.3120   27.8940 F   0  0  0  0  0  0  0  0  0  0  0  0
   10.8700    5.4410   23.1020 C   0  0  0  0  0  0  0  0  0  0  0  0
   13.2230    5.1300   22.5300 C   0  0  0  0  0  0  0  0  0  0  0  0
   12.1360    5.9590   22.7610 C   0  0  0  0  0  0  0  0  0  0  0  0
  1  2  2  0
  2  3  1  0
  2  4  1  0
  4  5  2  0
  4  6  1  0
  5  7  1  0
  6  8  2  0
  7  9  2  0
  8  9  1  0
  8 10  1  0
  9 11  1  0
 10 12  2  0
 10 13  1  0
 11 14  1  0
 11 15  1  0
 14 16  2  0
 15 17  2  0
 16 17  1  0
 15 18  1  0
 16 19  1  0
 18 20  2  0
 18 21  1  0
 19 22  2  0
 19 23  1  0
 20 24  1  0
 21 25  2  0
 22 26  1  0
 23 27  2  0
 24 28  2  0
 25 28  1  0
 26 29  2  0
 27 29  1  0
 27 30  1  0
 28 31  1  0
 29 32  1  0
 30 33  2  0
 32 34  2  0
 33 34  1  0
M  CHG  4   2   1   3  -1  10   1  13  -1
M  END
