DRV-UNK-7620afc8-1-acrylamide
     RDKit          3D

 16 16  0  0  0  0  0  0  0  0999 V2000
    6.0450   -5.3960   20.2520 C   0  0  0  0  0  0  0  0  0  0  0  0
    5.3480   -6.4070   21.2190 C   0  0  0  0  0  0  0  0  0  0  0  0
    4.3310   -5.8410   22.1920 C   0  0  0  0  0  0  0  0  0  0  0  0
    3.1030   -5.8680   22.1660 O   0  0  0  0  0  0  0  0  0  0  0  0
    4.9100   -5.1670   23.2490 C   0  0  0  0  0  0  0  0  0  0  0  0
    6.0560   -4.5600   22.8510 N   0  0  0  0  0  0  0  0  0  0  0  0
    4.3870   -5.1370   24.4960 C   0  0  0  0  0  0  0  0  0  0  0  0
    6.7720   -3.8520   23.7320 C   0  0  0  0  0  0  0  0  0  0  0  0
    5.0830   -4.3990   25.5060 N   0  0  0  0  0  0  0  0  0  0  0  0
    3.1920   -5.7810   24.9130 N   0  0  0  0  0  0  0  0  0  0  0  0
    6.2850   -3.7430   25.1420 C   0  0  0  0  0  0  0  0  0  0  0  0
    1.9700   -5.7600   24.2580 C   0  0  0  0  0  0  0  0  0  0  0  0
    3.5480   -7.3030   25.5730 S   0  0  0  0  0  0  0  0  0  0  0  0
    2.0410   -7.8430   26.1850 C   0  0  0  0  0  0  0  0  0  0  0  0
    3.8980   -8.1200   24.4440 O   0  0  0  0  0  0  0  0  0  0  0  0
    4.4570   -7.1480   26.6850 O   0  0  0  0  0  0  0  0  0  0  0  0
  1  2  1  0
  2  3  1  0
  3  4  2  0
  3  5  1  0
  5  6  2  0
  5  7  1  0
  6  8  1  0
  7  9  2  0
  7 10  1  0
  8 11  2  0
  9 11  1  0
 10 12  1  0
 13 10  1  0
 13 14  1  0
 13 15  2  0
 13 16  2  0
M  END
