DRV-DNY-3e405af9-4
     RDKit          3D

 30 33  0  0  0  0  0  0  0  0999 V2000
    2.9200   -7.7270   26.6900 O   0  0  0  0  0  0  0  0  0  0  0  0
    3.6850   -7.9080   25.6150 N   0  0  0  0  0  0  0  0  0  0  0  0
    3.4790   -8.8690   24.8610 O   0  0  0  0  0  0  0  0  0  0  0  0
    4.5310   -6.9890   25.1890 C   0  0  0  0  0  0  0  0  0  0  0  0
    6.0320   -7.5370   24.6500 C   0  0  0  0  0  0  0  0  0  0  0  0
    4.2020   -5.4660   25.1950 C   0  0  0  0  0  0  0  0  0  0  0  0
    7.1670   -6.6120   24.0890 C   0  0  0  0  0  0  0  0  0  0  0  0
    5.1870   -4.5920   24.6950 C   0  0  0  0  0  0  0  0  0  0  0  0
    6.2520   -5.6790   24.3690 C   0  0  0  0  0  0  0  0  0  0  0  0
    4.9440   -3.3080   24.6930 N   0  0  0  0  0  0  0  0  0  0  0  0
    7.2240   -4.9490   24.0180 N   0  0  0  0  0  0  0  0  0  0  0  0
    5.0900   -2.7540   23.5910 O   0  0  0  0  0  0  0  0  0  0  0  0
    4.8960   -2.7920   25.9010 O   0  0  0  0  0  0  0  0  0  0  0  0
    7.1010   -3.9990   23.1970 N   0  0  0  0  0  0  0  0  0  0  0  0
    8.4950   -5.3970   24.7740 C   0  0  0  0  0  0  0  0  0  0  0  0
    8.2030   -3.5580   23.2440 C   0  0  0  0  0  0  0  0  0  0  0  0
    9.0090   -4.3690   24.1100 C   0  0  0  0  0  0  0  0  0  0  0  0
    9.8730   -5.0430   24.9640 C   0  0  0  0  0  0  0  0  0  0  0  0
    8.1240   -2.5580   22.4160 C   0  0  0  0  0  0  0  0  0  0  0  0
   10.2850   -3.6270   24.3830 C   0  0  0  0  0  0  0  0  0  0  0  0
   10.8560   -5.8160   25.5180 C   0  0  0  0  0  0  0  0  0  0  0  0
    6.8360   -2.5420   21.8050 C   0  0  0  0  0  0  0  0  0  0  0  0
    9.0970   -1.7150   22.2400 N   0  0  0  0  0  0  0  0  0  0  0  0
   11.7410   -3.1330   24.5490 C   0  0  0  0  0  0  0  0  0  0  0  0
   12.1690   -5.4800   25.6880 C   0  0  0  0  0  0  0  0  0  0  0  0
    6.5700   -1.5260   20.9450 C   0  0  0  0  0  0  0  0  0  0  0  0
    8.7650   -0.6780   21.3170 C   0  0  0  0  0  0  0  0  0  0  0  0
   12.6130   -4.2480   25.2830 C   0  0  0  0  0  0  0  0  0  0  0  0
    7.5320   -0.5980   20.6560 C   0  0  0  0  0  0  0  0  0  0  0  0
   13.9340   -3.9210   25.3860 F   0  0  0  0  0  0  0  0  0  0  0  0
  1  2  2  0
  2  3  1  0
  2  4  1  0
  4  5  2  0
  4  6  1  0
  5  7  1  0
  6  8  2  0
  7  9  2  0
  8  9  1  0
  8 10  1  0
  9 11  1  0
 10 12  2  0
 10 13  1  0
 11 14  1  0
 11 15  1  0
 14 16  2  0
 15 17  2  0
 16 17  1  0
 15 18  1  0
 16 19  1  0
 18 20  2  0
 18 21  1  0
 19 22  2  0
 19 23  1  0
 20 24  1  0
 21 25  2  0
 22 26  1  0
 23 27  2  0
 24 28  2  0
 25 28  1  0
 26 29  2  0
 27 29  1  0
 28 30  1  0
M  CHG  4   2   1   3  -1  10   1  13  -1
M  END
