DRV-DNY-3e405af9-6
     RDKit          3D

 30 33  0  0  0  0  0  0  0  0999 V2000
   15.4910   -4.4270   25.5580 O   0  0  0  0  0  0  0  0  0  0  0  0
   14.9500   -3.3110   25.6820 N   0  0  0  0  0  0  0  0  0  0  0  0
   15.3170   -2.3980   26.4040 O   0  0  0  0  0  0  0  0  0  0  0  0
   13.6970   -3.2330   25.2860 C   0  0  0  0  0  0  0  0  0  0  0  0
   12.7180   -3.9290   26.1400 C   0  0  0  0  0  0  0  0  0  0  0  0
   13.3620   -2.5530   24.1550 C   0  0  0  0  0  0  0  0  0  0  0  0
   11.2300   -4.0070   25.8730 C   0  0  0  0  0  0  0  0  0  0  0  0
   12.0510   -2.5250   23.7820 C   0  0  0  0  0  0  0  0  0  0  0  0
   10.9430   -3.2390   24.5900 C   0  0  0  0  0  0  0  0  0  0  0  0
   11.9060   -1.7970   22.6300 N   0  0  0  0  0  0  0  0  0  0  0  0
    9.6080   -3.1920   24.1160 N   0  0  0  0  0  0  0  0  0  0  0  0
   10.9070   -1.0750   22.5590 O   0  0  0  0  0  0  0  0  0  0  0  0
   12.8050   -1.9150   21.7790 O   0  0  0  0  0  0  0  0  0  0  0  0
    9.3780   -2.6150   22.9450 N   0  0  0  0  0  0  0  0  0  0  0  0
    8.3840   -3.7410   24.7830 C   0  0  0  0  0  0  0  0  0  0  0  0
    7.9490   -2.7870   22.8100 C   0  0  0  0  0  0  0  0  0  0  0  0
    7.3670   -3.5230   24.0160 C   0  0  0  0  0  0  0  0  0  0  0  0
    8.1680   -4.4420   26.0780 C   0  0  0  0  0  0  0  0  0  0  0  0
    7.2510   -2.2890   21.6480 C   0  0  0  0  0  0  0  0  0  0  0  0
    9.2720   -5.0600   26.8800 C   0  0  0  0  0  0  0  0  0  0  0  0
    6.8140   -4.4670   26.4580 C   0  0  0  0  0  0  0  0  0  0  0  0
    6.1110   -2.9080   21.1850 C   0  0  0  0  0  0  0  0  0  0  0  0
    7.8590   -1.0670   21.0080 C   0  0  0  0  0  0  0  0  0  0  0  0
    8.7880   -5.7200   28.1560 C   0  0  0  0  0  0  0  0  0  0  0  0
    6.3750   -5.0660   27.6080 C   0  0  0  0  0  0  0  0  0  0  0  0
    5.4320   -2.4520   20.0830 C   0  0  0  0  0  0  0  0  0  0  0  0
    7.1710   -0.6030   19.9020 C   0  0  0  0  0  0  0  0  0  0  0  0
    7.2770   -5.6690   28.4340 C   0  0  0  0  0  0  0  0  0  0  0  0
    5.9690   -1.2620   19.4190 N   0  0  0  0  0  0  0  0  0  0  0  0
    6.8220   -6.2640   29.5690 F   0  0  0  0  0  0  0  0  0  0  0  0
  1  2  2  0
  2  3  1  0
  2  4  1  0
  4  5  2  0
  4  6  1  0
  5  7  1  0
  6  8  2  0
  7  9  2  0
  8  9  1  0
  8 10  1  0
  9 11  1  0
 10 12  2  0
 10 13  1  0
 11 14  1  0
 11 15  1  0
 14 16  2  0
 15 17  2  0
 16 17  1  0
 15 18  1  0
 16 19  1  0
 18 20  2  0
 18 21  1  0
 19 22  2  0
 19 23  1  0
 20 24  1  0
 21 25  2  0
 22 26  1  0
 23 27  2  0
 24 28  2  0
 25 28  1  0
 26 29  2  0
 27 29  1  0
 28 30  1  0
M  CHG  4   2   1   3  -1  10   1  13  -1
M  END
