DRV-UNK-64047f27-7
     RDKit          3D

 30 33  0  0  0  0  0  0  0  0999 V2000
    4.1930    6.2540   -7.1180 C   0  0  0  0  0  0  0  0  0  0  0  0
    5.1400    5.1580   -7.0170 C   0  0  0  0  0  0  0  0  0  0  0  0
    4.9060    4.1680   -7.8900 C   0  0  2  0  0  0  0  0  0  0  0  0
    3.8280    4.3680   -8.6770 C   0  0  0  0  0  0  0  0  0  0  0  0
    4.7590    2.9000   -7.1940 N   0  0  0  0  0  0  0  0  0  0  0  0
    4.4650    2.1580   -8.2220 C   0  0  0  0  0  0  0  0  0  0  0  0
    5.9550    2.3360   -6.6480 C   0  0  0  0  0  0  0  0  0  0  0  0
    5.1690    0.8990   -8.5470 C   0  0  0  0  0  0  0  0  0  0  0  0
    5.7910    1.0900   -6.1900 C   0  0  0  0  0  0  0  0  0  0  0  0
    5.5260    0.1650   -7.3430 N   0  0  0  0  0  0  0  0  0  0  0  0
    6.3370   -0.9580   -7.4330 C   0  0  0  0  0  0  0  0  0  0  0  0
    7.7550   -0.8540   -7.0330 C   0  0  0  0  0  0  0  0  0  0  0  0
    5.8850   -2.2120   -7.8830 C   0  0  0  0  0  0  0  0  0  0  0  0
    8.5880   -1.9610   -7.0990 C   0  0  0  0  0  0  0  0  0  0  0  0
    6.7640   -3.3020   -7.9370 C   0  0  0  0  0  0  0  0  0  0  0  0
    4.2070   -2.5480   -8.4050 S   0  0  0  0  0  0  0  0  0  0  0  0
    8.1100   -3.1880   -7.5470 C   0  0  0  0  0  0  0  0  0  0  0  0
    4.2690   -3.8760   -9.4230 N   0  0  0  0  0  0  0  0  0  0  0  0
    3.7320   -1.4280   -9.1780 O   0  0  0  0  0  0  0  0  0  0  0  0
    3.4810   -3.0170   -7.2520 O   0  0  0  0  0  0  0  0  0  0  0  0
    8.9880   -4.2700   -7.5790 C   0  0  1  0  0  0  0  0  0  0  0  0
    8.5400   -5.4950   -8.3040 N   0  0  0  0  0  0  0  0  0  0  0  0
   10.3970   -4.0360   -8.0980 C   0  0  0  0  0  0  0  0  0  0  0  0
    9.6260   -5.9730   -9.0050 C   0  0  0  0  0  0  0  0  0  0  0  0
   10.6950   -5.1150   -8.9400 C   0  0  0  0  0  0  0  0  0  0  0  0
   11.3890   -3.0540   -7.9300 C   0  0  0  0  0  0  0  0  0  0  0  0
    9.6140   -7.0140   -9.6230 O   0  0  0  0  0  0  0  0  0  0  0  0
   11.9270   -5.2500   -9.6090 C   0  0  0  0  0  0  0  0  0  0  0  0
   12.6440   -3.0670   -8.5340 C   0  0  0  0  0  0  0  0  0  0  0  0
   12.9520   -4.1310   -9.3690 C   0  0  0  0  0  0  0  0  0  0  0  0
  1  2  1  0
  2  3  1  0
  3  4  1  1
  3  5  1  0
  5  6  1  0
  5  7  1  0
  6  8  1  0
  7  9  1  0
  8 10  1  0
  9 10  1  0
 10 11  1  0
 11 12  2  0
 11 13  1  0
 12 14  1  0
 13 15  2  0
 13 16  1  0
 14 17  2  0
 15 17  1  0
 16 18  1  0
 16 19  2  0
 16 20  2  0
 21 17  1  6
 21 22  1  0
 21 23  1  0
 22 24  1  0
 23 25  2  0
 24 25  1  0
 23 26  1  0
 24 27  2  0
 25 28  1  0
 26 29  2  0
 28 30  2  0
 29 30  1  0
M  END
