DRV-UNK-dd7f8c68-2-bromoalkyne
     RDKit          3D

 28 31  0  0  0  0  0  0  0  0999 V2000
    8.6480   -4.2210   15.0980 C   0  0  0  0  0  0  0  0  0  0  0  0
    7.0750   -3.7400   15.2400 C   0  0  0  0  0  0  0  0  0  0  0  0
    8.4670   -3.1830   10.6940 N   0  0  0  0  0  0  0  0  0  0  0  0
    8.5080   -1.6110    7.8870 C   0  0  0  0  0  0  0  0  0  0  0  0
    8.5590   -3.3310    8.0930 C   0  0  0  0  0  0  0  0  0  0  0  0
    8.0600   -0.6760    4.8170 C   0  0  0  0  0  0  0  0  0  0  0  0
    8.4940   -2.5100    5.4130 C   0  0  0  0  0  0  0  0  0  0  0  0
    7.6510   -1.1560    3.1530 N   0  0  0  0  0  0  0  0  0  0  0  0
    7.3640   -1.0590   -0.0530 C   0  0  0  0  0  0  0  0  0  0  0  0
    7.2020   -1.0030   -1.8660 C   0  0  0  0  0  0  0  0  0  0  0  0
    7.3160   -0.3320   -1.8720 C   0  0  0  0  0  0  0  0  0  0  0  0
    7.2850   -0.0250   -3.1980 C   0  0  0  0  0  0  0  0  0  0  0  0
    7.0460   -1.6290   -2.9670 C   0  0  0  0  0  0  0  0  0  0  0  0
    7.2420    0.2140   -3.7280 S   0  0  0  0  0  0  0  0  0  0  0  0
    7.0940   -0.9750   -4.3310 C   0  0  0  0  0  0  0  0  0  0  0  0
    8.3290    1.4610   -3.2930 N   0  0  0  0  0  0  0  0  0  0  0  0
    6.2580    1.2220   -4.0610 O   0  0  0  0  0  0  0  0  0  0  0  0
    7.9660   -0.6580   -4.6290 O   0  0  0  0  0  0  0  0  0  0  0  0
    6.8840   -2.1220   -5.3600 C   0  0  2  0  0  0  0  0  0  0  0  0
    7.6830   -1.8700   -6.5710 N   0  0  0  0  0  0  0  0  0  0  0  0
    5.5170   -2.5290   -5.7190 C   0  0  0  0  0  0  0  0  0  0  0  0
    7.3760   -3.0590   -7.2740 C   0  0  0  0  0  0  0  0  0  0  0  0
    6.0720   -3.1350   -6.9030 C   0  0  0  0  0  0  0  0  0  0  0  0
    4.2880   -3.0820   -6.3350 C   0  0  0  0  0  0  0  0  0  0  0  0
    8.0620   -3.7960   -8.0010 O   0  0  0  0  0  0  0  0  0  0  0  0
    5.1010   -3.7080   -7.5410 C   0  0  0  0  0  0  0  0  0  0  0  0
    3.9140   -3.9780   -7.6960 C   0  0  0  0  0  0  0  0  0  0  0  0
    5.0920   -4.3810   -8.6250 C   0  0  0  0  0  0  0  0  0  0  0  0
  1  2  2  3
  1  3  1  0
  3  4  1  0
  3  5  1  0
  4  6  1  0
  5  7  1  0
  6  8  1  0
  7  8  1  0
  8  9  1  0
  9 10  2  0
  9 11  1  0
 10 12  1  0
 11 13  2  0
 11 14  1  0
 12 15  2  0
 13 15  1  0
 14 16  1  0
 14 17  2  0
 14 18  2  0
 19 15  1  1
 19 20  1  0
 19 21  1  0
 20 22  1  0
 21 23  2  0
 22 23  1  0
 21 24  1  0
 22 25  2  0
 23 26  1  0
 24 27  2  0
 26 28  2  0
 27 28  1  0
M  END
