DRV-UNK-64047f27-1
     RDKit          3D

 30 33  0  0  0  0  0  0  0  0999 V2000
   10.0460    0.5040   14.2050 C   0  0  0  0  0  0  0  0  0  0  0  0
   10.0610    0.1910   12.7850 C   0  0  0  0  0  0  0  0  0  0  0  0
    8.9990    0.5760   11.9560 C   0  0  0  0  0  0  0  0  0  0  0  0
   11.0750    0.5570   11.7860 C   0  0  0  0  0  0  0  0  0  0  0  0
   10.7180    0.1550   10.5260 N   0  0  0  0  0  0  0  0  0  0  0  0
   11.6020   -0.1060    9.7740 C   0  0  0  0  0  0  0  0  0  0  0  0
    9.4360   -0.1990    9.9020 C   0  0  0  0  0  0  0  0  0  0  0  0
   11.4340   -0.1780    8.2590 C   0  0  0  0  0  0  0  0  0  0  0  0
    9.2930   -0.0150    8.3290 C   0  0  0  0  0  0  0  0  0  0  0  0
   10.5900    0.2710    7.5450 N   0  0  0  0  0  0  0  0  0  0  0  0
   10.6440    0.4230    6.1040 C   0  0  0  0  0  0  0  0  0  0  0  0
   11.3770    1.5150    5.2480 C   0  0  0  0  0  0  0  0  0  0  0  0
    9.9630   -0.4740    5.4190 C   0  0  0  0  0  0  0  0  0  0  0  0
   11.0010    1.5290    3.7560 C   0  0  0  0  0  0  0  0  0  0  0  0
    9.5990   -0.5990    3.9470 C   0  0  0  0  0  0  0  0  0  0  0  0
    9.4380   -1.5500    6.5050 S   0  0  0  0  0  0  0  0  0  0  0  0
    9.9970    0.6460    2.8920 C   0  0  0  0  0  0  0  0  0  0  0  0
    8.9780   -2.2220    5.0990 N   0  0  0  0  0  0  0  0  0  0  0  0
    8.5710   -0.6490    7.2380 O   0  0  0  0  0  0  0  0  0  0  0  0
   10.4760   -2.2260    7.0810 O   0  0  0  0  0  0  0  0  0  0  0  0
    8.7010    1.2470    0.3050 C   0  0  1  0  0  0  0  0  0  0  0  0
    8.2070    2.8230    0.0270 N   0  0  0  0  0  0  0  0  0  0  0  0
    8.6900    0.6740   -1.2990 C   0  0  0  0  0  0  0  0  0  0  0  0
    7.8170    3.1350   -1.2920 C   0  0  0  0  0  0  0  0  0  0  0  0
    8.0440    1.7810   -2.0370 C   0  0  0  0  0  0  0  0  0  0  0  0
    9.1430   -0.5130   -2.2270 C   0  0  0  0  0  0  0  0  0  0  0  0
    7.3560    4.1860   -1.6780 O   0  0  0  0  0  0  0  0  0  0  0  0
    7.6730    1.7420   -3.2820 C   0  0  0  0  0  0  0  0  0  0  0  0
    8.7600   -0.5170   -3.7130 C   0  0  0  0  0  0  0  0  0  0  0  0
    7.8880    0.6490   -4.2270 C   0  0  0  0  0  0  0  0  0  0  0  0
  1  2  1  0
  2  3  1  0
  2  4  1  0
  4  5  1  0
  5  6  1  0
  5  7  1  0
  6  8  1  0
  7  9  1  0
  8 10  1  0
  9 10  1  0
 10 11  1  0
 11 12  2  0
 11 13  1  0
 12 14  1  0
 13 15  2  0
 13 16  1  0
 14 17  2  0
 15 17  1  0
 16 18  1  0
 16 19  2  0
 16 20  2  0
 21 17  1  6
 21 22  1  0
 21 23  1  0
 22 24  1  0
 23 25  2  0
 24 25  1  0
 23 26  1  0
 24 27  2  0
 25 28  1  0
 26 29  2  0
 28 30  2  0
 29 30  1  0
M  END
