DUN-NEW-f8ce3686-25-chloroacetamide
     RDKit          3D

 23 24  0  0  0  0  0  0  0  0999 V2000
    7.0070   -3.2870   19.3180 C   0  0  0  0  0  0  0  0  0  0  0  0
    6.2570   -4.1210   20.3070 C   0  0  0  0  0  0  0  0  0  0  0  0
    5.2890   -4.7750   19.9500 O   0  0  0  0  0  0  0  0  0  0  0  0
    6.7280   -4.1620   21.6000 N   0  0  0  0  0  0  0  0  0  0  0  0
    7.5690   -3.1080   22.1660 C   0  0  0  0  0  0  0  0  0  0  0  0
    6.4720   -5.3540   22.4030 C   0  0  0  0  0  0  0  0  0  0  0  0
    7.4470   -3.0530   23.6610 C   0  0  0  0  0  0  0  0  0  0  0  0
    5.7830   -5.0000   23.5650 C   0  0  0  0  0  0  0  0  0  0  0  0
    6.4890   -3.8530   24.3240 C   0  0  0  0  0  0  0  0  0  0  0  0
    5.4890   -3.1530   25.0100 C   0  0  0  0  0  0  0  0  0  0  0  0
    6.0590   -2.3740   26.1710 N   0  0  0  0  0  0  0  0  0  0  0  0
    6.1170   -3.0190   27.5060 C   0  0  0  0  0  0  0  0  0  0  0  0
    7.1120   -1.0300   25.9530 S   0  0  0  0  0  0  0  0  0  0  0  0
    7.5360   -2.9210   27.8770 C   0  0  0  0  0  0  0  0  0  0  0  0
    6.2900   -0.1430   24.6440 C   0  0  0  0  0  0  0  0  0  0  0  0
    7.0700   -0.2060   27.1380 O   0  0  0  0  0  0  0  0  0  0  0  0
    8.3790   -1.4990   25.4340 O   0  0  0  0  0  0  0  0  0  0  0  0
    8.1290   -3.9880   27.3330 C   0  0  0  0  0  0  0  0  0  0  0  0
    7.8100   -4.5970   26.0330 C   0  0  0  0  0  0  0  0  0  0  0  0
    9.0350   -4.4300   28.1590 C   0  0  0  0  0  0  0  0  0  0  0  0
    8.6180   -5.8040   25.7240 C   0  0  0  0  0  0  0  0  0  0  0  0
    9.7170   -5.5090   27.8290 C   0  0  0  0  0  0  0  0  0  0  0  0
    9.5460   -6.2190   26.6480 C   0  0  0  0  0  0  0  0  0  0  0  0
  1  2  1  0
  2  3  2  0
  2  4  1  0
  4  5  1  0
  4  6  1  0
  5  7  1  0
  6  8  1  0
  7  9  1  0
  8  9  1  0
  9 10  1  0
 10 11  1  0
 11 12  1  0
 13 11  1  0
 12 14  1  0
 13 15  1  0
 13 16  2  0
 13 17  2  0
 14 18  1  0
 18 19  2  0
 18 20  1  0
 19 21  1  0
 20 22  2  0
 21 23  2  0
 22 23  1  0
M  END
