DUN-NEW-f8ce3686-19
     RDKit          3D

 27 29  0  0  0  0  0  0  0  0999 V2000
    4.2300   -2.3840   23.8910 C   0  0  0  0  0  0  0  0  0  0  0  0
    3.3970   -3.4400   24.3970 N   0  0  0  0  0  0  0  0  0  0  0  0
    2.2380   -3.1400   25.0680 C   0  0  0  0  0  0  0  0  0  0  0  0
    3.5880   -4.8190   24.3140 C   0  0  0  0  0  0  0  0  0  0  0  0
    1.6400   -4.3030   25.4310 C   0  0  0  0  0  0  0  0  0  0  0  0
    2.4600   -5.3620   24.9740 C   0  0  0  0  0  0  0  0  0  0  0  0
    4.5950   -5.6870   23.7530 C   0  0  0  0  0  0  0  0  0  0  0  0
    2.3060   -6.7490   25.0870 C   0  0  0  0  0  0  0  0  0  0  0  0
    4.3730   -7.0640   23.9100 C   0  0  0  0  0  0  0  0  0  0  0  0
    5.8000   -5.2740   23.0620 N   0  0  0  0  0  0  0  0  0  0  0  0
    3.2610   -7.5900   24.5550 C   0  0  0  0  0  0  0  0  0  0  0  0
    6.4710   -6.3510   22.2440 C   0  0  0  0  0  0  0  0  0  0  0  0
    6.5850   -4.3470   23.7740 C   0  0  0  0  0  0  0  0  0  0  0  0
    6.8140   -5.9050   20.7940 C   0  0  0  0  0  0  0  0  0  0  0  0
    7.4240   -4.7210   24.5760 O   0  0  0  0  0  0  0  0  0  0  0  0
    6.3610   -2.8480   23.5310 C   0  0  0  0  0  0  0  0  0  0  0  0
    8.3310   -6.0240   20.3960 N   0  0  0  0  0  0  0  0  0  0  0  0
    7.2830   -1.8750   24.2460 C   0  0  0  0  0  0  0  0  0  0  0  0
    9.5060   -5.6980   19.0410 S   0  0  0  0  0  0  0  0  0  0  0  0
    7.0130   -1.4560   25.5530 C   0  0  0  0  0  0  0  0  0  0  0  0
    8.4260   -1.3490   23.6460 C   0  0  0  0  0  0  0  0  0  0  0  0
   11.1530   -5.1820   19.5380 C   0  0  0  0  0  0  0  0  0  0  0  0
    9.5320   -4.5300   18.2400 O   0  0  0  0  0  0  0  0  0  0  0  0
    9.2590   -6.8230   18.3180 O   0  0  0  0  0  0  0  0  0  0  0  0
    7.8660   -0.5580   26.1900 C   0  0  0  0  0  0  0  0  0  0  0  0
    9.2730   -0.4790   24.2380 N   0  0  0  0  0  0  0  0  0  0  0  0
    8.9740   -0.1050   25.4940 C   0  0  0  0  0  0  0  0  0  0  0  0
  1  2  1  0
  2  3  1  0
  2  4  1  0
  3  5  2  0
  4  6  2  0
  5  6  1  0
  4  7  1  0
  6  8  1  0
  7  9  2  0
  7 10  1  0
  8 11  2  0
  9 11  1  0
 10 12  1  0
 10 13  1  0
 12 14  1  0
 13 15  2  0
 13 16  1  0
 14 17  1  0
 16 18  1  0
 19 17  1  0
 18 20  2  0
 18 21  1  0
 19 22  1  0
 19 23  2  0
 19 24  2  0
 20 25  1  0
 21 26  2  0
 25 27  2  0
 26 27  1  0
M  END
