DUN-NEW-f8ce3686-25-nitrile
     RDKit          3D

 22 23  0  0  0  0  0  0  0  0999 V2000
    6.7850   -3.9240   20.0330 C   0  0  0  0  0  0  0  0  0  0  0  0
    5.7210   -3.5890   19.4210 N   0  0  0  0  0  0  0  0  0  0  0  0
    6.9520   -3.9860   21.4020 N   0  0  0  0  0  0  0  0  0  0  0  0
    8.0310   -3.2580   22.1170 C   0  0  0  0  0  0  0  0  0  0  0  0
    6.2970   -5.0460   22.1790 C   0  0  0  0  0  0  0  0  0  0  0  0
    7.7700   -3.1790   23.6310 C   0  0  0  0  0  0  0  0  0  0  0  0
    5.5640   -4.4950   23.2510 C   0  0  0  0  0  0  0  0  0  0  0  0
    6.3010   -3.3040   23.9000 C   0  0  0  0  0  0  0  0  0  0  0  0
    5.8470   -3.0860   25.2420 C   0  0  0  0  0  0  0  0  0  0  0  0
    6.9500   -3.1690   26.2860 N   0  0  0  0  0  0  0  0  0  0  0  0
    7.0320   -4.3890   27.1160 C   0  0  0  0  0  0  0  0  0  0  0  0
    7.5650   -1.6830   26.8620 S   0  0  0  0  0  0  0  0  0  0  0  0
    8.1390   -5.0420   26.6450 C   0  0  0  0  0  0  0  0  0  0  0  0
    8.0720   -2.0770   28.5260 C   0  0  0  0  0  0  0  0  0  0  0  0
    8.7720   -1.3770   26.1250 O   0  0  0  0  0  0  0  0  0  0  0  0
    6.4810   -0.7320   26.9530 O   0  0  0  0  0  0  0  0  0  0  0  0
    7.7930   -5.9420   25.5010 C   0  0  0  0  0  0  0  0  0  0  0  0
    8.6460   -6.7440   24.7430 C   0  0  0  0  0  0  0  0  0  0  0  0
    6.4250   -6.0040   25.1280 C   0  0  0  0  0  0  0  0  0  0  0  0
    8.2060   -7.6080   23.6250 C   0  0  0  0  0  0  0  0  0  0  0  0
    5.9000   -6.7900   24.0900 C   0  0  0  0  0  0  0  0  0  0  0  0
    6.7410   -7.5840   23.3320 C   0  0  0  0  0  0  0  0  0  0  0  0
  1  2  2  3
  1  3  1  0
  3  4  1  0
  3  5  1  0
  4  6  1  0
  5  7  1  0
  6  8  1  0
  7  8  1  0
  8  9  1  0
  9 10  1  0
 10 11  1  0
 12 10  1  0
 11 13  1  0
 12 14  1  0
 12 15  2  0
 12 16  2  0
 13 17  1  0
 17 18  2  0
 17 19  1  0
 18 20  1  0
 19 21  2  0
 20 22  2  0
 21 22  1  0
M  END
