DUN-NEW-f8ce3686-24-chloroacetamide
     RDKit          3D

 25 27  0  0  0  0  0  0  0  0999 V2000
    7.0600   -3.2570   19.2530 C   0  0  0  0  0  0  0  0  0  0  0  0
    6.2700   -4.0850   20.2110 C   0  0  0  0  0  0  0  0  0  0  0  0
    5.2070   -4.5750   19.8720 O   0  0  0  0  0  0  0  0  0  0  0  0
    6.8090   -4.3320   21.4500 N   0  0  0  0  0  0  0  0  0  0  0  0
    7.5300   -3.3000   22.1980 C   0  0  0  0  0  0  0  0  0  0  0  0
    6.4700   -5.5360   22.2090 C   0  0  0  0  0  0  0  0  0  0  0  0
    6.7570   -2.9540   23.4280 C   0  0  0  0  0  0  0  0  0  0  0  0
    5.7010   -5.1880   23.4870 C   0  0  0  0  0  0  0  0  0  0  0  0
    6.4460   -4.1640   24.2250 N   0  0  0  0  0  0  0  0  0  0  0  0
    5.8770   -3.8030   25.4190 C   0  0  0  0  0  0  0  0  0  0  0  0
    6.6920   -3.4080   26.4440 C   0  0  0  0  0  0  0  0  0  0  0  0
    7.3550   -4.3950   27.1820 C   0  0  0  0  0  0  0  0  0  0  0  0
    6.9380   -2.0420   26.8430 C   0  0  0  0  0  0  0  0  0  0  0  0
    8.2380   -3.9690   28.2800 C   0  0  0  0  0  0  0  0  0  0  0  0
    7.7710   -1.7000   27.8910 C   0  0  0  0  0  0  0  0  0  0  0  0
    6.4750   -0.8080   26.3680 N   0  0  0  0  0  0  0  0  0  0  0  0
    8.4440   -2.6190   28.6370 C   0  0  0  0  0  0  0  0  0  0  0  0
    7.8230   -0.2130   28.0820 C   0  0  0  0  0  0  0  0  0  0  0  0
    6.9930    0.2710   27.0920 C   0  0  0  0  0  0  0  0  0  0  0  0
    8.5720    0.4250   29.0730 C   0  0  0  0  0  0  0  0  0  0  0  0
    7.6940    0.9060   30.1930 C   0  0  0  0  0  0  0  0  0  0  0  0
    7.7170    2.3550   30.3310 N   0  0  0  0  0  0  0  0  0  0  0  0
    8.7910    3.0950   29.9070 C   0  0  0  0  0  0  0  0  0  0  0  0
    8.6680    3.6020   28.6160 C   0  0  0  0  0  0  0  0  0  0  0  0
    9.7820    3.3040   30.6000 O   0  0  0  0  0  0  0  0  0  0  0  0
  1  2  1  0
  2  3  2  0
  2  4  1  0
  4  5  1  0
  4  6  1  0
  5  7  1  0
  6  8  1  0
  7  9  1  0
  8  9  1  0
  9 10  1  0
 10 11  1  0
 11 12  2  0
 11 13  1  0
 12 14  1  0
 13 15  2  0
 13 16  1  0
 14 17  2  0
 15 17  1  0
 15 18  1  0
 16 19  1  0
 18 19  2  0
 18 20  1  0
 20 21  1  0
 21 22  1  0
 22 23  1  0
 23 24  1  0
 23 25  2  0
M  END
