DUN-NEW-f8ce3686-3-chloroacetamide
     RDKit          3D

 23 25  0  0  0  0  0  0  0  0999 V2000
    7.9810   -3.4280   19.5570 C   0  0  0  0  0  0  0  0  0  0  0  0
    6.7100   -3.8590   20.3060 C   0  0  0  0  0  0  0  0  0  0  0  0
    5.8910   -4.7240   19.9800 O   0  0  0  0  0  0  0  0  0  0  0  0
    6.4460   -3.1470   21.4580 N   0  0  0  0  0  0  0  0  0  0  0  0
    6.1560   -1.6620   21.4320 C   0  0  0  0  0  0  0  0  0  0  0  0
    6.9190   -3.6990   22.7220 C   0  0  0  0  0  0  0  0  0  0  0  0
    6.7670   -1.0690   22.5400 C   0  0  0  0  0  0  0  0  0  0  0  0
    8.0760   -3.0510   23.1390 C   0  0  0  0  0  0  0  0  0  0  0  0
    8.1260   -1.6450   22.7030 N   0  0  0  0  0  0  0  0  0  0  0  0
    9.2010   -0.7440   23.0450 C   0  0  0  0  0  0  0  0  0  0  0  0
    8.9510    0.6310   23.3310 C   0  0  0  0  0  0  0  0  0  0  0  0
   10.5170   -1.2250   23.1060 C   0  0  0  0  0  0  0  0  0  0  0  0
   10.2210    1.4570   23.6910 C   0  0  0  0  0  0  0  0  0  0  0  0
   11.5860   -0.4170   23.4390 C   0  0  0  0  0  0  0  0  0  0  0  0
   10.7880   -2.5300   22.8480 N   0  0  0  0  0  0  0  0  0  0  0  0
   11.4580    0.9030   23.7290 C   0  0  0  0  0  0  0  0  0  0  0  0
   12.2130   -2.3710   22.4910 C   0  0  0  0  0  0  0  0  0  0  0  0
   10.6170   -3.3500   24.0710 C   0  0  2  0  0  0  0  0  0  0  0  0
   12.9770   -2.6250   23.7790 C   0  0  0  0  0  0  0  0  0  0  0  0
   11.9820   -3.2160   24.7580 C   0  0  0  0  0  0  0  0  0  0  0  0
    9.6750   -4.4450   24.1210 C   0  0  0  0  0  0  0  0  0  0  0  0
    9.9420   -5.7330   23.7840 N   0  0  0  0  0  0  0  0  0  0  0  0
    8.5160   -4.2890   24.4810 O   0  0  0  0  0  0  0  0  0  0  0  0
  1  2  1  0
  2  3  2  0
  2  4  1  0
  4  5  1  0
  4  6  1  0
  5  7  1  0
  6  8  1  0
  7  9  1  0
  8  9  1  0
  9 10  1  0
 10 11  2  0
 10 12  1  0
 11 13  1  0
 12 14  2  0
 12 15  1  0
 13 16  2  0
 14 16  1  0
 15 17  1  0
 15 18  1  0
 17 19  1  0
 18 20  1  0
 19 20  1  0
 18 21  1  6
 21 22  1  0
 21 23  2  0
M  END
