DUN-NEW-f8ce3686-23-chloroacetamide
     RDKit          3D

 25 27  0  0  0  0  0  0  0  0999 V2000
    7.2710   -4.1070   20.4330 C   0  0  0  0  0  0  0  0  0  0  0  0
    5.7950   -3.8790   20.6250 C   0  0  0  0  0  0  0  0  0  0  0  0
    5.0290   -4.1120   19.6980 O   0  0  0  0  0  0  0  0  0  0  0  0
    5.2990   -3.4070   21.8400 N   0  0  0  0  0  0  0  0  0  0  0  0
    5.1770   -4.1950   23.0730 C   0  0  0  0  0  0  0  0  0  0  0  0
    6.1500   -4.2090   23.9470 N   0  0  0  0  0  0  0  0  0  0  0  0
    3.8090   -5.1220   23.4700 S   0  0  0  0  0  0  0  0  0  0  0  0
    5.8180   -5.0090   25.0380 C   0  0  0  0  0  0  0  0  0  0  0  0
    4.5550   -5.6010   24.9530 C   0  0  0  0  0  0  0  0  0  0  0  0
    6.6070   -5.2690   26.1800 C   0  0  0  0  0  0  0  0  0  0  0  0
    4.0720   -6.4330   25.9700 C   0  0  0  0  0  0  0  0  0  0  0  0
    8.2180   -4.5440   26.3130 S   0  0  0  0  0  0  0  0  0  0  0  0
    6.1280   -6.1010   27.2080 C   0  0  0  0  0  0  0  0  0  0  0  0
    4.8640   -6.6780   27.0950 C   0  0  0  0  0  0  0  0  0  0  0  0
    8.2910   -3.8310   27.5590 O   0  0  0  0  0  0  0  0  0  0  0  0
    9.1840   -5.5660   25.9770 O   0  0  0  0  0  0  0  0  0  0  0  0
    8.2240   -3.3990   25.0690 N   0  0  0  0  0  0  0  0  0  0  0  0
    9.4320   -3.3110   24.2300 C   0  0  0  0  0  0  0  0  0  0  0  0
    9.3140   -2.2160   23.3790 C   0  0  0  0  0  0  0  0  0  0  0  0
   10.5570   -1.3540   23.3380 C   0  0  0  0  0  0  0  0  0  0  0  0
   10.8220   -0.1320   24.0220 C   0  0  0  0  0  0  0  0  0  0  0  0
   11.5910   -1.8540   22.4920 C   0  0  0  0  0  0  0  0  0  0  0  0
   12.0970    0.5840   23.8560 C   0  0  0  0  0  0  0  0  0  0  0  0
   12.8300   -1.2190   22.2960 C   0  0  0  0  0  0  0  0  0  0  0  0
   13.1160   -0.0280   22.9380 C   0  0  0  0  0  0  0  0  0  0  0  0
  1  2  1  0
  2  3  2  0
  2  4  1  0
  4  5  1  0
  5  6  2  0
  5  7  1  0
  6  8  1  0
  7  9  1  0
  8  9  2  0
  8 10  1  0
  9 11  1  0
 10 12  1  0
 10 13  2  0
 11 14  2  0
 13 14  1  0
 12 15  2  0
 12 16  2  0
 12 17  1  0
 17 18  1  0
 18 19  1  0
 19 20  1  0
 20 21  2  0
 20 22  1  0
 21 23  1  0
 22 24  2  0
 23 25  2  0
 24 25  1  0
M  END
