DUN-NEW-f8ce3686-24-bromoalkyne
     RDKit          3D

 24 26  0  0  0  0  0  0  0  0999 V2000
    6.9890   -3.4730   19.6250 C   0  0  0  0  0  0  0  0  0  0  0  0
    5.8290   -4.3880   19.9560 C   0  0  0  0  0  0  0  0  0  0  0  0
    6.9200   -2.1520   20.0500 N   0  0  0  0  0  0  0  0  0  0  0  0
    6.2880   -1.8090   21.3500 C   0  0  0  0  0  0  0  0  0  0  0  0
    6.9020   -1.0460   19.0670 C   0  0  0  0  0  0  0  0  0  0  0  0
    6.7310   -0.4650   21.9070 C   0  0  0  0  0  0  0  0  0  0  0  0
    7.0170    0.3640   19.7010 C   0  0  0  0  0  0  0  0  0  0  0  0
    7.6820    0.1870   20.9930 N   0  0  0  0  0  0  0  0  0  0  0  0
    8.4740    1.1980   21.5760 C   0  0  0  0  0  0  0  0  0  0  0  0
    9.6120    0.8370   22.3220 C   0  0  0  0  0  0  0  0  0  0  0  0
   10.7170    1.6500   22.6660 C   0  0  0  0  0  0  0  0  0  0  0  0
    9.7200   -0.4690   22.8130 C   0  0  0  0  0  0  0  0  0  0  0  0
   11.8500    1.0970   23.4910 C   0  0  0  0  0  0  0  0  0  0  0  0
   10.7730   -0.9490   23.5850 C   0  0  0  0  0  0  0  0  0  0  0  0
    8.8530   -1.5260   22.6540 N   0  0  0  0  0  0  0  0  0  0  0  0
   11.8840   -0.2120   23.9680 C   0  0  0  0  0  0  0  0  0  0  0  0
   10.4700   -2.3710   23.9100 C   0  0  0  0  0  0  0  0  0  0  0  0
    9.2890   -2.6510   23.2900 C   0  0  0  0  0  0  0  0  0  0  0  0
   11.2340   -3.1890   24.6720 C   0  0  0  0  0  0  0  0  0  0  0  0
   10.3320   -4.1780   25.3840 C   0  0  0  0  0  0  0  0  0  0  0  0
    8.9020   -3.9540   25.1920 N   0  0  0  0  0  0  0  0  0  0  0  0
    8.0520   -3.6990   26.2330 C   0  0  0  0  0  0  0  0  0  0  0  0
    7.9080   -4.7550   27.1250 C   0  0  0  0  0  0  0  0  0  0  0  0
    7.4550   -2.6410   26.3830 O   0  0  0  0  0  0  0  0  0  0  0  0
  1  2  2  3
  1  3  1  0
  3  4  1  0
  3  5  1  0
  4  6  1  0
  5  7  1  0
  6  8  1  0
  7  8  1  0
  8  9  1  0
  9 10  1  0
 10 11  2  0
 10 12  1  0
 11 13  1  0
 12 14  2  0
 12 15  1  0
 13 16  2  0
 14 16  1  0
 14 17  1  0
 15 18  1  0
 17 18  2  0
 17 19  1  0
 19 20  1  0
 20 21  1  0
 21 22  1  0
 22 23  1  0
 22 24  2  0
M  END
