DUN-NEW-f8ce3686-21-vinylsulfonamide
     RDKit          3D

 22 23  0  0  0  0  0  0  0  0999 V2000
    7.1820   -4.6170   20.9410 C   0  0  0  0  0  0  0  0  0  0  0  0
    7.2700   -5.1560   22.3890 C   0  0  0  0  0  0  0  0  0  0  0  0
    5.6630   -5.3800   23.1520 S   0  0  0  0  0  0  0  0  0  0  0  0
    4.5960   -4.6880   22.3050 O   0  0  0  0  0  0  0  0  0  0  0  0
    5.5290   -6.7930   23.3840 O   0  0  0  0  0  0  0  0  0  0  0  0
    5.9190   -4.7550   24.7620 N   0  0  0  0  0  0  0  0  0  0  0  0
    6.6860   -3.5050   24.9620 C   0  0  0  0  0  0  0  0  0  0  0  0
    6.3360   -3.0100   23.7050 C   0  0  0  0  0  0  0  0  0  0  0  0
    5.0030   -2.9450   23.5760 C   0  0  0  0  0  0  0  0  0  0  0  0
    7.1630   -2.6580   22.6620 C   0  0  0  0  0  0  0  0  0  0  0  0
    4.4710   -2.5590   22.4480 C   0  0  0  0  0  0  0  0  0  0  0  0
    6.6220   -2.2660   21.4680 C   0  0  0  0  0  0  0  0  0  0  0  0
    8.5200   -2.6210   22.5410 N   0  0  0  0  0  0  0  0  0  0  0  0
    5.2410   -2.2110   21.3520 C   0  0  0  0  0  0  0  0  0  0  0  0
    7.6610   -2.0070   20.5760 C   0  0  0  0  0  0  0  0  0  0  0  0
    8.8450   -2.2250   21.2840 C   0  0  0  0  0  0  0  0  0  0  0  0
    7.4200   -1.5950   19.1570 C   0  0  0  0  0  0  0  0  0  0  0  0
    5.9750   -1.2330   18.8580 C   0  0  0  0  0  0  0  0  0  0  0  0
    5.8910    0.0220   18.1450 N   0  0  0  0  0  0  0  0  0  0  0  0
    5.7720    1.1650   18.9030 C   0  0  0  0  0  0  0  0  0  0  0  0
    6.7100    1.2050   20.0810 C   0  0  0  0  0  0  0  0  0  0  0  0
    4.9920    2.0800   18.6810 O   0  0  0  0  0  0  0  0  0  0  0  0
  1  2  1  0
  2  3  1  0
  3  4  2  0
  3  5  2  0
  3  6  1  0
  6  7  1  0
  7  8  1  0
  8  9  2  0
  8 10  1  0
  9 11  1  0
 10 12  2  0
 10 13  1  0
 11 14  2  0
 12 14  1  0
 12 15  1  0
 13 16  1  0
 15 16  2  0
 15 17  1  0
 17 18  1  0
 18 19  1  0
 19 20  1  0
 20 21  1  0
 20 22  2  0
M  END
