DUN-NEW-f8ce3686-25-bromoalkyne
     RDKit          3D

 22 23  0  0  0  0  0  0  0  0999 V2000
    6.7520   -3.9840   19.9450 C   0  0  0  0  0  0  0  0  0  0  0  0
    5.6770   -3.2700   19.2170 C   0  0  0  0  0  0  0  0  0  0  0  0
    6.8400   -4.0390   21.3160 N   0  0  0  0  0  0  0  0  0  0  0  0
    7.6710   -3.0650   22.0500 C   0  0  0  0  0  0  0  0  0  0  0  0
    6.4340   -5.2630   22.0420 C   0  0  0  0  0  0  0  0  0  0  0  0
    7.2440   -2.9080   23.4820 C   0  0  0  0  0  0  0  0  0  0  0  0
    5.8220   -4.9810   23.2740 C   0  0  0  0  0  0  0  0  0  0  0  0
    6.6710   -4.0140   24.1280 C   0  0  0  0  0  0  0  0  0  0  0  0
    5.9330   -3.7430   25.2880 C   0  0  0  0  0  0  0  0  0  0  0  0
    6.8790   -3.5730   26.4520 N   0  0  0  0  0  0  0  0  0  0  0  0
    7.6210   -4.8150   26.8720 C   0  0  0  0  0  0  0  0  0  0  0  0
    7.5510   -2.0300   26.8160 S   0  0  0  0  0  0  0  0  0  0  0  0
    6.9200   -5.4930   28.0350 C   0  0  0  0  0  0  0  0  0  0  0  0
    8.0060   -2.2540   28.5180 C   0  0  0  0  0  0  0  0  0  0  0  0
    8.7670   -1.8640   26.0500 O   0  0  0  0  0  0  0  0  0  0  0  0
    6.5120   -1.0250   26.7650 O   0  0  0  0  0  0  0  0  0  0  0  0
    5.6780   -6.1910   27.8700 C   0  0  0  0  0  0  0  0  0  0  0  0
    4.7890   -6.8170   28.9010 C   0  0  0  0  0  0  0  0  0  0  0  0
    5.3370   -6.2470   26.5420 C   0  0  0  0  0  0  0  0  0  0  0  0
    3.5250   -7.4890   28.3490 C   0  0  0  0  0  0  0  0  0  0  0  0
    4.1740   -6.8730   26.1060 C   0  0  0  0  0  0  0  0  0  0  0  0
    3.2730   -7.4890   26.9770 C   0  0  0  0  0  0  0  0  0  0  0  0
  1  2  2  3
  1  3  1  0
  3  4  1  0
  3  5  1  0
  4  6  1  0
  5  7  1  0
  6  8  1  0
  7  8  1  0
  8  9  1  0
  9 10  1  0
 10 11  1  0
 12 10  1  0
 11 13  1  0
 12 14  1  0
 12 15  2  0
 12 16  2  0
 13 17  1  0
 17 18  2  0
 17 19  1  0
 18 20  1  0
 19 21  2  0
 20 22  2  0
 21 22  1  0
M  END
