DUN-NEW-f8ce3686-25-acrylamide
     RDKit          3D

 24 25  0  0  0  0  0  0  0  0999 V2000
    7.2170   -2.9270   18.7750 C   0  0  0  0  0  0  0  0  0  0  0  0
    6.1510   -2.6380   19.8070 C   0  0  0  0  0  0  0  0  0  0  0  0
    5.8000   -3.9160   20.5330 C   0  0  0  0  0  0  0  0  0  0  0  0
    5.1500   -4.7820   19.9640 O   0  0  0  0  0  0  0  0  0  0  0  0
    6.3210   -4.1150   21.7970 N   0  0  0  0  0  0  0  0  0  0  0  0
    6.2590   -5.3930   22.5220 C   0  0  0  0  0  0  0  0  0  0  0  0
    7.3790   -3.1910   22.2350 C   0  0  0  0  0  0  0  0  0  0  0  0
    6.1900   -5.1510   23.8980 C   0  0  0  0  0  0  0  0  0  0  0  0
    7.3580   -3.0070   23.6210 C   0  0  0  0  0  0  0  0  0  0  0  0
    6.1690   -3.7860   24.1670 C   0  0  0  0  0  0  0  0  0  0  0  0
    5.9910   -3.4390   25.5100 C   0  0  0  0  0  0  0  0  0  0  0  0
    7.2990   -3.3830   26.2610 N   0  0  0  0  0  0  0  0  0  0  0  0
    7.5140   -4.4590   27.2810 C   0  0  0  0  0  0  0  0  0  0  0  0
    7.8240   -1.8010   26.7030 S   0  0  0  0  0  0  0  0  0  0  0  0
    6.7000   -5.5850   26.9260 C   0  0  0  0  0  0  0  0  0  0  0  0
    8.2200   -1.9950   28.4350 C   0  0  0  0  0  0  0  0  0  0  0  0
    6.7000   -0.8920   26.6360 O   0  0  0  0  0  0  0  0  0  0  0  0
    9.0480   -1.5000   25.9910 O   0  0  0  0  0  0  0  0  0  0  0  0
    5.8460   -6.2550   27.9530 C   0  0  0  0  0  0  0  0  0  0  0  0
    6.2560   -6.2720   29.3980 C   0  0  0  0  0  0  0  0  0  0  0  0
    4.6930   -6.8430   27.5110 C   0  0  0  0  0  0  0  0  0  0  0  0
    5.4100   -6.9210   30.2900 C   0  0  0  0  0  0  0  0  0  0  0  0
    3.8350   -7.4970   28.4030 C   0  0  0  0  0  0  0  0  0  0  0  0
    4.1400   -7.5650   29.7760 C   0  0  0  0  0  0  0  0  0  0  0  0
  1  2  1  0
  2  3  1  0
  3  4  2  0
  3  5  1  0
  5  6  1  0
  5  7  1  0
  6  8  1  0
  7  9  1  0
  8 10  1  0
  9 10  1  0
 10 11  1  0
 11 12  1  0
 12 13  1  0
 14 12  1  0
 13 15  1  0
 14 16  1  0
 14 17  2  0
 14 18  2  0
 15 19  1  0
 19 20  2  0
 19 21  1  0
 20 22  1  0
 21 23  2  0
 22 24  2  0
 23 24  1  0
M  END
