DUN-NEW-f8ce3686-1
     RDKit          3D

 20 22  0  0  0  0  0  0  0  0999 V2000
    6.5910   -2.8400   26.6090 N   0  0  0  0  0  0  0  0  0  0  0  0
    5.8770   -3.2200   25.5110 C   0  0  0  0  0  0  0  0  0  0  0  0
    4.7010   -2.9070   25.4300 O   0  0  0  0  0  0  0  0  0  0  0  0
    6.6300   -4.0180   24.4650 C   0  0  2  0  0  0  0  0  0  0  0  0
    7.4760   -3.1840   23.4960 C   0  0  0  0  0  0  0  0  0  0  0  0
    5.7220   -4.8010   23.5530 C   0  0  1  0  0  0  0  0  0  0  0  0
    7.2200   -3.8160   22.2050 N   0  0  0  0  0  0  0  0  0  0  0  0
    6.7970   -5.1920   22.5490 C   0  0  0  0  0  0  0  0  0  0  0  0
    4.8990   -5.8560   24.2710 C   0  0  0  0  0  0  0  0  0  0  0  0
    6.1910   -3.0410   21.5580 C   0  0  0  0  0  0  0  0  0  0  0  0
    4.9280   -6.0110   25.6670 C   0  0  0  0  0  0  0  0  0  0  0  0
    4.0690   -6.7070   23.5270 C   0  0  0  0  0  0  0  0  0  0  0  0
    5.2760   -3.8610   21.0560 C   0  0  0  0  0  0  0  0  0  0  0  0
    6.5980   -2.1450   20.3900 C   0  0  0  0  0  0  0  0  0  0  0  0
    4.1490   -6.9840   26.2940 C   0  0  0  0  0  0  0  0  0  0  0  0
    3.2900   -7.6780   24.1570 C   0  0  0  0  0  0  0  0  0  0  0  0
    5.7470   -4.7050   20.1630 C   0  0  0  0  0  0  0  0  0  0  0  0
    5.8200   -2.5180   19.1240 C   0  0  0  0  0  0  0  0  0  0  0  0
    3.3280   -7.8180   25.5400 C   0  0  0  0  0  0  0  0  0  0  0  0
    5.6060   -3.9530   18.9740 O   0  0  0  0  0  0  0  0  0  0  0  0
  1  2  1  0
  2  3  2  0
  4  2  1  1
  4  5  1  0
  4  6  1  0
  5  7  1  0
  6  8  1  0
  7  8  1  0
  6  9  1  1
  7 10  1  0
  9 11  2  0
  9 12  1  0
 10 13  1  0
 10 14  1  0
 11 15  1  0
 12 16  2  0
 13 17  1  0
 14 18  1  0
 15 19  2  0
 16 19  1  0
 17 20  1  0
 18 20  1  0
M  END
