DUN-NEW-f8ce3686-24-vinylsulfonamide
     RDKit          3D

 27 29  0  0  0  0  0  0  0  0999 V2000
    7.4380   -3.3030   19.4530 C   0  0  0  0  0  0  0  0  0  0  0  0
    6.0920   -2.6830   19.6630 C   0  0  0  0  0  0  0  0  0  0  0  0
    5.9130   -2.4800   21.4050 S   0  0  0  0  0  0  0  0  0  0  0  0
    4.5560   -2.9980   21.6800 O   0  0  0  0  0  0  0  0  0  0  0  0
    7.0320   -3.1080   22.0550 O   0  0  0  0  0  0  0  0  0  0  0  0
    6.2050   -0.7890   21.5110 N   0  0  0  0  0  0  0  0  0  0  0  0
    7.3310   -0.3370   20.6690 C   0  0  0  0  0  0  0  0  0  0  0  0
    6.3130   -0.1780   22.8810 C   0  0  0  0  0  0  0  0  0  0  0  0
    8.5140   -0.0440   21.5660 C   0  0  0  0  0  0  0  0  0  0  0  0
    7.1360    1.1850   23.0340 C   0  0  0  0  0  0  0  0  0  0  0  0
    8.3480    1.2940   22.1690 N   0  0  0  0  0  0  0  0  0  0  0  0
    9.5770    1.8900   22.6600 C   0  0  0  0  0  0  0  0  0  0  0  0
   10.7340    1.1080   22.9340 C   0  0  0  0  0  0  0  0  0  0  0  0
   12.0840    1.4070   22.7400 C   0  0  0  0  0  0  0  0  0  0  0  0
   10.4680   -0.0970   23.4530 C   0  0  0  0  0  0  0  0  0  0  0  0
   13.0810    0.3330   23.1060 C   0  0  0  0  0  0  0  0  0  0  0  0
   11.3450   -1.0640   23.7960 C   0  0  0  0  0  0  0  0  0  0  0  0
    9.2150   -0.5420   23.7290 N   0  0  0  0  0  0  0  0  0  0  0  0
   12.6970   -0.9200   23.6420 C   0  0  0  0  0  0  0  0  0  0  0  0
   10.5170   -2.1780   24.3260 C   0  0  0  0  0  0  0  0  0  0  0  0
    9.2340   -1.7690   24.2440 C   0  0  0  0  0  0  0  0  0  0  0  0
   10.9500   -3.3460   24.7960 C   0  0  0  0  0  0  0  0  0  0  0  0
    9.8520   -4.1320   25.4680 C   0  0  0  0  0  0  0  0  0  0  0  0
    8.4910   -3.8310   25.0530 N   0  0  0  0  0  0  0  0  0  0  0  0
    7.5420   -3.5470   26.0000 C   0  0  0  0  0  0  0  0  0  0  0  0
    7.3750   -4.5560   26.9410 C   0  0  0  0  0  0  0  0  0  0  0  0
    6.8840   -2.5150   26.0450 O   0  0  0  0  0  0  0  0  0  0  0  0
  1  2  1  0
  3  2  1  0
  3  4  2  0
  3  5  2  0
  3  6  1  0
  6  7  1  0
  6  8  1  0
  7  9  1  0
  8 10  1  0
  9 11  1  0
 10 11  1  0
 11 12  1  0
 12 13  1  0
 13 14  2  0
 13 15  1  0
 14 16  1  0
 15 17  2  0
 15 18  1  0
 16 19  2  0
 17 19  1  0
 17 20  1  0
 18 21  1  0
 20 21  2  0
 20 22  1  0
 22 23  1  0
 23 24  1  0
 24 25  1  0
 25 26  1  0
 25 27  2  0
M  END
