ELE-IMP-dfb36048-2
     RDKit          3D

 22 23  0  0  0  0  0  0  0  0999 V2000
    9.0350    6.6130   22.5730 C   0  0  0  0  0  0  0  0  0  0  0  0
   10.2270    6.1770   23.3860 C   0  0  0  0  0  0  0  0  0  0  0  0
   10.2780    6.3020   24.6050 O   0  0  0  0  0  0  0  0  0  0  0  0
   11.2270    5.6310   22.6250 N   0  0  0  0  0  0  0  0  0  0  0  0
   12.3730    5.0010   23.2650 C   0  0  0  0  0  0  0  0  0  0  0  0
   12.6780    3.6140   22.6870 C   0  0  0  0  0  0  0  0  0  0  0  0
   11.7580    2.5090   23.1490 C   0  0  0  0  0  0  0  0  0  0  0  0
   10.5260    2.6960   23.7320 C   0  0  0  0  0  0  0  0  0  0  0  0
   11.9510    1.0740   23.0660 C   0  0  0  0  0  0  0  0  0  0  0  0
    9.9710    1.4720   23.9850 N   0  0  0  0  0  0  0  0  0  0  0  0
   10.8070    0.4600   23.5810 C   0  0  0  0  0  0  0  0  0  0  0  0
   12.9800    0.2300   22.5990 C   0  0  0  0  0  0  0  0  0  0  0  0
   10.6200   -0.9420   23.6360 C   0  0  0  0  0  0  0  0  0  0  0  0
   12.8280   -1.1510   22.6350 C   0  0  0  0  0  0  0  0  0  0  0  0
    9.3630   -1.5840   24.1820 C   0  0  0  0  0  0  0  0  0  0  0  0
   11.6760   -1.7300   23.1390 C   0  0  0  0  0  0  0  0  0  0  0  0
    9.3760   -3.1180   24.1870 C   0  0  0  0  0  0  0  0  0  0  0  0
    8.1250   -3.6410   24.7920 N   0  0  0  0  0  0  0  0  0  0  0  0
    8.2700   -4.6590   26.1360 S   0  0  0  0  0  0  0  0  0  0  0  0
    6.5960   -5.2140   26.3750 C   0  0  0  0  0  0  0  0  0  0  0  0
    8.6480   -3.8730   27.2680 O   0  0  0  0  0  0  0  0  0  0  0  0
    9.0660   -5.7770   25.7130 O   0  0  0  0  0  0  0  0  0  0  0  0
  1  2  1  0
  2  3  2  0
  2  4  1  0
  4  5  1  0
  5  6  1  0
  6  7  1  0
  7  8  2  0
  7  9  1  0
  8 10  1  0
  9 11  2  0
 10 11  1  0
  9 12  1  0
 11 13  1  0
 12 14  2  0
 13 15  1  0
 13 16  2  0
 14 16  1  0
 15 17  1  0
 17 18  1  0
 19 18  1  0
 19 20  1  0
 19 21  2  0
 19 22  2  0
M  END
