ELE-IMP-dfb36048-4
     RDKit          3D

 24 26  0  0  0  0  0  0  0  0999 V2000
    7.1690   -5.6480   27.4460 C   0  0  0  0  0  0  0  0  0  0  0  0
    7.9030   -4.3960   26.4170 S   0  0  0  0  0  0  0  0  0  0  0  0
    7.9740   -3.1780   27.1850 O   0  0  0  0  0  0  0  0  0  0  0  0
    9.0750   -4.9450   25.7830 O   0  0  0  0  0  0  0  0  0  0  0  0
    6.7470   -4.0930   25.2430 N   0  0  0  0  0  0  0  0  0  0  0  0
    7.1160   -3.5450   23.9170 C   0  0  0  0  0  0  0  0  0  0  0  0
    6.8510   -2.0290   23.7430 C   0  0  0  0  0  0  0  0  0  0  0  0
    8.1290   -1.2130   23.8960 C   0  0  0  0  0  0  0  0  0  0  0  0
    8.1300   -0.0940   24.8810 C   0  0  0  0  0  0  0  0  0  0  0  0
    9.3220   -1.4020   23.2150 C   0  0  0  0  0  0  0  0  0  0  0  0
    9.2340    0.6960   25.1130 C   0  0  0  0  0  0  0  0  0  0  0  0
   10.4220   -0.5910   23.4900 C   0  0  0  0  0  0  0  0  0  0  0  0
    9.6670   -2.3320   22.2230 N   0  0  0  0  0  0  0  0  0  0  0  0
   10.4130    0.4530   24.4140 C   0  0  0  0  0  0  0  0  0  0  0  0
   11.4990   -1.0760   22.6440 C   0  0  0  0  0  0  0  0  0  0  0  0
   10.9730   -2.1640   21.8530 C   0  0  0  0  0  0  0  0  0  0  0  0
   11.8280   -2.8460   20.8870 C   0  0  0  0  0  0  0  0  0  0  0  0
   12.8770   -0.7520   22.4340 C   0  0  0  0  0  0  0  0  0  0  0  0
   13.0540   -3.2590   21.5340 N   0  0  0  0  0  0  0  0  0  0  0  0
   13.6070   -1.8300   21.8330 C   0  0  0  0  0  0  0  0  0  0  0  0
   13.7390   -4.4380   20.3550 S   0  0  0  0  0  0  0  0  0  0  0  0
   15.4220   -4.9750   20.2060 C   0  0  0  0  0  0  0  0  0  0  0  0
   13.8170   -5.7860   20.7790 O   0  0  0  0  0  0  0  0  0  0  0  0
   12.8450   -4.4620   19.2480 O   0  0  0  0  0  0  0  0  0  0  0  0
  1  2  1  0
  2  3  2  0
  2  4  2  0
  2  5  1  0
  5  6  1  0
  6  7  1  0
  7  8  1  0
  8  9  2  0
  8 10  1  0
  9 11  1  0
 10 12  2  0
 10 13  1  0
 11 14  2  0
 12 14  1  0
 12 15  1  0
 13 16  1  0
 15 16  2  0
 16 17  1  0
 15 18  1  0
 17 19  1  0
 18 20  1  0
 19 20  1  0
 19 21  1  0
 21 22  1  0
 21 23  2  0
 21 24  2  0
M  END
