ELE-IMP-dfb36048-3
     RDKit          3D

 23 25  0  0  0  0  0  0  0  0999 V2000
   11.5670    5.9500   25.5610 C   0  0  0  0  0  0  0  0  0  0  0  0
   10.4470    5.0370   25.1220 C   0  0  0  0  0  0  0  0  0  0  0  0
    9.5790    4.6490   25.8970 O   0  0  0  0  0  0  0  0  0  0  0  0
   10.4970    4.6830   23.7920 N   0  0  0  0  0  0  0  0  0  0  0  0
   11.7240    4.8310   23.0240 C   0  0  0  0  0  0  0  0  0  0  0  0
    9.4900    3.7150   23.3060 C   0  0  0  0  0  0  0  0  0  0  0  0
   12.4250    3.4990   22.7200 C   0  0  0  0  0  0  0  0  0  0  0  0
   10.1880    2.4250   23.1450 C   0  0  0  0  0  0  0  0  0  0  0  0
   11.5210    2.3160   22.8940 C   0  0  0  0  0  0  0  0  0  0  0  0
    9.6410    1.1680   23.2150 N   0  0  0  0  0  0  0  0  0  0  0  0
   10.6190    0.2100   23.0150 C   0  0  0  0  0  0  0  0  0  0  0  0
   11.8260    0.9040   22.8270 C   0  0  0  0  0  0  0  0  0  0  0  0
   10.5220   -1.1980   22.9810 C   0  0  0  0  0  0  0  0  0  0  0  0
   13.0000    0.1630   22.6120 C   0  0  0  0  0  0  0  0  0  0  0  0
    9.2510   -1.9930   23.1800 C   0  0  0  0  0  0  0  0  0  0  0  0
   11.7170   -1.8850   22.7360 C   0  0  0  0  0  0  0  0  0  0  0  0
   12.9220   -1.2170   22.5630 C   0  0  0  0  0  0  0  0  0  0  0  0
    9.3530   -2.9450   24.3800 C   0  0  0  0  0  0  0  0  0  0  0  0
    8.1000   -3.6850   24.6590 N   0  0  0  0  0  0  0  0  0  0  0  0
    8.0840   -4.4780   26.1510 S   0  0  0  0  0  0  0  0  0  0  0  0
    6.4690   -5.2190   26.2080 C   0  0  0  0  0  0  0  0  0  0  0  0
    8.1570   -3.4710   27.1800 O   0  0  0  0  0  0  0  0  0  0  0  0
    9.0700   -5.5300   26.0380 O   0  0  0  0  0  0  0  0  0  0  0  0
  1  2  1  0
  2  3  2  0
  2  4  1  0
  4  5  1  0
  4  6  1  0
  5  7  1  0
  6  8  1  0
  7  9  1  0
  8  9  2  0
  8 10  1  0
 10 11  1  0
  9 12  1  0
 11 12  2  0
 11 13  1  0
 12 14  1  0
 13 15  1  0
 13 16  2  0
 14 17  2  0
 16 17  1  0
 15 18  1  0
 18 19  1  0
 20 19  1  0
 20 21  1  0
 20 22  2  0
 20 23  2  0
M  END
