ELE-IMP-dfb36048-5
     RDKit          3D

 23 24  0  0  0  0  0  0  0  0999 V2000
    8.8640    6.9140   22.3690 C   0  0  0  0  0  0  0  0  0  0  0  0
    9.7680    5.9960   23.5900 S   0  0  0  0  0  0  0  0  0  0  0  0
   10.2710    6.8850   24.6040 O   0  0  0  0  0  0  0  0  0  0  0  0
    9.0070    4.8300   23.9710 O   0  0  0  0  0  0  0  0  0  0  0  0
   11.0940    5.5480   22.7060 N   0  0  0  0  0  0  0  0  0  0  0  0
   12.2370    4.9210   23.3800 C   0  0  0  0  0  0  0  0  0  0  0  0
   12.7110    3.6320   22.7080 C   0  0  0  0  0  0  0  0  0  0  0  0
   11.7910    2.3990   22.8440 C   0  0  0  0  0  0  0  0  0  0  0  0
   10.3610    2.6090   23.0990 C   0  0  0  0  0  0  0  0  0  0  0  0
   11.9630    0.9710   22.7590 C   0  0  0  0  0  0  0  0  0  0  0  0
    9.7530    1.3840   23.1340 N   0  0  0  0  0  0  0  0  0  0  0  0
   10.6850    0.3690   22.9180 C   0  0  0  0  0  0  0  0  0  0  0  0
   13.0500    0.1360   22.5510 C   0  0  0  0  0  0  0  0  0  0  0  0
   10.4960   -1.0330   22.8440 C   0  0  0  0  0  0  0  0  0  0  0  0
   12.8960   -1.2410   22.4820 C   0  0  0  0  0  0  0  0  0  0  0  0
    9.2180   -1.6660   22.9640 C   0  0  0  0  0  0  0  0  0  0  0  0
   11.6420   -1.8110   22.6230 C   0  0  0  0  0  0  0  0  0  0  0  0
    8.9570   -2.6750   24.0410 C   0  0  0  0  0  0  0  0  0  0  0  0
    7.8420   -3.6300   23.8630 N   0  0  0  0  0  0  0  0  0  0  0  0
    7.4570   -4.6750   25.1800 S   0  0  0  0  0  0  0  0  0  0  0  0
    5.9660   -5.4910   24.7100 C   0  0  0  0  0  0  0  0  0  0  0  0
    7.0230   -3.8720   26.2750 O   0  0  0  0  0  0  0  0  0  0  0  0
    8.5330   -5.6330   25.3630 O   0  0  0  0  0  0  0  0  0  0  0  0
  1  2  1  0
  2  3  2  0
  2  4  2  0
  2  5  1  0
  5  6  1  0
  6  7  1  0
  7  8  1  0
  8  9  2  0
  8 10  1  0
  9 11  1  0
 10 12  2  0
 11 12  1  0
 10 13  1  0
 12 14  1  0
 13 15  2  0
 14 16  1  0
 14 17  2  0
 15 17  1  0
 16 18  1  0
 18 19  1  0
 20 19  1  0
 20 21  1  0
 20 22  2  0
 20 23  2  0
M  END
