EMI-TUK-a58865cc-7
     RDKit          3D

 22 23  0  0  0  0  0  0  0  0999 V2000
   10.1470   -5.0530   25.4800 N   0  0  0  0  0  0  0  0  0  0  0  0
    8.8710   -4.9330   25.4640 C   0  0  0  0  0  0  0  0  0  0  0  0
    8.1340   -5.2710   26.5470 N   0  0  0  0  0  0  0  0  0  0  0  0
    8.1810   -4.4040   24.2200 C   0  0  0  0  0  0  0  0  0  0  0  0
    8.7850   -3.4500   23.4740 C   0  0  0  0  0  0  0  0  0  0  0  0
    8.3780   -1.9590   23.4530 C   0  0  0  0  0  0  0  0  0  0  0  0
    9.0940   -1.1880   22.4110 N   0  0  0  0  0  0  0  0  0  0  0  0
    8.3330   -0.3670   21.5570 C   0  0  0  0  0  0  0  0  0  0  0  0
   10.3770   -0.7600   22.6680 C   0  0  0  0  0  0  0  0  0  0  0  0
    8.6880    0.7940   21.3550 O   0  0  0  0  0  0  0  0  0  0  0  0
    7.2080   -0.8830   20.9550 N   0  0  0  0  0  0  0  0  0  0  0  0
   10.4970    0.4040   23.4600 C   0  0  0  0  0  0  0  0  0  0  0  0
   11.5170   -1.4340   22.1530 C   0  0  0  0  0  0  0  0  0  0  0  0
    6.4720   -0.1110   20.0400 C   0  0  0  0  0  0  0  0  0  0  0  0
   11.7670    0.8950   23.7190 C   0  0  0  0  0  0  0  0  0  0  0  0
   12.7870   -0.9350   22.4210 C   0  0  0  0  0  0  0  0  0  0  0  0
    5.1340    0.4760   20.4770 C   0  0  0  0  0  0  0  0  0  0  0  0
    6.8830    0.1800   18.7290 C   0  0  0  0  0  0  0  0  0  0  0  0
   12.9750    0.1940   23.1680 C   0  0  0  0  0  0  0  0  0  0  0  0
    4.3960    1.3080   19.4720 C   0  0  0  0  0  0  0  0  0  0  0  0
    6.2170    0.9520   17.8010 N   0  0  0  0  0  0  0  0  0  0  0  0
    5.0410    1.4960   18.1270 C   0  0  0  0  0  0  0  0  0  0  0  0
  1  2  2  3
  2  3  1  0
  2  4  1  0
  4  5  1  0
  5  6  1  0
  6  7  1  0
  7  8  1  0
  7  9  1  0
  8 10  2  0
  8 11  1  0
  9 12  2  0
  9 13  1  0
 11 14  1  0
 12 15  1  0
 13 16  2  0
 14 17  2  0
 14 18  1  0
 15 19  2  0
 16 19  1  0
 17 20  1  0
 18 21  2  0
 20 22  2  0
 21 22  1  0
M  END
