EMI-TUK-b780fc43-2
     RDKit          3D

 22 23  0  0  0  0  0  0  0  0999 V2000
    8.2400   -2.9760   20.8800 C   0  0  0  0  0  0  0  0  0  0  0  0
    7.9800   -3.6230   22.2150 C   0  0  0  0  0  0  0  0  0  0  0  0
    7.1710   -4.5340   22.4020 O   0  0  0  0  0  0  0  0  0  0  0  0
    8.6940   -3.1690   23.3190 C   0  0  0  0  0  0  0  0  0  0  0  0
    8.5940   -1.8000   23.5540 C   0  0  0  0  0  0  0  0  0  0  0  0
    9.0410   -0.9460   22.5260 N   0  0  0  0  0  0  0  0  0  0  0  0
    8.2890   -0.1660   21.6560 C   0  0  0  0  0  0  0  0  0  0  0  0
   10.3900   -0.4810   22.6540 C   0  0  0  0  0  0  0  0  0  0  0  0
    8.6240    0.9250   21.2220 O   0  0  0  0  0  0  0  0  0  0  0  0
    7.0440   -0.6830   21.2380 N   0  0  0  0  0  0  0  0  0  0  0  0
   10.6290    0.8220   23.0730 C   0  0  0  0  0  0  0  0  0  0  0  0
   11.5110   -1.2960   22.3640 C   0  0  0  0  0  0  0  0  0  0  0  0
    6.1400   -1.1790   22.2680 C   0  0  0  0  0  0  0  0  0  0  0  0
    6.3980   -0.0030   20.1480 C   0  0  0  0  0  0  0  0  0  0  0  0
   12.0660    1.3120   23.1980 C   0  0  0  0  0  0  0  0  0  0  0  0
   12.8340   -0.9520   22.4450 N   0  0  0  0  0  0  0  0  0  0  0  0
    5.0960    0.7720   20.3870 C   0  0  0  0  0  0  0  0  0  0  0  0
    6.9110   -0.0080   18.8550 C   0  0  0  0  0  0  0  0  0  0  0  0
   13.1010    0.2920   22.8420 C   0  0  0  0  0  0  0  0  0  0  0  0
    4.4710    1.4840   19.1810 C   0  0  0  0  0  0  0  0  0  0  0  0
    6.3900    0.6110   17.7660 N   0  0  0  0  0  0  0  0  0  0  0  0
    5.2570    1.3160   17.8820 C   0  0  0  0  0  0  0  0  0  0  0  0
  1  2  1  0
  2  3  2  0
  2  4  1  0
  4  5  1  0
  5  6  1  0
  6  7  1  0
  6  8  1  0
  7  9  2  0
  7 10  1  0
  8 11  2  0
  8 12  1  0
 10 13  1  0
 10 14  1  0
 11 15  1  0
 12 16  2  0
 14 17  2  0
 14 18  1  0
 15 19  2  0
 16 19  1  0
 17 20  1  0
 18 21  2  0
 20 22  2  0
 21 22  1  0
M  END
