ERI-WAB-212bafa6-2
     RDKit          3D

 20 21  0  0  0  0  0  0  0  0999 V2000
    6.3980   -5.2720   24.9460 C   0  0  0  0  0  0  0  0  0  0  0  0
    7.8050   -5.0880   24.4350 C   0  0  0  0  0  0  0  0  0  0  0  0
    8.9260   -5.2150   25.5040 C   0  0  0  0  0  0  0  0  0  0  0  0
    7.8220   -3.7440   23.6790 C   0  0  0  0  0  0  0  0  0  0  0  0
    8.7080   -2.6650   24.2830 C   0  0  0  0  0  0  0  0  0  0  0  0
   10.0750   -2.5380   23.6750 C   0  0  0  0  0  0  0  0  0  0  0  0
   11.2090   -3.0230   24.3620 C   0  0  0  0  0  0  0  0  0  0  0  0
   10.2550   -1.9260   22.3930 C   0  0  0  0  0  0  0  0  0  0  0  0
   12.4830   -2.9320   23.8380 C   0  0  0  0  0  0  0  0  0  0  0  0
   11.5730   -1.8810   21.8850 C   0  0  0  0  0  0  0  0  0  0  0  0
    9.0680   -1.2850   21.5470 C   0  0  0  0  0  0  0  0  0  0  0  0
   12.6440   -2.3750   22.6130 C   0  0  0  0  0  0  0  0  0  0  0  0
    9.2800    0.2590   21.5690 C   0  0  0  0  0  0  0  0  0  0  0  0
    8.7460    1.2300   20.9930 O   0  0  0  0  0  0  0  0  0  0  0  0
   10.3880    0.3460   22.5570 C   0  0  0  0  0  0  0  0  0  0  0  0
   11.4350    1.4100   22.7390 C   0  0  0  0  0  0  0  0  0  0  0  0
   10.3690   -0.7310   23.3560 C   0  0  0  0  0  0  0  0  0  0  0  0
   12.3690    1.1140   23.8160 C   0  0  0  0  0  0  0  0  0  0  0  0
   11.2480   -0.9240   24.3280 C   0  0  0  0  0  0  0  0  0  0  0  0
   12.2580   -0.0340   24.5830 C   0  0  0  0  0  0  0  0  0  0  0  0
  1  2  1  0
  2  3  1  0
  2  4  1  0
  4  5  1  0
  5  6  1  0
  6  7  2  0
  6  8  1  0
  7  9  1  0
  8 10  2  0
  8 11  1  0
  9 12  2  0
 10 12  1  0
 11 13  1  0
 13 14  2  0
 13 15  1  0
 15 16  2  0
 15 17  1  0
 16 18  1  0
 17 19  2  0
 18 20  2  0
 19 20  1  0
M  END
