FAB-UNK-7ad5ab26-3-nitrile
     RDKit          3D

 26 28  0  0  0  0  0  0  0  0999 V2000
    6.3930   -4.4730   20.3280 C   0  0  0  0  0  0  0  0  0  0  0  0
    5.2900   -4.1650   19.7790 N   0  0  0  0  0  0  0  0  0  0  0  0
    6.5620   -5.1630   21.5360 N   0  0  0  0  0  0  0  0  0  0  0  0
    7.1710   -4.4850   22.6260 C   0  0  0  0  0  0  0  0  0  0  0  0
    5.5680   -6.1270   22.0380 C   0  0  0  0  0  0  0  0  0  0  0  0
    6.3220   -3.9050   23.5880 C   0  0  0  0  0  0  0  0  0  0  0  0
    4.6090   -5.5000   23.1000 C   0  0  0  0  0  0  0  0  0  0  0  0
    5.3860   -4.7260   24.1110 N   0  0  0  0  0  0  0  0  0  0  0  0
    4.6330   -4.1460   25.2800 C   0  0  0  0  0  0  0  0  0  0  0  0
    5.4310   -3.9590   26.4280 C   0  0  0  0  0  0  0  0  0  0  0  0
    3.2710   -3.7390   25.2970 N   0  0  0  0  0  0  0  0  0  0  0  0
    6.8010   -4.2340   26.4070 C   0  0  0  0  0  0  0  0  0  0  0  0
    3.0800   -2.4400   25.7020 C   0  0  0  0  0  0  0  0  0  0  0  0
    2.1730   -4.6040   25.3350 C   0  0  0  0  0  0  0  0  0  0  0  0
    7.4740   -5.4790   26.9440 C   0  0  0  0  0  0  0  0  0  0  0  0
    7.6090   -3.2250   25.8180 C   0  0  0  0  0  0  0  0  0  0  0  0
    1.8890   -1.9650   26.2080 C   0  0  0  0  0  0  0  0  0  0  0  0
    0.9200   -3.9850   25.4530 C   0  0  0  0  0  0  0  0  0  0  0  0
    2.3090   -5.9660   25.2720 O   0  0  0  0  0  0  0  0  0  0  0  0
    8.9270   -5.5680   26.8200 C   0  0  0  0  0  0  0  0  0  0  0  0
    8.9980   -3.2950   25.6890 C   0  0  0  0  0  0  0  0  0  0  0  0
    0.8560   -2.8790   26.2840 C   0  0  0  0  0  0  0  0  0  0  0  0
    9.6060   -4.4460   26.1860 C   0  0  0  0  0  0  0  0  0  0  0  0
   -0.0670   -2.6880   27.0720 O   0  0  0  0  0  0  0  0  0  0  0  0
   11.1300   -4.4810   26.0280 C   0  0  0  0  0  0  0  0  0  0  0  0
   11.8200   -3.4750   25.4670 N   0  0  0  0  0  0  0  0  0  0  0  0
  1  2  2  3
  1  3  1  0
  3  4  1  0
  3  5  1  0
  4  6  1  0
  5  7  1  0
  6  8  1  0
  7  8  1  0
  8  9  1  0
  9 10  2  3
  9 11  1  0
 10 12  1  0
 11 13  1  0
 11 14  1  0
 12 15  2  0
 12 16  1  0
 13 17  2  0
 14 18  1  0
 14 19  2  0
 15 20  1  0
 16 21  2  0
 17 22  1  0
 18 22  1  0
 20 23  2  0
 21 23  1  0
 22 24  2  0
 23 25  1  0
 25 26  3  0
M  END
