FAB-ASS-ec2fd593-1
     RDKit          3D

 39 42  0  0  0  0  0  0  0  0999 V2000
    1.3060    2.7830   23.6290 O   0  0  0  0  0  0  0  0  0  0  0  0
    1.7030    1.7450   23.1010 C   0  0  0  0  0  0  0  0  0  0  0  0
    2.1840    0.5810   23.9460 C   0  0  0  0  0  0  0  0  0  0  0  0
    1.7640    1.4910   21.7600 O   0  0  0  0  0  0  0  0  0  0  0  0
    1.7460    0.2750   25.3970 C   0  0  0  0  0  0  0  0  0  0  0  0
    1.9470    2.6430   20.9010 C   0  0  1  0  0  0  0  0  0  0  0  0
    2.4810   -1.0160   25.8270 C   0  0  0  0  0  0  0  0  0  0  0  0
    2.7840    2.1780   19.8580 C   0  0  0  0  0  0  0  0  0  0  0  0
    0.7010    3.1120   20.4520 C   0  0  0  0  0  0  0  0  0  0  0  0
    1.5500   -2.1940   25.6360 C   0  0  0  0  0  0  0  0  0  0  0  0
    3.7820   -1.2700   26.3360 C   0  0  0  0  0  0  0  0  0  0  0  0
    4.1580    2.1840   20.1090 C   0  0  0  0  0  0  0  0  0  0  0  0
   -0.3640    2.5080   20.4810 O   0  0  0  0  0  0  0  0  0  0  0  0
    0.7270    4.3710   19.9590 O   0  0  0  0  0  0  0  0  0  0  0  0
    2.0710   -3.5510   25.9870 C   0  0  0  0  0  0  0  0  0  0  0  0
    4.1790   -2.5780   26.6390 C   0  0  0  0  0  0  0  0  0  0  0  0
    4.7660   -0.3090   26.5890 C   0  0  2  0  0  0  0  0  0  0  0  0
    4.7090    3.0480   21.0320 C   0  0  0  0  0  0  0  0  0  0  0  0
    4.9800    1.2990   19.4090 C   0  0  0  0  0  0  0  0  0  0  0  0
    3.3620   -3.7110   26.4730 C   0  0  0  0  0  0  0  0  0  0  0  0
    5.0790    0.6840   25.6490 C   0  0  0  0  0  0  0  0  0  0  0  0
    5.9580   -1.2700   26.8940 C   0  0  1  0  0  0  0  0  0  0  0  0
    5.4580   -2.6270   27.1200 O   0  0  0  0  0  0  0  0  0  0  0  0
    6.1620    3.1560   21.3980 C   0  0  0  0  0  0  0  0  0  0  0  0
    6.4860    1.2260   19.6110 C   0  0  0  0  0  0  0  0  0  0  0  0
    3.8230   -4.8040   26.7700 O   0  0  0  0  0  0  0  0  0  0  0  0
    5.2560    0.1730   24.3350 O   0  0  0  0  0  0  0  0  0  0  0  0
    5.1890    1.8770   25.9530 O   0  0  0  0  0  0  0  0  0  0  0  0
    7.1700   -1.3040   25.9280 C   0  0  0  0  0  0  0  0  0  0  0  0
    7.0960    2.2000   20.6510 C   0  0  0  0  0  0  0  0  0  0  0  0
    7.2760    0.3390   18.9110 O   0  0  0  0  0  0  0  0  0  0  0  0
    8.2570   -0.2300   26.1030 C   0  0  0  0  0  0  0  0  0  0  0  0
    7.2750   -2.2940   24.9330 C   0  0  0  0  0  0  0  0  0  0  0  0
    8.4470    2.2420   20.9220 O   0  0  0  0  0  0  0  0  0  0  0  0
    9.4640   -0.2900   25.1410 C   0  0  0  0  0  0  0  0  0  0  0  0
    8.3660   -2.3550   24.0600 C   0  0  0  0  0  0  0  0  0  0  0  0
    9.4190   -1.4350   24.1200 C   0  0  0  0  0  0  0  0  0  0  0  0
    8.3880   -3.2500   23.2220 O   0  0  0  0  0  0  0  0  0  0  0  0
   10.3300   -1.5750   23.3120 O   0  0  0  0  0  0  0  0  0  0  0  0
  1  2  2  0
  2  3  1  0
  2  4  1  0
  3  5  2  3
  4  6  1  0
  5  7  1  0
  6  8  1  6
  6  9  1  0
  7 10  2  0
  7 11  1  0
  8 12  1  0
  9 13  2  0
  9 14  1  0
 10 15  1  0
 11 16  2  0
 11 17  1  0
 12 18  2  0
 12 19  1  0
 15 20  2  0
 16 20  1  0
 17 21  1  6
 17 22  1  0
 16 23  1  0
 22 23  1  0
 18 24  1  0
 19 25  2  0
 20 26  1  0
 21 27  2  0
 21 28  1  0
 22 29  1  6
 24 30  2  0
 25 30  1  0
 25 31  1  0
 29 32  2  0
 29 33  1  0
 30 34  1  0
 32 35  1  0
 33 36  2  0
 35 37  2  0
 36 37  1  0
 36 38  1  0
 37 39  1  0
M  END
