FAB-NA-a0010840-1-nitrile
     RDKit          3D

 31 34  0  0  0  0  0  0  0  0999 V2000
    6.4990   -4.2690   20.4310 C   0  0  0  0  0  0  0  0  0  0  0  0
    5.3990   -4.1300   19.8220 N   0  0  0  0  0  0  0  0  0  0  0  0
    6.5600   -4.4340   21.8540 N   0  0  0  0  0  0  0  0  0  0  0  0
    7.5650   -3.8000   22.7610 C   0  0  0  0  0  0  0  0  0  0  0  0
    5.3040   -4.8390   22.5220 C   0  0  2  0  0  0  0  0  0  0  0  0
    8.0960   -2.5840   22.5830 N   0  0  0  0  0  0  0  0  0  0  0  0
    8.1560   -4.3220   23.9610 C   0  0  0  0  0  0  0  0  0  0  0  0
    5.0740   -4.3000   23.9130 C   0  0  0  0  0  0  0  0  0  0  0  0
    5.1380   -6.3740   22.6580 C   0  0  0  0  0  0  0  0  0  0  0  0
    8.9800   -2.3580   23.6060 N   0  0  0  0  0  0  0  0  0  0  0  0
    9.0510   -3.4180   24.4760 C   0  0  0  0  0  0  0  0  0  0  0  0
    8.0540   -5.7790   24.9290 S   0  0  0  0  0  0  0  0  0  0  0  0
    4.2950   -5.2190   24.8370 C   0  0  0  0  0  0  0  0  0  0  0  0
    3.9360   -6.6480   23.9280 S   0  0  0  0  0  0  0  0  0  0  0  0
    9.7310   -1.1340   23.7220 C   0  0  2  0  0  0  0  0  0  0  0  0
    9.8510   -3.4700   25.5710 N   0  0  0  0  0  0  0  0  0  0  0  0
    9.4110   -6.1390   25.3040 O   0  0  0  0  0  0  0  0  0  0  0  0
    7.1460   -5.2850   26.3860 C   0  0  0  0  0  0  0  0  0  0  0  0
    4.3260   -7.8100   24.6950 O   0  0  0  0  0  0  0  0  0  0  0  0
    2.6030   -6.5190   23.3700 O   0  0  0  0  0  0  0  0  0  0  0  0
   10.3830   -0.4490   22.5220 C   0  0  0  0  0  0  0  0  0  0  0  0
   11.2100   -1.3220   24.3130 C   0  0  0  0  0  0  0  0  0  0  0  0
    7.5950   -4.2730   27.2400 C   0  0  0  0  0  0  0  0  0  0  0  0
    5.9360   -5.9210   26.6950 C   0  0  0  0  0  0  0  0  0  0  0  0
   11.7200   -0.5120   23.1340 C   0  0  1  0  0  0  0  0  0  0  0  0
    6.7980   -3.9550   28.3420 C   0  0  0  0  0  0  0  0  0  0  0  0
    5.1600   -5.6100   27.7720 N   0  0  0  0  0  0  0  0  0  0  0  0
   12.5730   -1.1010   22.4640 O   0  0  0  0  0  0  0  0  0  0  0  0
    5.5970   -4.6220   28.5890 C   0  0  0  0  0  0  0  0  0  0  0  0
    4.6810   -4.3290   29.7470 C   0  0  0  0  0  0  0  0  0  0  0  0
    4.1170   -5.1620   30.3360 N   0  0  0  0  0  0  0  0  0  0  0  0
  1  2  2  3
  1  3  1  0
  3  4  1  0
  5  3  1  1
  4  6  2  0
  4  7  1  0
  5  8  1  0
  5  9  1  0
  6 10  1  0
  7 11  2  0
 10 11  1  0
  7 12  1  0
  8 13  2  0
  9 14  1  0
 14 13  1  0
 15 10  1  6
 11 16  1  0
 12 17  1  1
 12 18  1  0
 14 19  2  0
 14 20  2  0
 15 21  1  0
 15 22  1  0
 18 23  2  0
 18 24  1  0
 21 25  1  0
 22 25  1  0
 23 26  1  0
 24 27  2  0
 25 28  1  6
 26 29  2  0
 27 29  1  0
 29 30  1  0
 30 31  3  0
M  CHG  2  12   1  17  -1
M  END
