FAB-NA-a0010840-2-chloroacetamide
     RDKit          3D

 36 40  0  0  0  0  0  0  0  0999 V2000
    7.2030   -3.6000   20.1320 C   0  0  0  0  0  0  0  0  0  0  0  0
    6.4390   -4.7320   20.8210 C   0  0  0  0  0  0  0  0  0  0  0  0
    5.5570   -5.2570   20.1020 O   0  0  0  0  0  0  0  0  0  0  0  0
    6.6970   -5.1690   22.1820 N   0  0  0  0  0  0  0  0  0  0  0  0
    7.4090   -4.3430   23.1160 C   0  0  0  0  0  0  0  0  0  0  0  0
    5.6280   -5.7100   23.0260 C   0  0  1  0  0  0  0  0  0  0  0  0
    7.9800   -3.2270   22.6770 N   0  0  0  0  0  0  0  0  0  0  0  0
    7.4220   -4.8060   24.6390 C   0  0  0  0  0  0  0  0  0  0  0  0
    5.1500   -4.7780   23.9530 C   0  0  0  0  0  0  0  0  0  0  0  0
    4.3840   -6.2980   22.4580 C   0  0  0  0  0  0  0  0  0  0  0  0
    8.5980   -2.3570   23.5910 C   0  0  0  0  0  0  0  0  0  0  0  0
    8.0410   -3.9790   25.5940 C   0  0  0  0  0  0  0  0  0  0  0  0
    6.9070   -5.8160   25.1090 O   0  0  0  0  0  0  0  0  0  0  0  0
    3.9180   -5.2640   24.6570 C   0  0  0  0  0  0  0  0  0  0  0  0
    3.5880   -6.8210   23.9740 S   0  0  0  0  0  0  0  0  0  0  0  0
    8.6260   -2.6740   25.0510 C   0  0  0  0  0  0  0  0  0  0  0  0
    5.9860   -5.5500   26.2010 C   0  0  0  0  0  0  0  0  0  0  0  0
    9.1880   -1.1170   23.0480 C   0  0  0  0  0  0  0  0  0  0  0  0
    2.1930   -6.9700   23.7760 O   0  0  0  0  0  0  0  0  0  0  0  0
    4.2960   -7.8400   24.6710 O   0  0  0  0  0  0  0  0  0  0  0  0
    5.6520   -4.1030   26.4870 C   0  0  0  0  0  0  0  0  0  0  0  0
    5.3470   -6.4930   27.0450 C   0  0  0  0  0  0  0  0  0  0  0  0
    9.1850   -1.7060   25.9180 N   0  0  0  0  0  0  0  0  0  0  0  0
    9.0270   -0.0130   23.9820 N   0  0  0  0  0  0  0  0  0  0  0  0
    4.7690   -3.7740   27.5250 C   0  0  0  0  0  0  0  0  0  0  0  0
    4.4680   -6.1550   28.0790 N   0  0  0  0  0  0  0  0  0  0  0  0
    8.6270   -1.4270   27.1400 C   0  0  0  0  0  0  0  0  0  0  0  0
    9.5930   -0.4410   25.2660 C   0  0  0  0  0  0  0  0  0  0  0  0
    4.2080   -4.8090   28.2840 C   0  0  0  0  0  0  0  0  0  0  0  0
    9.0490   -0.5240   28.0120 N   0  0  0  0  0  0  0  0  0  0  0  0
    7.5120   -2.1410   27.5360 O   0  0  0  0  0  0  0  0  0  0  0  0
    3.3180   -4.5770   29.3400 C   0  0  0  0  0  0  0  0  0  0  0  0
    8.2060   -0.5880   29.0870 C   0  0  0  0  0  0  0  0  0  0  0  0
    7.1850   -1.6550   28.7770 C   0  0  0  0  0  0  0  0  0  0  0  0
    1.9870   -5.0190   29.1780 N   0  0  0  0  0  0  0  0  0  0  0  0
    6.1300   -2.1880   29.3720 O   0  0  0  0  0  0  0  0  0  0  0  0
  1  2  1  0
  2  3  2  0
  2  4  1  0
  4  5  1  0
  6  4  1  6
  5  7  2  0
  5  8  1  0
  6  9  1  0
  6 10  1  0
  7 11  1  0
  8 12  2  0
  8 13  1  0
  9 14  2  0
 10 15  1  0
 15 14  1  0
 11 16  2  0
 12 16  1  0
 13 17  1  0
 11 18  1  0
 15 19  2  0
 15 20  2  0
 17 21  2  0
 17 22  1  0
 16 23  1  0
 18 24  1  0
 21 25  1  0
 22 26  2  0
 23 27  1  0
 23 28  1  0
 24 28  1  0
 25 29  2  0
 26 29  1  0
 27 30  2  0
 27 31  1  0
 29 32  1  0
 30 33  1  0
 31 34  1  0
 33 34  2  0
 32 35  3  0
 34 36  1  0
M  END
