FAB-UNK-7ad5ab26-3-vinylsulfonamide
     RDKit          3D

 29 31  0  0  0  0  0  0  0  0999 V2000
    5.7970   -4.6050   20.5320 C   0  0  0  0  0  0  0  0  0  0  0  0
    5.7190   -4.0080   21.9880 C   0  0  0  0  0  0  0  0  0  0  0  0
    4.5380   -4.8080   23.0860 S   0  0  0  0  0  0  0  0  0  0  0  0
    3.6500   -5.6350   22.3250 O   0  0  0  0  0  0  0  0  0  0  0  0
    3.9810   -3.8330   23.9990 O   0  0  0  0  0  0  0  0  0  0  0  0
    5.5820   -5.7800   23.9590 N   0  0  0  0  0  0  0  0  0  0  0  0
    6.6930   -6.0080   23.1370 C   0  0  0  0  0  0  0  0  0  0  0  0
    5.9610   -5.0550   25.1690 C   0  0  0  0  0  0  0  0  0  0  0  0
    7.8340   -5.2350   23.3680 C   0  0  0  0  0  0  0  0  0  0  0  0
    6.4790   -3.6700   24.7660 C   0  0  0  0  0  0  0  0  0  0  0  0
    7.6050   -3.8380   23.8230 N   0  0  0  0  0  0  0  0  0  0  0  0
    7.6900   -2.7610   22.7930 C   0  0  0  0  0  0  0  0  0  0  0  0
    6.4260   -2.3430   22.3390 C   0  0  0  0  0  0  0  0  0  0  0  0
    8.8330   -2.2380   22.3620 N   0  0  0  0  0  0  0  0  0  0  0  0
    6.0480   -1.2940   21.3180 C   0  0  0  0  0  0  0  0  0  0  0  0
    8.7490   -0.8990   22.1180 C   0  0  0  0  0  0  0  0  0  0  0  0
    9.9930   -2.6800   22.8840 C   0  0  0  0  0  0  0  0  0  0  0  0
    4.8030   -0.5820   21.6820 C   0  0  0  0  0  0  0  0  0  0  0  0
    6.8370   -1.0770   20.1660 C   0  0  0  0  0  0  0  0  0  0  0  0
    9.8720   -0.0840   22.2460 C   0  0  0  0  0  0  0  0  0  0  0  0
   11.1700   -2.0540   22.4410 C   0  0  0  0  0  0  0  0  0  0  0  0
   10.0890   -3.5710   23.7140 O   0  0  0  0  0  0  0  0  0  0  0  0
    4.3170    0.4520   20.7660 C   0  0  0  0  0  0  0  0  0  0  0  0
    6.4790   -0.1240   19.2290 C   0  0  0  0  0  0  0  0  0  0  0  0
   11.0640   -0.6830   22.6250 C   0  0  0  0  0  0  0  0  0  0  0  0
    5.2130    0.6360   19.5360 C   0  0  0  0  0  0  0  0  0  0  0  0
   11.9670    0.0070   23.0910 O   0  0  0  0  0  0  0  0  0  0  0  0
    4.8600    1.6760   18.4610 C   0  0  0  0  0  0  0  0  0  0  0  0
    5.6450    1.3830   17.2650 N   0  0  0  0  0  0  0  0  0  0  0  0
  1  2  1  0
  3  2  1  0
  3  4  2  0
  3  5  2  0
  3  6  1  0
  6  7  1  0
  6  8  1  0
  7  9  1  0
  8 10  1  0
  9 11  1  0
 10 11  1  0
 11 12  1  0
 12 13  2  3
 12 14  1  0
 13 15  1  0
 14 16  1  0
 14 17  1  0
 15 18  2  0
 15 19  1  0
 16 20  2  0
 17 21  1  0
 17 22  2  0
 18 23  1  0
 19 24  2  0
 20 25  1  0
 21 25  1  0
 23 26  2  0
 24 26  1  0
 25 27  2  0
 26 28  1  0
 28 29  3  0
M  END
