FAB-NA-a0010840-3-bromoalkyne
     RDKit          3D

 31 34  0  0  0  0  0  0  0  0999 V2000
    6.5770   -4.5170   20.4310 C   0  0  0  0  0  0  0  0  0  0  0  0
    5.9570   -3.4820   19.4980 C   0  0  0  0  0  0  0  0  0  0  0  0
    6.3280   -4.5630   21.8350 N   0  0  0  0  0  0  0  0  0  0  0  0
    6.9770   -3.5500   22.5960 C   0  0  0  0  0  0  0  0  0  0  0  0
    5.0980   -4.9810   22.5080 C   0  0  2  0  0  0  0  0  0  0  0  0
    6.6810   -2.1870   22.4830 N   0  0  0  0  0  0  0  0  0  0  0  0
    7.9500   -3.6200   23.5380 C   0  0  0  0  0  0  0  0  0  0  0  0
    5.0970   -4.4600   23.9650 C   0  0  0  0  0  0  0  0  0  0  0  0
    4.9990   -6.5020   22.6900 C   0  0  0  0  0  0  0  0  0  0  0  0
    7.4890   -1.4180   23.3490 N   0  0  0  0  0  0  0  0  0  0  0  0
    8.3520   -2.2900   24.0430 C   0  0  0  0  0  0  0  0  0  0  0  0
    8.5870   -4.7130   24.0550 C   0  0  0  0  0  0  0  0  0  0  0  0
    4.4840   -5.2940   24.8840 C   0  0  0  0  0  0  0  0  0  0  0  0
    3.9190   -6.6970   24.0430 S   0  0  0  0  0  0  0  0  0  0  0  0
    7.3400   -0.0080   23.4080 C   0  0  0  0  0  0  0  0  0  0  0  0
    9.5260   -1.8420   25.1640 Cl  0  0  0  0  0  0  0  0  0  0  0  0
    9.8050   -4.3370   24.5340 C   0  0  0  0  0  0  0  0  0  0  0  0
    4.3190   -7.8620   24.8060 O   0  0  0  0  0  0  0  0  0  0  0  0
    2.5460   -6.5190   23.6110 O   0  0  0  0  0  0  0  0  0  0  0  0
    6.9110    0.5920   24.7510 C   0  0  0  0  0  0  0  0  0  0  0  0
    7.5500    0.6450   22.3770 O   0  0  0  0  0  0  0  0  0  0  0  0
   10.7190   -3.3870   23.8560 C   0  0  0  0  0  0  0  0  0  0  0  0
   10.2810   -4.8290   25.7340 C   0  0  0  0  0  0  0  0  0  0  0  0
    6.7230    2.1160   24.8160 C   0  0  0  0  0  0  0  0  0  0  0  0
    7.4790    2.0810   22.4540 C   0  0  0  0  0  0  0  0  0  0  0  0
   12.0200   -3.0400   24.4340 C   0  0  0  0  0  0  0  0  0  0  0  0
   11.5210   -4.4710   26.2420 N   0  0  0  0  0  0  0  0  0  0  0  0
    6.4730    2.4650   23.3430 C   0  0  0  0  0  0  0  0  0  0  0  0
   12.3590   -3.6040   25.5860 C   0  0  0  0  0  0  0  0  0  0  0  0
   13.7020   -3.2870   26.1380 C   0  0  0  0  0  0  0  0  0  0  0  0
   14.6280   -2.6960   25.4110 N   0  0  0  0  0  0  0  0  0  0  0  0
  1  2  2  3
  1  3  1  0
  3  4  1  0
  5  3  1  1
  4  6  2  0
  4  7  1  0
  5  8  1  0
  5  9  1  0
  6 10  1  0
  7 11  2  0
 10 11  1  0
  7 12  1  0
  8 13  2  0
  9 14  1  0
 14 13  1  0
 10 15  1  0
 11 16  1  0
 12 17  1  0
 14 18  2  0
 14 19  2  0
 15 20  2  0
 15 21  1  0
 17 22  2  0
 17 23  1  0
 20 24  1  0
 21 25  1  0
 22 26  1  0
 23 27  2  0
 24 28  1  0
 25 28  1  0
 26 29  2  0
 27 29  1  0
 29 30  1  0
 30 31  3  0
M  END
