FAB-NA-a0010840-3-acrylamide
     RDKit          3D

 33 36  0  0  0  0  0  0  0  0999 V2000
    8.0840   -5.0990   20.5060 C   0  0  0  0  0  0  0  0  0  0  0  0
    6.6910   -5.7070   20.5750 C   0  0  0  0  0  0  0  0  0  0  0  0
    5.6480   -4.6450   20.7430 C   0  0  0  0  0  0  0  0  0  0  0  0
    5.1040   -4.1780   19.7520 O   0  0  0  0  0  0  0  0  0  0  0  0
    5.3540   -4.2370   22.0380 N   0  0  0  0  0  0  0  0  0  0  0  0
    6.4090   -3.7880   22.8910 C   0  0  0  0  0  0  0  0  0  0  0  0
    4.2780   -4.8460   22.8710 C   0  0  2  0  0  0  0  0  0  0  0  0
    6.4250   -4.5810   24.0920 N   0  0  0  0  0  0  0  0  0  0  0  0
    7.3690   -2.7120   22.6770 C   0  0  0  0  0  0  0  0  0  0  0  0
    4.4030   -4.3880   24.1800 C   0  0  0  0  0  0  0  0  0  0  0  0
    4.4080   -6.3820   22.9550 C   0  0  0  0  0  0  0  0  0  0  0  0
    7.3780   -4.0530   24.7510 N   0  0  0  0  0  0  0  0  0  0  0  0
    7.9090   -3.0010   23.9930 C   0  0  0  0  0  0  0  0  0  0  0  0
    8.3760   -1.7380   22.6830 C   0  0  0  0  0  0  0  0  0  0  0  0
    3.9910   -5.3760   25.2340 C   0  0  0  0  0  0  0  0  0  0  0  0
    3.4920   -6.8160   24.4200 S   0  0  0  0  0  0  0  0  0  0  0  0
    7.6920   -4.5740   25.9920 C   0  0  0  0  0  0  0  0  0  0  0  0
    9.1910   -2.1190   24.7180 Cl  0  0  0  0  0  0  0  0  0  0  0  0
    9.7710   -2.0950   23.1580 C   0  0  0  0  0  0  0  0  0  0  0  0
    4.1030   -7.9700   25.0310 O   0  0  0  0  0  0  0  0  0  0  0  0
    2.0680   -6.7760   24.1470 O   0  0  0  0  0  0  0  0  0  0  0  0
    6.9140   -4.5140   27.2840 C   0  0  0  0  0  0  0  0  0  0  0  0
    8.8920   -5.2370   26.0040 O   0  0  0  0  0  0  0  0  0  0  0  0
   11.0870   -1.4790   23.1370 C   0  0  0  0  0  0  0  0  0  0  0  0
   10.1550   -3.2260   23.8030 C   0  0  0  0  0  0  0  0  0  0  0  0
    7.7440   -5.2420   28.3110 C   0  0  0  0  0  0  0  0  0  0  0  0
    9.7560   -4.6760   26.9380 C   0  0  0  0  0  0  0  0  0  0  0  0
   12.1740   -0.8200   23.0440 C   0  0  0  0  0  0  0  0  0  0  0  0
   11.4810   -3.2470   24.1260 N   0  0  0  0  0  0  0  0  0  0  0  0
    9.2340   -4.9350   28.2240 C   0  0  0  0  0  0  0  0  0  0  0  0
   12.3800   -2.2000   23.8050 C   0  0  0  0  0  0  0  0  0  0  0  0
   13.7680   -2.5370   24.3240 C   0  0  0  0  0  0  0  0  0  0  0  0
   14.0180   -3.0550   25.7110 N   0  0  0  0  0  0  0  0  0  0  0  0
  1  2  1  0
  2  3  1  0
  3  4  2  0
  3  5  1  0
  5  6  1  0
  7  5  1  6
  6  8  2  0
  6  9  1  0
  7 10  1  0
  7 11  1  0
  8 12  1  0
  9 13  2  0
 12 13  1  0
  9 14  1  0
 10 15  2  0
 11 16  1  0
 16 15  1  0
 12 17  1  0
 13 18  1  0
 14 19  1  0
 16 20  2  0
 16 21  2  0
 17 22  2  0
 17 23  1  0
 19 24  2  0
 19 25  1  0
 22 26  1  0
 23 27  1  0
 24 28  1  0
 25 29  2  0
 26 30  1  0
 27 30  1  0
 28 31  2  0
 29 31  1  0
 31 32  1  0
 32 33  3  0
M  END
