FAB-NA-a0010840-1-acrylamide
     RDKit          3D

 33 36  0  0  0  0  0  0  0  0999 V2000
    8.9530   -4.4210   20.7510 C   0  0  0  0  0  0  0  0  0  0  0  0
    7.8080   -3.3920   20.7370 C   0  0  0  0  0  0  0  0  0  0  0  0
    6.4120   -3.9880   20.5930 C   0  0  0  0  0  0  0  0  0  0  0  0
    5.3300   -4.5260   20.7860 O   0  0  0  0  0  0  0  0  0  0  0  0
    6.4920   -4.2640   21.9830 N   0  0  0  0  0  0  0  0  0  0  0  0
    7.6140   -3.9350   22.8710 C   0  0  0  0  0  0  0  0  0  0  0  0
    5.2010   -4.6930   22.6340 C   0  0  2  0  0  0  0  0  0  0  0  0
    7.8840   -2.5310   23.3260 N   0  0  0  0  0  0  0  0  0  0  0  0
    8.5770   -4.7340   23.4580 C   0  0  0  0  0  0  0  0  0  0  0  0
    5.0500   -4.2310   24.0830 C   0  0  0  0  0  0  0  0  0  0  0  0
    5.0010   -6.2550   22.7250 C   0  0  0  0  0  0  0  0  0  0  0  0
    8.9900   -2.5540   24.1640 N   0  0  0  0  0  0  0  0  0  0  0  0
    9.4460   -3.8650   24.2830 C   0  0  0  0  0  0  0  0  0  0  0  0
    8.9440   -6.3260   23.4870 S   0  0  0  0  0  0  0  0  0  0  0  0
    4.3360   -5.2260   24.9850 C   0  0  0  0  0  0  0  0  0  0  0  0
    3.9230   -6.6280   24.0600 S   0  0  0  0  0  0  0  0  0  0  0  0
    9.5580   -1.4180   24.8010 C   0  0  1  0  0  0  0  0  0  0  0  0
   10.6090   -4.0700   25.1500 N   0  0  0  0  0  0  0  0  0  0  0  0
    7.8170   -7.0220   22.9180 O   0  0  0  0  0  0  0  0  0  0  0  0
    8.5900   -5.9690   25.2060 C   0  0  0  0  0  0  0  0  0  0  0  0
    2.5410   -6.5550   23.6260 O   0  0  0  0  0  0  0  0  0  0  0  0
    4.3890   -7.7990   24.7750 O   0  0  0  0  0  0  0  0  0  0  0  0
   10.3610   -0.3240   24.0620 C   0  0  0  0  0  0  0  0  0  0  0  0
    8.4070   -0.3070   25.0210 C   0  0  0  0  0  0  0  0  0  0  0  0
    9.4130   -5.9520   26.3020 C   0  0  0  0  0  0  0  0  0  0  0  0
    7.2310   -5.6240   25.5400 C   0  0  0  0  0  0  0  0  0  0  0  0
    9.3360    0.5920   24.5630 C   0  0  2  0  0  0  0  0  0  0  0  0
    8.9410   -5.6210   27.6570 C   0  0  0  0  0  0  0  0  0  0  0  0
    6.7040   -5.3060   26.7740 N   0  0  0  0  0  0  0  0  0  0  0  0
    8.9110    1.4650   23.8110 O   0  0  0  0  0  0  0  0  0  0  0  0
    7.5060   -5.2890   27.8640 C   0  0  0  0  0  0  0  0  0  0  0  0
    6.8880   -4.9700   29.0000 C   0  0  0  0  0  0  0  0  0  0  0  0
    6.1270   -3.6690   28.9240 N   0  0  0  0  0  0  0  0  0  0  0  0
  1  2  1  0
  2  3  1  0
  3  4  2  0
  3  5  1  0
  5  6  1  0
  7  5  1  1
  6  8  2  0
  6  9  1  0
  7 10  1  0
  7 11  1  0
  8 12  1  0
  9 13  2  0
 12 13  1  0
  9 14  1  0
 10 15  2  0
 11 16  1  0
 16 15  1  0
 17 12  1  6
 13 18  1  0
 14 19  1  6
 14 20  1  0
 16 21  2  0
 16 22  2  0
 17 23  1  0
 17 24  1  0
 20 25  2  0
 20 26  1  0
 23 27  1  0
 24 27  1  0
 25 28  1  0
 26 29  2  0
 27 30  1  6
 28 31  2  0
 29 31  1  0
 31 32  1  0
 32 33  3  0
M  CHG  2  14   1  19  -1
M  END
