FAB-UNK-7ad5ab26-1-acrylamide
     RDKit          3D

 26 28  0  0  0  0  0  0  0  0999 V2000
    8.2780   -3.7130   20.3300 C   0  0  0  0  0  0  0  0  0  0  0  0
    6.8870   -3.1310   20.3630 C   0  0  0  0  0  0  0  0  0  0  0  0
    6.0070   -4.3200   20.6120 C   0  0  0  0  0  0  0  0  0  0  0  0
    5.1240   -4.5480   19.8060 O   0  0  0  0  0  0  0  0  0  0  0  0
    6.2970   -5.1220   21.7360 N   0  0  0  0  0  0  0  0  0  0  0  0
    7.0890   -4.6180   22.8370 C   0  0  0  0  0  0  0  0  0  0  0  0
    5.4440   -6.2060   22.2110 C   0  0  0  0  0  0  0  0  0  0  0  0
    6.3890   -4.2790   23.9960 C   0  0  0  0  0  0  0  0  0  0  0  0
    4.5270   -5.6860   23.3360 C   0  0  0  0  0  0  0  0  0  0  0  0
    5.4140   -5.3020   24.4760 N   0  0  0  0  0  0  0  0  0  0  0  0
    4.6870   -4.7490   25.6370 C   0  0  1  0  0  0  0  0  0  0  0  0
    3.7790   -3.5830   25.3000 C   0  0  0  0  0  0  0  0  0  0  0  0
    3.9470   -5.4850   26.3010 O   0  0  0  0  0  0  0  0  0  0  0  0
    2.8620   -3.4490   26.3750 C   0  0  0  0  0  0  0  0  0  0  0  0
    3.2420   -4.5990   27.2120 C   0  0  0  0  0  0  0  0  0  0  0  0
    1.8610   -2.3780   26.3500 C   0  0  0  0  0  0  0  0  0  0  0  0
    3.0260   -4.7890   28.4130 O   0  0  0  0  0  0  0  0  0  0  0  0
    0.6500   -2.8070   25.4990 C   0  0  0  0  0  0  0  0  0  0  0  0
   -0.5280   -1.8100   25.3490 C   0  0  0  0  0  0  0  0  0  0  0  0
   -0.4490   -0.3900   25.9610 C   0  0  0  0  0  0  0  0  0  0  0  0
   -1.6900   -2.1550   24.6580 C   0  0  0  0  0  0  0  0  0  0  0  0
   -1.5390    0.4600   25.7890 C   0  0  0  0  0  0  0  0  0  0  0  0
   -2.7370   -1.2550   24.5270 C   0  0  0  0  0  0  0  0  0  0  0  0
   -2.6670    0.0280   25.0790 C   0  0  0  0  0  0  0  0  0  0  0  0
   -3.7480    0.9010   24.9230 C   0  0  0  0  0  0  0  0  0  0  0  0
   -4.8950    1.8190   24.7640 N   0  0  0  0  0  0  0  0  0  0  0  0
  1  2  1  0
  2  3  1  0
  3  4  2  0
  3  5  1  0
  5  6  1  0
  5  7  1  0
  6  8  1  0
  7  9  1  0
  8 10  1  0
  9 10  1  0
 11 10  1  6
 11 12  1  0
 11 13  1  0
 12 14  2  0
 13 15  1  0
 14 15  1  0
 14 16  1  0
 15 17  2  0
 16 18  2  3
 18 19  1  0
 19 20  2  0
 19 21  1  0
 20 22  1  0
 21 23  2  0
 22 24  2  0
 23 24  1  0
 24 25  1  0
 25 26  3  0
M  END
