FAB-UNK-7ad5ab26-1-vinylsulfonamide
     RDKit          3D

 27 29  0  0  0  0  0  0  0  0999 V2000
    6.2880   -5.0560   20.3280 C   0  0  0  0  0  0  0  0  0  0  0  0
    5.8060   -5.7550   21.6340 C   0  0  0  0  0  0  0  0  0  0  0  0
    4.5880   -4.8110   22.5080 S   0  0  0  0  0  0  0  0  0  0  0  0
    3.3540   -5.5470   22.4410 O   0  0  0  0  0  0  0  0  0  0  0  0
    4.5530   -3.5180   21.9100 O   0  0  0  0  0  0  0  0  0  0  0  0
    5.0920   -4.8070   24.1240 N   0  0  0  0  0  0  0  0  0  0  0  0
    6.3120   -5.4890   24.3400 C   0  0  0  0  0  0  0  0  0  0  0  0
    4.9480   -3.5190   24.7950 C   0  0  0  0  0  0  0  0  0  0  0  0
    7.4910   -4.8120   24.0640 C   0  0  0  0  0  0  0  0  0  0  0  0
    6.2930   -2.7870   24.9240 C   0  0  0  0  0  0  0  0  0  0  0  0
    7.2340   -3.3680   23.9400 N   0  0  0  0  0  0  0  0  0  0  0  0
    7.2160   -2.8110   22.5770 C   0  0  2  0  0  0  0  0  0  0  0  0
    8.1880   -1.8570   22.4390 C   0  0  0  0  0  0  0  0  0  0  0  0
    6.0280   -2.0200   22.2800 O   0  0  0  0  0  0  0  0  0  0  0  0
    7.7500   -0.4860   22.1950 C   0  0  0  0  0  0  0  0  0  0  0  0
    6.2990   -0.6530   22.1580 C   0  0  0  0  0  0  0  0  0  0  0  0
    8.7150    0.5880   22.0770 C   0  0  0  0  0  0  0  0  0  0  0  0
    5.3720    0.3500   22.0170 O   0  0  0  0  0  0  0  0  0  0  0  0
    9.3200    0.8740   23.3760 C   0  0  0  0  0  0  0  0  0  0  0  0
   10.3400    1.9950   23.2030 C   0  0  0  0  0  0  0  0  0  0  0  0
    9.8980    3.4680   23.2010 C   0  0  0  0  0  0  0  0  0  0  0  0
   11.7070    1.7300   23.0290 C   0  0  0  0  0  0  0  0  0  0  0  0
   11.0080    4.4960   23.0020 C   0  0  0  0  0  0  0  0  0  0  0  0
   12.6490    2.7250   22.8540 C   0  0  0  0  0  0  0  0  0  0  0  0
   12.3210    4.0780   22.8350 C   0  0  0  0  0  0  0  0  0  0  0  0
   13.3040    5.0360   22.6490 C   0  0  0  0  0  0  0  0  0  0  0  0
   13.1820    6.3900   22.1190 N   0  0  0  0  0  0  0  0  0  0  0  0
  1  2  1  0
  3  2  1  0
  3  4  2  0
  3  5  2  0
  3  6  1  0
  6  7  1  0
  6  8  1  0
  7  9  1  0
  8 10  1  0
  9 11  1  0
 10 11  1  0
 12 11  1  1
 12 13  1  0
 12 14  1  0
 13 15  2  0
 14 16  1  0
 15 16  1  0
 15 17  1  0
 16 18  2  0
 17 19  2  3
 19 20  1  0
 20 21  2  0
 20 22  1  0
 21 23  1  0
 22 24  2  0
 23 25  2  0
 24 25  1  0
 25 26  1  0
 26 27  3  0
M  END
