FAB-NA-a03f4448-1-vinylsulfonamide
     RDKit          3D

 27 29  0  0  0  0  0  0  0  0999 V2000
    6.6000   -4.3660   20.5580 C   0  0  0  0  0  0  0  0  0  0  0  0
    6.6470   -4.4840   22.1080 C   0  0  0  0  0  0  0  0  0  0  0  0
    5.5840   -5.8230   22.6490 S   0  0  0  0  0  0  0  0  0  0  0  0
    4.3040   -5.6310   21.9960 O   0  0  0  0  0  0  0  0  0  0  0  0
    6.3400   -7.0540   22.5730 O   0  0  0  0  0  0  0  0  0  0  0  0
    5.2590   -5.5950   24.2820 N   0  0  0  0  0  0  0  0  0  0  0  0
    6.0530   -4.6310   24.9830 C   0  0  0  0  0  0  0  0  0  0  0  0
    3.8440   -5.5240   24.6240 C   0  0  0  0  0  0  0  0  0  0  0  0
    5.1180   -3.6970   25.7580 C   0  0  0  0  0  0  0  0  0  0  0  0
    3.3110   -4.1540   24.1720 C   0  0  0  0  0  0  0  0  0  0  0  0
    4.0680   -3.1270   24.8920 N   0  0  0  0  0  0  0  0  0  0  0  0
    4.3350   -1.9510   24.1000 C   0  0  1  0  0  0  0  0  0  0  0  0
    5.7280   -1.4870   24.2700 C   0  0  0  0  0  0  0  0  0  0  0  0
    4.3110   -2.1280   22.6420 O   0  0  0  0  0  0  0  0  0  0  0  0
    6.3030   -1.2180   22.9680 C   0  0  0  0  0  0  0  0  0  0  0  0
    5.3480   -1.4420   21.9900 C   0  0  0  0  0  0  0  0  0  0  0  0
    7.7020   -0.8460   22.8460 C   0  0  0  0  0  0  0  0  0  0  0  0
    5.3700   -1.1200   20.8050 O   0  0  0  0  0  0  0  0  0  0  0  0
    8.3920    0.3560   22.9550 C   0  0  0  0  0  0  0  0  0  0  0  0
    9.7400    0.1770   22.8150 C   0  0  0  0  0  0  0  0  0  0  0  0
   10.7580    1.1050   22.9850 C   0  0  0  0  0  0  0  0  0  0  0  0
   10.0700   -1.1350   22.4690 C   0  0  0  0  0  0  0  0  0  0  0  0
   12.1160    0.6080   22.7930 C   0  0  0  0  0  0  0  0  0  0  0  0
   11.2930   -1.5640   22.2950 C   0  0  0  0  0  0  0  0  0  0  0  0
   12.3510   -0.7140   22.4510 C   0  0  0  0  0  0  0  0  0  0  0  0
   13.5580   -1.2190   22.2480 C   0  0  0  0  0  0  0  0  0  0  0  0
   13.4120   -1.9450   21.0250 N   0  0  0  0  0  0  0  0  0  0  0  0
  1  2  1  0
  3  2  1  0
  3  4  2  0
  3  5  2  0
  3  6  1  0
  6  7  1  0
  6  8  1  0
  7  9  1  0
  8 10  1  0
  9 11  1  0
 10 11  1  0
 12 11  1  1
 12 13  1  0
 12 14  1  0
 13 15  2  0
 14 16  1  0
 15 16  1  0
 15 17  1  0
 16 18  2  0
 17 19  2  3
 19 20  1  0
 20 21  2  0
 20 22  1  0
 21 23  1  0
 22 24  2  0
 23 25  2  0
 24 25  1  0
 25 26  1  0
 26 27  3  0
M  END
