FAB-UNK-7ad5ab26-1-nitrile
     RDKit          3D

 24 26  0  0  0  0  0  0  0  0999 V2000
    6.4500   -4.3180   20.2090 C   0  0  0  0  0  0  0  0  0  0  0  0
    5.3910   -3.8930   19.6890 N   0  0  0  0  0  0  0  0  0  0  0  0
    6.5740   -4.9030   21.4850 N   0  0  0  0  0  0  0  0  0  0  0  0
    5.6110   -5.8520   21.8960 C   0  0  0  0  0  0  0  0  0  0  0  0
    7.0550   -4.1190   22.6540 C   0  0  0  0  0  0  0  0  0  0  0  0
    4.7710   -5.4910   22.9810 C   0  0  0  0  0  0  0  0  0  0  0  0
    6.8350   -4.6900   23.9250 C   0  0  0  0  0  0  0  0  0  0  0  0
    5.4600   -5.2360   24.1240 N   0  0  0  0  0  0  0  0  0  0  0  0
    4.7610   -4.7230   25.3430 C   0  0  1  0  0  0  0  0  0  0  0  0
    3.9180   -3.6550   25.1530 C   0  0  0  0  0  0  0  0  0  0  0  0
    3.9820   -5.6450   26.1330 O   0  0  0  0  0  0  0  0  0  0  0  0
    2.9160   -3.6320   26.0420 C   0  0  0  0  0  0  0  0  0  0  0  0
    3.0940   -4.8020   26.8460 C   0  0  0  0  0  0  0  0  0  0  0  0
    1.8840   -2.5260   26.0330 C   0  0  0  0  0  0  0  0  0  0  0  0
    2.6020   -5.0490   27.9470 O   0  0  0  0  0  0  0  0  0  0  0  0
    0.4670   -2.7350   25.6850 C   0  0  0  0  0  0  0  0  0  0  0  0
    0.0940   -4.1210   25.3400 C   0  0  0  0  0  0  0  0  0  0  0  0
   -0.7430   -4.3550   24.0710 C   0  0  0  0  0  0  0  0  0  0  0  0
    0.4420   -5.2610   26.0930 C   0  0  0  0  0  0  0  0  0  0  0  0
   -1.1410   -5.7840   23.6940 C   0  0  0  0  0  0  0  0  0  0  0  0
    0.0810   -6.5810   25.7570 C   0  0  0  0  0  0  0  0  0  0  0  0
   -0.6790   -6.9320   24.6190 C   0  0  0  0  0  0  0  0  0  0  0  0
   -1.0120   -8.2600   24.3270 C   0  0  0  0  0  0  0  0  0  0  0  0
   -1.4770   -9.2560   25.1570 N   0  0  0  0  0  0  0  0  0  0  0  0
  1  2  2  3
  1  3  1  0
  3  4  1  0
  3  5  1  0
  4  6  1  0
  5  7  1  0
  6  8  1  0
  7  8  1  0
  9  8  1  6
  9 10  1  0
  9 11  1  0
 10 12  2  0
 11 13  1  0
 12 13  1  0
 12 14  1  0
 13 15  2  0
 14 16  2  3
 16 17  1  0
 17 18  2  0
 17 19  1  0
 18 20  1  0
 19 21  2  0
 20 22  2  0
 21 22  1  0
 22 23  1  0
 23 24  3  0
M  END
