FAR-UNI-736b943a-5
     RDKit          3D

 34 39  0  0  0  0  0  0  0  0999 V2000
    4.9660   -6.0470   21.5550 O   0  0  0  0  0  0  0  0  0  0  0  0
    5.1620   -5.1620   22.3700 C   0  0  0  0  0  0  0  0  0  0  0  0
    4.3930   -4.9580   23.6170 C   0  0  2  0  0  0  0  0  0  0  0  0
    6.1330   -4.2340   22.2540 N   0  0  0  0  0  0  0  0  0  0  0  0
    4.2280   -3.4310   23.8780 C   0  0  0  0  0  0  0  0  0  0  0  0
    5.2080   -5.4830   24.6820 N   0  0  0  0  0  0  0  0  0  0  0  0
    6.8150   -3.9260   23.5290 C   0  0  0  0  0  0  0  0  0  0  0  0
    5.7100   -3.1470   21.3830 C   0  0  0  0  0  0  0  0  0  0  0  0
    3.6120   -3.2660   25.1250 C   0  0  0  0  0  0  0  0  0  0  0  0
    4.4630   -5.5950   25.9290 C   0  0  1  0  0  0  0  0  0  0  0  0
    6.4800   -4.8820   24.7110 C   0  0  0  0  0  0  0  0  0  0  0  0
    5.2640   -1.8420   22.1170 C   0  0  0  0  0  0  0  0  0  0  0  0
    3.7200   -4.3090   26.0770 C   0  0  0  0  0  0  0  0  0  0  0  0
    2.8420   -2.1830   25.6900 C   0  0  0  0  0  0  0  0  0  0  0  0
    3.5970   -6.6690   25.9350 C   0  0  0  0  0  0  0  0  0  0  0  0
    7.3000   -5.0780   25.6050 O   0  0  0  0  0  0  0  0  0  0  0  0
    5.2470   -0.6630   21.1600 C   0  0  0  0  0  0  0  0  0  0  0  0
    2.9610   -3.8960   27.2590 N   0  0  0  0  0  0  0  0  0  0  0  0
    2.4520   -2.5760   26.9470 C   0  0  0  0  0  0  0  0  0  0  0  0
    2.4380   -0.9140   25.2690 C   0  0  0  0  0  0  0  0  0  0  0  0
    2.9810   -7.0960   27.1090 C   0  0  0  0  0  0  0  0  0  0  0  0
    3.3160   -7.3500   24.7480 C   0  0  0  0  0  0  0  0  0  0  0  0
    6.1920   -1.1600   20.2670 N   0  0  0  0  0  0  0  0  0  0  0  0
    1.6240   -1.8590   27.9850 C   0  0  0  0  0  0  0  0  0  0  0  0
    1.6580   -0.0830   26.0910 C   0  0  0  0  0  0  0  0  0  0  0  0
    2.1000   -8.1770   27.0980 C   0  0  0  0  0  0  0  0  0  0  0  0
    2.4270   -8.4280   24.7740 C   0  0  0  0  0  0  0  0  0  0  0  0
    6.2600   -1.1380   18.9110 C   0  0  0  0  0  0  0  0  0  0  0  0
    7.2510   -1.8150   20.7720 C   0  0  0  0  0  0  0  0  0  0  0  0
    1.1930   -0.4940   27.5020 C   0  0  0  0  0  0  0  0  0  0  0  0
    1.7830   -8.8910   25.9330 C   0  0  0  0  0  0  0  0  0  0  0  0
    7.4170   -1.8280   18.6740 C   0  0  0  0  0  0  0  0  0  0  0  0
    7.9930   -2.2320   19.8420 N   0  0  0  0  0  0  0  0  0  0  0  0
    0.6940  -10.2240   25.9210 Cl  0  0  0  0  0  0  0  0  0  0  0  0
  1  2  2  0
  2  3  1  0
  2  4  1  0
  3  5  1  1
  3  6  1  0
  4  7  1  0
  4  8  1  0
  5  9  1  0
  6 10  1  0
  6 11  1  0
  7 11  1  0
  8 12  1  0
  9 13  2  0
 10 13  1  0
  9 14  1  0
 10 15  1  6
 11 16  2  0
 12 17  1  0
 13 18  1  0
 14 19  2  0
 18 19  1  0
 14 20  1  0
 15 21  2  0
 15 22  1  0
 17 23  1  0
 19 24  1  0
 20 25  2  0
 21 26  1  0
 22 27  2  0
 23 28  1  0
 23 29  1  0
 24 30  2  0
 25 30  1  0
 26 31  2  0
 27 31  1  0
 28 32  2  0
 29 33  2  0
 32 33  1  0
 31 34  1  0
M  END
