FAR-UNI-9a76d7b5-2
     RDKit          3D

 30 31  0  0  0  0  0  0  0  0999 V2000
    6.6960    1.3920   19.9130 C   0  0  0  0  0  0  0  0  0  0  0  0
    7.2330   -0.2250   20.4240 S   0  0  0  0  0  0  0  0  0  0  0  0
    6.7550   -0.2400   22.2000 C   0  0  0  0  0  0  0  0  0  0  0  0
    7.7360    0.3340   23.0500 C   0  0  0  0  0  0  0  0  0  0  0  0
    7.7260    1.5410   23.2950 O   0  0  0  0  0  0  0  0  0  0  0  0
    8.7560   -0.4500   23.6130 N   0  0  0  0  0  0  0  0  0  0  0  0
    8.8410   -1.8080   24.0330 C   0  0  0  0  0  0  0  0  0  0  0  0
    9.9960   -0.2900   22.8910 C   0  0  1  0  0  0  0  0  0  0  0  0
    9.7140   -2.4620   23.1600 C   0  0  0  0  0  0  0  0  0  0  0  0
    9.8170   -1.6340   22.0650 C   0  0  1  0  0  0  0  0  0  0  0  0
   10.0330    1.1110   22.2090 C   0  0  0  0  0  0  0  0  0  0  0  0
    8.6730   -1.8010   21.2230 N   0  0  0  0  0  0  0  0  0  0  0  0
    9.2430    1.4190   21.2960 O   0  0  0  0  0  0  0  0  0  0  0  0
   10.9450    2.0330   22.6700 N   0  0  0  0  0  0  0  0  0  0  0  0
    7.4890   -2.5870   21.3570 C   0  0  0  0  0  0  0  0  0  0  0  0
   12.2110    1.6110   22.9040 C   0  0  0  0  0  0  0  0  0  0  0  0
   10.7700    3.3380   22.3470 C   0  0  0  0  0  0  0  0  0  0  0  0
    6.8180   -2.8850   20.3730 O   0  0  0  0  0  0  0  0  0  0  0  0
    7.1360   -2.9180   22.4440 N   0  0  0  0  0  0  0  0  0  0  0  0
   10.8360    4.4460   23.3960 C   0  0  0  0  0  0  0  0  0  0  0  0
    7.7230   -3.7140   23.3610 C   0  0  0  0  0  0  0  0  0  0  0  0
    9.7430    5.1450   23.7700 N   0  0  0  0  0  0  0  0  0  0  0  0
   11.8960    4.7470   23.9210 O   0  0  0  0  0  0  0  0  0  0  0  0
    8.5070   -4.9950   23.0570 C   0  0  0  0  0  0  0  0  0  0  0  0
    7.5880   -3.2830   24.8720 C   0  0  0  0  0  0  0  0  0  0  0  0
    9.1290   -5.7690   24.2170 C   0  0  0  0  0  0  0  0  0  0  0  0
    8.1990   -4.0650   25.8800 C   0  0  0  0  0  0  0  0  0  0  0  0
    6.9000   -2.1790   25.2280 F   0  0  0  0  0  0  0  0  0  0  0  0
    8.9280   -5.2250   25.6250 C   0  0  0  0  0  0  0  0  0  0  0  0
    9.4610   -5.8750   26.6550 F   0  0  0  0  0  0  0  0  0  0  0  0
  1  2  1  0
  2  3  1  0
  3  4  1  0
  4  5  2  0
  4  6  1  0
  6  7  1  0
  6  8  1  0
  7  9  1  0
  8 10  1  0
  9 10  1  0
  8 11  1  6
 10 12  1  1
 11 13  2  0
 11 14  1  0
 12 15  1  0
 14 16  1  0
 14 17  1  0
 15 18  2  0
 15 19  1  0
 17 20  1  0
 19 21  1  0
 20 22  1  0
 20 23  2  0
 21 24  2  0
 21 25  1  0
 24 26  1  0
 25 27  2  0
 25 28  1  0
 26 29  2  0
 27 29  1  0
 29 30  1  0
M  END
