FAR-UNI-9a76d7b5-3
     RDKit          3D

 35 40  0  0  0  0  0  0  0  0999 V2000
    2.6170   -9.2900   18.7110 N   0  0  0  0  0  0  0  0  0  0  0  0
    3.0500   -8.6520   19.8610 C   0  0  0  0  0  0  0  0  0  0  0  0
    2.2660   -8.7970   20.8120 O   0  0  0  0  0  0  0  0  0  0  0  0
    4.7200   -7.4810   19.9710 C   0  0  0  0  0  0  0  0  0  0  0  0
    5.2970   -6.8300   21.2710 C   0  0  0  0  0  0  0  0  0  0  0  0
    5.6100   -5.4700   21.4710 C   0  0  2  0  0  0  0  0  0  0  0  0
    6.8840   -5.3000   21.9400 N   0  0  0  0  0  0  0  0  0  0  0  0
    4.8140   -4.8990   22.6450 C   0  0  2  0  0  0  0  0  0  0  0  0
    7.0640   -4.1040   22.6830 C   0  0  2  0  0  0  0  0  0  0  0  0
    5.6420   -3.7080   23.0530 C   0  0  2  0  0  0  0  0  0  0  0  0
    4.6390   -5.6110   23.8570 C   0  0  0  0  0  0  0  0  0  0  0  0
    7.6780   -2.9070   22.2370 C   0  0  0  0  0  0  0  0  0  0  0  0
    7.9990   -4.3660   23.7290 C   0  0  0  0  0  0  0  0  0  0  0  0
    5.2000   -3.6440   24.5160 C   0  0  0  0  0  0  0  0  0  0  0  0
    4.4790   -4.7120   24.8630 N   0  0  0  0  0  0  0  0  0  0  0  0
    4.6380   -6.8240   23.9910 O   0  0  0  0  0  0  0  0  0  0  0  0
    6.8520   -2.1680   21.4500 O   0  0  0  0  0  0  0  0  0  0  0  0
    8.9350   -2.6360   22.6280 N   0  0  0  0  0  0  0  0  0  0  0  0
    9.1010   -3.4740   23.6570 C   0  0  0  0  0  0  0  0  0  0  0  0
    8.0570   -5.3070   24.7970 C   0  0  0  0  0  0  0  0  0  0  0  0
    5.4880   -2.7020   25.2550 O   0  0  0  0  0  0  0  0  0  0  0  0
    3.3070   -4.4750   25.4860 C   0  0  0  0  0  0  0  0  0  0  0  0
   10.2990   -3.4720   24.6140 C   0  0  0  0  0  0  0  0  0  0  0  0
    9.1120   -5.4140   25.7610 C   0  0  0  0  0  0  0  0  0  0  0  0
    2.0920   -4.8040   24.7970 C   0  0  0  0  0  0  0  0  0  0  0  0
   11.6410   -2.2840   24.3990 Cl  0  0  0  0  0  0  0  0  0  0  0  0
   10.3120   -4.5000   25.7330 C   0  0  0  0  0  0  0  0  0  0  0  0
    1.9650   -5.7960   23.6470 C   0  0  0  0  0  0  0  0  0  0  0  0
    0.7610   -4.1210   25.2180 C   0  0  0  0  0  0  0  0  0  0  0  0
    0.5900   -5.9940   23.0660 C   0  0  0  0  0  0  0  0  0  0  0  0
   -0.4320   -4.4380   24.5530 C   0  0  0  0  0  0  0  0  0  0  0  0
   -0.5340   -5.3430   23.5090 C   0  0  0  0  0  0  0  0  0  0  0  0
   -1.6460   -3.8950   24.8470 O   0  0  0  0  0  0  0  0  0  0  0  0
   -2.4620   -4.4400   23.7860 C   0  0  0  0  0  0  0  0  0  0  0  0
   -1.7990   -5.4750   23.0340 O   0  0  0  0  0  0  0  0  0  0  0  0
  1  2  1  0
  2  3  2  0
  2  4  1  0
  4  5  1  0
  6  5  1  1
  6  7  1  0
  6  8  1  0
  9  7  1  6
  8 10  1  0
  9 10  1  0
  8 11  1  1
  9 12  1  0
  9 13  1  0
 10 14  1  1
 11 15  1  0
 14 15  1  0
 11 16  2  0
 12 17  2  0
 12 18  1  0
 13 19  2  0
 18 19  1  0
 13 20  1  0
 14 21  2  0
 15 22  1  0
 19 23  1  0
 20 24  2  0
 22 25  1  0
 23 26  1  0
 23 27  2  0
 24 27  1  0
 25 28  2  0
 25 29  1  0
 28 30  1  0
 29 31  2  0
 30 32  2  0
 31 32  1  0
 31 33  1  0
 33 34  1  0
 32 35  1  0
 34 35  1  0
M  END
