FAR-UNI-736b943a-11
     RDKit          3D

 30 31  0  0  0  0  0  0  0  0999 V2000
    6.0080    0.1100   18.5230 C   0  0  0  0  0  0  0  0  0  0  0  0
    5.7230   -1.6350   18.9300 S   0  0  0  0  0  0  0  0  0  0  0  0
    6.3880   -1.7190   20.6310 C   0  0  0  0  0  0  0  0  0  0  0  0
    5.8850   -2.9750   21.3340 C   0  0  0  0  0  0  0  0  0  0  0  0
    5.0550   -3.6830   20.7710 O   0  0  0  0  0  0  0  0  0  0  0  0
    6.3890   -3.2740   22.5890 N   0  0  0  0  0  0  0  0  0  0  0  0
    6.7460   -2.3270   23.6460 C   0  0  0  0  0  0  0  0  0  0  0  0
    5.7250   -4.3990   23.2760 C   0  0  1  0  0  0  0  0  0  0  0  0
    5.9040   -2.6910   24.7200 C   0  0  0  0  0  0  0  0  0  0  0  0
    5.0480   -3.7400   24.4440 C   0  0  2  0  0  0  0  0  0  0  0  0
    4.8100   -5.1810   22.3420 C   0  0  0  0  0  0  0  0  0  0  0  0
    5.0030   -4.6540   25.5950 N   0  0  0  0  0  0  0  0  0  0  0  0
    3.5780   -5.0860   22.3650 O   0  0  0  0  0  0  0  0  0  0  0  0
    5.5450   -5.9860   21.5250 N   0  0  0  0  0  0  0  0  0  0  0  0
    3.8000   -5.0620   26.1120 C   0  0  0  0  0  0  0  0  0  0  0  0
    5.5360   -5.9000   20.1120 C   0  0  0  0  0  0  0  0  0  0  0  0
    6.9200   -5.8720   21.7090 C   0  0  0  0  0  0  0  0  0  0  0  0
    3.6740   -6.1040   26.7440 O   0  0  0  0  0  0  0  0  0  0  0  0
    2.8130   -4.1640   25.8170 N   0  0  0  0  0  0  0  0  0  0  0  0
    7.4900   -6.8160   22.6770 C   0  0  0  0  0  0  0  0  0  0  0  0
    2.6630   -2.8300   26.2420 C   0  0  0  0  0  0  0  0  0  0  0  0
    8.2360   -6.2410   23.6610 N   0  0  0  0  0  0  0  0  0  0  0  0
    7.3060   -7.9910   22.5490 O   0  0  0  0  0  0  0  0  0  0  0  0
    1.4770   -2.0010   25.9920 C   0  0  0  0  0  0  0  0  0  0  0  0
    3.6630   -2.1880   26.9530 C   0  0  0  0  0  0  0  0  0  0  0  0
    1.2740   -0.7040   26.3810 C   0  0  0  0  0  0  0  0  0  0  0  0
    3.5100   -0.8660   27.3740 C   0  0  0  0  0  0  0  0  0  0  0  0
    4.8020   -2.8320   27.2520 F   0  0  0  0  0  0  0  0  0  0  0  0
    2.3510   -0.0960   27.1140 C   0  0  0  0  0  0  0  0  0  0  0  0
    2.2610    1.1680   27.5440 F   0  0  0  0  0  0  0  0  0  0  0  0
  1  2  1  0
  2  3  1  0
  3  4  1  0
  4  5  2  0
  4  6  1  0
  6  7  1  0
  6  8  1  0
  7  9  1  0
  8 10  1  0
  9 10  1  0
  8 11  1  6
 10 12  1  1
 11 13  2  0
 11 14  1  0
 12 15  1  0
 14 16  1  0
 14 17  1  0
 15 18  2  0
 15 19  1  0
 17 20  1  0
 19 21  1  0
 20 22  1  0
 20 23  2  0
 21 24  2  0
 21 25  1  0
 24 26  1  0
 25 27  2  0
 25 28  1  0
 26 29  2  0
 27 29  1  0
 29 30  1  0
M  END
