FRA-LAB-04e32718-1
     RDKit          3D

 23 25  0  0  0  0  0  0  0  0999 V2000
   10.3890    6.2520   24.6500 O   0  0  0  0  0  0  0  0  0  0  0  0
   10.3350    6.1420   23.4310 C   0  0  0  0  0  0  0  0  0  0  0  0
   11.4050    5.8670   22.5970 N   0  0  0  0  0  0  0  0  0  0  0  0
    9.1900    6.2680   22.6610 N   0  0  0  0  0  0  0  0  0  0  0  0
   12.5520    5.1090   22.9210 C   0  0  0  0  0  0  0  0  0  0  0  0
    8.2440    7.2820   22.9690 C   0  0  0  0  0  0  0  0  0  0  0  0
   12.6050    3.6090   22.6200 C   0  0  0  0  0  0  0  0  0  0  0  0
    7.2670    7.4250   21.9910 C   0  0  0  0  0  0  0  0  0  0  0  0
   11.6350    2.5590   23.1870 C   0  0  0  0  0  0  0  0  0  0  0  0
    6.6050    6.2400   21.7660 C   0  0  0  0  0  0  0  0  0  0  0  0
    6.3640    8.4750   22.2720 C   0  0  0  0  0  0  0  0  0  0  0  0
   10.3350    2.8150   23.9040 C   0  0  0  0  0  0  0  0  0  0  0  0
   11.8340    1.0340   23.0960 C   0  0  0  0  0  0  0  0  0  0  0  0
    5.2910    6.4930   21.2540 C   0  0  0  0  0  0  0  0  0  0  0  0
    5.2360    8.1960   23.0500 C   0  0  0  0  0  0  0  0  0  0  0  0
    9.9060    1.4730   24.1650 N   0  0  0  0  0  0  0  0  0  0  0  0
   10.7300    0.4800   23.7140 C   0  0  0  0  0  0  0  0  0  0  0  0
   12.7750    0.1340   22.5800 C   0  0  0  0  0  0  0  0  0  0  0  0
    4.4240    7.1970   22.2780 C   0  0  0  0  0  0  0  0  0  0  0  0
   10.5530   -0.9800   23.8180 C   0  0  0  0  0  0  0  0  0  0  0  0
   12.6650   -1.2840   22.6250 C   0  0  0  0  0  0  0  0  0  0  0  0
   11.5620   -1.8630   23.2430 C   0  0  0  0  0  0  0  0  0  0  0  0
   13.5860   -2.0470   22.0890 F   0  0  0  0  0  0  0  0  0  0  0  0
  1  2  2  0
  2  3  1  0
  2  4  1  0
  3  5  1  0
  4  6  1  0
  5  7  1  0
  6  8  1  0
  7  9  1  0
  8 10  1  0
  8 11  1  0
  9 12  2  0
  9 13  1  0
 10 14  1  0
 11 15  1  0
 12 16  1  0
 13 17  2  0
 16 17  1  0
 13 18  1  0
 14 19  1  0
 15 19  1  0
 17 20  1  0
 18 21  2  0
 20 22  2  0
 21 22  1  0
 21 23  1  0
M  END
