FRA-DIA-3f9ae552-3
     RDKit          3D

 32 35  0  0  0  0  0  0  0  0999 V2000
    3.2090    2.3480   19.4180 C   0  0  0  0  0  0  0  0  0  0  0  0
    4.3430    1.6440   19.0260 C   0  0  0  0  0  0  0  0  0  0  0  0
    4.9240    0.4450   19.6080 C   0  0  0  0  0  0  0  0  0  0  0  0
    5.2010    1.9030   17.9880 O   0  0  0  0  0  0  0  0  0  0  0  0
    6.1260   -0.0040   18.9170 C   0  0  0  0  0  0  0  0  0  0  0  0
    6.2600    0.9260   17.9250 N   0  0  0  0  0  0  0  0  0  0  0  0
    7.0380   -1.1450   19.1280 C   0  0  0  0  0  0  0  0  0  0  0  0
    6.8660   -1.4240   20.5750 N   0  0  0  0  0  0  0  0  0  0  0  0
    8.0820   -1.2420   21.2850 C   0  0  0  0  0  0  0  0  0  0  0  0
    6.1220   -2.6730   20.8900 C   0  0  0  0  0  0  0  0  0  0  0  0
    8.2490    0.0660   22.1570 C   0  0  0  0  0  0  0  0  0  0  0  0
    5.4230   -3.2440   20.0440 O   0  0  0  0  0  0  0  0  0  0  0  0
    6.2630   -3.2040   22.2020 N   0  0  0  0  0  0  0  0  0  0  0  0
    7.3120    0.7230   22.6140 O   0  0  0  0  0  0  0  0  0  0  0  0
    9.6830    0.5200   22.4480 C   0  0  0  0  0  0  0  0  0  0  0  0
    6.7740   -4.5260   22.4050 C   0  0  0  0  0  0  0  0  0  0  0  0
   10.5800   -0.5250   22.5630 C   0  0  0  0  0  0  0  0  0  0  0  0
   10.2520    1.7980   22.6290 C   0  0  0  0  0  0  0  0  0  0  0  0
    6.2750   -5.3730   23.4720 C   0  0  0  0  0  0  0  0  0  0  0  0
    5.8640   -5.8450   22.1640 C   0  0  0  0  0  0  0  0  0  0  0  0
   11.9450   -0.3860   22.8040 C   0  0  0  0  0  0  0  0  0  0  0  0
   11.8020    1.9630   22.8380 C   0  0  0  0  0  0  0  0  0  0  0  0
    9.7690    3.1190   22.7120 N   0  0  0  0  0  0  0  0  0  0  0  0
   12.7120   -1.5310   22.9150 C   0  0  0  0  0  0  0  0  0  0  0  0
   12.5670    0.8280   22.9240 C   0  0  0  0  0  0  0  0  0  0  0  0
   10.7790    3.9790   22.9730 C   0  0  0  0  0  0  0  0  0  0  0  0
   12.1590    3.4270   22.8890 C   0  0  0  0  0  0  0  0  0  0  0  0
   13.5030   -2.7360   23.1120 N   0  0  0  0  0  0  0  0  0  0  0  0
   10.3590    5.6420   23.4250 S   0  0  0  0  0  0  0  0  0  0  0  0
    8.9860    6.0140   22.5430 N   0  0  0  0  0  0  0  0  0  0  0  0
   11.4200    6.4910   22.9490 O   0  0  0  0  0  0  0  0  0  0  0  0
    9.9900    5.5720   24.8290 O   0  0  0  0  0  0  0  0  0  0  0  0
  1  2  1  0
  2  3  2  0
  2  4  1  0
  3  5  1  0
  4  6  1  0
  5  6  2  0
  5  7  1  0
  7  8  1  0
  8  9  1  0
  8 10  1  0
  9 11  1  0
 10 12  2  0
 10 13  1  0
 11 14  2  0
 11 15  1  0
 13 16  1  0
 15 17  2  0
 15 18  1  0
 16 19  1  0
 16 20  1  0
 19 20  1  0
 17 21  1  0
 18 22  2  0
 18 23  1  0
 21 24  1  0
 21 25  2  0
 22 25  1  0
 23 26  2  0
 22 27  1  0
 26 27  1  0
 24 28  3  0
 26 29  1  0
 29 30  1  0
 29 31  2  0
 29 32  2  0
M  END
