GAB-REV-df64cf17-22-vinylsulfonamide
     RDKit          3D

 26 28  0  0  0  0  0  0  0  0999 V2000
    7.1260   -3.2290   19.1840 C   0  0  0  0  0  0  0  0  0  0  0  0
    6.1790   -2.5090   20.1180 C   0  0  0  0  0  0  0  0  0  0  0  0
    4.5030   -2.8860   19.6150 S   0  0  0  0  0  0  0  0  0  0  0  0
    4.4230   -4.1990   18.9870 O   0  0  0  0  0  0  0  0  0  0  0  0
    4.0990   -1.7660   18.8020 O   0  0  0  0  0  0  0  0  0  0  0  0
    3.4320   -2.8190   21.0910 C   0  0  0  0  0  0  0  0  0  0  0  0
    3.9490   -3.8730   21.7630 C   0  0  0  0  0  0  0  0  0  0  0  0
    3.0640   -3.3260   22.3160 C   0  0  0  0  0  0  0  0  0  0  0  0
    4.6570   -3.9060   20.7670 N   0  0  0  0  0  0  0  0  0  0  0  0
    4.0790   -4.5920   22.5400 C   0  0  0  0  0  0  0  0  0  0  0  0
    5.1490   -4.9250   21.4310 C   0  0  0  0  0  0  0  0  0  0  0  0
    3.1480   -4.3020   23.5040 N   0  0  0  0  0  0  0  0  0  0  0  0
    6.0100   -4.9340   20.1910 N   0  0  0  0  0  0  0  0  0  0  0  0
    3.4290   -3.7780   24.7130 C   0  0  0  0  0  0  0  0  0  0  0  0
    6.7190   -6.2000   19.9740 C   0  0  0  0  0  0  0  0  0  0  0  0
    2.7190   -4.5800   25.7750 C   0  0  0  0  0  0  0  0  0  0  0  0
    5.9250   -7.0760   19.2310 C   0  0  0  0  0  0  0  0  0  0  0  0
    3.7760   -4.9240   26.8270 C   0  0  0  0  0  0  0  0  0  0  0  0
    4.3100   -5.8800   27.7400 C   0  0  0  0  0  0  0  0  0  0  0  0
    4.8840   -4.2880   27.4580 C   0  0  0  0  0  0  0  0  0  0  0  0
    4.8320   -6.9690   28.7080 C   0  0  0  0  0  0  0  0  0  0  0  0
    5.0500   -5.4980   28.1810 C   0  0  0  0  0  0  0  0  0  0  0  0
    5.9150   -6.0090   29.1700 C   0  0  0  0  0  0  0  0  0  0  0  0
    4.2580   -6.4490   27.9600 O   0  0  0  0  0  0  0  0  0  0  0  0
    5.8280   -7.2860   29.7190 N   0  0  0  0  0  0  0  0  0  0  0  0
    4.6660   -7.5300   28.8390 C   0  0  0  0  0  0  0  0  0  0  0  0
  1  2  1  0
  3  2  1  0
  3  4  2  0
  3  5  2  0
  3  6  1  0
  6  7  2  0
  6  8  1  0
  7  9  1  0
  8 10  2  0
  9 11  2  0
 10 11  1  0
 10 12  1  0
 11 13  1  0
 12 14  1  0
 13 15  1  0
 14 16  1  0
 15 17  1  0
 16 18  1  0
 18 19  2  0
 18 20  1  0
 19 21  1  0
 20 22  2  0
 21 23  2  0
 22 23  1  0
 22 24  1  0
 23 25  1  0
 24 26  1  0
 25 26  2  0
M  END
