GAB-REV-4a4e2ff3-9
     RDKit          3D

 26 29  0  0  0  0  0  0  0  0999 V2000
    9.0170    6.6060   22.6050 C   0  0  0  0  0  0  0  0  0  0  0  0
   10.2140    6.2050   23.3660 C   0  0  0  0  0  0  0  0  0  0  0  0
   10.1930    6.3110   24.5960 O   0  0  0  0  0  0  0  0  0  0  0  0
   11.2740    5.7300   22.5800 N   0  0  0  0  0  0  0  0  0  0  0  0
   12.4360    5.0910   23.2130 C   0  0  0  0  0  0  0  0  0  0  0  0
   12.7140    3.7050   22.6300 C   0  0  0  0  0  0  0  0  0  0  0  0
   11.7670    2.6260   23.1780 C   0  0  0  0  0  0  0  0  0  0  0  0
   10.5160    2.7910   23.9000 C   0  0  0  0  0  0  0  0  0  0  0  0
   11.9060    1.1580   23.0840 C   0  0  0  0  0  0  0  0  0  0  0  0
    9.9640    1.5950   24.1940 N   0  0  0  0  0  0  0  0  0  0  0  0
   10.8010    0.5440   23.6910 C   0  0  0  0  0  0  0  0  0  0  0  0
   12.9060    0.1600   22.5080 C   0  0  0  0  0  0  0  0  0  0  0  0
   10.5080   -0.8400   23.8140 C   0  0  0  0  0  0  0  0  0  0  0  0
   12.6070   -1.3150   22.6160 C   0  0  0  0  0  0  0  0  0  0  0  0
    9.3420   -1.0970   24.4670 O   0  0  0  0  0  0  0  0  0  0  0  0
   11.4290   -1.7430   23.2610 C   0  0  0  0  0  0  0  0  0  0  0  0
   13.4510   -2.1970   22.1020 F   0  0  0  0  0  0  0  0  0  0  0  0
    8.4770   -2.1070   24.0700 C   0  0  0  0  0  0  0  0  0  0  0  0
    8.8790   -3.4640   24.0260 C   0  0  0  0  0  0  0  0  0  0  0  0
    7.1260   -1.7840   23.7050 C   0  0  0  0  0  0  0  0  0  0  0  0
    7.9470   -4.5530   23.6250 C   0  0  0  0  0  0  0  0  0  0  0  0
    6.2460   -2.8130   23.3230 C   0  0  0  0  0  0  0  0  0  0  0  0
    6.5580   -4.1170   23.2640 C   0  0  0  0  0  0  0  0  0  0  0  0
    4.8980   -2.6960   22.9390 N   0  0  0  0  0  0  0  0  0  0  0  0
    5.3380   -4.8050   22.8240 C   0  0  0  0  0  0  0  0  0  0  0  0
    4.2500   -3.9170   22.6060 N   0  0  0  0  0  0  0  0  0  0  0  0
  1  2  1  0
  2  3  2  0
  2  4  1  0
  4  5  1  0
  5  6  1  0
  6  7  1  0
  7  8  2  0
  7  9  1  0
  8 10  1  0
  9 11  2  0
 10 11  1  0
  9 12  1  0
 11 13  1  0
 12 14  2  0
 13 15  1  0
 13 16  2  0
 14 16  1  0
 14 17  1  0
 15 18  1  0
 18 19  2  0
 18 20  1  0
 19 21  1  0
 20 22  2  0
 21 23  2  0
 22 23  1  0
 22 24  1  0
 23 25  1  0
 24 26  1  0
 25 26  2  0
M  END
