GAB-REV-df64cf17-3-chloroacetamide
     RDKit          3D

 23 25  0  0  0  0  0  0  0  0999 V2000
    9.6890   -4.2860   20.2430 C   0  0  0  0  0  0  0  0  0  0  0  0
    8.6240   -3.2720   20.3320 C   0  0  0  0  0  0  0  0  0  0  0  0
    7.4650   -3.3840   19.4430 O   0  0  0  0  0  0  0  0  0  0  0  0
    9.1710   -2.3300   21.5880 C   0  0  0  0  0  0  0  0  0  0  0  0
   10.5640   -1.6290   21.7350 C   0  0  0  0  0  0  0  0  0  0  0  0
    8.3750   -2.1320   22.6980 C   0  0  0  0  0  0  0  0  0  0  0  0
   10.9630   -0.8680   22.8680 N   0  0  0  0  0  0  0  0  0  0  0  0
    8.7510   -1.3900   23.8390 C   0  0  0  0  0  0  0  0  0  0  0  0
    9.9960   -0.7580   23.9630 C   0  0  0  0  0  0  0  0  0  0  0  0
    7.9350   -1.3030   24.7690 O   0  0  0  0  0  0  0  0  0  0  0  0
   10.2140   -0.0130   25.2380 N   0  0  0  0  0  0  0  0  0  0  0  0
    6.5470   -1.4780   24.4210 C   0  0  0  0  0  0  0  0  0  0  0  0
    8.9310    0.5020   25.7300 C   0  0  0  0  0  0  0  0  0  0  0  0
    6.2930   -2.8610   23.9170 C   0  0  0  0  0  0  0  0  0  0  0  0
    8.5220   -0.0310   26.9560 C   0  0  0  0  0  0  0  0  0  0  0  0
    4.8830   -3.3850   23.5470 C   0  0  0  0  0  0  0  0  0  0  0  0
    7.5130   -3.8410   23.7460 C   0  0  0  0  0  0  0  0  0  0  0  0
    4.7090   -4.6930   23.0740 C   0  0  0  0  0  0  0  0  0  0  0  0
    7.2280   -5.0970   23.2680 C   0  0  0  0  0  0  0  0  0  0  0  0
    5.9630   -5.5100   22.9570 C   0  0  0  0  0  0  0  0  0  0  0  0
    7.9990   -6.1880   22.9870 C   0  0  0  0  0  0  0  0  0  0  0  0
    6.0600   -6.8970   22.4880 N   0  0  0  0  0  0  0  0  0  0  0  0
    7.3290   -7.3650   22.4880 N   0  0  0  0  0  0  0  0  0  0  0  0
  1  2  1  0
  2  3  2  0
  2  4  1  0
  4  5  2  0
  4  6  1  0
  5  7  1  0
  6  8  2  0
  7  9  2  0
  8  9  1  0
  8 10  1  0
  9 11  1  0
 10 12  1  0
 11 13  1  0
 12 14  1  0
 13 15  1  0
 14 16  2  0
 14 17  1  0
 16 18  1  0
 17 19  2  0
 18 20  2  0
 19 20  1  0
 19 21  1  0
 20 22  1  0
 21 23  2  0
 22 23  1  0
M  END
