GAB-REV-df64cf17-2-vinylsulfonamide
     RDKit          3D

 25 27  0  0  0  0  0  0  0  0999 V2000
    7.2880   -5.3700   20.7390 C   0  0  0  0  0  0  0  0  0  0  0  0
    7.5860   -4.3850   21.7790 C   0  0  0  0  0  0  0  0  0  0  0  0
    6.8670   -2.8920   21.1950 S   0  0  0  0  0  0  0  0  0  0  0  0
    5.1570   -3.3780   21.1810 O   0  0  0  0  0  0  0  0  0  0  0  0
    7.5460   -2.2740   20.0340 O   0  0  0  0  0  0  0  0  0  0  0  0
    8.1740   -1.9440   22.2680 C   0  0  0  0  0  0  0  0  0  0  0  0
    9.4910   -1.1270   22.0110 C   0  0  0  0  0  0  0  0  0  0  0  0
    8.5960   -1.5740   23.4110 C   0  0  0  0  0  0  0  0  0  0  0  0
   10.1920   -0.5470   23.2300 N   0  0  0  0  0  0  0  0  0  0  0  0
    8.4720   -1.5500   24.6520 C   0  0  0  0  0  0  0  0  0  0  0  0
    9.6190   -0.7760   24.6680 C   0  0  0  0  0  0  0  0  0  0  0  0
    7.6120   -2.0370   25.5600 N   0  0  0  0  0  0  0  0  0  0  0  0
   10.0730   -0.3180   25.9930 N   0  0  0  0  0  0  0  0  0  0  0  0
    6.3760   -2.4720   25.3330 C   0  0  0  0  0  0  0  0  0  0  0  0
    8.9160   -0.6340   26.8350 C   0  0  0  0  0  0  0  0  0  0  0  0
    6.2340   -3.7680   26.0600 C   0  0  0  0  0  0  0  0  0  0  0  0
    9.0690   -0.4110   28.1820 C   0  0  0  0  0  0  0  0  0  0  0  0
    7.4670   -4.6280   26.3900 C   0  0  0  0  0  0  0  0  0  0  0  0
    4.8150   -4.2730   26.5000 C   0  0  0  0  0  0  0  0  0  0  0  0
    7.2830   -5.8330   27.0670 C   0  0  0  0  0  0  0  0  0  0  0  0
    4.7670   -5.4870   27.1650 C   0  0  0  0  0  0  0  0  0  0  0  0
    5.8830   -6.2350   27.4410 C   0  0  0  0  0  0  0  0  0  0  0  0
    3.6930   -6.2040   27.6790 C   0  0  0  0  0  0  0  0  0  0  0  0
    5.3950   -7.3510   28.0930 N   0  0  0  0  0  0  0  0  0  0  0  0
    4.0320   -7.3950   28.2800 N   0  0  0  0  0  0  0  0  0  0  0  0
  1  2  1  0
  3  2  1  0
  3  4  2  0
  3  5  2  0
  3  6  1  0
  6  7  2  0
  6  8  1  0
  7  9  1  0
  8 10  2  0
  9 11  2  0
 10 11  1  0
 10 12  1  0
 11 13  1  0
 12 14  1  0
 13 15  1  0
 14 16  1  0
 15 17  1  0
 16 18  2  0
 16 19  1  0
 18 20  1  0
 19 21  2  0
 20 22  2  0
 21 22  1  0
 21 23  1  0
 22 24  1  0
 23 25  2  0
 24 25  1  0
M  END
