GAB-REV-df64cf17-15-vinylsulfonamide
     RDKit          3D

 25 27  0  0  0  0  0  0  0  0999 V2000
    6.3910   -4.8960   20.1710 C   0  0  0  0  0  0  0  0  0  0  0  0
    7.1600   -3.6960   20.5170 C   0  0  0  0  0  0  0  0  0  0  0  0
    6.5580   -3.1480   22.0350 S   0  0  0  0  0  0  0  0  0  0  0  0
    5.0320   -3.3380   21.4010 O   0  0  0  0  0  0  0  0  0  0  0  0
    6.9600   -4.1280   23.0180 O   0  0  0  0  0  0  0  0  0  0  0  0
    8.1720   -2.0380   21.6540 C   0  0  0  0  0  0  0  0  0  0  0  0
    9.0290   -1.3600   22.7670 C   0  0  0  0  0  0  0  0  0  0  0  0
    9.2660   -1.2530   21.9690 C   0  0  0  0  0  0  0  0  0  0  0  0
   10.2140   -0.4930   23.1470 N   0  0  0  0  0  0  0  0  0  0  0  0
    8.8440   -1.4620   23.4940 C   0  0  0  0  0  0  0  0  0  0  0  0
    9.7280   -0.7230   24.2970 C   0  0  0  0  0  0  0  0  0  0  0  0
    7.7610   -2.2390   24.0180 C   0  0  0  0  0  0  0  0  0  0  0  0
   10.0080   -0.3550   25.7160 N   0  0  0  0  0  0  0  0  0  0  0  0
    7.8400   -2.5400   25.3390 N   0  0  0  0  0  0  0  0  0  0  0  0
    8.8680   -0.6260   26.5770 C   0  0  0  0  0  0  0  0  0  0  0  0
    7.0590   -3.6450   25.8570 C   0  0  0  0  0  0  0  0  0  0  0  0
    8.9010    0.1660   27.7170 C   0  0  0  0  0  0  0  0  0  0  0  0
    7.4580   -4.0240   27.0200 N   0  0  0  0  0  0  0  0  0  0  0  0
    6.0270   -4.2930   25.3150 O   0  0  0  0  0  0  0  0  0  0  0  0
    6.6250   -4.9850   27.2560 C   0  0  0  0  0  0  0  0  0  0  0  0
    5.5880   -5.3050   26.2140 C   0  0  0  0  0  0  0  0  0  0  0  0
    6.8750   -5.6010   28.5640 C   0  0  0  0  0  0  0  0  0  0  0  0
    5.4580   -6.1160   27.2610 C   0  0  0  0  0  0  0  0  0  0  0  0
    6.0510   -6.7700   29.1370 C   0  0  0  0  0  0  0  0  0  0  0  0
    5.1500   -7.0210   28.1910 C   0  0  0  0  0  0  0  0  0  0  0  0
  1  2  1  0
  3  2  1  0
  3  4  2  0
  3  5  2  0
  3  6  1  0
  6  7  2  0
  6  8  1  0
  7  9  1  0
  8 10  2  0
  9 11  2  0
 10 11  1  0
 10 12  1  0
 11 13  1  0
 12 14  1  0
 13 15  1  0
 14 16  1  0
 15 17  1  0
 16 18  2  0
 16 19  1  0
 18 20  1  0
 19 21  1  0
 20 21  2  0
 20 22  1  0
 21 23  1  0
 22 24  2  0
 23 25  2  0
 24 25  1  0
M  END
