GAB-REV-df64cf17-1-bromoalkyne
     RDKit          3D

 22 23  0  0  0  0  0  0  0  0999 V2000
    8.5250   -3.1390   19.9810 C   0  0  0  0  0  0  0  0  0  0  0  0
    8.3810   -2.8740   18.4500 C   0  0  0  0  0  0  0  0  0  0  0  0
    9.9420   -2.3620   20.9410 C   0  0  0  0  0  0  0  0  0  0  0  0
   11.2380   -1.6500   21.8190 C   0  0  0  0  0  0  0  0  0  0  0  0
    9.0180   -2.2800   22.0350 C   0  0  0  0  0  0  0  0  0  0  0  0
   11.1060   -1.1900   23.1830 N   0  0  0  0  0  0  0  0  0  0  0  0
    8.9690   -1.8240   23.3720 C   0  0  0  0  0  0  0  0  0  0  0  0
    9.9810   -1.2450   24.0120 C   0  0  0  0  0  0  0  0  0  0  0  0
    7.7070   -2.0440   24.0040 C   0  0  0  0  0  0  0  0  0  0  0  0
    9.8550   -0.7510   25.4440 N   0  0  0  0  0  0  0  0  0  0  0  0
    7.3590   -3.4710   24.3150 C   0  0  0  0  0  0  0  0  0  0  0  0
    8.6710    0.1090   25.6430 C   0  0  0  0  0  0  0  0  0  0  0  0
    7.3220   -3.6860   25.8420 C   0  0  0  0  0  0  0  0  0  0  0  0
    7.6220   -0.4690   26.3230 C   0  0  0  0  0  0  0  0  0  0  0  0
    8.0530   -4.6330   26.5860 C   0  0  0  0  0  0  0  0  0  0  0  0
    6.3750   -2.7720   26.6710 C   0  0  0  0  0  0  0  0  0  0  0  0
    7.8810   -4.7040   28.0810 C   0  0  0  0  0  0  0  0  0  0  0  0
    6.2490   -2.8750   28.0800 C   0  0  0  0  0  0  0  0  0  0  0  0
    7.0060   -3.8420   28.7290 C   0  0  0  0  0  0  0  0  0  0  0  0
    5.3950   -2.0490   28.8340 C   0  0  0  0  0  0  0  0  0  0  0  0
    4.5390   -1.3710   27.9860 N   0  0  0  0  0  0  0  0  0  0  0  0
    5.4100   -1.9290   30.2100 O   0  0  0  0  0  0  0  0  0  0  0  0
  1  2  2  3
  1  3  1  0
  3  4  2  0
  3  5  1  0
  4  6  1  0
  5  7  2  0
  6  8  2  0
  7  8  1  0
  7  9  1  0
  8 10  1  0
  9 11  1  0
 10 12  1  0
 11 13  1  0
 12 14  1  0
 13 15  2  0
 13 16  1  0
 15 17  1  0
 16 18  2  0
 17 19  2  0
 18 19  1  0
 18 20  1  0
 20 21  1  0
 20 22  2  0
M  END
