GAB-REV-df64cf17-12-vinylsulfonamide
     RDKit          3D

 25 27  0  0  0  0  0  0  0  0999 V2000
    8.0910   -4.5170   20.6700 C   0  0  0  0  0  0  0  0  0  0  0  0
    6.6750   -4.5220   21.0500 C   0  0  0  0  0  0  0  0  0  0  0  0
    6.2390   -2.8430   21.1810 S   0  0  0  0  0  0  0  0  0  0  0  0
    4.7990   -3.1960   21.6190 O   0  0  0  0  0  0  0  0  0  0  0  0
    6.3360   -2.1770   19.9030 O   0  0  0  0  0  0  0  0  0  0  0  0
    7.7590   -2.1840   22.2110 C   0  0  0  0  0  0  0  0  0  0  0  0
    7.5190   -1.1050   23.2070 C   0  0  0  0  0  0  0  0  0  0  0  0
    9.1540   -2.5680   22.1790 C   0  0  0  0  0  0  0  0  0  0  0  0
    8.4440   -0.5460   24.0240 N   0  0  0  0  0  0  0  0  0  0  0  0
   10.1460   -1.9840   23.0300 C   0  0  0  0  0  0  0  0  0  0  0  0
    9.7800   -0.9750   23.9770 C   0  0  0  0  0  0  0  0  0  0  0  0
   11.4710   -2.4950   22.8470 O   0  0  0  0  0  0  0  0  0  0  0  0
   10.5330   -0.2300   25.0030 N   0  0  0  0  0  0  0  0  0  0  0  0
   12.3010   -1.4730   22.3040 C   0  0  0  0  0  0  0  0  0  0  0  0
    9.4160    0.3140   25.7970 C   0  0  0  0  0  0  0  0  0  0  0  0
   11.8110   -0.0760   22.5510 C   0  0  0  0  0  0  0  0  0  0  0  0
    9.2290   -0.2830   27.0410 C   0  0  0  0  0  0  0  0  0  0  0  0
   12.8710    0.9620   22.8480 C   0  0  0  0  0  0  0  0  0  0  0  0
   10.4720    0.3130   22.5110 C   0  0  0  0  0  0  0  0  0  0  0  0
   12.4940    2.2660   23.0680 C   0  0  0  0  0  0  0  0  0  0  0  0
   10.1110    1.6580   22.7490 C   0  0  0  0  0  0  0  0  0  0  0  0
   11.0590    2.6350   23.0220 C   0  0  0  0  0  0  0  0  0  0  0  0
    8.9120    2.3690   22.7870 C   0  0  0  0  0  0  0  0  0  0  0  0
   10.3740    3.9010   23.2150 N   0  0  0  0  0  0  0  0  0  0  0  0
    9.0250    3.7340   23.0670 C   0  0  0  0  0  0  0  0  0  0  0  0
  1  2  1  0
  3  2  1  0
  3  4  2  0
  3  5  2  0
  3  6  1  0
  6  7  2  0
  6  8  1  0
  7  9  1  0
  8 10  2  0
  9 11  2  0
 10 11  1  0
 10 12  1  0
 11 13  1  0
 12 14  1  0
 13 15  1  0
 14 16  1  0
 15 17  1  0
 16 18  2  0
 16 19  1  0
 18 20  1  0
 19 21  2  0
 20 22  2  0
 21 22  1  0
 21 23  1  0
 22 24  1  0
 23 25  2  0
 24 25  1  0
M  END
