GAB-REV-4a4e2ff3-7
     RDKit          3D

 27 30  0  0  0  0  0  0  0  0999 V2000
    9.0270    6.6170   22.6210 C   0  0  0  0  0  0  0  0  0  0  0  0
   10.2300    6.1940   23.3610 C   0  0  0  0  0  0  0  0  0  0  0  0
   10.2120    6.2700   24.5920 O   0  0  0  0  0  0  0  0  0  0  0  0
   11.2940    5.7370   22.5640 N   0  0  0  0  0  0  0  0  0  0  0  0
   12.4570    5.0840   23.1930 C   0  0  0  0  0  0  0  0  0  0  0  0
   12.7180    3.6860   22.6250 C   0  0  0  0  0  0  0  0  0  0  0  0
   11.7590    2.6160   23.1710 C   0  0  0  0  0  0  0  0  0  0  0  0
   10.4990    2.7870   23.8700 C   0  0  0  0  0  0  0  0  0  0  0  0
   11.9000    1.1470   23.0910 C   0  0  0  0  0  0  0  0  0  0  0  0
    9.9410    1.5950   24.1680 N   0  0  0  0  0  0  0  0  0  0  0  0
   10.7860    0.5350   23.6860 C   0  0  0  0  0  0  0  0  0  0  0  0
   12.9230    0.1750   22.5310 C   0  0  0  0  0  0  0  0  0  0  0  0
   10.4490   -0.8430   23.8380 C   0  0  0  0  0  0  0  0  0  0  0  0
   12.6240   -1.3190   22.6410 C   0  0  0  0  0  0  0  0  0  0  0  0
    9.2720   -1.0660   24.4760 O   0  0  0  0  0  0  0  0  0  0  0  0
   11.3430   -1.7970   23.3210 C   0  0  0  0  0  0  0  0  0  0  0  0
   13.4770   -2.1990   22.1420 F   0  0  0  0  0  0  0  0  0  0  0  0
    8.2410   -1.7250   23.8220 C   0  0  0  0  0  0  0  0  0  0  0  0
    7.1870   -1.0840   23.2520 C   0  0  0  0  0  0  0  0  0  0  0  0
    8.1620   -3.1030   23.6770 C   0  0  0  0  0  0  0  0  0  0  0  0
    6.0880   -1.7980   22.5650 C   0  0  0  0  0  0  0  0  0  0  0  0
    7.1340   -3.8560   23.0300 C   0  0  0  0  0  0  0  0  0  0  0  0
    5.9080   -3.3250   22.3580 C   0  0  0  0  0  0  0  0  0  0  0  0
    7.4000   -5.2230   23.0930 C   0  0  0  0  0  0  0  0  0  0  0  0
    5.0680   -4.4760   21.7940 N   0  0  0  0  0  0  0  0  0  0  0  0
    6.6220   -6.1950   22.5720 C   0  0  0  0  0  0  0  0  0  0  0  0
    5.3670   -5.8200   21.8710 C   0  0  0  0  0  0  0  0  0  0  0  0
  1  2  1  0
  2  3  2  0
  2  4  1  0
  4  5  1  0
  5  6  1  0
  6  7  1  0
  7  8  2  0
  7  9  1  0
  8 10  1  0
  9 11  2  0
 10 11  1  0
  9 12  1  0
 11 13  1  0
 12 14  2  0
 13 15  1  0
 13 16  2  0
 14 16  1  0
 14 17  1  0
 15 18  1  0
 18 19  2  0
 18 20  1  0
 19 21  1  0
 20 22  2  0
 21 23  2  0
 22 23  1  0
 22 24  1  0
 23 25  1  0
 24 26  2  0
 25 27  2  0
 26 27  1  0
M  END
