GAB-REV-df64cf17-16-acrylamide
     RDKit          3D

 26 28  0  0  0  0  0  0  0  0999 V2000
    6.2370   -5.9980   21.2440 C   0  0  0  0  0  0  0  0  0  0  0  0
    4.6500   -5.7040   20.7440 C   0  0  0  0  0  0  0  0  0  0  0  0
    3.7040   -5.1140   21.8530 C   0  0  0  0  0  0  0  0  0  0  0  0
    2.7950   -4.7690   22.7400 O   0  0  0  0  0  0  0  0  0  0  0  0
    2.7790   -6.2160   21.9130 C   0  0  0  0  0  0  0  0  0  0  0  0
    2.8000   -6.3880   20.4690 C   0  0  0  0  0  0  0  0  0  0  0  0
    2.7630   -6.0960   22.9280 C   0  0  0  0  0  0  0  0  0  0  0  0
    2.5840   -7.4910   21.0780 N   0  0  0  0  0  0  0  0  0  0  0  0
    3.8810   -5.7900   22.7710 C   0  0  0  0  0  0  0  0  0  0  0  0
    2.5540   -6.6320   22.2420 C   0  0  0  0  0  0  0  0  0  0  0  0
    4.9720   -5.9430   21.9550 N   0  0  0  0  0  0  0  0  0  0  0  0
    1.9940   -5.5570   22.9350 N   0  0  0  0  0  0  0  0  0  0  0  0
    5.8440   -7.2220   22.3240 C   0  0  0  0  0  0  0  0  0  0  0  0
    5.6270   -4.7440   22.6390 C   0  0  0  0  0  0  0  0  0  0  0  0
    1.1030   -4.5970   22.0730 C   0  0  0  0  0  0  0  0  0  0  0  0
    5.4330   -4.5950   24.0690 N   0  0  0  0  0  0  0  0  0  0  0  0
    6.0680   -3.1300   22.0950 S   0  0  0  0  0  0  0  0  0  0  0  0
    1.0390   -5.0720   20.4610 C   0  0  0  0  0  0  0  0  0  0  0  0
    5.6750   -3.5720   24.8500 C   0  0  0  0  0  0  0  0  0  0  0  0
    6.0400   -2.7350   23.7970 C   0  0  0  0  0  0  0  0  0  0  0  0
    5.1500   -4.8870   25.8150 C   0  0  0  0  0  0  0  0  0  0  0  0
    5.2530   -4.6920   27.1110 C   0  0  0  0  0  0  0  0  0  0  0  0
    4.5960   -6.3210   25.5030 C   0  0  0  0  0  0  0  0  0  0  0  0
    4.9450   -5.6210   28.0740 C   0  0  0  0  0  0  0  0  0  0  0  0
    4.3460   -7.3060   26.4590 C   0  0  0  0  0  0  0  0  0  0  0  0
    4.4580   -7.0310   27.7500 C   0  0  0  0  0  0  0  0  0  0  0  0
  1  2  1  0
  2  3  1  0
  3  4  2  0
  3  5  1  0
  5  6  2  0
  5  7  1  0
  6  8  1  0
  7  9  2  0
  8 10  2  0
  9 10  1  0
  9 11  1  0
 10 12  1  0
 11 13  1  0
 11 14  1  0
 12 15  1  0
 14 16  2  0
 14 17  1  0
 15 18  1  0
 16 19  1  0
 17 20  1  0
 19 20  2  0
 19 21  1  0
 21 22  2  0
 21 23  1  0
 22 24  1  0
 23 25  2  0
 24 26  2  0
 25 26  1  0
M  END
