GAB-REV-df64cf17-15-chloroacetamide
     RDKit          3D

 23 25  0  0  0  0  0  0  0  0999 V2000
    8.7030   -3.8240   20.0640 C   0  0  0  0  0  0  0  0  0  0  0  0
    7.6790   -2.9030   20.2560 C   0  0  0  0  0  0  0  0  0  0  0  0
    6.6100   -3.0800   19.3990 O   0  0  0  0  0  0  0  0  0  0  0  0
    8.2240   -2.0590   21.5300 C   0  0  0  0  0  0  0  0  0  0  0  0
    9.4590   -1.1060   21.3360 C   0  0  0  0  0  0  0  0  0  0  0  0
    7.5900   -2.2680   22.7590 C   0  0  0  0  0  0  0  0  0  0  0  0
    9.6970   -0.5970   22.6490 N   0  0  0  0  0  0  0  0  0  0  0  0
    7.9610   -1.6760   23.9580 C   0  0  0  0  0  0  0  0  0  0  0  0
    9.0440   -0.8190   23.9300 C   0  0  0  0  0  0  0  0  0  0  0  0
    7.1880   -2.0060   25.1200 C   0  0  0  0  0  0  0  0  0  0  0  0
    9.5380   -0.1350   25.1860 N   0  0  0  0  0  0  0  0  0  0  0  0
    5.8720   -1.6750   25.0950 N   0  0  0  0  0  0  0  0  0  0  0  0
    8.4800    0.2740   26.1160 C   0  0  0  0  0  0  0  0  0  0  0  0
    4.9110   -2.7130   24.8000 C   0  0  0  0  0  0  0  0  0  0  0  0
    8.8860    0.2220   27.4490 C   0  0  0  0  0  0  0  0  0  0  0  0
    5.3650   -3.7770   24.1040 N   0  0  0  0  0  0  0  0  0  0  0  0
    3.5240   -2.7470   25.1580 O   0  0  0  0  0  0  0  0  0  0  0  0
    4.3010   -4.5210   23.9900 C   0  0  0  0  0  0  0  0  0  0  0  0
    3.1960   -3.9610   24.5910 C   0  0  0  0  0  0  0  0  0  0  0  0
    4.3390   -5.7350   23.3230 C   0  0  0  0  0  0  0  0  0  0  0  0
    2.0100   -4.6800   24.5240 C   0  0  0  0  0  0  0  0  0  0  0  0
    3.0370   -6.5000   23.2590 C   0  0  0  0  0  0  0  0  0  0  0  0
    1.9120   -5.9200   23.8770 C   0  0  0  0  0  0  0  0  0  0  0  0
  1  2  1  0
  2  3  2  0
  2  4  1  0
  4  5  2  0
  4  6  1  0
  5  7  1  0
  6  8  2  0
  7  9  2  0
  8  9  1  0
  8 10  1  0
  9 11  1  0
 10 12  1  0
 11 13  1  0
 12 14  1  0
 13 15  1  0
 14 16  2  0
 14 17  1  0
 16 18  1  0
 17 19  1  0
 18 19  2  0
 18 20  1  0
 19 21  1  0
 20 22  2  0
 21 23  2  0
 22 23  1  0
M  END
