GAB-REV-df64cf17-6-chloroacetamide
     RDKit          3D

 24 26  0  0  0  0  0  0  0  0999 V2000
    9.7180   -4.0690   19.6560 C   0  0  0  0  0  0  0  0  0  0  0  0
    8.5810   -3.2930   20.2280 C   0  0  0  0  0  0  0  0  0  0  0  0
    7.3300   -3.4170   19.5140 O   0  0  0  0  0  0  0  0  0  0  0  0
    9.1110   -2.4010   21.5470 C   0  0  0  0  0  0  0  0  0  0  0  0
   10.4740   -1.6290   21.7250 C   0  0  0  0  0  0  0  0  0  0  0  0
    8.3390   -2.2680   22.6770 C   0  0  0  0  0  0  0  0  0  0  0  0
   10.8510   -0.8820   22.8820 N   0  0  0  0  0  0  0  0  0  0  0  0
    8.6820   -1.5420   23.8450 C   0  0  0  0  0  0  0  0  0  0  0  0
    9.8970   -0.8400   23.9960 C   0  0  0  0  0  0  0  0  0  0  0  0
    7.7620   -1.5530   24.8290 N   0  0  0  0  0  0  0  0  0  0  0  0
   10.1060   -0.1120   25.3170 N   0  0  0  0  0  0  0  0  0  0  0  0
    6.4560   -1.3260   24.6400 C   0  0  0  0  0  0  0  0  0  0  0  0
    9.0500   -0.4730   26.2760 C   0  0  0  0  0  0  0  0  0  0  0  0
    5.7080   -2.5160   25.1710 C   0  0  0  0  0  0  0  0  0  0  0  0
    9.1360    0.1410   27.5210 C   0  0  0  0  0  0  0  0  0  0  0  0
    6.2610   -3.7150   24.4000 C   0  0  0  0  0  0  0  0  0  0  0  0
    5.5740   -4.4970   23.4340 C   0  0  0  0  0  0  0  0  0  0  0  0
    7.7230   -4.1400   24.6800 C   0  0  0  0  0  0  0  0  0  0  0  0
    6.1700   -5.6830   22.6890 C   0  0  0  0  0  0  0  0  0  0  0  0
    8.2010   -5.2190   23.9720 C   0  0  0  0  0  0  0  0  0  0  0  0
    7.4810   -6.0280   22.9700 C   0  0  0  0  0  0  0  0  0  0  0  0
    9.4740   -5.7500   24.0800 N   0  0  0  0  0  0  0  0  0  0  0  0
    8.3790   -6.9430   22.5920 C   0  0  0  0  0  0  0  0  0  0  0  0
    9.6150   -6.8270   23.2280 N   0  0  0  0  0  0  0  0  0  0  0  0
  1  2  1  0
  2  3  2  0
  2  4  1  0
  4  5  2  0
  4  6  1  0
  5  7  1  0
  6  8  2  0
  7  9  2  0
  8  9  1  0
  8 10  1  0
  9 11  1  0
 10 12  1  0
 11 13  1  0
 12 14  1  0
 13 15  1  0
 14 16  1  0
 16 17  2  0
 16 18  1  0
 17 19  1  0
 18 20  2  0
 19 21  2  0
 20 21  1  0
 20 22  1  0
 21 23  1  0
 22 24  1  0
 23 24  2  0
M  END
