GAB-REV-df64cf17-18-vinylsulfonamide
     RDKit          3D

 25 27  0  0  0  0  0  0  0  0999 V2000
    7.6130   -3.5980   19.7530 C   0  0  0  0  0  0  0  0  0  0  0  0
    7.1950   -4.5640   20.8220 C   0  0  0  0  0  0  0  0  0  0  0  0
    6.4740   -3.6050   22.0400 S   0  0  0  0  0  0  0  0  0  0  0  0
    5.0160   -3.3890   21.4480 O   0  0  0  0  0  0  0  0  0  0  0  0
    6.4820   -4.4660   23.1970 O   0  0  0  0  0  0  0  0  0  0  0  0
    7.9170   -2.3520   22.4910 C   0  0  0  0  0  0  0  0  0  0  0  0
    8.9640   -1.4420   21.8810 C   0  0  0  0  0  0  0  0  0  0  0  0
    8.3510   -1.9960   23.6960 C   0  0  0  0  0  0  0  0  0  0  0  0
    9.7580   -0.7280   22.8680 N   0  0  0  0  0  0  0  0  0  0  0  0
    8.5600   -1.8400   24.9850 C   0  0  0  0  0  0  0  0  0  0  0  0
    9.5330   -0.9280   24.3760 C   0  0  0  0  0  0  0  0  0  0  0  0
    8.9930   -1.4790   26.2050 N   0  0  0  0  0  0  0  0  0  0  0  0
   10.3120   -0.1700   25.3700 N   0  0  0  0  0  0  0  0  0  0  0  0
    8.2210   -1.4970   27.3270 C   0  0  0  0  0  0  0  0  0  0  0  0
    9.5130   -0.2180   26.5870 C   0  0  0  0  0  0  0  0  0  0  0  0
    7.8660   -2.8860   27.7520 C   0  0  0  0  0  0  0  0  0  0  0  0
    8.2650    0.3860   26.3800 C   0  0  0  0  0  0  0  0  0  0  0  0
    6.7510   -1.7760   28.1030 C   0  0  0  0  0  0  0  0  0  0  0  0
    7.2440   -4.0580   28.2710 C   0  0  0  0  0  0  0  0  0  0  0  0
    5.8460   -2.6010   28.6980 N   0  0  0  0  0  0  0  0  0  0  0  0
    6.0420   -3.7980   28.8180 C   0  0  0  0  0  0  0  0  0  0  0  0
    7.9290   -5.3170   28.1620 C   0  0  0  0  0  0  0  0  0  0  0  0
    5.0810   -4.6750   29.4510 C   0  0  0  0  0  0  0  0  0  0  0  0
    6.9070   -6.1140   28.8150 C   0  0  0  0  0  0  0  0  0  0  0  0
    5.6470   -5.8880   29.3940 C   0  0  0  0  0  0  0  0  0  0  0  0
  1  2  1  0
  3  2  1  0
  3  4  2  0
  3  5  2  0
  3  6  1  0
  6  7  2  0
  6  8  1  0
  7  9  1  0
  8 10  2  0
  9 11  2  0
 10 11  1  0
 10 12  1  0
 11 13  1  0
 12 14  1  0
 13 15  1  0
 14 16  1  0
 15 17  1  0
 16 18  2  0
 16 19  1  0
 18 20  1  0
 19 21  2  0
 20 21  1  0
 19 22  1  0
 21 23  1  0
 22 24  2  0
 23 25  2  0
 24 25  1  0
M  END
