GAB-REV-df64cf17-3-vinylsulfonamide
     RDKit          3D

 25 27  0  0  0  0  0  0  0  0999 V2000
    6.5950   -5.2590   20.1860 C   0  0  0  0  0  0  0  0  0  0  0  0
    7.2760   -4.6220   21.3430 C   0  0  0  0  0  0  0  0  0  0  0  0
    6.9020   -2.9750   20.9950 S   0  0  0  0  0  0  0  0  0  0  0  0
    5.1850   -3.3630   20.9790 O   0  0  0  0  0  0  0  0  0  0  0  0
    7.7630   -2.5960   19.8570 O   0  0  0  0  0  0  0  0  0  0  0  0
    8.0260   -2.1510   22.3400 C   0  0  0  0  0  0  0  0  0  0  0  0
    8.7410   -0.7990   22.0640 C   0  0  0  0  0  0  0  0  0  0  0  0
    8.1260   -2.8800   23.5430 C   0  0  0  0  0  0  0  0  0  0  0  0
    9.5230   -0.1100   22.9620 N   0  0  0  0  0  0  0  0  0  0  0  0
    8.9510   -2.0410   24.3670 C   0  0  0  0  0  0  0  0  0  0  0  0
    9.5940   -0.7890   24.2020 C   0  0  0  0  0  0  0  0  0  0  0  0
    9.0660   -2.7280   25.6060 O   0  0  0  0  0  0  0  0  0  0  0  0
   10.3210   -0.1890   25.3630 N   0  0  0  0  0  0  0  0  0  0  0  0
    8.9210   -4.1530   25.3880 C   0  0  0  0  0  0  0  0  0  0  0  0
    9.5420   -0.3540   26.6030 C   0  0  0  0  0  0  0  0  0  0  0  0
    7.7320   -4.7800   26.0410 C   0  0  0  0  0  0  0  0  0  0  0  0
    8.3030    0.2650   26.5550 C   0  0  0  0  0  0  0  0  0  0  0  0
    6.3990   -4.9270   25.2830 C   0  0  0  0  0  0  0  0  0  0  0  0
    7.8250   -5.2850   27.4860 C   0  0  0  0  0  0  0  0  0  0  0  0
    5.1030   -5.4630   25.6120 C   0  0  0  0  0  0  0  0  0  0  0  0
    6.6310   -5.7980   27.8510 C   0  0  0  0  0  0  0  0  0  0  0  0
    5.5080   -5.8590   27.0420 C   0  0  0  0  0  0  0  0  0  0  0  0
    6.1700   -6.3650   28.9990 C   0  0  0  0  0  0  0  0  0  0  0  0
    4.4640   -6.4970   27.8860 N   0  0  0  0  0  0  0  0  0  0  0  0
    4.8280   -6.8440   29.1540 N   0  0  0  0  0  0  0  0  0  0  0  0
  1  2  1  0
  3  2  1  0
  3  4  2  0
  3  5  2  0
  3  6  1  0
  6  7  2  0
  6  8  1  0
  7  9  1  0
  8 10  2  0
  9 11  2  0
 10 11  1  0
 10 12  1  0
 11 13  1  0
 12 14  1  0
 13 15  1  0
 14 16  1  0
 15 17  1  0
 16 18  2  0
 16 19  1  0
 18 20  1  0
 19 21  2  0
 20 22  2  0
 21 22  1  0
 21 23  1  0
 22 24  1  0
 23 25  2  0
 24 25  1  0
M  END
