GAB-REV-4a4e2ff3-13-bromoalkyne
     RDKit          3D

 26 28  0  0  0  0  0  0  0  0999 V2000
    8.1900   -3.7920   20.0070 C   0  0  0  0  0  0  0  0  0  0  0  0
    6.8860   -3.4340   19.2300 C   0  0  0  0  0  0  0  0  0  0  0  0
    7.9400   -4.1180   21.4430 C   0  0  0  0  0  0  0  0  0  0  0  0
    7.4920   -5.5440   21.7830 C   0  0  0  0  0  0  0  0  0  0  0  0
    8.0660   -3.2150   22.5630 C   0  0  0  0  0  0  0  0  0  0  0  0
    7.2510   -5.8040   23.2330 C   0  0  0  0  0  0  0  0  0  0  0  0
    7.7890   -3.5950   24.0420 C   0  0  0  0  0  0  0  0  0  0  0  0
    8.4370   -1.8940   22.5280 C   0  0  0  0  0  0  0  0  0  0  0  0
    7.3970   -4.8710   24.3030 C   0  0  0  0  0  0  0  0  0  0  0  0
    9.0790   -1.4690   23.7980 N   0  0  0  0  0  0  0  0  0  0  0  0
   10.3170   -0.7960   23.4320 C   0  0  0  0  0  0  0  0  0  0  0  0
   11.4000   -1.6770   22.9380 C   0  0  0  0  0  0  0  0  0  0  0  0
   10.5520    0.5990   23.4800 C   0  0  0  0  0  0  0  0  0  0  0  0
   12.7410   -1.1380   22.4890 C   0  0  0  0  0  0  0  0  0  0  0  0
   11.7420    1.1850   23.0720 C   0  0  0  0  0  0  0  0  0  0  0  0
    9.7460    1.6160   23.8870 N   0  0  0  0  0  0  0  0  0  0  0  0
   13.6520   -1.9620   22.0570 F   0  0  0  0  0  0  0  0  0  0  0  0
   12.9310    0.3770   22.5670 C   0  0  0  0  0  0  0  0  0  0  0  0
   11.5720    2.6940   23.2200 C   0  0  0  0  0  0  0  0  0  0  0  0
   10.3250    2.8680   23.7470 C   0  0  0  0  0  0  0  0  0  0  0  0
   12.6800    3.6650   22.7830 C   0  0  0  0  0  0  0  0  0  0  0  0
   12.4500    5.0800   23.3010 C   0  0  0  0  0  0  0  0  0  0  0  0
   11.2730    5.6820   22.6360 N   0  0  0  0  0  0  0  0  0  0  0  0
   10.1650    6.2270   23.4170 C   0  0  0  0  0  0  0  0  0  0  0  0
    9.0860    6.6310   22.6200 C   0  0  0  0  0  0  0  0  0  0  0  0
   10.1660    6.3250   24.6420 O   0  0  0  0  0  0  0  0  0  0  0  0
  1  2  2  3
  1  3  1  0
  3  4  2  0
  3  5  1  0
  4  6  1  0
  5  7  2  0
  5  8  1  0
  6  9  2  0
  7  9  1  0
  8 10  1  0
 10 11  1  0
 11 12  2  0
 11 13  1  0
 12 14  1  0
 13 15  2  0
 13 16  1  0
 14 17  1  0
 14 18  2  0
 15 18  1  0
 15 19  1  0
 16 20  1  0
 19 20  2  0
 19 21  1  0
 21 22  1  0
 22 23  1  0
 23 24  1  0
 24 25  1  0
 24 26  2  0
M  END
