GAB-REV-df64cf17-17-bromoalkyne
     RDKit          3D

 23 24  0  0  0  0  0  0  0  0999 V2000
    7.6170   -3.1740   19.4780 C   0  0  0  0  0  0  0  0  0  0  0  0
    6.2740   -2.9650   18.7750 C   0  0  0  0  0  0  0  0  0  0  0  0
    7.8090   -2.5680   20.8480 C   0  0  0  0  0  0  0  0  0  0  0  0
    7.9930   -1.0650   20.8250 C   0  0  0  0  0  0  0  0  0  0  0  0
    7.8440   -3.1950   22.1310 C   0  0  0  0  0  0  0  0  0  0  0  0
    8.0370   -1.6010   22.0500 N   0  0  0  0  0  0  0  0  0  0  0  0
    8.0430   -2.5020   23.3900 C   0  0  0  0  0  0  0  0  0  0  0  0
    8.2190   -1.1140   23.3660 C   0  0  0  0  0  0  0  0  0  0  0  0
    8.0500   -3.2310   24.5110 N   0  0  0  0  0  0  0  0  0  0  0  0
    8.3320    0.2240   22.6900 N   0  0  0  0  0  0  0  0  0  0  0  0
    7.4760   -2.8430   25.6560 C   0  0  0  0  0  0  0  0  0  0  0  0
    7.9650   -4.6430   24.1200 C   0  0  0  0  0  0  0  0  0  0  0  0
    8.2050    1.3770   23.5770 C   0  0  0  0  0  0  0  0  0  0  0  0
    8.3080   -6.0730   24.2200 C   0  0  0  0  0  0  0  0  0  0  0  0
    8.8790   -5.0930   25.1060 C   0  0  0  0  0  0  0  0  0  0  0  0
    7.3350    1.1270   24.6380 C   0  0  0  0  0  0  0  0  0  0  0  0
    8.0090   -7.2080   23.6280 C   0  0  0  0  0  0  0  0  0  0  0  0
    9.6170   -6.1670   25.7450 C   0  0  0  0  0  0  0  0  0  0  0  0
    8.9840   -7.0740   24.7910 C   0  0  0  0  0  0  0  0  0  0  0  0
    8.4580   -5.4100   24.6500 S   0  0  0  0  0  0  0  0  0  0  0  0
    7.8620   -5.0280   26.2090 N   0  0  0  0  0  0  0  0  0  0  0  0
    7.2690   -5.3520   23.7860 O   0  0  0  0  0  0  0  0  0  0  0  0
    9.6370   -4.5700   24.4060 O   0  0  0  0  0  0  0  0  0  0  0  0
  1  2  2  3
  1  3  1  0
  3  4  2  0
  3  5  1  0
  4  6  1  0
  5  7  2  0
  6  8  2  0
  7  8  1  0
  7  9  1  0
  8 10  1  0
  9 11  1  0
  9 12  1  0
 10 13  1  0
 12 14  2  0
 12 15  1  0
 13 16  1  0
 14 17  1  0
 15 18  2  0
 17 19  2  0
 18 19  1  0
 19 20  1  0
 20 21  1  0
 20 22  2  0
 20 23  2  0
M  END
