GAB-REV-4a4e2ff3-10
     RDKit          3D

 30 33  0  0  0  0  0  0  0  0999 V2000
    9.0280    6.7520   22.6480 C   0  0  0  0  0  0  0  0  0  0  0  0
   10.2050    6.1950   23.3350 C   0  0  0  0  0  0  0  0  0  0  0  0
   10.3020    6.3560   24.5540 O   0  0  0  0  0  0  0  0  0  0  0  0
   11.1110    5.5220   22.4990 N   0  0  0  0  0  0  0  0  0  0  0  0
   12.5250    5.4090   22.8440 C   0  0  0  0  0  0  0  0  0  0  0  0
   13.0060    3.9620   22.9020 C   0  0  0  0  0  0  0  0  0  0  0  0
   11.8230    2.9630   23.0110 C   0  0  0  0  0  0  0  0  0  0  0  0
   10.4220    3.1810   23.2820 C   0  0  0  0  0  0  0  0  0  0  0  0
   11.9470    1.4930   22.8040 C   0  0  0  0  0  0  0  0  0  0  0  0
    9.7460    2.0240   23.2160 N   0  0  0  0  0  0  0  0  0  0  0  0
   10.6450    0.9450   22.9010 C   0  0  0  0  0  0  0  0  0  0  0  0
   13.0290    0.4450   22.5110 C   0  0  0  0  0  0  0  0  0  0  0  0
   10.1540   -0.3790   22.7400 C   0  0  0  0  0  0  0  0  0  0  0  0
   12.5560   -1.0120   22.3320 C   0  0  0  0  0  0  0  0  0  0  0  0
    8.3860   -0.6610   22.9030 S   0  0  0  0  0  0  0  0  0  0  0  0
   11.0890   -1.3980   22.4510 C   0  0  0  0  0  0  0  0  0  0  0  0
   13.4360   -1.9720   22.0570 F   0  0  0  0  0  0  0  0  0  0  0  0
    7.6710    0.4300   22.2740 O   0  0  0  0  0  0  0  0  0  0  0  0
    8.0880   -2.0550   22.6500 O   0  0  0  0  0  0  0  0  0  0  0  0
    8.4420   -0.4470   24.5370 N   0  0  0  0  0  0  0  0  0  0  0  0
    9.6250   -0.8800   24.7420 C   0  0  0  0  0  0  0  0  0  0  0  0
   10.7550   -0.0450   24.5800 C   0  0  0  0  0  0  0  0  0  0  0  0
    9.7800   -2.2180   25.1050 C   0  0  0  0  0  0  0  0  0  0  0  0
   12.1600   -0.5070   24.7540 C   0  0  0  0  0  0  0  0  0  0  0  0
   11.1680   -2.7450   25.3200 C   0  0  0  0  0  0  0  0  0  0  0  0
   12.4040   -1.9450   25.1430 C   0  0  0  0  0  0  0  0  0  0  0  0
   11.5060   -4.1090   25.7600 C   0  0  0  0  0  0  0  0  0  0  0  0
   10.7820   -5.0700   25.8460 O   0  0  0  0  0  0  0  0  0  0  0  0
   12.9810   -3.8880   26.0690 N   0  0  0  0  0  0  0  0  0  0  0  0
   13.6070   -2.7590   25.4160 C   0  0  0  0  0  0  0  0  0  0  0  0
  1  2  1  0
  2  3  2  0
  2  4  1  0
  4  5  1  0
  5  6  1  0
  6  7  1  0
  7  8  2  0
  7  9  1  0
  8 10  1  0
  9 11  2  0
 10 11  1  0
  9 12  1  0
 11 13  1  0
 12 14  2  0
 13 15  1  0
 13 16  2  0
 14 16  1  0
 14 17  1  0
 15 18  2  0
 15 19  2  0
 15 20  1  0
 20 21  1  0
 21 22  2  0
 21 23  1  0
 22 24  1  0
 23 25  2  0
 24 26  2  0
 25 26  1  0
 25 27  1  0
 27 28  2  0
 27 29  1  0
 26 30  1  0
 29 30  1  0
M  END
