GAB-REV-df64cf17-13-nitrile
     RDKit          3D

 21 23  0  0  0  0  0  0  0  0999 V2000
    8.4560   -3.3970   19.8680 C   0  0  0  0  0  0  0  0  0  0  0  0
    7.3690   -3.0660   19.1190 N   0  0  0  0  0  0  0  0  0  0  0  0
    9.0520   -2.6150   21.2560 C   0  0  0  0  0  0  0  0  0  0  0  0
    9.2010   -1.0170   21.4030 C   0  0  0  0  0  0  0  0  0  0  0  0
    9.4420   -3.3590   22.4320 C   0  0  0  0  0  0  0  0  0  0  0  0
    9.6170   -0.4970   22.5380 N   0  0  0  0  0  0  0  0  0  0  0  0
    9.8880   -2.8570   23.7050 C   0  0  0  0  0  0  0  0  0  0  0  0
    9.7300   -1.7220   23.0360 C   0  0  0  0  0  0  0  0  0  0  0  0
    9.9280   -4.1620   23.9430 N   0  0  0  0  0  0  0  0  0  0  0  0
    9.9260   -1.0430   24.3470 N   0  0  0  0  0  0  0  0  0  0  0  0
    8.6300   -4.4570   23.8590 C   0  0  0  0  0  0  0  0  0  0  0  0
    8.4440   -0.8340   24.4970 C   0  0  0  0  0  0  0  0  0  0  0  0
    7.7360   -3.4820   24.3990 C   0  0  0  0  0  0  0  0  0  0  0  0
    8.0820   -5.6170   23.2830 C   0  0  0  0  0  0  0  0  0  0  0  0
    7.7540   -1.2430   25.6570 C   0  0  0  0  0  0  0  0  0  0  0  0
    6.2780   -3.6100   24.3930 C   0  0  0  0  0  0  0  0  0  0  0  0
    6.6800   -5.7920   23.2430 C   0  0  0  0  0  0  0  0  0  0  0  0
    5.7800   -4.8620   23.7610 C   0  0  0  0  0  0  0  0  0  0  0  0
    5.8760   -6.8020   22.7460 C   0  0  0  0  0  0  0  0  0  0  0  0
    4.5300   -5.3030   23.5790 N   0  0  0  0  0  0  0  0  0  0  0  0
    4.4900   -6.5790   22.9160 C   0  0  0  0  0  0  0  0  0  0  0  0
  1  2  2  3
  1  3  1  0
  3  4  2  0
  3  5  1  0
  4  6  1  0
  5  7  2  0
  6  8  2  0
  7  8  1  0
  7  9  1  0
  8 10  1  0
  9 11  1  0
 10 12  1  0
 11 13  2  0
 11 14  1  0
 12 15  1  0
 13 16  1  0
 14 17  2  0
 16 18  2  0
 17 18  1  0
 17 19  1  0
 18 20  1  0
 19 21  2  0
 20 21  1  0
M  END
