GAB-REV-df64cf17-5-acrylamide
     RDKit          3D

 24 26  0  0  0  0  0  0  0  0999 V2000
    7.9250   -6.3260   20.8570 C   0  0  0  0  0  0  0  0  0  0  0  0
    6.6130   -5.5340   21.4920 C   0  0  0  0  0  0  0  0  0  0  0  0
    4.7260   -6.0800   21.5290 C   0  0  0  0  0  0  0  0  0  0  0  0
    4.1170   -5.2660   22.4800 O   0  0  0  0  0  0  0  0  0  0  0  0
    3.7220   -6.3750   20.7700 C   0  0  0  0  0  0  0  0  0  0  0  0
    3.2310   -5.2110   21.3210 C   0  0  0  0  0  0  0  0  0  0  0  0
    3.1580   -5.0330   21.4060 C   0  0  0  0  0  0  0  0  0  0  0  0
    4.1410   -4.5950   22.1340 N   0  0  0  0  0  0  0  0  0  0  0  0
    3.2150   -3.8840   22.1960 C   0  0  0  0  0  0  0  0  0  0  0  0
    1.7250   -5.0930   20.9960 N   0  0  0  0  0  0  0  0  0  0  0  0
    4.2520   -3.6550   22.7490 C   0  0  0  0  0  0  0  0  0  0  0  0
    1.1930   -6.2870   21.7870 C   0  0  0  0  0  0  0  0  0  0  0  0
    4.0450   -2.3300   23.3420 N   0  0  0  0  0  0  0  0  0  0  0  0
    2.2450   -6.8690   22.3990 C   0  0  0  0  0  0  0  0  0  0  0  0
    2.9080   -2.1320   24.2370 C   0  0  0  0  0  0  0  0  0  0  0  0
    2.8450   -6.6180   23.2010 C   0  0  0  0  0  0  0  0  0  0  0  0
    1.5780   -5.7660   22.8090 C   0  0  0  0  0  0  0  0  0  0  0  0
    1.6890   -1.0600   24.0740 C   0  0  0  0  0  0  0  0  0  0  0  0
    2.5660   -7.5090   21.9800 C   0  0  0  0  0  0  0  0  0  0  0  0
    0.8100   -6.1070   21.9920 C   0  0  0  0  0  0  0  0  0  0  0  0
    1.3220   -7.1100   21.3830 C   0  0  0  0  0  0  0  0  0  0  0  0
   -0.8030   -6.0130   20.9840 C   0  0  0  0  0  0  0  0  0  0  0  0
    0.2760   -6.7750   20.8810 N   0  0  0  0  0  0  0  0  0  0  0  0
   -0.3220   -5.5240   21.7990 N   0  0  0  0  0  0  0  0  0  0  0  0
  1  2  1  0
  2  3  1  0
  3  4  2  0
  3  5  1  0
  5  6  2  0
  5  7  1  0
  6  8  1  0
  7  9  2  0
  7 10  1  0
  8 11  2  0
  9 11  1  0
 10 12  1  0
 11 13  1  0
 12 14  1  0
 13 15  1  0
 14 16  2  0
 14 17  1  0
 15 18  1  0
 16 19  1  0
 17 20  2  0
 19 21  2  0
 20 21  1  0
 20 22  1  0
 21 23  1  0
 22 24  2  0
 23 24  1  0
M  END
