GAB-REV-70cc3ca5-5
     RDKit          3D

 23 25  0  0  0  0  0  0  0  0999 V2000
    5.2830    0.7350   22.0900 C   0  0  0  0  0  0  0  0  0  0  0  0
    5.6350    0.6150   20.6160 C   0  0  0  0  0  0  0  0  0  0  0  0
    4.7060    1.2390   19.5290 C   0  0  0  0  0  0  0  0  0  0  0  0
    6.7790   -0.0400   20.1360 C   0  0  0  0  0  0  0  0  0  0  0  0
    5.1520    1.0680   18.0570 C   0  0  0  0  0  0  0  0  0  0  0  0
    7.0110   -0.0950   18.6490 C   0  0  0  0  0  0  0  0  0  0  0  0
    7.6670   -0.6040   21.0290 N   0  0  0  0  0  0  0  0  0  0  0  0
    6.2460    0.4290   17.6660 N   0  0  0  0  0  0  0  0  0  0  0  0
    8.5930    0.1640   21.6650 C   0  0  0  0  0  0  0  0  0  0  0  0
    9.0840    1.2330   21.2480 O   0  0  0  0  0  0  0  0  0  0  0  0
    8.9600   -0.3340   22.8870 C   0  0  0  0  0  0  0  0  0  0  0  0
    9.7960    0.5460   23.5220 N   0  0  0  0  0  0  0  0  0  0  0  0
   11.1570    0.5570   23.2830 C   0  0  0  0  0  0  0  0  0  0  0  0
   11.7220    1.6480   23.3380 O   0  0  0  0  0  0  0  0  0  0  0  0
   11.8250   -0.6090   22.9330 C   0  0  0  0  0  0  0  0  0  0  0  0
   12.9680   -1.0410   23.8150 C   0  0  0  0  0  0  0  0  0  0  0  0
   11.3820   -1.2460   21.8080 C   0  0  0  0  0  0  0  0  0  0  0  0
   13.6430   -2.2800   23.2840 C   0  0  0  0  0  0  0  0  0  0  0  0
   12.0240   -2.3260   21.3610 C   0  0  0  0  0  0  0  0  0  0  0  0
   13.0830   -2.8090   22.0130 C   0  0  0  0  0  0  0  0  0  0  0  0
   11.8740   -3.1930   20.2630 N   0  0  0  0  0  0  0  0  0  0  0  0
   13.6330   -3.9100   21.3460 N   0  0  0  0  0  0  0  0  0  0  0  0
   12.9270   -4.1300   20.3230 C   0  0  0  0  0  0  0  0  0  0  0  0
  1  2  1  0
  2  3  2  0
  2  4  1  0
  3  5  1  0
  4  6  2  0
  4  7  1  0
  5  8  2  0
  6  8  1  0
  7  9  1  0
  9 10  2  0
  9 11  1  0
 11 12  1  0
 12 13  1  0
 13 14  2  0
 13 15  1  0
 15 16  2  0
 15 17  1  0
 16 18  1  0
 17 19  2  0
 18 20  2  0
 19 20  1  0
 19 21  1  0
 20 22  1  0
 21 23  1  0
 22 23  2  0
M  END
