GAB-REV-70cc3ca5-16
     RDKit          3D

 26 28  0  0  0  0  0  0  0  0999 V2000
    5.4680    0.7950   22.2210 C   0  0  0  0  0  0  0  0  0  0  0  0
    5.7660    0.5970   20.7420 C   0  0  0  0  0  0  0  0  0  0  0  0
    4.7870    1.1730   19.6670 C   0  0  0  0  0  0  0  0  0  0  0  0
    6.8940   -0.0840   20.2550 C   0  0  0  0  0  0  0  0  0  0  0  0
    5.1530    0.9380   18.1860 C   0  0  0  0  0  0  0  0  0  0  0  0
    7.0490   -0.2020   18.7480 C   0  0  0  0  0  0  0  0  0  0  0  0
    7.8280   -0.6150   21.1550 N   0  0  0  0  0  0  0  0  0  0  0  0
    6.2340    0.2790   17.7760 N   0  0  0  0  0  0  0  0  0  0  0  0
    8.8950    0.0880   21.6700 C   0  0  0  0  0  0  0  0  0  0  0  0
    9.2020    1.2500   21.3430 O   0  0  0  0  0  0  0  0  0  0  0  0
    9.6440   -0.6140   22.6100 C   0  0  0  0  0  0  0  0  0  0  0  0
   10.0190    0.1470   23.7250 N   0  0  0  0  0  0  0  0  0  0  0  0
    9.5380    0.0370   25.0520 C   0  0  0  0  0  0  0  0  0  0  0  0
   10.9180    1.1500   23.4290 C   0  0  0  0  0  0  0  0  0  0  0  0
   12.3550    0.8600   23.1950 C   0  0  0  0  0  0  0  0  0  0  0  0
   10.7890    2.5760   23.2690 C   0  0  0  0  0  0  0  0  0  0  0  0
   12.7080   -0.6080   23.3240 C   0  0  0  0  0  0  0  0  0  0  0  0
   12.9900    2.0240   22.9180 N   0  0  0  0  0  0  0  0  0  0  0  0
   12.0970    3.0440   22.9550 C   0  0  0  0  0  0  0  0  0  0  0  0
    9.7300    3.4980   23.3530 C   0  0  0  0  0  0  0  0  0  0  0  0
   12.5300   -1.2180   24.5370 N   0  0  0  0  0  0  0  0  0  0  0  0
   13.1980   -1.2680   22.2280 O   0  0  0  0  0  0  0  0  0  0  0  0
   12.2580    4.5100   22.7300 C   0  0  0  0  0  0  0  0  0  0  0  0
    9.9400    4.8850   23.1340 C   0  0  0  0  0  0  0  0  0  0  0  0
   11.2190    5.3950   22.8190 C   0  0  0  0  0  0  0  0  0  0  0  0
    8.6060    5.9720   23.2530 Cl  0  0  0  0  0  0  0  0  0  0  0  0
  1  2  1  0
  2  3  2  0
  2  4  1  0
  3  5  1  0
  4  6  2  0
  4  7  1  0
  5  8  2  0
  6  8  1  0
  7  9  1  0
  9 10  2  0
  9 11  1  0
 11 12  1  0
 12 13  1  0
 12 14  1  0
 14 15  2  0
 14 16  1  0
 15 17  1  0
 15 18  1  0
 16 19  2  0
 18 19  1  0
 16 20  1  0
 17 21  1  0
 17 22  2  0
 19 23  1  0
 20 24  2  0
 23 25  2  0
 24 25  1  0
 24 26  1  0
M  END
