GAB-REV-df64cf17-7-vinylsulfonamide
     RDKit          3D

 27 29  0  0  0  0  0  0  0  0999 V2000
    6.3970   -5.2120   20.1890 C   0  0  0  0  0  0  0  0  0  0  0  0
    6.6710   -5.3100   21.6510 C   0  0  0  0  0  0  0  0  0  0  0  0
    6.0310   -3.8030   22.2820 S   0  0  0  0  0  0  0  0  0  0  0  0
    5.0030   -3.3410   21.3160 O   0  0  0  0  0  0  0  0  0  0  0  0
    5.4950   -4.2070   23.5570 O   0  0  0  0  0  0  0  0  0  0  0  0
    7.4730   -2.7060   22.7770 C   0  0  0  0  0  0  0  0  0  0  0  0
    8.4570   -1.8580   22.0540 C   0  0  0  0  0  0  0  0  0  0  0  0
    7.7180   -2.6300   24.0760 C   0  0  0  0  0  0  0  0  0  0  0  0
    9.4340   -1.1360   22.7670 N   0  0  0  0  0  0  0  0  0  0  0  0
    8.6940   -1.9020   24.7210 C   0  0  0  0  0  0  0  0  0  0  0  0
    9.7550   -1.0050   24.2360 C   0  0  0  0  0  0  0  0  0  0  0  0
    8.4210   -2.2420   26.0960 C   0  0  0  0  0  0  0  0  0  0  0  0
    9.8250   -1.0800   25.7240 N   0  0  0  0  0  0  0  0  0  0  0  0
    8.4390   -3.5830   26.3610 O   0  0  0  0  0  0  0  0  0  0  0  0
    8.0860   -1.3860   27.0980 N   0  0  0  0  0  0  0  0  0  0  0  0
    9.2180   -0.0140   26.4810 C   0  0  0  0  0  0  0  0  0  0  0  0
    6.7930   -0.7330   27.0120 C   0  0  0  0  0  0  0  0  0  0  0  0
    8.5930    0.9280   25.6750 C   0  0  0  0  0  0  0  0  0  0  0  0
    5.5690   -1.6010   27.2860 C   0  0  0  0  0  0  0  0  0  0  0  0
    5.4390   -2.6020   28.2770 C   0  0  0  0  0  0  0  0  0  0  0  0
    4.3240   -1.3810   26.3970 C   0  0  0  0  0  0  0  0  0  0  0  0
    4.1890   -3.4410   28.5070 C   0  0  0  0  0  0  0  0  0  0  0  0
    3.2250   -2.1710   26.6560 C   0  0  0  0  0  0  0  0  0  0  0  0
    3.0880   -3.2180   27.6920 C   0  0  0  0  0  0  0  0  0  0  0  0
    2.0180   -2.1230   25.9720 N   0  0  0  0  0  0  0  0  0  0  0  0
    1.8300   -3.6800   27.5200 C   0  0  0  0  0  0  0  0  0  0  0  0
    1.1290   -3.0470   26.4820 N   0  0  0  0  0  0  0  0  0  0  0  0
  1  2  1  0
  3  2  1  0
  3  4  2  0
  3  5  2  0
  3  6  1  0
  6  7  2  0
  6  8  1  0
  7  9  1  0
  8 10  2  0
  9 11  2  0
 10 11  1  0
 10 12  1  0
 11 13  1  0
 12 14  2  0
 12 15  1  0
 13 16  1  0
 15 17  1  0
 16 18  1  0
 17 19  1  0
 19 20  2  0
 19 21  1  0
 20 22  1  0
 21 23  2  0
 22 24  2  0
 23 24  1  0
 23 25  1  0
 24 26  1  0
 25 27  1  0
 26 27  2  0
M  END
