GAB-REV-df64cf17-2-nitrile
     RDKit          3D

 22 24  0  0  0  0  0  0  0  0999 V2000
    6.5530   -5.7090   19.6540 C   0  0  0  0  0  0  0  0  0  0  0  0
    5.6080   -6.5680   19.8350 N   0  0  0  0  0  0  0  0  0  0  0  0
    6.0630   -4.4050   19.8020 C   0  0  0  0  0  0  0  0  0  0  0  0
    4.5640   -4.6210   20.2670 C   0  0  0  0  0  0  0  0  0  0  0  0
    6.6640   -2.8590   19.6220 C   0  0  0  0  0  0  0  0  0  0  0  0
    4.1490   -3.7280   20.2080 N   0  0  0  0  0  0  0  0  0  0  0  0
    5.4980   -2.0980   19.9400 C   0  0  0  0  0  0  0  0  0  0  0  0
    5.3380   -3.3680   20.0410 C   0  0  0  0  0  0  0  0  0  0  0  0
    5.6240   -0.5880   19.8370 N   0  0  0  0  0  0  0  0  0  0  0  0
    6.9180   -4.4410   19.7710 N   0  0  0  0  0  0  0  0  0  0  0  0
    5.7740   -0.0300   20.9090 C   0  0  0  0  0  0  0  0  0  0  0  0
    7.2720   -5.4370   20.9650 C   0  0  0  0  0  0  0  0  0  0  0  0
    6.4790    1.1890   21.7440 C   0  0  0  0  0  0  0  0  0  0  0  0
    6.7010   -5.1920   22.4230 C   0  0  0  0  0  0  0  0  0  0  0  0
    5.9940    2.3480   20.7850 C   0  0  0  0  0  0  0  0  0  0  0  0
    6.5140    2.7380   21.3040 C   0  0  0  0  0  0  0  0  0  0  0  0
    6.6420    3.0380   21.6840 C   0  0  0  0  0  0  0  0  0  0  0  0
    7.0070    4.0370   22.1930 C   0  0  0  0  0  0  0  0  0  0  0  0
    7.0260    2.8140   22.8050 C   0  0  0  0  0  0  0  0  0  0  0  0
    7.6000    4.7800   23.4310 C   0  0  0  0  0  0  0  0  0  0  0  0
    7.6300    3.0470   24.1860 N   0  0  0  0  0  0  0  0  0  0  0  0
    7.8370    4.3270   24.4220 N   0  0  0  0  0  0  0  0  0  0  0  0
  1  2  2  3
  1  3  1  0
  3  4  2  0
  3  5  1  0
  4  6  1  0
  5  7  2  0
  6  8  2  0
  7  8  1  0
  7  9  1  0
  8 10  1  0
  9 11  1  0
 10 12  1  0
 11 13  1  0
 12 14  1  0
 13 15  2  0
 13 16  1  0
 15 17  1  0
 16 18  2  0
 17 19  2  0
 18 19  1  0
 18 20  1  0
 19 21  1  0
 20 22  2  0
 21 22  1  0
M  END
