GAB-REV-df64cf17-22-chloroacetamide
     RDKit          3D

 24 26  0  0  0  0  0  0  0  0999 V2000
    8.9880   -4.2780   20.0670 C   0  0  0  0  0  0  0  0  0  0  0  0
    7.4790   -3.8930   20.3260 C   0  0  0  0  0  0  0  0  0  0  0  0
    6.5070   -4.0050   19.5850 O   0  0  0  0  0  0  0  0  0  0  0  0
    7.3850   -3.2450   21.6770 C   0  0  0  0  0  0  0  0  0  0  0  0
    8.4530   -2.3030   21.8440 C   0  0  0  0  0  0  0  0  0  0  0  0
    6.4470   -3.3150   22.8610 C   0  0  0  0  0  0  0  0  0  0  0  0
    8.0890   -1.9560   23.1180 N   0  0  0  0  0  0  0  0  0  0  0  0
    6.6150   -2.5220   24.1950 C   0  0  0  0  0  0  0  0  0  0  0  0
    7.7650   -1.6460   24.2560 C   0  0  0  0  0  0  0  0  0  0  0  0
    5.6910   -2.6390   25.1820 N   0  0  0  0  0  0  0  0  0  0  0  0
    8.4650   -0.6470   25.2150 N   0  0  0  0  0  0  0  0  0  0  0  0
    5.7110   -3.4240   26.2660 C   0  0  0  0  0  0  0  0  0  0  0  0
    8.8630   -1.0340   26.5760 C   0  0  0  0  0  0  0  0  0  0  0  0
    7.0480   -4.0160   26.4860 C   0  0  0  0  0  0  0  0  0  0  0  0
    9.0040    0.1230   27.3940 C   0  0  0  0  0  0  0  0  0  0  0  0
    7.0800   -5.2550   25.5630 C   0  0  0  0  0  0  0  0  0  0  0  0
    5.9840   -6.0960   25.3110 C   0  0  0  0  0  0  0  0  0  0  0  0
    8.4360   -5.5700   24.8930 C   0  0  0  0  0  0  0  0  0  0  0  0
    6.0470   -7.3150   24.4200 C   0  0  0  0  0  0  0  0  0  0  0  0
    8.5200   -6.6770   24.0460 C   0  0  0  0  0  0  0  0  0  0  0  0
    7.2860   -7.5590   23.8370 C   0  0  0  0  0  0  0  0  0  0  0  0
    9.5420   -7.0060   23.4530 O   0  0  0  0  0  0  0  0  0  0  0  0
    7.6410   -8.6250   22.9650 N   0  0  0  0  0  0  0  0  0  0  0  0
    8.9870   -8.1620   22.8090 C   0  0  0  0  0  0  0  0  0  0  0  0
  1  2  1  0
  2  3  2  0
  2  4  1  0
  4  5  2  0
  4  6  1  0
  5  7  1  0
  6  8  2  0
  7  9  2  0
  8  9  1  0
  8 10  1  0
  9 11  1  0
 10 12  1  0
 11 13  1  0
 12 14  1  0
 13 15  1  0
 14 16  1  0
 16 17  2  0
 16 18  1  0
 17 19  1  0
 18 20  2  0
 19 21  2  0
 20 21  1  0
 20 22  1  0
 21 23  1  0
 22 24  1  0
 23 24  2  0
M  END
