GAB-REV-df64cf17-21-vinylsulfonamide
     RDKit          3D

 26 28  0  0  0  0  0  0  0  0999 V2000
    6.9030   -3.1020   19.0470 C   0  0  0  0  0  0  0  0  0  0  0  0
    5.7300   -3.6980   19.8030 C   0  0  0  0  0  0  0  0  0  0  0  0
    6.0610   -3.9060   21.5140 S   0  0  0  0  0  0  0  0  0  0  0  0
    4.7590   -4.0140   22.1200 O   0  0  0  0  0  0  0  0  0  0  0  0
    7.0430   -4.9570   21.7050 O   0  0  0  0  0  0  0  0  0  0  0  0
    6.7640   -2.3650   22.0680 C   0  0  0  0  0  0  0  0  0  0  0  0
    7.5160   -1.9030   23.1450 C   0  0  0  0  0  0  0  0  0  0  0  0
    7.2640   -3.0790   23.1920 C   0  0  0  0  0  0  0  0  0  0  0  0
    7.6470   -0.6100   22.8490 N   0  0  0  0  0  0  0  0  0  0  0  0
    8.0520   -2.3430   24.2290 C   0  0  0  0  0  0  0  0  0  0  0  0
    8.2930   -0.8850   24.0600 C   0  0  0  0  0  0  0  0  0  0  0  0
    8.5110   -3.1290   25.3250 C   0  0  0  0  0  0  0  0  0  0  0  0
    9.0270    0.0830   24.9430 N   0  0  0  0  0  0  0  0  0  0  0  0
    7.7570   -4.4280   25.5130 C   0  0  0  0  0  0  0  0  0  0  0  0
    9.6480   -0.5080   26.1170 C   0  0  0  0  0  0  0  0  0  0  0  0
    8.2720   -5.0510   26.8310 C   0  0  0  0  0  0  0  0  0  0  0  0
    9.0860   -0.0270   27.2950 C   0  0  0  0  0  0  0  0  0  0  0  0
    9.1360   -5.9550   26.9270 C   0  0  0  0  0  0  0  0  0  0  0  0
    8.0280   -4.8960   28.4570 N   0  0  0  0  0  0  0  0  0  0  0  0
    8.6970   -5.5570   27.9690 N   0  0  0  0  0  0  0  0  0  0  0  0
    7.2480   -4.0900   28.2170 C   0  0  0  0  0  0  0  0  0  0  0  0
    7.7110   -4.5380   27.2320 C   0  0  0  0  0  0  0  0  0  0  0  0
    6.3670   -3.2050   28.6500 C   0  0  0  0  0  0  0  0  0  0  0  0
    7.4670   -4.2590   25.8860 C   0  0  0  0  0  0  0  0  0  0  0  0
    5.8980   -2.6960   27.4770 C   0  0  0  0  0  0  0  0  0  0  0  0
    6.4520   -3.2350   26.2510 C   0  0  0  0  0  0  0  0  0  0  0  0
  1  2  1  0
  3  2  1  0
  3  4  2  0
  3  5  2  0
  3  6  1  0
  6  7  2  0
  6  8  1  0
  7  9  1  0
  8 10  2  0
  9 11  2  0
 10 11  1  0
 10 12  1  0
 11 13  1  0
 12 14  1  0
 13 15  1  0
 14 16  1  0
 15 17  1  0
 16 18  2  0
 16 19  1  0
 18 20  1  0
 19 21  2  0
 20 22  2  0
 21 22  1  0
 21 23  1  0
 22 24  1  0
 23 25  2  0
 24 26  2  0
 25 26  1  0
M  END
