GAB-REV-70cc3ca5-3
     RDKit          3D

 23 24  0  0  0  0  0  0  0  0999 V2000
    5.3410   -0.1230   22.5500 C   0  0  0  0  0  0  0  0  0  0  0  0
    5.6150   -0.0840   21.0510 C   0  0  0  0  0  0  0  0  0  0  0  0
    4.5350    0.4650   20.0570 C   0  0  0  0  0  0  0  0  0  0  0  0
    6.8230   -0.5260   20.4760 C   0  0  0  0  0  0  0  0  0  0  0  0
    4.8940    0.4710   18.5410 C   0  0  0  0  0  0  0  0  0  0  0  0
    6.9530   -0.4300   18.9470 C   0  0  0  0  0  0  0  0  0  0  0  0
    7.8390   -1.0230   21.3170 N   0  0  0  0  0  0  0  0  0  0  0  0
    6.0500    0.0390   18.0330 N   0  0  0  0  0  0  0  0  0  0  0  0
    8.9270   -0.3060   21.7800 C   0  0  0  0  0  0  0  0  0  0  0  0
    9.0360    0.9190   21.7110 O   0  0  0  0  0  0  0  0  0  0  0  0
    9.9490   -1.0610   22.3480 C   0  0  0  0  0  0  0  0  0  0  0  0
   10.9980   -0.2160   22.7230 C   0  0  0  0  0  0  0  0  0  0  0  0
   11.4750   -0.6080   24.0260 N   0  0  0  0  0  0  0  0  0  0  0  0
   12.4610   -1.5500   24.0560 C   0  0  0  0  0  0  0  0  0  0  0  0
   12.7220   -2.2550   22.8300 C   0  0  0  0  0  0  0  0  0  0  0  0
   13.1540   -1.7790   25.2240 C   0  0  0  0  0  0  0  0  0  0  0  0
   13.8190   -3.2270   23.0300 C   0  0  0  0  0  0  0  0  0  0  0  0
   14.1500   -2.6960   25.3810 C   0  0  0  0  0  0  0  0  0  0  0  0
   14.5970   -3.4920   24.3800 C   0  0  0  0  0  0  0  0  0  0  0  0
   16.0210   -4.7140   24.6480 S   0  0  0  0  0  0  0  0  0  0  0  0
   17.4860   -3.9150   24.8070 N   0  0  0  0  0  0  0  0  0  0  0  0
   15.9330   -5.2990   25.8910 O   0  0  0  0  0  0  0  0  0  0  0  0
   16.2940   -5.5640   23.5410 O   0  0  0  0  0  0  0  0  0  0  0  0
  1  2  1  0
  2  3  2  0
  2  4  1  0
  3  5  1  0
  4  6  2  0
  4  7  1  0
  5  8  2  0
  6  8  1  0
  7  9  1  0
  9 10  2  0
  9 11  1  0
 11 12  1  0
 12 13  1  0
 13 14  1  0
 14 15  2  0
 14 16  1  0
 15 17  1  0
 16 18  2  0
 17 19  2  0
 18 19  1  0
 19 20  1  0
 20 21  1  0
 20 22  2  0
 20 23  2  0
M  END
