GAB-REV-70cc3ca5-1
     RDKit          3D

 24 26  0  0  0  0  0  0  0  0999 V2000
    5.4570    0.7410   22.2160 C   0  0  0  0  0  0  0  0  0  0  0  0
    5.7830    0.5830   20.7410 C   0  0  0  0  0  0  0  0  0  0  0  0
    4.8430    1.2230   19.6670 C   0  0  0  0  0  0  0  0  0  0  0  0
    6.9050   -0.1190   20.2600 C   0  0  0  0  0  0  0  0  0  0  0  0
    5.2290    1.0260   18.1800 C   0  0  0  0  0  0  0  0  0  0  0  0
    7.0810   -0.1900   18.7460 C   0  0  0  0  0  0  0  0  0  0  0  0
    7.7990   -0.7150   21.1750 N   0  0  0  0  0  0  0  0  0  0  0  0
    6.2980    0.3490   17.7720 N   0  0  0  0  0  0  0  0  0  0  0  0
    8.8240   -0.0960   21.8730 C   0  0  0  0  0  0  0  0  0  0  0  0
    9.3590    0.9900   21.6100 O   0  0  0  0  0  0  0  0  0  0  0  0
    9.2390   -0.8200   22.9880 C   0  0  0  0  0  0  0  0  0  0  0  0
    8.5320   -1.9950   23.2230 N   0  0  0  0  0  0  0  0  0  0  0  0
    8.9620   -3.2730   22.8720 C   0  0  0  0  0  0  0  0  0  0  0  0
    7.2510   -1.8790   23.7170 C   0  0  0  0  0  0  0  0  0  0  0  0
    6.9070   -0.5860   24.4160 C   0  0  0  0  0  0  0  0  0  0  0  0
    6.2330   -2.8750   23.6200 C   0  0  0  0  0  0  0  0  0  0  0  0
    5.4900   -0.4610   24.9550 C   0  0  0  0  0  0  0  0  0  0  0  0
    4.9320   -2.7320   24.1300 C   0  0  0  0  0  0  0  0  0  0  0  0
    4.4840   -1.5940   24.7920 C   0  0  0  0  0  0  0  0  0  0  0  0
    4.1660   -3.8550   23.8950 C   0  0  0  0  0  0  0  0  0  0  0  0
    4.5160   -4.8900   23.1100 C   0  0  0  0  0  0  0  0  0  0  0  0
    2.8880   -4.0020   24.5030 N   0  0  0  0  0  0  0  0  0  0  0  0
    3.4420   -5.7850   23.1810 C   0  0  0  0  0  0  0  0  0  0  0  0
    2.3830   -5.2190   24.0790 N   0  0  0  0  0  0  0  0  0  0  0  0
  1  2  1  0
  2  3  2  0
  2  4  1  0
  3  5  1  0
  4  6  2  0
  4  7  1  0
  5  8  2  0
  6  8  1  0
  7  9  1  0
  9 10  2  0
  9 11  1  0
 11 12  1  0
 12 13  1  0
 12 14  1  0
 14 15  2  0
 14 16  1  0
 15 17  1  0
 16 18  2  0
 17 19  2  0
 18 19  1  0
 18 20  1  0
 20 21  2  0
 20 22  1  0
 21 23  1  0
 22 24  1  0
 23 24  2  0
M  END
