GAB-REV-df64cf17-19-acrylamide
     RDKit          3D

 24 26  0  0  0  0  0  0  0  0999 V2000
    7.1550   -3.3570   19.5680 C   0  0  0  0  0  0  0  0  0  0  0  0
    5.8800   -2.8860   20.2320 C   0  0  0  0  0  0  0  0  0  0  0  0
    5.8200   -3.4060   21.6510 C   0  0  0  0  0  0  0  0  0  0  0  0
    4.8720   -4.1100   22.0090 O   0  0  0  0  0  0  0  0  0  0  0  0
    6.9550   -3.0640   22.6030 C   0  0  0  0  0  0  0  0  0  0  0  0
    7.0320   -1.7260   22.4920 C   0  0  0  0  0  0  0  0  0  0  0  0
    7.5280   -1.8680   22.9470 C   0  0  0  0  0  0  0  0  0  0  0  0
    8.1460   -1.2910   23.4090 N   0  0  0  0  0  0  0  0  0  0  0  0
    7.5200   -0.3860   22.7480 C   0  0  0  0  0  0  0  0  0  0  0  0
    8.4750    0.0290   23.5190 C   0  0  0  0  0  0  0  0  0  0  0  0
    6.5260    0.3500   21.7920 C   0  0  0  0  0  0  0  0  0  0  0  0
    8.3390    1.5060   23.2010 N   0  0  0  0  0  0  0  0  0  0  0  0
    7.1890    0.3550   20.4220 C   0  0  0  0  0  0  0  0  0  0  0  0
    7.8510    2.3770   24.3290 C   0  0  0  0  0  0  0  0  0  0  0  0
    8.0760    0.3260   21.4190 C   0  0  0  0  0  0  0  0  0  0  0  0
    5.8360    0.4210   20.2220 C   0  0  0  0  0  0  0  0  0  0  0  0
    8.8700    3.4380   24.6970 C   0  0  0  0  0  0  0  0  0  0  0  0
    7.2420    0.4050   22.7080 C   0  0  0  0  0  0  0  0  0  0  0  0
    5.0970    0.4900   21.4150 C   0  0  0  0  0  0  0  0  0  0  0  0
    5.8030    0.4800   22.6280 C   0  0  0  0  0  0  0  0  0  0  0  0
    3.6730    0.5800   21.6210 C   0  0  0  0  0  0  0  0  0  0  0  0
    2.6950    0.8990   20.7250 O   0  0  0  0  0  0  0  0  0  0  0  0
    3.5640    0.2560   23.0590 N   0  0  0  0  0  0  0  0  0  0  0  0
    4.7460    0.5640   23.7150 C   0  0  0  0  0  0  0  0  0  0  0  0
  1  2  1  0
  2  3  1  0
  3  4  2  0
  3  5  1  0
  5  6  2  0
  5  7  1  0
  6  8  1  0
  7  9  2  0
  8 10  2  0
  9 10  1  0
  9 11  1  0
 10 12  1  0
 11 13  1  0
 12 14  1  0
 13 15  2  0
 13 16  1  0
 14 17  1  0
 15 18  1  0
 16 19  2  0
 18 20  2  0
 19 20  1  0
 19 21  1  0
 21 22  2  0
 21 23  1  0
 20 24  1  0
 23 24  1  0
M  END
