GAB-REV-df64cf17-4-chloroacetamide
     RDKit          3D

 24 26  0  0  0  0  0  0  0  0999 V2000
    8.5940   -3.9070   20.2790 C   0  0  0  0  0  0  0  0  0  0  0  0
    8.0900   -2.6320   20.1550 C   0  0  0  0  0  0  0  0  0  0  0  0
    7.1420   -2.6540   19.0780 O   0  0  0  0  0  0  0  0  0  0  0  0
    8.8130   -1.7660   21.3980 C   0  0  0  0  0  0  0  0  0  0  0  0
   10.3280   -1.4450   21.6800 C   0  0  0  0  0  0  0  0  0  0  0  0
    8.0180   -1.2760   22.4020 C   0  0  0  0  0  0  0  0  0  0  0  0
   10.7980   -0.7450   22.8320 N   0  0  0  0  0  0  0  0  0  0  0  0
    8.4510   -0.5850   23.5570 C   0  0  0  0  0  0  0  0  0  0  0  0
    9.7940   -0.3190   23.8080 C   0  0  0  0  0  0  0  0  0  0  0  0
    7.5020   -0.1810   24.4300 N   0  0  0  0  0  0  0  0  0  0  0  0
   10.0820    0.3860   25.0980 N   0  0  0  0  0  0  0  0  0  0  0  0
    7.1530    1.1070   24.5720 C   0  0  0  0  0  0  0  0  0  0  0  0
    6.4120   -1.1280   24.5720 C   0  0  0  0  0  0  0  0  0  0  0  0
    9.6440   -0.4130   26.2610 C   0  0  0  0  0  0  0  0  0  0  0  0
    6.7570   -2.4610   25.2330 C   0  0  0  0  0  0  0  0  0  0  0  0
    8.3630   -0.1640   26.7300 C   0  0  0  0  0  0  0  0  0  0  0  0
    5.9570   -3.1940   26.1490 C   0  0  0  0  0  0  0  0  0  0  0  0
    8.1290   -3.0910   24.8770 C   0  0  0  0  0  0  0  0  0  0  0  0
    6.3590   -4.5150   26.7790 C   0  0  0  0  0  0  0  0  0  0  0  0
    8.4730   -4.2890   25.4600 C   0  0  0  0  0  0  0  0  0  0  0  0
    7.5910   -5.0200   26.4230 C   0  0  0  0  0  0  0  0  0  0  0  0
    9.5760   -5.1290   25.3900 C   0  0  0  0  0  0  0  0  0  0  0  0
    8.2870   -6.2170   26.8110 N   0  0  0  0  0  0  0  0  0  0  0  0
    9.5120   -6.2780   26.1780 N   0  0  0  0  0  0  0  0  0  0  0  0
  1  2  1  0
  2  3  2  0
  2  4  1  0
  4  5  2  0
  4  6  1  0
  5  7  1  0
  6  8  2  0
  7  9  2  0
  8  9  1  0
  8 10  1  0
  9 11  1  0
 10 12  1  0
 10 13  1  0
 11 14  1  0
 13 15  1  0
 14 16  1  0
 15 17  2  0
 15 18  1  0
 17 19  1  0
 18 20  2  0
 19 21  2  0
 20 21  1  0
 20 22  1  0
 21 23  1  0
 22 24  2  0
 23 24  1  0
M  END
