GAB-REV-df64cf17-21-chloroacetamide
     RDKit          3D

 24 26  0  0  0  0  0  0  0  0999 V2000
    8.5160   -3.9110   20.2920 C   0  0  0  0  0  0  0  0  0  0  0  0
    8.0490   -2.6120   20.1420 C   0  0  0  0  0  0  0  0  0  0  0  0
    7.0850   -2.6580   19.0910 O   0  0  0  0  0  0  0  0  0  0  0  0
    8.8390   -1.7050   21.2960 C   0  0  0  0  0  0  0  0  0  0  0  0
    8.8310   -0.1500   21.3070 C   0  0  0  0  0  0  0  0  0  0  0  0
    9.5230   -2.4800   22.2960 C   0  0  0  0  0  0  0  0  0  0  0  0
    9.5710    0.1720   22.4780 N   0  0  0  0  0  0  0  0  0  0  0  0
   10.2170   -1.9760   23.3880 C   0  0  0  0  0  0  0  0  0  0  0  0
   10.2140   -0.6200   23.4740 C   0  0  0  0  0  0  0  0  0  0  0  0
   10.8800   -2.8080   24.3650 C   0  0  0  0  0  0  0  0  0  0  0  0
   10.8420    0.0530   24.6050 N   0  0  0  0  0  0  0  0  0  0  0  0
   10.1050   -3.7640   25.2440 C   0  0  0  0  0  0  0  0  0  0  0  0
    9.9850   -0.2710   25.7200 C   0  0  0  0  0  0  0  0  0  0  0  0
    8.6420   -3.9060   24.8170 C   0  0  0  0  0  0  0  0  0  0  0  0
    8.8400    0.5230   25.8510 C   0  0  0  0  0  0  0  0  0  0  0  0
    7.6550   -3.0090   25.2780 C   0  0  0  0  0  0  0  0  0  0  0  0
    8.1200   -4.8870   23.9770 N   0  0  0  0  0  0  0  0  0  0  0  0
    6.3020   -3.0140   24.9850 N   0  0  0  0  0  0  0  0  0  0  0  0
    6.8460   -4.9010   23.6890 C   0  0  0  0  0  0  0  0  0  0  0  0
    5.8880   -4.0020   24.1540 C   0  0  0  0  0  0  0  0  0  0  0  0
    6.5160   -5.9560   22.8250 C   0  0  0  0  0  0  0  0  0  0  0  0
    4.5600   -4.0900   23.7980 C   0  0  0  0  0  0  0  0  0  0  0  0
    5.1630   -6.0520   22.4550 C   0  0  0  0  0  0  0  0  0  0  0  0
    4.2210   -5.1280   22.9450 C   0  0  0  0  0  0  0  0  0  0  0  0
  1  2  1  0
  2  3  2  0
  2  4  1  0
  4  5  2  0
  4  6  1  0
  5  7  1  0
  6  8  2  0
  7  9  2  0
  8  9  1  0
  8 10  1  0
  9 11  1  0
 10 12  1  0
 11 13  1  0
 12 14  1  0
 13 15  1  0
 14 16  2  0
 14 17  1  0
 16 18  1  0
 17 19  2  0
 18 20  2  0
 19 20  1  0
 19 21  1  0
 20 22  1  0
 21 23  2  0
 22 24  2  0
 23 24  1  0
M  END
