GAB-REV-df64cf17-9-acrylamide
     RDKit          3D

 25 26  0  0  0  0  0  0  0  0999 V2000
    5.9760   -5.8770   21.2750 C   0  0  0  0  0  0  0  0  0  0  0  0
    6.3050   -4.8660   22.3360 C   0  0  0  0  0  0  0  0  0  0  0  0
    5.7430   -3.5450   21.8630 C   0  0  0  0  0  0  0  0  0  0  0  0
    4.5410   -3.3330   22.0110 O   0  0  0  0  0  0  0  0  0  0  0  0
    6.6350   -2.5150   21.1590 C   0  0  0  0  0  0  0  0  0  0  0  0
    7.3020   -2.3360   22.3270 C   0  0  0  0  0  0  0  0  0  0  0  0
    7.5970   -1.6300   21.0470 C   0  0  0  0  0  0  0  0  0  0  0  0
    8.1180   -1.3490   21.5870 N   0  0  0  0  0  0  0  0  0  0  0  0
    7.9080   -1.8810   22.5160 C   0  0  0  0  0  0  0  0  0  0  0  0
    8.9050   -1.0150   22.6070 C   0  0  0  0  0  0  0  0  0  0  0  0
    7.3290   -2.7900   23.5830 C   0  0  0  0  0  0  0  0  0  0  0  0
    9.2410   -1.2340   24.0520 N   0  0  0  0  0  0  0  0  0  0  0  0
    8.3900   -3.5680   24.0040 N   0  0  0  0  0  0  0  0  0  0  0  0
    9.5140   -0.0110   24.8760 C   0  0  0  0  0  0  0  0  0  0  0  0
    8.3220   -4.7310   25.2490 S   0  0  0  0  0  0  0  0  0  0  0  0
    9.2530   -0.3030   26.3440 C   0  0  0  0  0  0  0  0  0  0  0  0
    9.6360   -5.1950   25.6120 O   0  0  0  0  0  0  0  0  0  0  0  0
    7.2580   -5.6330   24.8630 O   0  0  0  0  0  0  0  0  0  0  0  0
    7.6950   -3.7580   26.5890 C   0  0  0  0  0  0  0  0  0  0  0  0
    7.1130   -3.1670   27.7490 C   0  0  0  0  0  0  0  0  0  0  0  0
    7.3370   -5.1160   26.8540 C   0  0  0  0  0  0  0  0  0  0  0  0
    6.3470   -3.7150   28.9090 C   0  0  0  0  0  0  0  0  0  0  0  0
    6.6270   -5.7300   27.9070 C   0  0  0  0  0  0  0  0  0  0  0  0
    6.1200   -5.0310   28.9480 C   0  0  0  0  0  0  0  0  0  0  0  0
    5.4430   -5.6220   29.9460 F   0  0  0  0  0  0  0  0  0  0  0  0
  1  2  1  0
  2  3  1  0
  3  4  2  0
  3  5  1  0
  5  6  2  0
  5  7  1  0
  6  8  1  0
  7  9  2  0
  8 10  2  0
  9 10  1  0
  9 11  1  0
 10 12  1  0
 11 13  1  0
 12 14  1  0
 15 13  1  0
 14 16  1  0
 15 17  2  0
 15 18  2  0
 15 19  1  0
 19 20  2  0
 19 21  1  0
 20 22  1  0
 21 23  2  0
 22 24  2  0
 23 24  1  0
 24 25  1  0
M  END
