GAB-REV-df64cf17-14-nitrile
     RDKit          3D

 26 28  0  0  0  0  0  0  0  0999 V2000
    8.0950   -3.4280   19.7810 C   0  0  0  0  0  0  0  0  0  0  0  0
    6.7860   -3.5940   19.6730 N   0  0  0  0  0  0  0  0  0  0  0  0
    8.9900   -2.7680   21.0350 C   0  0  0  0  0  0  0  0  0  0  0  0
   10.2590   -2.4490   21.6240 C   0  0  0  0  0  0  0  0  0  0  0  0
    9.7240   -2.1160   22.2790 C   0  0  0  0  0  0  0  0  0  0  0  0
    8.9010   -2.0530   22.3860 N   0  0  0  0  0  0  0  0  0  0  0  0
    9.4460   -1.5680   23.3450 C   0  0  0  0  0  0  0  0  0  0  0  0
    8.4870   -1.3490   23.7690 C   0  0  0  0  0  0  0  0  0  0  0  0
    8.4320   -1.8710   22.7090 O   0  0  0  0  0  0  0  0  0  0  0  0
    9.0480   -0.7280   25.0250 N   0  0  0  0  0  0  0  0  0  0  0  0
    7.4360   -0.8010   22.7370 C   0  0  0  0  0  0  0  0  0  0  0  0
    8.0640   -0.3130   26.0290 C   0  0  0  0  0  0  0  0  0  0  0  0
    7.8340    0.5160   22.3650 C   0  0  0  0  0  0  0  0  0  0  0  0
    5.9880   -0.6520   23.0410 C   0  0  0  0  0  0  0  0  0  0  0  0
    8.3880   -0.7980   27.2880 C   0  0  0  0  0  0  0  0  0  0  0  0
    9.0850    1.1660   21.8950 C   0  0  0  0  0  0  0  0  0  0  0  0
    6.7390    1.3330   22.4970 N   0  0  0  0  0  0  0  0  0  0  0  0
    5.6930    0.4750   22.2940 N   0  0  0  0  0  0  0  0  0  0  0  0
    5.1800   -1.4950   23.8960 O   0  0  0  0  0  0  0  0  0  0  0  0
    6.8640    2.2570   21.5620 C   0  0  0  0  0  0  0  0  0  0  0  0
    5.3450    0.4080   20.8910 C   0  0  0  0  0  0  0  0  0  0  0  0
    4.4170    1.4120   20.3100 C   0  0  0  0  0  0  0  0  0  0  0  0
    5.9180   -0.5940   20.1470 C   0  0  0  0  0  0  0  0  0  0  0  0
    4.1650    1.2890   18.9670 C   0  0  0  0  0  0  0  0  0  0  0  0
    5.6170   -0.6620   18.7830 C   0  0  0  0  0  0  0  0  0  0  0  0
    4.7470    0.2790   18.2090 C   0  0  0  0  0  0  0  0  0  0  0  0
  1  2  2  3
  1  3  1  0
  3  4  2  0
  3  5  1  0
  4  6  1  0
  5  7  2  0
  6  8  2  0
  7  8  1  0
  7  9  1  0
  8 10  1  0
  9 11  1  0
 10 12  1  0
 11 13  2  0
 11 14  1  0
 12 15  1  0
 13 16  1  0
 13 17  1  0
 14 18  1  0
 17 18  1  0
 14 19  2  0
 17 20  1  0
 18 21  1  0
 21 22  2  0
 21 23  1  0
 22 24  1  0
 23 25  2  0
 24 26  2  0
 25 26  1  0
M  END
