GAB-REV-4a4e2ff3-12
     RDKit          3D

 30 33  0  0  0  0  0  0  0  0999 V2000
    9.0680    6.5960   22.6370 C   0  0  0  0  0  0  0  0  0  0  0  0
   10.2960    6.1980   23.3510 C   0  0  0  0  0  0  0  0  0  0  0  0
   10.3100    6.2900   24.5800 O   0  0  0  0  0  0  0  0  0  0  0  0
   11.3420    5.7460   22.5280 N   0  0  0  0  0  0  0  0  0  0  0  0
   12.5200    5.0840   23.1230 C   0  0  0  0  0  0  0  0  0  0  0  0
   12.7100    3.6620   22.5800 C   0  0  0  0  0  0  0  0  0  0  0  0
   11.6960    2.6760   23.1740 C   0  0  0  0  0  0  0  0  0  0  0  0
   10.4400    2.8410   23.8650 C   0  0  0  0  0  0  0  0  0  0  0  0
   11.8990    1.2220   23.0910 C   0  0  0  0  0  0  0  0  0  0  0  0
    9.9170    1.6350   24.1740 N   0  0  0  0  0  0  0  0  0  0  0  0
   10.7890    0.5940   23.7030 C   0  0  0  0  0  0  0  0  0  0  0  0
   12.9370    0.2440   22.5400 C   0  0  0  0  0  0  0  0  0  0  0  0
   10.5140   -0.7950   23.8580 C   0  0  0  0  0  0  0  0  0  0  0  0
   12.6720   -1.2470   22.6650 C   0  0  0  0  0  0  0  0  0  0  0  0
    9.2780   -1.1520   24.5500 N   0  0  0  0  0  0  0  0  0  0  0  0
   11.4270   -1.7180   23.3450 C   0  0  0  0  0  0  0  0  0  0  0  0
   13.5150   -2.1440   22.1830 F   0  0  0  0  0  0  0  0  0  0  0  0
    7.8350   -0.3470   24.1580 S   0  0  0  0  0  0  0  0  0  0  0  0
    7.6840   -0.3030   22.7180 O   0  0  0  0  0  0  0  0  0  0  0  0
    7.8030    0.8550   24.9620 O   0  0  0  0  0  0  0  0  0  0  0  0
    6.5520   -1.3360   24.7170 C   0  0  0  0  0  0  0  0  0  0  0  0
    6.8390   -2.5820   25.2800 C   0  0  0  0  0  0  0  0  0  0  0  0
    5.7740   -3.5280   25.7450 C   0  0  0  0  0  0  0  0  0  0  0  0
    8.1910   -3.0020   25.4350 C   0  0  0  0  0  0  0  0  0  0  0  0
    6.1360   -4.8800   26.3570 C   0  0  0  0  0  0  0  0  0  0  0  0
    8.4950   -4.2430   25.9990 C   0  0  0  0  0  0  0  0  0  0  0  0
    7.6290   -5.1990   26.4640 C   0  0  0  0  0  0  0  0  0  0  0  0
    9.7210   -4.8520   26.2490 C   0  0  0  0  0  0  0  0  0  0  0  0
    8.3030   -6.2530   26.9310 N   0  0  0  0  0  0  0  0  0  0  0  0
    9.6410   -6.0780   26.8160 N   0  0  0  0  0  0  0  0  0  0  0  0
  1  2  1  0
  2  3  2  0
  2  4  1  0
  4  5  1  0
  5  6  1  0
  6  7  1  0
  7  8  2  0
  7  9  1  0
  8 10  1  0
  9 11  2  0
 10 11  1  0
  9 12  1  0
 11 13  1  0
 12 14  2  0
 13 15  1  0
 13 16  2  0
 14 16  1  0
 14 17  1  0
 18 15  1  0
 18 19  2  0
 18 20  2  0
 18 21  1  0
 21 22  1  0
 22 23  2  0
 22 24  1  0
 23 25  1  0
 24 26  2  0
 25 27  2  0
 26 27  1  0
 26 28  1  0
 27 29  1  0
 28 30  2  0
 29 30  1  0
M  END
