GAB-REV-df64cf17-1-vinylsulfonamide
     RDKit          3D

 25 26  0  0  0  0  0  0  0  0999 V2000
    7.9350   -3.3210   19.4140 C   0  0  0  0  0  0  0  0  0  0  0  0
    6.7920   -2.3610   19.4210 C   0  0  0  0  0  0  0  0  0  0  0  0
    6.2120   -2.2360   21.0780 S   0  0  0  0  0  0  0  0  0  0  0  0
    5.1840   -3.4760   21.1760 O   0  0  0  0  0  0  0  0  0  0  0  0
    5.5090   -0.9760   21.0660 O   0  0  0  0  0  0  0  0  0  0  0  0
    7.8120   -1.7000   22.1630 C   0  0  0  0  0  0  0  0  0  0  0  0
    8.8940   -2.0370   21.4730 C   0  0  0  0  0  0  0  0  0  0  0  0
    9.4170   -1.6920   22.1520 C   0  0  0  0  0  0  0  0  0  0  0  0
    8.7580   -1.3100   22.8490 N   0  0  0  0  0  0  0  0  0  0  0  0
   10.4850   -1.2240   23.0210 C   0  0  0  0  0  0  0  0  0  0  0  0
    9.7050   -0.7890   23.8180 C   0  0  0  0  0  0  0  0  0  0  0  0
   11.8930   -1.3010   22.8800 C   0  0  0  0  0  0  0  0  0  0  0  0
    9.6550   -0.0710   25.1440 N   0  0  0  0  0  0  0  0  0  0  0  0
   12.6340   -1.2350   24.1570 C   0  0  0  0  0  0  0  0  0  0  0  0
    8.2840   -0.0730   25.6360 C   0  0  0  0  0  0  0  0  0  0  0  0
   12.2610   -2.4860   24.9610 C   0  0  0  0  0  0  0  0  0  0  0  0
    8.0660    0.9450   26.5540 C   0  0  0  0  0  0  0  0  0  0  0  0
   13.5400   -2.5710   25.1890 C   0  0  0  0  0  0  0  0  0  0  0  0
   10.9190   -2.1300   24.5350 C   0  0  0  0  0  0  0  0  0  0  0  0
   13.3760   -3.7270   25.9960 C   0  0  0  0  0  0  0  0  0  0  0  0
   10.8070   -3.3280   25.3650 C   0  0  0  0  0  0  0  0  0  0  0  0
   11.9570   -3.9960   25.9970 C   0  0  0  0  0  0  0  0  0  0  0  0
    9.5550   -3.9070   25.6070 C   0  0  0  0  0  0  0  0  0  0  0  0
    9.6950   -4.9590   26.4740 N   0  0  0  0  0  0  0  0  0  0  0  0
    8.5250   -3.4970   25.0980 O   0  0  0  0  0  0  0  0  0  0  0  0
  1  2  1  0
  3  2  1  0
  3  4  2  0
  3  5  2  0
  3  6  1  0
  6  7  2  0
  6  8  1  0
  7  9  1  0
  8 10  2  0
  9 11  2  0
 10 11  1  0
 10 12  1  0
 11 13  1  0
 12 14  1  0
 13 15  1  0
 14 16  1  0
 15 17  1  0
 16 18  2  0
 16 19  1  0
 18 20  1  0
 19 21  2  0
 20 22  2  0
 21 22  1  0
 21 23  1  0
 23 24  1  0
 23 25  2  0
M  END
