GAB-REV-df64cf17-16-chloroacetamide
     RDKit          3D

 25 27  0  0  0  0  0  0  0  0999 V2000
    9.0030   -3.7830   20.0690 C   0  0  0  0  0  0  0  0  0  0  0  0
    8.0780   -2.7690   20.1120 C   0  0  0  0  0  0  0  0  0  0  0  0
    7.0200   -2.8920   19.1840 O   0  0  0  0  0  0  0  0  0  0  0  0
    8.6990   -1.9480   21.4440 C   0  0  0  0  0  0  0  0  0  0  0  0
    9.8490   -0.9230   21.5770 C   0  0  0  0  0  0  0  0  0  0  0  0
    8.1840   -2.2220   22.7050 C   0  0  0  0  0  0  0  0  0  0  0  0
   10.3160   -0.3130   22.7680 N   0  0  0  0  0  0  0  0  0  0  0  0
    8.6180   -1.6420   23.9260 C   0  0  0  0  0  0  0  0  0  0  0  0
    9.6560   -0.6880   24.0070 C   0  0  0  0  0  0  0  0  0  0  0  0
    7.9360   -2.0930   25.0010 N   0  0  0  0  0  0  0  0  0  0  0  0
   10.0160   -0.1090   25.3490 N   0  0  0  0  0  0  0  0  0  0  0  0
    8.3450   -3.1220   25.7390 C   0  0  0  0  0  0  0  0  0  0  0  0
    6.5110   -2.1550   24.7880 C   0  0  0  0  0  0  0  0  0  0  0  0
    8.8320    0.0110   26.2030 C   0  0  0  0  0  0  0  0  0  0  0  0
    6.0530   -3.4010   24.5850 N   0  0  0  0  0  0  0  0  0  0  0  0
    5.2390   -0.8040   24.7670 S   0  0  0  0  0  0  0  0  0  0  0  0
    9.0910   -0.1950   27.5530 C   0  0  0  0  0  0  0  0  0  0  0  0
    4.7680   -3.3360   24.4200 C   0  0  0  0  0  0  0  0  0  0  0  0
    4.0910   -2.1210   24.4690 C   0  0  0  0  0  0  0  0  0  0  0  0
    4.0670   -4.5110   24.1930 C   0  0  0  0  0  0  0  0  0  0  0  0
    2.5840   -4.7020   24.2650 C   0  0  0  0  0  0  0  0  0  0  0  0
    4.9330   -5.5290   23.8820 C   0  0  0  0  0  0  0  0  0  0  0  0
    2.1550   -5.9960   23.9860 C   0  0  0  0  0  0  0  0  0  0  0  0
    4.4250   -6.7920   23.6200 C   0  0  0  0  0  0  0  0  0  0  0  0
    3.0460   -7.0250   23.6700 C   0  0  0  0  0  0  0  0  0  0  0  0
  1  2  1  0
  2  3  2  0
  2  4  1  0
  4  5  2  0
  4  6  1  0
  5  7  1  0
  6  8  2  0
  7  9  2  0
  8  9  1  0
  8 10  1  0
  9 11  1  0
 10 12  1  0
 10 13  1  0
 11 14  1  0
 13 15  2  0
 13 16  1  0
 14 17  1  0
 15 18  1  0
 16 19  1  0
 18 19  2  0
 18 20  1  0
 20 21  2  0
 20 22  1  0
 21 23  1  0
 22 24  2  0
 23 25  2  0
 24 25  1  0
M  END
