GAB-REV-df64cf17-3-acrylamide
     RDKit          3D

 24 26  0  0  0  0  0  0  0  0999 V2000
    7.2090   -3.2710   19.4770 C   0  0  0  0  0  0  0  0  0  0  0  0
    5.8940   -2.7090   19.9770 C   0  0  0  0  0  0  0  0  0  0  0  0
    5.7410   -2.9990   21.4550 C   0  0  0  0  0  0  0  0  0  0  0  0
    4.6810   -3.4110   21.9120 O   0  0  0  0  0  0  0  0  0  0  0  0
    6.9290   -2.8010   22.3740 C   0  0  0  0  0  0  0  0  0  0  0  0
    6.6840   -1.4480   22.1220 C   0  0  0  0  0  0  0  0  0  0  0  0
    7.8260   -1.9470   23.0390 C   0  0  0  0  0  0  0  0  0  0  0  0
    7.7320   -1.5940   22.9500 N   0  0  0  0  0  0  0  0  0  0  0  0
    8.9080   -2.1640   23.8980 C   0  0  0  0  0  0  0  0  0  0  0  0
    8.5950   -0.8150   23.5980 C   0  0  0  0  0  0  0  0  0  0  0  0
    8.7220   -3.3880   23.7990 O   0  0  0  0  0  0  0  0  0  0  0  0
    9.7370   -0.4310   24.4840 N   0  0  0  0  0  0  0  0  0  0  0  0
    8.2100   -4.0570   24.9670 C   0  0  0  0  0  0  0  0  0  0  0  0
    9.3870   -0.5610   25.9340 C   0  0  0  0  0  0  0  0  0  0  0  0
    7.0420   -4.9530   24.5000 C   0  0  0  0  0  0  0  0  0  0  0  0
    8.0970    0.1610   26.2460 C   0  0  0  0  0  0  0  0  0  0  0  0
    7.0820   -5.6820   23.1900 C   0  0  0  0  0  0  0  0  0  0  0  0
    5.7850   -4.9980   25.6090 C   0  0  0  0  0  0  0  0  0  0  0  0
    5.8860   -6.5000   22.8820 C   0  0  0  0  0  0  0  0  0  0  0  0
    5.2650   -5.8150   24.6690 C   0  0  0  0  0  0  0  0  0  0  0  0
    6.3080   -5.7140   23.8590 C   0  0  0  0  0  0  0  0  0  0  0  0
    4.1320   -6.4530   24.6220 C   0  0  0  0  0  0  0  0  0  0  0  0
    5.8650   -5.1890   25.2000 N   0  0  0  0  0  0  0  0  0  0  0  0
    4.5570   -5.6280   25.6690 N   0  0  0  0  0  0  0  0  0  0  0  0
  1  2  1  0
  2  3  1  0
  3  4  2  0
  3  5  1  0
  5  6  2  0
  5  7  1  0
  6  8  1  0
  7  9  2  0
  8 10  2  0
  9 10  1  0
  9 11  1  0
 10 12  1  0
 11 13  1  0
 12 14  1  0
 13 15  1  0
 14 16  1  0
 15 17  2  0
 15 18  1  0
 17 19  1  0
 18 20  2  0
 19 21  2  0
 20 21  1  0
 20 22  1  0
 21 23  1  0
 22 24  2  0
 23 24  1  0
M  END
