GAB-REV-df64cf17-19-chloroacetamide
     RDKit          3D

 23 25  0  0  0  0  0  0  0  0999 V2000
    8.1020   -3.0000   18.6920 C   0  0  0  0  0  0  0  0  0  0  0  0
    7.9790   -3.1560   20.1260 C   0  0  0  0  0  0  0  0  0  0  0  0
    6.9100   -4.0400   19.9560 O   0  0  0  0  0  0  0  0  0  0  0  0
    8.8210   -2.3470   21.3930 C   0  0  0  0  0  0  0  0  0  0  0  0
   10.3240   -1.8690   21.6180 C   0  0  0  0  0  0  0  0  0  0  0  0
    8.0780   -1.9770   22.4960 C   0  0  0  0  0  0  0  0  0  0  0  0
   10.8060   -1.1500   22.7550 N   0  0  0  0  0  0  0  0  0  0  0  0
    8.5380   -1.2710   23.6340 C   0  0  0  0  0  0  0  0  0  0  0  0
    9.8520   -0.8280   23.8160 C   0  0  0  0  0  0  0  0  0  0  0  0
    7.5100   -1.0470   24.5930 C   0  0  0  0  0  0  0  0  0  0  0  0
   10.2080   -0.0570   25.0730 N   0  0  0  0  0  0  0  0  0  0  0  0
    7.4350   -2.0970   25.6570 C   0  0  0  0  0  0  0  0  0  0  0  0
    9.5640   -0.5260   26.3130 C   0  0  0  0  0  0  0  0  0  0  0  0
    6.6490   -1.9430   26.9590 C   0  0  0  0  0  0  0  0  0  0  0  0
    8.1470   -3.2330   25.3690 C   0  0  0  0  0  0  0  0  0  0  0  0
    8.3740    0.1030   26.6240 C   0  0  0  0  0  0  0  0  0  0  0  0
    6.6580   -2.9860   27.8830 C   0  0  0  0  0  0  0  0  0  0  0  0
    8.1020   -4.2190   26.3370 C   0  0  0  0  0  0  0  0  0  0  0  0
    7.4490   -4.2210   27.5380 C   0  0  0  0  0  0  0  0  0  0  0  0
    8.8240   -5.5480   26.2060 C   0  0  0  0  0  0  0  0  0  0  0  0
    9.7130   -5.8140   25.4160 O   0  0  0  0  0  0  0  0  0  0  0  0
    8.2390   -6.3350   27.1670 N   0  0  0  0  0  0  0  0  0  0  0  0
    7.7400   -5.5360   28.1850 C   0  0  0  0  0  0  0  0  0  0  0  0
  1  2  1  0
  2  3  2  0
  2  4  1  0
  4  5  2  0
  4  6  1  0
  5  7  1  0
  6  8  2  0
  7  9  2  0
  8  9  1  0
  8 10  1  0
  9 11  1  0
 10 12  1  0
 11 13  1  0
 12 14  2  0
 12 15  1  0
 13 16  1  0
 14 17  1  0
 15 18  2  0
 17 19  2  0
 18 19  1  0
 18 20  1  0
 20 21  2  0
 20 22  1  0
 19 23  1  0
 22 23  1  0
M  END
