GAB-REV-70cc3ca5-15
     RDKit          3D

 24 26  0  0  0  0  0  0  0  0999 V2000
   17.1420    0.7710   15.3030 C   0  0  0  0  0  0  0  0  0  0  0  0
   17.5310    1.0120   16.5860 O   0  0  0  0  0  0  0  0  0  0  0  0
   16.6860    0.5040   17.4350 C   0  0  0  0  0  0  0  0  0  0  0  0
   16.4890   -0.9610   17.5800 C   0  0  0  0  0  0  0  0  0  0  0  0
   15.9390    1.3430   18.2420 C   0  0  0  0  0  0  0  0  0  0  0  0
   15.4880   -1.3580   18.6220 C   0  0  0  0  0  0  0  0  0  0  0  0
   15.0320    0.9090   19.1950 C   0  0  0  0  0  0  0  0  0  0  0  0
   14.6980   -0.4390   19.4970 C   0  0  0  0  0  0  0  0  0  0  0  0
   13.6990   -0.7830   20.6340 C   0  0  0  0  0  0  0  0  0  0  0  0
   13.6170   -0.2100   21.9470 C   0  0  0  0  0  0  0  0  0  0  0  0
   12.5700   -1.7700   20.5250 N   0  0  0  0  0  0  0  0  0  0  0  0
   12.3430   -0.7280   22.9640 S   0  0  0  0  0  0  0  0  0  0  0  0
   11.7800   -1.7370   21.7060 C   0  0  0  0  0  0  0  0  0  0  0  0
   10.5770   -2.4340   21.8560 C   0  0  0  0  0  0  0  0  0  0  0  0
    9.4490   -1.5470   22.1130 C   0  0  0  0  0  0  0  0  0  0  0  0
    9.5840   -0.5130   22.7640 O   0  0  0  0  0  0  0  0  0  0  0  0
    8.1700   -1.8370   21.6380 N   0  0  0  0  0  0  0  0  0  0  0  0
    7.1660   -1.0880   20.9340 C   0  0  0  0  0  0  0  0  0  0  0  0
    7.2970   -0.8760   19.4330 C   0  0  0  0  0  0  0  0  0  0  0  0
    6.0400   -0.5290   21.5210 C   0  0  0  0  0  0  0  0  0  0  0  0
    6.3850   -0.1820   18.6790 N   0  0  0  0  0  0  0  0  0  0  0  0
    5.1320    0.1720   20.7220 C   0  0  0  0  0  0  0  0  0  0  0  0
    5.7650   -0.6350   22.8860 C   0  0  0  0  0  0  0  0  0  0  0  0
    5.3350    0.3180   19.3510 C   0  0  0  0  0  0  0  0  0  0  0  0
  1  2  1  0
  2  3  1  0
  3  4  2  0
  3  5  1  0
  4  6  1  0
  5  7  2  0
  6  8  2  0
  7  8  1  0
  8  9  1  0
  9 10  2  0
  9 11  1  0
 10 12  1  0
 11 13  2  0
 12 13  1  0
 13 14  1  0
 14 15  1  0
 15 16  2  0
 15 17  1  0
 17 18  1  0
 18 19  2  0
 18 20  1  0
 19 21  1  0
 20 22  2  0
 20 23  1  0
 21 24  2  0
 22 24  1  0
M  END
