GAB-REV-df64cf17-12-nitrile
     RDKit          3D

 22 24  0  0  0  0  0  0  0  0999 V2000
    8.4030   -3.4580   19.7990 C   0  0  0  0  0  0  0  0  0  0  0  0
    7.0840   -3.4550   19.6400 N   0  0  0  0  0  0  0  0  0  0  0  0
    9.1300   -2.5970   21.1520 C   0  0  0  0  0  0  0  0  0  0  0  0
   10.6730   -2.1470   21.5220 C   0  0  0  0  0  0  0  0  0  0  0  0
    8.3070   -2.1540   22.1730 C   0  0  0  0  0  0  0  0  0  0  0  0
   11.0780   -1.4350   22.6350 N   0  0  0  0  0  0  0  0  0  0  0  0
    8.7290   -1.4300   23.3180 C   0  0  0  0  0  0  0  0  0  0  0  0
   10.0560   -1.0850   23.5230 C   0  0  0  0  0  0  0  0  0  0  0  0
    7.8880   -1.0900   24.1520 O   0  0  0  0  0  0  0  0  0  0  0  0
   10.3380   -0.2830   24.7930 N   0  0  0  0  0  0  0  0  0  0  0  0
    6.7230   -1.9330   24.1900 C   0  0  0  0  0  0  0  0  0  0  0  0
    9.3460   -0.4600   25.8660 C   0  0  0  0  0  0  0  0  0  0  0  0
    6.4450   -2.3450   25.5340 C   0  0  0  0  0  0  0  0  0  0  0  0
    8.4300    0.5640   25.9910 C   0  0  0  0  0  0  0  0  0  0  0  0
    6.1250   -3.5690   24.6600 C   0  0  0  0  0  0  0  0  0  0  0  0
    6.1120   -2.9480   26.7980 C   0  0  0  0  0  0  0  0  0  0  0  0
    5.6210   -4.9520   25.0190 C   0  0  0  0  0  0  0  0  0  0  0  0
    5.6430   -4.2310   27.1780 C   0  0  0  0  0  0  0  0  0  0  0  0
    5.3990   -5.2240   26.2990 C   0  0  0  0  0  0  0  0  0  0  0  0
    5.3290   -4.7920   28.4410 C   0  0  0  0  0  0  0  0  0  0  0  0
    4.9410   -6.3690   27.0160 N   0  0  0  0  0  0  0  0  0  0  0  0
    4.8890   -6.1320   28.3550 C   0  0  0  0  0  0  0  0  0  0  0  0
  1  2  2  3
  1  3  1  0
  3  4  2  0
  3  5  1  0
  4  6  1  0
  5  7  2  0
  6  8  2  0
  7  8  1  0
  7  9  1  0
  8 10  1  0
  9 11  1  0
 10 12  1  0
 11 13  1  0
 12 14  1  0
 13 15  2  0
 13 16  1  0
 15 17  1  0
 16 18  2  0
 17 19  2  0
 18 19  1  0
 18 20  1  0
 19 21  1  0
 20 22  2  0
 21 22  1  0
M  END
