GAB-REV-df64cf17-10-acrylamide
     RDKit          3D

 27 29  0  0  0  0  0  0  0  0999 V2000
    8.2280   -4.2240   19.8930 C   0  0  0  0  0  0  0  0  0  0  0  0
    7.4320   -3.0000   19.6790 C   0  0  0  0  0  0  0  0  0  0  0  0
    6.6640   -2.8990   20.9680 C   0  0  0  0  0  0  0  0  0  0  0  0
    5.2080   -3.4350   21.0270 O   0  0  0  0  0  0  0  0  0  0  0  0
    7.7320   -2.2120   22.0580 C   0  0  0  0  0  0  0  0  0  0  0  0
    8.4820   -0.9450   21.9500 C   0  0  0  0  0  0  0  0  0  0  0  0
    8.0620   -2.8960   23.4000 C   0  0  0  0  0  0  0  0  0  0  0  0
    9.3210   -0.3800   22.9220 N   0  0  0  0  0  0  0  0  0  0  0  0
    8.8810   -2.3220   24.3390 C   0  0  0  0  0  0  0  0  0  0  0  0
    9.4710   -1.0600   24.0940 C   0  0  0  0  0  0  0  0  0  0  0  0
    8.9960   -3.0710   25.4350 N   0  0  0  0  0  0  0  0  0  0  0  0
   10.2370   -0.5210   25.2600 N   0  0  0  0  0  0  0  0  0  0  0  0
    9.3090   -4.4660   25.1800 C   0  0  0  0  0  0  0  0  0  0  0  0
    7.9160   -3.0370   26.2630 C   0  0  0  0  0  0  0  0  0  0  0  0
    9.1860    0.1280   26.1350 C   0  0  0  0  0  0  0  0  0  0  0  0
    7.0820   -1.9330   26.2470 C   0  0  0  0  0  0  0  0  0  0  0  0
    7.3840   -3.8860   27.1980 C   0  0  0  0  0  0  0  0  0  0  0  0
    8.9440   -0.5290   27.4760 C   0  0  0  0  0  0  0  0  0  0  0  0
    5.9850   -2.0690   27.1980 N   0  0  0  0  0  0  0  0  0  0  0  0
    6.2380   -3.3810   27.7960 C   0  0  0  0  0  0  0  0  0  0  0  0
    7.9970   -5.2260   27.5260 C   0  0  0  0  0  0  0  0  0  0  0  0
    5.0220   -1.1060   27.3710 C   0  0  0  0  0  0  0  0  0  0  0  0
    5.5760   -4.1290   28.7710 C   0  0  0  0  0  0  0  0  0  0  0  0
    7.2010   -5.9770   28.6010 C   0  0  0  0  0  0  0  0  0  0  0  0
    4.9120   -0.1900   26.3290 C   0  0  0  0  0  0  0  0  0  0  0  0
    4.3170   -1.0820   28.3820 O   0  0  0  0  0  0  0  0  0  0  0  0
    6.0340   -5.3870   29.1670 C   0  0  0  0  0  0  0  0  0  0  0  0
  1  2  1  0
  2  3  1  0
  3  4  2  0
  3  5  1  0
  5  6  2  0
  5  7  1  0
  6  8  1  0
  7  9  2  0
  8 10  2  0
  9 10  1  0
  9 11  1  0
 10 12  1  0
 11 13  1  0
 11 14  1  0
 12 15  1  0
 14 16  2  0
 14 17  1  0
 15 18  1  0
 16 19  1  0
 17 20  2  0
 19 20  1  0
 17 21  1  0
 19 22  1  0
 20 23  1  0
 21 24  2  0
 22 25  1  0
 22 26  2  0
 23 27  2  0
 24 27  1  0
M  END
