GAB-REV-4a4e2ff3-11
     RDKit          3D

 27 30  0  0  0  0  0  0  0  0999 V2000
    8.9980    6.5970   22.6020 C   0  0  0  0  0  0  0  0  0  0  0  0
   10.2210    6.2420   23.3480 C   0  0  0  0  0  0  0  0  0  0  0  0
   10.2210    6.4000   24.5710 O   0  0  0  0  0  0  0  0  0  0  0  0
   11.2800    5.7530   22.5720 N   0  0  0  0  0  0  0  0  0  0  0  0
   12.3900    5.0550   23.2440 C   0  0  0  0  0  0  0  0  0  0  0  0
   12.6410    3.6670   22.6560 C   0  0  0  0  0  0  0  0  0  0  0  0
   11.7080    2.5750   23.2150 C   0  0  0  0  0  0  0  0  0  0  0  0
   10.4600    2.6970   23.9470 C   0  0  0  0  0  0  0  0  0  0  0  0
   11.8830    1.1190   23.1060 C   0  0  0  0  0  0  0  0  0  0  0  0
    9.9390    1.4790   24.2390 N   0  0  0  0  0  0  0  0  0  0  0  0
   10.7990    0.4510   23.7210 C   0  0  0  0  0  0  0  0  0  0  0  0
   12.9150    0.1980   22.5010 C   0  0  0  0  0  0  0  0  0  0  0  0
   10.5310   -0.9570   23.8420 C   0  0  0  0  0  0  0  0  0  0  0  0
   12.7000   -1.3000   22.5650 C   0  0  0  0  0  0  0  0  0  0  0  0
    9.3220   -1.3830   24.5340 N   0  0  0  0  0  0  0  0  0  0  0  0
   11.4660   -1.8130   23.2650 C   0  0  0  0  0  0  0  0  0  0  0  0
   13.5530   -2.1340   22.0250 F   0  0  0  0  0  0  0  0  0  0  0  0
    9.0450   -2.6720   24.5010 C   0  0  0  0  0  0  0  0  0  0  0  0
    9.6470   -3.5770   25.3790 C   0  0  0  0  0  0  0  0  0  0  0  0
    8.1220   -3.1990   23.5700 C   0  0  0  0  0  0  0  0  0  0  0  0
    9.3240   -5.0240   25.3300 C   0  0  0  0  0  0  0  0  0  0  0  0
    7.7550   -4.5670   23.4510 C   0  0  0  0  0  0  0  0  0  0  0  0
    8.3180   -5.5780   24.3120 C   0  0  0  0  0  0  0  0  0  0  0  0
    6.8280   -5.0040   22.4940 C   0  0  0  0  0  0  0  0  0  0  0  0
    7.9710   -6.8960   24.2070 N   0  0  0  0  0  0  0  0  0  0  0  0
    6.4660   -6.3260   22.3680 C   0  0  0  0  0  0  0  0  0  0  0  0
    7.0890   -7.3410   23.2950 C   0  0  0  0  0  0  0  0  0  0  0  0
  1  2  1  0
  2  3  2  0
  2  4  1  0
  4  5  1  0
  5  6  1  0
  6  7  1  0
  7  8  2  0
  7  9  1  0
  8 10  1  0
  9 11  2  0
 10 11  1  0
  9 12  1  0
 11 13  1  0
 12 14  2  0
 13 15  1  0
 13 16  2  0
 14 16  1  0
 14 17  1  0
 15 18  1  0
 18 19  2  0
 18 20  1  0
 19 21  1  0
 20 22  2  0
 21 23  2  0
 22 23  1  0
 22 24  1  0
 23 25  1  0
 24 26  2  0
 25 27  2  0
 26 27  1  0
M  END
