GAB-REV-df64cf17-8-nitrile
     RDKit          3D

 24 26  0  0  0  0  0  0  0  0999 V2000
    8.1570   -3.3170   19.8290 C   0  0  0  0  0  0  0  0  0  0  0  0
    7.7880   -2.7380   18.7090 N   0  0  0  0  0  0  0  0  0  0  0  0
    8.8660   -2.4850   21.2110 C   0  0  0  0  0  0  0  0  0  0  0  0
   10.3840   -1.9090   21.5850 C   0  0  0  0  0  0  0  0  0  0  0  0
    8.0570   -2.1910   22.2730 C   0  0  0  0  0  0  0  0  0  0  0  0
   10.7560   -1.2220   22.7360 N   0  0  0  0  0  0  0  0  0  0  0  0
    8.4390   -1.5000   23.4510 C   0  0  0  0  0  0  0  0  0  0  0  0
    9.7310   -1.0190   23.6700 C   0  0  0  0  0  0  0  0  0  0  0  0
    7.5560   -1.3290   24.2820 O   0  0  0  0  0  0  0  0  0  0  0  0
    9.9430   -0.2440   24.9900 N   0  0  0  0  0  0  0  0  0  0  0  0
    6.4360   -2.2020   24.0600 C   0  0  0  0  0  0  0  0  0  0  0  0
    8.7410   -0.2790   25.8480 C   0  0  0  0  0  0  0  0  0  0  0  0
    6.1670   -3.3550   24.7230 N   0  0  0  0  0  0  0  0  0  0  0  0
    5.2250   -1.8280   22.8110 S   0  0  0  0  0  0  0  0  0  0  0  0
    8.9800    0.1090   27.1660 C   0  0  0  0  0  0  0  0  0  0  0  0
    5.0770   -3.9470   24.3070 C   0  0  0  0  0  0  0  0  0  0  0  0
    4.3860   -3.3310   23.2850 C   0  0  0  0  0  0  0  0  0  0  0  0
    4.3630   -5.2020   24.7020 C   0  0  0  0  0  0  0  0  0  0  0  0
    4.1070   -6.3380   23.7360 C   0  0  0  0  0  0  0  0  0  0  0  0
    3.9430   -5.2620   25.9970 C   0  0  0  0  0  0  0  0  0  0  0  0
    3.4150   -7.4360   24.2400 C   0  0  0  0  0  0  0  0  0  0  0  0
    3.2520   -6.3610   26.5030 C   0  0  0  0  0  0  0  0  0  0  0  0
    2.9550   -7.4710   25.6860 C   0  0  0  0  0  0  0  0  0  0  0  0
    2.2840   -8.5300   26.1550 F   0  0  0  0  0  0  0  0  0  0  0  0
  1  2  2  3
  1  3  1  0
  3  4  2  0
  3  5  1  0
  4  6  1  0
  5  7  2  0
  6  8  2  0
  7  8  1  0
  7  9  1  0
  8 10  1  0
  9 11  1  0
 10 12  1  0
 11 13  2  0
 11 14  1  0
 12 15  1  0
 13 16  1  0
 14 17  1  0
 16 17  2  0
 16 18  1  0
 18 19  2  0
 18 20  1  0
 19 21  1  0
 20 22  2  0
 21 23  2  0
 22 23  1  0
 23 24  1  0
M  END
