GAB-REV-df64cf17-7-nitrile
     RDKit          3D

 24 26  0  0  0  0  0  0  0  0999 V2000
    8.5160   -3.5060   19.8850 C   0  0  0  0  0  0  0  0  0  0  0  0
    7.6490   -3.0030   19.0260 N   0  0  0  0  0  0  0  0  0  0  0  0
    9.0120   -2.7480   21.2950 C   0  0  0  0  0  0  0  0  0  0  0  0
    9.9330   -1.4320   21.6190 C   0  0  0  0  0  0  0  0  0  0  0  0
    8.5560   -3.3060   22.4240 C   0  0  0  0  0  0  0  0  0  0  0  0
   10.1820   -0.9250   22.8700 N   0  0  0  0  0  0  0  0  0  0  0  0
    8.7980   -2.8080   23.6620 C   0  0  0  0  0  0  0  0  0  0  0  0
    9.5460   -1.6710   23.8730 C   0  0  0  0  0  0  0  0  0  0  0  0
    8.1350   -3.6390   24.7340 C   0  0  0  0  0  0  0  0  0  0  0  0
    9.5600   -1.3390   25.3360 N   0  0  0  0  0  0  0  0  0  0  0  0
    6.6990   -3.8040   24.6320 O   0  0  0  0  0  0  0  0  0  0  0  0
    8.8570   -4.2110   25.7060 N   0  0  0  0  0  0  0  0  0  0  0  0
    8.2230   -1.6240   25.9170 C   0  0  0  0  0  0  0  0  0  0  0  0
    8.3540   -5.2680   26.2760 C   0  0  0  0  0  0  0  0  0  0  0  0
    8.1440   -1.7120   27.3090 C   0  0  0  0  0  0  0  0  0  0  0  0
    7.2710   -5.1400   27.3060 C   0  0  0  0  0  0  0  0  0  0  0  0
    7.2120   -6.0890   28.5020 C   0  0  0  0  0  0  0  0  0  0  0  0
    6.1540   -4.0260   27.1940 C   0  0  0  0  0  0  0  0  0  0  0  0
    6.2050   -5.9750   29.4540 C   0  0  0  0  0  0  0  0  0  0  0  0
    5.1760   -3.9750   28.1910 C   0  0  0  0  0  0  0  0  0  0  0  0
    5.2170   -4.8780   29.2170 C   0  0  0  0  0  0  0  0  0  0  0  0
    3.9890   -3.1790   28.5280 N   0  0  0  0  0  0  0  0  0  0  0  0
    4.1390   -4.5840   30.0280 C   0  0  0  0  0  0  0  0  0  0  0  0
    3.3270   -3.5300   29.6580 N   0  0  0  0  0  0  0  0  0  0  0  0
  1  2  2  3
  1  3  1  0
  3  4  2  0
  3  5  1  0
  4  6  1  0
  5  7  2  0
  6  8  2  0
  7  8  1  0
  7  9  1  0
  8 10  1  0
  9 11  2  0
  9 12  1  0
 10 13  1  0
 12 14  1  0
 13 15  1  0
 14 16  1  0
 16 17  2  0
 16 18  1  0
 17 19  1  0
 18 20  2  0
 19 21  2  0
 20 21  1  0
 20 22  1  0
 21 23  1  0
 22 24  1  0
 23 24  2  0
M  END
