GAB-REV-70cc3ca5-9
     RDKit          3D

 20 22  0  0  0  0  0  0  0  0999 V2000
    5.4460    0.7450   22.2800 C   0  0  0  0  0  0  0  0  0  0  0  0
    5.7610    0.5130   20.8090 C   0  0  0  0  0  0  0  0  0  0  0  0
    4.7450    1.0000   19.7250 C   0  0  0  0  0  0  0  0  0  0  0  0
    6.9320   -0.1220   20.3420 C   0  0  0  0  0  0  0  0  0  0  0  0
    5.1150    0.7400   18.2450 C   0  0  0  0  0  0  0  0  0  0  0  0
    7.0760   -0.2770   18.8290 C   0  0  0  0  0  0  0  0  0  0  0  0
    7.9100   -0.5630   21.2600 N   0  0  0  0  0  0  0  0  0  0  0  0
    6.2240    0.1290   17.8500 N   0  0  0  0  0  0  0  0  0  0  0  0
    8.8900    0.3280   21.6560 C   0  0  0  0  0  0  0  0  0  0  0  0
    8.9990    1.4550   21.1550 O   0  0  0  0  0  0  0  0  0  0  0  0
    9.8140    0.0080   22.6500 C   0  0  0  0  0  0  0  0  0  0  0  0
   10.5050    1.2180   22.7790 C   0  0  0  0  0  0  0  0  0  0  0  0
    9.8120    2.4410   23.0590 N   0  0  0  0  0  0  0  0  0  0  0  0
   11.8540    1.4680   22.6490 N   0  0  0  0  0  0  0  0  0  0  0  0
   10.7390    3.4470   23.0730 C   0  0  0  0  0  0  0  0  0  0  0  0
   12.0300    2.9360   22.8180 C   0  0  0  0  0  0  0  0  0  0  0  0
   10.3900    4.9030   23.3240 C   0  0  0  0  0  0  0  0  0  0  0  0
   13.1060    3.7990   22.7730 C   0  0  0  0  0  0  0  0  0  0  0  0
   11.5780    5.8510   23.2780 C   0  0  0  0  0  0  0  0  0  0  0  0
   12.8900    5.1530   22.9870 C   0  0  0  0  0  0  0  0  0  0  0  0
  1  2  1  0
  2  3  2  0
  2  4  1  0
  3  5  1  0
  4  6  2  0
  4  7  1  0
  5  8  2  0
  6  8  1  0
  7  9  1  0
  9 10  2  0
  9 11  1  0
 11 12  1  0
 12 13  2  0
 12 14  1  0
 13 15  1  0
 14 16  1  0
 15 16  2  0
 15 17  1  0
 16 18  1  0
 17 19  2  0
 18 20  2  0
 19 20  1  0
M  END
