GAB-REV-df64cf17-11-nitrile
     RDKit          3D

 23 25  0  0  0  0  0  0  0  0999 V2000
    7.3550   -3.2880   19.8940 C   0  0  0  0  0  0  0  0  0  0  0  0
    6.1410   -3.3860   19.3920 N   0  0  0  0  0  0  0  0  0  0  0  0
    7.7700   -1.9700   21.0080 C   0  0  0  0  0  0  0  0  0  0  0  0
    8.2130   -0.5460   21.2200 C   0  0  0  0  0  0  0  0  0  0  0  0
    7.7010   -1.6840   19.8780 C   0  0  0  0  0  0  0  0  0  0  0  0
    8.3960   -0.5270   22.4310 N   0  0  0  0  0  0  0  0  0  0  0  0
    7.5000   -2.5900   21.1550 C   0  0  0  0  0  0  0  0  0  0  0  0
    7.9360   -1.8660   22.4080 C   0  0  0  0  0  0  0  0  0  0  0  0
    6.9480   -3.8150   21.4680 N   0  0  0  0  0  0  0  0  0  0  0  0
    7.8560   -2.5450   23.7570 N   0  0  0  0  0  0  0  0  0  0  0  0
    7.7050   -4.5970   22.2910 C   0  0  0  0  0  0  0  0  0  0  0  0
    5.9000   -3.3050   22.0980 C   0  0  0  0  0  0  0  0  0  0  0  0
    7.3210   -1.7200   24.8480 C   0  0  0  0  0  0  0  0  0  0  0  0
    4.6850   -2.7670   22.8400 C   0  0  0  0  0  0  0  0  0  0  0  0
    5.7870   -4.6780   22.4630 C   0  0  0  0  0  0  0  0  0  0  0  0
    8.2250   -0.7340   25.2230 C   0  0  0  0  0  0  0  0  0  0  0  0
    3.6720   -3.4560   23.7090 C   0  0  0  0  0  0  0  0  0  0  0  0
    4.8250   -5.3210   23.2820 C   0  0  0  0  0  0  0  0  0  0  0  0
    3.7780   -4.7630   23.9110 C   0  0  0  0  0  0  0  0  0  0  0  0
    4.8540   -7.0190   23.6190 S   0  0  0  0  0  0  0  0  0  0  0  0
    2.9330   -5.4770   24.6660 N   0  0  0  0  0  0  0  0  0  0  0  0
    3.3840   -6.7790   24.6170 C   0  0  0  0  0  0  0  0  0  0  0  0
    2.8150   -7.8800   25.2540 C   0  0  0  0  0  0  0  0  0  0  0  0
  1  2  2  3
  1  3  1  0
  3  4  2  0
  3  5  1  0
  4  6  1  0
  5  7  2  0
  6  8  2  0
  7  8  1  0
  7  9  1  0
  8 10  1  0
  9 11  1  0
  9 12  1  0
 10 13  1  0
 12 14  2  0
 12 15  1  0
 13 16  1  0
 14 17  1  0
 15 18  2  0
 17 19  2  0
 18 19  1  0
 18 20  1  0
 19 21  1  0
 20 22  1  0
 21 22  2  0
 22 23  1  0
M  END
