GAB-REV-df64cf17-4-nitrile
     RDKit          3D

 23 25  0  0  0  0  0  0  0  0999 V2000
    8.1030   -3.2790   19.8450 C   0  0  0  0  0  0  0  0  0  0  0  0
    7.7270   -2.7020   18.7290 N   0  0  0  0  0  0  0  0  0  0  0  0
    8.7350   -2.4960   21.2760 C   0  0  0  0  0  0  0  0  0  0  0  0
    9.6680   -1.1720   21.4700 C   0  0  0  0  0  0  0  0  0  0  0  0
    8.4550   -2.9670   22.5510 C   0  0  0  0  0  0  0  0  0  0  0  0
   10.0760   -0.5750   22.6200 N   0  0  0  0  0  0  0  0  0  0  0  0
    8.8660   -2.3610   23.7720 C   0  0  0  0  0  0  0  0  0  0  0  0
    9.6390   -1.1710   23.7760 C   0  0  0  0  0  0  0  0  0  0  0  0
    8.4310   -3.0030   24.8800 N   0  0  0  0  0  0  0  0  0  0  0  0
    9.9920   -0.4830   25.1010 N   0  0  0  0  0  0  0  0  0  0  0  0
    8.9720   -4.2250   25.1120 C   0  0  0  0  0  0  0  0  0  0  0  0
    7.1280   -2.9690   24.9940 C   0  0  0  0  0  0  0  0  0  0  0  0
    8.9600   -0.7800   26.1080 C   0  0  0  0  0  0  0  0  0  0  0  0
    6.2570   -4.0470   24.4010 C   0  0  0  0  0  0  0  0  0  0  0  0
    9.0460    0.0200   27.2420 C   0  0  0  0  0  0  0  0  0  0  0  0
    6.8170   -5.2830   23.6450 C   0  0  0  0  0  0  0  0  0  0  0  0
    4.6820   -3.9160   24.5560 C   0  0  0  0  0  0  0  0  0  0  0  0
    5.9430   -6.2400   23.1320 C   0  0  0  0  0  0  0  0  0  0  0  0
    3.9270   -4.9470   23.9960 C   0  0  0  0  0  0  0  0  0  0  0  0
    4.4930   -6.0010   23.3540 C   0  0  0  0  0  0  0  0  0  0  0  0
    2.5750   -5.2190   23.9140 C   0  0  0  0  0  0  0  0  0  0  0  0
    3.5390   -6.8490   22.9200 N   0  0  0  0  0  0  0  0  0  0  0  0
    2.2360   -6.4620   23.2150 N   0  0  0  0  0  0  0  0  0  0  0  0
  1  2  2  3
  1  3  1  0
  3  4  2  0
  3  5  1  0
  4  6  1  0
  5  7  2  0
  6  8  2  0
  7  8  1  0
  7  9  1  0
  8 10  1  0
  9 11  1  0
  9 12  1  0
 10 13  1  0
 12 14  1  0
 13 15  1  0
 14 16  2  0
 14 17  1  0
 16 18  1  0
 17 19  2  0
 18 20  2  0
 19 20  1  0
 19 21  1  0
 20 22  1  0
 21 23  2  0
 22 23  1  0
M  END
