GAB-REV-df64cf17-2-acrylamide
     RDKit          3D

 24 26  0  0  0  0  0  0  0  0999 V2000
    7.3970   -3.2820   18.8640 C   0  0  0  0  0  0  0  0  0  0  0  0
    7.6630   -2.4600   20.0120 C   0  0  0  0  0  0  0  0  0  0  0  0
    6.6800   -2.7410   21.1310 C   0  0  0  0  0  0  0  0  0  0  0  0
    5.2360   -3.4660   21.0840 O   0  0  0  0  0  0  0  0  0  0  0  0
    7.7450   -1.9400   22.1380 C   0  0  0  0  0  0  0  0  0  0  0  0
    9.0740   -1.5970   21.5020 C   0  0  0  0  0  0  0  0  0  0  0  0
    7.4190   -1.6000   23.4030 C   0  0  0  0  0  0  0  0  0  0  0  0
    9.8040   -0.8680   22.4570 N   0  0  0  0  0  0  0  0  0  0  0  0
    8.2320   -0.8900   24.2230 C   0  0  0  0  0  0  0  0  0  0  0  0
    9.4410   -0.5320   23.6710 C   0  0  0  0  0  0  0  0  0  0  0  0
    7.7380   -0.6310   25.4530 N   0  0  0  0  0  0  0  0  0  0  0  0
   10.3370    0.2610   24.5100 N   0  0  0  0  0  0  0  0  0  0  0  0
    7.1520   -1.8450   25.9890 C   0  0  0  0  0  0  0  0  0  0  0  0
   10.4540   -0.4810   25.7300 C   0  0  0  0  0  0  0  0  0  0  0  0
    8.1460   -3.0100   25.8670 C   0  0  0  0  0  0  0  0  0  0  0  0
    9.8410   -1.8500   25.5430 C   0  0  0  0  0  0  0  0  0  0  0  0
    8.9120   -4.2390   25.9630 C   0  0  0  0  0  0  0  0  0  0  0  0
    7.0480   -3.3920   26.9570 C   0  0  0  0  0  0  0  0  0  0  0  0
    8.8630   -5.5310   26.7460 C   0  0  0  0  0  0  0  0  0  0  0  0
    6.9380   -4.5500   27.7110 C   0  0  0  0  0  0  0  0  0  0  0  0
    7.8680   -5.6540   27.6060 C   0  0  0  0  0  0  0  0  0  0  0  0
    6.0580   -5.0340   28.6910 C   0  0  0  0  0  0  0  0  0  0  0  0
    7.4960   -6.6960   28.4980 N   0  0  0  0  0  0  0  0  0  0  0  0
    6.3580   -6.3250   29.1910 N   0  0  0  0  0  0  0  0  0  0  0  0
  1  2  1  0
  2  3  1  0
  3  4  2  0
  3  5  1  0
  5  6  2  0
  5  7  1  0
  6  8  1  0
  7  9  2  0
  8 10  2  0
  9 10  1  0
  9 11  1  0
 10 12  1  0
 11 13  1  0
 12 14  1  0
 13 15  1  0
 14 16  1  0
 15 17  2  0
 15 18  1  0
 17 19  1  0
 18 20  2  0
 19 21  2  0
 20 21  1  0
 20 22  1  0
 21 23  1  0
 22 24  2  0
 23 24  1  0
M  END
