GAB-REV-df64cf17-8-vinylsulfonamide
     RDKit          3D

 27 29  0  0  0  0  0  0  0  0999 V2000
    7.8500   -3.4860   19.9610 C   0  0  0  0  0  0  0  0  0  0  0  0
    6.8080   -2.5600   19.3840 C   0  0  0  0  0  0  0  0  0  0  0  0
    5.7890   -2.0710   20.7410 S   0  0  0  0  0  0  0  0  0  0  0  0
    5.0280   -3.2900   21.1320 O   0  0  0  0  0  0  0  0  0  0  0  0
    5.0640   -0.8940   20.3240 O   0  0  0  0  0  0  0  0  0  0  0  0
    7.0220   -1.5200   21.9970 C   0  0  0  0  0  0  0  0  0  0  0  0
    6.9560   -0.1140   22.3830 C   0  0  0  0  0  0  0  0  0  0  0  0
    8.0060   -2.3470   22.5990 C   0  0  0  0  0  0  0  0  0  0  0  0
    7.5010    0.8020   23.1610 N   0  0  0  0  0  0  0  0  0  0  0  0
    8.6710   -1.3690   23.5050 C   0  0  0  0  0  0  0  0  0  0  0  0
    8.5020    0.0270   23.8160 C   0  0  0  0  0  0  0  0  0  0  0  0
    9.7290   -2.0020   24.2160 O   0  0  0  0  0  0  0  0  0  0  0  0
    9.3790    0.6650   24.8430 N   0  0  0  0  0  0  0  0  0  0  0  0
   10.8030   -2.0800   23.2590 C   0  0  0  0  0  0  0  0  0  0  0  0
    8.7380    0.6630   26.1550 C   0  0  0  0  0  0  0  0  0  0  0  0
   11.5180   -1.0890   23.2430 N   0  0  0  0  0  0  0  0  0  0  0  0
   12.0620   -0.8800   22.9030 S   0  0  0  0  0  0  0  0  0  0  0  0
    9.3200   -0.2980   26.9720 C   0  0  0  0  0  0  0  0  0  0  0  0
   12.0560   -2.1690   22.1110 C   0  0  0  0  0  0  0  0  0  0  0  0
   13.0410   -1.3380   21.7780 C   0  0  0  0  0  0  0  0  0  0  0  0
   10.8320   -2.9030   22.7120 C   0  0  0  0  0  0  0  0  0  0  0  0
   10.8790   -3.5680   23.9060 C   0  0  0  0  0  0  0  0  0  0  0  0
    9.6720   -2.8950   21.9800 C   0  0  0  0  0  0  0  0  0  0  0  0
    9.7070   -4.3160   24.4840 C   0  0  0  0  0  0  0  0  0  0  0  0
    8.5540   -3.5940   22.4920 C   0  0  0  0  0  0  0  0  0  0  0  0
    8.5610   -4.2880   23.7080 C   0  0  0  0  0  0  0  0  0  0  0  0
    7.4550   -4.9310   24.1270 F   0  0  0  0  0  0  0  0  0  0  0  0
  1  2  1  0
  3  2  1  0
  3  4  2  0
  3  5  2  0
  3  6  1  0
  6  7  2  0
  6  8  1  0
  7  9  1  0
  8 10  2  0
  9 11  2  0
 10 11  1  0
 10 12  1  0
 11 13  1  0
 12 14  1  0
 13 15  1  0
 14 16  2  0
 14 17  1  0
 15 18  1  0
 16 19  1  0
 17 20  1  0
 19 20  2  0
 19 21  1  0
 21 22  2  0
 21 23  1  0
 22 24  1  0
 23 25  2  0
 24 26  2  0
 25 26  1  0
 26 27  1  0
M  END
