GAB-REV-df64cf17-1-acrylamide
     RDKit          3D

 24 25  0  0  0  0  0  0  0  0999 V2000
    7.5050   -3.4500   19.2870 C   0  0  0  0  0  0  0  0  0  0  0  0
    8.1050   -2.7540   20.4360 C   0  0  0  0  0  0  0  0  0  0  0  0
    6.9630   -2.8280   21.5570 C   0  0  0  0  0  0  0  0  0  0  0  0
    5.3990   -3.6090   20.9320 O   0  0  0  0  0  0  0  0  0  0  0  0
    8.4940   -2.0630   22.1700 C   0  0  0  0  0  0  0  0  0  0  0  0
    9.9440   -1.5530   21.9530 C   0  0  0  0  0  0  0  0  0  0  0  0
    8.1710   -1.8090   23.4010 C   0  0  0  0  0  0  0  0  0  0  0  0
   10.7550   -0.8690   22.9660 N   0  0  0  0  0  0  0  0  0  0  0  0
    8.8700   -1.2020   24.3390 C   0  0  0  0  0  0  0  0  0  0  0  0
   10.1330   -0.7010   24.1860 C   0  0  0  0  0  0  0  0  0  0  0  0
    7.8700   -1.2480   25.4730 C   0  0  0  0  0  0  0  0  0  0  0  0
   10.5690   -0.0310   25.4570 N   0  0  0  0  0  0  0  0  0  0  0  0
    7.4170   -2.7260   25.6340 C   0  0  0  0  0  0  0  0  0  0  0  0
    9.6430   -0.4410   26.5740 C   0  0  0  0  0  0  0  0  0  0  0  0
    6.3270   -3.2320   24.8970 C   0  0  0  0  0  0  0  0  0  0  0  0
    8.6490    0.5960   27.0450 C   0  0  0  0  0  0  0  0  0  0  0  0
    5.2160   -2.3840   24.3050 C   0  0  0  0  0  0  0  0  0  0  0  0
    6.2730   -4.6510   24.6970 C   0  0  0  0  0  0  0  0  0  0  0  0
    4.2220   -3.0680   23.6090 C   0  0  0  0  0  0  0  0  0  0  0  0
    5.2270   -5.2170   23.9830 C   0  0  0  0  0  0  0  0  0  0  0  0
    4.2110   -4.4400   23.4400 C   0  0  0  0  0  0  0  0  0  0  0  0
    5.2000   -6.6000   23.8090 C   0  0  0  0  0  0  0  0  0  0  0  0
    6.1230   -6.9700   22.7220 N   0  0  0  0  0  0  0  0  0  0  0  0
    4.4440   -7.5050   24.5260 O   0  0  0  0  0  0  0  0  0  0  0  0
  1  2  1  0
  2  3  1  0
  3  4  2  0
  3  5  1  0
  5  6  2  0
  5  7  1  0
  6  8  1  0
  7  9  2  0
  8 10  2  0
  9 10  1  0
  9 11  1  0
 10 12  1  0
 11 13  1  0
 12 14  1  0
 13 15  1  0
 14 16  1  0
 15 17  2  0
 15 18  1  0
 17 19  1  0
 18 20  2  0
 19 21  2  0
 20 21  1  0
 20 22  1  0
 22 23  1  0
 22 24  2  0
M  END
