GAB-REV-df64cf17-10-chloroacetamide
     RDKit          3D

 26 28  0  0  0  0  0  0  0  0999 V2000
    8.4960   -3.5380   20.2710 C   0  0  0  0  0  0  0  0  0  0  0  0
    7.9840   -2.1310   19.8690 C   0  0  0  0  0  0  0  0  0  0  0  0
    7.3750   -2.7880   18.7850 O   0  0  0  0  0  0  0  0  0  0  0  0
    8.8050   -1.6490   21.2470 C   0  0  0  0  0  0  0  0  0  0  0  0
    9.5050   -0.2870   21.6220 C   0  0  0  0  0  0  0  0  0  0  0  0
    8.9290   -2.5270   22.4530 C   0  0  0  0  0  0  0  0  0  0  0  0
   10.1060    0.1050   22.8540 N   0  0  0  0  0  0  0  0  0  0  0  0
    9.5540   -2.0600   23.7700 C   0  0  0  0  0  0  0  0  0  0  0  0
   10.0900   -0.8040   23.9810 C   0  0  0  0  0  0  0  0  0  0  0  0
    9.4200   -3.0380   24.5880 N   0  0  0  0  0  0  0  0  0  0  0  0
   10.5530   -0.4420   25.3510 N   0  0  0  0  0  0  0  0  0  0  0  0
   10.2420   -4.0310   24.4250 C   0  0  0  0  0  0  0  0  0  0  0  0
    8.0600   -3.2410   24.1810 C   0  0  0  0  0  0  0  0  0  0  0  0
    9.2550   -0.1440   26.0160 C   0  0  0  0  0  0  0  0  0  0  0  0
    7.0790   -2.0750   24.1730 C   0  0  0  0  0  0  0  0  0  0  0  0
    7.2700   -4.2940   23.7040 C   0  0  0  0  0  0  0  0  0  0  0  0
    9.2640    0.1740   27.3750 C   0  0  0  0  0  0  0  0  0  0  0  0
    5.8540   -2.4060   23.7250 N   0  0  0  0  0  0  0  0  0  0  0  0
    5.8970   -3.8090   23.4030 C   0  0  0  0  0  0  0  0  0  0  0  0
    7.6080   -5.7390   23.4630 C   0  0  0  0  0  0  0  0  0  0  0  0
    4.9110   -1.5190   23.6390 C   0  0  0  0  0  0  0  0  0  0  0  0
    4.9310   -4.6410   22.9020 C   0  0  0  0  0  0  0  0  0  0  0  0
    6.5560   -6.5370   22.9380 C   0  0  0  0  0  0  0  0  0  0  0  0
    4.7750   -1.0300   22.2230 C   0  0  0  0  0  0  0  0  0  0  0  0
    4.1380   -1.0790   24.7500 O   0  0  0  0  0  0  0  0  0  0  0  0
    5.2590   -5.9950   22.6690 C   0  0  0  0  0  0  0  0  0  0  0  0
  1  2  1  0
  2  3  2  0
  2  4  1  0
  4  5  2  0
  4  6  1  0
  5  7  1  0
  6  8  2  0
  7  9  2  0
  8  9  1  0
  8 10  1  0
  9 11  1  0
 10 12  1  0
 10 13  1  0
 11 14  1  0
 13 15  2  0
 13 16  1  0
 14 17  1  0
 15 18  1  0
 16 19  2  0
 18 19  1  0
 16 20  1  0
 18 21  1  0
 19 22  1  0
 20 23  2  0
 21 24  1  0
 21 25  2  0
 22 26  2  0
 23 26  1  0
M  END
