GAB-REV-df64cf17-7-chloroacetamide
     RDKit          3D

 25 27  0  0  0  0  0  0  0  0999 V2000
    8.7570   -3.6420   20.1780 C   0  0  0  0  0  0  0  0  0  0  0  0
    7.9950   -2.4870   20.0730 C   0  0  0  0  0  0  0  0  0  0  0  0
    6.8660   -2.8070   19.2440 O   0  0  0  0  0  0  0  0  0  0  0  0
    8.7800   -1.2200   20.8740 C   0  0  0  0  0  0  0  0  0  0  0  0
    9.5070   -0.1110   21.7580 C   0  0  0  0  0  0  0  0  0  0  0  0
    8.6220   -2.0610   22.0720 C   0  0  0  0  0  0  0  0  0  0  0  0
    9.9070    0.1470   23.0630 N   0  0  0  0  0  0  0  0  0  0  0  0
    8.9700   -1.9110   23.4780 C   0  0  0  0  0  0  0  0  0  0  0  0
    9.6120   -0.8070   24.0090 C   0  0  0  0  0  0  0  0  0  0  0  0
    8.5790   -2.9900   24.3330 C   0  0  0  0  0  0  0  0  0  0  0  0
    9.9400   -0.6220   25.4610 N   0  0  0  0  0  0  0  0  0  0  0  0
    9.3600   -3.4510   25.1460 O   0  0  0  0  0  0  0  0  0  0  0  0
    7.3260   -3.4860   24.2540 N   0  0  0  0  0  0  0  0  0  0  0  0
    8.7280   -0.2620   26.1900 C   0  0  0  0  0  0  0  0  0  0  0  0
    6.4750   -3.1780   25.3760 C   0  0  0  0  0  0  0  0  0  0  0  0
    8.8010   -0.5420   27.5480 C   0  0  0  0  0  0  0  0  0  0  0  0
    6.5140   -4.1360   26.5620 C   0  0  0  0  0  0  0  0  0  0  0  0
    7.6040   -4.9630   26.9390 C   0  0  0  0  0  0  0  0  0  0  0  0
    5.2350   -4.1980   27.4240 C   0  0  0  0  0  0  0  0  0  0  0  0
    7.5680   -5.9030   28.1390 C   0  0  0  0  0  0  0  0  0  0  0  0
    5.2900   -5.0690   28.4810 C   0  0  0  0  0  0  0  0  0  0  0  0
    6.4030   -5.9430   28.8940 C   0  0  0  0  0  0  0  0  0  0  0  0
    4.2560   -5.2850   29.3820 N   0  0  0  0  0  0  0  0  0  0  0  0
    5.9200   -6.5880   29.9850 C   0  0  0  0  0  0  0  0  0  0  0  0
    4.6080   -6.2190   30.3300 N   0  0  0  0  0  0  0  0  0  0  0  0
  1  2  1  0
  2  3  2  0
  2  4  1  0
  4  5  2  0
  4  6  1  0
  5  7  1  0
  6  8  2  0
  7  9  2  0
  8  9  1  0
  8 10  1  0
  9 11  1  0
 10 12  2  0
 10 13  1  0
 11 14  1  0
 13 15  1  0
 14 16  1  0
 15 17  1  0
 17 18  2  0
 17 19  1  0
 18 20  1  0
 19 21  2  0
 20 22  2  0
 21 22  1  0
 21 23  1  0
 22 24  1  0
 23 25  1  0
 24 25  2  0
M  END
