GAB-REV-df64cf17-10-bromoalkyne
     RDKit          3D

 25 27  0  0  0  0  0  0  0  0999 V2000
    8.6570   -3.5180   19.9870 C   0  0  0  0  0  0  0  0  0  0  0  0
    7.7050   -2.9930   18.8680 C   0  0  0  0  0  0  0  0  0  0  0  0
    9.1920   -2.5810   21.3150 C   0  0  0  0  0  0  0  0  0  0  0  0
   10.6270   -1.9700   21.6280 C   0  0  0  0  0  0  0  0  0  0  0  0
    8.0570   -2.3150   22.3610 C   0  0  0  0  0  0  0  0  0  0  0  0
   11.0260   -1.2000   22.7390 N   0  0  0  0  0  0  0  0  0  0  0  0
    8.7210   -1.4560   23.5090 C   0  0  0  0  0  0  0  0  0  0  0  0
   10.0080   -0.9430   23.7240 C   0  0  0  0  0  0  0  0  0  0  0  0
    7.7590   -1.2270   24.4190 N   0  0  0  0  0  0  0  0  0  0  0  0
   10.2240   -0.1530   25.0120 N   0  0  0  0  0  0  0  0  0  0  0  0
    6.5920   -0.6210   24.1470 C   0  0  0  0  0  0  0  0  0  0  0  0
    7.7080   -2.2920   25.3910 C   0  0  0  0  0  0  0  0  0  0  0  0
    9.1690   -0.4760   25.9930 C   0  0  0  0  0  0  0  0  0  0  0  0
    6.9360   -2.3180   26.7170 C   0  0  0  0  0  0  0  0  0  0  0  0
    8.3280   -3.5330   25.3860 C   0  0  0  0  0  0  0  0  0  0  0  0
    9.2430    0.1370   27.2400 C   0  0  0  0  0  0  0  0  0  0  0  0
    7.1210   -3.4890   27.4050 N   0  0  0  0  0  0  0  0  0  0  0  0
    8.0010   -4.2900   26.6160 C   0  0  0  0  0  0  0  0  0  0  0  0
    9.2290   -4.1390   24.3400 C   0  0  0  0  0  0  0  0  0  0  0  0
    6.5820   -3.7760   28.5540 C   0  0  0  0  0  0  0  0  0  0  0  0
    8.5090   -5.5370   26.8590 C   0  0  0  0  0  0  0  0  0  0  0  0
    9.7020   -5.4290   24.6620 C   0  0  0  0  0  0  0  0  0  0  0  0
    6.6780   -5.2580   28.8110 C   0  0  0  0  0  0  0  0  0  0  0  0
    6.0750   -2.9500   29.3070 O   0  0  0  0  0  0  0  0  0  0  0  0
    9.3540   -6.0860   25.8870 C   0  0  0  0  0  0  0  0  0  0  0  0
  1  2  2  3
  1  3  1  0
  3  4  2  0
  3  5  1  0
  4  6  1  0
  5  7  2  0
  6  8  2  0
  7  8  1  0
  7  9  1  0
  8 10  1  0
  9 11  1  0
  9 12  1  0
 10 13  1  0
 12 14  2  0
 12 15  1  0
 13 16  1  0
 14 17  1  0
 15 18  2  0
 17 18  1  0
 15 19  1  0
 17 20  1  0
 18 21  1  0
 19 22  2  0
 20 23  1  0
 20 24  2  0
 21 25  2  0
 22 25  1  0
M  END
