GAB-REV-df64cf17-9-nitrile
     RDKit          3D

 23 24  0  0  0  0  0  0  0  0999 V2000
    8.4370   -3.4370   19.7830 C   0  0  0  0  0  0  0  0  0  0  0  0
    7.1260   -3.4610   19.5890 N   0  0  0  0  0  0  0  0  0  0  0  0
    9.1310   -2.6310   21.1740 C   0  0  0  0  0  0  0  0  0  0  0  0
   10.6460   -2.0980   21.5500 C   0  0  0  0  0  0  0  0  0  0  0  0
    8.2980   -2.3450   22.2190 C   0  0  0  0  0  0  0  0  0  0  0  0
   11.0110   -1.4580   22.7140 N   0  0  0  0  0  0  0  0  0  0  0  0
    8.6640   -1.7010   23.4070 C   0  0  0  0  0  0  0  0  0  0  0  0
    9.9770   -1.2720   23.6380 C   0  0  0  0  0  0  0  0  0  0  0  0
    7.5260   -1.5080   24.4040 C   0  0  0  0  0  0  0  0  0  0  0  0
   10.2490   -0.5760   24.9660 N   0  0  0  0  0  0  0  0  0  0  0  0
    6.2230   -1.6360   24.0340 N   0  0  0  0  0  0  0  0  0  0  0  0
    9.1730    0.2990   25.4490 C   0  0  0  0  0  0  0  0  0  0  0  0
    5.1790   -0.3700   23.5210 S   0  0  0  0  0  0  0  0  0  0  0  0
    8.5390   -0.1490   26.6120 C   0  0  0  0  0  0  0  0  0  0  0  0
    5.8190    0.8700   23.9170 O   0  0  0  0  0  0  0  0  0  0  0  0
    4.8590   -0.6320   22.1390 O   0  0  0  0  0  0  0  0  0  0  0  0
    3.7460   -0.6160   24.4660 C   0  0  0  0  0  0  0  0  0  0  0  0
    2.5220    0.1930   24.1950 C   0  0  0  0  0  0  0  0  0  0  0  0
    3.6920   -1.5550   25.4820 C   0  0  0  0  0  0  0  0  0  0  0  0
    1.2840   -0.0510   25.0390 C   0  0  0  0  0  0  0  0  0  0  0  0
    2.5170   -1.7420   26.2380 C   0  0  0  0  0  0  0  0  0  0  0  0
    1.3280   -1.0170   26.0390 C   0  0  0  0  0  0  0  0  0  0  0  0
    0.2410   -1.2390   26.7910 F   0  0  0  0  0  0  0  0  0  0  0  0
  1  2  2  3
  1  3  1  0
  3  4  2  0
  3  5  1  0
  4  6  1  0
  5  7  2  0
  6  8  2  0
  7  8  1  0
  7  9  1  0
  8 10  1  0
  9 11  1  0
 10 12  1  0
 13 11  1  0
 12 14  1  0
 13 15  2  0
 13 16  2  0
 13 17  1  0
 17 18  2  0
 17 19  1  0
 18 20  1  0
 19 21  2  0
 20 22  2  0
 21 22  1  0
 22 23  1  0
M  END
