GAB-REV-70cc3ca5-10
     RDKit          3D

 25 27  0  0  0  0  0  0  0  0999 V2000
    6.7920   -2.1760   28.7710 C   0  0  0  0  0  0  0  0  0  0  0  0
    6.2430   -1.3670   27.5930 C   0  0  0  0  0  0  0  0  0  0  0  0
    5.6070   -0.3340   27.7840 O   0  0  0  0  0  0  0  0  0  0  0  0
    6.5710   -1.9860   26.3100 N   0  0  0  0  0  0  0  0  0  0  0  0
    7.4470   -1.2990   25.3270 C   0  0  0  0  0  0  0  0  0  0  0  0
    6.2050   -3.3010   25.6600 C   0  0  0  0  0  0  0  0  0  0  0  0
    7.5900   -2.2310   24.1010 C   0  0  0  0  0  0  0  0  0  0  0  0
    6.8270   -3.4030   24.3630 C   0  0  0  0  0  0  0  0  0  0  0  0
    5.4200   -4.3370   26.1070 C   0  0  0  0  0  0  0  0  0  0  0  0
    8.4140   -1.8440   22.9310 N   0  0  0  0  0  0  0  0  0  0  0  0
    6.6210   -4.5370   23.6000 C   0  0  0  0  0  0  0  0  0  0  0  0
    5.2030   -5.4900   25.3480 C   0  0  0  0  0  0  0  0  0  0  0  0
    9.2640   -2.8960   22.4400 C   0  0  0  0  0  0  0  0  0  0  0  0
    9.1100   -0.5520   22.8970 C   0  0  0  0  0  0  0  0  0  0  0  0
    5.8160   -5.5660   24.0930 C   0  0  0  0  0  0  0  0  0  0  0  0
    8.8300    0.0900   21.6910 C   0  0  0  0  0  0  0  0  0  0  0  0
    9.1920    1.2450   21.3580 O   0  0  0  0  0  0  0  0  0  0  0  0
    8.0240   -0.7320   20.8020 N   0  0  0  0  0  0  0  0  0  0  0  0
    7.0060   -0.1510   20.0660 C   0  0  0  0  0  0  0  0  0  0  0  0
    7.1260   -0.1970   18.6840 C   0  0  0  0  0  0  0  0  0  0  0  0
    5.8940    0.4680   20.5930 C   0  0  0  0  0  0  0  0  0  0  0  0
    6.2010    0.3560   17.7960 N   0  0  0  0  0  0  0  0  0  0  0  0
    4.8740    1.0720   19.6550 C   0  0  0  0  0  0  0  0  0  0  0  0
    5.4160    0.7060   22.0090 C   0  0  0  0  0  0  0  0  0  0  0  0
    5.1360    0.9580   18.3010 C   0  0  0  0  0  0  0  0  0  0  0  0
  1  2  1  0
  2  3  2  0
  2  4  1  0
  4  5  1  0
  4  6  1  0
  5  7  2  0
  6  8  2  0
  7  8  1  0
  6  9  1  0
  7 10  1  0
  8 11  1  0
  9 12  2  0
 10 13  1  0
 10 14  1  0
 11 15  2  0
 12 15  1  0
 14 16  1  0
 16 17  2  0
 16 18  1  0
 18 19  1  0
 19 20  2  0
 19 21  1  0
 20 22  1  0
 21 23  2  0
 21 24  1  0
 22 25  2  0
 23 25  1  0
M  END
