GAB-REV-df64cf17-17-nitrile
     RDKit          3D

 23 24  0  0  0  0  0  0  0  0999 V2000
    7.0250   -3.3230   19.4600 C   0  0  0  0  0  0  0  0  0  0  0  0
    5.9460   -4.0130   19.6490 N   0  0  0  0  0  0  0  0  0  0  0  0
    7.1210   -1.8200   19.6360 C   0  0  0  0  0  0  0  0  0  0  0  0
    7.5690   -0.7420   20.7510 C   0  0  0  0  0  0  0  0  0  0  0  0
    7.5540   -1.7960   20.7910 C   0  0  0  0  0  0  0  0  0  0  0  0
    8.0870   -1.0520   22.1410 N   0  0  0  0  0  0  0  0  0  0  0  0
    7.8670   -2.5600   21.7100 C   0  0  0  0  0  0  0  0  0  0  0  0
    8.3090   -2.4060   22.8510 C   0  0  0  0  0  0  0  0  0  0  0  0
    8.0710   -1.2400   22.0210 N   0  0  0  0  0  0  0  0  0  0  0  0
    8.8050   -1.6340   24.0550 N   0  0  0  0  0  0  0  0  0  0  0  0
    9.3810   -0.8140   21.9600 C   0  0  0  0  0  0  0  0  0  0  0  0
    7.2250   -0.6430   22.8690 C   0  0  0  0  0  0  0  0  0  0  0  0
    8.3160   -2.1290   25.3430 C   0  0  0  0  0  0  0  0  0  0  0  0
    5.9020   -1.2050   23.3200 C   0  0  0  0  0  0  0  0  0  0  0  0
    7.5470    0.6060   23.4080 C   0  0  0  0  0  0  0  0  0  0  0  0
    8.6510   -1.2400   26.3510 C   0  0  0  0  0  0  0  0  0  0  0  0
    5.0270   -0.4300   24.2920 C   0  0  0  0  0  0  0  0  0  0  0  0
    6.6920    1.2680   24.3030 C   0  0  0  0  0  0  0  0  0  0  0  0
    5.4590    0.7980   24.7580 C   0  0  0  0  0  0  0  0  0  0  0  0
    4.4710    1.7420   25.8920 S   0  0  0  0  0  0  0  0  0  0  0  0
    5.5110    2.8830   26.5140 N   0  0  0  0  0  0  0  0  0  0  0  0
    3.4680    2.4360   25.1160 O   0  0  0  0  0  0  0  0  0  0  0  0
    4.1020    0.8830   26.9930 O   0  0  0  0  0  0  0  0  0  0  0  0
  1  2  2  3
  1  3  1  0
  3  4  2  0
  3  5  1  0
  4  6  1  0
  5  7  2  0
  6  8  2  0
  7  8  1  0
  7  9  1  0
  8 10  1  0
  9 11  1  0
  9 12  1  0
 10 13  1  0
 12 14  2  0
 12 15  1  0
 13 16  1  0
 14 17  1  0
 15 18  2  0
 17 19  2  0
 18 19  1  0
 19 20  1  0
 20 21  1  0
 20 22  2  0
 20 23  2  0
M  END
