GAB-REV-4a4e2ff3-17
     RDKit          3D

 28 31  0  0  0  0  0  0  0  0999 V2000
    9.0040    6.6210   22.5870 C   0  0  0  0  0  0  0  0  0  0  0  0
   10.1850    6.2000   23.3600 C   0  0  0  0  0  0  0  0  0  0  0  0
   10.1330    6.2820   24.5890 O   0  0  0  0  0  0  0  0  0  0  0  0
   11.2690    5.7380   22.6020 N   0  0  0  0  0  0  0  0  0  0  0  0
   12.4060    5.1110   23.2950 C   0  0  0  0  0  0  0  0  0  0  0  0
   12.7400    3.7280   22.7350 C   0  0  0  0  0  0  0  0  0  0  0  0
   11.7320    2.6390   23.1370 C   0  0  0  0  0  0  0  0  0  0  0  0
   10.4140    2.7800   23.7310 C   0  0  0  0  0  0  0  0  0  0  0  0
   11.8790    1.1770   22.9770 C   0  0  0  0  0  0  0  0  0  0  0  0
    9.8240    1.5770   23.8880 N   0  0  0  0  0  0  0  0  0  0  0  0
   10.6980    0.5440   23.4100 C   0  0  0  0  0  0  0  0  0  0  0  0
   12.9580    0.2430   22.4610 C   0  0  0  0  0  0  0  0  0  0  0  0
   10.3430   -0.8370   23.4090 C   0  0  0  0  0  0  0  0  0  0  0  0
   12.6390   -1.2510   22.4170 C   0  0  0  0  0  0  0  0  0  0  0  0
    9.0260   -1.1830   23.9090 N   0  0  0  0  0  0  0  0  0  0  0  0
   11.2900   -1.7230   22.9100 C   0  0  0  0  0  0  0  0  0  0  0  0
   13.5100   -2.1230   21.9540 F   0  0  0  0  0  0  0  0  0  0  0  0
    8.3450   -2.0400   23.1770 C   0  0  0  0  0  0  0  0  0  0  0  0
    8.7570   -1.1470   25.2710 C   0  0  0  0  0  0  0  0  0  0  0  0
    8.4680   -2.5100   25.8070 C   0  0  0  0  0  0  0  0  0  0  0  0
    9.0280   -3.7890   25.1230 C   0  0  0  0  0  0  0  0  0  0  0  0
    7.6650   -2.6260   26.9740 C   0  0  0  0  0  0  0  0  0  0  0  0
    8.6900   -5.1560   25.7410 C   0  0  0  0  0  0  0  0  0  0  0  0
    7.3790   -3.8940   27.5050 C   0  0  0  0  0  0  0  0  0  0  0  0
    7.8160   -5.2650   27.0030 C   0  0  0  0  0  0  0  0  0  0  0  0
    6.6600   -4.3190   28.5780 C   0  0  0  0  0  0  0  0  0  0  0  0
    7.2740   -6.1900   27.8630 N   0  0  0  0  0  0  0  0  0  0  0  0
    6.5270   -5.6410   28.8890 N   0  0  0  0  0  0  0  0  0  0  0  0
  1  2  1  0
  2  3  2  0
  2  4  1  0
  4  5  1  0
  5  6  1  0
  6  7  1  0
  7  8  2  0
  7  9  1  0
  8 10  1  0
  9 11  2  0
 10 11  1  0
  9 12  1  0
 11 13  1  0
 12 14  2  0
 13 15  1  0
 13 16  2  0
 14 16  1  0
 14 17  1  0
 15 18  1  0
 15 19  1  0
 19 20  1  0
 20 21  2  0
 20 22  1  0
 21 23  1  0
 22 24  2  0
 23 25  2  0
 24 25  1  0
 24 26  1  0
 25 27  1  0
 26 28  2  0
 27 28  1  0
M  END
