GAB-REV-df64cf17-18-bromoalkyne
     RDKit          3D

 22 24  0  0  0  0  0  0  0  0999 V2000
    6.9630   -3.4320   19.8990 C   0  0  0  0  0  0  0  0  0  0  0  0
    6.2580   -2.7030   18.9080 C   0  0  0  0  0  0  0  0  0  0  0  0
    7.5580   -2.8100   21.0230 C   0  0  0  0  0  0  0  0  0  0  0  0
    8.6380   -2.0880   21.9640 C   0  0  0  0  0  0  0  0  0  0  0  0
    6.2870   -2.9140   21.7760 C   0  0  0  0  0  0  0  0  0  0  0  0
    8.3610   -1.7580   23.1430 N   0  0  0  0  0  0  0  0  0  0  0  0
    5.7930   -2.5110   23.0520 C   0  0  0  0  0  0  0  0  0  0  0  0
    7.0520   -1.9620   23.5540 C   0  0  0  0  0  0  0  0  0  0  0  0
    5.4120   -2.0660   24.4140 N   0  0  0  0  0  0  0  0  0  0  0  0
    7.1260   -1.5430   24.8400 N   0  0  0  0  0  0  0  0  0  0  0  0
    4.1100   -2.0910   24.6570 C   0  0  0  0  0  0  0  0  0  0  0  0
    7.5280   -2.9050   25.4110 C   0  0  0  0  0  0  0  0  0  0  0  0
    3.8580   -3.4550   25.0470 C   0  0  0  0  0  0  0  0  0  0  0  0
    8.2430   -3.6610   24.4760 C   0  0  0  0  0  0  0  0  0  0  0  0
    5.0120   -4.2230   24.8570 C   0  0  0  0  0  0  0  0  0  0  0  0
    2.6140   -4.2030   25.5840 C   0  0  0  0  0  0  0  0  0  0  0  0
    4.7160   -5.3330   25.1320 N   0  0  0  0  0  0  0  0  0  0  0  0
    3.4820   -5.5190   25.5720 C   0  0  0  0  0  0  0  0  0  0  0  0
    1.5620   -4.8340   26.0380 C   0  0  0  0  0  0  0  0  0  0  0  0
    3.3580   -6.9540   25.9890 C   0  0  0  0  0  0  0  0  0  0  0  0
    1.2780   -6.2120   26.5500 C   0  0  0  0  0  0  0  0  0  0  0  0
    2.1990   -7.3710   26.5510 C   0  0  0  0  0  0  0  0  0  0  0  0
  1  2  2  3
  1  3  1  0
  3  4  2  0
  3  5  1  0
  4  6  1  0
  5  7  2  0
  6  8  2  0
  7  8  1  0
  7  9  1  0
  8 10  1  0
  9 11  1  0
 10 12  1  0
 11 13  1  0
 12 14  1  0
 13 15  2  0
 13 16  1  0
 15 17  1  0
 16 18  2  0
 17 18  1  0
 16 19  1  0
 18 20  1  0
 19 21  2  0
 20 22  2  0
 21 22  1  0
M  END
