GAB-REV-df64cf17-4-acrylamide
     RDKit          3D

 25 27  0  0  0  0  0  0  0  0999 V2000
    7.1420   -3.3510   19.6120 C   0  0  0  0  0  0  0  0  0  0  0  0
    5.8630   -2.8250   20.2250 C   0  0  0  0  0  0  0  0  0  0  0  0
    5.7820   -3.2540   21.6730 C   0  0  0  0  0  0  0  0  0  0  0  0
    4.8070   -3.9300   22.0470 O   0  0  0  0  0  0  0  0  0  0  0  0
    6.9400   -2.8210   22.5970 C   0  0  0  0  0  0  0  0  0  0  0  0
    7.0060   -1.5800   23.2930 C   0  0  0  0  0  0  0  0  0  0  0  0
    8.1020   -3.4570   22.9440 C   0  0  0  0  0  0  0  0  0  0  0  0
    7.6880   -0.7430   24.1370 N   0  0  0  0  0  0  0  0  0  0  0  0
    7.9220   -2.1880   23.5190 C   0  0  0  0  0  0  0  0  0  0  0  0
    8.7790   -1.4840   24.3790 C   0  0  0  0  0  0  0  0  0  0  0  0
    6.7080   -1.6490   23.1260 N   0  0  0  0  0  0  0  0  0  0  0  0
    9.2770   -0.3640   25.2550 N   0  0  0  0  0  0  0  0  0  0  0  0
    6.6440   -0.5460   22.1680 C   0  0  0  0  0  0  0  0  0  0  0  0
    5.6310   -1.5900   24.0130 C   0  0  0  0  0  0  0  0  0  0  0  0
    8.3410    0.0360   26.3570 C   0  0  0  0  0  0  0  0  0  0  0  0
    5.8830   -2.2350   25.2470 C   0  0  0  0  0  0  0  0  0  0  0  0
    8.9490   -0.2440   27.7140 C   0  0  0  0  0  0  0  0  0  0  0  0
    5.1520   -1.7420   26.4920 C   0  0  0  0  0  0  0  0  0  0  0  0
    6.7940   -3.3350   25.3610 C   0  0  0  0  0  0  0  0  0  0  0  0
    5.4230   -2.4080   27.6820 C   0  0  0  0  0  0  0  0  0  0  0  0
    6.9680   -3.9100   26.6340 C   0  0  0  0  0  0  0  0  0  0  0  0
    6.3040   -3.4590   27.7430 C   0  0  0  0  0  0  0  0  0  0  0  0
    7.7640   -4.9650   27.0650 C   0  0  0  0  0  0  0  0  0  0  0  0
    6.7070   -4.2450   28.8050 N   0  0  0  0  0  0  0  0  0  0  0  0
    7.6290   -5.2080   28.4270 N   0  0  0  0  0  0  0  0  0  0  0  0
  1  2  1  0
  2  3  1  0
  3  4  2  0
  3  5  1  0
  5  6  2  0
  5  7  1  0
  6  8  1  0
  7  9  2  0
  8 10  2  0
  9 10  1  0
  9 11  1  0
 10 12  1  0
 11 13  1  0
 11 14  1  0
 12 15  1  0
 14 16  1  0
 15 17  1  0
 16 18  2  0
 16 19  1  0
 18 20  1  0
 19 21  2  0
 20 22  2  0
 21 22  1  0
 21 23  1  0
 22 24  1  0
 23 25  2  0
 24 25  1  0
M  END
