GAB-REV-df64cf17-22-acrylamide
     RDKit          3D

 25 27  0  0  0  0  0  0  0  0999 V2000
    6.2040   -3.5450   19.2900 C   0  0  0  0  0  0  0  0  0  0  0  0
    5.9410   -2.4380   20.2610 C   0  0  0  0  0  0  0  0  0  0  0  0
    5.7910   -3.0240   21.6320 C   0  0  0  0  0  0  0  0  0  0  0  0
    4.8430   -3.7690   21.9380 O   0  0  0  0  0  0  0  0  0  0  0  0
    6.8850   -2.6360   22.5910 C   0  0  0  0  0  0  0  0  0  0  0  0
    6.9570   -1.2840   23.0670 C   0  0  0  0  0  0  0  0  0  0  0  0
    7.9810   -3.4960   23.1550 C   0  0  0  0  0  0  0  0  0  0  0  0
    7.9720   -1.4890   23.7570 N   0  0  0  0  0  0  0  0  0  0  0  0
    8.8980   -2.8010   24.0540 C   0  0  0  0  0  0  0  0  0  0  0  0
    8.9740   -1.5000   24.4990 C   0  0  0  0  0  0  0  0  0  0  0  0
    7.9350   -2.0620   23.4750 N   0  0  0  0  0  0  0  0  0  0  0  0
    9.8090   -0.6510   25.3940 N   0  0  0  0  0  0  0  0  0  0  0  0
    8.3930   -1.4110   22.2260 C   0  0  0  0  0  0  0  0  0  0  0  0
    8.9410    0.0830   26.3600 C   0  0  0  0  0  0  0  0  0  0  0  0
    9.4050   -0.2560   22.3420 C   0  0  0  0  0  0  0  0  0  0  0  0
    8.2580    1.2520   25.6790 C   0  0  0  0  0  0  0  0  0  0  0  0
    8.7670    0.9730   22.0710 C   0  0  0  0  0  0  0  0  0  0  0  0
    8.2810    2.4250   21.8570 C   0  0  0  0  0  0  0  0  0  0  0  0
   10.2810    1.4140   22.6680 C   0  0  0  0  0  0  0  0  0  0  0  0
    9.1740    1.6710   22.2230 C   0  0  0  0  0  0  0  0  0  0  0  0
   10.9710    2.8380   22.9230 C   0  0  0  0  0  0  0  0  0  0  0  0
    9.8270    2.6520   22.4710 C   0  0  0  0  0  0  0  0  0  0  0  0
   12.2210    2.4220   23.4230 O   0  0  0  0  0  0  0  0  0  0  0  0
   10.3570    1.3220   22.6980 N   0  0  0  0  0  0  0  0  0  0  0  0
   11.5280    1.4790   23.1610 C   0  0  0  0  0  0  0  0  0  0  0  0
  1  2  1  0
  2  3  1  0
  3  4  2  0
  3  5  1  0
  5  6  2  0
  5  7  1  0
  6  8  1  0
  7  9  2  0
  8 10  2  0
  9 10  1  0
  9 11  1  0
 10 12  1  0
 11 13  1  0
 12 14  1  0
 13 15  1  0
 14 16  1  0
 15 17  1  0
 17 18  2  0
 17 19  1  0
 18 20  1  0
 19 21  2  0
 20 22  2  0
 21 22  1  0
 21 23  1  0
 22 24  1  0
 23 25  1  0
 24 25  2  0
M  END
