GAB-REV-df64cf17-9-bromoalkyne
     RDKit          3D

 23 24  0  0  0  0  0  0  0  0999 V2000
    8.2900   -3.4800   19.9760 C   0  0  0  0  0  0  0  0  0  0  0  0
    6.7680   -3.4410   19.7970 C   0  0  0  0  0  0  0  0  0  0  0  0
    9.0780   -2.3000   20.9510 C   0  0  0  0  0  0  0  0  0  0  0  0
    9.4880   -1.6130   22.2090 C   0  0  0  0  0  0  0  0  0  0  0  0
    8.6130   -2.8260   22.1800 C   0  0  0  0  0  0  0  0  0  0  0  0
    9.9880   -0.8280   23.1870 N   0  0  0  0  0  0  0  0  0  0  0  0
    8.7860   -2.4290   23.6060 C   0  0  0  0  0  0  0  0  0  0  0  0
    9.4630   -1.3800   24.4160 C   0  0  0  0  0  0  0  0  0  0  0  0
    8.0540   -3.3580   24.4090 C   0  0  0  0  0  0  0  0  0  0  0  0
   10.2100   -0.2540   25.0350 N   0  0  0  0  0  0  0  0  0  0  0  0
    7.1450   -4.1710   23.8240 N   0  0  0  0  0  0  0  0  0  0  0  0
    9.5000    0.1470   26.2740 C   0  0  0  0  0  0  0  0  0  0  0  0
    5.6230   -4.5520   24.4810 S   0  0  0  0  0  0  0  0  0  0  0  0
    8.1990   -0.3400   26.4110 C   0  0  0  0  0  0  0  0  0  0  0  0
    5.8370   -5.5560   25.4980 O   0  0  0  0  0  0  0  0  0  0  0  0
    4.6890   -4.7780   23.4010 O   0  0  0  0  0  0  0  0  0  0  0  0
    5.2200   -3.0510   25.2550 C   0  0  0  0  0  0  0  0  0  0  0  0
    4.3130   -2.0410   24.5760 C   0  0  0  0  0  0  0  0  0  0  0  0
    5.7010   -2.7240   26.4980 C   0  0  0  0  0  0  0  0  0  0  0  0
    3.9990   -0.8460   25.2100 C   0  0  0  0  0  0  0  0  0  0  0  0
    5.4020   -1.5270   27.1590 C   0  0  0  0  0  0  0  0  0  0  0  0
    4.5650   -0.5500   26.5840 C   0  0  0  0  0  0  0  0  0  0  0  0
    4.2710    0.6030   27.2090 F   0  0  0  0  0  0  0  0  0  0  0  0
  1  2  2  3
  1  3  1  0
  3  4  2  0
  3  5  1  0
  4  6  1  0
  5  7  2  0
  6  8  2  0
  7  8  1  0
  7  9  1  0
  8 10  1  0
  9 11  1  0
 10 12  1  0
 13 11  1  0
 12 14  1  0
 13 15  2  0
 13 16  2  0
 13 17  1  0
 17 18  2  0
 17 19  1  0
 18 20  1  0
 19 21  2  0
 20 22  2  0
 21 22  1  0
 22 23  1  0
M  END
