GAB-REV-4a4e2ff3-8
     RDKit          3D

 27 29  0  0  0  0  0  0  0  0999 V2000
    8.2490   -1.1240   29.0240 C   0  0  0  0  0  0  0  0  0  0  0  0
    7.1380   -0.8950   28.1660 O   0  0  0  0  0  0  0  0  0  0  0  0
    7.3190   -1.1120   26.8230 C   0  0  0  0  0  0  0  0  0  0  0  0
    6.2400   -1.5740   25.8190 C   0  0  0  0  0  0  0  0  0  0  0  0
    8.6040   -0.8980   26.2930 C   0  0  0  0  0  0  0  0  0  0  0  0
    6.6260   -1.7660   24.3380 C   0  0  0  0  0  0  0  0  0  0  0  0
    8.9580   -1.0920   24.8530 C   0  0  0  0  0  0  0  0  0  0  0  0
    9.6710   -0.5030   26.9450 O   0  0  0  0  0  0  0  0  0  0  0  0
    8.0780   -1.4870   23.9290 C   0  0  0  0  0  0  0  0  0  0  0  0
   10.4960   -0.4050   25.7830 C   0  0  0  0  0  0  0  0  0  0  0  0
    8.7640   -1.5620   22.6670 C   0  0  0  0  0  0  0  0  0  0  0  0
   10.1380   -0.9680   22.6610 C   0  0  0  0  0  0  0  0  0  0  0  0
   11.3130   -1.7800   22.3860 C   0  0  0  0  0  0  0  0  0  0  0  0
   10.3680    0.4420   22.8870 C   0  0  0  0  0  0  0  0  0  0  0  0
   12.5670   -1.1760   22.3390 C   0  0  0  0  0  0  0  0  0  0  0  0
   11.6340    1.0210   22.8050 C   0  0  0  0  0  0  0  0  0  0  0  0
    9.4300    1.5720   23.2170 N   0  0  0  0  0  0  0  0  0  0  0  0
   13.5810   -1.9710   22.0800 F   0  0  0  0  0  0  0  0  0  0  0  0
   12.8320    0.1740   22.5250 C   0  0  0  0  0  0  0  0  0  0  0  0
   11.4780    2.5220   23.0130 C   0  0  0  0  0  0  0  0  0  0  0  0
   10.1820    2.8520   23.2860 C   0  0  0  0  0  0  0  0  0  0  0  0
   12.6020    3.5720   22.8980 C   0  0  0  0  0  0  0  0  0  0  0  0
   12.3080    4.9980   23.4290 C   0  0  0  0  0  0  0  0  0  0  0  0
   11.2110    5.6190   22.6830 N   0  0  0  0  0  0  0  0  0  0  0  0
   10.0980    6.2070   23.4180 C   0  0  0  0  0  0  0  0  0  0  0  0
    8.9490    6.6760   22.5150 C   0  0  0  0  0  0  0  0  0  0  0  0
   10.0680    6.3230   24.6390 O   0  0  0  0  0  0  0  0  0  0  0  0
  1  2  1  0
  2  3  1  0
  3  4  2  0
  3  5  1  0
  4  6  1  0
  5  7  2  0
  5  8  1  0
  6  9  2  0
  7  9  1  0
  8 10  1  0
  9 11  1  0
 11 12  1  0
 12 13  2  0
 12 14  1  0
 13 15  1  0
 14 16  2  0
 14 17  1  0
 15 18  1  0
 15 19  2  0
 16 19  1  0
 16 20  1  0
 17 21  1  0
 20 21  2  0
 20 22  1  0
 22 23  1  0
 23 24  1  0
 24 25  1  0
 25 26  1  0
 25 27  2  0
M  END
