GAB-REV-df64cf17-21-bromoalkyne
     RDKit          3D

 23 25  0  0  0  0  0  0  0  0999 V2000
    8.4630   -3.4270   19.8320 C   0  0  0  0  0  0  0  0  0  0  0  0
    6.9560   -3.4020   19.6050 C   0  0  0  0  0  0  0  0  0  0  0  0
    9.1520   -2.4920   21.1590 C   0  0  0  0  0  0  0  0  0  0  0  0
   10.6430   -2.0490   21.5360 C   0  0  0  0  0  0  0  0  0  0  0  0
    8.3210   -1.9640   22.1520 C   0  0  0  0  0  0  0  0  0  0  0  0
   11.0320   -1.2560   22.6720 N   0  0  0  0  0  0  0  0  0  0  0  0
    8.6770   -1.1780   23.2980 C   0  0  0  0  0  0  0  0  0  0  0  0
    9.9940   -0.7990   23.6080 C   0  0  0  0  0  0  0  0  0  0  0  0
    7.5840   -0.7790   24.1370 C   0  0  0  0  0  0  0  0  0  0  0  0
   10.2600    0.0250   24.8800 N   0  0  0  0  0  0  0  0  0  0  0  0
    6.6850   -1.8660   24.6520 C   0  0  0  0  0  0  0  0  0  0  0  0
    9.4870   -0.4400   26.0560 C   0  0  0  0  0  0  0  0  0  0  0  0
    7.5090   -2.8280   25.5160 C   0  0  0  0  0  0  0  0  0  0  0  0
    8.6720    0.5230   26.6560 C   0  0  0  0  0  0  0  0  0  0  0  0
    7.5940   -4.1620   24.9360 C   0  0  0  0  0  0  0  0  0  0  0  0
    7.8940   -4.0060   25.5270 N   0  0  0  0  0  0  0  0  0  0  0  0
    8.0230   -5.6170   24.8670 N   0  0  0  0  0  0  0  0  0  0  0  0
    7.2470   -4.3410   24.2640 C   0  0  0  0  0  0  0  0  0  0  0  0
    7.3840   -5.5520   23.8360 C   0  0  0  0  0  0  0  0  0  0  0  0
    6.4880   -3.4580   23.4760 C   0  0  0  0  0  0  0  0  0  0  0  0
    6.9550   -6.2400   22.7480 C   0  0  0  0  0  0  0  0  0  0  0  0
    5.9550   -4.0390   22.2690 C   0  0  0  0  0  0  0  0  0  0  0  0
    6.1970   -5.4100   21.9280 C   0  0  0  0  0  0  0  0  0  0  0  0
  1  2  2  3
  1  3  1  0
  3  4  2  0
  3  5  1  0
  4  6  1  0
  5  7  2  0
  6  8  2  0
  7  8  1  0
  7  9  1  0
  8 10  1  0
  9 11  1  0
 10 12  1  0
 11 13  1  0
 12 14  1  0
 13 15  2  0
 13 16  1  0
 15 17  1  0
 16 18  2  0
 17 19  2  0
 18 19  1  0
 18 20  1  0
 19 21  1  0
 20 22  2  0
 21 23  2  0
 22 23  1  0
M  END
