GAB-REV-df64cf17-18-nitrile
     RDKit          3D

 22 24  0  0  0  0  0  0  0  0999 V2000
    9.0840   -3.3720   20.0080 C   0  0  0  0  0  0  0  0  0  0  0  0
    8.3980   -3.0310   18.7700 N   0  0  0  0  0  0  0  0  0  0  0  0
    9.7310   -2.3190   21.4050 C   0  0  0  0  0  0  0  0  0  0  0  0
   11.2660   -1.3930   21.5040 C   0  0  0  0  0  0  0  0  0  0  0  0
    8.6450   -2.4290   22.4190 C   0  0  0  0  0  0  0  0  0  0  0  0
   11.2810   -0.7020   22.7520 N   0  0  0  0  0  0  0  0  0  0  0  0
    9.0910   -1.6160   23.4590 C   0  0  0  0  0  0  0  0  0  0  0  0
   10.2030   -1.1520   23.1000 C   0  0  0  0  0  0  0  0  0  0  0  0
    8.3870   -1.4150   24.5840 N   0  0  0  0  0  0  0  0  0  0  0  0
   10.1850   -0.2690   24.4150 N   0  0  0  0  0  0  0  0  0  0  0  0
    7.3790   -2.2490   24.9630 C   0  0  0  0  0  0  0  0  0  0  0  0
   10.1140   -0.8400   25.7870 C   0  0  0  0  0  0  0  0  0  0  0  0
    7.0290   -3.4840   24.2830 C   0  0  0  0  0  0  0  0  0  0  0  0
    9.0160   -0.3540   26.5630 C   0  0  0  0  0  0  0  0  0  0  0  0
    5.7300   -3.9430   23.7590 C   0  0  0  0  0  0  0  0  0  0  0  0
    7.8580   -4.5660   23.9730 C   0  0  0  0  0  0  0  0  0  0  0  0
    5.7840   -5.1330   23.2130 N   0  0  0  0  0  0  0  0  0  0  0  0
    7.0700   -5.5480   23.3210 C   0  0  0  0  0  0  0  0  0  0  0  0
    9.2110   -4.7960   24.1920 C   0  0  0  0  0  0  0  0  0  0  0  0
    7.5220   -6.7660   22.8520 C   0  0  0  0  0  0  0  0  0  0  0  0
    9.7410   -6.0180   23.7400 C   0  0  0  0  0  0  0  0  0  0  0  0
    8.9960   -7.0100   23.0900 C   0  0  0  0  0  0  0  0  0  0  0  0
  1  2  2  3
  1  3  1  0
  3  4  2  0
  3  5  1  0
  4  6  1  0
  5  7  2  0
  6  8  2  0
  7  8  1  0
  7  9  1  0
  8 10  1  0
  9 11  1  0
 10 12  1  0
 11 13  1  0
 12 14  1  0
 13 15  2  0
 13 16  1  0
 15 17  1  0
 16 18  2  0
 17 18  1  0
 16 19  1  0
 18 20  1  0
 19 21  2  0
 20 22  2  0
 21 22  1  0
M  END
