GER-FIO-88d97d8c-1-chloroacetamide
     RDKit          3D

 34 37  0  0  0  0  0  0  0  0999 V2000
    8.2850   -3.7420   20.3710 C   0  0  0  0  0  0  0  0  0  0  0  0
    7.3190   -2.7130   20.2850 C   0  0  0  0  0  0  0  0  0  0  0  0
    6.3920   -2.9330   19.3110 O   0  0  0  0  0  0  0  0  0  0  0  0
    7.7470   -1.7950   21.4250 N   0  0  0  0  0  0  0  0  0  0  0  0
    8.0880   -2.3150   22.7280 C   0  0  0  0  0  0  0  0  0  0  0  0
    8.1310   -0.4310   21.5680 C   0  0  0  0  0  0  0  0  0  0  0  0
    9.5000   -2.1750   23.4340 C   0  0  0  0  0  0  0  0  0  0  0  0
    9.1260    0.0290   22.3660 C   0  0  0  0  0  0  0  0  0  0  0  0
    7.4820    0.5990   20.9830 C   0  0  0  0  0  0  0  0  0  0  0  0
   10.7680   -1.3990   23.8080 C   0  0  0  0  0  0  0  0  0  0  0  0
    9.8220   -0.8790   23.0890 C   0  0  0  0  0  0  0  0  0  0  0  0
    9.4260    1.4710   22.5020 C   0  0  0  0  0  0  0  0  0  0  0  0
    8.1250    1.7410   20.6730 O   0  0  0  0  0  0  0  0  0  0  0  0
    6.1930    0.2730   20.8290 N   0  0  0  0  0  0  0  0  0  0  0  0
   11.0220   -2.6800   24.4760 C   0  0  0  0  0  0  0  0  0  0  0  0
   11.2320   -0.4850   23.6850 C   0  0  0  0  0  0  0  0  0  0  0  0
    9.9250    2.8260   22.6610 C   0  0  0  0  0  0  0  0  0  0  0  0
   10.6940    0.7600   22.6270 C   0  0  0  0  0  0  0  0  0  0  0  0
    5.6710    0.8820   19.7680 C   0  0  0  0  0  0  0  0  0  0  0  0
   11.9990   -1.5620   24.5330 C   0  0  0  0  0  0  0  0  0  0  0  0
   11.2010    3.3440   22.8710 C   0  0  0  0  0  0  0  0  0  0  0  0
   12.0260    1.1980   22.8400 C   0  0  0  0  0  0  0  0  0  0  0  0
    4.6360    1.7650   19.8070 C   0  0  0  0  0  0  0  0  0  0  0  0
    6.2860    0.5670   18.6050 C   0  0  0  0  0  0  0  0  0  0  0  0
   12.2490    2.5120   22.9580 C   0  0  0  0  0  0  0  0  0  0  0  0
   13.2090    0.2460   22.9390 C   0  0  0  0  0  0  0  0  0  0  0  0
    4.1300    2.4570   18.5530 C   0  0  0  0  0  0  0  0  0  0  0  0
    5.9480    1.0840   17.4650 N   0  0  0  0  0  0  0  0  0  0  0  0
   13.2460   -0.8220   21.9410 N   0  0  0  0  0  0  0  0  0  0  0  0
    4.9340    1.9760   17.4980 C   0  0  0  0  0  0  0  0  0  0  0  0
   12.6670   -2.3590   22.2260 S   0  0  0  0  0  0  0  0  0  0  0  0
   13.2570   -3.2160   20.8270 C   0  0  0  0  0  0  0  0  0  0  0  0
   13.3760   -2.8310   23.3860 O   0  0  0  0  0  0  0  0  0  0  0  0
   11.2460   -2.3640   22.0830 O   0  0  0  0  0  0  0  0  0  0  0  0
  1  2  1  0
  2  3  2  0
  2  4  1  0
  4  5  1  0
  4  6  1  0
  5  7  1  0
  6  8  2  0
  6  9  1  0
  7 10  1  0
  7 11  2  0
  8 11  1  0
  8 12  1  0
  9 13  2  0
  9 14  1  0
 10 15  2  0
 11 16  1  0
 12 17  2  0
 12 18  1  0
 14 19  1  0
 15 20  1  0
 16 20  2  0
 17 21  1  0
 18 22  2  0
 19 23  2  0
 19 24  1  0
 21 25  2  0
 22 25  1  0
 22 26  1  0
 23 27  1  0
 24 28  2  0
 26 29  1  0
 27 30  2  0
 28 30  1  0
 31 29  1  0
 31 32  1  0
 31 33  2  0
 31 34  2  0
M  END
