GIA-UNK-d2defdc3-7-chloroacetamide
     RDKit          3D

 20 21  0  0  0  0  0  0  0  0999 V2000
    7.0950   -4.2670   20.5810 C   0  0  0  0  0  0  0  0  0  0  0  0
    5.9420   -3.6600   20.3700 C   0  0  0  0  0  0  0  0  0  0  0  0
    5.0420   -4.1660   19.7130 O   0  0  0  0  0  0  0  0  0  0  0  0
    5.8060   -2.3810   20.9070 N   0  0  0  0  0  0  0  0  0  0  0  0
    5.2800   -2.1640   22.2590 C   0  0  0  0  0  0  0  0  0  0  0  0
    4.8630   -0.6860   22.3830 C   0  0  0  0  0  0  0  0  0  0  0  0
    4.5000   -0.0990   23.4110 O   0  0  0  0  0  0  0  0  0  0  0  0
    5.0060   -0.1230   20.9540 C   0  0  1  0  0  0  0  0  0  0  0  0
    4.1450    1.0370   20.5120 C   0  0  0  0  0  0  0  0  0  0  0  0
    6.3140    0.5420   20.7230 N   0  0  0  0  0  0  0  0  0  0  0  0
    4.8280    1.7200   19.5100 C   0  0  0  0  0  0  0  0  0  0  0  0
    6.1420    1.2180   19.4240 C   0  0  0  0  0  0  0  0  0  0  0  0
    6.7290    1.4430   21.8420 C   0  0  0  0  0  0  0  0  0  0  0  0
    6.4720    1.1200   23.2270 O   0  0  0  0  0  0  0  0  0  0  0  0
    7.3630    2.6450   21.4500 C   0  0  0  0  0  0  0  0  0  0  0  0
    6.1650    2.6700   21.4720 C   0  0  0  0  0  0  0  0  0  0  0  0
    8.3380    1.8110   21.6880 C   0  0  0  0  0  0  0  0  0  0  0  0
    7.3550    1.5630   21.7910 C   0  0  0  0  0  0  0  0  0  0  0  0
    8.4010    0.4320   22.1160 C   0  0  0  0  0  0  0  0  0  0  0  0
    9.0910    1.6160   21.7370 C   0  0  0  0  0  0  0  0  0  0  0  0
  1  2  1  0
  2  3  2  0
  2  4  1  0
  4  5  1  0
  5  6  1  0
  6  7  2  0
  8  6  1  1
  8  9  1  0
  8 10  1  0
  9 11  1  0
 10 12  1  0
 11 12  1  0
 10 13  1  0
 13 14  2  0
 13 15  1  0
 15 16  2  0
 15 17  1  0
 16 18  1  0
 17 19  2  0
 18 20  2  0
 19 20  1  0
M  END
