GIA-UNK-30c7cb75-3
     RDKit          3D

 22 24  0  0  0  0  0  0  0  0999 V2000
    3.1730    0.5620   22.2550 O   0  0  0  0  0  0  0  0  0  0  0  0
    4.3970    0.3960   22.1590 C   0  0  0  0  0  0  0  0  0  0  0  0
    5.0630    0.7560   20.8620 C   0  0  0  0  0  0  0  0  0  0  0  0
    5.1480   -0.0980   23.2270 N   0  0  0  0  0  0  0  0  0  0  0  0
    4.2250    1.3650   19.7680 C   0  0  0  0  0  0  0  0  0  0  0  0
    5.9100   -0.3610   20.3480 C   0  0  0  0  0  0  0  0  0  0  0  0
    6.3780    0.4920   23.7930 C   0  0  0  0  0  0  0  0  0  0  0  0
    4.4670   -1.0940   24.0720 C   0  0  0  0  0  0  0  0  0  0  0  0
    4.8870    1.1690   18.3990 C   0  0  0  0  0  0  0  0  0  0  0  0
    6.9280    0.2640   19.6870 C   0  0  0  0  0  0  0  0  0  0  0  0
    7.3170   -0.5780   24.3200 C   0  0  0  0  0  0  0  0  0  0  0  0
    4.8530   -1.0320   25.5290 C   0  0  0  0  0  0  0  0  0  0  0  0
    6.3520    0.9370   18.5240 N   0  0  0  0  0  0  0  0  0  0  0  0
    6.5780   -1.4110   25.7050 S   0  0  0  0  0  0  0  0  0  0  0  0
    6.8100    0.1790   17.5140 C   0  0  0  0  0  0  0  0  0  0  0  0
    7.0490   -0.7660   26.9160 O   0  0  0  0  0  0  0  0  0  0  0  0
    6.7380   -2.8390   25.5070 O   0  0  0  0  0  0  0  0  0  0  0  0
    6.5600   -1.3000   17.6280 C   0  0  0  0  0  0  0  0  0  0  0  0
    7.5660    0.8690   16.3440 C   0  0  0  0  0  0  0  0  0  0  0  0
    7.0620   -1.9870   16.6050 C   0  0  0  0  0  0  0  0  0  0  0  0
    7.9210   -0.1600   15.5140 C   0  0  0  0  0  0  0  0  0  0  0  0
    7.6950   -1.4560   15.6230 N   0  0  0  0  0  0  0  0  0  0  0  0
  1  2  2  0
  2  3  1  0
  2  4  1  0
  3  5  1  0
  3  6  1  0
  4  7  1  0
  4  8  1  0
  5  9  1  0
  6 10  1  0
  7 11  1  0
  8 12  1  0
  9 13  1  0
 10 13  1  0
 14 11  1  0
 12 14  1  0
 13 15  1  0
 14 16  2  0
 14 17  2  0
 15 18  2  0
 15 19  1  0
 18 20  1  0
 19 21  2  0
 20 22  2  0
 21 22  1  0
M  END
