GIA-UNK-d2defdc3-9-chloroacetamide
     RDKit          3D

 21 22  0  0  0  0  0  0  0  0999 V2000
    6.8150   -2.4510   20.0790 C   0  0  0  0  0  0  0  0  0  0  0  0
    5.5920   -2.7670   20.7690 C   0  0  0  0  0  0  0  0  0  0  0  0
    5.4250   -3.5500   19.7770 O   0  0  0  0  0  0  0  0  0  0  0  0
    6.0430   -1.7720   21.7770 N   0  0  0  0  0  0  0  0  0  0  0  0
    7.0390   -2.2680   22.7520 C   0  0  0  0  0  0  0  0  0  0  0  0
    5.1320   -0.8060   22.4750 C   0  0  0  0  0  0  0  0  0  0  0  0
    4.7990    0.3930   21.6210 C   0  0  0  0  0  0  0  0  0  0  0  0
    4.2830    1.5580   22.1440 O   0  0  0  0  0  0  0  0  0  0  0  0
    5.1040    0.1910   20.1820 C   0  0  1  0  0  0  0  0  0  0  0  0
    4.5960    1.1590   19.3190 C   0  0  0  0  0  0  0  0  0  0  0  0
    6.4270    0.2690   19.8040 N   0  0  0  0  0  0  0  0  0  0  0  0
    5.2700    1.0460   18.1080 C   0  0  0  0  0  0  0  0  0  0  0  0
    6.4890    0.4320   18.3600 C   0  0  0  0  0  0  0  0  0  0  0  0
    7.1530    1.3210   20.5390 C   0  0  0  0  0  0  0  0  0  0  0  0
    6.7380    2.4730   20.5270 O   0  0  0  0  0  0  0  0  0  0  0  0
    8.3030    1.0740   21.3190 C   0  0  0  0  0  0  0  0  0  0  0  0
    8.9850    2.3820   21.9220 C   0  0  0  0  0  0  0  0  0  0  0  0
    8.6970   -0.2720   21.4610 C   0  0  0  0  0  0  0  0  0  0  0  0
   10.1840    1.7140   22.6900 C   0  0  0  0  0  0  0  0  0  0  0  0
    9.7850   -0.6610   22.1800 C   0  0  0  0  0  0  0  0  0  0  0  0
   10.5640    0.2380   22.8080 C   0  0  0  0  0  0  0  0  0  0  0  0
  1  2  1  0
  2  3  2  0
  2  4  1  0
  4  5  1  0
  4  6  1  0
  6  7  1  0
  7  8  2  0
  9  7  1  1
  9 10  1  0
  9 11  1  0
 10 12  1  0
 11 13  1  0
 12 13  1  0
 11 14  1  0
 14 15  2  0
 14 16  1  0
 16 17  2  0
 16 18  1  0
 17 19  1  0
 18 20  2  0
 19 21  2  0
 20 21  1  0
M  END
