GIA-UNK-d2defdc3-3
     RDKit          3D

 25 27  0  0  0  0  0  0  0  0999 V2000
    4.8820   -0.3570   19.2070 C   0  0  0  0  0  0  0  0  0  0  0  0
    5.8390   -0.1340   20.2780 N   0  0  0  0  0  0  0  0  0  0  0  0
    5.3240   -0.5250   21.6080 C   0  0  0  0  0  0  0  0  0  0  0  0
    6.0660    1.2630   20.2460 C   0  0  0  0  0  0  0  0  0  0  0  0
    4.9320    0.7170   22.4470 C   0  0  0  0  0  0  0  0  0  0  0  0
    4.7880    1.8150   20.2240 C   0  0  0  0  0  0  0  0  0  0  0  0
    3.9320    1.4190   21.5250 C   0  0  0  0  0  0  0  0  0  0  0  0
    3.2430    2.3310   22.6350 C   0  0  0  0  0  0  0  0  0  0  0  0
    3.6530    2.2670   23.9350 O   0  0  0  0  0  0  0  0  0  0  0  0
    2.0730    3.2240   22.3140 N   0  0  0  0  0  0  0  0  0  0  0  0
    0.9300    3.2290   23.3050 C   0  0  1  0  0  0  0  0  0  0  0  0
    0.9170    4.3890   24.1170 C   0  0  0  0  0  0  0  0  0  0  0  0
   -0.2830    3.0060   22.6180 C   0  0  1  0  0  0  0  0  0  0  0  0
   -0.2980    4.6520   24.8050 C   0  0  0  0  0  0  0  0  0  0  0  0
   -1.4430    3.2170   23.3800 C   0  0  0  0  0  0  0  0  0  0  0  0
   -0.1750    3.6520   21.2690 N   0  0  0  0  0  0  0  0  0  0  0  0
   -1.5060    4.3420   24.1990 C   0  0  0  0  0  0  0  0  0  0  0  0
   -1.0390    3.2590   20.2560 C   0  0  0  0  0  0  0  0  0  0  0  0
   -1.4190    2.1040   20.1140 O   0  0  0  0  0  0  0  0  0  0  0  0
   -1.4790    4.4240   19.3210 C   0  0  0  0  0  0  0  0  0  0  0  0
   -1.1760    5.8060   19.9490 C   0  0  0  0  0  0  0  0  0  0  0  0
   -1.0350    4.3050   17.9870 C   0  0  0  0  0  0  0  0  0  0  0  0
   -1.6100    6.9800   19.0380 C   0  0  0  0  0  0  0  0  0  0  0  0
   -0.7060    5.4440   17.2540 C   0  0  0  0  0  0  0  0  0  0  0  0
   -1.3300    6.6480   17.5710 C   0  0  0  0  0  0  0  0  0  0  0  0
  1  2  1  0
  2  3  1  0
  2  4  1  0
  3  5  1  0
  4  6  1  0
  5  7  1  0
  6  7  1  0
  7  8  1  0
  8  9  2  0
  8 10  1  0
 11 10  1  6
 11 12  1  0
 11 13  1  0
 12 14  1  0
 13 15  1  0
 13 16  1  6
 14 17  1  0
 15 17  1  0
 16 18  1  0
 18 19  2  0
 18 20  1  0
 20 21  1  0
 20 22  1  0
 21 23  1  0
 22 24  1  0
 23 25  1  0
 24 25  1  0
M  END
