GIA-UNK-d2defdc3-1
     RDKit          3D

 24 26  0  0  0  0  0  0  0  0999 V2000
   -0.6530    0.9150   20.7200 O   0  0  0  0  0  0  0  0  0  0  0  0
   -0.8690    2.1420   20.7040 C   0  0  0  0  0  0  0  0  0  0  0  0
   -1.4400    2.9260   21.8050 N   0  0  0  0  0  0  0  0  0  0  0  0
   -0.6080    2.9690   19.5230 C   0  0  0  0  0  0  0  0  0  0  0  0
   -0.7050    2.8280   23.0800 C   0  0  2  0  0  0  0  0  0  0  0  0
   -1.7850    3.6660   18.8570 C   0  0  0  0  0  0  0  0  0  0  0  0
    0.6700    3.1660   18.9520 C   0  0  0  0  0  0  0  0  0  0  0  0
   -1.7580    2.9570   24.1910 C   0  0  0  0  0  0  0  0  0  0  0  0
    0.3990    3.9130   23.2480 C   0  0  1  0  0  0  0  0  0  0  0  0
   -1.5960    4.4560   17.7380 C   0  0  0  0  0  0  0  0  0  0  0  0
    0.7170    3.9940   17.8110 C   0  0  0  0  0  0  0  0  0  0  0  0
   -1.9060    4.4850   24.3080 C   0  0  0  0  0  0  0  0  0  0  0  0
    0.7060    4.1480   24.7180 C   0  0  0  0  0  0  0  0  0  0  0  0
    1.7220    3.4760   22.6870 N   0  0  0  0  0  0  0  0  0  0  0  0
   -0.3700    4.6340   17.1990 N   0  0  0  0  0  0  0  0  0  0  0  0
   -0.6020    4.8840   25.0210 C   0  0  0  0  0  0  0  0  0  0  0  0
    2.6150    2.5090   23.3460 C   0  0  0  0  0  0  0  0  0  0  0  0
    2.3140    1.8450   24.3330 O   0  0  0  0  0  0  0  0  0  0  0  0
    3.8880    2.3630   22.7900 C   0  0  0  0  0  0  0  0  0  0  0  0
    3.8300    2.5500   21.3870 C   0  0  0  0  0  0  0  0  0  0  0  0
    4.8080    3.1740   23.4700 C   0  0  0  0  0  0  0  0  0  0  0  0
    4.8170    3.3880   20.8080 C   0  0  0  0  0  0  0  0  0  0  0  0
    6.2630    3.1530   22.9600 C   0  0  0  0  0  0  0  0  0  0  0  0
    6.2300    3.3200   21.4450 C   0  0  0  0  0  0  0  0  0  0  0  0
  1  2  2  0
  2  3  1  0
  2  4  1  0
  5  3  1  6
  4  6  2  0
  4  7  1  0
  5  8  1  0
  5  9  1  0
  6 10  1  0
  7 11  2  0
  8 12  1  0
  9 13  1  0
  9 14  1  6
 10 15  2  0
 11 15  1  0
 12 16  1  0
 13 16  1  0
 14 17  1  0
 17 18  2  0
 17 19  1  0
 19 20  1  0
 19 21  1  0
 20 22  1  0
 21 23  1  0
 22 24  1  0
 23 24  1  0
M  END
