GIA-UNK-a79af1bc-1-nitrile
     RDKit          3D

 17 18  0  0  0  0  0  0  0  0999 V2000
    6.5950   -4.0350   20.0820 C   0  0  0  0  0  0  0  0  0  0  0  0
    5.5940   -3.5690   19.4660 N   0  0  0  0  0  0  0  0  0  0  0  0
    6.7040   -3.9830   21.4730 N   0  0  0  0  0  0  0  0  0  0  0  0
    6.1830   -5.0050   22.3680 C   0  0  0  0  0  0  0  0  0  0  0  0
    7.7150   -3.2220   22.2610 C   0  0  0  0  0  0  0  0  0  0  0  0
    5.3220   -4.3990   23.4980 C   0  0  0  0  0  0  0  0  0  0  0  0
    7.0310   -2.3740   23.1420 C   0  0  0  0  0  0  0  0  0  0  0  0
    5.9920   -3.0980   24.0600 C   0  0  0  0  0  0  0  0  0  0  0  0
    6.5040   -3.2160   25.4490 N   0  0  0  0  0  0  0  0  0  0  0  0
    6.4640   -2.0220   26.3550 C   0  0  0  0  0  0  0  0  0  0  0  0
    5.9330   -0.9380   25.8420 N   0  0  0  0  0  0  0  0  0  0  0  0
    6.9420   -2.0430   27.6250 N   0  0  0  0  0  0  0  0  0  0  0  0
    5.9350    0.0790   26.7190 C   0  0  0  0  0  0  0  0  0  0  0  0
    6.9270   -0.9550   28.4640 C   0  0  0  0  0  0  0  0  0  0  0  0
    5.5160    1.3900   26.7550 C   0  0  0  0  0  0  0  0  0  0  0  0
    6.3920    0.2440   28.0570 C   0  0  0  0  0  0  0  0  0  0  0  0
    7.4640   -1.0850   29.7360 C   0  0  0  0  0  0  0  0  0  0  0  0
  1  2  2  3
  1  3  1  0
  3  4  1  0
  3  5  1  0
  4  6  1  0
  5  7  1  0
  6  8  1  0
  7  8  1  0
  8  9  1  0
  9 10  1  0
 10 11  2  0
 10 12  1  0
 11 13  1  0
 12 14  2  0
 13 15  1  0
 13 16  2  0
 14 16  1  0
 14 17  1  0
M  END
