GIA-UNK-20b63697-7-chloroacetamide
     RDKit          3D

 21 22  0  0  0  0  0  0  0  0999 V2000
    7.6150   -5.2980   20.7800 C   0  0  0  0  0  0  0  0  0  0  0  0
    6.2190   -5.1100   21.2830 C   0  0  0  0  0  0  0  0  0  0  0  0
    5.4040   -5.0030   20.2120 O   0  0  0  0  0  0  0  0  0  0  0  0
    6.0450   -5.0940   22.8070 N   0  0  0  0  0  0  0  0  0  0  0  0
    4.8070   -5.3120   23.6380 C   0  0  0  0  0  0  0  0  0  0  0  0
    7.2470   -5.1900   23.7500 C   0  0  0  0  0  0  0  0  0  0  0  0
    4.9640   -5.1620   25.1980 C   0  0  0  0  0  0  0  0  0  0  0  0
    7.1900   -4.4140   25.1110 C   0  0  0  0  0  0  0  0  0  0  0  0
    5.8420   -4.0630   25.5340 N   0  0  0  0  0  0  0  0  0  0  0  0
    5.3740   -2.8260   24.9460 C   0  0  2  0  0  0  0  0  0  0  0  0
    5.9850   -2.8330   23.5380 C   0  0  0  0  0  0  0  0  0  0  0  0
    5.2810   -1.4860   25.7540 C   0  0  0  0  0  0  0  0  0  0  0  0
    5.1020   -2.9650   22.4550 C   0  0  0  0  0  0  0  0  0  0  0  0
    7.3550   -2.7370   23.2560 C   0  0  0  0  0  0  0  0  0  0  0  0
    3.9080   -0.7970   25.6050 C   0  0  0  0  0  0  0  0  0  0  0  0
    6.3960   -0.4450   25.5620 C   0  0  0  0  0  0  0  0  0  0  0  0
    5.5690   -3.0050   21.1450 C   0  0  0  0  0  0  0  0  0  0  0  0
    7.8140   -2.7840   21.9430 C   0  0  0  0  0  0  0  0  0  0  0  0
    3.4420   -0.2790   26.8480 O   0  0  0  0  0  0  0  0  0  0  0  0
    6.0480    0.8190   26.1100 O   0  0  0  0  0  0  0  0  0  0  0  0
    6.9270   -2.9150   20.8950 C   0  0  0  0  0  0  0  0  0  0  0  0
  1  2  1  0
  2  3  2  0
  2  4  1  0
  4  5  1  0
  4  6  1  0
  5  7  1  0
  6  8  1  0
  7  9  1  0
  8  9  1  0
  9 10  1  0
 10 11  1  0
 10 12  1  1
 11 13  2  0
 11 14  1  0
 12 15  1  0
 12 16  1  0
 13 17  1  0
 14 18  2  0
 15 19  1  0
 16 20  1  0
 17 21  2  0
 18 21  1  0
M  END
