GIA-UNK-20b63697-2-chloroacetamide
     RDKit          3D

 22 24  0  0  0  0  0  0  0  0999 V2000
    7.6880   -4.7110   20.8440 C   0  0  0  0  0  0  0  0  0  0  0  0
    6.1850   -4.6140   21.2820 C   0  0  0  0  0  0  0  0  0  0  0  0
    5.8210   -4.9190   20.0910 O   0  0  0  0  0  0  0  0  0  0  0  0
    6.9330   -4.3140   22.4640 N   0  0  0  0  0  0  0  0  0  0  0  0
    7.0630   -2.9510   22.9880 C   0  0  0  0  0  0  0  0  0  0  0  0
    7.7760   -5.3180   23.1310 C   0  0  0  0  0  0  0  0  0  0  0  0
    7.7720   -2.9300   24.2030 C   0  0  0  0  0  0  0  0  0  0  0  0
    7.5780   -5.3500   24.5090 C   0  0  0  0  0  0  0  0  0  0  0  0
    7.3930   -4.0330   25.1130 N   0  0  0  0  0  0  0  0  0  0  0  0
    6.0890   -3.9060   25.7570 C   0  0  2  0  0  0  0  0  0  0  0  0
    5.9340   -4.5790   26.9650 C   0  0  0  0  0  0  0  0  0  0  0  0
    5.0960   -4.3130   24.6540 C   0  0  0  0  0  0  0  0  0  0  0  0
    4.8200   -4.0590   27.9110 C   0  0  0  0  0  0  0  0  0  0  0  0
    6.7310   -5.6800   27.3760 C   0  0  0  0  0  0  0  0  0  0  0  0
    4.1030   -5.4230   24.8800 C   0  0  0  0  0  0  0  0  0  0  0  0
    4.3160   -3.1190   24.1890 C   0  0  0  0  0  0  0  0  0  0  0  0
    4.6150   -4.6750   29.1510 C   0  0  0  0  0  0  0  0  0  0  0  0
    6.4980   -6.3320   28.7140 C   0  0  0  0  0  0  0  0  0  0  0  0
    3.9640   -5.5600   23.3860 C   0  0  0  0  0  0  0  0  0  0  0  0
    4.1830   -3.3670   22.8650 C   0  0  0  0  0  0  0  0  0  0  0  0
    5.5000   -5.8500   29.5390 C   0  0  0  0  0  0  0  0  0  0  0  0
    3.4750   -4.3710   22.7020 O   0  0  0  0  0  0  0  0  0  0  0  0
  1  2  1  0
  2  3  2  0
  2  4  1  0
  4  5  1  0
  4  6  1  0
  5  7  1  0
  6  8  1  0
  7  9  1  0
  8  9  1  0
  9 10  1  0
 10 11  1  1
 10 12  1  0
 11 13  2  0
 11 14  1  0
 12 15  1  0
 12 16  1  0
 13 17  1  0
 14 18  2  0
 15 19  1  0
 16 20  1  0
 17 21  2  0
 18 21  1  0
 19 22  1  0
 20 22  1  0
M  END
