GIA-UNK-20b63697-8-bromoalkyne
     RDKit          3D

 25 27  0  0  0  0  0  0  0  0999 V2000
    6.7790   -4.3870   20.3490 C   0  0  0  0  0  0  0  0  0  0  0  0
    5.7970   -3.5550   19.5300 C   0  0  0  0  0  0  0  0  0  0  0  0
    6.7200   -4.4970   21.7560 N   0  0  0  0  0  0  0  0  0  0  0  0
    7.8420   -4.1950   22.5950 C   0  0  0  0  0  0  0  0  0  0  0  0
    5.8150   -5.3890   22.5240 C   0  0  0  0  0  0  0  0  0  0  0  0
    7.6400   -3.3820   23.7030 C   0  0  0  0  0  0  0  0  0  0  0  0
    5.8590   -5.0730   24.0630 C   0  0  0  0  0  0  0  0  0  0  0  0
    6.5150   -3.8230   24.5470 N   0  0  0  0  0  0  0  0  0  0  0  0
    5.7070   -2.7510   25.1940 C   0  0  1  0  0  0  0  0  0  0  0  0
    6.3760   -1.9950   26.3500 C   0  0  0  0  0  0  0  0  0  0  0  0
    5.0040   -1.8390   24.1200 C   0  0  0  0  0  0  0  0  0  0  0  0
    6.1480   -2.5190   27.7720 C   0  0  0  0  0  0  0  0  0  0  0  0
    7.1720   -0.8570   26.1510 C   0  0  0  0  0  0  0  0  0  0  0  0
    5.7560   -0.5000   23.8560 C   0  0  0  0  0  0  0  0  0  0  0  0
    4.8120   -2.6170   22.8090 C   0  0  0  0  0  0  0  0  0  0  0  0
    6.8030   -1.7740   28.9460 C   0  0  0  0  0  0  0  0  0  0  0  0
    7.7650   -0.1800   27.2090 C   0  0  0  0  0  0  0  0  0  0  0  0
    5.4270    0.2790   22.6050 C   0  0  0  0  0  0  0  0  0  0  0  0
    5.5670   -1.9960   21.6420 C   0  0  0  0  0  0  0  0  0  0  0  0
    7.5730   -0.6540   28.6420 C   0  0  0  0  0  0  0  0  0  0  0  0
    5.2000   -0.6030   21.4580 N   0  0  0  0  0  0  0  0  0  0  0  0
    4.9490   -0.1680   20.1620 C   0  0  0  0  0  0  0  0  0  0  0  0
    5.2520   -0.8330   19.1690 O   0  0  0  0  0  0  0  0  0  0  0  0
    4.2720    1.1900   19.9510 C   0  0  0  0  0  0  0  0  0  0  0  0
    5.2220    2.1860   19.5900 O   0  0  0  0  0  0  0  0  0  0  0  0
  1  2  2  3
  1  3  1  0
  3  4  1  0
  3  5  1  0
  4  6  1  0
  5  7  1  0
  6  8  1  0
  7  8  1  0
  8  9  1  0
  9 10  1  6
  9 11  1  0
 10 12  2  0
 10 13  1  0
 11 14  1  0
 11 15  1  0
 12 16  1  0
 13 17  2  0
 14 18  1  0
 15 19  1  0
 16 20  2  0
 17 20  1  0
 18 21  1  0
 19 21  1  0
 21 22  1  0
 22 23  2  0
 22 24  1  0
 24 25  1  0
M  END
