GIA-UNK-995df016-3
     RDKit          3D

 16 17  0  0  0  0  0  0  0  0999 V2000
    8.0230   -3.3250   20.3380 O   0  0  0  0  0  0  0  0  0  0  0  0
    6.9130   -2.8580   20.4760 C   0  0  0  0  0  0  0  0  0  0  0  0
    5.5630   -3.1170   19.4090 S   0  0  0  0  0  0  0  0  0  0  0  0
    6.5890   -1.9700   21.6120 C   0  0  0  0  0  0  0  0  0  0  0  0
    6.0020   -1.6480   18.5020 C   0  0  0  0  0  0  0  0  0  0  0  0
    6.2230   -2.8770   22.7760 C   0  0  0  0  0  0  0  0  0  0  0  0
    7.8390   -1.1110   21.8450 C   0  0  0  0  0  0  0  0  0  0  0  0
    6.7770   -2.0830   17.4930 F   0  0  0  0  0  0  0  0  0  0  0  0
    7.4380   -3.6910   23.1690 C   0  0  0  0  0  0  0  0  0  0  0  0
    8.9990   -1.9130   22.4420 C   0  0  0  0  0  0  0  0  0  0  0  0
    8.5480   -2.8030   23.5150 N   0  0  0  0  0  0  0  0  0  0  0  0
    9.3310   -3.2240   24.5860 C   0  0  0  0  0  0  0  0  0  0  0  0
   10.2650   -2.6000   25.0830 O   0  0  0  0  0  0  0  0  0  0  0  0
    8.9270   -4.5570   25.1120 C   0  0  0  0  0  0  0  0  0  0  0  0
    9.0750   -5.0420   26.5420 C   0  0  0  0  0  0  0  0  0  0  0  0
   10.0040   -5.5170   25.4960 C   0  0  0  0  0  0  0  0  0  0  0  0
  1  2  2  0
  2  3  1  0
  2  4  1  0
  3  5  1  0
  4  6  1  0
  4  7  1  0
  5  8  1  0
  6  9  1  0
  7 10  1  0
  9 11  1  0
 10 11  1  0
 11 12  1  0
 12 13  2  0
 12 14  1  0
 14 15  1  0
 14 16  1  0
 15 16  1  0
M  END
