GIA-UNK-995df016-17
     RDKit          3D

 18 19  0  0  0  0  0  0  0  0999 V2000
    4.6800   -0.4400   21.4500 O   0  0  0  0  0  0  0  0  0  0  0  0
    5.7200   -1.0110   21.1450 C   0  0  0  0  0  0  0  0  0  0  0  0
    6.1390   -1.3510   19.4740 S   0  0  0  0  0  0  0  0  0  0  0  0
    6.7790   -1.4640   22.1270 C   0  0  0  0  0  0  0  0  0  0  0  0
    5.2060   -2.8510   19.2800 C   0  0  0  0  0  0  0  0  0  0  0  0
    6.6370   -2.8370   22.3610 C   0  0  0  0  0  0  0  0  0  0  0  0
    8.1380   -1.0960   21.5140 C   0  0  0  0  0  0  0  0  0  0  0  0
    5.3390   -3.7620   20.2810 F   0  0  0  0  0  0  0  0  0  0  0  0
    7.6440   -3.5170   23.0420 C   0  0  0  0  0  0  0  0  0  0  0  0
    9.2750   -1.9340   22.0950 C   0  0  0  0  0  0  0  0  0  0  0  0
    8.8380   -2.7010   23.2480 N   0  0  0  0  0  0  0  0  0  0  0  0
    9.7650   -3.1620   24.1790 C   0  0  0  0  0  0  0  0  0  0  0  0
   10.9440   -2.8080   24.1030 O   0  0  0  0  0  0  0  0  0  0  0  0
    9.3440   -4.1150   25.2920 C   0  0  0  0  0  0  0  0  0  0  0  0
    9.8550   -5.4440   25.3050 C   0  0  0  0  0  0  0  0  0  0  0  0
    8.5060   -3.9140   26.3620 N   0  0  0  0  0  0  0  0  0  0  0  0
    9.3550   -6.1140   26.3950 C   0  0  0  0  0  0  0  0  0  0  0  0
    8.4800   -5.0850   27.0590 C   0  0  0  0  0  0  0  0  0  0  0  0
  1  2  2  0
  2  3  1  0
  2  4  1  0
  3  5  1  0
  4  6  1  0
  4  7  1  0
  5  8  1  0
  6  9  1  0
  7 10  1  0
  9 11  1  0
 10 11  1  0
 11 12  1  0
 12 13  2  0
 12 14  1  0
 14 15  2  0
 14 16  1  0
 15 17  1  0
 16 18  1  0
 17 18  2  0
M  END
