GIA-UNK-d2defdc3-7-bromoalkyne
     RDKit          3D

 19 20  0  0  0  0  0  0  0  0999 V2000
    6.4040   -2.9300   20.2870 C   0  0  0  0  0  0  0  0  0  0  0  0
    5.3360   -3.0830   19.4870 C   0  0  0  0  0  0  0  0  0  0  0  0
    6.5270   -1.6140   20.9480 N   0  0  0  0  0  0  0  0  0  0  0  0
    5.7430   -1.0360   22.1070 C   0  0  0  0  0  0  0  0  0  0  0  0
    5.1900    0.3270   21.7040 C   0  0  0  0  0  0  0  0  0  0  0  0
    4.8430    1.4190   22.4420 O   0  0  0  0  0  0  0  0  0  0  0  0
    5.1630    0.1240   20.2060 C   0  0  2  0  0  0  0  0  0  0  0  0
    6.4790    0.3220   19.5340 C   0  0  0  0  0  0  0  0  0  0  0  0
    4.3390    1.0530   19.3900 N   0  0  0  0  0  0  0  0  0  0  0  0
    6.2160    0.4820   18.2220 C   0  0  0  0  0  0  0  0  0  0  0  0
    4.9910    1.1430   18.0630 C   0  0  0  0  0  0  0  0  0  0  0  0
    3.9650    2.3320   20.0060 C   0  0  0  0  0  0  0  0  0  0  0  0
    4.8230    3.1980   20.7510 O   0  0  0  0  0  0  0  0  0  0  0  0
    2.6330    2.7620   19.8750 C   0  0  0  0  0  0  0  0  0  0  0  0
    1.6620    1.9100   20.5540 C   0  0  0  0  0  0  0  0  0  0  0  0
    2.4640    3.9540   19.1070 C   0  0  0  0  0  0  0  0  0  0  0  0
    0.2990    2.6390   20.2430 C   0  0  0  0  0  0  0  0  0  0  0  0
    1.2660    4.5480   18.8630 C   0  0  0  0  0  0  0  0  0  0  0  0
    0.0510    3.9060   19.4400 C   0  0  0  0  0  0  0  0  0  0  0  0
  1  2  2  3
  1  3  1  0
  3  4  1  0
  4  5  1  0
  5  6  2  0
  7  5  1  1
  7  8  1  0
  7  9  1  0
  8 10  1  0
  9 11  1  0
 10 11  1  0
  9 12  1  0
 12 13  2  0
 12 14  1  0
 14 15  2  0
 14 16  1  0
 15 17  1  0
 16 18  2  0
 17 19  2  0
 18 19  1  0
M  END
