GIA-UNK-595fac82-3
     RDKit          3D

 19 20  0  0  0  0  0  0  0  0999 V2000
    7.8450   -0.7060   30.3030 C   0  0  0  0  0  0  0  0  0  0  0  0
    6.8640   -1.5320   29.8000 N   0  0  0  0  0  0  0  0  0  0  0  0
    7.1010   -2.2030   28.5350 C   0  0  0  0  0  0  0  0  0  0  0  0
    7.0280   -1.6430   27.4500 O   0  0  0  0  0  0  0  0  0  0  0  0
    7.4480   -3.5200   28.7310 O   0  0  0  0  0  0  0  0  0  0  0  0
    6.4330   -4.5030   29.0190 C   0  0  0  0  0  0  0  0  0  0  0  0
    6.4670   -5.5040   28.0900 C   0  0  0  0  0  0  0  0  0  0  0  0
    5.0830   -3.8420   28.9540 C   0  0  0  0  0  0  0  0  0  0  0  0
    6.0520   -5.1680   26.8150 C   0  0  0  0  0  0  0  0  0  0  0  0
    4.9690   -3.1810   27.7100 C   0  0  0  0  0  0  0  0  0  0  0  0
    5.8550   -3.7260   26.6720 N   0  0  0  0  0  0  0  0  0  0  0  0
    5.5150   -3.2320   25.4140 C   0  0  0  0  0  0  0  0  0  0  0  0
    4.6510   -2.3810   25.2430 O   0  0  0  0  0  0  0  0  0  0  0  0
    6.1400   -3.7040   24.2810 C   0  0  0  0  0  0  0  0  0  0  0  0
    7.1760   -2.8600   23.5880 C   0  0  0  0  0  0  0  0  0  0  0  0
    5.8140   -4.9610   23.7650 C   0  0  0  0  0  0  0  0  0  0  0  0
    7.7560   -3.5010   22.3760 C   0  0  0  0  0  0  0  0  0  0  0  0
    6.4310   -5.4480   22.6220 C   0  0  0  0  0  0  0  0  0  0  0  0
    7.3710   -4.7630   21.9380 N   0  0  0  0  0  0  0  0  0  0  0  0
  1  2  1  0
  2  3  1  0
  3  4  2  0
  3  5  1  0
  5  6  1  0
  6  7  1  0
  6  8  1  0
  7  9  1  0
  8 10  1  0
  9 11  1  0
 10 11  1  0
 11 12  1  0
 12 13  2  0
 12 14  1  0
 14 15  2  0
 14 16  1  0
 15 17  1  0
 16 18  2  0
 17 19  2  0
 18 19  1  0
M  END
