GIA-UNK-d2defdc3-5
     RDKit          3D

 23 25  0  0  0  0  0  0  0  0999 V2000
    3.2880    0.0210   22.5030 O   0  0  0  0  0  0  0  0  0  0  0  0
    3.6500    1.0540   21.9490 C   0  0  0  0  0  0  0  0  0  0  0  0
    3.2720    2.4200   22.3300 N   0  0  0  0  0  0  0  0  0  0  0  0
    4.5780    0.9330   20.7870 C   0  0  0  0  0  0  0  0  0  0  0  0
    1.9830    2.8660   21.7580 C   0  0  1  0  0  0  0  0  0  0  0  0
    4.2430    1.4180   19.3540 C   0  0  0  0  0  0  0  0  0  0  0  0
    5.8470    0.3350   21.0120 C   0  0  0  0  0  0  0  0  0  0  0  0
    1.1560    1.6320   21.3640 C   0  0  0  0  0  0  0  0  0  0  0  0
    1.2030    3.8160   22.7280 C   0  0  1  0  0  0  0  0  0  0  0  0
    5.2910    1.2350   18.2500 C   0  0  0  0  0  0  0  0  0  0  0  0
    6.8180    0.1570   20.0210 C   0  0  0  0  0  0  0  0  0  0  0  0
    0.0750    2.2350   20.4490 C   0  0  0  0  0  0  0  0  0  0  0  0
   -0.2120    3.2620   22.8600 C   0  0  0  0  0  0  0  0  0  0  0  0
    1.9040    3.8520   23.9460 C   0  0  0  0  0  0  0  0  0  0  0  0
    6.5830    0.5720   18.7170 C   0  0  0  0  0  0  0  0  0  0  0  0
   -0.5340    3.3020   21.3650 C   0  0  0  0  0  0  0  0  0  0  0  0
    2.2870    2.8600   24.5580 O   0  0  0  0  0  0  0  0  0  0  0  0
    2.0920    5.2840   24.3660 N   0  0  0  0  0  0  0  0  0  0  0  0
    1.0000    5.7760   25.2200 C   0  0  0  0  0  0  0  0  0  0  0  0
    3.4560    5.7420   24.7710 C   0  0  0  0  0  0  0  0  0  0  0  0
    1.2250    7.1250   25.4990 C   0  0  0  0  0  0  0  0  0  0  0  0
    3.4290    7.1020   25.0980 C   0  0  0  0  0  0  0  0  0  0  0  0
    2.3400    7.3460   25.9880 O   0  0  0  0  0  0  0  0  0  0  0  0
  1  2  2  0
  2  3  1  0
  2  4  1  0
  5  3  1  1
  4  6  2  0
  4  7  1  0
  5  8  1  0
  5  9  1  0
  6 10  1  0
  7 11  2  0
  8 12  1  0
  9 13  1  0
  9 14  1  1
 10 15  2  0
 11 15  1  0
 12 16  1  0
 13 16  1  0
 14 17  2  0
 14 18  1  0
 18 19  1  0
 18 20  1  0
 19 21  1  0
 20 22  1  0
 21 23  1  0
 22 23  1  0
M  END
