GIA-UNK-5ec6c2b8-5
     RDKit          3D

 18 19  0  0  0  0  0  0  0  0999 V2000
    4.5410   -2.8500   25.7580 O   0  0  0  0  0  0  0  0  0  0  0  0
    5.6390   -3.2810   25.4590 C   0  0  0  0  0  0  0  0  0  0  0  0
    6.8050   -3.6360   26.7260 S   0  0  0  0  0  0  0  0  0  0  0  0
    6.0350   -3.5200   24.0070 C   0  0  0  0  0  0  0  0  0  0  0  0
    5.9900   -5.0050   23.6340 C   0  0  0  0  0  0  0  0  0  0  0  0
    7.3770   -2.8750   23.6370 C   0  0  0  0  0  0  0  0  0  0  0  0
    6.3700   -5.1870   22.1700 C   0  0  0  0  0  0  0  0  0  0  0  0
    7.6290   -3.0340   22.1400 C   0  0  0  0  0  0  0  0  0  0  0  0
    6.6030   -3.8850   21.5320 N   0  0  0  0  0  0  0  0  0  0  0  0
    6.1650   -3.5700   20.2420 C   0  0  0  0  0  0  0  0  0  0  0  0
    5.3300   -4.3090   19.7110 O   0  0  0  0  0  0  0  0  0  0  0  0
    6.7990   -2.3580   19.5050 C   0  0  0  0  0  0  0  0  0  0  0  0
    6.3190   -0.9400   19.7200 C   0  0  0  0  0  0  0  0  0  0  0  0
    5.2550   -0.4510   18.9530 C   0  0  0  0  0  0  0  0  0  0  0  0
    6.9220   -0.0880   20.6610 C   0  0  0  0  0  0  0  0  0  0  0  0
    4.7960    0.8510   19.1130 C   0  0  0  0  0  0  0  0  0  0  0  0
    6.4600    1.2220   20.8220 C   0  0  0  0  0  0  0  0  0  0  0  0
    5.3980    1.6890   20.0480 C   0  0  0  0  0  0  0  0  0  0  0  0
  1  2  2  0
  2  3  1  0
  2  4  1  0
  4  5  1  0
  4  6  1  0
  5  7  1  0
  6  8  1  0
  7  9  1  0
  8  9  1  0
  9 10  1  0
 10 11  2  0
 10 12  1  0
 12 13  1  0
 13 14  2  0
 13 15  1  0
 14 16  1  0
 15 17  2  0
 16 18  2  0
 17 18  1  0
M  END
