GIA-UNK-d2defdc3-7-vinylsulfonamide
     RDKit          3D

 22 23  0  0  0  0  0  0  0  0999 V2000
    7.1960   -2.4110   18.6860 C   0  0  0  0  0  0  0  0  0  0  0  0
    5.9420   -2.5020   19.0940 C   0  0  0  0  0  0  0  0  0  0  0  0
    5.7660   -2.0460   20.7840 S   0  0  0  0  0  0  0  0  0  0  0  0
    4.7320   -2.9700   21.3000 O   0  0  0  0  0  0  0  0  0  0  0  0
    7.0600   -2.0360   21.4300 O   0  0  0  0  0  0  0  0  0  0  0  0
    5.2850   -0.3930   20.7770 N   0  0  0  0  0  0  0  0  0  0  0  0
    4.7540    0.0630   22.0770 C   0  0  0  0  0  0  0  0  0  0  0  0
    4.9230    1.5800   22.2960 C   0  0  0  0  0  0  0  0  0  0  0  0
    5.9820    2.1910   22.4850 O   0  0  0  0  0  0  0  0  0  0  0  0
    3.4950    2.1470   22.2270 C   0  0  1  0  0  0  0  0  0  0  0  0
    2.3390    1.1880   22.1530 C   0  0  0  0  0  0  0  0  0  0  0  0
    3.0160    2.8530   23.4460 N   0  0  0  0  0  0  0  0  0  0  0  0
    1.8370    0.9380   23.4200 C   0  0  0  0  0  0  0  0  0  0  0  0
    2.4300    1.8190   24.3150 C   0  0  0  0  0  0  0  0  0  0  0  0
    2.0690    3.9020   23.0450 C   0  0  0  0  0  0  0  0  0  0  0  0
    2.3900    4.7830   22.2500 O   0  0  0  0  0  0  0  0  0  0  0  0
    0.7700    3.9180   23.5710 C   0  0  0  0  0  0  0  0  0  0  0  0
    0.4990    4.8550   24.6110 C   0  0  0  0  0  0  0  0  0  0  0  0
   -0.2570    3.0500   23.0800 C   0  0  0  0  0  0  0  0  0  0  0  0
   -0.9100    4.9640   25.2330 C   0  0  0  0  0  0  0  0  0  0  0  0
   -1.5630    3.0730   23.5780 C   0  0  0  0  0  0  0  0  0  0  0  0
   -1.9950    4.0400   24.6980 C   0  0  0  0  0  0  0  0  0  0  0  0
  1  2  1  0
  2  3  1  0
  3  4  2  0
  3  5  2  0
  3  6  1  0
  6  7  1  0
  7  8  1  0
  8  9  2  0
 10  8  1  1
 10 11  1  0
 10 12  1  0
 11 13  1  0
 12 14  1  0
 13 14  1  0
 12 15  1  0
 15 16  2  0
 15 17  1  0
 17 18  2  0
 17 19  1  0
 18 20  1  0
 19 21  2  0
 20 22  2  0
 21 22  1  0
M  END
