GIA-UNK-20b63697-8-vinylsulfonamide
     RDKit          3D

 28 30  0  0  0  0  0  0  0  0999 V2000
    6.3800   -4.7480   20.2970 C   0  0  0  0  0  0  0  0  0  0  0  0
    6.5600   -5.1050   21.7630 C   0  0  0  0  0  0  0  0  0  0  0  0
    5.0950   -4.6800   22.6800 S   0  0  0  0  0  0  0  0  0  0  0  0
    4.0130   -5.5410   22.2640 O   0  0  0  0  0  0  0  0  0  0  0  0
    4.8860   -3.2690   22.5570 O   0  0  0  0  0  0  0  0  0  0  0  0
    5.4890   -4.9920   24.3240 N   0  0  0  0  0  0  0  0  0  0  0  0
    6.9360   -5.1580   24.7070 C   0  0  0  0  0  0  0  0  0  0  0  0
    4.7320   -4.1600   25.3340 C   0  0  0  0  0  0  0  0  0  0  0  0
    7.6370   -3.8180   25.0700 C   0  0  0  0  0  0  0  0  0  0  0  0
    5.6400   -3.4630   26.3750 C   0  0  0  0  0  0  0  0  0  0  0  0
    6.8110   -2.8000   25.7730 N   0  0  0  0  0  0  0  0  0  0  0  0
    6.5070   -1.5790   24.9620 C   0  0  1  0  0  0  0  0  0  0  0  0
    6.4130   -0.3390   25.8140 C   0  0  0  0  0  0  0  0  0  0  0  0
    7.4200   -1.2550   23.7070 C   0  0  0  0  0  0  0  0  0  0  0  0
    7.4840    0.5620   25.8710 C   0  0  0  0  0  0  0  0  0  0  0  0
    5.2660   -0.0490   26.5660 C   0  0  0  0  0  0  0  0  0  0  0  0
    7.2690   -2.2530   22.5510 C   0  0  0  0  0  0  0  0  0  0  0  0
    7.3130    0.1920   23.1570 C   0  0  0  0  0  0  0  0  0  0  0  0
    7.3990    1.7170   26.6590 C   0  0  0  0  0  0  0  0  0  0  0  0
    5.1830    1.1050   27.3520 C   0  0  0  0  0  0  0  0  0  0  0  0
    6.2680   -1.8130   21.6810 C   0  0  0  0  0  0  0  0  0  0  0  0
    7.4700    0.3030   21.6270 C   0  0  0  0  0  0  0  0  0  0  0  0
    6.2530    1.9980   27.4040 C   0  0  0  0  0  0  0  0  0  0  0  0
    6.6420   -0.6560   20.8980 N   0  0  0  0  0  0  0  0  0  0  0  0
    5.7840   -0.1890   19.9010 C   0  0  0  0  0  0  0  0  0  0  0  0
    5.0980    0.1070   20.8680 O   0  0  0  0  0  0  0  0  0  0  0  0
    6.8260   -0.6660   19.1350 C   0  0  0  0  0  0  0  0  0  0  0  0
    7.2200    0.2980   18.1760 O   0  0  0  0  0  0  0  0  0  0  0  0
  1  2  1  0
  3  2  1  0
  3  4  2  0
  3  5  2  0
  3  6  1  0
  6  7  1  0
  6  8  1  0
  7  9  1  0
  8 10  1  0
  9 11  1  0
 10 11  1  0
 11 12  1  0
 12 13  1  1
 12 14  1  0
 13 15  2  0
 13 16  1  0
 14 17  1  0
 14 18  1  0
 15 19  1  0
 16 20  2  0
 17 21  1  0
 18 22  1  0
 19 23  2  0
 20 23  1  0
 21 24  1  0
 22 24  1  0
 24 25  1  0
 25 26  2  0
 25 27  1  0
 27 28  1  0
M  END
