GIA-UNK-20b63697-6-nitrile
     RDKit          3D

 21 23  0  0  0  0  0  0  0  0999 V2000
    6.6570   -4.0880   20.3970 C   0  0  0  0  0  0  0  0  0  0  0  0
    5.5860   -4.6920   20.0210 N   0  0  0  0  0  0  0  0  0  0  0  0
    6.6820   -3.2130   21.5160 N   0  0  0  0  0  0  0  0  0  0  0  0
    7.7940   -3.1390   22.5230 C   0  0  0  0  0  0  0  0  0  0  0  0
    5.5420   -2.3050   21.7590 C   0  0  0  0  0  0  0  0  0  0  0  0
    7.4480   -2.5530   23.9430 C   0  0  0  0  0  0  0  0  0  0  0  0
    5.7420   -1.3370   22.9450 C   0  0  0  0  0  0  0  0  0  0  0  0
    6.0790   -2.0110   24.2060 N   0  0  0  0  0  0  0  0  0  0  0  0
    5.1170   -3.0990   24.5810 C   0  0  1  0  0  0  0  0  0  0  0  0
    5.5220   -4.3950   23.8930 C   0  0  0  0  0  0  0  0  0  0  0  0
    4.8950   -3.4190   26.1270 C   0  0  0  0  0  0  0  0  0  0  0  0
    6.8260   -4.9040   23.9890 C   0  0  0  0  0  0  0  0  0  0  0  0
    4.5740   -5.0940   23.1470 C   0  0  0  0  0  0  0  0  0  0  0  0
    4.9110   -2.2080   27.0930 C   0  0  0  0  0  0  0  0  0  0  0  0
    5.7960   -4.6030   26.6120 C   0  0  0  0  0  0  0  0  0  0  0  0
    7.1660   -6.0790   23.3510 C   0  0  0  0  0  0  0  0  0  0  0  0
    4.9330   -6.2730   22.5170 C   0  0  0  0  0  0  0  0  0  0  0  0
    4.8410   -2.6010   28.5740 C   0  0  0  0  0  0  0  0  0  0  0  0
    5.6060   -4.9820   28.0770 C   0  0  0  0  0  0  0  0  0  0  0  0
    6.2230   -6.7580   22.6210 C   0  0  0  0  0  0  0  0  0  0  0  0
    4.5820   -4.0940   28.7740 C   0  0  0  0  0  0  0  0  0  0  0  0
  1  2  2  3
  1  3  1  0
  3  4  1  0
  3  5  1  0
  4  6  1  0
  5  7  1  0
  6  8  1  0
  7  8  1  0
  8  9  1  0
  9 10  1  6
  9 11  1  0
 10 12  2  0
 10 13  1  0
 11 14  1  0
 11 15  1  0
 12 16  1  0
 13 17  2  0
 14 18  1  0
 15 19  1  0
 16 20  2  0
 17 20  1  0
 18 21  1  0
 19 21  1  0
M  END
