GUZ-UNI-167d4d0a-1
     RDKit          3D

 35 38  0  0  0  0  0  0  0  0999 V2000
   13.5440   10.3630   17.2690 C   0  0  0  0  0  0  0  0  0  0  0  0
   14.6910    9.2500   17.6160 C   0  0  0  0  0  0  0  0  0  0  0  0
   14.9610    8.2790   18.8290 C   0  0  0  0  0  0  0  0  0  0  0  0
   14.6290    6.8270   18.8620 N   0  0  0  0  0  0  0  0  0  0  0  0
   14.0410    5.9920   20.0260 C   0  0  0  0  0  0  0  0  0  0  0  0
   15.7960    6.2560   18.4220 C   0  0  0  0  0  0  0  0  0  0  0  0
   13.2200    6.3260   21.3610 C   0  0  0  0  0  0  0  0  0  0  0  0
   14.4670    4.6020   19.9310 C   0  0  0  0  0  0  0  0  0  0  0  0
   15.3910    4.4970   18.4280 S   0  0  0  0  0  0  0  0  0  0  0  0
   16.6820    7.5480   18.2620 N   0  0  0  0  0  0  0  0  0  0  0  0
   13.5210    7.2180   22.1500 O   0  0  0  0  0  0  0  0  0  0  0  0
   12.0760    5.5330   21.7610 N   0  0  0  0  0  0  0  0  0  0  0  0
   17.9740    8.1340   17.9930 N   0  0  0  0  0  0  0  0  0  0  0  0
   12.2500    4.1640   21.7490 C   0  0  0  0  0  0  0  0  0  0  0  0
   10.9670    6.1940   22.5350 C   0  0  0  0  0  0  0  0  0  0  0  0
   19.0110    8.0300   18.9660 C   0  0  0  0  0  0  0  0  0  0  0  0
   11.4370    3.3970   22.7210 C   0  0  0  0  0  0  0  0  0  0  0  0
   10.2590    5.3190   23.4080 C   0  0  0  0  0  0  0  0  0  0  0  0
   20.2850    8.6330   18.8930 C   0  0  0  0  0  0  0  0  0  0  0  0
   10.1950    3.9060   22.9240 N   0  0  0  0  0  0  0  0  0  0  0  0
   20.8420    9.5740   18.0240 C   0  0  0  0  0  0  0  0  0  0  0  0
    8.9340    3.2750   22.9100 C   0  0  0  0  0  0  0  0  0  0  0  0
   22.1370   10.1150   18.0450 C   0  0  0  0  0  0  0  0  0  0  0  0
    9.1270    1.9210   22.6330 C   0  0  0  0  0  0  0  0  0  0  0  0
   22.5550   11.2110   17.3150 C   0  0  0  0  0  0  0  0  0  0  0  0
   23.2840    9.6740   18.7900 O   0  0  0  0  0  0  0  0  0  0  0  0
   10.4160    1.4710   22.9010 C   0  0  0  0  0  0  0  0  0  0  0  0
   23.9620   11.4870   17.5760 C   0  0  0  0  0  0  0  0  0  0  0  0
   24.4170   10.4670   18.5450 C   0  0  0  0  0  0  0  0  0  0  0  0
   11.0460    0.2390   22.7560 C   0  0  0  0  0  0  0  0  0  0  0  0
   10.4130   -0.8220   22.0630 C   0  0  0  0  0  0  0  0  0  0  0  0
   12.4290    0.0070   23.3240 C   0  0  0  0  0  0  0  0  0  0  0  0
   10.9960   -2.0750   21.8650 C   0  0  0  0  0  0  0  0  0  0  0  0
   13.0280   -1.3610   23.0960 C   0  0  0  0  0  0  0  0  0  0  0  0
   12.3740   -2.3380   22.4140 C   0  0  0  0  0  0  0  0  0  0  0  0
  1  2  2  3
  2  3  1  0
  3  4  1  0
  4  5  1  0
  4  6  1  0
  5  7  1  0
  5  8  2  0
  6  9  1  0
  8  9  1  0
  6 10  2  3
  7 11  2  0
  7 12  1  0
 10 13  1  0
 12 14  1  0
 12 15  1  0
 13 16  2  3
 14 17  1  0
 15 18  1  0
 16 19  1  0
 17 20  1  0
 18 20  1  0
 19 21  2  3
 20 22  1  0
 21 23  1  0
 22 24  1  0
 23 25  2  0
 23 26  1  0
 24 27  2  3
 25 28  1  0
 26 29  1  0
 28 29  2  0
 27 30  1  0
 30 31  2  0
 30 32  1  0
 31 33  1  0
 32 34  2  0
 33 35  2  0
 34 35  1  0
M  END
