GUZ-UNI-5a173832-1
     RDKit          3D

 35 38  0  0  0  0  0  0  0  0999 V2000
   11.8050    2.6040   22.8530 C   0  0  0  0  0  0  0  0  0  0  0  0
   11.5650    1.1130   22.8410 C   0  0  0  0  0  0  0  0  0  0  0  0
   10.9470    1.2640   24.1820 C   0  0  0  0  0  0  0  0  0  0  0  0
    9.4840    1.3470   24.2330 N   0  0  0  0  0  0  0  0  0  0  0  0
    8.7000    0.3710   23.4810 C   0  0  0  0  0  0  0  0  0  0  0  0
    9.0530    2.6500   23.7630 C   0  0  0  0  0  0  0  0  0  0  0  0
    8.3740   -0.9810   24.1220 C   0  0  0  0  0  0  0  0  0  0  0  0
    8.3080    0.7660   22.2620 C   0  0  0  0  0  0  0  0  0  0  0  0
    8.9170    2.4480   21.9730 S   0  0  0  0  0  0  0  0  0  0  0  0
    8.8020    3.7600   24.4940 N   0  0  0  0  0  0  0  0  0  0  0  0
    8.9950   -1.2180   25.1450 O   0  0  0  0  0  0  0  0  0  0  0  0
    7.3580   -1.7970   23.4450 N   0  0  0  0  0  0  0  0  0  0  0  0
    8.3810    4.8620   23.7590 N   0  0  0  0  0  0  0  0  0  0  0  0
    7.3850   -3.1800   23.6420 C   0  0  0  0  0  0  0  0  0  0  0  0
    6.0370   -1.2050   23.2660 C   0  0  0  0  0  0  0  0  0  0  0  0
    7.3930    5.5230   24.3970 C   0  0  0  0  0  0  0  0  0  0  0  0
    6.7480   -3.6740   22.5300 C   0  0  0  0  0  0  0  0  0  0  0  0
    5.5350   -1.7380   22.0590 C   0  0  0  0  0  0  0  0  0  0  0  0
    6.8270    6.6430   23.7950 C   0  0  0  0  0  0  0  0  0  0  0  0
    6.4700   -2.7250   21.5480 N   0  0  0  0  0  0  0  0  0  0  0  0
    7.1600    6.8940   22.4770 C   0  0  0  0  0  0  0  0  0  0  0  0
    7.3440   -2.1470   20.7510 C   0  0  0  0  0  0  0  0  0  0  0  0
    6.5990    7.9850   21.8130 C   0  0  0  0  0  0  0  0  0  0  0  0
    8.6720   -2.2440   21.2170 C   0  0  0  0  0  0  0  0  0  0  0  0
    6.1100    7.9220   20.5290 C   0  0  0  0  0  0  0  0  0  0  0  0
    6.4210    9.2860   22.2730 O   0  0  0  0  0  0  0  0  0  0  0  0
    9.5600   -1.0480   21.6590 C   0  0  0  0  0  0  0  0  0  0  0  0
    5.6340    9.1450   20.1810 C   0  0  0  0  0  0  0  0  0  0  0  0
    5.8220   10.0060   21.2640 C   0  0  0  0  0  0  0  0  0  0  0  0
   10.9120   -1.6850   22.0690 C   0  0  0  0  0  0  0  0  0  0  0  0
   11.0180   -1.2540   23.5350 C   0  0  0  0  0  0  0  0  0  0  0  0
   11.9860   -2.5100   21.4420 C   0  0  0  0  0  0  0  0  0  0  0  0
   12.1550   -1.6600   24.2560 C   0  0  0  0  0  0  0  0  0  0  0  0
   13.0260   -2.8330   22.2550 C   0  0  0  0  0  0  0  0  0  0  0  0
   13.1190   -2.4350   23.5940 C   0  0  0  0  0  0  0  0  0  0  0  0
  1  2  2  3
  2  3  1  0
  3  4  1  0
  4  5  1  0
  4  6  1  0
  5  7  1  0
  5  8  2  0
  6  9  1  0
  8  9  1  0
  6 10  2  3
  7 11  2  0
  7 12  1  0
 10 13  1  0
 12 14  1  0
 12 15  1  0
 13 16  2  3
 14 17  1  0
 15 18  1  0
 16 19  1  0
 17 20  1  0
 18 20  1  0
 19 21  2  3
 20 22  1  0
 21 23  1  0
 22 24  1  0
 23 25  2  0
 23 26  1  0
 24 27  2  3
 25 28  1  0
 26 29  1  0
 28 29  2  0
 27 30  1  0
 30 31  2  0
 30 32  1  0
 31 33  1  0
 32 34  2  0
 33 35  2  0
 34 35  1  0
M  END
