HAN-NEW-5f56c3bc-4-nitrile
     RDKit          3D

 29 31  0  0  0  0  0  0  0  0999 V2000
    6.5030   -5.2610   20.7360 C   0  0  0  0  0  0  0  0  0  0  0  0
    5.4990   -4.7730   20.1570 N   0  0  0  0  0  0  0  0  0  0  0  0
    6.4540   -5.5200   22.1530 N   0  0  0  0  0  0  0  0  0  0  0  0
    5.4900   -4.7510   22.8950 C   0  0  0  0  0  0  0  0  0  0  0  0
    7.6640   -5.4070   22.9290 C   0  0  0  0  0  0  0  0  0  0  0  0
    6.2060   -3.5010   23.1950 C   0  0  0  0  0  0  0  0  0  0  0  0
    8.3010   -4.1030   22.4220 C   0  0  1  0  0  0  0  0  0  0  0  0
    7.2580   -3.2990   22.1950 N   0  0  0  0  0  0  0  0  0  0  0  0
    9.3070   -3.4690   23.2400 C   0  0  0  0  0  0  0  0  0  0  0  0
    6.7680   -2.9160   20.8720 C   0  0  0  0  0  0  0  0  0  0  0  0
   10.0900   -2.5540   22.4500 C   0  0  0  0  0  0  0  0  0  0  0  0
    7.7580   -2.2440   20.1890 C   0  0  0  0  0  0  0  0  0  0  0  0
    5.6550   -3.1450   20.3790 O   0  0  0  0  0  0  0  0  0  0  0  0
   11.5030   -2.0320   23.0140 C   0  0  0  0  0  0  0  0  0  0  0  0
   11.5240   -0.4770   23.1660 C   0  0  0  0  0  0  0  0  0  0  0  0
   10.5340   -1.2800   23.6570 C   0  0  0  0  0  0  0  0  0  0  0  0
   10.7590    0.6670   23.7020 C   0  0  0  0  0  0  0  0  0  0  0  0
   11.7980   -1.4200   22.9380 C   0  0  0  0  0  0  0  0  0  0  0  0
   12.0470    0.8900   22.9840 C   0  0  0  0  0  0  0  0  0  0  0  0
   10.3640    2.0040   24.0400 N   0  0  0  0  0  0  0  0  0  0  0  0
   12.8060   -0.2660   22.4710 C   0  0  0  0  0  0  0  0  0  0  0  0
   12.5980    2.2780   22.7550 C   0  0  0  0  0  0  0  0  0  0  0  0
   11.4110    2.0360   23.4310 C   0  0  0  0  0  0  0  0  0  0  0  0
   12.6620    3.7760   22.8040 C   0  0  0  0  0  0  0  0  0  0  0  0
   11.7270    4.5110   23.5110 C   0  0  0  0  0  0  0  0  0  0  0  0
   11.0040    5.4220   22.7750 N   0  0  0  0  0  0  0  0  0  0  0  0
   10.0750    6.2070   23.3370 C   0  0  0  0  0  0  0  0  0  0  0  0
    8.9480    6.7920   22.5190 C   0  0  0  0  0  0  0  0  0  0  0  0
   10.1140    6.4630   24.5430 O   0  0  0  0  0  0  0  0  0  0  0  0
  1  2  2  3
  1  3  1  0
  3  4  1  0
  3  5  1  0
  4  6  1  0
  5  7  1  0
  6  8  1  0
  7  8  1  0
  7  9  1  1
  8 10  1  0
  9 11  1  0
 10 12  1  0
 10 13  2  0
 11 14  1  0
 14 15  1  0
 15 16  2  0
 15 17  1  0
 16 18  1  0
 17 19  2  0
 17 20  1  0
 18 21  2  0
 19 21  1  0
 19 22  1  0
 20 23  1  0
 22 23  2  0
 22 24  1  0
 24 25  1  0
 25 26  1  0
 26 27  1  0
 27 28  1  0
 27 29  2  0
M  END
