HAR-NEW-972ef1cc-2-acrylamide
     RDKit          3D

 21 23  0  0  0  0  0  0  0  0999 V2000
    7.3230   -2.9740   18.7950 C   0  0  0  0  0  0  0  0  0  0  0  0
    6.6260   -2.4920   19.8300 C   0  0  0  0  0  0  0  0  0  0  0  0
    5.8630   -3.6450   20.4510 C   0  0  0  0  0  0  0  0  0  0  0  0
    5.0950   -4.2840   19.7440 O   0  0  0  0  0  0  0  0  0  0  0  0
    6.1430   -4.0310   21.7600 N   0  0  0  0  0  0  0  0  0  0  0  0
    5.8220   -5.4500   22.0140 C   0  0  0  0  0  0  0  0  0  0  0  0
    7.2930   -3.4520   22.4750 C   0  0  0  0  0  0  0  0  0  0  0  0
    6.5690   -6.1500   23.1670 C   0  0  0  0  0  0  0  0  0  0  0  0
    8.2970   -4.4950   22.9240 C   0  0  2  0  0  0  0  0  0  0  0  0
    7.6570   -5.3150   23.8180 C   0  0  0  0  0  0  0  0  0  0  0  0
    9.4580   -3.8790   23.3800 C   0  0  0  0  0  0  0  0  0  0  0  0
   10.1070   -2.8190   22.9520 N   0  0  0  0  0  0  0  0  0  0  0  0
   10.4650   -4.3290   24.6840 S   0  0  0  0  0  0  0  0  0  0  0  0
   11.1390   -2.1870   23.2590 C   0  0  0  0  0  0  0  0  0  0  0  0
   11.5310   -2.9550   24.3400 C   0  0  0  0  0  0  0  0  0  0  0  0
   12.6750   -2.5220   24.9770 C   0  0  0  0  0  0  0  0  0  0  0  0
   11.8450   -1.0570   22.8030 C   0  0  0  0  0  0  0  0  0  0  0  0
   12.4870   -1.1300   25.0090 C   0  0  1  0  0  0  0  0  0  0  0  0
   12.7740   -0.6000   23.7660 C   0  0  0  0  0  0  0  0  0  0  0  0
   11.1190   -0.8110   25.2410 C   0  0  0  0  0  0  0  0  0  0  0  0
   10.6710    0.2900   24.3200 N   0  0  0  0  0  0  0  0  0  0  0  0
  1  2  1  0
  2  3  1  0
  3  4  2  0
  3  5  1  0
  5  6  1  0
  5  7  1  0
  6  8  1  0
  7  9  1  0
  8 10  1  0
  9 10  1  0
  9 11  1  1
 11 12  2  0
 11 13  1  0
 12 14  1  0
 13 15  1  0
 14 15  2  0
 15 16  1  0
 14 17  1  0
 16 18  1  0
 17 19  1  0
 18 19  1  0
 18 20  1  6
 20 21  1  0
M  END
