HEI-REL-0c990a45-6
     RDKit          3D

 28 31  0  0  0  0  0  0  0  0999 V2000
    6.3020   -1.9130   19.1830 C   0  0  0  0  0  0  0  0  0  0  0  0
    6.0180   -3.0330   20.2020 C   0  0  0  0  0  0  0  0  0  0  0  0
    5.4700   -4.0910   19.8690 O   0  0  0  0  0  0  0  0  0  0  0  0
    6.4530   -2.7900   21.4970 N   0  0  0  0  0  0  0  0  0  0  0  0
    5.9040   -3.5540   22.6120 C   0  0  0  0  0  0  0  0  0  0  0  0
    7.8110   -2.2960   21.7310 C   0  0  0  0  0  0  0  0  0  0  0  0
    6.9680   -3.8850   23.6740 C   0  0  0  0  0  0  0  0  0  0  0  0
    7.8810   -1.7910   23.0370 C   0  0  1  0  0  0  0  0  0  0  0  0
    6.7110   -5.2510   24.3770 C   0  0  0  0  0  0  0  0  0  0  0  0
    7.9700   -2.9390   23.8480 C   0  0  0  0  0  0  0  0  0  0  0  0
    8.9170   -0.9200   23.1760 C   0  0  1  0  0  0  0  0  0  0  0  0
    7.9180   -5.2280   25.3240 C   0  0  0  0  0  0  0  0  0  0  0  0
    8.9450   -3.1730   24.7810 C   0  0  0  0  0  0  0  0  0  0  0  0
    8.6430    0.0920   24.1040 C   0  0  0  0  0  0  0  0  0  0  0  0
    9.9650   -1.5720   23.6460 N   0  0  0  0  0  0  0  0  0  0  0  0
    8.9140   -4.3010   25.5030 C   0  0  0  0  0  0  0  0  0  0  0  0
    9.8880    0.5280   24.9410 C   0  0  0  0  0  0  0  0  0  0  0  0
   10.9540   -0.8620   23.4420 C   0  0  0  0  0  0  0  0  0  0  0  0
   10.0250   -2.8240   23.1990 C   0  0  0  0  0  0  0  0  0  0  0  0
   11.1140    0.3050   24.0140 C   0  0  0  0  0  0  0  0  0  0  0  0
   11.7280   -1.4170   22.6140 C   0  0  0  0  0  0  0  0  0  0  0  0
   12.3340    1.0710   23.6520 C   0  0  0  0  0  0  0  0  0  0  0  0
   12.7910   -0.8440   22.2490 C   0  0  0  0  0  0  0  0  0  0  0  0
   13.2530    0.3950   22.6720 C   0  0  0  0  0  0  0  0  0  0  0  0
   13.4290   -1.9770   21.1260 S   0  0  0  0  0  0  0  0  0  0  0  0
   11.9770   -2.4070   20.5330 N   0  0  0  0  0  0  0  0  0  0  0  0
   13.6640   -3.2200   21.8090 O   0  0  0  0  0  0  0  0  0  0  0  0
   14.2040   -1.2730   20.1410 O   0  0  0  0  0  0  0  0  0  0  0  0
  1  2  1  0
  2  3  2  0
  2  4  1  0
  4  5  1  0
  4  6  1  0
  5  7  1  0
  8  6  1  6
  7  9  1  0
  7 10  2  0
  8 10  1  0
  8 11  1  0
  9 12  2  0
 10 13  1  0
 11 14  1  1
 11 15  1  0
 12 16  1  0
 13 16  2  0
 14 17  1  0
 15 18  1  0
 15 19  1  0
 17 20  1  0
 18 20  2  0
 18 21  1  0
 20 22  1  0
 21 23  2  0
 22 24  2  0
 23 24  1  0
 23 25  1  0
 25 26  1  0
 25 27  2  0
 25 28  2  0
M  END
