HEN-UNK-30ca0e4e-1-vinylsulfonamide
     RDKit          3D

 36 39  0  0  0  0  0  0  0  0999 V2000
    7.5780   -2.9200   18.3190 C   0  0  0  0  0  0  0  0  0  0  0  0
    7.1820   -1.9740   19.3610 C   0  0  0  0  0  0  0  0  0  0  0  0
    5.6490   -2.4520   20.1340 S   0  0  0  0  0  0  0  0  0  0  0  0
    5.0860   -3.7990   19.8330 O   0  0  0  0  0  0  0  0  0  0  0  0
    4.8220   -1.2790   19.9960 O   0  0  0  0  0  0  0  0  0  0  0  0
    6.2490   -2.4250   21.6840 N   0  0  0  0  0  0  0  0  0  0  0  0
    6.3840   -3.6750   22.3630 C   0  0  0  0  0  0  0  0  0  0  0  0
    7.2630   -1.3890   21.9290 C   0  0  0  0  0  0  0  0  0  0  0  0
    7.5840   -4.0240   22.9650 C   0  0  0  0  0  0  0  0  0  0  0  0
    8.4820   -1.9870   22.2860 C   0  0  0  0  0  0  0  0  0  0  0  0
    8.2280   -2.9300   23.3760 N   0  0  0  0  0  0  0  0  0  0  0  0
    9.3050   -3.2690   24.1380 C   0  0  1  0  0  0  0  0  0  0  0  0
   10.0610   -2.4240   24.9070 C   0  0  0  0  0  0  0  0  0  0  0  0
    8.9860   -4.2650   25.1840 C   0  0  0  0  0  0  0  0  0  0  0  0
   11.5470   -2.3440   24.6910 C   0  0  0  0  0  0  0  0  0  0  0  0
    9.6270   -5.5580   25.5280 C   0  0  0  0  0  0  0  0  0  0  0  0
    7.6900   -4.0150   26.2870 S   0  0  0  0  0  0  0  0  0  0  0  0
   11.9530   -0.8970   24.4570 C   0  0  2  0  0  0  0  0  0  0  0  0
    9.0380   -6.1510   26.5780 C   0  0  0  0  0  0  0  0  0  0  0  0
    7.9740   -5.4670   27.1250 C   0  0  0  0  0  0  0  0  0  0  0  0
   11.0310   -0.2650   24.0980 N   0  0  0  0  0  0  0  0  0  0  0  0
   13.0310   -0.9610   23.4000 C   0  0  2  0  0  0  0  0  0  0  0  0
    6.9080   -5.9960   28.6090 Br  0  0  0  0  0  0  0  0  0  0  0  0
   11.3450    1.0930   23.7020 C   0  0  0  0  0  0  0  0  0  0  0  0
   13.3310    0.2220   22.7770 C   0  0  0  0  0  0  0  0  0  0  0  0
   12.0160   -2.0210   21.8120 I   0  0  0  0  0  0  0  0  0  0  0  0
   10.3960    2.2700   23.9920 C   0  0  0  0  0  0  0  0  0  0  0  0
   12.5410    1.2920   23.0560 C   0  0  0  0  0  0  0  0  0  0  0  0
   10.8680    3.6560   23.5380 C   0  0  0  0  0  0  0  0  0  0  0  0
   12.9360    2.5800   22.6880 C   0  0  0  0  0  0  0  0  0  0  0  0
    9.9620    5.1360   23.7460 S   0  0  0  0  0  0  0  0  0  0  0  0
   12.2270    3.7450   22.8660 C   0  0  0  0  0  0  0  0  0  0  0  0
   10.8360    6.2330   22.8070 N   0  0  0  0  0  0  0  0  0  0  0  0
   10.0700    5.6190   25.0960 O   0  0  0  0  0  0  0  0  0  0  0  0
    8.7110    5.0200   23.0470 O   0  0  0  0  0  0  0  0  0  0  0  0
   12.7330    4.9410   22.4480 O   0  0  0  0  0  0  0  0  0  0  0  0
  1  2  1  0
  3  2  1  0
  3  4  2  0
  3  5  2  0
  3  6  1  0
  6  7  1  0
  6  8  1  0
  7  9  1  0
  8 10  1  0
  9 11  1  0
 10 11  1  0
 11 12  1  0
 12 13  1  1
 12 14  1  0
 13 15  1  0
 14 16  2  0
 14 17  1  0
 18 15  1  6
 16 19  1  0
 17 20  1  0
 19 20  2  0
 18 21  1  0
 18 22  1  0
 20 23  1  0
 21 24  1  0
 22 25  1  0
 22 26  1  6
 24 27  2  0
 24 28  1  0
 25 28  1  0
 27 29  1  0
 28 30  2  0
 29 31  1  0
 29 32  2  0
 30 32  1  0
 31 33  1  0
 31 34  2  0
 31 35  2  0
 32 36  1  0
M  END
