HIR-FOR-a67ea703-1
     RDKit          3D

 41 45  0  0  0  0  0  0  0  0999 V2000
    3.8140    1.7610   19.0440 C   0  0  0  0  0  0  0  0  0  0  0  0
    3.8300    0.9980   20.0030 O   0  0  0  0  0  0  0  0  0  0  0  0
    5.1260    0.9270   20.6080 C   0  0  0  0  0  0  0  0  0  0  0  0
    5.4520    1.5340   21.6180 O   0  0  0  0  0  0  0  0  0  0  0  0
    6.0670   -0.0270   19.8040 C   0  0  0  0  0  0  0  0  0  0  0  0
    6.6020    0.9460   18.7230 C   0  0  0  0  0  0  0  0  0  0  0  0
    5.3130   -1.1480   19.1340 C   0  0  0  0  0  0  0  0  0  0  0  0
    6.0960    0.4120   17.3640 C   0  0  0  0  0  0  0  0  0  0  0  0
    6.2200   -1.7230   18.2370 C   0  0  0  0  0  0  0  0  0  0  0  0
    6.1820   -0.9680   16.9960 N   0  0  0  0  0  0  0  0  0  0  0  0
    7.1310   -1.5620   15.6750 S   0  0  0  0  0  0  0  0  0  0  0  0
    6.3970   -2.0990   14.5540 O   0  0  0  0  0  0  0  0  0  0  0  0
    8.1020   -2.4030   16.3320 O   0  0  0  0  0  0  0  0  0  0  0  0
    8.0380   -0.1500   15.2900 C   0  0  0  0  0  0  0  0  0  0  0  0
    7.3440    0.9620   15.8320 C   0  0  0  0  0  0  0  0  0  0  0  0
    9.2920    0.0020   14.6180 C   0  0  0  0  0  0  0  0  0  0  0  0
    8.1590    2.1110   15.7910 C   0  0  0  0  0  0  0  0  0  0  0  0
   10.0420    0.9700   14.5240 C   0  0  0  0  0  0  0  0  0  0  0  0
    9.7160    2.3640   15.3000 C   0  0  0  0  0  0  0  0  0  0  0  0
   11.3400    4.2200   16.2140 C   0  0  0  0  0  0  0  0  0  0  0  0
   12.2570    5.8930   15.3820 S   0  0  0  0  0  0  0  0  0  0  0  0
   14.0280    6.4420   15.1090 C   0  0  0  0  0  0  0  0  0  0  0  0
   15.1770    6.0400   16.0800 N   0  0  0  0  0  0  0  0  0  0  0  0
   14.6510    7.1210   14.1130 O   0  0  0  0  0  0  0  0  0  0  0  0
   16.3040    6.3980   15.6910 N   0  0  0  0  0  0  0  0  0  0  0  0
   15.9670    6.9700   14.5770 C   0  0  0  0  0  0  0  0  0  0  0  0
   17.1120    7.2570   14.0620 C   0  0  0  0  0  0  0  0  0  0  0  0
   18.1660    6.6550   14.8980 C   0  0  0  0  0  0  0  0  0  0  0  0
   17.1420    6.2340   13.0190 C   0  0  0  0  0  0  0  0  0  0  0  0
   18.3520    5.2410   14.3410 C   0  0  0  0  0  0  0  0  0  0  0  0
   16.4360    5.0530   13.5310 C   0  0  0  0  0  0  0  0  0  0  0  0
   17.3590    4.2360   14.4100 N   0  0  0  0  0  0  0  0  0  0  0  0
   17.6610    2.3110   14.4220 S   0  0  0  0  0  0  0  0  0  0  0  0
   17.0070    1.8870   13.1830 O   0  0  0  0  0  0  0  0  0  0  0  0
   17.0970    1.5220   15.4890 O   0  0  0  0  0  0  0  0  0  0  0  0
   19.9310    2.1510   14.5700 C   0  0  0  0  0  0  0  0  0  0  0  0
   21.7990    1.8160   13.7090 C   0  0  0  0  0  0  0  0  0  0  0  0
   20.8010    2.0550   15.8970 C   0  0  0  0  0  0  0  0  0  0  0  0
   23.2150    1.5780   14.1970 C   0  0  0  0  0  0  0  0  0  0  0  0
   22.3530    1.8400   16.3350 C   0  0  0  0  0  0  0  0  0  0  0  0
   23.4430    1.6110   15.5240 C   0  0  0  0  0  0  0  0  0  0  0  0
  1  2  1  0
  2  3  1  0
  3  4  2  0
  3  5  1  0
  5  6  1  0
  5  7  1  0
  6  8  1  0
  7  9  1  0
  8 10  1  0
  9 10  1  0
 10 11  1  0
 11 12  2  0
 11 13  2  0
 11 14  1  0
 14 15  2  0
 14 16  1  0
 15 17  1  0
 16 18  2  0
 17 19  2  0
 18 19  1  0
 19 20  1  0
 20 21  1  0
 21 22  1  0
 22 23  2  0
 22 24  1  0
 23 25  1  0
 24 26  1  0
 25 26  2  0
 26 27  1  0
 27 28  1  0
 27 29  1  0
 28 30  1  0
 29 31  1  0
 30 32  1  0
 31 32  1  0
 32 33  1  0
 33 34  2  0
 33 35  2  0
 33 36  1  0
 36 37  2  0
 36 38  1  0
 37 39  1  0
 38 40  2  0
 39 41  2  0
 40 41  1  0
M  END
