HOL-KAN-bccba850-2
     RDKit          3D

 27 30  0  0  0  0  0  0  0  0999 V2000
    8.2310   -3.3520   20.9720 C   0  0  0  0  0  0  0  0  0  0  0  0
    6.9150   -2.7640   21.1640 C   0  0  2  0  0  0  0  0  0  0  0  0
    6.5580   -2.9220   22.6490 C   0  0  0  0  0  0  0  0  0  0  0  0
    6.0240   -3.5000   20.3900 C   0  0  0  0  0  0  0  0  0  0  0  0
    7.2160   -1.2950   20.5300 C   0  0  1  0  0  0  0  0  0  0  0  0
    6.1480   -4.3410   23.0010 C   0  0  0  0  0  0  0  0  0  0  0  0
    5.6640   -4.7750   20.8340 C   0  0  0  0  0  0  0  0  0  0  0  0
    5.5410   -2.9400   19.1350 C   0  0  0  0  0  0  0  0  0  0  0  0
    6.7400   -1.1100   19.2070 C   0  0  2  0  0  0  0  0  0  0  0  0
    6.9360   -0.2900   21.4520 C   0  0  2  0  0  0  0  0  0  0  0  0
    6.0990   -5.2990   22.0210 C   0  0  0  0  0  0  0  0  0  0  0  0
    6.4650   -2.1650   18.4750 C   0  0  0  0  0  0  0  0  0  0  0  0
    7.6280   -0.3560   18.3720 N   0  0  0  0  0  0  0  0  0  0  0  0
    5.9720   -0.7950   22.3680 O   0  0  0  0  0  0  0  0  0  0  0  0
    6.3120    0.9620   20.8620 C   0  0  0  0  0  0  0  0  0  0  0  0
    5.5130   -0.2020   19.0640 C   0  0  1  0  0  0  0  0  0  0  0  0
    6.4060   -6.4690   22.1730 O   0  0  0  0  0  0  0  0  0  0  0  0
    5.0780    0.6360   20.3010 C   0  0  1  0  0  0  0  0  0  0  0  0
    5.7010    0.7320   18.0600 C   0  0  0  0  0  0  0  0  0  0  0  0
    4.2470   -0.0700   21.1420 C   0  0  0  0  0  0  0  0  0  0  0  0
    5.0220    1.8540   18.4350 C   0  0  0  0  0  0  0  0  0  0  0  0
    4.3840    1.6370   19.5870 C   0  0  1  0  0  0  0  0  0  0  0  0
    3.1040    1.1640   19.2020 O   0  0  0  0  0  0  0  0  0  0  0  0
    4.0740    2.7330   20.3710 C   0  0  0  0  0  0  0  0  0  0  0  0
    4.5050    2.8680   21.5250 O   0  0  0  0  0  0  0  0  0  0  0  0
    3.2320    3.7240   19.8520 C   0  0  0  0  0  0  0  0  0  0  0  0
    2.1090    3.9520   20.7010 O   0  0  0  0  0  0  0  0  0  0  0  0
  2  1  1  1
  2  3  1  0
  2  4  1  0
  2  5  1  0
  3  6  2  0
  4  7  2  0
  4  8  1  0
  5  9  1  0
  5 10  1  1
  6 11  1  0
  7 11  1  0
  8 12  1  0
  9 12  1  0
  9 13  1  6
 10 14  1  1
 10 15  1  0
  9 16  1  0
 11 17  2  0
 15 18  1  0
 16 18  1  0
 16 19  1  6
 18 20  1  1
 19 21  1  0
 18 22  1  0
 21 22  1  0
 22 23  1  6
 22 24  1  0
 24 25  2  0
 24 26  1  0
 26 27  1  0
M  END
