HOL-KAN-b6135d2e-3
     RDKit          3D

 39 44  0  0  0  0  0  0  0  0999 V2000
    4.7740    1.8270   19.1010 O   0  0  0  0  0  0  0  0  0  0  0  0
    4.6890    1.8110   20.3340 C   0  0  0  0  0  0  0  0  0  0  0  0
    5.7120    1.1080   21.1840 C   0  0  0  0  0  0  0  0  0  0  0  0
    5.8620    1.2060   22.5750 C   0  0  0  0  0  0  0  0  0  0  0  0
    6.6060    0.2980   20.6010 C   0  0  0  0  0  0  0  0  0  0  0  0
    6.9010    0.4670   23.2260 C   0  0  0  0  0  0  0  0  0  0  0  0
    7.6040   -0.4250   21.2090 C   0  0  0  0  0  0  0  0  0  0  0  0
    6.7170    0.0470   19.3500 N   0  0  0  0  0  0  0  0  0  0  0  0
    6.9530    0.6390   24.5850 O   0  0  0  0  0  0  0  0  0  0  0  0
    7.7800   -0.3650   22.5270 C   0  0  0  0  0  0  0  0  0  0  0  0
    6.4520   -1.1900   18.9950 N   0  0  0  0  0  0  0  0  0  0  0  0
    7.1430    1.0080   18.5420 N   0  0  0  0  0  0  0  0  0  0  0  0
    8.7960   -1.1060   23.1070 C   0  0  0  0  0  0  0  0  0  0  0  0
    6.8800   -0.9400   17.7120 C   0  0  0  0  0  0  0  0  0  0  0  0
    7.2950    0.3590   17.4590 C   0  0  0  0  0  0  0  0  0  0  0  0
    8.5640   -2.1670   23.6970 O   0  0  0  0  0  0  0  0  0  0  0  0
   10.2110   -0.5600   22.9960 C   0  0  0  0  0  0  0  0  0  0  0  0
    6.8820   -1.9620   16.7970 C   0  0  0  0  0  0  0  0  0  0  0  0
    7.7730    0.7270   16.2600 C   0  0  0  0  0  0  0  0  0  0  0  0
   10.3560    0.7960   23.1270 C   0  0  0  0  0  0  0  0  0  0  0  0
   11.3340   -1.3590   22.7800 C   0  0  0  0  0  0  0  0  0  0  0  0
    7.3470   -1.6150   15.5830 C   0  0  0  0  0  0  0  0  0  0  0  0
    7.8040   -0.3040   15.3850 C   0  0  0  0  0  0  0  0  0  0  0  0
   11.7270    1.4130   23.0480 C   0  0  0  0  0  0  0  0  0  0  0  0
   12.6140   -0.8140   22.7030 C   0  0  0  0  0  0  0  0  0  0  0  0
   11.2420   -2.7080   22.6410 O   0  0  0  0  0  0  0  0  0  0  0  0
    8.3650    0.0480   14.2160 O   0  0  0  0  0  0  0  0  0  0  0  0
   11.7560    2.8260   23.2100 N   0  0  0  0  0  0  0  0  0  0  0  0
   12.8150    0.5600   22.8400 C   0  0  0  0  0  0  0  0  0  0  0  0
   10.8120    3.4620   23.9520 N   0  0  0  0  0  0  0  0  0  0  0  0
   12.7390    3.5980   22.6400 N   0  0  0  0  0  0  0  0  0  0  0  0
   14.0890    0.9820   22.7570 O   0  0  0  0  0  0  0  0  0  0  0  0
   11.3060    4.8190   23.8570 C   0  0  0  0  0  0  0  0  0  0  0  0
   12.4740    4.8520   23.0460 C   0  0  0  0  0  0  0  0  0  0  0  0
   10.6110    5.9860   24.5690 C   0  0  0  0  0  0  0  0  0  0  0  0
   13.1970    6.1610   22.7820 C   0  0  0  0  0  0  0  0  0  0  0  0
   11.3130    7.3270   24.3510 C   0  0  0  0  0  0  0  0  0  0  0  0
   12.5730    7.3790   23.4760 C   0  0  0  0  0  0  0  0  0  0  0  0
   13.1060    8.6480   23.3750 O   0  0  0  0  0  0  0  0  0  0  0  0
  1  2  2  0
  2  3  1  0
  3  4  2  0
  3  5  1  0
  4  6  1  0
  5  7  2  0
  5  8  1  0
  6  9  1  0
  6 10  2  0
  7 10  1  0
  8 11  1  0
  8 12  1  0
 10 13  1  0
 11 14  2  0
 12 15  2  0
 14 15  1  0
 13 16  2  0
 13 17  1  0
 14 18  1  0
 15 19  1  0
 17 20  2  0
 17 21  1  0
 18 22  2  0
 19 23  2  0
 22 23  1  0
 20 24  1  0
 21 25  2  0
 21 26  1  0
 23 27  1  0
 24 28  1  0
 24 29  2  0
 25 29  1  0
 28 30  1  0
 28 31  1  0
 29 32  1  0
 30 33  2  0
 31 34  2  0
 33 34  1  0
 33 35  1  0
 34 36  1  0
 35 37  2  0
 36 38  2  0
 37 38  1  0
 38 39  1  0
M  END
