HUB-UNK-9845d277-16
     RDKit          3D

 32 34  0  0  0  0  0  0  0  0999 V2000
    5.1910   -0.2050   20.6300 C   0  0  0  0  0  0  0  0  0  0  0  0
    5.6600   -0.5420   19.2280 C   0  0  0  0  0  0  0  0  0  0  0  0
    7.0730    0.0150   18.9310 C   0  0  0  0  0  0  0  0  0  0  0  0
    4.7750    0.1700   18.2060 C   0  0  0  0  0  0  0  0  0  0  0  0
    5.7980   -1.9950   18.9980 O   0  0  0  0  0  0  0  0  0  0  0  0
    5.5130   -2.9930   19.9080 C   0  0  0  0  0  0  0  0  0  0  0  0
    5.1950   -4.3270   19.5670 O   0  0  0  0  0  0  0  0  0  0  0  0
    5.6230   -2.5500   21.2380 N   0  0  0  0  0  0  0  0  0  0  0  0
    6.8720   -2.1490   21.7940 C   0  0  0  0  0  0  0  0  0  0  0  0
    7.7340   -1.4570   20.7820 C   0  0  0  0  0  0  0  0  0  0  0  0
    7.2830   -2.4150   23.2260 C   0  0  0  0  0  0  0  0  0  0  0  0
    8.9820   -1.1120   21.4650 C   0  0  0  0  0  0  0  0  0  0  0  0
    8.6270   -2.5000   23.4870 N   0  0  0  0  0  0  0  0  0  0  0  0
    6.2940   -2.5880   24.2490 O   0  0  0  0  0  0  0  0  0  0  0  0
    9.4170   -1.6310   22.7940 C   0  0  0  0  0  0  0  0  0  0  0  0
   10.5980   -1.0190   23.0380 C   0  0  0  0  0  0  0  0  0  0  0  0
   11.7630   -1.5090   22.4430 C   0  0  0  0  0  0  0  0  0  0  0  0
   10.6460    0.1380   23.8180 C   0  0  0  0  0  0  0  0  0  0  0  0
   11.7490   -2.6110   21.6950 F   0  0  0  0  0  0  0  0  0  0  0  0
   12.9570   -0.8600   22.5850 C   0  0  0  0  0  0  0  0  0  0  0  0
   11.8430    0.7750   23.9360 C   0  0  0  0  0  0  0  0  0  0  0  0
    9.4520    0.6210   24.4300 N   0  0  0  0  0  0  0  0  0  0  0  0
   12.9790    0.2880   23.3250 C   0  0  0  0  0  0  0  0  0  0  0  0
    9.0870    0.5010   25.8130 C   0  0  0  0  0  0  0  0  0  0  0  0
    9.8250   -0.0670   26.8040 O   0  0  0  0  0  0  0  0  0  0  0  0
    7.8580    1.0560   26.1130 N   0  0  0  0  0  0  0  0  0  0  0  0
    7.5860    1.8880   27.2780 C   0  0  0  0  0  0  0  0  0  0  0  0
    7.2040    3.2220   27.0400 C   0  0  0  0  0  0  0  0  0  0  0  0
    7.6820    1.4570   28.6050 C   0  0  0  0  0  0  0  0  0  0  0  0
    6.9320    4.0830   28.1040 C   0  0  0  0  0  0  0  0  0  0  0  0
    7.4310    2.2440   29.6860 N   0  0  0  0  0  0  0  0  0  0  0  0
    7.0450    3.5960   29.4010 C   0  0  0  0  0  0  0  0  0  0  0  0
  1  2  1  0
  2  3  1  0
  2  4  1  0
  2  5  1  0
  5  6  1  0
  6  7  2  0
  6  8  1  0
  8  9  1  0
  9 10  2  0
  9 11  1  0
 10 12  1  0
 11 13  1  0
 11 14  2  0
 12 15  2  0
 13 15  1  0
 15 16  1  0
 16 17  2  0
 16 18  1  0
 17 19  1  0
 17 20  1  0
 18 21  2  0
 18 22  1  0
 20 23  2  0
 21 23  1  0
 22 24  1  0
 24 25  2  0
 24 26  1  0
 26 27  1  0
 27 28  2  0
 27 29  1  0
 28 30  1  0
 29 31  2  0
 30 32  2  0
 31 32  1  0
M  END
