HUB-UNK-9845d277-12
     RDKit          3D

 44 48  0  0  0  0  0  0  0  0999 V2000
    9.6530   -3.7580   23.6150 O   0  0  0  0  0  0  0  0  0  0  0  0
    8.9250   -3.1650   22.8350 C   0  0  0  0  0  0  0  0  0  0  0  0
    9.4380   -2.2910   21.6940 C   0  0  0  0  0  0  0  0  0  0  0  0
    7.5380   -3.2460   22.9160 N   0  0  0  0  0  0  0  0  0  0  0  0
   10.4420   -1.1630   22.0950 C   0  0  0  0  0  0  0  0  0  0  0  0
    6.8430   -4.5300   22.6960 C   0  0  1  0  0  0  0  0  0  0  0  0
   11.8240   -1.8170   22.2060 C   0  0  0  0  0  0  0  0  0  0  0  0
   10.2190    0.1890   22.3090 C   0  0  0  0  0  0  0  0  0  0  0  0
    5.9450   -4.9120   23.8430 C   0  0  0  0  0  0  0  0  0  0  0  0
    6.1220   -4.5660   21.3350 C   0  0  0  0  0  0  0  0  0  0  0  0
   13.0270   -0.9370   22.5700 C   0  0  0  0  0  0  0  0  0  0  0  0
   11.2920    1.0240   22.6350 C   0  0  0  0  0  0  0  0  0  0  0  0
    6.4230   -6.0090   24.7280 C   0  0  2  0  0  0  0  0  0  0  0  0
    5.8970   -5.6420   20.7440 O   0  0  0  0  0  0  0  0  0  0  0  0
    5.6900   -3.3680   20.7540 C   0  0  0  0  0  0  0  0  0  0  0  0
   12.7580    0.6000   22.8020 C   0  0  0  0  0  0  0  0  0  0  0  0
   11.2240    2.5620   22.8690 C   0  0  0  0  0  0  0  0  0  0  0  0
    7.7930   -6.5520   24.2920 C   0  0  0  0  0  0  0  0  0  0  0  0
    5.6290   -7.2650   24.3820 C   0  0  0  0  0  0  0  0  0  0  0  0
    5.3030   -3.4460   19.5780 O   0  0  0  0  0  0  0  0  0  0  0  0
    5.7240   -2.2110   21.4780 N   0  0  0  0  0  0  0  0  0  0  0  0
   12.3660    3.5820   22.7290 C   0  0  0  0  0  0  0  0  0  0  0  0
    9.9300    3.2090   23.2530 N   0  0  0  0  0  0  0  0  0  0  0  0
    7.6000   -7.4120   23.2080 C   0  0  0  0  0  0  0  0  0  0  0  0
    6.3730   -7.9580   23.3490 N   0  0  0  0  0  0  0  0  0  0  0  0
    4.5700   -7.6780   24.8480 O   0  0  0  0  0  0  0  0  0  0  0  0
    5.1130   -2.1890   22.8380 C   0  0  0  0  0  0  0  0  0  0  0  0
    6.5690   -1.0610   21.1230 C   0  0  0  0  0  0  0  0  0  0  0  0
   12.0720    4.9310   22.9620 C   0  0  0  0  0  0  0  0  0  0  0  0
    9.8400    4.4720   23.8110 C   0  0  0  0  0  0  0  0  0  0  0  0
    5.2000   -0.8980   23.3720 C   0  0  0  0  0  0  0  0  0  0  0  0
    7.4220   -0.5550   22.3000 C   0  0  0  0  0  0  0  0  0  0  0  0
   10.8580    5.3550   23.4760 C   0  0  0  0  0  0  0  0  0  0  0  0
    8.8690    4.8660   24.6860 O   0  0  0  0  0  0  0  0  0  0  0  0
    6.6340   -0.5120   23.5710 N   0  0  0  0  0  0  0  0  0  0  0  0
    7.4260   -1.1100   24.9720 S   0  0  0  0  0  0  0  0  0  0  0  0
    7.2710   -2.5470   24.9750 O   0  0  0  0  0  0  0  0  0  0  0  0
    6.9590   -0.3200   26.0960 O   0  0  0  0  0  0  0  0  0  0  0  0
    9.1420   -0.6960   24.7390 C   0  0  0  0  0  0  0  0  0  0  0  0
    9.4920    0.6180   24.6370 C   0  0  0  0  0  0  0  0  0  0  0  0
   10.1220   -1.6990   24.6660 C   0  0  0  0  0  0  0  0  0  0  0  0
   10.8230    0.9570   24.4660 C   0  0  0  0  0  0  0  0  0  0  0  0
   11.4590   -1.3630   24.5000 C   0  0  0  0  0  0  0  0  0  0  0  0
   11.8110   -0.0260   24.4030 C   0  0  0  0  0  0  0  0  0  0  0  0
  1  2  2  0
  2  3  1  0
  2  4  1  0
  3  5  1  0
  4  6  1  0
  5  7  2  0
  5  8  1  0
  6  9  1  1
  6 10  1  0
  7 11  1  0
  8 12  2  0
 13  9  1  6
 10 14  2  0
 10 15  1  0
 11 16  2  0
 12 16  1  0
 12 17  1  0
 13 18  1  0
 13 19  1  0
 15 20  2  0
 15 21  1  0
 17 22  2  0
 17 23  1  0
 18 24  1  0
 19 25  1  0
 24 25  1  0
 19 26  2  0
 21 27  1  0
 21 28  1  0
 22 29  1  0
 23 30  1  0
 27 31  1  0
 28 32  1  0
 29 33  2  0
 30 33  1  0
 30 34  2  0
 31 35  1  0
 32 35  1  0
 35 36  1  0
 36 37  2  0
 36 38  2  0
 36 39  1  0
 39 40  2  0
 39 41  1  0
 40 42  1  0
 41 43  2  0
 42 44  2  0
 43 44  1  0
M  END
