HUB-UNK-9845d277-1
     RDKit          3D

 33 35  0  0  0  0  0  0  0  0999 V2000
    7.0140    4.7670   25.9320 C   0  0  0  0  0  0  0  0  0  0  0  0
    5.5500    4.5790   26.2740 C   0  0  0  0  0  0  0  0  0  0  0  0
    4.7940    3.7460   25.2000 C   0  0  0  0  0  0  0  0  0  0  0  0
    4.8370    5.9280   26.4080 C   0  0  0  0  0  0  0  0  0  0  0  0
    5.4020    3.7990   27.4920 O   0  0  0  0  0  0  0  0  0  0  0  0
    6.4880    3.2910   28.1250 C   0  0  0  0  0  0  0  0  0  0  0  0
    7.2720    3.9790   29.0880 O   0  0  0  0  0  0  0  0  0  0  0  0
    6.6900    1.9660   27.6560 N   0  0  0  0  0  0  0  0  0  0  0  0
    7.7100    1.4880   26.7000 C   0  0  0  0  0  0  0  0  0  0  0  0
    7.5540    1.9880   25.2390 C   0  0  0  0  0  0  0  0  0  0  0  0
    8.8320    0.5590   27.1330 C   0  0  0  0  0  0  0  0  0  0  0  0
    8.6510    1.4260   24.3400 C   0  0  0  0  0  0  0  0  0  0  0  0
    9.6090   -0.1160   26.0460 N   0  0  0  0  0  0  0  0  0  0  0  0
    9.0820    0.3840   28.3240 O   0  0  0  0  0  0  0  0  0  0  0  0
    9.6570    0.3720   24.7920 C   0  0  0  0  0  0  0  0  0  0  0  0
   10.6650   -0.1500   23.9610 C   0  0  0  0  0  0  0  0  0  0  0  0
   11.9380    0.4350   23.8620 C   0  0  0  0  0  0  0  0  0  0  0  0
   10.4290   -1.3030   23.1810 C   0  0  0  0  0  0  0  0  0  0  0  0
   12.9320   -0.0890   23.0430 C   0  0  0  0  0  0  0  0  0  0  0  0
   11.4330   -1.8250   22.3560 C   0  0  0  0  0  0  0  0  0  0  0  0
    9.0830   -1.9720   23.2410 C   0  0  0  0  0  0  0  0  0  0  0  0
   12.6860   -1.2250   22.2850 C   0  0  0  0  0  0  0  0  0  0  0  0
    9.0800   -3.3920   23.8240 C   0  0  0  0  0  0  0  0  0  0  0  0
    7.9340   -3.5810   24.7280 N   0  0  0  0  0  0  0  0  0  0  0  0
    8.1190   -4.4740   26.1660 S   0  0  0  0  0  0  0  0  0  0  0  0
    9.1740   -5.4400   25.9450 O   0  0  0  0  0  0  0  0  0  0  0  0
    8.1760   -3.5100   27.2350 O   0  0  0  0  0  0  0  0  0  0  0  0
    6.6380   -5.3170   26.3660 C   0  0  0  0  0  0  0  0  0  0  0  0
    6.3930   -5.9870   27.5800 C   0  0  0  0  0  0  0  0  0  0  0  0
    5.6810   -5.3440   25.3290 C   0  0  0  0  0  0  0  0  0  0  0  0
    5.2070   -6.6880   27.7830 C   0  0  0  0  0  0  0  0  0  0  0  0
    4.4780   -6.0600   25.5430 C   0  0  0  0  0  0  0  0  0  0  0  0
    4.2670   -6.7110   26.7530 C   0  0  0  0  0  0  0  0  0  0  0  0
  1  2  1  0
  2  3  1  0
  2  4  1  0
  2  5  1  0
  5  6  1  0
  6  7  2  0
  6  8  1  0
  8  9  1  0
  9 10  2  0
  9 11  1  0
 10 12  1  0
 11 13  1  0
 11 14  2  0
 12 15  2  0
 13 15  1  0
 15 16  1  0
 16 17  2  0
 16 18  1  0
 17 19  1  0
 18 20  2  0
 18 21  1  0
 19 22  2  0
 20 22  1  0
 21 23  1  0
 23 24  1  0
 25 24  1  0
 25 26  2  0
 25 27  2  0
 25 28  1  0
 28 29  2  0
 28 30  1  0
 29 31  1  0
 30 32  2  0
 31 33  2  0
 32 33  1  0
M  END
