HUB-UNK-9845d277-13
     RDKit          3D

 26 28  0  0  0  0  0  0  0  0999 V2000
    6.7490    2.7510   23.2090 O   0  0  0  0  0  0  0  0  0  0  0  0
    7.4820    2.3350   24.0830 C   0  0  0  0  0  0  0  0  0  0  0  0
    7.0280    2.1430   25.5180 C   0  0  0  0  0  0  0  0  0  0  0  0
    8.7840    2.0060   23.8340 N   0  0  0  0  0  0  0  0  0  0  0  0
    7.7360    1.0300   26.3700 C   0  0  0  0  0  0  0  0  0  0  0  0
    9.3870    0.7640   24.3300 C   0  0  0  0  0  0  0  0  0  0  0  0
    8.8620    0.2160   25.6550 C   0  0  0  0  0  0  0  0  0  0  0  0
   10.4990   -0.0510   23.6240 C   0  0  0  0  0  0  0  0  0  0  0  0
   11.7080    0.8740   23.5290 C   0  0  0  0  0  0  0  0  0  0  0  0
   10.3950   -1.3790   23.1650 C   0  0  0  0  0  0  0  0  0  0  0  0
   11.7580    2.1270   23.9490 F   0  0  0  0  0  0  0  0  0  0  0  0
   12.8370    0.1100   22.8570 C   0  0  0  0  0  0  0  0  0  0  0  0
   11.4450   -2.0670   22.5310 C   0  0  0  0  0  0  0  0  0  0  0  0
    9.1680   -2.0240   23.3600 C   0  0  0  0  0  0  0  0  0  0  0  0
   12.6480   -1.3290   22.3870 C   0  0  0  0  0  0  0  0  0  0  0  0
    9.1300   -3.3140   23.8860 C   0  0  0  0  0  0  0  0  0  0  0  0
    7.9780   -3.5110   24.7750 N   0  0  0  0  0  0  0  0  0  0  0  0
    8.1490   -4.4260   26.1810 S   0  0  0  0  0  0  0  0  0  0  0  0
    8.2080   -3.4740   27.2640 O   0  0  0  0  0  0  0  0  0  0  0  0
    9.2020   -5.3970   25.9720 O   0  0  0  0  0  0  0  0  0  0  0  0
    6.6180   -5.3090   26.3600 C   0  0  0  0  0  0  0  0  0  0  0  0
    5.6210   -5.3530   25.2470 C   0  0  0  0  0  0  0  0  0  0  0  0
    6.3590   -5.9790   27.5710 C   0  0  0  0  0  0  0  0  0  0  0  0
    4.3640   -6.1220   25.4680 C   0  0  0  0  0  0  0  0  0  0  0  0
    5.1750   -6.7080   27.7900 C   0  0  0  0  0  0  0  0  0  0  0  0
    4.1810   -6.8110   26.8120 C   0  0  0  0  0  0  0  0  0  0  0  0
  1  2  2  0
  2  3  1  0
  2  4  1  0
  3  5  2  0
  4  6  1  0
  5  7  1  0
  6  7  2  0
  6  8  1  0
  8  9  2  0
  8 10  1  0
  9 11  1  0
  9 12  1  0
 10 13  2  0
 10 14  1  0
 12 15  2  0
 13 15  1  0
 14 16  1  0
 16 17  1  0
 18 17  1  0
 18 19  2  0
 18 20  2  0
 18 21  1  0
 21 22  2  0
 21 23  1  0
 22 24  1  0
 23 25  2  0
 24 26  2  0
 25 26  1  0
M  END
