HUB-UNK-9845d277-5
     RDKit          3D

 42 45  0  0  0  0  0  0  0  0999 V2000
   11.7120   -6.8320   14.9830 C   0  0  0  0  0  0  0  0  0  0  0  0
   12.5670   -6.2510   15.6910 C   0  0  0  0  0  0  0  0  0  0  0  0
   13.5830   -7.4140   15.3140 C   0  0  0  0  0  0  0  0  0  0  0  0
   12.8590   -5.7220   14.6260 C   0  0  0  0  0  0  0  0  0  0  0  0
   11.6650   -5.4770   17.0470 O   0  0  0  0  0  0  0  0  0  0  0  0
   11.4910   -5.2270   18.7350 C   0  0  0  0  0  0  0  0  0  0  0  0
   10.4580   -5.7470   19.4900 O   0  0  0  0  0  0  0  0  0  0  0  0
   12.5020   -4.4860   19.5290 N   0  0  0  0  0  0  0  0  0  0  0  0
   12.1920   -3.3570   20.4970 C   0  0  0  0  0  0  0  0  0  0  0  0
   10.7310   -3.3270   20.8680 C   0  0  0  0  0  0  0  0  0  0  0  0
   13.0520   -2.2160   21.0700 C   0  0  0  0  0  0  0  0  0  0  0  0
   10.3690   -2.1150   21.7170 C   0  0  0  0  0  0  0  0  0  0  0  0
   12.6360   -1.6570   22.4020 N   0  0  0  0  0  0  0  0  0  0  0  0
   13.9730   -1.7050   20.4760 O   0  0  0  0  0  0  0  0  0  0  0  0
   11.3380   -1.2560   22.4810 C   0  0  0  0  0  0  0  0  0  0  0  0
   10.8740   -0.1110   23.1390 C   0  0  0  0  0  0  0  0  0  0  0  0
   11.5870    1.0900   23.0630 C   0  0  0  0  0  0  0  0  0  0  0  0
    9.6660   -0.1120   23.8710 C   0  0  0  0  0  0  0  0  0  0  0  0
   11.1260    2.2490   23.6700 C   0  0  0  0  0  0  0  0  0  0  0  0
    9.2110    1.0530   24.4820 C   0  0  0  0  0  0  0  0  0  0  0  0
    8.8640   -1.3730   23.9820 C   0  0  0  0  0  0  0  0  0  0  0  0
    9.9330    2.2320   24.3790 C   0  0  0  0  0  0  0  0  0  0  0  0
    7.4510   -1.2130   24.5390 C   0  0  0  0  0  0  0  0  0  0  0  0
    6.5050   -0.9750   23.5160 C   0  0  0  0  0  0  0  0  0  0  0  0
    5.6860   -0.0980   23.7760 O   0  0  0  0  0  0  0  0  0  0  0  0
    6.5810   -1.7240   22.3430 N   0  0  0  0  0  0  0  0  0  0  0  0
    5.5160   -2.5490   21.9690 C   0  0  2  0  0  0  0  0  0  0  0  0
    5.8480   -3.7310   22.6330 C   0  0  0  0  0  0  0  0  0  0  0  0
    5.5410   -2.8270   20.4470 C   0  0  0  0  0  0  0  0  0  0  0  0
    5.1700   -3.9340   23.8390 C   0  0  2  0  0  0  0  0  0  0  0  0
    5.3450   -3.9580   19.9890 O   0  0  0  0  0  0  0  0  0  0  0  0
    5.8020   -1.7370   19.6200 C   0  0  0  0  0  0  0  0  0  0  0  0
    5.8490   -4.5380   24.9160 C   0  0  0  0  0  0  0  0  0  0  0  0
    4.0110   -4.8760   23.6520 C   0  0  0  0  0  0  0  0  0  0  0  0
    6.2160   -1.9710   18.4910 O   0  0  0  0  0  0  0  0  0  0  0  0
    5.6150   -0.4240   20.0180 N   0  0  0  0  0  0  0  0  0  0  0  0
    5.0280   -5.2310   25.8220 C   0  0  0  0  0  0  0  0  0  0  0  0
    3.8630   -5.5640   24.9580 N   0  0  0  0  0  0  0  0  0  0  0  0
    3.3340   -5.0490   22.6530 O   0  0  0  0  0  0  0  0  0  0  0  0
    5.7920    0.7390   19.1870 C   0  0  0  0  0  0  0  0  0  0  0  0
    5.2470    0.9440   18.0130 C   0  0  0  0  0  0  0  0  0  0  0  0
    4.5660    1.7480   18.7800 C   0  0  0  0  0  0  0  0  0  0  0  0
  1  2  1  0
  2  3  1  0
  2  4  1  0
  2  5  1  0
  5  6  1  0
  6  7  2  0
  6  8  1  0
  8  9  1  0
  9 10  2  0
  9 11  1  0
 10 12  1  0
 11 13  1  0
 11 14  2  0
 12 15  2  0
 13 15  1  0
 15 16  1  0
 16 17  2  0
 16 18  1  0
 17 19  1  0
 18 20  2  0
 18 21  1  0
 19 22  2  0
 20 22  1  0
 21 23  1  0
 23 24  1  0
 24 25  2  0
 24 26  1  0
 26 27  1  0
 27 28  1  1
 27 29  1  0
 30 28  1  6
 29 31  2  0
 29 32  1  0
 30 33  1  0
 30 34  1  0
 32 35  2  0
 32 36  1  0
 33 37  1  0
 34 38  1  0
 37 38  1  0
 34 39  2  0
 36 40  1  0
 40 41  1  0
 40 42  1  0
 41 42  1  0
M  END
