HUB-UNK-9845d277-14
     RDKit          3D

 24 26  0  0  0  0  0  0  0  0999 V2000
    8.8260    1.6610   21.1360 O   0  0  0  0  0  0  0  0  0  0  0  0
    8.4270    0.7150   21.8060 C   0  0  0  0  0  0  0  0  0  0  0  0
    7.4100   -0.1140   21.4830 N   0  0  0  0  0  0  0  0  0  0  0  0
    8.9920    0.3800   22.9900 N   0  0  0  0  0  0  0  0  0  0  0  0
    6.7470    0.3080   20.3940 C   0  0  0  0  0  0  0  0  0  0  0  0
   10.3460   -0.1370   23.1380 C   0  0  0  0  0  0  0  0  0  0  0  0
    5.5900    1.2810   20.6990 C   0  0  0  0  0  0  0  0  0  0  0  0
    7.0510   -0.0770   19.1240 C   0  0  0  0  0  0  0  0  0  0  0  0
   11.4230    0.8640   23.3810 C   0  0  0  0  0  0  0  0  0  0  0  0
   10.6410   -1.4910   23.0490 C   0  0  0  0  0  0  0  0  0  0  0  0
    4.8040    1.7950   19.4560 C   0  0  0  0  0  0  0  0  0  0  0  0
    6.3140    0.4070   17.9480 N   0  0  0  0  0  0  0  0  0  0  0  0
   12.8140    0.3660   23.5160 C   0  0  0  0  0  0  0  0  0  0  0  0
   11.9840   -1.9030   23.2080 C   0  0  0  0  0  0  0  0  0  0  0  0
    9.5550   -2.3520   22.7960 C   0  0  0  0  0  0  0  0  0  0  0  0
    5.1960    1.3360   18.0530 C   0  0  0  0  0  0  0  0  0  0  0  0
   12.9910   -0.9940   23.4260 C   0  0  0  0  0  0  0  0  0  0  0  0
   12.3340   -3.1510   23.1550 F   0  0  0  0  0  0  0  0  0  0  0  0
    8.7430   -2.2130   21.5340 C   0  0  0  0  0  0  0  0  0  0  0  0
    9.1690   -3.3730   23.7540 N   0  0  0  0  0  0  0  0  0  0  0  0
    7.5930   -3.1350   21.3240 C   0  0  0  0  0  0  0  0  0  0  0  0
    8.1330   -4.1860   23.5040 C   0  0  0  0  0  0  0  0  0  0  0  0
    7.3110   -4.1470   22.3750 C   0  0  0  0  0  0  0  0  0  0  0  0
    7.5520   -5.2430   24.1560 O   0  0  0  0  0  0  0  0  0  0  0  0
  1  2  2  0
  2  3  1  0
  2  4  1  0
  3  5  1  0
  4  6  1  0
  5  7  2  0
  5  8  1  0
  6  9  2  0
  6 10  1  0
  7 11  1  0
  8 12  2  0
  9 13  1  0
 10 14  2  0
 10 15  1  0
 11 16  2  0
 12 16  1  0
 13 17  2  0
 14 17  1  0
 14 18  1  0
 15 19  2  0
 15 20  1  0
 19 21  1  0
 20 22  1  0
 21 23  2  0
 22 23  1  0
 22 24  2  0
M  END
