HUB-UNK-9845d277-15
     RDKit          3D

 34 36  0  0  0  0  0  0  0  0999 V2000
   10.9090  -10.4000   19.5040 C   0  0  0  0  0  0  0  0  0  0  0  0
    9.7880  -10.4450   19.6650 C   0  0  0  0  0  0  0  0  0  0  0  0
    9.2480  -10.1780   18.3760 C   0  0  0  0  0  0  0  0  0  0  0  0
    9.1960  -11.7920   19.8460 C   0  0  0  0  0  0  0  0  0  0  0  0
    9.8970   -9.3130   20.6590 O   0  0  0  0  0  0  0  0  0  0  0  0
   10.8710   -8.2030   20.9400 C   0  0  0  0  0  0  0  0  0  0  0  0
   12.1240   -8.3070   21.3610 O   0  0  0  0  0  0  0  0  0  0  0  0
   10.7190   -6.6990   20.5720 N   0  0  0  0  0  0  0  0  0  0  0  0
   11.5580   -5.4050   20.5390 C   0  0  0  0  0  0  0  0  0  0  0  0
   13.0210   -4.9240   20.5390 C   0  0  0  0  0  0  0  0  0  0  0  0
   10.8590   -4.2450   20.3510 C   0  0  0  0  0  0  0  0  0  0  0  0
   13.0220   -3.3530   20.8640 C   0  0  0  0  0  0  0  0  0  0  0  0
   10.6730   -3.0840   21.1920 N   0  0  0  0  0  0  0  0  0  0  0  0
   10.5410   -4.3000   19.2700 O   0  0  0  0  0  0  0  0  0  0  0  0
   11.7780   -2.5060   21.3100 C   0  0  0  0  0  0  0  0  0  0  0  0
   11.6330   -1.2120   21.8660 C   0  0  0  0  0  0  0  0  0  0  0  0
   12.7790   -0.5520   22.2190 C   0  0  0  0  0  0  0  0  0  0  0  0
   10.3920   -0.5260   22.1270 C   0  0  0  0  0  0  0  0  0  0  0  0
   13.8720   -1.2060   21.9970 F   0  0  0  0  0  0  0  0  0  0  0  0
   12.8200    0.7200   22.7740 C   0  0  0  0  0  0  0  0  0  0  0  0
   10.4360    0.7520   22.6820 C   0  0  0  0  0  0  0  0  0  0  0  0
    9.0480   -1.1320   21.8330 C   0  0  0  0  0  0  0  0  0  0  0  0
   11.6320    1.3700   22.9960 C   0  0  0  0  0  0  0  0  0  0  0  0
    7.8600   -0.4110   22.4900 C   0  0  0  0  0  0  0  0  0  0  0  0
    6.7740   -1.4090   22.6460 N   0  0  0  0  0  0  0  0  0  0  0  0
    6.6990   -2.3680   24.0510 S   0  0  0  0  0  0  0  0  0  0  0  0
    8.0200   -2.9160   24.2360 O   0  0  0  0  0  0  0  0  0  0  0  0
    6.0460   -1.5750   25.0680 O   0  0  0  0  0  0  0  0  0  0  0  0
    5.6860   -3.7140   23.6670 C   0  0  0  0  0  0  0  0  0  0  0  0
    6.2630   -4.9830   23.6360 C   0  0  0  0  0  0  0  0  0  0  0  0
    4.3170   -3.5740   23.3940 C   0  0  0  0  0  0  0  0  0  0  0  0
    5.5320   -6.1190   23.3340 C   0  0  0  0  0  0  0  0  0  0  0  0
    3.5830   -4.7540   23.0950 C   0  0  0  0  0  0  0  0  0  0  0  0
    4.1810   -6.0020   23.0620 C   0  0  0  0  0  0  0  0  0  0  0  0
  1  2  1  0
  2  3  1  0
  2  4  1  0
  2  5  1  0
  5  6  1  0
  6  7  2  0
  6  8  1  0
  8  9  1  0
  9 10  2  0
  9 11  1  0
 10 12  1  0
 11 13  1  0
 11 14  2  0
 12 15  2  0
 13 15  1  0
 15 16  1  0
 16 17  2  0
 16 18  1  0
 17 19  1  0
 17 20  1  0
 18 21  2  0
 18 22  1  0
 20 23  2  0
 21 23  1  0
 22 24  1  0
 24 25  1  0
 26 25  1  0
 26 27  2  0
 26 28  2  0
 26 29  1  0
 29 30  2  0
 29 31  1  0
 30 32  1  0
 31 33  2  0
 32 34  2  0
 33 34  1  0
M  END
