IAN-BAS-daf5a467-1
     RDKit          3D

 16 16  0  0  0  0  0  0  0  0999 V2000
    1.1290    2.0010   20.4450 C   0  0  0  0  0  0  0  0  0  0  0  0
    2.3510    1.2960   20.2760 O   0  0  0  0  0  0  0  0  0  0  0  0
    3.4040    2.1200   19.7710 C   0  0  0  0  0  0  0  0  0  0  0  0
    4.6530    1.3360   19.4800 C   0  0  0  0  0  0  0  0  0  0  0  0
    5.2170    1.2300   18.0640 C   0  0  0  0  0  0  0  0  0  0  0  0
    5.3990    0.6500   20.4600 C   0  0  0  0  0  0  0  0  0  0  0  0
    6.3150    0.5510   17.7410 N   0  0  0  0  0  0  0  0  0  0  0  0
    6.5660   -0.0620   20.1050 C   0  0  0  0  0  0  0  0  0  0  0  0
    6.9350   -0.0630   18.7730 C   0  0  0  0  0  0  0  0  0  0  0  0
    7.2890   -0.7230   21.1210 N   0  0  0  0  0  0  0  0  0  0  0  0
    8.5020   -0.2980   21.6470 C   0  0  0  0  0  0  0  0  0  0  0  0
    9.0070    0.7950   21.3980 O   0  0  0  0  0  0  0  0  0  0  0  0
    9.1690   -1.2380   22.5610 C   0  0  0  0  0  0  0  0  0  0  0  0
    9.5140   -2.5320   22.1750 C   0  0  0  0  0  0  0  0  0  0  0  0
    8.2800   -1.4010   23.7930 C   0  0  0  0  0  0  0  0  0  0  0  0
   10.4920   -0.5800   22.9940 C   0  0  0  0  0  0  0  0  0  0  0  0
  1  2  1  0
  2  3  1  0
  3  4  1  0
  4  5  2  0
  4  6  1  0
  5  7  1  0
  6  8  2  0
  7  9  2  0
  8  9  1  0
  8 10  1  0
 10 11  1  0
 11 12  2  0
 13 11  1  0
 13 14  1  0
 13 15  1  0
 13 16  1  0
M  END
