IAN-BAS-b0010df8-1-nitrile
     RDKit          3D

 25 28  0  0  0  0  0  0  0  0999 V2000
    7.0370   -3.7980   20.0290 C   0  0  0  0  0  0  0  0  0  0  0  0
    6.5740   -3.1310   19.0460 N   0  0  0  0  0  0  0  0  0  0  0  0
    7.1230   -3.3570   21.3640 N   0  0  0  0  0  0  0  0  0  0  0  0
    6.0530   -3.5590   22.3180 C   0  0  0  0  0  0  0  0  0  0  0  0
    8.2320   -2.8390   21.9380 C   0  0  0  0  0  0  0  0  0  0  0  0
    5.5170   -2.2730   22.9390 C   0  0  0  0  0  0  0  0  0  0  0  0
    5.5260   -4.7770   22.6860 C   0  0  0  0  0  0  0  0  0  0  0  0
    8.0110   -2.3200   23.2130 C   0  0  0  0  0  0  0  0  0  0  0  0
    9.4710   -2.7810   21.4290 C   0  0  0  0  0  0  0  0  0  0  0  0
    4.4160   -2.4720   23.9400 C   0  0  0  0  0  0  0  0  0  0  0  0
    4.5180   -4.9450   23.6010 N   0  0  0  0  0  0  0  0  0  0  0  0
    8.9920   -1.7370   24.0010 C   0  0  0  0  0  0  0  0  0  0  0  0
   10.5240   -2.2170   22.1330 C   0  0  0  0  0  0  0  0  0  0  0  0
    3.9320   -3.7660   24.2600 C   0  0  0  0  0  0  0  0  0  0  0  0
   10.2930   -1.6460   23.5260 C   0  0  0  0  0  0  0  0  0  0  0  0
   11.9380   -2.1390   21.5660 C   0  0  0  0  0  0  0  0  0  0  0  0
    2.9160   -4.0400   25.1690 C   0  0  0  0  0  0  0  0  0  0  0  0
   11.2800   -1.0690   24.3020 N   0  0  0  0  0  0  0  0  0  0  0  0
   12.9590   -1.4880   22.4820 C   0  0  0  0  0  0  0  0  0  0  0  0
    3.4280   -4.3610   26.4410 C   0  0  0  0  0  0  0  0  0  0  0  0
    1.9410   -4.9490   24.6760 C   0  0  0  0  0  0  0  0  0  0  0  0
   12.5310   -1.0310   23.7320 C   0  0  0  0  0  0  0  0  0  0  0  0
    2.5620   -5.3260   27.2240 C   0  0  0  0  0  0  0  0  0  0  0  0
    1.9160   -6.2520   25.1730 C   0  0  0  0  0  0  0  0  0  0  0  0
    1.9370   -6.4080   26.5490 C   0  0  0  0  0  0  0  0  0  0  0  0
  1  2  2  3
  1  3  1  0
  3  4  1  0
  3  5  1  0
  4  6  2  0
  4  7  1  0
  5  8  2  0
  5  9  1  0
  6 10  1  0
  7 11  2  0
  8 12  1  0
  9 13  2  0
 10 14  2  0
 11 14  1  0
 12 15  2  0
 13 15  1  0
 13 16  1  0
 14 17  1  0
 15 18  1  0
 16 19  2  0
 17 20  1  0
 17 21  1  0
 18 22  2  0
 19 22  1  0
 20 23  1  0
 21 24  1  0
 23 25  1  0
 24 25  1  0
M  END
