IAN-BAS-d38e7e67-1-nitrile
     RDKit          3D

 21 22  0  0  0  0  0  0  0  0999 V2000
    7.0040   -5.0860   20.4590 C   0  0  0  0  0  0  0  0  0  0  0  0
    5.8820   -5.5020   20.0650 N   0  0  0  0  0  0  0  0  0  0  0  0
    7.3360   -5.4410   21.7830 N   0  0  0  0  0  0  0  0  0  0  0  0
    8.1310   -4.5840   22.6740 C   0  0  0  0  0  0  0  0  0  0  0  0
    6.3130   -6.1480   22.5300 C   0  0  0  0  0  0  0  0  0  0  0  0
    7.0040   -3.7270   23.3010 C   0  0  0  0  0  0  0  0  0  0  0  0
    5.1950   -5.1190   22.5900 C   0  0  2  0  0  0  0  0  0  0  0  0
    5.8380   -3.7930   22.3690 N   0  0  0  0  0  0  0  0  0  0  0  0
    4.4480   -5.2390   23.9480 C   0  0  0  0  0  0  0  0  0  0  0  0
    6.0000   -3.2900   21.1230 C   0  0  0  0  0  0  0  0  0  0  0  0
    4.3080   -6.7300   24.2440 C   0  0  0  0  0  0  0  0  0  0  0  0
    3.9230   -4.2760   24.8720 C   0  0  0  0  0  0  0  0  0  0  0  0
    7.2080   -2.3560   20.7630 C   0  0  0  0  0  0  0  0  0  0  0  0
    5.1620   -3.5580   20.2510 O   0  0  0  0  0  0  0  0  0  0  0  0
    3.6120   -7.1540   25.5180 C   0  0  0  0  0  0  0  0  0  0  0  0
    3.2980   -4.7120   26.0230 N   0  0  0  0  0  0  0  0  0  0  0  0
    4.0110   -2.8010   24.6610 C   0  0  0  0  0  0  0  0  0  0  0  0
    3.1240   -5.9880   26.3750 C   0  0  0  0  0  0  0  0  0  0  0  0
    3.0200   -1.9920   25.4180 C   0  0  0  0  0  0  0  0  0  0  0  0
    4.8850   -2.0870   23.8690 N   0  0  0  0  0  0  0  0  0  0  0  0
    4.6460   -0.7220   23.9520 O   0  0  0  0  0  0  0  0  0  0  0  0
  1  2  2  3
  1  3  1  0
  3  4  1  0
  3  5  1  0
  4  6  1  0
  5  7  1  0
  6  8  1  0
  7  8  1  0
  7  9  1  1
  8 10  1  0
  9 11  2  0
  9 12  1  0
 10 13  1  0
 10 14  2  0
 11 15  1  0
 12 16  2  0
 12 17  1  0
 15 18  2  0
 16 18  1  0
 17 19  1  0
 17 20  2  3
 20 21  1  0
M  END
