IAN-BAS-a5a0ad12-1
     RDKit          3D

 26 29  0  0  0  0  0  0  0  0999 V2000
    8.8810    1.7110   21.1590 O   0  0  0  0  0  0  0  0  0  0  0  0
    8.8440    0.5660   21.5790 C   0  0  0  0  0  0  0  0  0  0  0  0
   10.0270    0.2330   22.4890 C   0  0  0  0  0  0  0  0  0  0  0  0
    7.8370   -0.3250   21.2380 N   0  0  0  0  0  0  0  0  0  0  0  0
   10.8100   -0.9390   22.6160 C   0  0  0  0  0  0  0  0  0  0  0  0
   10.5910    1.1000   23.3930 N   0  0  0  0  0  0  0  0  0  0  0  0
    6.9060    0.1150   20.1680 C   0  0  0  0  0  0  0  0  0  0  0  0
    7.4400   -1.4270   22.1520 C   0  0  0  0  0  0  0  0  0  0  0  0
   11.7440   -0.8800   23.4820 O   0  0  0  0  0  0  0  0  0  0  0  0
   11.6390    0.3660   23.9780 C   0  0  0  0  0  0  0  0  0  0  0  0
    5.8020    0.8820   20.5870 C   0  0  0  0  0  0  0  0  0  0  0  0
    7.0460   -0.1550   18.8220 C   0  0  0  0  0  0  0  0  0  0  0  0
    6.1530   -1.5910   22.5780 N   0  0  0  0  0  0  0  0  0  0  0  0
    8.3630   -2.3810   22.6390 N   0  0  0  0  0  0  0  0  0  0  0  0
    4.7930    1.4180   19.5930 C   0  0  0  0  0  0  0  0  0  0  0  0
    6.2230    0.2650   17.8420 N   0  0  0  0  0  0  0  0  0  0  0  0
    6.2030   -2.7570   23.4270 C   0  0  0  0  0  0  0  0  0  0  0  0
    7.6470   -3.2130   23.4200 C   0  0  0  0  0  0  0  0  0  0  0  0
    5.0770    1.0680   18.2090 C   0  0  0  0  0  0  0  0  0  0  0  0
    8.0910   -4.1840   24.0240 O   0  0  0  0  0  0  0  0  0  0  0  0
    7.1890   -5.2710   24.1080 C   0  0  0  0  0  0  0  0  0  0  0  0
    6.0830   -5.0200   24.9170 C   0  0  0  0  0  0  0  0  0  0  0  0
    7.3110   -6.5180   23.4750 C   0  0  0  0  0  0  0  0  0  0  0  0
    5.1150   -6.0000   25.0820 C   0  0  0  0  0  0  0  0  0  0  0  0
    6.3350   -7.4860   23.6510 C   0  0  0  0  0  0  0  0  0  0  0  0
    5.2320   -7.2260   24.4540 C   0  0  0  0  0  0  0  0  0  0  0  0
  1  2  2  0
  2  3  1  0
  2  4  1  0
  3  5  2  0
  3  6  1  0
  4  7  1  0
  4  8  1  0
  5  9  1  0
  6 10  2  0
  9 10  1  0
  7 11  2  0
  7 12  1  0
  8 13  2  0
  8 14  1  0
 11 15  1  0
 12 16  2  0
 13 17  1  0
 14 18  1  0
 17 18  2  0
 15 19  2  0
 16 19  1  0
 18 20  1  0
 20 21  1  0
 21 22  2  0
 21 23  1  0
 22 24  1  0
 23 25  2  0
 24 26  2  0
 25 26  1  0
M  END
