IAN-BAS-44680fdf-1-nitrile
     RDKit          3D

 27 30  0  0  0  0  0  0  0  0999 V2000
    6.5580   -5.3150   20.6840 C   0  0  0  0  0  0  0  0  0  0  0  0
    5.5960   -4.7350   20.1360 N   0  0  0  0  0  0  0  0  0  0  0  0
    6.4150   -5.8480   21.9980 N   0  0  0  0  0  0  0  0  0  0  0  0
    5.1660   -5.5670   22.6400 C   0  0  0  0  0  0  0  0  0  0  0  0
    7.4570   -5.6050   22.9850 C   0  0  0  0  0  0  0  0  0  0  0  0
    5.2430   -4.0730   22.7770 C   0  0  0  0  0  0  0  0  0  0  0  0
    7.6650   -4.0880   22.9280 C   0  0  0  0  0  0  0  0  0  0  0  0
    6.5690   -3.5480   22.3340 N   0  0  0  0  0  0  0  0  0  0  0  0
    6.5760   -3.0560   20.9310 C   0  0  0  0  0  0  0  0  0  0  0  0
    5.5950   -3.1100   20.1840 O   0  0  0  0  0  0  0  0  0  0  0  0
    7.9020   -2.4900   20.4090 C   0  0  0  0  0  0  0  0  0  0  0  0
    8.3290   -1.2300   21.0370 C   0  0  0  0  0  0  0  0  0  0  0  0
    9.6860   -1.2740   21.7590 C   0  0  0  0  0  0  0  0  0  0  0  0
    7.6020   -0.0470   20.9870 N   0  0  0  0  0  0  0  0  0  0  0  0
   10.1850   -0.1100   22.3480 C   0  0  0  0  0  0  0  0  0  0  0  0
    8.1800    1.1280   21.6160 C   0  0  0  0  0  0  0  0  0  0  0  0
    9.4460    1.0890   22.2750 C   0  0  0  0  0  0  0  0  0  0  0  0
    7.4810    2.3570   21.5800 C   0  0  0  0  0  0  0  0  0  0  0  0
    9.9240    2.2670   22.8360 C   0  0  0  0  0  0  0  0  0  0  0  0
    8.0230    3.5010   22.1670 C   0  0  0  0  0  0  0  0  0  0  0  0
    6.1980    2.4720   20.9460 C   0  0  0  0  0  0  0  0  0  0  0  0
    9.2580    3.4820   22.8070 C   0  0  0  0  0  0  0  0  0  0  0  0
    5.8270    1.6390   19.8290 C   0  0  0  0  0  0  0  0  0  0  0  0
    5.2470    3.3980   21.3860 C   0  0  0  0  0  0  0  0  0  0  0  0
    4.5790    1.7340   19.2040 C   0  0  0  0  0  0  0  0  0  0  0  0
    4.0150    3.4510   20.7230 C   0  0  0  0  0  0  0  0  0  0  0  0
    3.6360    2.6560   19.6500 N   0  0  0  0  0  0  0  0  0  0  0  0
  1  2  2  3
  1  3  1  0
  3  4  1  0
  3  5  1  0
  4  6  1  0
  5  7  1  0
  6  8  1  0
  7  8  1  0
  8  9  1  0
  9 10  2  0
  9 11  1  0
 11 12  1  0
 12 13  2  0
 12 14  1  0
 13 15  1  0
 14 16  2  0
 15 17  2  0
 16 17  1  0
 16 18  1  0
 17 19  1  0
 18 20  2  0
 18 21  1  0
 19 22  2  0
 20 22  1  0
 21 23  2  0
 21 24  1  0
 23 25  1  0
 24 26  2  0
 25 27  2  0
 26 27  1  0
M  END
