IAN-BAS-d38e7e67-1-vinylsulfonamide
     RDKit          3D

 24 25  0  0  0  0  0  0  0  0999 V2000
    6.6280   -5.3230   20.8140 C   0  0  0  0  0  0  0  0  0  0  0  0
    6.8590   -6.1200   22.1470 C   0  0  0  0  0  0  0  0  0  0  0  0
    5.4090   -5.8680   23.1240 S   0  0  0  0  0  0  0  0  0  0  0  0
    4.4140   -5.1930   22.2710 O   0  0  0  0  0  0  0  0  0  0  0  0
    5.0700   -7.0620   23.8580 O   0  0  0  0  0  0  0  0  0  0  0  0
    5.9250   -4.7360   24.1660 N   0  0  0  0  0  0  0  0  0  0  0  0
    4.9780   -3.6790   24.2510 C   0  0  0  0  0  0  0  0  0  0  0  0
    7.2420   -4.2030   23.8370 C   0  0  0  0  0  0  0  0  0  0  0  0
    4.7080   -3.4660   22.7290 C   0  0  0  0  0  0  0  0  0  0  0  0
    7.1480   -3.3050   22.7770 C   0  0  1  0  0  0  0  0  0  0  0  0
    5.9510   -3.6670   21.9220 N   0  0  0  0  0  0  0  0  0  0  0  0
    7.0950   -1.7990   23.1400 C   0  0  0  0  0  0  0  0  0  0  0  0
    5.8880   -3.2430   20.4890 C   0  0  0  0  0  0  0  0  0  0  0  0
    5.8080   -0.9880   23.3840 C   0  0  0  0  0  0  0  0  0  0  0  0
    8.3280   -1.0610   23.2680 C   0  0  0  0  0  0  0  0  0  0  0  0
    6.8870   -2.1330   20.1230 C   0  0  0  0  0  0  0  0  0  0  0  0
    5.1460   -3.7800   19.6480 O   0  0  0  0  0  0  0  0  0  0  0  0
    5.9140    0.4720   23.7290 C   0  0  0  0  0  0  0  0  0  0  0  0
    8.2700    0.4040   23.6280 N   0  0  0  0  0  0  0  0  0  0  0  0
    9.6840   -1.6450   23.0620 C   0  0  0  0  0  0  0  0  0  0  0  0
    7.1390    1.0720   23.8280 C   0  0  0  0  0  0  0  0  0  0  0  0
    9.7750   -3.1460   23.3550 C   0  0  0  0  0  0  0  0  0  0  0  0
   10.8130   -0.9640   22.6550 N   0  0  0  0  0  0  0  0  0  0  0  0
   11.8170   -1.8970   22.5800 O   0  0  0  0  0  0  0  0  0  0  0  0
  1  2  1  0
  3  2  1  0
  3  4  2  0
  3  5  2  0
  3  6  1  0
  6  7  1  0
  6  8  1  0
  7  9  1  0
  8 10  1  0
  9 11  1  0
 10 11  1  0
 10 12  1  1
 11 13  1  0
 12 14  2  0
 12 15  1  0
 13 16  1  0
 13 17  2  0
 14 18  1  0
 15 19  2  0
 15 20  1  0
 18 21  2  0
 19 21  1  0
 20 22  1  0
 20 23  2  3
 23 24  1  0
M  END
