IAN-BAS-44680fdf-1-bromoalkyne
     RDKit          3D

 27 30  0  0  0  0  0  0  0  0999 V2000
    7.0690   -4.9150   20.8180 C   0  0  0  0  0  0  0  0  0  0  0  0
    6.0780   -4.1920   19.9360 C   0  0  0  0  0  0  0  0  0  0  0  0
    6.5540   -5.6680   21.9430 N   0  0  0  0  0  0  0  0  0  0  0  0
    6.5790   -5.2880   23.3850 C   0  0  0  0  0  0  0  0  0  0  0  0
    5.1360   -5.7990   21.8380 C   0  0  0  0  0  0  0  0  0  0  0  0
    6.4670   -3.7990   23.5360 C   0  0  0  0  0  0  0  0  0  0  0  0
    4.5620   -4.7920   22.6710 C   0  0  0  0  0  0  0  0  0  0  0  0
    5.3860   -3.5640   22.6420 N   0  0  0  0  0  0  0  0  0  0  0  0
    5.5230   -2.7790   21.5270 C   0  0  0  0  0  0  0  0  0  0  0  0
    4.9170   -3.0760   20.5010 O   0  0  0  0  0  0  0  0  0  0  0  0
    6.4110   -1.6010   21.6740 C   0  0  0  0  0  0  0  0  0  0  0  0
    6.0270   -0.7550   22.9370 C   0  0  0  0  0  0  0  0  0  0  0  0
    4.9010   -1.1920   23.6330 C   0  0  0  0  0  0  0  0  0  0  0  0
    6.7530    0.2890   23.2780 N   0  0  0  0  0  0  0  0  0  0  0  0
    4.2420   -0.7080   24.8080 C   0  0  0  0  0  0  0  0  0  0  0  0
    6.2520    0.9320   24.4540 C   0  0  0  0  0  0  0  0  0  0  0  0
    5.0910    0.4200   25.1120 C   0  0  0  0  0  0  0  0  0  0  0  0
    6.9000    2.0960   24.9920 C   0  0  0  0  0  0  0  0  0  0  0  0
    4.6390    1.0850   26.2640 C   0  0  0  0  0  0  0  0  0  0  0  0
    6.4080    2.7140   26.1380 C   0  0  0  0  0  0  0  0  0  0  0  0
    8.0710    2.7250   24.4410 C   0  0  0  0  0  0  0  0  0  0  0  0
    5.2940    2.2000   26.7480 C   0  0  0  0  0  0  0  0  0  0  0  0
    8.4750    2.5210   23.1300 C   0  0  0  0  0  0  0  0  0  0  0  0
    8.8640    3.5920   25.2170 C   0  0  0  0  0  0  0  0  0  0  0  0
    9.6990    3.1820   22.5380 C   0  0  0  0  0  0  0  0  0  0  0  0
   10.0040    4.2190   24.7000 C   0  0  0  0  0  0  0  0  0  0  0  0
   10.4850    4.0400   23.3100 N   0  0  0  0  0  0  0  0  0  0  0  0
  1  2  2  3
  1  3  1  0
  3  4  1  0
  3  5  1  0
  4  6  1  0
  5  7  1  0
  6  8  1  0
  7  8  1  0
  8  9  1  0
  9 10  2  0
  9 11  1  0
 11 12  1  0
 12 13  2  0
 12 14  1  0
 13 15  1  0
 14 16  2  0
 15 17  2  0
 16 17  1  0
 16 18  1  0
 17 19  1  0
 18 20  2  0
 18 21  1  0
 19 22  2  0
 20 22  1  0
 21 23  2  0
 21 24  1  0
 23 25  1  0
 24 26  2  0
 25 27  2  0
 26 27  1  0
M  END
