IAN-BAS-b0010df8-1-bromoalkyne
     RDKit          3D

 25 28  0  0  0  0  0  0  0  0999 V2000
    7.4640   -3.4450   19.8440 C   0  0  0  0  0  0  0  0  0  0  0  0
    6.2230   -3.1250   19.0640 C   0  0  0  0  0  0  0  0  0  0  0  0
    7.5100   -3.4870   21.2340 N   0  0  0  0  0  0  0  0  0  0  0  0
    6.3910   -3.5800   22.1670 C   0  0  0  0  0  0  0  0  0  0  0  0
    8.6650   -2.8310   21.8490 C   0  0  0  0  0  0  0  0  0  0  0  0
    5.9350   -2.3240   22.8390 C   0  0  0  0  0  0  0  0  0  0  0  0
    5.7750   -4.7920   22.4400 C   0  0  0  0  0  0  0  0  0  0  0  0
    8.9200   -1.5420   21.4120 C   0  0  0  0  0  0  0  0  0  0  0  0
    9.6090   -3.4170   22.9120 C   0  0  0  0  0  0  0  0  0  0  0  0
    4.8650   -2.4720   23.7380 C   0  0  0  0  0  0  0  0  0  0  0  0
    4.7470   -4.9080   23.3100 N   0  0  0  0  0  0  0  0  0  0  0  0
    9.9930   -0.8120   21.8990 C   0  0  0  0  0  0  0  0  0  0  0  0
   10.6620   -2.6420   23.3550 C   0  0  0  0  0  0  0  0  0  0  0  0
    4.2480   -3.7030   24.0090 C   0  0  0  0  0  0  0  0  0  0  0  0
   10.8380   -1.3480   22.8330 C   0  0  0  0  0  0  0  0  0  0  0  0
   11.5560   -3.0990   24.2960 C   0  0  0  0  0  0  0  0  0  0  0  0
    3.1870   -3.8880   24.8960 C   0  0  0  0  0  0  0  0  0  0  0  0
   11.8790   -0.3520   23.1350 N   0  0  0  0  0  0  0  0  0  0  0  0
   12.7090   -2.1950   24.7180 C   0  0  0  0  0  0  0  0  0  0  0  0
    3.3790   -5.1750   25.6800 C   0  0  0  0  0  0  0  0  0  0  0  0
    2.9930   -2.8170   25.7780 C   0  0  0  0  0  0  0  0  0  0  0  0
   12.7580   -0.8150   24.0410 C   0  0  0  0  0  0  0  0  0  0  0  0
    2.7670   -5.3420   26.9650 C   0  0  0  0  0  0  0  0  0  0  0  0
    1.9940   -3.0650   26.7150 C   0  0  0  0  0  0  0  0  0  0  0  0
    2.3070   -4.0750   27.6270 C   0  0  0  0  0  0  0  0  0  0  0  0
  1  2  2  3
  1  3  1  0
  3  4  1  0
  3  5  1  0
  4  6  2  0
  4  7  1  0
  5  8  2  0
  5  9  1  0
  6 10  1  0
  7 11  2  0
  8 12  1  0
  9 13  2  0
 10 14  2  0
 11 14  1  0
 12 15  2  0
 13 15  1  0
 13 16  1  0
 14 17  1  0
 15 18  1  0
 16 19  2  0
 17 20  1  0
 17 21  1  0
 18 22  2  0
 19 22  1  0
 20 23  1  0
 21 24  1  0
 23 25  1  0
 24 25  1  0
M  END
