IND-SYN-35527f5a-1
     RDKit          3D

 18 20  0  0  0  0  0  0  0  0999 V2000
   10.9130   -2.8550   21.3140 O   0  0  0  0  0  0  0  0  0  0  0  0
   10.2190   -1.9100   21.5510 C   0  0  0  0  0  0  0  0  0  0  0  0
    8.9300   -1.6800   21.1520 N   0  0  0  0  0  0  0  0  0  0  0  0
   10.8500   -0.8860   22.3260 C   0  0  0  0  0  0  0  0  0  0  0  0
    8.1140   -0.7880   21.7820 C   0  0  0  0  0  0  0  0  0  0  0  0
    9.9890    0.0080   22.9490 C   0  0  0  0  0  0  0  0  0  0  0  0
   12.2380   -0.8310   22.4080 C   0  0  0  0  0  0  0  0  0  0  0  0
    6.8330   -0.5050   21.5710 N   0  0  0  0  0  0  0  0  0  0  0  0
    8.6370   -0.0840   22.8410 N   0  0  0  0  0  0  0  0  0  0  0  0
   10.6120    1.0070   23.6890 C   0  0  0  0  0  0  0  0  0  0  0  0
   12.8390    0.1560   23.1340 C   0  0  0  0  0  0  0  0  0  0  0  0
    6.4240    0.0340   20.3640 C   0  0  0  0  0  0  0  0  0  0  0  0
   12.0820    1.0960   23.7870 C   0  0  0  0  0  0  0  0  0  0  0  0
    5.2260    0.9510   20.3040 C   0  0  0  0  0  0  0  0  0  0  0  0
    7.0230   -0.1950   19.1130 C   0  0  0  0  0  0  0  0  0  0  0  0
    4.7290    1.5380   19.1390 C   0  0  0  0  0  0  0  0  0  0  0  0
    6.5550    0.3800   17.9340 N   0  0  0  0  0  0  0  0  0  0  0  0
    5.3820    1.2610   17.9700 C   0  0  0  0  0  0  0  0  0  0  0  0
  1  2  2  0
  2  3  1  0
  2  4  1  0
  3  5  2  0
  4  6  2  0
  4  7  1  0
  5  8  1  0
  5  9  1  0
  6  9  1  0
  6 10  1  0
  7 11  2  0
  8 12  1  0
 10 13  2  0
 11 13  1  0
 12 14  2  0
 12 15  1  0
 14 16  1  0
 15 17  2  0
 16 18  2  0
 17 18  1  0
M  END
