IND-SYN-2c708b29-5-acrylamide
     RDKit          3D

 16 16  0  0  0  0  0  0  0  0999 V2000
    6.4610   -4.9060   20.3380 C   0  0  0  0  0  0  0  0  0  0  0  0
    5.7620   -3.7320   20.9710 C   0  0  0  0  0  0  0  0  0  0  0  0
    5.1390   -2.8570   19.9050 C   0  0  0  0  0  0  0  0  0  0  0  0
    4.3300   -3.3690   19.1780 O   0  0  0  0  0  0  0  0  0  0  0  0
    5.5230   -1.4120   19.9320 C   0  0  0  0  0  0  0  0  0  0  0  0
    4.4010   -0.3390   19.4620 C   0  0  0  0  0  0  0  0  0  0  0  0
    6.9440   -1.5330   20.4880 C   0  0  0  0  0  0  0  0  0  0  0  0
    5.1730    0.9080   19.8530 C   0  0  0  0  0  0  0  0  0  0  0  0
    7.2440   -0.2970   20.6700 C   0  0  0  0  0  0  0  0  0  0  0  0
    6.5260    0.7980   20.4500 C   0  0  0  0  0  0  0  0  0  0  0  0
    8.5350   -0.3140   21.1930 N   0  0  0  0  0  0  0  0  0  0  0  0
    6.8700    2.2330   20.7620 C   0  0  0  0  0  0  0  0  0  0  0  0
    9.0940    0.8980   22.1690 S   0  0  0  0  0  0  0  0  0  0  0  0
   10.5340    0.1290   22.6850 C   0  0  0  0  0  0  0  0  0  0  0  0
    8.1770    0.9520   23.2960 O   0  0  0  0  0  0  0  0  0  0  0  0
    9.3740    2.0770   21.3920 O   0  0  0  0  0  0  0  0  0  0  0  0
  1  2  1  0
  2  3  1  0
  3  4  2  0
  3  5  1  0
  5  6  2  0
  5  7  1  0
  6  8  1  0
  7  9  2  0
  8 10  2  0
  9 10  1  0
  9 11  1  0
 10 12  1  0
 13 11  1  0
 13 14  1  0
 13 15  2  0
 13 16  2  0
M  END
