IND-SYN-5e5c1c3e-2
     RDKit          3D

 15 16  0  0  0  0  0  0  0  0999 V2000
    8.8720    5.1310   22.6500 N   0  0  0  0  0  0  0  0  0  0  0  0
   10.2150    5.2690   23.6440 S   0  0  0  0  0  0  0  0  0  0  0  0
   11.0800    6.2440   23.0210 O   0  0  0  0  0  0  0  0  0  0  0  0
    9.6930    5.4780   24.9750 O   0  0  0  0  0  0  0  0  0  0  0  0
   10.9590    3.6640   23.5400 C   0  0  0  0  0  0  0  0  0  0  0  0
   12.2440    3.5930   23.0040 C   0  0  0  0  0  0  0  0  0  0  0  0
   10.2850    2.4880   23.9950 C   0  0  0  0  0  0  0  0  0  0  0  0
   12.8220    2.2060   22.9740 C   0  0  0  0  0  0  0  0  0  0  0  0
   10.8460    1.1980   23.9540 C   0  0  0  0  0  0  0  0  0  0  0  0
   12.1390    0.9660   23.4520 C   0  0  0  0  0  0  0  0  0  0  0  0
   12.6730   -0.4480   23.4490 C   0  0  0  0  0  0  0  0  0  0  0  0
   12.7810   -1.0760   24.7480 N   0  0  0  0  0  0  0  0  0  0  0  0
   13.0010   -1.0820   22.4320 O   0  0  0  0  0  0  0  0  0  0  0  0
   13.2490   -2.3060   24.4570 C   0  0  0  0  0  0  0  0  0  0  0  0
   13.3860   -2.3210   22.9500 C   0  0  0  0  0  0  0  0  0  0  0  0
  2  1  1  0
  2  3  2  0
  2  4  2  0
  2  5  1  0
  5  6  2  0
  5  7  1  0
  6  8  1  0
  7  9  2  0
  8 10  2  0
  9 10  1  0
 10 11  1  0
 11 12  2  0
 11 13  1  0
 12 14  1  0
 13 15  1  0
 14 15  2  0
M  END
