IND-SYN-6c8299e8-11-acrylamide
     RDKit          3D

 22 23  0  0  0  0  0  0  0  0999 V2000
    7.8320   -3.3930   19.8020 C   0  0  0  0  0  0  0  0  0  0  0  0
    7.5080   -4.1110   21.1010 C   0  0  0  0  0  0  0  0  0  0  0  0
    6.1210   -4.6050   20.8440 C   0  0  0  0  0  0  0  0  0  0  0  0
    5.1100   -5.2540   20.9200 O   0  0  0  0  0  0  0  0  0  0  0  0
    6.3150   -5.5670   21.9190 C   0  0  0  0  0  0  0  0  0  0  0  0
    7.4600   -6.3190   22.0730 C   0  0  0  0  0  0  0  0  0  0  0  0
    5.2640   -5.7210   22.8130 C   0  0  0  0  0  0  0  0  0  0  0  0
    7.5100   -7.2240   23.1170 C   0  0  0  0  0  0  0  0  0  0  0  0
    5.2830   -6.5830   23.8300 N   0  0  0  0  0  0  0  0  0  0  0  0
    4.1600   -4.9100   22.6100 O   0  0  0  0  0  0  0  0  0  0  0  0
    6.4000   -7.3050   23.9380 C   0  0  0  0  0  0  0  0  0  0  0  0
    4.5780   -3.6170   22.5800 C   0  0  0  0  0  0  0  0  0  0  0  0
    4.4230   -2.8010   23.6910 C   0  0  0  0  0  0  0  0  0  0  0  0
    5.1670   -3.1460   21.4130 C   0  0  0  0  0  0  0  0  0  0  0  0
    4.8760   -1.4830   23.6170 C   0  0  0  0  0  0  0  0  0  0  0  0
    5.6150   -1.8450   21.3400 C   0  0  0  0  0  0  0  0  0  0  0  0
    5.4720   -1.0110   22.4400 C   0  0  0  0  0  0  0  0  0  0  0  0
    5.9240    0.3400   22.4020 N   0  0  0  0  0  0  0  0  0  0  0  0
    5.7050    1.3260   21.0460 S   0  0  0  0  0  0  0  0  0  0  0  0
    4.7330    0.3380   19.9100 C   0  0  0  0  0  0  0  0  0  0  0  0
    4.8540    2.4060   21.5060 O   0  0  0  0  0  0  0  0  0  0  0  0
    6.9890    1.6070   20.4380 O   0  0  0  0  0  0  0  0  0  0  0  0
  1  2  1  0
  2  3  1  0
  3  4  2  0
  3  5  1  0
  5  6  2  0
  5  7  1  0
  6  8  1  0
  7  9  2  0
  7 10  1  0
  8 11  2  0
  9 11  1  0
 10 12  1  0
 12 13  2  0
 12 14  1  0
 13 15  1  0
 14 16  2  0
 15 17  2  0
 16 17  1  0
 17 18  1  0
 19 18  1  0
 19 20  1  0
 19 21  2  0
 19 22  2  0
M  END
