IND-SYN-64980207-1-acrylamide
     RDKit          3D

 22 23  0  0  0  0  0  0  0  0999 V2000
    8.8680   -3.8010   20.4110 C   0  0  0  0  0  0  0  0  0  0  0  0
    7.5120   -3.2000   19.8610 C   0  0  0  0  0  0  0  0  0  0  0  0
    6.1390   -3.5060   20.5630 C   0  0  0  0  0  0  0  0  0  0  0  0
    5.2420   -4.2260   20.0290 O   0  0  0  0  0  0  0  0  0  0  0  0
    5.6830   -2.9380   21.8930 C   0  0  0  0  0  0  0  0  0  0  0  0
    6.1860   -1.7040   22.6710 C   0  0  0  0  0  0  0  0  0  0  0  0
    4.5420   -3.6560   22.6220 C   0  0  0  0  0  0  0  0  0  0  0  0
    5.5820   -1.2730   24.0330 C   0  0  0  0  0  0  0  0  0  0  0  0
    3.9250   -3.3260   23.8770 N   0  0  0  0  0  0  0  0  0  0  0  0
    4.2140   -4.6110   22.0200 O   0  0  0  0  0  0  0  0  0  0  0  0
    4.4550   -2.1680   24.5300 C   0  0  0  0  0  0  0  0  0  0  0  0
    5.2560   -5.1660   22.4670 C   0  0  0  0  0  0  0  0  0  0  0  0
    5.5470   -6.4210   22.1740 C   0  0  0  0  0  0  0  0  0  0  0  0
    6.0500   -4.3680   23.2610 C   0  0  0  0  0  0  0  0  0  0  0  0
    6.7160   -6.9880   22.6780 C   0  0  0  0  0  0  0  0  0  0  0  0
    7.1770   -4.8730   23.7500 C   0  0  0  0  0  0  0  0  0  0  0  0
    7.5150   -6.1500   23.4670 C   0  0  0  0  0  0  0  0  0  0  0  0
    8.6510   -6.4390   23.9880 N   0  0  0  0  0  0  0  0  0  0  0  0
    9.4640   -5.8630   22.7690 S   0  0  0  0  0  0  0  0  0  0  0  0
    9.9300   -4.3210   23.4070 C   0  0  0  0  0  0  0  0  0  0  0  0
    8.4350   -5.6370   21.8030 O   0  0  0  0  0  0  0  0  0  0  0  0
   10.4850   -6.8160   22.5540 O   0  0  0  0  0  0  0  0  0  0  0  0
  1  2  1  0
  2  3  1  0
  3  4  2  0
  3  5  1  0
  5  6  2  0
  5  7  1  0
  6  8  1  0
  7  9  2  0
  7 10  1  0
  8 11  2  0
  9 11  1  0
 10 12  1  0
 12 13  2  0
 12 14  1  0
 13 15  1  0
 14 16  2  0
 15 17  2  0
 16 17  1  0
 17 18  1  0
 19 18  1  0
 19 20  1  0
 19 21  2  0
 19 22  2  0
M  END
