IND-SYN-5e5c1c3e-4
     RDKit          3D

 17 18  0  0  0  0  0  0  0  0999 V2000
   12.8600   -1.1890   25.4270 C   0  0  0  0  0  0  0  0  0  0  0  0
   12.9660   -1.3710   24.1570 N   0  0  0  0  0  0  0  0  0  0  0  0
   13.4880   -2.4190   23.4730 C   0  0  0  0  0  0  0  0  0  0  0  0
   12.5200   -0.5140   23.0840 C   0  0  0  0  0  0  0  0  0  0  0  0
   13.3600   -2.2230   22.0290 C   0  0  0  0  0  0  0  0  0  0  0  0
   12.8050   -1.0890   21.7410 N   0  0  0  0  0  0  0  0  0  0  0  0
   11.7910    0.8000   23.3290 C   0  0  0  0  0  0  0  0  0  0  0  0
   10.6070    0.8540   24.2350 C   0  0  0  0  0  0  0  0  0  0  0  0
   12.1330    1.9850   22.7080 C   0  0  0  0  0  0  0  0  0  0  0  0
    9.8430    2.1510   24.4160 C   0  0  0  0  0  0  0  0  0  0  0  0
   11.3800    3.2960   22.8410 C   0  0  0  0  0  0  0  0  0  0  0  0
   10.3040    3.3630   23.6600 C   0  0  0  0  0  0  0  0  0  0  0  0
   11.6520    4.5490   22.1450 N   0  0  0  0  0  0  0  0  0  0  0  0
   12.6480    5.7900   22.6240 S   0  0  0  0  0  0  0  0  0  0  0  0
   13.9650    4.7770   23.1090 C   0  0  0  0  0  0  0  0  0  0  0  0
   12.0440    6.4120   23.7840 O   0  0  0  0  0  0  0  0  0  0  0  0
   13.1350    6.4870   21.4830 O   0  0  0  0  0  0  0  0  0  0  0  0
  1  2  1  0
  2  3  1  0
  2  4  1  0
  3  5  2  0
  4  6  2  0
  5  6  1  0
  4  7  1  0
  7  8  2  0
  7  9  1  0
  8 10  1  0
  9 11  2  0
 10 12  2  0
 11 12  1  0
 11 13  1  0
 14 13  1  0
 14 15  1  0
 14 16  2  0
 14 17  2  0
M  END
