IND-SYN-6c8299e8-6-nitrile
     RDKit          3D

 14 15  0  0  0  0  0  0  0  0999 V2000
    6.5380   -4.1840   20.2130 C   0  0  0  0  0  0  0  0  0  0  0  0
    6.3480   -3.4380   19.2090 N   0  0  0  0  0  0  0  0  0  0  0  0
    5.8130   -3.9930   21.3800 N   0  0  0  0  0  0  0  0  0  0  0  0
    5.8780   -4.6600   22.6960 C   0  0  1  0  0  0  0  0  0  0  0  0
    6.3900   -3.6480   23.7360 C   0  0  0  0  0  0  0  0  0  0  0  0
    4.4940   -5.1540   23.1410 C   0  0  0  0  0  0  0  0  0  0  0  0
    5.4970   -3.6790   24.9690 C   0  0  0  0  0  0  0  0  0  0  0  0
    3.7330   -4.4340   24.0820 C   0  0  0  0  0  0  0  0  0  0  0  0
    3.9130   -6.3130   22.6650 C   0  0  0  0  0  0  0  0  0  0  0  0
    4.1970   -3.3240   24.6170 O   0  0  0  0  0  0  0  0  0  0  0  0
    2.4780   -4.8300   24.5220 C   0  0  0  0  0  0  0  0  0  0  0  0
    2.6350   -6.6990   23.1140 C   0  0  0  0  0  0  0  0  0  0  0  0
    1.9250   -5.9690   24.0310 C   0  0  0  0  0  0  0  0  0  0  0  0
    1.8480   -8.1130   22.5440 Cl  0  0  0  0  0  0  0  0  0  0  0  0
  1  2  2  3
  1  3  1  0
  4  3  1  6
  4  5  1  0
  4  6  1  0
  5  7  1  0
  6  8  2  0
  6  9  1  0
  7 10  1  0
  8 10  1  0
  8 11  1  0
  9 12  2  0
 11 13  2  0
 12 13  1  0
 12 14  1  0
M  END
