IND-SYN-2c708b29-1
     RDKit          3D

 13 14  0  0  0  0  0  0  0  0999 V2000
    5.4600    0.8270   22.2450 C   0  0  0  0  0  0  0  0  0  0  0  0
    5.7460    0.6130   20.8620 C   0  0  0  0  0  0  0  0  0  0  0  0
    4.7720    1.1990   19.7770 C   0  0  0  0  0  0  0  0  0  0  0  0
    6.8800   -0.1090   20.4290 C   0  0  0  0  0  0  0  0  0  0  0  0
    5.2320    0.8750   18.3350 C   0  0  0  0  0  0  0  0  0  0  0  0
    7.0840   -0.2830   18.9540 C   0  0  0  0  0  0  0  0  0  0  0  0
    7.7780   -0.6390   21.3680 N   0  0  0  0  0  0  0  0  0  0  0  0
    6.3040    0.1860   17.9630 N   0  0  0  0  0  0  0  0  0  0  0  0
    9.0190   -0.1450   21.7230 C   0  0  0  0  0  0  0  0  0  0  0  0
    7.6440   -1.8710   22.2310 C   0  0  0  0  0  0  0  0  0  0  0  0
    9.6190   -1.0590   22.7740 C   0  0  0  0  0  0  0  0  0  0  0  0
    8.7900   -2.1610   23.1320 N   0  0  0  0  0  0  0  0  0  0  0  0
    6.3440   -2.6760   22.0810 C   0  0  0  0  0  0  0  0  0  0  0  0
  1  2  1  0
  2  3  2  0
  2  4  1  0
  3  5  1  0
  4  6  2  0
  4  7  1  0
  5  8  2  0
  6  8  1  0
  7  9  1  0
  7 10  1  0
  9 11  2  0
 10 12  2  0
 11 12  1  0
 10 13  1  0
M  END
