IND-SYN-2c708b29-5-vinylsulfonamide
     RDKit          3D

 17 17  0  0  0  0  0  0  0  0999 V2000
    7.5750   -4.1340   20.5470 C   0  0  0  0  0  0  0  0  0  0  0  0
    6.3350   -3.3630   20.7930 C   0  0  0  0  0  0  0  0  0  0  0  0
    5.7830   -2.6790   19.2800 S   0  0  0  0  0  0  0  0  0  0  0  0
    4.4180   -3.1870   19.3880 O   0  0  0  0  0  0  0  0  0  0  0  0
    6.6850   -3.0070   18.2140 O   0  0  0  0  0  0  0  0  0  0  0  0
    5.9860   -0.9780   19.6420 C   0  0  0  0  0  0  0  0  0  0  0  0
    5.0340   -0.3180   18.5830 C   0  0  0  0  0  0  0  0  0  0  0  0
    5.7610    0.1500   19.4800 C   0  0  0  0  0  0  0  0  0  0  0  0
    5.2700    1.3930   19.1330 C   0  0  0  0  0  0  0  0  0  0  0  0
    6.6140    0.1520   20.4580 C   0  0  0  0  0  0  0  0  0  0  0  0
    6.3180    1.2790   20.3680 C   0  0  0  0  0  0  0  0  0  0  0  0
    7.4270   -0.7210   21.2270 N   0  0  0  0  0  0  0  0  0  0  0  0
    6.6840    2.5540   21.1230 C   0  0  0  0  0  0  0  0  0  0  0  0
    8.9530   -0.0860   21.6510 S   0  0  0  0  0  0  0  0  0  0  0  0
    8.9410   -0.1570   23.3290 C   0  0  0  0  0  0  0  0  0  0  0  0
    9.9430   -1.0740   21.2900 O   0  0  0  0  0  0  0  0  0  0  0  0
    9.1080    1.3060   21.2110 O   0  0  0  0  0  0  0  0  0  0  0  0
  1  2  1  0
  3  2  1  0
  3  4  2  0
  3  5  2  0
  3  6  1  0
  6  7  2  0
  6  8  1  0
  7  9  1  0
  8 10  2  0
  9 11  2  0
 10 11  1  0
 10 12  1  0
 11 13  1  0
 14 12  1  0
 14 15  1  0
 14 16  2  0
 14 17  2  0
M  END
