IND-SYN-2c708b29-4-acrylamide
     RDKit          3D

 15 15  0  0  0  0  0  0  0  0999 V2000
    6.9790   -3.6340   19.7760 C   0  0  0  0  0  0  0  0  0  0  0  0
    6.2150   -2.6470   18.9610 C   0  0  0  0  0  0  0  0  0  0  0  0
    4.8380   -2.5480   19.4920 C   0  0  0  0  0  0  0  0  0  0  0  0
    4.7080   -3.7750   19.2880 O   0  0  0  0  0  0  0  0  0  0  0  0
    5.2980   -1.1520   19.6300 C   0  0  0  0  0  0  0  0  0  0  0  0
    4.7290    0.1120   18.8930 C   0  0  0  0  0  0  0  0  0  0  0  0
    6.2770   -1.1630   20.5620 C   0  0  0  0  0  0  0  0  0  0  0  0
    5.3810    1.4070   19.4170 C   0  0  0  0  0  0  0  0  0  0  0  0
    6.8490   -0.0690   21.0010 C   0  0  0  0  0  0  0  0  0  0  0  0
    6.4440    1.1350   20.5230 C   0  0  0  0  0  0  0  0  0  0  0  0
    7.8610   -0.1450   21.9770 N   0  0  0  0  0  0  0  0  0  0  0  0
    6.9790    2.4570   21.0360 C   0  0  0  0  0  0  0  0  0  0  0  0
    9.0930    0.4280   21.8420 C   0  0  0  0  0  0  0  0  0  0  0  0
   10.0890   -0.4030   22.3400 C   0  0  0  0  0  0  0  0  0  0  0  0
    9.2920    1.5370   21.3420 O   0  0  0  0  0  0  0  0  0  0  0  0
  1  2  1  0
  2  3  1  0
  3  4  2  0
  3  5  1  0
  5  6  2  0
  5  7  1  0
  6  8  1  0
  7  9  2  0
  8 10  2  0
  9 10  1  0
  9 11  1  0
 10 12  1  0
 11 13  1  0
 13 14  1  0
 13 15  2  0
M  END
