IND-SYN-64980207-1-vinylsulfonamide
     RDKit          3D

 23 24  0  0  0  0  0  0  0  0999 V2000
    8.2520   -3.6580   20.0600 C   0  0  0  0  0  0  0  0  0  0  0  0
    7.0160   -2.8590   19.8330 C   0  0  0  0  0  0  0  0  0  0  0  0
    5.7760   -3.7170   20.6960 S   0  0  0  0  0  0  0  0  0  0  0  0
    4.7160   -2.8830   21.0500 O   0  0  0  0  0  0  0  0  0  0  0  0
    5.4040   -4.8610   19.8920 O   0  0  0  0  0  0  0  0  0  0  0  0
    6.3430   -4.3110   22.2560 C   0  0  0  0  0  0  0  0  0  0  0  0
    5.0420   -3.5060   22.4250 C   0  0  0  0  0  0  0  0  0  0  0  0
    6.6540   -4.7540   23.7910 C   0  0  0  0  0  0  0  0  0  0  0  0
    4.1410   -3.1320   23.5410 C   0  0  0  0  0  0  0  0  0  0  0  0
    5.7090   -4.3690   24.7080 N   0  0  0  0  0  0  0  0  0  0  0  0
    7.4140   -5.0280   22.8820 O   0  0  0  0  0  0  0  0  0  0  0  0
    4.5930   -3.6800   24.7650 C   0  0  0  0  0  0  0  0  0  0  0  0
    8.1440   -3.8440   22.8090 C   0  0  0  0  0  0  0  0  0  0  0  0
    7.6990   -2.5510   23.4650 C   0  0  0  0  0  0  0  0  0  0  0  0
    9.3930   -3.5480   22.1660 C   0  0  0  0  0  0  0  0  0  0  0  0
    8.3530   -1.3490   23.4450 C   0  0  0  0  0  0  0  0  0  0  0  0
   10.0940   -2.3110   22.1310 C   0  0  0  0  0  0  0  0  0  0  0  0
    9.6030   -1.1550   22.7690 C   0  0  0  0  0  0  0  0  0  0  0  0
   10.3220    0.0160   22.7040 N   0  0  0  0  0  0  0  0  0  0  0  0
    9.5950    1.5220   22.4420 S   0  0  0  0  0  0  0  0  0  0  0  0
    8.3870    1.6000   23.6590 C   0  0  0  0  0  0  0  0  0  0  0  0
    8.9150    1.5310   21.1630 O   0  0  0  0  0  0  0  0  0  0  0  0
   10.6180    2.4920   22.7550 O   0  0  0  0  0  0  0  0  0  0  0  0
  1  2  1  0
  3  2  1  0
  3  4  2  0
  3  5  2  0
  3  6  1  0
  6  7  2  0
  6  8  1  0
  7  9  1  0
  8 10  2  0
  8 11  1  0
  9 12  2  0
 10 12  1  0
 11 13  1  0
 13 14  2  0
 13 15  1  0
 14 16  1  0
 15 17  2  0
 16 18  2  0
 17 18  1  0
 18 19  1  0
 20 19  1  0
 20 21  1  0
 20 22  2  0
 20 23  2  0
M  END
