IND-SYN-6c8299e8-6-chloroacetamide
     RDKit          3D

 15 16  0  0  0  0  0  0  0  0999 V2000
    7.0090   -3.0550   19.3450 C   0  0  0  0  0  0  0  0  0  0  0  0
    6.0600   -3.7680   20.3410 C   0  0  0  0  0  0  0  0  0  0  0  0
    5.3140   -4.6210   19.9110 O   0  0  0  0  0  0  0  0  0  0  0  0
    6.0180   -3.4300   21.7050 N   0  0  0  0  0  0  0  0  0  0  0  0
    6.0410   -4.5070   22.6910 C   0  0  2  0  0  0  0  0  0  0  0  0
    6.1020   -5.7810   21.8930 C   0  0  0  0  0  0  0  0  0  0  0  0
    4.8920   -4.7020   23.6990 C   0  0  0  0  0  0  0  0  0  0  0  0
    6.2940   -6.8720   22.8680 C   0  0  0  0  0  0  0  0  0  0  0  0
    4.5320   -6.0170   24.0780 C   0  0  0  0  0  0  0  0  0  0  0  0
    4.1510   -3.6740   24.3000 C   0  0  0  0  0  0  0  0  0  0  0  0
    5.1280   -7.1330   23.6140 O   0  0  0  0  0  0  0  0  0  0  0  0
    3.5120   -6.2980   24.9830 C   0  0  0  0  0  0  0  0  0  0  0  0
    3.1320   -3.9730   25.2030 C   0  0  0  0  0  0  0  0  0  0  0  0
    2.8020   -5.2650   25.5540 C   0  0  0  0  0  0  0  0  0  0  0  0
    2.2480   -2.6800   25.9200 Cl  0  0  0  0  0  0  0  0  0  0  0  0
  1  2  1  0
  2  3  2  0
  2  4  1  0
  5  4  1  6
  5  6  1  0
  5  7  1  0
  6  8  1  0
  7  9  2  0
  7 10  1  0
  8 11  1  0
  9 11  1  0
  9 12  1  0
 10 13  2  0
 12 14  2  0
 13 14  1  0
 13 15  1  0
M  END
