IND-SYN-8f867502-1
     RDKit          3D

 17 18  0  0  0  0  0  0  0  0999 V2000
    9.4820   -0.2200   25.2510 C   0  0  0  0  0  0  0  0  0  0  0  0
   10.2400   -0.2830   24.0150 N   0  0  0  0  0  0  0  0  0  0  0  0
   10.8520   -1.6250   23.8820 C   0  0  0  0  0  0  0  0  0  0  0  0
   10.9510    0.8820   23.6660 C   0  0  0  0  0  0  0  0  0  0  0  0
   11.7430   -1.7900   22.6580 C   0  0  0  0  0  0  0  0  0  0  0  0
   12.2460    0.8260   23.1840 C   0  0  0  0  0  0  0  0  0  0  0  0
   10.3240    2.1540   23.8140 C   0  0  0  0  0  0  0  0  0  0  0  0
   13.0560   -0.7130   22.9420 S   0  0  0  0  0  0  0  0  0  0  0  0
   12.9410    2.1180   22.8610 C   0  0  0  0  0  0  0  0  0  0  0  0
   10.9510    3.3910   23.4950 C   0  0  0  0  0  0  0  0  0  0  0  0
   13.7220   -0.6690   21.6860 O   0  0  0  0  0  0  0  0  0  0  0  0
   13.6190   -1.1430   24.1860 O   0  0  0  0  0  0  0  0  0  0  0  0
   12.2650    3.4420   23.0150 C   0  0  0  0  0  0  0  0  0  0  0  0
   10.0480    4.9220   23.7140 S   0  0  0  0  0  0  0  0  0  0  0  0
   11.2720    6.0750   23.7200 N   0  0  0  0  0  0  0  0  0  0  0  0
    9.3730    5.0050   24.9960 O   0  0  0  0  0  0  0  0  0  0  0  0
    9.2740    5.1740   22.5400 O   0  0  0  0  0  0  0  0  0  0  0  0
  1  2  1  0
  2  3  1  0
  2  4  1  0
  3  5  1  0
  4  6  2  0
  4  7  1  0
  8  5  1  0
  6  8  1  0
  6  9  1  0
  7 10  2  0
  8 11  2  0
  8 12  2  0
  9 13  2  0
 10 13  1  0
 10 14  1  0
 14 15  1  0
 14 16  2  0
 14 17  2  0
M  END
