IND-SYN-2c708b29-4-nitrile
     RDKit          3D

 13 13  0  0  0  0  0  0  0  0999 V2000
    7.2470   -2.6430   18.4250 C   0  0  0  0  0  0  0  0  0  0  0  0
    6.5330   -2.9420   17.4600 N   0  0  0  0  0  0  0  0  0  0  0  0
    6.7260   -1.4330   19.1240 C   0  0  0  0  0  0  0  0  0  0  0  0
    5.4970   -0.6130   18.5270 C   0  0  0  0  0  0  0  0  0  0  0  0
    7.3540   -1.0810   20.2830 C   0  0  0  0  0  0  0  0  0  0  0  0
    5.0410    0.6210   19.3840 C   0  0  0  0  0  0  0  0  0  0  0  0
    6.9600   -0.0300   21.0120 C   0  0  0  0  0  0  0  0  0  0  0  0
    5.9070    0.7830   20.6610 C   0  0  0  0  0  0  0  0  0  0  0  0
    7.7310    0.2060   22.2310 N   0  0  0  0  0  0  0  0  0  0  0  0
    5.3720    1.9800   21.4200 C   0  0  0  0  0  0  0  0  0  0  0  0
    9.0910    0.6440   21.9170 C   0  0  0  0  0  0  0  0  0  0  0  0
   10.1130   -0.4350   22.3510 C   0  0  0  0  0  0  0  0  0  0  0  0
    9.3350    1.7230   21.3710 O   0  0  0  0  0  0  0  0  0  0  0  0
  1  2  2  3
  1  3  1  0
  3  4  2  0
  3  5  1  0
  4  6  1  0
  5  7  2  0
  6  8  2  0
  7  8  1  0
  7  9  1  0
  8 10  1  0
  9 11  1  0
 11 12  1  0
 11 13  2  0
M  END
