IND-SYN-64980207-1-bromoalkyne
     RDKit          3D

 20 21  0  0  0  0  0  0  0  0999 V2000
    6.6100   -4.2770   20.3560 C   0  0  0  0  0  0  0  0  0  0  0  0
    6.2510   -3.1680   19.3710 C   0  0  0  0  0  0  0  0  0  0  0  0
    6.1270   -4.0690   21.8150 C   0  0  0  0  0  0  0  0  0  0  0  0
    7.1290   -3.1010   21.6090 C   0  0  0  0  0  0  0  0  0  0  0  0
    5.1530   -5.1340   21.7480 C   0  0  0  0  0  0  0  0  0  0  0  0
    6.9970   -2.6310   22.9520 C   0  0  0  0  0  0  0  0  0  0  0  0
    5.1130   -4.6020   23.0000 N   0  0  0  0  0  0  0  0  0  0  0  0
    4.2700   -5.8770   22.1590 O   0  0  0  0  0  0  0  0  0  0  0  0
    5.8610   -3.5480   23.5900 C   0  0  0  0  0  0  0  0  0  0  0  0
    4.2480   -6.2640   23.4790 C   0  0  0  0  0  0  0  0  0  0  0  0
    3.3150   -7.3420   24.0100 C   0  0  0  0  0  0  0  0  0  0  0  0
    5.0640   -5.7450   24.5490 C   0  0  0  0  0  0  0  0  0  0  0  0
    3.2980   -7.7250   25.3390 C   0  0  0  0  0  0  0  0  0  0  0  0
    5.0650   -6.1100   25.8980 C   0  0  0  0  0  0  0  0  0  0  0  0
    4.1790   -7.1110   26.3150 C   0  0  0  0  0  0  0  0  0  0  0  0
    4.1910   -7.4710   27.6340 N   0  0  0  0  0  0  0  0  0  0  0  0
    4.7710   -6.5110   28.8960 S   0  0  0  0  0  0  0  0  0  0  0  0
    6.4070   -6.3130   28.5260 C   0  0  0  0  0  0  0  0  0  0  0  0
    4.6990   -7.3210   30.0820 O   0  0  0  0  0  0  0  0  0  0  0  0
    4.1560   -5.2090   28.8050 O   0  0  0  0  0  0  0  0  0  0  0  0
  1  2  2  3
  1  3  1  0
  3  4  2  0
  3  5  1  0
  4  6  1  0
  5  7  2  0
  5  8  1  0
  6  9  2  0
  7  9  1  0
  8 10  1  0
 10 11  2  0
 10 12  1  0
 11 13  1  0
 12 14  2  0
 13 15  2  0
 14 15  1  0
 15 16  1  0
 17 16  1  0
 17 18  1  0
 17 19  2  0
 17 20  2  0
M  END
