IND-SYN-8bc6954a-1
     RDKit          3D

 19 21  0  0  0  0  0  0  0  0999 V2000
   11.6450   -2.4540   21.5820 F   0  0  0  0  0  0  0  0  0  0  0  0
   11.6420   -1.2830   22.2180 C   0  0  0  0  0  0  0  0  0  0  0  0
   12.9490   -0.6240   22.3780 C   0  0  0  0  0  0  0  0  0  0  0  0
   10.4710   -0.7320   22.6920 C   0  0  0  0  0  0  0  0  0  0  0  0
   12.9420    0.7230   23.1010 C   0  0  0  0  0  0  0  0  0  0  0  0
   10.2530    0.5730   23.4430 C   0  0  0  0  0  0  0  0  0  0  0  0
    9.0840   -1.3550   22.5520 C   0  0  0  0  0  0  0  0  0  0  0  0
   11.5910    1.2970   23.6300 C   0  0  0  0  0  0  0  0  0  0  0  0
    7.9710   -0.6060   22.7970 N   0  0  0  0  0  0  0  0  0  0  0  0
    8.8670   -2.7640   22.1630 O   0  0  0  0  0  0  0  0  0  0  0  0
    6.8890   -1.4700   22.5950 C   0  0  0  0  0  0  0  0  0  0  0  0
    7.3950   -2.8240   22.2040 C   0  0  0  0  0  0  0  0  0  0  0  0
    5.4030   -1.1540   22.7340 C   0  0  0  0  0  0  0  0  0  0  0  0
    4.9570   -0.3180   21.6990 C   0  0  0  0  0  0  0  0  0  0  0  0
    5.1380   -0.7070   20.3610 C   0  0  0  0  0  0  0  0  0  0  0  0
    4.3270    0.9100   21.9970 C   0  0  0  0  0  0  0  0  0  0  0  0
    4.7470    0.0210   19.2530 C   0  0  0  0  0  0  0  0  0  0  0  0
    3.9190    1.6700   20.8950 C   0  0  0  0  0  0  0  0  0  0  0  0
    4.1020    1.2770   19.5180 N   0  0  0  0  0  0  0  0  0  0  0  0
  1  2  1  0
  2  3  2  0
  2  4  1  0
  3  5  1  0
  4  6  2  0
  4  7  1  0
  5  8  2  0
  6  8  1  0
  7  9  2  0
  7 10  1  0
  9 11  1  0
 10 12  1  0
 11 12  2  0
 11 13  1  0
 13 14  1  0
 14 15  2  0
 14 16  1  0
 15 17  1  0
 16 18  2  0
 17 19  2  0
 18 19  1  0
M  END
