IND-SYN-8bc6954a-3
     RDKit          3D

 18 20  0  0  0  0  0  0  0  0999 V2000
   10.8730   -3.0420   22.4140 O   0  0  0  0  0  0  0  0  0  0  0  0
   10.3110   -2.0360   22.1140 C   0  0  0  0  0  0  0  0  0  0  0  0
    9.0710   -1.9480   21.5550 N   0  0  0  0  0  0  0  0  0  0  0  0
   11.0310   -0.8300   22.4520 C   0  0  0  0  0  0  0  0  0  0  0  0
    8.3470   -0.8310   21.8010 C   0  0  0  0  0  0  0  0  0  0  0  0
   10.1240    0.3490   22.6570 C   0  0  0  0  0  0  0  0  0  0  0  0
   12.3990   -0.7030   22.5930 C   0  0  0  0  0  0  0  0  0  0  0  0
    7.1070   -0.6430   21.4040 N   0  0  0  0  0  0  0  0  0  0  0  0
    8.8280    0.2120   22.5310 N   0  0  0  0  0  0  0  0  0  0  0  0
   10.8480    1.6340   23.0040 C   0  0  0  0  0  0  0  0  0  0  0  0
   12.9770    0.4970   22.9180 C   0  0  0  0  0  0  0  0  0  0  0  0
    6.5510   -0.0140   20.2810 C   0  0  0  0  0  0  0  0  0  0  0  0
   12.2540    1.6510   23.1210 C   0  0  0  0  0  0  0  0  0  0  0  0
    5.3090    0.9030   20.4600 C   0  0  0  0  0  0  0  0  0  0  0  0
    7.0220   -0.1170   18.8130 C   0  0  0  0  0  0  0  0  0  0  0  0
    4.6720    1.6120   19.2670 C   0  0  0  0  0  0  0  0  0  0  0  0
    6.3580    0.6010   17.7040 N   0  0  0  0  0  0  0  0  0  0  0  0
    5.2440    1.4360   17.8520 C   0  0  0  0  0  0  0  0  0  0  0  0
  1  2  2  0
  2  3  1  0
  2  4  1  0
  3  5  2  0
  4  6  2  0
  4  7  1  0
  5  8  1  0
  5  9  1  0
  6  9  1  0
  6 10  1  0
  7 11  2  0
  8 12  1  0
 10 13  2  0
 11 13  1  0
 12 14  2  0
 12 15  1  0
 14 16  1  0
 15 17  2  0
 16 18  2  0
 17 18  1  0
M  END
