IND-SYN-2c708b29-4-vinylsulfonamide
     RDKit          3D

 16 16  0  0  0  0  0  0  0  0999 V2000
    7.5410   -3.3690   19.4320 C   0  0  0  0  0  0  0  0  0  0  0  0
    7.0160   -2.4150   18.4610 C   0  0  0  0  0  0  0  0  0  0  0  0
    5.3620   -2.1180   18.7920 S   0  0  0  0  0  0  0  0  0  0  0  0
    4.6450   -3.1560   19.6480 O   0  0  0  0  0  0  0  0  0  0  0  0
    4.9420   -1.4760   17.6150 O   0  0  0  0  0  0  0  0  0  0  0  0
    5.5820   -0.6570   19.5340 C   0  0  0  0  0  0  0  0  0  0  0  0
    4.7420    0.5860   19.1460 C   0  0  0  0  0  0  0  0  0  0  0  0
    6.5480   -0.7350   20.4530 C   0  0  0  0  0  0  0  0  0  0  0  0
    5.1220    1.8080   19.9900 C   0  0  0  0  0  0  0  0  0  0  0  0
    6.8890    0.3050   21.1840 C   0  0  0  0  0  0  0  0  0  0  0  0
    6.2350    1.5170   21.0020 C   0  0  0  0  0  0  0  0  0  0  0  0
    7.9010    0.1130   22.1130 N   0  0  0  0  0  0  0  0  0  0  0  0
    6.4680    2.8120   21.7540 C   0  0  0  0  0  0  0  0  0  0  0  0
    9.1350    0.6050   21.8940 C   0  0  0  0  0  0  0  0  0  0  0  0
   10.2370   -0.3660   22.3460 C   0  0  0  0  0  0  0  0  0  0  0  0
    9.3850    1.6990   21.3880 O   0  0  0  0  0  0  0  0  0  0  0  0
  1  2  1  0
  3  2  1  0
  3  4  2  0
  3  5  2  0
  3  6  1  0
  6  7  2  0
  6  8  1  0
  7  9  1  0
  8 10  2  0
  9 11  2  0
 10 11  1  0
 10 12  1  0
 11 13  1  0
 12 14  1  0
 14 15  1  0
 14 16  2  0
M  END
