IND-SYN-5e5c1c3e-1
     RDKit          3D

 16 17  0  0  0  0  0  0  0  0999 V2000
   12.9370   -1.4440   25.3940 C   0  0  0  0  0  0  0  0  0  0  0  0
   12.9960   -1.4530   24.0930 N   0  0  0  0  0  0  0  0  0  0  0  0
   13.4060   -2.4930   23.3290 C   0  0  0  0  0  0  0  0  0  0  0  0
   12.6560   -0.4620   23.0630 C   0  0  0  0  0  0  0  0  0  0  0  0
   13.3400   -2.2050   21.9070 C   0  0  0  0  0  0  0  0  0  0  0  0
   12.9200   -0.9990   21.6980 N   0  0  0  0  0  0  0  0  0  0  0  0
   12.0730    0.9420   23.2870 C   0  0  0  0  0  0  0  0  0  0  0  0
   10.6970    1.0870   23.8570 C   0  0  0  0  0  0  0  0  0  0  0  0
   12.7680    2.1010   22.9430 C   0  0  0  0  0  0  0  0  0  0  0  0
   10.1080    2.4640   24.0150 C   0  0  0  0  0  0  0  0  0  0  0  0
   12.2760    3.4320   23.0600 C   0  0  0  0  0  0  0  0  0  0  0  0
   10.9900    3.5810   23.5750 C   0  0  0  0  0  0  0  0  0  0  0  0
   10.3740    5.1930   23.7090 S   0  0  0  0  0  0  0  0  0  0  0  0
    9.0520    5.1260   22.6910 N   0  0  0  0  0  0  0  0  0  0  0  0
   11.3080    6.0940   23.0740 O   0  0  0  0  0  0  0  0  0  0  0  0
    9.8620    5.4550   25.0320 O   0  0  0  0  0  0  0  0  0  0  0  0
  1  2  1  0
  2  3  1  0
  2  4  1  0
  3  5  2  0
  4  6  2  0
  5  6  1  0
  4  7  1  0
  7  8  2  0
  7  9  1  0
  8 10  1  0
  9 11  2  0
 10 12  2  0
 11 12  1  0
 12 13  1  0
 13 14  1  0
 13 15  2  0
 13 16  2  0
M  END
