IND-SYN-2c708b29-5-chloroacetamide
     RDKit          3D

 15 15  0  0  0  0  0  0  0  0999 V2000
    6.9770   -3.3820   19.4850 C   0  0  0  0  0  0  0  0  0  0  0  0
    6.3250   -2.4500   18.5170 C   0  0  0  0  0  0  0  0  0  0  0  0
    6.0020   -2.8720   17.4470 O   0  0  0  0  0  0  0  0  0  0  0  0
    6.0970   -1.0750   18.9690 C   0  0  0  0  0  0  0  0  0  0  0  0
    5.2550    0.0630   18.2940 C   0  0  0  0  0  0  0  0  0  0  0  0
    6.7560   -0.9610   20.1520 C   0  0  0  0  0  0  0  0  0  0  0  0
    5.2330    1.3720   19.1640 C   0  0  0  0  0  0  0  0  0  0  0  0
    6.7340    0.1440   20.8900 C   0  0  0  0  0  0  0  0  0  0  0  0
    6.0340    1.2460   20.4750 C   0  0  0  0  0  0  0  0  0  0  0  0
    7.4560    0.0600   22.1000 N   0  0  0  0  0  0  0  0  0  0  0  0
    5.8940    2.5700   21.2210 C   0  0  0  0  0  0  0  0  0  0  0  0
    9.0010    0.7160   22.1720 S   0  0  0  0  0  0  0  0  0  0  0  0
    9.9400   -0.7070   22.0460 C   0  0  0  0  0  0  0  0  0  0  0  0
    9.0770    1.5520   20.9930 O   0  0  0  0  0  0  0  0  0  0  0  0
    9.2570    1.2980   23.4610 O   0  0  0  0  0  0  0  0  0  0  0  0
  1  2  1  0
  2  3  2  0
  2  4  1  0
  4  5  2  0
  4  6  1  0
  5  7  1  0
  6  8  2  0
  7  9  2  0
  8  9  1  0
  8 10  1  0
  9 11  1  0
 12 10  1  0
 12 13  1  0
 12 14  2  0
 12 15  2  0
M  END
