IND-SYN-6c8299e8-1-vinylsulfonamide
     RDKit          3D

 20 22  0  0  0  0  0  0  0  0999 V2000
    6.7910   -5.9020   21.0200 C   0  0  0  0  0  0  0  0  0  0  0  0
    6.8890   -5.3930   22.4640 C   0  0  0  0  0  0  0  0  0  0  0  0
    5.2970   -5.4770   23.3310 S   0  0  0  0  0  0  0  0  0  0  0  0
    4.1730   -5.2080   22.4020 O   0  0  0  0  0  0  0  0  0  0  0  0
    5.2820   -6.5540   24.2830 O   0  0  0  0  0  0  0  0  0  0  0  0
    5.3960   -4.1150   24.3100 N   0  0  0  0  0  0  0  0  0  0  0  0
    4.8770   -3.0790   23.4360 C   0  0  0  0  0  0  0  0  0  0  0  0
    6.8210   -3.8040   24.7680 C   0  0  0  0  0  0  0  0  0  0  0  0
    5.6510   -3.2480   22.1380 C   0  0  0  0  0  0  0  0  0  0  0  0
    7.7910   -3.6370   23.5760 C   0  0  1  0  0  0  0  0  0  0  0  0
    7.0790   -2.8520   22.5020 C   0  0  0  0  0  0  0  0  0  0  0  0
    9.0910   -3.2260   23.9000 C   0  0  0  0  0  0  0  0  0  0  0  0
    9.8960   -3.8020   24.7410 N   0  0  0  0  0  0  0  0  0  0  0  0
    9.6140   -2.1140   23.2720 O   0  0  0  0  0  0  0  0  0  0  0  0
   11.0310   -3.0680   24.6770 C   0  0  0  0  0  0  0  0  0  0  0  0
   10.8820   -2.0320   23.7870 C   0  0  0  0  0  0  0  0  0  0  0  0
   12.2070   -3.2360   25.3400 C   0  0  0  0  0  0  0  0  0  0  0  0
   11.8760   -1.1140   23.5080 C   0  0  0  0  0  0  0  0  0  0  0  0
   13.2480   -2.3470   25.1020 C   0  0  0  0  0  0  0  0  0  0  0  0
   13.0820   -1.2990   24.1970 C   0  0  0  0  0  0  0  0  0  0  0  0
  1  2  1  0
  3  2  1  0
  3  4  2  0
  3  5  2  0
  3  6  1  0
  6  7  1  0
  6  8  1  0
  7  9  1  0
  8 10  1  0
  9 11  1  0
 10 11  1  0
 10 12  1  1
 12 13  2  0
 12 14  1  0
 13 15  1  0
 14 16  1  0
 15 16  2  0
 15 17  1  0
 16 18  1  0
 17 19  2  0
 18 20  2  0
 19 20  1  0
M  END
