IND-SYN-6c8299e8-9-acrylamide
     RDKit          3D

 20 21  0  0  0  0  0  0  0  0999 V2000
    7.8800   -3.7400   20.2900 C   0  0  0  0  0  0  0  0  0  0  0  0
    6.5550   -3.0730   20.0620 C   0  0  0  0  0  0  0  0  0  0  0  0
    5.5010   -4.0080   20.5920 C   0  0  0  0  0  0  0  0  0  0  0  0
    4.9470   -3.9140   19.5280 O   0  0  0  0  0  0  0  0  0  0  0  0
    6.2970   -3.9480   21.6850 N   0  0  0  0  0  0  0  0  0  0  0  0
    5.5310   -4.5160   22.7280 C   0  0  0  0  0  0  0  0  0  0  0  0
    5.5530   -6.0230   22.7990 C   0  0  0  0  0  0  0  0  0  0  0  0
    4.7940   -3.7400   23.5820 C   0  0  0  0  0  0  0  0  0  0  0  0
    4.7790   -6.6190   23.7820 C   0  0  0  0  0  0  0  0  0  0  0  0
    4.0400   -4.3920   24.5400 C   0  0  0  0  0  0  0  0  0  0  0  0
    4.0360   -5.7810   24.6340 C   0  0  0  0  0  0  0  0  0  0  0  0
    3.0800   -3.3930   25.6160 S   0  0  0  0  0  0  0  0  0  0  0  0
    2.5860   -2.3060   24.8170 O   0  0  0  0  0  0  0  0  0  0  0  0
    2.1750   -4.2380   26.3560 O   0  0  0  0  0  0  0  0  0  0  0  0
    4.2030   -2.7460   26.7240 N   0  0  0  0  0  0  0  0  0  0  0  0
    5.1320   -1.7640   26.1380 C   0  0  0  0  0  0  0  0  0  0  0  0
    3.4800   -2.1950   27.7930 C   0  0  0  0  0  0  0  0  0  0  0  0
    4.6920   -0.4690   26.2850 C   0  0  0  0  0  0  0  0  0  0  0  0
    2.3620   -1.5270   27.2810 C   0  0  0  0  0  0  0  0  0  0  0  0
    2.8890   -0.2740   26.0700 S   0  0  0  0  0  0  0  0  0  0  0  0
  1  2  1  0
  2  3  1  0
  3  4  2  0
  3  5  1  0
  5  6  1  0
  6  7  2  0
  6  8  1  0
  7  9  1  0
  8 10  2  0
  9 11  2  0
 10 11  1  0
 12 10  1  0
 12 13  2  0
 12 14  2  0
 12 15  1  0
 15 16  1  0
 15 17  1  0
 16 18  1  0
 17 19  1  0
 18 20  1  0
 19 20  1  0
M  END
