IND-SYN-2c708b29-4-chloroacetamide
     RDKit          3D

 14 14  0  0  0  0  0  0  0  0999 V2000
    6.8850   -3.5070   19.6200 C   0  0  0  0  0  0  0  0  0  0  0  0
    6.1960   -2.5770   18.6620 C   0  0  0  0  0  0  0  0  0  0  0  0
    5.7850   -2.9930   17.6300 O   0  0  0  0  0  0  0  0  0  0  0  0
    6.0340   -1.1880   19.0730 C   0  0  0  0  0  0  0  0  0  0  0  0
    5.1020   -0.1010   18.4270 C   0  0  0  0  0  0  0  0  0  0  0  0
    6.8180   -0.9790   20.1490 C   0  0  0  0  0  0  0  0  0  0  0  0
    5.1520    1.2560   19.2130 C   0  0  0  0  0  0  0  0  0  0  0  0
    6.8740    0.1540   20.8150 C   0  0  0  0  0  0  0  0  0  0  0  0
    6.1030    1.2160   20.4210 C   0  0  0  0  0  0  0  0  0  0  0  0
    7.7380    0.1760   21.9130 N   0  0  0  0  0  0  0  0  0  0  0  0
    6.0200    2.5800   21.1020 C   0  0  0  0  0  0  0  0  0  0  0  0
    9.0130    0.6150   21.7860 C   0  0  0  0  0  0  0  0  0  0  0  0
   10.0050   -0.4690   22.2490 C   0  0  0  0  0  0  0  0  0  0  0  0
    9.3140    1.7240   21.3510 O   0  0  0  0  0  0  0  0  0  0  0  0
  1  2  1  0
  2  3  2  0
  2  4  1  0
  4  5  2  0
  4  6  1  0
  5  7  1  0
  6  8  2  0
  7  9  2  0
  8  9  1  0
  8 10  1  0
  9 11  1  0
 10 12  1  0
 12 13  1  0
 12 14  2  0
M  END
