IND-SYN-8f867502-2
     RDKit          3D

 15 16  0  0  0  0  0  0  0  0999 V2000
    9.8220   -0.3290   25.1910 C   0  0  0  0  0  0  0  0  0  0  0  0
   10.6260   -0.2950   23.9860 N   0  0  0  0  0  0  0  0  0  0  0  0
   11.4040   -1.5300   23.7890 C   0  0  0  0  0  0  0  0  0  0  0  0
   11.2330    0.9090   23.6320 C   0  0  0  0  0  0  0  0  0  0  0  0
   12.5520   -1.3230   22.7900 C   0  0  0  0  0  0  0  0  0  0  0  0
   12.5560    0.9150   23.1840 C   0  0  0  0  0  0  0  0  0  0  0  0
   10.4910    2.1360   23.7340 C   0  0  0  0  0  0  0  0  0  0  0  0
   13.2660   -0.1140   23.0730 O   0  0  0  0  0  0  0  0  0  0  0  0
   13.0910    2.2760   22.8420 C   0  0  0  0  0  0  0  0  0  0  0  0
   11.0240    3.4150   23.3960 C   0  0  0  0  0  0  0  0  0  0  0  0
   12.3240    3.5420   22.9400 C   0  0  0  0  0  0  0  0  0  0  0  0
   10.0450    4.9040   23.5470 S   0  0  0  0  0  0  0  0  0  0  0  0
   11.1260    6.0710   22.9880 N   0  0  0  0  0  0  0  0  0  0  0  0
    9.7860    5.2460   24.9170 O   0  0  0  0  0  0  0  0  0  0  0  0
    8.9520    4.8140   22.6180 O   0  0  0  0  0  0  0  0  0  0  0  0
  1  2  1  0
  2  3  1  0
  2  4  1  0
  3  5  1  0
  4  6  2  0
  4  7  1  0
  5  8  1  0
  6  8  1  0
  6  9  1  0
  7 10  2  0
  9 11  2  0
 10 11  1  0
 10 12  1  0
 12 13  1  0
 12 14  2  0
 12 15  2  0
M  END
