IND-SYN-2c708b29-2
     RDKit          3D

 12 12  0  0  0  0  0  0  0  0999 V2000
    5.5220    0.7130   22.1080 C   0  0  0  0  0  0  0  0  0  0  0  0
    5.7570    0.5790   20.7070 C   0  0  0  0  0  0  0  0  0  0  0  0
    4.7340    1.1780   19.6810 C   0  0  0  0  0  0  0  0  0  0  0  0
    6.8980   -0.0790   20.1930 C   0  0  0  0  0  0  0  0  0  0  0  0
    5.1660    0.9370   18.2110 C   0  0  0  0  0  0  0  0  0  0  0  0
    7.0690   -0.1800   18.7090 C   0  0  0  0  0  0  0  0  0  0  0  0
    7.8350   -0.6100   21.0750 N   0  0  0  0  0  0  0  0  0  0  0  0
    6.2470    0.3060   17.7690 N   0  0  0  0  0  0  0  0  0  0  0  0
    8.8770    0.4240   21.9260 S   0  0  0  0  0  0  0  0  0  0  0  0
   10.2910   -0.6160   22.2330 C   0  0  0  0  0  0  0  0  0  0  0  0
    8.2180    0.6760   23.1620 O   0  0  0  0  0  0  0  0  0  0  0  0
    9.2150    1.6070   21.1470 O   0  0  0  0  0  0  0  0  0  0  0  0
  1  2  1  0
  2  3  2  0
  2  4  1  0
  3  5  1  0
  4  6  2  0
  4  7  1  0
  5  8  2  0
  6  8  1  0
  9  7  1  0
  9 10  1  0
  9 11  2  0
  9 12  2  0
M  END
