INS-INS-9c68b1a9-1-nitrile
     RDKit          3D

 36 40  0  0  0  0  0  0  0  0999 V2000
    6.7610   -3.4350   19.6840 C   0  0  0  0  0  0  0  0  0  0  0  0
    5.8880   -3.1720   18.7970 N   0  0  0  0  0  0  0  0  0  0  0  0
    6.6930   -2.7840   20.8870 N   0  0  0  0  0  0  0  0  0  0  0  0
    6.0680   -1.4630   20.8380 C   0  0  0  0  0  0  0  0  0  0  0  0
    6.6100   -3.4440   22.2360 C   0  0  1  0  0  0  0  0  0  0  0  0
    6.6850   -0.5300   21.8510 C   0  0  2  0  0  0  0  0  0  0  0  0
    7.6080   -2.9970   23.1780 C   0  0  0  0  0  0  0  0  0  0  0  0
    5.2740   -3.3880   22.6660 C   0  0  0  0  0  0  0  0  0  0  0  0
    6.3680    0.8880   21.6230 N   0  0  0  0  0  0  0  0  0  0  0  0
    8.0430   -0.8460   21.9360 C   0  0  0  0  0  0  0  0  0  0  0  0
    8.3690   -1.7200   23.0660 N   0  0  0  0  0  0  0  0  0  0  0  0
    4.6520   -4.5410   23.3960 C   0  0  0  0  0  0  0  0  0  0  0  0
    5.8940    1.4860   20.4440 C   0  0  0  0  0  0  0  0  0  0  0  0
    6.4260    2.0400   22.4740 C   0  0  0  0  0  0  0  0  0  0  0  0
    8.7800   -1.0140   24.2980 C   0  0  0  0  0  0  0  0  0  0  0  0
    5.0810   -5.8520   23.1870 C   0  0  0  0  0  0  0  0  0  0  0  0
    3.6560   -4.2670   24.2670 N   0  0  0  0  0  0  0  0  0  0  0  0
    5.5840    0.8640   19.0680 C   0  0  0  0  0  0  0  0  0  0  0  0
    5.6850    2.8700   20.6000 N   0  0  0  0  0  0  0  0  0  0  0  0
    6.0270    3.2010   21.8760 N   0  0  0  0  0  0  0  0  0  0  0  0
    6.8910    1.8160   23.8330 C   0  0  0  0  0  0  0  0  0  0  0  0
    9.7610   -0.0750   24.0090 C   0  0  0  0  0  0  0  0  0  0  0  0
    4.4620   -6.8750   23.8940 C   0  0  0  0  0  0  0  0  0  0  0  0
    3.1110   -5.3160   24.9060 C   0  0  0  0  0  0  0  0  0  0  0  0
    9.7880    1.3580   24.3280 C   0  0  0  0  0  0  0  0  0  0  0  0
   10.8230   -0.5030   23.3040 C   0  0  0  0  0  0  0  0  0  0  0  0
    3.4610   -6.5980   24.7660 N   0  0  0  0  0  0  0  0  0  0  0  0
   10.9440    2.2590   23.8840 C   0  0  0  0  0  0  0  0  0  0  0  0
   11.9320    0.2930   22.9070 C   0  0  0  0  0  0  0  0  0  0  0  0
   10.7340   -1.9070   22.9300 C   0  0  0  0  0  0  0  0  0  0  0  0
   10.8340    3.7730   24.1790 C   0  0  0  0  0  0  0  0  0  0  0  0
   12.0020    1.6510   23.2060 C   0  0  0  0  0  0  0  0  0  0  0  0
   13.0770   -0.3210   22.0850 C   0  0  0  0  0  0  0  0  0  0  0  0
   11.7220   -2.5090   22.1260 C   0  0  0  0  0  0  0  0  0  0  0  0
   12.8620   -1.7780   21.6850 C   0  0  0  0  0  0  0  0  0  0  0  0
   13.5130   -2.7900   20.8790 C   0  0  0  0  0  0  0  0  0  0  0  0
  1  2  2  3
  1  3  1  0
  3  4  1  0
  3  5  1  0
  4  6  1  0
  5  7  1  0
  5  8  1  1
  6  9  1  6
  6 10  1  0
  7 11  1  0
 10 11  1  0
  8 12  1  0
  9 13  1  0
  9 14  1  0
 11 15  1  0
 12 16  2  0
 12 17  1  0
 13 18  1  0
 13 19  2  0
 14 20  2  0
 19 20  1  0
 14 21  1  0
 15 22  1  0
 16 23  1  0
 17 24  2  0
 22 25  2  0
 22 26  1  0
 23 27  2  0
 24 27  1  0
 25 28  1  0
 26 29  2  0
 26 30  1  0
 28 31  1  0
 28 32  2  0
 29 32  1  0
 29 33  1  0
 30 34  2  0
 33 35  2  0
 34 35  1  0
 35 36  1  0
M  END
