INS-INS-abeb49e4-1-nitrile
     RDKit          3D

 42 46  0  0  0  0  0  0  0  0999 V2000
    6.8750   -3.4250   19.8920 C   0  0  0  0  0  0  0  0  0  0  0  0
    5.8120   -3.4060   19.1860 N   0  0  0  0  0  0  0  0  0  0  0  0
    6.9910   -2.5260   20.9790 N   0  0  0  0  0  0  0  0  0  0  0  0
    6.2560   -2.8120   22.2220 C   0  0  0  0  0  0  0  0  0  0  0  0
    8.1450   -1.6510   21.2120 C   0  0  2  0  0  0  0  0  0  0  0  0
    7.1200   -3.2140   23.4100 C   0  0  0  0  0  0  0  0  0  0  0  0
    9.1970   -2.3090   22.1910 C   0  0  2  0  0  0  0  0  0  0  0  0
    7.8360   -0.1580   21.4650 C   0  0  0  0  0  0  0  0  0  0  0  0
    8.5270   -3.0000   23.3740 C   0  0  0  0  0  0  0  0  0  0  0  0
    6.4860   -3.8000   24.5620 C   0  0  0  0  0  0  0  0  0  0  0  0
   10.3260   -1.4050   22.6550 C   0  0  0  0  0  0  0  0  0  0  0  0
    6.6770    0.4280   20.9640 C   0  0  0  0  0  0  0  0  0  0  0  0
    8.7240    0.5730   22.1710 N   0  0  0  0  0  0  0  0  0  0  0  0
    9.3380   -3.4050   24.4430 C   0  0  0  0  0  0  0  0  0  0  0  0
    7.3840   -4.1820   25.6110 C   0  0  0  0  0  0  0  0  0  0  0  0
    4.8360   -3.9600   24.6430 C   0  0  2  0  0  0  0  0  0  0  0  0
   10.1310   -0.4310   23.6310 C   0  0  0  0  0  0  0  0  0  0  0  0
   11.6070   -1.5410   22.0910 C   0  0  0  0  0  0  0  0  0  0  0  0
    6.4760    1.7760   21.2150 C   0  0  0  0  0  0  0  0  0  0  0  0
    8.4390    1.8690   22.3610 C   0  0  0  0  0  0  0  0  0  0  0  0
    8.7710   -4.0020   25.5530 C   0  0  0  0  0  0  0  0  0  0  0  0
    4.1150   -4.2060   26.0030 C   0  0  0  0  0  0  0  0  0  0  0  0
    3.8840   -5.0930   24.0700 C   0  0  2  0  0  0  0  0  0  0  0  0
   11.1760    0.3860   24.0200 C   0  0  0  0  0  0  0  0  0  0  0  0
   12.6560   -0.7120   22.4940 C   0  0  0  0  0  0  0  0  0  0  0  0
    5.3070    2.3610   20.7020 N   0  0  0  0  0  0  0  0  0  0  0  0
    7.3530    2.5160   21.9160 N   0  0  0  0  0  0  0  0  0  0  0  0
    2.8960   -4.7240   25.2030 C   0  0  0  0  0  0  0  0  0  0  0  0
    4.2710   -6.5820   23.9690 C   0  0  0  0  0  0  0  0  0  0  0  0
   12.4300    0.2540   23.4580 C   0  0  0  0  0  0  0  0  0  0  0  0
    4.3660    3.1230   21.3140 C   0  0  0  0  0  0  0  0  0  0  0  0
    1.9520   -3.7910   24.9450 F   0  0  0  0  0  0  0  0  0  0  0  0
    2.2470   -5.7700   25.7660 F   0  0  0  0  0  0  0  0  0  0  0  0
    3.7030   -7.5680   24.4830 O   0  0  0  0  0  0  0  0  0  0  0  0
    5.3810   -6.7650   23.2220 N   0  0  0  0  0  0  0  0  0  0  0  0
    4.7630    4.1880   22.0400 N   0  0  0  0  0  0  0  0  0  0  0  0
    3.1740    2.8470   21.2100 O   0  0  0  0  0  0  0  0  0  0  0  0
    6.4560   -7.3850   23.9140 C   0  0  1  0  0  0  0  0  0  0  0  0
    7.5480   -7.8180   23.0130 C   0  0  0  0  0  0  0  0  0  0  0  0
    6.9840   -6.4500   24.9820 C   0  0  0  0  0  0  0  0  0  0  0  0
    6.0360   -5.8720   25.7700 N   0  0  0  0  0  0  0  0  0  0  0  0
    8.1820   -6.2440   25.1550 O   0  0  0  0  0  0  0  0  0  0  0  0
  1  2  2  3
  1  3  1  0
  3  4  1  0
  3  5  1  0
  4  6  1  0
  5  7  1  0
  5  8  1  1
  6  9  2  0
  7  9  1  0
  6 10  1  0
  7 11  1  1
  8 12  2  0
  8 13  1  0
  9 14  1  0
 10 15  2  0
 16 10  1  1
 11 17  2  0
 11 18  1  0
 12 19  1  0
 13 20  2  0
 14 21  2  0
 15 21  1  0
 16 22  1  0
 16 23  1  0
 17 24  1  0
 18 25  2  0
 19 26  1  0
 19 27  2  0
 20 27  1  0
 22 28  1  0
 23 28  1  0
 23 29  1  1
 24 30  2  0
 25 30  1  0
 26 31  1  0
 28 32  1  0
 28 33  1  0
 29 34  2  0
 29 35  1  0
 31 36  1  0
 31 37  2  0
 35 38  1  0
 38 39  1  6
 38 40  1  0
 40 41  1  0
 40 42  2  0
M  END
