INS-INS-9a4863b0-1-vinylsulfonamide
     RDKit          3D

 45 49  0  0  0  0  0  0  0  0999 V2000
    7.0580   -5.3150   20.0680 C   0  0  0  0  0  0  0  0  0  0  0  0
    7.0400   -3.8300   20.0690 C   0  0  0  0  0  0  0  0  0  0  0  0
    5.7750   -3.4520   21.1600 S   0  0  0  0  0  0  0  0  0  0  0  0
    4.7590   -2.9450   20.2920 O   0  0  0  0  0  0  0  0  0  0  0  0
    5.4920   -4.6280   21.9260 O   0  0  0  0  0  0  0  0  0  0  0  0
    6.5460   -2.2810   22.0650 N   0  0  0  0  0  0  0  0  0  0  0  0
    6.2920   -2.3540   23.5020 C   0  0  0  0  0  0  0  0  0  0  0  0
    7.8640   -1.5870   21.7550 C   0  0  2  0  0  0  0  0  0  0  0  0
    7.3040   -3.2310   24.2140 C   0  0  0  0  0  0  0  0  0  0  0  0
    8.9460   -1.9240   22.8570 C   0  0  1  0  0  0  0  0  0  0  0  0
    7.6980   -0.0770   21.5070 C   0  0  0  0  0  0  0  0  0  0  0  0
    8.6470   -3.0330   23.8700 C   0  0  0  0  0  0  0  0  0  0  0  0
    6.9000   -4.1930   25.1880 C   0  0  0  0  0  0  0  0  0  0  0  0
   10.3490   -1.3470   22.8920 C   0  0  0  0  0  0  0  0  0  0  0  0
    8.7060    0.8380   21.8290 C   0  0  0  0  0  0  0  0  0  0  0  0
    6.5270    0.3480   20.9740 N   0  0  0  0  0  0  0  0  0  0  0  0
    9.6660   -3.7970   24.4600 C   0  0  0  0  0  0  0  0  0  0  0  0
    7.9740   -4.9380   25.7650 C   0  0  0  0  0  0  0  0  0  0  0  0
    5.3360   -4.3820   25.6070 C   0  0  2  0  0  0  0  0  0  0  0  0
   10.5490   -0.3300   23.8310 C   0  0  0  0  0  0  0  0  0  0  0  0
   11.3940   -1.7280   22.1080 C   0  0  0  0  0  0  0  0  0  0  0  0
    8.4580    2.1810   21.5950 C   0  0  0  0  0  0  0  0  0  0  0  0
    6.3910    1.6610   20.7870 C   0  0  0  0  0  0  0  0  0  0  0  0
    9.3250   -4.7530   25.4080 C   0  0  0  0  0  0  0  0  0  0  0  0
    4.8490   -5.0540   26.9160 C   0  0  0  0  0  0  0  0  0  0  0  0
    4.3080   -5.3490   24.8750 C   0  0  2  0  0  0  0  0  0  0  0  0
   11.6660    0.4710   24.1940 C   0  0  0  0  0  0  0  0  0  0  0  0
   12.5530   -1.0550   22.3290 C   0  0  0  0  0  0  0  0  0  0  0  0
    9.4440    3.1490   21.9040 N   0  0  0  0  0  0  0  0  0  0  0  0
    7.3000    2.5870   21.0800 N   0  0  0  0  0  0  0  0  0  0  0  0
    3.4880   -5.1860   26.1880 C   0  0  0  0  0  0  0  0  0  0  0  0
    4.6240   -6.8410   24.5000 C   0  0  0  0  0  0  0  0  0  0  0  0
   12.6360   -0.0540   23.2900 C   0  0  0  0  0  0  0  0  0  0  0  0
   10.6440    2.9430   22.5370 C   0  0  0  0  0  0  0  0  0  0  0  0
    2.7560   -6.2720   26.5360 F   0  0  0  0  0  0  0  0  0  0  0  0
    2.6530   -4.1280   26.2730 F   0  0  0  0  0  0  0  0  0  0  0  0
    4.1150   -7.8260   25.0550 O   0  0  0  0  0  0  0  0  0  0  0  0
    5.5050   -7.0270   23.4570 N   0  0  0  0  0  0  0  0  0  0  0  0
   11.3830    4.0960   22.5870 N   0  0  0  0  0  0  0  0  0  0  0  0
   11.1050    1.9320   23.0160 O   0  0  0  0  0  0  0  0  0  0  0  0
    6.8600   -6.4850   23.4860 C   0  0  1  0  0  0  0  0  0  0  0  0
    7.1650   -5.9780   24.8530 C   0  0  0  0  0  0  0  0  0  0  0  0
    7.8520   -7.6070   23.2570 C   0  0  0  0  0  0  0  0  0  0  0  0
    7.2870   -8.7720   22.9180 N   0  0  0  0  0  0  0  0  0  0  0  0
    9.0580   -7.4740   23.3920 O   0  0  0  0  0  0  0  0  0  0  0  0
  1  2  1  0
  3  2  1  0
  3  4  2  0
  3  5  2  0
  3  6  1  0
  6  7  1  0
  6  8  1  0
  7  9  1  0
  8 10  1  0
  8 11  1  1
  9 12  2  0
 10 12  1  0
  9 13  1  0
 10 14  1  6
 11 15  2  0
 11 16  1  0
 12 17  1  0
 13 18  2  0
 19 13  1  6
 14 20  2  0
 14 21  1  0
 15 22  1  0
 16 23  2  0
 17 24  2  0
 18 24  1  0
 19 25  1  0
 19 26  1  0
 20 27  1  0
 21 28  2  0
 22 29  1  0
 22 30  2  0
 23 30  1  0
 25 31  1  0
 26 31  1  0
 26 32  1  1
 27 33  2  0
 28 33  1  0
 29 34  1  0
 31 35  1  0
 31 36  1  0
 32 37  2  0
 32 38  1  0
 34 39  1  0
 34 40  2  0
 38 41  1  0
 41 42  1  1
 41 43  1  0
 43 44  1  0
 43 45  2  0
M  END
