INS-INS-9c68b1a9-1-vinylsulfonamide
     RDKit          3D

 39 43  0  0  0  0  0  0  0  0999 V2000
    8.0570   -3.5210   19.7880 C   0  0  0  0  0  0  0  0  0  0  0  0
    6.9160   -2.8190   19.1380 C   0  0  0  0  0  0  0  0  0  0  0  0
    5.6470   -3.5900   20.0400 S   0  0  0  0  0  0  0  0  0  0  0  0
    4.4520   -3.0960   19.5270 O   0  0  0  0  0  0  0  0  0  0  0  0
    5.7720   -5.0120   20.0470 O   0  0  0  0  0  0  0  0  0  0  0  0
    5.9860   -2.9320   21.5590 N   0  0  0  0  0  0  0  0  0  0  0  0
    5.6940   -1.4860   21.5910 C   0  0  0  0  0  0  0  0  0  0  0  0
    6.9760   -3.5610   22.5230 C   0  0  1  0  0  0  0  0  0  0  0  0
    6.8150   -0.5630   22.0750 C   0  0  2  0  0  0  0  0  0  0  0  0
    7.4720   -2.7480   23.5500 C   0  0  0  0  0  0  0  0  0  0  0  0
    6.5410   -4.9770   22.8340 C   0  0  0  0  0  0  0  0  0  0  0  0
    6.4900    0.8150   21.6960 N   0  0  0  0  0  0  0  0  0  0  0  0
    8.1330   -1.0470   22.0480 C   0  0  0  0  0  0  0  0  0  0  0  0
    8.4360   -1.8310   23.2380 N   0  0  0  0  0  0  0  0  0  0  0  0
    5.7390   -5.3130   23.9380 C   0  0  0  0  0  0  0  0  0  0  0  0
    5.9940    1.3220   20.4800 C   0  0  0  0  0  0  0  0  0  0  0  0
    6.5890    2.0140   22.4810 C   0  0  0  0  0  0  0  0  0  0  0  0
    8.8230   -0.9850   24.3900 C   0  0  0  0  0  0  0  0  0  0  0  0
    4.8510   -6.3760   23.8500 C   0  0  0  0  0  0  0  0  0  0  0  0
    5.8510   -4.5880   25.0720 N   0  0  0  0  0  0  0  0  0  0  0  0
    5.6730    0.6180   19.2420 C   0  0  0  0  0  0  0  0  0  0  0  0
    5.7910    2.7230   20.5180 N   0  0  0  0  0  0  0  0  0  0  0  0
    6.1570    3.1990   21.7660 N   0  0  0  0  0  0  0  0  0  0  0  0
    7.0670    1.9870   23.8270 C   0  0  0  0  0  0  0  0  0  0  0  0
    9.8980   -0.0420   23.9690 C   0  0  0  0  0  0  0  0  0  0  0  0
    4.0870   -6.6700   24.9590 C   0  0  0  0  0  0  0  0  0  0  0  0
    5.0650   -4.9560   26.1020 C   0  0  0  0  0  0  0  0  0  0  0  0
    9.9370    1.4550   24.2480 C   0  0  0  0  0  0  0  0  0  0  0  0
   10.9260   -0.5370   23.2300 C   0  0  0  0  0  0  0  0  0  0  0  0
    4.1760   -5.9710   26.1090 N   0  0  0  0  0  0  0  0  0  0  0  0
   11.0930    2.3230   23.7180 C   0  0  0  0  0  0  0  0  0  0  0  0
   12.0340    0.1930   22.7650 C   0  0  0  0  0  0  0  0  0  0  0  0
   10.8570   -1.9450   22.8550 C   0  0  0  0  0  0  0  0  0  0  0  0
   11.2130    3.8750   23.8230 C   0  0  0  0  0  0  0  0  0  0  0  0
   12.1800    1.5530   22.9850 C   0  0  0  0  0  0  0  0  0  0  0  0
   13.0910   -0.5390   21.9390 C   0  0  0  0  0  0  0  0  0  0  0  0
   11.8470   -2.5480   22.0210 C   0  0  0  0  0  0  0  0  0  0  0  0
   12.8760   -1.9750   21.5710 C   0  0  0  0  0  0  0  0  0  0  0  0
   13.5130   -2.8870   20.8180 C   0  0  0  0  0  0  0  0  0  0  0  0
  1  2  1  0
  3  2  1  0
  3  4  2  0
  3  5  2  0
  3  6  1  0
  6  7  1  0
  6  8  1  0
  7  9  1  0
  8 10  1  0
  8 11  1  1
  9 12  1  6
  9 13  1  0
 10 14  1  0
 13 14  1  0
 11 15  1  0
 12 16  1  0
 12 17  1  0
 14 18  1  0
 15 19  2  0
 15 20  1  0
 16 21  1  0
 16 22  2  0
 17 23  2  0
 22 23  1  0
 17 24  1  0
 18 25  1  0
 19 26  1  0
 20 27  2  0
 25 28  2  0
 25 29  1  0
 26 30  2  0
 27 30  1  0
 28 31  1  0
 29 32  2  0
 29 33  1  0
 31 34  1  0
 31 35  2  0
 32 35  1  0
 32 36  1  0
 33 37  2  0
 36 38  2  0
 37 38  1  0
 38 39  1  0
M  END
