INS-INS-398f5681-1-bromoalkyne
     RDKit          3D

 37 41  0  0  0  0  0  0  0  0999 V2000
    6.4500   -3.5290   19.5220 C   0  0  0  0  0  0  0  0  0  0  0  0
    5.7220   -2.7070   18.5900 C   0  0  0  0  0  0  0  0  0  0  0  0
    5.9630   -3.5000   20.8330 N   0  0  0  0  0  0  0  0  0  0  0  0
    6.5390   -2.9300   22.0210 C   0  0  0  0  0  0  0  0  0  0  0  0
    5.2490   -4.3810   21.7940 C   0  0  1  0  0  0  0  0  0  0  0  0
    7.2090   -4.0260   22.8540 C   0  0  0  0  0  0  0  0  0  0  0  0
    6.6460   -1.5360   22.6820 C   0  0  0  0  0  0  0  0  0  0  0  0
    5.9590   -5.2030   22.6450 C   0  0  0  0  0  0  0  0  0  0  0  0
    4.3790   -3.6750   22.8470 C   0  0  0  0  0  0  0  0  0  0  0  0
    7.8290   -3.6960   24.1080 C   0  0  0  0  0  0  0  0  0  0  0  0
    7.2850   -1.3600   23.9130 C   0  0  0  0  0  0  0  0  0  0  0  0
    6.1160   -0.2390   22.1560 C   0  0  0  0  0  0  0  0  0  0  0  0
    5.0900   -6.0150   23.5620 C   0  0  0  0  0  0  0  0  0  0  0  0
    3.6090   -5.0400   23.6710 S   0  0  0  0  0  0  0  0  0  0  0  0
    8.4280   -4.7110   24.7970 C   0  0  0  0  0  0  0  0  0  0  0  0
    7.8640   -2.3870   24.6290 C   0  0  0  0  0  0  0  0  0  0  0  0
    5.5490   -0.0100   21.1040 O   0  0  0  0  0  0  0  0  0  0  0  0
    6.4540    0.7170   23.2300 N   0  0  0  0  0  0  0  0  0  0  0  0
    7.2220    0.0960   24.2940 C   0  0  0  0  0  0  0  0  0  0  0  0
    3.3780   -4.6850   25.0530 O   0  0  0  0  0  0  0  0  0  0  0  0
    2.5880   -5.6120   22.8240 O   0  0  0  0  0  0  0  0  0  0  0  0
    9.5460   -3.9180   25.8320 S   0  0  0  0  0  0  0  0  0  0  0  0
    8.3880   -6.1760   24.8730 C   0  0  0  0  0  0  0  0  0  0  0  0
   10.0120   -5.3900   26.3730 C   0  0  0  0  0  0  0  0  0  0  0  0
    9.3770   -6.4700   25.8050 C   0  0  0  0  0  0  0  0  0  0  0  0
    7.5540   -7.2710   24.1920 C   0  0  0  0  0  0  0  0  0  0  0  0
    6.2470   -7.5050   24.5020 O   0  0  0  0  0  0  0  0  0  0  0  0
    8.1850   -8.2130   23.1080 C   0  0  0  0  0  0  0  0  0  0  0  0
    9.2510   -7.4800   22.9510 C   0  0  0  0  0  0  0  0  0  0  0  0
    8.0110   -9.3800   22.3870 C   0  0  0  0  0  0  0  0  0  0  0  0
   10.2000   -8.0030   21.8600 C   0  0  0  0  0  0  0  0  0  0  0  0
    9.0300   -9.8580   21.2490 C   0  0  0  0  0  0  0  0  0  0  0  0
    9.9840   -9.0750   21.1100 C   0  0  0  0  0  0  0  0  0  0  0  0
    9.1560  -11.1750   20.1490 C   0  0  0  0  0  0  0  0  0  0  0  0
    9.2170  -10.7520   18.8710 F   0  0  0  0  0  0  0  0  0  0  0  0
    8.1020  -11.9690   20.2370 F   0  0  0  0  0  0  0  0  0  0  0  0
   10.1200  -12.1300   20.0110 F   0  0  0  0  0  0  0  0  0  0  0  0
  1  2  2  3
  1  3  1  0
  3  4  1  0
  5  3  1  1
  4  6  2  0
  4  7  1  0
  5  8  1  0
  5  9  1  0
  6 10  1  0
  7 11  2  0
  7 12  1  0
  8 13  1  0
 14  9  1  0
 13 14  1  0
 10 15  1  0
 10 16  2  0
 11 16  1  0
 12 17  2  0
 12 18  1  0
 11 19  1  0
 18 19  1  0
 14 20  2  0
 14 21  2  0
 15 22  1  0
 15 23  2  0
 22 24  1  0
 23 25  1  0
 24 25  2  0
 23 26  1  0
 26 27  2  0
 26 28  1  0
 28 29  2  0
 28 30  1  0
 29 31  1  0
 30 32  2  0
 31 33  2  0
 32 33  1  0
 32 34  1  0
 34 35  1  0
 34 36  1  0
 34 37  1  0
M  END
