INS-INS-bc954fb0-1-vinylsulfonamide
     RDKit          3D

 41 45  0  0  0  0  0  0  0  0999 V2000
    8.7760   -3.9080   20.1760 C   0  0  0  0  0  0  0  0  0  0  0  0
    7.8340   -4.4970   20.9730 C   0  0  0  0  0  0  0  0  0  0  0  0
    6.1190   -4.0070   20.6140 S   0  0  0  0  0  0  0  0  0  0  0  0
    5.1610   -4.9150   20.0120 O   0  0  0  0  0  0  0  0  0  0  0  0
    6.1270   -2.6580   20.1530 O   0  0  0  0  0  0  0  0  0  0  0  0
    5.6290   -4.0400   22.2090 N   0  0  0  0  0  0  0  0  0  0  0  0
    6.6470   -3.6510   23.0360 C   0  0  0  0  0  0  0  0  0  0  0  0
    4.6720   -4.9950   22.8400 C   0  0  1  0  0  0  0  0  0  0  0  0
    7.1080   -4.5300   23.9370 C   0  0  0  0  0  0  0  0  0  0  0  0
    7.2060   -2.4110   22.9870 C   0  0  0  0  0  0  0  0  0  0  0  0
    4.7430   -6.4300   22.3660 C   0  0  0  0  0  0  0  0  0  0  0  0
    4.6520   -5.1700   24.3570 C   0  0  0  0  0  0  0  0  0  0  0  0
    8.1460   -4.1510   24.8280 C   0  0  0  0  0  0  0  0  0  0  0  0
    8.3070   -2.0140   23.9080 C   0  0  0  0  0  0  0  0  0  0  0  0
    6.9220   -1.2940   22.1460 C   0  0  0  0  0  0  0  0  0  0  0  0
    3.3420   -6.8310   22.8380 C   0  0  0  0  0  0  0  0  0  0  0  0
    3.5080   -6.5420   24.5640 S   0  0  0  0  0  0  0  0  0  0  0  0
    8.5750   -4.9400   25.6830 C   0  0  0  0  0  0  0  0  0  0  0  0
    8.7380   -2.9350   24.8200 C   0  0  0  0  0  0  0  0  0  0  0  0
    7.5440   -0.1740   22.7030 C   0  0  2  0  0  0  0  0  0  0  0  0
    8.7090   -0.6270   23.6170 C   0  0  0  0  0  0  0  0  0  0  0  0
    4.1700   -7.6980   25.1430 O   0  0  0  0  0  0  0  0  0  0  0  0
    2.2430   -6.0420   25.0420 O   0  0  0  0  0  0  0  0  0  0  0  0
    9.6120   -6.0390   25.0590 S   0  0  0  0  0  0  0  0  0  0  0  0
    8.2480   -4.9480   27.0170 C   0  0  0  0  0  0  0  0  0  0  0  0
    6.5690    0.7090   23.4590 C   0  0  0  0  0  0  0  0  0  0  0  0
    9.6870   -6.6580   26.5980 C   0  0  0  0  0  0  0  0  0  0  0  0
    8.9350   -5.9810   27.5020 C   0  0  0  0  0  0  0  0  0  0  0  0
    7.3990   -4.1070   27.7450 C   0  0  0  0  0  0  0  0  0  0  0  0
    5.8350    1.3950   24.0410 N   0  0  0  0  0  0  0  0  0  0  0  0
    7.4380   -2.8790   27.6850 O   0  0  0  0  0  0  0  0  0  0  0  0
    6.3700   -4.7420   28.6590 C   0  0  0  0  0  0  0  0  0  0  0  0
    6.5070   -6.1730   29.1200 C   0  0  0  0  0  0  0  0  0  0  0  0
    5.2630   -4.0040   29.0930 C   0  0  0  0  0  0  0  0  0  0  0  0
    5.5340   -6.7040   29.9560 C   0  0  0  0  0  0  0  0  0  0  0  0
    4.2990   -4.5860   29.9410 C   0  0  0  0  0  0  0  0  0  0  0  0
    4.4430   -5.9260   30.3650 C   0  0  0  0  0  0  0  0  0  0  0  0
    3.1910   -3.8350   30.3690 C   0  0  0  0  0  0  0  0  0  0  0  0
    3.5680   -2.7300   31.0760 F   0  0  0  0  0  0  0  0  0  0  0  0
    2.3610   -4.5320   31.1930 F   0  0  0  0  0  0  0  0  0  0  0  0
    2.4130   -3.3740   29.3550 F   0  0  0  0  0  0  0  0  0  0  0  0
  1  2  1  0
  2  3  1  0
  3  4  2  0
  3  5  2  0
  3  6  1  0
  6  7  1  0
  8  6  1  1
  7  9  2  0
  7 10  1  0
  8 11  1  0
  8 12  1  0
  9 13  1  0
 10 14  2  0
 10 15  1  0
 11 16  1  0
 17 12  1  0
 16 17  1  0
 13 18  1  0
 13 19  2  0
 14 19  1  0
 15 20  1  0
 14 21  1  0
 20 21  1  0
 17 22  2  0
 17 23  2  0
 18 24  1  0
 18 25  2  0
 20 26  1  1
 24 27  1  0
 25 28  1  0
 27 28  2  0
 25 29  1  0
 26 30  3  0
 29 31  2  0
 29 32  1  0
 32 33  2  0
 32 34  1  0
 33 35  1  0
 34 36  2  0
 35 37  2  0
 36 37  1  0
 36 38  1  0
 38 39  1  0
 38 40  1  0
 38 41  1  0
M  END
