INS-INS-398f5681-1-chloroacetamide
     RDKit          3D

 38 42  0  0  0  0  0  0  0  0999 V2000
    7.2520   -3.3930   19.7920 C   0  0  0  0  0  0  0  0  0  0  0  0
    6.0900   -4.1190   20.4450 C   0  0  0  0  0  0  0  0  0  0  0  0
    5.0930   -4.3210   19.7880 O   0  0  0  0  0  0  0  0  0  0  0  0
    6.1070   -4.5570   21.7470 N   0  0  0  0  0  0  0  0  0  0  0  0
    7.0470   -4.3350   22.8350 C   0  0  0  0  0  0  0  0  0  0  0  0
    5.0270   -5.1170   22.5800 C   0  0  1  0  0  0  0  0  0  0  0  0
    7.1310   -2.9490   23.5590 C   0  0  0  0  0  0  0  0  0  0  0  0
    8.0370   -5.2870   23.4420 C   0  0  0  0  0  0  0  0  0  0  0  0
    4.7410   -6.4110   22.3040 C   0  0  0  0  0  0  0  0  0  0  0  0
    5.0550   -5.1990   24.1290 C   0  0  0  0  0  0  0  0  0  0  0  0
    8.1030   -2.7620   24.6710 C   0  0  0  0  0  0  0  0  0  0  0  0
    8.8530   -4.9450   24.4760 C   0  0  0  0  0  0  0  0  0  0  0  0
    8.2690   -6.6620   23.0510 C   0  0  0  0  0  0  0  0  0  0  0  0
    3.4030   -6.7730   22.8720 C   0  0  0  0  0  0  0  0  0  0  0  0
    3.7520   -6.3860   24.5400 S   0  0  0  0  0  0  0  0  0  0  0  0
    8.2260   -1.5500   25.3540 C   0  0  0  0  0  0  0  0  0  0  0  0
    8.9060   -3.7780   25.0620 C   0  0  0  0  0  0  0  0  0  0  0  0
    7.4110   -7.5290   22.3230 O   0  0  0  0  0  0  0  0  0  0  0  0
    9.5870   -6.8600   23.6580 N   0  0  0  0  0  0  0  0  0  0  0  0
    9.6640   -6.0600   24.8540 C   0  0  0  0  0  0  0  0  0  0  0  0
    2.5860   -5.7150   25.0550 O   0  0  0  0  0  0  0  0  0  0  0  0
    4.2860   -7.5960   25.1450 O   0  0  0  0  0  0  0  0  0  0  0  0
    8.0000   -1.6160   27.0740 S   0  0  0  0  0  0  0  0  0  0  0  0
    8.5120   -0.2470   24.9040 C   0  0  0  0  0  0  0  0  0  0  0  0
    8.2780    0.0450   27.1740 C   0  0  0  0  0  0  0  0  0  0  0  0
    8.5350    0.6420   25.9590 C   0  0  0  0  0  0  0  0  0  0  0  0
    8.7530    0.1780   23.5580 C   0  0  0  0  0  0  0  0  0  0  0  0
    8.0200   -0.1120   22.6220 O   0  0  0  0  0  0  0  0  0  0  0  0
    9.9790    1.0430   23.3650 C   0  0  0  0  0  0  0  0  0  0  0  0
   11.1330    0.0690   23.2000 C   0  0  0  0  0  0  0  0  0  0  0  0
   10.0040    2.4340   23.3460 C   0  0  0  0  0  0  0  0  0  0  0  0
   12.4780    0.7810   22.9890 C   0  0  0  0  0  0  0  0  0  0  0  0
   11.2080    3.0800   23.1540 C   0  0  0  0  0  0  0  0  0  0  0  0
   12.3330    2.2950   22.9930 C   0  0  0  0  0  0  0  0  0  0  0  0
   11.3120    4.4820   23.1180 C   0  0  0  0  0  0  0  0  0  0  0  0
   10.1020    5.0760   22.9450 F   0  0  0  0  0  0  0  0  0  0  0  0
   12.1220    4.9390   22.1220 F   0  0  0  0  0  0  0  0  0  0  0  0
   11.7950    5.0390   24.2600 F   0  0  0  0  0  0  0  0  0  0  0  0
  1  2  1  0
  2  3  2  0
  2  4  1  0
  4  5  1  0
  6  4  1  6
  5  7  2  0
  5  8  1  0
  6  9  1  0
  6 10  1  0
  7 11  1  0
  8 12  2  0
  8 13  1  0
  9 14  1  0
 15 10  1  0
 14 15  1  0
 11 16  1  0
 11 17  2  0
 12 17  1  0
 13 18  2  0
 13 19  1  0
 12 20  1  0
 19 20  1  0
 15 21  2  0
 15 22  2  0
 16 23  1  0
 16 24  2  0
 23 25  1  0
 24 26  1  0
 25 26  2  0
 24 27  1  0
 27 28  2  0
 27 29  1  0
 29 30  2  0
 29 31  1  0
 30 32  1  0
 31 33  2  0
 32 34  2  0
 33 34  1  0
 33 35  1  0
 35 36  1  0
 35 37  1  0
 35 38  1  0
M  END
