INS-INS-398f5681-1-nitrile
     RDKit          3D

 37 41  0  0  0  0  0  0  0  0999 V2000
    7.2370   -3.8300   19.8540 C   0  0  0  0  0  0  0  0  0  0  0  0
    6.1920   -3.5020   19.1690 N   0  0  0  0  0  0  0  0  0  0  0  0
    7.1930   -4.5460   20.9770 N   0  0  0  0  0  0  0  0  0  0  0  0
    8.1870   -4.4420   22.0390 C   0  0  0  0  0  0  0  0  0  0  0  0
    5.9920   -4.7530   21.7370 C   0  0  1  0  0  0  0  0  0  0  0  0
    8.3320   -5.5460   23.1530 C   0  0  0  0  0  0  0  0  0  0  0  0
    9.2220   -3.2860   22.2870 C   0  0  0  0  0  0  0  0  0  0  0  0
    5.6970   -6.0970   21.9980 C   0  0  0  0  0  0  0  0  0  0  0  0
    5.8900   -3.9880   23.0560 C   0  0  0  0  0  0  0  0  0  0  0  0
    9.4130   -5.2630   24.2190 C   0  0  0  0  0  0  0  0  0  0  0  0
   10.1600   -3.2220   23.2790 C   0  0  0  0  0  0  0  0  0  0  0  0
    9.3820   -2.0250   21.5180 C   0  0  0  0  0  0  0  0  0  0  0  0
    4.8030   -6.3660   23.0290 C   0  0  0  0  0  0  0  0  0  0  0  0
    4.4760   -4.7880   23.7860 S   0  0  0  0  0  0  0  0  0  0  0  0
    9.6130   -6.0160   25.4420 C   0  0  0  0  0  0  0  0  0  0  0  0
   10.2730   -4.1740   24.2370 C   0  0  0  0  0  0  0  0  0  0  0  0
    8.5640   -1.4630   20.7910 O   0  0  0  0  0  0  0  0  0  0  0  0
   10.7400   -1.5710   21.8860 N   0  0  0  0  0  0  0  0  0  0  0  0
   10.9930   -1.9830   23.1620 C   0  0  0  0  0  0  0  0  0  0  0  0
    4.6800   -4.9030   25.2120 O   0  0  0  0  0  0  0  0  0  0  0  0
    3.2840   -4.2340   23.2070 O   0  0  0  0  0  0  0  0  0  0  0  0
    9.3940   -4.3880   25.9950 S   0  0  0  0  0  0  0  0  0  0  0  0
    9.8410   -7.1280   26.4080 C   0  0  0  0  0  0  0  0  0  0  0  0
    9.4970   -4.8740   27.5230 C   0  0  0  0  0  0  0  0  0  0  0  0
    9.6950   -6.1700   27.6030 C   0  0  0  0  0  0  0  0  0  0  0  0
   10.0720   -9.0230   26.4710 C   0  0  0  0  0  0  0  0  0  0  0  0
    9.5830   -9.1260   25.5330 O   0  0  0  0  0  0  0  0  0  0  0  0
   10.0590  -10.7540   28.1190 C   0  0  0  0  0  0  0  0  0  0  0  0
   10.3640  -12.2730   28.1190 C   0  0  0  0  0  0  0  0  0  0  0  0
    9.6870  -10.9080   29.5950 C   0  0  0  0  0  0  0  0  0  0  0  0
   10.4550  -13.3700   29.1070 C   0  0  0  0  0  0  0  0  0  0  0  0
    9.7570  -12.1000   30.6110 C   0  0  0  0  0  0  0  0  0  0  0  0
   10.1690  -13.2400   30.3830 C   0  0  0  0  0  0  0  0  0  0  0  0
    9.4430  -12.4130   31.9700 C   0  0  0  0  0  0  0  0  0  0  0  0
    8.1720  -12.1830   32.4240 F   0  0  0  0  0  0  0  0  0  0  0  0
   10.4040  -12.2150   32.9220 F   0  0  0  0  0  0  0  0  0  0  0  0
    9.4290  -13.7710   32.0660 F   0  0  0  0  0  0  0  0  0  0  0  0
  1  2  2  3
  1  3  1  0
  3  4  1  0
  5  3  1  1
  4  6  2  0
  4  7  1  0
  5  8  1  0
  5  9  1  0
  6 10  1  0
  7 11  2  0
  7 12  1  0
  8 13  1  0
 14  9  1  0
 13 14  1  0
 10 15  1  0
 10 16  2  0
 11 16  1  0
 12 17  2  0
 12 18  1  0
 11 19  1  0
 18 19  1  0
 14 20  2  0
 14 21  2  0
 15 22  1  0
 15 23  2  0
 22 24  1  0
 23 25  1  0
 24 25  2  0
 23 26  1  0
 26 27  2  0
 26 28  1  0
 28 29  2  0
 28 30  1  0
 29 31  1  0
 30 32  2  0
 31 33  2  0
 32 33  1  0
 32 34  1  0
 34 35  1  0
 34 36  1  0
 34 37  1  0
M  END
