INS-INS-714f82db-1-vinylsulfonamide
     RDKit          3D

 41 45  0  0  0  0  0  0  0  0999 V2000
    9.0150   -4.0420   20.6160 C   0  0  0  0  0  0  0  0  0  0  0  0
    7.8320   -3.1110   20.1890 C   0  0  0  0  0  0  0  0  0  0  0  0
    6.2580   -3.1470   21.1180 S   0  0  0  0  0  0  0  0  0  0  0  0
    5.2150   -3.7660   20.2480 O   0  0  0  0  0  0  0  0  0  0  0  0
    6.0430   -1.8270   21.6690 O   0  0  0  0  0  0  0  0  0  0  0  0
    6.2900   -4.2250   22.4580 N   0  0  0  0  0  0  0  0  0  0  0  0
    6.1910   -3.8270   23.9000 C   0  0  0  0  0  0  0  0  0  0  0  0
    5.0390   -4.9200   22.3100 C   0  0  2  0  0  0  0  0  0  0  0  0
    6.8840   -2.7240   24.7450 C   0  0  0  0  0  0  0  0  0  0  0  0
    5.3210   -4.6150   24.6170 C   0  0  0  0  0  0  0  0  0  0  0  0
    3.9280   -4.2290   23.1460 C   0  0  0  0  0  0  0  0  0  0  0  0
    4.9430   -6.4470   22.4370 C   0  0  0  0  0  0  0  0  0  0  0  0
    6.4610   -2.7280   26.2680 C   0  0  0  0  0  0  0  0  0  0  0  0
    5.0360   -4.5050   25.9660 C   0  0  0  0  0  0  0  0  0  0  0  0
    2.9670   -5.2420   23.8160 C   0  0  0  0  0  0  0  0  0  0  0  0
    3.3550   -6.8630   23.2040 S   0  0  0  0  0  0  0  0  0  0  0  0
    6.9330   -1.8700   27.3200 C   0  0  0  0  0  0  0  0  0  0  0  0
    5.5660   -3.6050   26.7840 C   0  0  0  0  0  0  0  0  0  0  0  0
    4.1440   -5.4770   26.4300 C   0  0  0  0  0  0  0  0  0  0  0  0
    3.5720   -7.7850   24.3030 O   0  0  0  0  0  0  0  0  0  0  0  0
    2.3210   -7.1800   22.2480 O   0  0  0  0  0  0  0  0  0  0  0  0
    6.1800   -2.0630   28.6500 C   0  0  0  0  0  0  0  0  0  0  0  0
    7.9450   -1.0050   27.1350 C   0  0  0  0  0  0  0  0  0  0  0  0
    2.8110   -5.3150   27.5270 S   0  0  0  0  0  0  0  0  0  0  0  0
    4.3820   -6.8430   25.9010 C   0  0  0  0  0  0  0  0  0  0  0  0
    6.6130   -1.2780   29.6810 C   0  0  0  0  0  0  0  0  0  0  0  0
    8.3350   -0.2370   28.2390 C   0  0  0  0  0  0  0  0  0  0  0  0
    8.5490   -0.9120   25.8810 C   0  0  0  0  0  0  0  0  0  0  0  0
    2.4730   -6.9940   27.3610 C   0  0  0  0  0  0  0  0  0  0  0  0
    3.4050   -7.6630   26.4540 C   0  0  0  0  0  0  0  0  0  0  0  0
    5.5230   -7.2610   24.8980 C   0  0  0  0  0  0  0  0  0  0  0  0
    7.6600   -0.4080   29.4410 C   0  0  0  0  0  0  0  0  0  0  0  0
    9.7070   -0.1140   25.8390 C   0  0  0  0  0  0  0  0  0  0  0  0
    7.6610   -0.2070   24.8460 C   0  0  0  0  0  0  0  0  0  0  0  0
    9.3110    0.6630   28.2390 C   0  0  0  0  0  0  0  0  0  0  0  0
    5.4270   -8.2420   24.2120 O   0  0  0  0  0  0  0  0  0  0  0  0
    6.7310   -6.5240   24.7230 C   0  0  0  0  0  0  0  0  0  0  0  0
    9.0470    1.1660   29.5360 C   0  0  0  0  0  0  0  0  0  0  0  0
    8.1300    0.3390   30.2880 O   0  0  0  0  0  0  0  0  0  0  0  0
    7.3480   -5.6110   25.8150 C   0  0  0  0  0  0  0  0  0  0  0  0
    8.8100   -5.7420   26.0270 C   0  0  0  0  0  0  0  0  0  0  0  0
  1  2  1  0
  2  3  1  0
  3  4  2  0
  3  5  2  0
  3  6  1  0
  6  7  1  0
  8  6  1  1
  7  9  2  0
  7 10  1  0
  8 11  1  0
  8 12  1  0
  9 13  1  0
 10 14  2  0
 11 15  1  0
 16 12  1  0
 15 16  1  0
 13 17  1  0
 13 18  2  0
 14 18  1  0
 14 19  1  0
 16 20  2  0
 16 21  2  0
 17 22  2  0
 17 23  1  0
 19 24  1  0
 19 25  2  0
 22 26  1  0
 23 27  2  0
 23 28  1  0
 24 29  1  0
 25 30  1  0
 29 30  2  0
 25 31  1  0
 26 32  2  0
 27 32  1  0
 28 33  1  0
 28 34  1  0
 27 35  1  0
 31 36  2  0
 31 37  1  0
 35 38  1  0
 32 39  1  0
 38 39  1  0
 37 40  1  0
 40 41  1  0
M  END
