INS-INS-398f5681-1-vinylsulfonamide
     RDKit          3D

 40 44  0  0  0  0  0  0  0  0999 V2000
    8.2170   -3.7810   20.2160 C   0  0  0  0  0  0  0  0  0  0  0  0
    7.0650   -2.8810   19.8320 C   0  0  0  0  0  0  0  0  0  0  0  0
    5.7010   -3.7430   20.5350 S   0  0  0  0  0  0  0  0  0  0  0  0
    4.7140   -2.8610   20.9370 O   0  0  0  0  0  0  0  0  0  0  0  0
    5.3540   -4.9020   19.7560 O   0  0  0  0  0  0  0  0  0  0  0  0
    6.3480   -4.1600   21.9600 N   0  0  0  0  0  0  0  0  0  0  0  0
    7.1610   -3.1030   22.6610 C   0  0  0  0  0  0  0  0  0  0  0  0
    5.7150   -4.7500   23.1370 C   0  0  1  0  0  0  0  0  0  0  0  0
    8.3000   -3.5620   23.5850 C   0  0  0  0  0  0  0  0  0  0  0  0
    7.1500   -1.5320   22.6940 C   0  0  0  0  0  0  0  0  0  0  0  0
    4.4320   -4.2550   23.3990 C   0  0  0  0  0  0  0  0  0  0  0  0
    5.5600   -6.2760   23.1120 C   0  0  0  0  0  0  0  0  0  0  0  0
    9.1830   -2.6480   24.3500 C   0  0  0  0  0  0  0  0  0  0  0  0
    8.0600   -0.7580   23.4720 C   0  0  0  0  0  0  0  0  0  0  0  0
    6.2180   -0.6310   21.9450 C   0  0  0  0  0  0  0  0  0  0  0  0
    3.4280   -5.1970   24.0290 C   0  0  0  0  0  0  0  0  0  0  0  0
    4.4350   -6.5890   24.4720 S   0  0  0  0  0  0  0  0  0  0  0  0
   10.0840   -3.3370   25.1170 C   0  0  0  0  0  0  0  0  0  0  0  0
    9.0540   -1.2780   24.2890 C   0  0  0  0  0  0  0  0  0  0  0  0
    5.4050   -0.8950   21.0820 O   0  0  0  0  0  0  0  0  0  0  0  0
    6.5230    0.7080   22.4990 N   0  0  0  0  0  0  0  0  0  0  0  0
    7.7530    0.6980   23.2610 C   0  0  0  0  0  0  0  0  0  0  0  0
    5.0810   -6.2540   25.7280 O   0  0  0  0  0  0  0  0  0  0  0  0
    3.6960   -7.8270   24.2730 O   0  0  0  0  0  0  0  0  0  0  0  0
    9.1160   -4.5220   25.9070 S   0  0  0  0  0  0  0  0  0  0  0  0
   11.4700   -3.3950   25.4520 C   0  0  0  0  0  0  0  0  0  0  0  0
   10.4400   -5.1240   26.6770 C   0  0  0  0  0  0  0  0  0  0  0  0
   11.5930   -4.4300   26.3330 C   0  0  0  0  0  0  0  0  0  0  0  0
   12.6940   -2.6590   25.0950 C   0  0  0  0  0  0  0  0  0  0  0  0
   12.7610   -1.4670   24.7990 O   0  0  0  0  0  0  0  0  0  0  0  0
   13.9450   -3.5470   25.0900 C   0  0  0  0  0  0  0  0  0  0  0  0
   14.4910   -3.3070   23.7720 C   0  0  0  0  0  0  0  0  0  0  0  0
   14.5310   -4.4350   25.9890 C   0  0  0  0  0  0  0  0  0  0  0  0
   15.8470   -4.2390   23.5510 C   0  0  0  0  0  0  0  0  0  0  0  0
   15.7510   -5.2110   25.6090 C   0  0  0  0  0  0  0  0  0  0  0  0
   16.2580   -5.0470   24.5260 C   0  0  0  0  0  0  0  0  0  0  0  0
   16.7180   -6.1600   25.9310 C   0  0  0  0  0  0  0  0  0  0  0  0
   16.5970   -7.2980   25.2080 F   0  0  0  0  0  0  0  0  0  0  0  0
   16.9780   -6.6080   27.0770 F   0  0  0  0  0  0  0  0  0  0  0  0
   17.9030   -5.6560   25.5180 F   0  0  0  0  0  0  0  0  0  0  0  0
  1  2  1  0
  2  3  1  0
  3  4  2  0
  3  5  2  0
  3  6  1  0
  6  7  1  0
  8  6  1  6
  7  9  2  0
  7 10  1  0
  8 11  1  0
  8 12  1  0
  9 13  1  0
 10 14  2  0
 10 15  1  0
 11 16  1  0
 17 12  1  0
 16 17  1  0
 13 18  1  0
 13 19  2  0
 14 19  1  0
 15 20  2  0
 15 21  1  0
 14 22  1  0
 21 22  1  0
 17 23  2  0
 17 24  2  0
 18 25  1  0
 18 26  2  0
 25 27  1  0
 26 28  1  0
 27 28  2  0
 26 29  1  0
 29 30  2  0
 29 31  1  0
 31 32  2  0
 31 33  1  0
 32 34  1  0
 33 35  2  0
 34 36  2  0
 35 36  1  0
 35 37  1  0
 37 38  1  0
 37 39  1  0
 37 40  1  0
M  END
