INS-INS-9a4863b0-1-acrylamide
     RDKit          3D

 44 48  0  0  0  0  0  0  0  0999 V2000
    7.6370   -2.9110   18.3040 C   0  0  0  0  0  0  0  0  0  0  0  0
    6.6810   -2.2200   19.2860 C   0  0  0  0  0  0  0  0  0  0  0  0
    6.2100   -3.0060   20.4780 C   0  0  0  0  0  0  0  0  0  0  0  0
    5.2730   -3.8580   20.4110 O   0  0  0  0  0  0  0  0  0  0  0  0
    6.9070   -2.6520   21.6340 N   0  0  0  0  0  0  0  0  0  0  0  0
    6.3960   -2.7480   22.9980 C   0  0  0  0  0  0  0  0  0  0  0  0
    8.0860   -1.7800   21.5100 C   0  0  2  0  0  0  0  0  0  0  0  0
    7.3220   -3.4290   23.7850 C   0  0  0  0  0  0  0  0  0  0  0  0
    9.2250   -2.4480   22.3400 C   0  0  2  0  0  0  0  0  0  0  0  0
    7.7220   -0.2800   21.6480 C   0  0  0  0  0  0  0  0  0  0  0  0
    8.6990   -3.3210   23.4980 C   0  0  0  0  0  0  0  0  0  0  0  0
    6.8790   -4.2270   24.8730 C   0  0  0  0  0  0  0  0  0  0  0  0
   10.3850   -1.4720   22.5440 C   0  0  0  0  0  0  0  0  0  0  0  0
    8.6550    0.7460   21.7580 C   0  0  0  0  0  0  0  0  0  0  0  0
    6.3960    0.0080   21.6580 N   0  0  0  0  0  0  0  0  0  0  0  0
    9.6640   -4.1120   24.3790 C   0  0  0  0  0  0  0  0  0  0  0  0
    7.7810   -4.9470   25.6810 C   0  0  0  0  0  0  0  0  0  0  0  0
    5.3500   -4.3150   25.2350 C   0  0  2  0  0  0  0  0  0  0  0  0
   11.7220   -1.7830   22.2870 C   0  0  0  0  0  0  0  0  0  0  0  0
   10.1080   -0.1810   23.0020 C   0  0  0  0  0  0  0  0  0  0  0  0
    8.1900    2.0480   21.8860 C   0  0  0  0  0  0  0  0  0  0  0  0
    6.0430    1.2930   21.7790 C   0  0  0  0  0  0  0  0  0  0  0  0
    9.1500   -4.8830   25.4220 C   0  0  0  0  0  0  0  0  0  0  0  0
    5.0850   -4.4750   26.7030 C   0  0  0  0  0  0  0  0  0  0  0  0
    4.2590   -5.5030   25.1110 C   0  0  2  0  0  0  0  0  0  0  0  0
   12.7810   -0.7540   22.5070 C   0  0  0  0  0  0  0  0  0  0  0  0
   11.1180    0.7750   23.1870 C   0  0  0  0  0  0  0  0  0  0  0  0
    9.1500    3.0730   22.0160 N   0  0  0  0  0  0  0  0  0  0  0  0
    6.8770    2.3390   21.8960 N   0  0  0  0  0  0  0  0  0  0  0  0
    3.9440   -5.4310   26.6330 C   0  0  0  0  0  0  0  0  0  0  0  0
    4.5380   -6.9150   24.6010 C   0  0  0  0  0  0  0  0  0  0  0  0
   12.4710    0.5560   22.9670 C   0  0  0  0  0  0  0  0  0  0  0  0
    9.6230    3.6190   23.1710 C   0  0  0  0  0  0  0  0  0  0  0  0
    2.7330   -4.9470   26.9880 F   0  0  0  0  0  0  0  0  0  0  0  0
    4.1130   -6.5820   27.3230 F   0  0  0  0  0  0  0  0  0  0  0  0
    4.1050   -7.9300   25.1410 O   0  0  0  0  0  0  0  0  0  0  0  0
    5.2680   -7.0350   23.4430 N   0  0  0  0  0  0  0  0  0  0  0  0
   10.8980    4.0520   23.2250 N   0  0  0  0  0  0  0  0  0  0  0  0
    8.8940    3.7160   24.1560 O   0  0  0  0  0  0  0  0  0  0  0  0
    6.6770   -6.7190   23.4220 C   0  0  1  0  0  0  0  0  0  0  0  0
    7.5440   -7.9250   23.2050 C   0  0  0  0  0  0  0  0  0  0  0  0
    6.8780   -5.8000   22.2250 C   0  0  0  0  0  0  0  0  0  0  0  0
    8.0440   -5.1130   22.2470 N   0  0  0  0  0  0  0  0  0  0  0  0
    6.0610   -5.6930   21.3070 O   0  0  0  0  0  0  0  0  0  0  0  0
  1  2  1  0
  2  3  1  0
  3  4  2  0
  3  5  1  0
  5  6  1  0
  5  7  1  0
  6  8  1  0
  7  9  1  0
  7 10  1  1
  8 11  2  0
  9 11  1  0
  8 12  1  0
  9 13  1  1
 10 14  2  0
 10 15  1  0
 11 16  1  0
 12 17  2  0
 18 12  1  1
 13 19  2  0
 13 20  1  0
 14 21  1  0
 15 22  2  0
 16 23  2  0
 17 23  1  0
 18 24  1  0
 18 25  1  0
 19 26  1  0
 20 27  2  0
 21 28  1  0
 21 29  2  0
 22 29  1  0
 24 30  1  0
 25 30  1  0
 25 31  1  1
 26 32  2  0
 27 32  1  0
 28 33  1  0
 30 34  1  0
 30 35  1  0
 31 36  2  0
 31 37  1  0
 33 38  1  0
 33 39  2  0
 37 40  1  0
 40 41  1  6
 40 42  1  0
 42 43  1  0
 42 44  2  0
M  END
