INS-INS-a68edfff-1-nitrile
     RDKit          3D

 37 41  0  0  0  0  0  0  0  0999 V2000
    6.2140   -4.3730   19.8550 C   0  0  0  0  0  0  0  0  0  0  0  0
    6.2450   -3.4120   19.0000 N   0  0  0  0  0  0  0  0  0  0  0  0
    5.7330   -4.0980   21.1060 N   0  0  0  0  0  0  0  0  0  0  0  0
    6.7110   -3.3660   21.8180 C   0  0  0  0  0  0  0  0  0  0  0  0
    5.1280   -5.1390   21.9970 C   0  0  1  0  0  0  0  0  0  0  0  0
    7.2830   -4.3590   22.7290 C   0  0  0  0  0  0  0  0  0  0  0  0
    7.2140   -1.9510   21.7980 C   0  0  0  0  0  0  0  0  0  0  0  0
    5.8850   -6.1470   22.6140 C   0  0  0  0  0  0  0  0  0  0  0  0
    4.3130   -4.4900   23.1280 C   0  0  0  0  0  0  0  0  0  0  0  0
    8.3500   -3.9610   23.6100 C   0  0  0  0  0  0  0  0  0  0  0  0
    8.3030   -1.7010   22.7510 C   0  0  0  0  0  0  0  0  0  0  0  0
    6.9170   -0.8030   21.0980 C   0  0  0  0  0  0  0  0  0  0  0  0
    5.4070   -6.6900   23.8090 C   0  0  0  0  0  0  0  0  0  0  0  0
    3.8480   -5.9060   24.0910 S   0  0  0  0  0  0  0  0  0  0  0  0
    8.7220   -5.0060   24.3540 C   0  0  0  0  0  0  0  0  0  0  0  0
    8.8600   -2.6400   23.6210 C   0  0  0  0  0  0  0  0  0  0  0  0
    6.1350   -0.6800   20.1780 O   0  0  0  0  0  0  0  0  0  0  0  0
    7.7740    0.2550   21.7240 N   0  0  0  0  0  0  0  0  0  0  0  0
    8.7360   -0.2470   22.6440 C   0  0  0  0  0  0  0  0  0  0  0  0
    3.7550   -5.5310   25.4840 O   0  0  0  0  0  0  0  0  0  0  0  0
    2.7750   -6.5980   23.4120 O   0  0  0  0  0  0  0  0  0  0  0  0
    8.6860   -6.6460   23.7340 S   0  0  0  0  0  0  0  0  0  0  0  0
    9.1170   -4.8270   25.6120 C   0  0  0  0  0  0  0  0  0  0  0  0
    9.2460   -7.1080   25.2850 C   0  0  0  0  0  0  0  0  0  0  0  0
    9.4280   -6.0530   26.1570 C   0  0  0  0  0  0  0  0  0  0  0  0
    9.1000   -3.5000   25.9870 C   0  0  0  0  0  0  0  0  0  0  0  0
    8.2060   -3.0060   26.6430 O   0  0  0  0  0  0  0  0  0  0  0  0
   10.2210   -2.6500   25.5090 C   0  0  0  0  0  0  0  0  0  0  0  0
   10.1100   -1.2360   24.9430 C   0  0  0  0  0  0  0  0  0  0  0  0
   11.6040   -3.2920   25.6120 C   0  0  0  0  0  0  0  0  0  0  0  0
   11.2550   -0.5380   24.5310 C   0  0  0  0  0  0  0  0  0  0  0  0
   12.7880   -2.4440   25.1580 C   0  0  0  0  0  0  0  0  0  0  0  0
   12.6470   -1.1470   24.6370 C   0  0  0  0  0  0  0  0  0  0  0  0
   13.9650   -3.1060   25.3440 C   0  0  0  0  0  0  0  0  0  0  0  0
   14.9040   -2.5350   26.0750 F   0  0  0  0  0  0  0  0  0  0  0  0
   13.7720   -4.2180   26.0680 F   0  0  0  0  0  0  0  0  0  0  0  0
   14.5150   -3.4740   24.1890 F   0  0  0  0  0  0  0  0  0  0  0  0
  1  2  2  3
  1  3  1  0
  3  4  1  0
  5  3  1  1
  4  6  2  0
  4  7  1  0
  5  8  1  0
  5  9  1  0
  6 10  1  0
  7 11  2  0
  7 12  1  0
  8 13  1  0
 14  9  1  0
 13 14  1  0
 10 15  1  0
 10 16  2  0
 11 16  1  0
 12 17  2  0
 12 18  1  0
 11 19  1  0
 18 19  1  0
 14 20  2  0
 14 21  2  0
 15 22  1  0
 15 23  2  0
 22 24  1  0
 23 25  1  0
 24 25  2  0
 23 26  1  0
 26 27  2  0
 26 28  1  0
 28 29  2  0
 28 30  1  0
 29 31  1  0
 30 32  2  0
 31 33  2  0
 32 33  1  0
 32 34  1  0
 34 35  1  0
 34 36  1  0
 34 37  1  0
M  END
