ISA-SCH-8e98219b-4
     RDKit          3D

 16 17  0  0  0  0  0  0  0  0999 V2000
    8.3450    0.7060   21.3020 N   0  0  0  0  0  0  0  0  0  0  0  0
    7.9020   -0.5260   21.5670 C   0  0  0  0  0  0  0  0  0  0  0  0
    6.8260   -1.0060   20.9460 N   0  0  0  0  0  0  0  0  0  0  0  0
    8.6240   -1.2500   22.5140 N   0  0  0  0  0  0  0  0  0  0  0  0
    6.2140   -0.1630   19.9490 C   0  0  0  0  0  0  0  0  0  0  0  0
    9.7690   -0.6900   22.8410 C   0  0  0  0  0  0  0  0  0  0  0  0
    4.9450    0.6010   20.2200 C   0  0  0  0  0  0  0  0  0  0  0  0
    6.8250   -0.0570   18.7190 C   0  0  0  0  0  0  0  0  0  0  0  0
    9.9300    0.5000   23.8090 C   0  0  0  0  0  0  0  0  0  0  0  0
   11.0110   -1.0030   22.4050 C   0  0  0  0  0  0  0  0  0  0  0  0
    4.3750    1.4680   19.1330 C   0  0  0  0  0  0  0  0  0  0  0  0
    6.3750    0.7030   17.6870 N   0  0  0  0  0  0  0  0  0  0  0  0
   11.5420    1.0820   24.0410 S   0  0  0  0  0  0  0  0  0  0  0  0
   11.9800   -0.1620   22.9550 C   0  0  0  0  0  0  0  0  0  0  0  0
    5.1950    1.4450   17.8730 C   0  0  0  0  0  0  0  0  0  0  0  0
   13.5260   -0.3760   22.5460 Cl  0  0  0  0  0  0  0  0  0  0  0  0
  1  2  2  3
  2  3  1  0
  2  4  1  0
  3  5  1  0
  4  6  1  0
  5  7  2  0
  5  8  1  0
  6  9  2  0
  6 10  1  0
  7 11  1  0
  8 12  2  0
  9 13  1  0
 10 14  2  0
 13 14  1  0
 11 15  2  0
 12 15  1  0
 14 16  1  0
M  END
