ISA-SCH-8e98219b-3
     RDKit          3D

 20 21  0  0  0  0  0  0  0  0999 V2000
    5.2320   -1.9520   19.2530 C   0  0  0  0  0  0  0  0  0  0  0  0
    6.2460   -1.2190   18.3850 C   0  0  0  0  0  0  0  0  0  0  0  0
    7.1940   -1.7780   17.8800 O   0  0  0  0  0  0  0  0  0  0  0  0
    6.0390    0.1180   18.2450 N   0  0  0  0  0  0  0  0  0  0  0  0
    4.7260    0.6760   18.0430 C   0  0  0  0  0  0  0  0  0  0  0  0
    6.8570    0.9900   18.8870 C   0  0  0  0  0  0  0  0  0  0  0  0
    4.1320    1.0120   19.4060 C   0  0  0  0  0  0  0  0  0  0  0  0
    6.1640    1.8450   19.7560 C   0  0  0  0  0  0  0  0  0  0  0  0
    5.2460    1.1680   20.3510 N   0  0  0  0  0  0  0  0  0  0  0  0
    5.8600    0.0920   20.9160 C   0  0  0  0  0  0  0  0  0  0  0  0
    6.4930    0.2510   22.0440 N   0  0  0  0  0  0  0  0  0  0  0  0
    7.8280    0.4480   22.0090 C   0  0  0  0  0  0  0  0  0  0  0  0
    8.4350    1.4060   21.2040 N   0  0  0  0  0  0  0  0  0  0  0  0
    8.4160   -0.4080   22.8710 N   0  0  0  0  0  0  0  0  0  0  0  0
    9.8450   -0.3200   23.0230 C   0  0  0  0  0  0  0  0  0  0  0  0
   10.5650    0.6990   23.9270 C   0  0  0  0  0  0  0  0  0  0  0  0
   10.8020   -1.0740   22.4270 C   0  0  0  0  0  0  0  0  0  0  0  0
   12.3010    0.5990   23.9210 S   0  0  0  0  0  0  0  0  0  0  0  0
   12.0960   -0.7000   22.8070 C   0  0  0  0  0  0  0  0  0  0  0  0
   13.3640   -1.5320   22.1570 Cl  0  0  0  0  0  0  0  0  0  0  0  0
  1  2  1  0
  2  3  2  0
  2  4  1  0
  4  5  1  0
  4  6  1  0
  5  7  1  0
  6  8  1  0
  7  9  1  0
  8  9  1  0
  9 10  1  0
 10 11  1  0
 11 12  1  0
 12 13  2  3
 12 14  1  0
 14 15  1  0
 15 16  2  0
 15 17  1  0
 16 18  1  0
 17 19  2  0
 18 19  1  0
 19 20  1  0
M  END
