ISA-SCH-8e98219b-2
     RDKit          3D

 21 22  0  0  0  0  0  0  0  0999 V2000
    7.1770   -0.9540   18.3720 C   0  0  0  0  0  0  0  0  0  0  0  0
    6.8070    0.4770   18.0000 C   0  0  0  0  0  0  0  0  0  0  0  0
    7.5730    1.2340   17.5320 O   0  0  0  0  0  0  0  0  0  0  0  0
    5.5490    0.8380   18.2040 N   0  0  0  0  0  0  0  0  0  0  0  0
    4.6160   -0.1590   18.4500 C   0  0  0  0  0  0  0  0  0  0  0  0
    5.2620    2.0650   18.9180 C   0  0  0  0  0  0  0  0  0  0  0  0
    4.3440   -0.2660   19.9370 C   0  0  0  0  0  0  0  0  0  0  0  0
    4.5250    1.8890   20.0570 C   0  0  0  0  0  0  0  0  0  0  0  0
    4.9880    0.7870   20.6730 N   0  0  0  0  0  0  0  0  0  0  0  0
    6.3370    0.7650   20.7730 C   0  0  0  0  0  0  0  0  0  0  0  0
    6.9000   -0.2260   21.4080 N   0  0  0  0  0  0  0  0  0  0  0  0
    8.1070    0.1080   21.8390 C   0  0  0  0  0  0  0  0  0  0  0  0
    8.6720    1.2950   21.3870 N   0  0  0  0  0  0  0  0  0  0  0  0
    8.6470   -0.7970   22.6930 N   0  0  0  0  0  0  0  0  0  0  0  0
   10.0400   -0.5090   22.7560 C   0  0  0  0  0  0  0  0  0  0  0  0
   11.1540   -1.4410   22.2010 C   0  0  0  0  0  0  0  0  0  0  0  0
   10.4460    0.7050   23.3250 C   0  0  0  0  0  0  0  0  0  0  0  0
   12.5520   -0.9800   22.2800 C   0  0  0  0  0  0  0  0  0  0  0  0
   11.7760    1.0660   23.3630 C   0  0  0  0  0  0  0  0  0  0  0  0
   12.7680    0.2680   22.8530 C   0  0  0  0  0  0  0  0  0  0  0  0
   14.0040    0.6430   22.8600 F   0  0  0  0  0  0  0  0  0  0  0  0
  1  2  1  0
  2  3  2  0
  2  4  1  0
  4  5  1  0
  4  6  1  0
  5  7  1  0
  6  8  1  0
  7  9  1  0
  8  9  1  0
  9 10  1  0
 10 11  1  0
 11 12  1  0
 12 13  2  3
 12 14  1  0
 14 15  1  0
 15 16  2  0
 15 17  1  0
 16 18  1  0
 17 19  2  0
 18 20  2  0
 19 20  1  0
 20 21  1  0
M  END
