JAC-SHE-cfe9e938-1-nitrile
     RDKit          3D

 32 34  0  0  0  0  0  0  0  0999 V2000
    7.4200   -3.9540   20.1480 C   0  0  0  0  0  0  0  0  0  0  0  0
    6.2380   -4.4510   19.9220 N   0  0  0  0  0  0  0  0  0  0  0  0
    8.0010   -3.5990   21.4700 C   0  0  0  0  0  0  0  0  0  0  0  0
    8.8050   -2.3650   21.7080 C   0  0  0  0  0  0  0  0  0  0  0  0
    7.8690   -4.3530   22.5700 C   0  0  0  0  0  0  0  0  0  0  0  0
    9.3670   -2.0870   23.1050 C   0  0  0  0  0  0  0  0  0  0  0  0
    8.4540   -3.9960   23.9000 N   0  0  0  0  0  0  0  0  0  0  0  0
    9.2050   -2.9590   24.3980 C   0  0  0  0  0  0  0  0  0  0  0  0
    8.9580   -3.9040   25.5420 N   0  0  0  0  0  0  0  0  0  0  0  0
    9.9680   -4.7090   25.8830 C   0  0  0  0  0  0  0  0  0  0  0  0
    7.6310   -4.5140   25.4110 C   0  0  0  0  0  0  0  0  0  0  0  0
    9.4520   -5.5460   27.0680 C   0  0  0  0  0  0  0  0  0  0  0  0
    7.0320   -4.7310   26.7980 C   0  0  2  0  0  0  0  0  0  0  0  0
    8.0190   -5.3890   27.5710 C   0  0  2  0  0  0  0  0  0  0  0  0
    5.8350   -5.4590   26.6360 C   0  0  0  0  0  0  0  0  0  0  0  0
    7.9920   -4.7760   28.7840 O   0  0  0  0  0  0  0  0  0  0  0  0
    5.2850   -5.3110   25.3890 O   0  0  0  0  0  0  0  0  0  0  0  0
    4.0450   -5.9680   25.1000 C   0  0  0  0  0  0  0  0  0  0  0  0
    3.7790   -5.7640   23.7380 C   0  0  0  0  0  0  0  0  0  0  0  0
    4.7670   -4.9180   22.9780 C   0  0  0  0  0  0  0  0  0  0  0  0
    4.5790   -3.5350   22.7740 N   0  0  0  0  0  0  0  0  0  0  0  0
    5.1580   -2.7700   21.7940 C   0  0  0  0  0  0  0  0  0  0  0  0
    4.9760   -2.9290   20.3870 O   0  0  0  0  0  0  0  0  0  0  0  0
    6.0100   -1.7330   21.9220 C   0  0  2  0  0  0  0  0  0  0  0  0
    5.4180   -0.7550   22.7800 O   0  0  0  0  0  0  0  0  0  0  0  0
    6.3190   -1.0710   20.5730 C   0  0  0  0  0  0  0  0  0  0  0  0
    5.6930    0.3260   20.4110 C   0  0  0  0  0  0  0  0  0  0  0  0
    4.6550    0.7460   19.4230 C   0  0  0  0  0  0  0  0  0  0  0  0
    5.9530    1.6040   21.1870 N   0  0  0  0  0  0  0  0  0  0  0  0
    4.3130    2.1920   19.6050 C   0  0  0  0  0  0  0  0  0  0  0  0
    5.1040    2.6350   20.6490 O   0  0  0  0  0  0  0  0  0  0  0  0
    3.4030    2.9700   18.9070 C   0  0  0  0  0  0  0  0  0  0  0  0
  1  2  2  3
  1  3  1  0
  3  4  2  0
  3  5  1  0
  4  6  1  0
  5  7  2  0
  6  8  2  0
  7  8  1  0
  8  9  1  0
  9 10  1  0
  9 11  1  0
 10 12  1  0
 11 13  1  0
 12 14  1  0
 13 14  1  0
 13 15  1  6
 14 16  1  1
 15 17  1  0
 17 18  1  0
 18 19  1  0
 19 20  1  0
 20 21  1  0
 21 22  1  0
 22 23  2  0
 22 24  1  0
 24 25  1  1
 24 26  1  0
 26 27  1  0
 27 28  1  0
 27 29  2  0
 28 30  2  0
 29 31  1  0
 30 31  1  0
 30 32  1  0
M  END
