JAC-SHE-fb00f511-1
     RDKit          3D

 30 33  0  0  0  0  0  0  0  0999 V2000
    5.8580    1.2710   24.5960 C   0  0  0  0  0  0  0  0  0  0  0  0
    7.3190    1.5960   24.4920 C   0  0  0  0  0  0  0  0  0  0  0  0
    8.1950    0.6550   24.0970 N   0  0  0  0  0  0  0  0  0  0  0  0
    7.9590    3.1310   24.8340 S   0  0  0  0  0  0  0  0  0  0  0  0
    9.5080    1.2450   24.0400 C   0  0  0  0  0  0  0  0  0  0  0  0
    9.5510    2.5920   24.4120 C   0  0  0  0  0  0  0  0  0  0  0  0
   10.5490    0.4600   23.5980 C   0  0  0  0  0  0  0  0  0  0  0  0
   10.6910    3.4910   24.4520 N   0  0  0  0  0  0  0  0  0  0  0  0
   11.8560    0.9830   23.4610 C   0  0  0  0  0  0  0  0  0  0  0  0
   10.3390   -0.8870   23.2370 C   0  0  0  0  0  0  0  0  0  0  0  0
   10.3560    4.8630   24.4300 C   0  0  0  0  0  0  0  0  0  0  0  0
   12.9090    0.2050   22.9670 C   0  0  0  0  0  0  0  0  0  0  0  0
   11.3990   -1.6290   22.7530 C   0  0  0  0  0  0  0  0  0  0  0  0
   10.0030    5.2800   23.1840 C   0  0  2  0  0  0  0  0  0  0  0  0
   12.6650   -1.1100   22.6070 C   0  0  0  0  0  0  0  0  0  0  0  0
   11.2140    5.4160   22.3240 C   0  0  2  0  0  0  0  0  0  0  0  0
    9.0030    6.7450   23.4800 S   0  0  0  0  0  0  0  0  0  0  0  0
   11.5180    4.1750   21.8480 C   0  0  0  0  0  0  0  0  0  0  0  0
   12.4800    5.7620   23.0230 N   0  0  0  0  0  0  0  0  0  0  0  0
    8.1300    7.0580   21.9660 C   0  0  0  0  0  0  0  0  0  0  0  0
    9.8790    7.8560   23.7130 O   0  0  0  0  0  0  0  0  0  0  0  0
    7.9990    6.4140   24.4640 O   0  0  0  0  0  0  0  0  0  0  0  0
   12.4390    3.5210   22.7280 C   0  0  0  0  0  0  0  0  0  0  0  0
   13.3650    4.5610   23.0400 C   0  0  1  0  0  0  0  0  0  0  0  0
   14.2810    4.5430   22.0150 C   0  0  0  0  0  0  0  0  0  0  0  0
   14.2420    5.2310   20.8370 C   0  0  0  0  0  0  0  0  0  0  0  0
   15.4300    3.8030   22.0160 N   0  0  0  0  0  0  0  0  0  0  0  0
   15.3740    4.9320   20.1620 N   0  0  0  0  0  0  0  0  0  0  0  0
   16.0790    4.0430   20.8770 N   0  0  0  0  0  0  0  0  0  0  0  0
   15.8790    5.4130   18.9240 C   0  0  0  0  0  0  0  0  0  0  0  0
  1  2  1  0
  2  3  2  0
  2  4  1  0
  3  5  1  0
  4  6  1  0
  5  6  2  0
  5  7  1  0
  6  8  1  0
  7  9  2  0
  7 10  1  0
  8 11  1  0
  9 12  1  0
 10 13  2  0
 14 11  1  1
 12 15  2  0
 13 15  1  0
 14 16  1  0
 14 17  1  0
 16 18  1  1
 16 19  1  0
 17 20  1  0
 17 21  2  0
 17 22  2  0
 18 23  1  0
 19 24  1  0
 23 24  1  0
 24 25  1  6
 25 26  2  0
 25 27  1  0
 26 28  1  0
 27 29  2  0
 28 29  1  0
 28 30  1  0
M  END
