JAG-SYN-9c2cd0bd-1-acrylamide
     RDKit          3D

 21 22  0  0  0  0  0  0  0  0999 V2000
    7.1880   -3.5100   19.3020 C   0  0  0  0  0  0  0  0  0  0  0  0
    7.2680   -2.9520   20.6680 C   0  0  0  0  0  0  0  0  0  0  0  0
    6.3220   -3.7980   21.4750 C   0  0  0  0  0  0  0  0  0  0  0  0
    5.1370   -3.6720   21.2710 O   0  0  0  0  0  0  0  0  0  0  0  0
    6.8330   -4.7160   22.3860 N   0  0  0  0  0  0  0  0  0  0  0  0
    7.5620   -4.3230   23.4630 C   0  0  0  0  0  0  0  0  0  0  0  0
    6.2300   -5.9690   22.4660 C   0  0  0  0  0  0  0  0  0  0  0  0
    6.5250   -3.9590   24.2900 C   0  0  0  0  0  0  0  0  0  0  0  0
    5.3470   -5.8850   23.5230 C   0  0  0  0  0  0  0  0  0  0  0  0
    5.9220   -5.1200   24.6740 N   0  0  0  0  0  0  0  0  0  0  0  0
    5.1180   -5.1750   26.1210 S   0  0  0  0  0  0  0  0  0  0  0  0
    4.4940   -6.4690   26.2820 O   0  0  0  0  0  0  0  0  0  0  0  0
    6.0670   -4.6940   27.0990 O   0  0  0  0  0  0  0  0  0  0  0  0
    3.8210   -4.0080   25.9740 C   0  0  0  0  0  0  0  0  0  0  0  0
    2.3570   -4.4700   25.6450 C   0  0  0  0  0  0  0  0  0  0  0  0
    4.1250   -2.6440   26.1640 C   0  0  0  0  0  0  0  0  0  0  0  0
    1.9840   -5.7410   25.4510 F   0  0  0  0  0  0  0  0  0  0  0  0
    1.3320   -3.3620   25.5570 C   0  0  0  0  0  0  0  0  0  0  0  0
    3.0330   -1.5640   26.0580 C   0  0  0  0  0  0  0  0  0  0  0  0
    5.3700   -2.2400   26.4470 F   0  0  0  0  0  0  0  0  0  0  0  0
    1.7100   -1.8970   25.7750 C   0  0  0  0  0  0  0  0  0  0  0  0
  1  2  1  0
  2  3  1  0
  3  4  2  0
  3  5  1  0
  5  6  1  0
  5  7  1  0
  6  8  1  0
  7  9  1  0
  8 10  1  0
  9 10  1  0
 10 11  1  0
 11 12  2  0
 11 13  2  0
 11 14  1  0
 14 15  2  0
 14 16  1  0
 15 17  1  0
 15 18  1  0
 16 19  2  0
 16 20  1  0
 18 21  2  0
 19 21  1  0
M  END
