JAG-SYN-9c2cd0bd-3-chloroacetamide
     RDKit          3D

 18 19  0  0  0  0  0  0  0  0999 V2000
    7.3360   -3.7530   20.4830 C   0  0  0  0  0  0  0  0  0  0  0  0
    6.3400   -4.6110   20.7030 C   0  0  0  0  0  0  0  0  0  0  0  0
    5.3560   -4.6400   19.9510 O   0  0  0  0  0  0  0  0  0  0  0  0
    6.4740   -5.4410   21.8060 N   0  0  0  0  0  0  0  0  0  0  0  0
    5.5000   -6.3370   22.2410 C   0  0  0  0  0  0  0  0  0  0  0  0
    7.4740   -5.1350   22.8040 C   0  0  0  0  0  0  0  0  0  0  0  0
    4.8740   -5.9700   23.4310 C   0  0  0  0  0  0  0  0  0  0  0  0
    6.9620   -4.9850   24.0730 C   0  0  0  0  0  0  0  0  0  0  0  0
    5.4540   -4.8420   24.0340 C   0  0  0  0  0  0  0  0  0  0  0  0
    5.1510   -4.5690   25.3600 C   0  0  0  0  0  0  0  0  0  0  0  0
    5.4760   -5.5280   26.2730 O   0  0  0  0  0  0  0  0  0  0  0  0
    4.5400   -3.3310   25.6540 N   0  0  0  0  0  0  0  0  0  0  0  0
    3.1630   -3.3750   25.7270 C   0  0  0  0  0  0  0  0  0  0  0  0
    2.4880   -2.0380   25.8700 C   0  0  0  0  0  0  0  0  0  0  0  0
    2.5320   -4.5710   25.6560 C   0  0  0  0  0  0  0  0  0  0  0  0
    0.9750   -1.9810   25.9460 C   0  0  0  0  0  0  0  0  0  0  0  0
    1.0440   -4.5290   25.7290 C   0  0  0  0  0  0  0  0  0  0  0  0
    0.2860   -3.3500   25.8630 C   0  0  0  0  0  0  0  0  0  0  0  0
  1  2  1  0
  2  3  2  0
  2  4  1  0
  4  5  1  0
  4  6  1  0
  5  7  1  0
  6  8  1  0
  7  9  1  0
  8  9  1  0
  9 10  1  0
 10 11  2  0
 10 12  1  0
 12 13  1  0
 13 14  2  0
 13 15  1  0
 14 16  1  0
 15 17  2  0
 16 18  2  0
 17 18  1  0
M  END
