JAN-GHE-6413aaf8-2-vinylsulfonamide
     RDKit          3D

 30 33  0  0  0  0  0  0  0  0999 V2000
    7.6310   -3.0520   18.5500 C   0  0  0  0  0  0  0  0  0  0  0  0
    6.2310   -3.4090   19.0520 C   0  0  0  0  0  0  0  0  0  0  0  0
    6.1090   -2.8110   20.6930 S   0  0  0  0  0  0  0  0  0  0  0  0
    4.9850   -3.4150   21.3960 O   0  0  0  0  0  0  0  0  0  0  0  0
    6.2810   -1.3670   20.6170 O   0  0  0  0  0  0  0  0  0  0  0  0
    7.5040   -3.4790   21.3450 N   0  0  0  0  0  0  0  0  0  0  0  0
    8.5990   -2.5550   21.5380 C   0  0  0  0  0  0  0  0  0  0  0  0
    7.4080   -4.0360   22.7260 C   0  0  0  0  0  0  0  0  0  0  0  0
    8.5060   -2.9600   22.9660 C   0  0  0  0  0  0  0  0  0  0  0  0
    7.9810   -1.8510   23.8350 N   0  0  0  0  0  0  0  0  0  0  0  0
    8.9720   -1.4430   24.7400 C   0  0  0  0  0  0  0  0  0  0  0  0
   10.2670   -1.7680   24.4350 C   0  0  0  0  0  0  0  0  0  0  0  0
   11.7250   -1.9790   24.2630 C   0  0  0  0  0  0  0  0  0  0  0  0
   10.8430   -0.8070   25.4780 C   0  0  0  0  0  0  0  0  0  0  0  0
   13.2820   -2.2800   23.9990 C   0  0  0  0  0  0  0  0  0  0  0  0
   11.1290   -1.5960   24.6290 C   0  0  0  0  0  0  0  0  0  0  0  0
    9.7390   -0.5690   25.6830 N   0  0  0  0  0  0  0  0  0  0  0  0
   12.4820   -1.5810   24.7130 C   0  0  0  0  0  0  0  0  0  0  0  0
    9.7330   -0.9060   25.3150 C   0  0  0  0  0  0  0  0  0  0  0  0
    8.5150   -0.3060   25.9110 C   0  0  0  0  0  0  0  0  0  0  0  0
    8.8950   -1.5790   24.4470 C   0  0  0  0  0  0  0  0  0  0  0  0
    7.6520   -0.6910   24.1400 C   0  0  0  0  0  0  0  0  0  0  0  0
    7.8660    0.7800   24.0470 N   0  0  0  0  0  0  0  0  0  0  0  0
    8.3020    1.3830   22.8800 C   0  0  0  0  0  0  0  0  0  0  0  0
    9.4670    1.4050   22.4730 O   0  0  0  0  0  0  0  0  0  0  0  0
    7.2930    2.0360   22.1980 C   0  0  0  0  0  0  0  0  0  0  0  0
    6.4880    3.0110   22.6910 C   0  0  0  0  0  0  0  0  0  0  0  0
    6.8810    1.8640   20.8650 N   0  0  0  0  0  0  0  0  0  0  0  0
    5.6230    3.4040   21.7280 C   0  0  0  0  0  0  0  0  0  0  0  0
    5.8610    2.6690   20.5360 C   0  0  0  0  0  0  0  0  0  0  0  0
  1  2  1  0
  3  2  1  0
  3  4  2  0
  3  5  2  0
  3  6  1  0
  6  7  1  0
  6  8  1  0
  7  9  1  0
  8  9  1  0
  9 10  1  0
 10 11  1  0
 11 12  1  0
 12 13  2  0
 12 14  1  0
 13 15  1  0
 14 16  2  0
 14 17  1  0
 15 18  2  0
 16 18  1  0
 16 19  1  0
 17 20  1  0
 19 20  2  0
 19 21  1  0
 21 22  1  0
 22 23  1  0
 23 24  1  0
 24 25  2  0
 24 26  1  0
 26 27  2  0
 26 28  1  0
 27 29  1  0
 28 30  1  0
 29 30  2  0
M  END
