JAN-LUN-3e0f9c09-6
     RDKit          3D

 24 26  0  0  0  0  0  0  0  0999 V2000
    1.4400    2.5520   21.5610 O   0  0  0  0  0  0  0  0  0  0  0  0
    2.3970    2.3750   22.3100 C   0  0  0  0  0  0  0  0  0  0  0  0
    2.2600    1.7730   23.5070 O   0  0  0  0  0  0  0  0  0  0  0  0
    3.8170    2.7970   21.9940 C   0  0  0  0  0  0  0  0  0  0  0  0
    4.4670    1.8730   20.9680 C   0  0  0  0  0  0  0  0  0  0  0  0
    4.9490    0.4970   21.1280 C   0  0  0  0  0  0  0  0  0  0  0  0
    4.6780    2.3750   19.5870 C   0  0  0  0  0  0  0  0  0  0  0  0
    5.5120   -0.3210   20.1640 C   0  0  2  0  0  0  0  0  0  0  0  0
    5.0320    1.6100   18.5250 N   0  0  0  0  0  0  0  0  0  0  0  0
    6.9020   -0.4760   20.0900 C   0  0  0  0  0  0  0  0  0  0  0  0
    5.1900    0.2390   18.6900 C   0  0  1  0  0  0  0  0  0  0  0  0
    7.7870   -0.5910   21.0900 N   0  0  0  0  0  0  0  0  0  0  0  0
    7.2230   -0.5610   18.6300 C   0  0  0  0  0  0  0  0  0  0  0  0
    6.1090   -0.4220   17.9080 N   0  0  0  0  0  0  0  0  0  0  0  0
    8.4010    0.5070   21.5830 C   0  0  0  0  0  0  0  0  0  0  0  0
    8.5470    1.6020   21.0350 O   0  0  0  0  0  0  0  0  0  0  0  0
    8.8840    0.1830   22.8670 N   0  0  0  0  0  0  0  0  0  0  0  0
   10.2860    0.2310   22.9800 C   0  0  0  0  0  0  0  0  0  0  0  0
   10.9600    1.5930   22.7850 C   0  0  0  0  0  0  0  0  0  0  0  0
   11.0100   -0.9060   23.2480 C   0  0  0  0  0  0  0  0  0  0  0  0
   12.3310    1.6010   22.8860 C   0  0  0  0  0  0  0  0  0  0  0  0
   12.3710   -0.7570   23.3290 C   0  0  0  0  0  0  0  0  0  0  0  0
   13.0070    0.4320   23.1490 C   0  0  0  0  0  0  0  0  0  0  0  0
   12.9620   -1.8660   23.5930 O   0  0  0  0  0  0  0  0  0  0  0  0
  1  2  2  0
  2  3  1  0
  2  4  1  0
  4  5  1  0
  5  6  2  0
  5  7  1  0
  8  6  1  1
  7  9  2  0
  8 10  1  0
  8 11  1  0
 11  9  1  1
 10 12  1  0
 10 13  2  0
 11 14  1  0
 13 14  1  0
 12 15  1  0
 15 16  2  0
 15 17  1  0
 17 18  1  0
 18 19  2  0
 18 20  1  0
 19 21  1  0
 20 22  2  0
 21 23  2  0
 22 23  1  0
 22 24  1  0
M  END
