JAN-GHE-bf40f168-4-vinylsulfonamide
     RDKit          3D

 37 41  0  0  0  0  0  0  0  0999 V2000
    7.5860   -2.8760   18.4890 C   0  0  0  0  0  0  0  0  0  0  0  0
    7.0550   -2.3650   19.8090 C   0  0  0  0  0  0  0  0  0  0  0  0
    5.6960   -3.4290   20.1230 S   0  0  0  0  0  0  0  0  0  0  0  0
    4.7970   -2.9980   21.1480 O   0  0  0  0  0  0  0  0  0  0  0  0
    5.1860   -3.8310   18.8650 O   0  0  0  0  0  0  0  0  0  0  0  0
    6.4500   -4.6760   20.8020 N   0  0  0  0  0  0  0  0  0  0  0  0
    5.5840   -5.7720   21.2560 C   0  0  0  0  0  0  0  0  0  0  0  0
    7.3090   -4.2630   21.8910 C   0  0  0  0  0  0  0  0  0  0  0  0
    6.1080   -5.9630   22.6620 C   0  0  1  0  0  0  0  0  0  0  0  0
    6.4540   -4.5400   22.9400 C   0  0  1  0  0  0  0  0  0  0  0  0
    5.1210   -6.0000   23.7360 C   0  0  0  0  0  0  0  0  0  0  0  0
    6.8260   -4.6480   24.2490 C   0  0  0  0  0  0  0  0  0  0  0  0
    5.9310   -5.5110   24.8910 N   0  0  0  0  0  0  0  0  0  0  0  0
    5.1610   -5.1230   26.3380 S   0  0  0  0  0  0  0  0  0  0  0  0
    6.1840   -4.6550   27.2280 O   0  0  0  0  0  0  0  0  0  0  0  0
    4.3390   -6.2650   26.6490 O   0  0  0  0  0  0  0  0  0  0  0  0
    4.0580   -3.7540   26.0750 C   0  0  0  0  0  0  0  0  0  0  0  0
    2.6870   -4.0550   25.9270 C   0  0  0  0  0  0  0  0  0  0  0  0
    4.4440   -2.3780   26.0160 C   0  0  0  0  0  0  0  0  0  0  0  0
    1.7730   -3.0300   25.7470 C   0  0  0  0  0  0  0  0  0  0  0  0
    3.5240   -1.3340   25.8340 C   0  0  0  0  0  0  0  0  0  0  0  0
    5.8020   -1.6630   26.1230 C   0  0  0  0  0  0  0  0  0  0  0  0
    2.1950   -1.7140   25.7080 C   0  0  0  0  0  0  0  0  0  0  0  0
    6.3540   -1.4990   24.7200 C   0  0  0  0  0  0  0  0  0  0  0  0
    6.4950   -1.1940   27.2680 C   0  0  0  0  0  0  0  0  0  0  0  0
    7.6850   -0.7880   24.8100 C   0  0  0  0  0  0  0  0  0  0  0  0
    7.7400   -0.5460   27.1590 C   0  0  0  0  0  0  0  0  0  0  0  0
    8.3640   -0.3310   25.9150 C   0  0  0  0  0  0  0  0  0  0  0  0
    9.5640    0.2960   25.7520 N   0  0  0  0  0  0  0  0  0  0  0  0
   10.3450   -0.1470   24.7910 C   0  0  0  0  0  0  0  0  0  0  0  0
   10.1190   -1.4380   24.2540 C   0  0  0  0  0  0  0  0  0  0  0  0
   11.3450    0.6490   24.3480 N   0  0  0  0  0  0  0  0  0  0  0  0
   11.0130   -1.9730   23.1500 C   0  0  0  0  0  0  0  0  0  0  0  0
   12.2280    0.1850   23.3030 C   0  0  0  0  0  0  0  0  0  0  0  0
   12.0950   -1.0510   22.7150 C   0  0  0  0  0  0  0  0  0  0  0  0
   13.0040   -1.4610   21.6530 C   0  0  0  0  0  0  0  0  0  0  0  0
   13.7850   -1.7350   20.6140 N   0  0  0  0  0  0  0  0  0  0  0  0
  1  2  1  0
  3  2  1  0
  3  4  2  0
  3  5  2  0
  3  6  1  0
  6  7  1  0
  6  8  1  0
  9  7  1  6
 10  8  1  6
  9 10  1  0
  9 11  1  0
 10 12  1  0
 11 13  1  0
 12 13  1  0
 13 14  1  0
 14 15  2  0
 14 16  2  0
 14 17  1  0
 17 18  2  0
 17 19  1  0
 18 20  1  0
 19 21  2  0
 19 22  1  0
 20 23  2  0
 21 23  1  0
 22 24  2  0
 22 25  1  0
 24 26  1  0
 25 27  2  0
 26 28  2  0
 27 28  1  0
 28 29  1  0
 29 30  1  0
 30 31  2  0
 30 32  1  0
 31 33  1  0
 32 34  2  0
 33 35  2  0
 34 35  1  0
 35 36  1  0
 36 37  3  0
M  END
