JAN-LUN-3e0f9c09-7
     RDKit          3D

 25 27  0  0  0  0  0  0  0  0999 V2000
    5.1270   -0.3910   17.7780 O   0  0  0  0  0  0  0  0  0  0  0  0
    5.3560    0.8090   17.7840 C   0  0  0  0  0  0  0  0  0  0  0  0
    6.2820    1.3700   17.0090 O   0  0  0  0  0  0  0  0  0  0  0  0
    4.6440    1.7900   18.6710 C   0  0  0  0  0  0  0  0  0  0  0  0
    4.3280    1.1510   19.9990 C   0  0  0  0  0  0  0  0  0  0  0  0
    5.3670    0.3210   20.6310 C   0  0  0  0  0  0  0  0  0  0  0  0
    6.3910   -0.0200   19.7200 C   0  0  0  0  0  0  0  0  0  0  0  0
    5.1660    0.0110   22.0550 C   0  0  1  0  0  0  0  0  0  0  0  0
    7.2800   -0.8040   20.5260 C   0  0  0  0  0  0  0  0  0  0  0  0
    6.3930   -0.6890   22.7280 C   0  0  1  0  0  0  0  0  0  0  0  0
    5.0450    1.3050   22.8990 C   0  0  0  0  0  0  0  0  0  0  0  0
    7.3440   -1.1340   21.8440 N   0  0  0  0  0  0  0  0  0  0  0  0
    6.9260    0.2650   23.6490 N   0  0  0  0  0  0  0  0  0  0  0  0
    6.0850    1.4060   23.8010 C   0  0  0  0  0  0  0  0  0  0  0  0
    4.0750    2.4040   22.9170 N   0  0  0  0  0  0  0  0  0  0  0  0
    2.8560    2.3470   23.5770 C   0  0  0  0  0  0  0  0  0  0  0  0
    2.6050    1.5670   24.4990 O   0  0  0  0  0  0  0  0  0  0  0  0
    1.9850    3.3080   23.0230 N   0  0  0  0  0  0  0  0  0  0  0  0
    0.6530    3.6270   23.5970 C   0  0  0  0  0  0  0  0  0  0  0  0
   -0.4830    2.9330   23.0920 C   0  0  0  0  0  0  0  0  0  0  0  0
    0.4320    4.5790   24.6020 C   0  0  0  0  0  0  0  0  0  0  0  0
   -1.6870    3.2380   23.6150 C   0  0  0  0  0  0  0  0  0  0  0  0
   -0.7510    5.0440   25.2860 C   0  0  0  0  0  0  0  0  0  0  0  0
   -1.7590    4.2200   24.6250 C   0  0  0  0  0  0  0  0  0  0  0  0
   -1.9880    5.3240   25.7890 O   0  0  0  0  0  0  0  0  0  0  0  0
  1  2  2  0
  2  3  1  0
  2  4  1  0
  4  5  1  0
  5  6  1  0
  6  7  2  0
  8  6  1  6
  7  9  1  0
  8 10  1  0
  8 11  1  0
  9 12  2  0
 10 12  1  6
 10 13  1  0
 11 14  2  0
 13 14  1  0
 11 15  1  0
 15 16  1  0
 16 17  2  0
 16 18  1  0
 18 19  1  0
 19 20  2  0
 19 21  1  0
 20 22  1  0
 21 23  2  0
 22 24  2  0
 23 24  1  0
 23 25  1  0
M  END
