JAN-GHE-d851b096-9-chloroacetamide
     RDKit          3D

 28 30  0  0  0  0  0  0  0  0999 V2000
    7.3340   -4.9280   20.9720 C   0  0  0  0  0  0  0  0  0  0  0  0
    7.2450   -3.4930   20.5920 C   0  0  0  0  0  0  0  0  0  0  0  0
    6.6490   -3.2350   19.4430 O   0  0  0  0  0  0  0  0  0  0  0  0
    7.8500   -2.6750   21.7280 N   0  0  0  0  0  0  0  0  0  0  0  0
    7.8680   -3.3940   23.0110 C   0  0  0  0  0  0  0  0  0  0  0  0
    8.9650   -1.5870   21.6340 C   0  0  1  0  0  0  0  0  0  0  0  0
    6.5120   -3.9570   23.4550 C   0  0  0  0  0  0  0  0  0  0  0  0
    9.0430   -3.5520   23.7470 C   0  0  0  0  0  0  0  0  0  0  0  0
    8.3950   -0.3520   21.4650 C   0  0  0  0  0  0  0  0  0  0  0  0
   10.2780   -1.4340   22.5020 C   0  0  0  0  0  0  0  0  0  0  0  0
    6.4830   -4.7300   24.7840 C   0  0  0  0  0  0  0  0  0  0  0  0
    9.0800   -4.3150   25.0900 C   0  0  0  0  0  0  0  0  0  0  0  0
    9.0570    0.8470   21.5010 O   0  0  0  0  0  0  0  0  0  0  0  0
    6.9720   -0.4730   21.2180 N   0  0  0  0  0  0  0  0  0  0  0  0
   10.3800   -0.8730   23.9380 C   0  0  0  0  0  0  0  0  0  0  0  0
   11.4890   -1.8220   21.9200 C   0  0  0  0  0  0  0  0  0  0  0  0
    7.7280   -4.8930   25.5620 C   0  0  0  0  0  0  0  0  0  0  0  0
   10.5220   -4.5050   25.9950 Cl  0  0  0  0  0  0  0  0  0  0  0  0
    6.2270    0.2870   20.2690 C   0  0  0  0  0  0  0  0  0  0  0  0
   11.7140   -0.7810   24.6000 C   0  0  0  0  0  0  0  0  0  0  0  0
   12.8300   -1.7540   22.5240 N   0  0  0  0  0  0  0  0  0  0  0  0
    6.7780    0.3540   18.9780 C   0  0  0  0  0  0  0  0  0  0  0  0
    5.0420    0.9150   20.6150 C   0  0  0  0  0  0  0  0  0  0  0  0
   12.9040   -1.2240   23.8730 C   0  0  0  0  0  0  0  0  0  0  0  0
    6.1360    1.0970   17.9310 C   0  0  0  0  0  0  0  0  0  0  0  0
    4.3140    1.7050   19.5600 C   0  0  0  0  0  0  0  0  0  0  0  0
    4.9270    1.7670   18.1910 C   0  0  0  0  0  0  0  0  0  0  0  0
    2.7900    2.5660   19.8180 Cl  0  0  0  0  0  0  0  0  0  0  0  0
  1  2  1  0
  2  3  2  0
  2  4  1  0
  4  5  1  0
  4  6  1  0
  5  7  2  0
  5  8  1  0
  6  9  1  1
  6 10  1  0
  7 11  1  0
  8 12  2  0
  9 13  2  0
  9 14  1  0
 10 15  2  0
 10 16  1  0
 11 17  2  0
 12 17  1  0
 12 18  1  0
 14 19  1  0
 15 20  1  0
 16 21  2  0
 19 22  2  0
 19 23  1  0
 20 24  2  0
 21 24  1  0
 22 25  1  0
 23 26  2  0
 25 27  2  0
 26 27  1  0
 26 28  1  0
M  END
