JAN-LUN-04aedcc0-4-vinylsulfonamide
     RDKit          3D

 38 42  0  0  0  0  0  0  0  0999 V2000
    7.7510   -3.3730   19.7530 C   0  0  0  0  0  0  0  0  0  0  0  0
    7.0250   -2.4610   19.1170 C   0  0  0  0  0  0  0  0  0  0  0  0
    5.4810   -2.5890   19.9120 S   0  0  0  0  0  0  0  0  0  0  0  0
    4.9030   -3.8600   19.5230 O   0  0  0  0  0  0  0  0  0  0  0  0
    4.8180   -1.3190   19.7250 O   0  0  0  0  0  0  0  0  0  0  0  0
    5.9520   -2.6890   21.5390 N   0  0  0  0  0  0  0  0  0  0  0  0
    6.0300   -4.0180   22.1730 C   0  0  0  0  0  0  0  0  0  0  0  0
    6.9120   -1.6710   21.9770 C   0  0  0  0  0  0  0  0  0  0  0  0
    6.4660   -3.8310   23.6400 C   0  0  1  0  0  0  0  0  0  0  0  0
    8.0310   -2.2320   22.8740 C   0  0  2  0  0  0  0  0  0  0  0  0
    6.8180   -5.2780   23.9850 C   0  0  0  0  0  0  0  0  0  0  0  0
    7.4380   -2.8640   23.9680 C   0  0  2  0  0  0  0  0  0  0  0  0
    8.9590   -1.1990   23.0930 C   0  0  0  0  0  0  0  0  0  0  0  0
    7.5930   -5.4330   25.2720 C   0  0  0  0  0  0  0  0  0  0  0  0
    8.3630   -3.2080   24.9610 C   0  0  0  0  0  0  0  0  0  0  0  0
   10.3740   -1.2750   22.4980 C   0  0  0  0  0  0  0  0  0  0  0  0
    8.6780   -0.0390   23.8560 C   0  0  0  0  0  0  0  0  0  0  0  0
    8.1020   -4.2690   25.8260 C   0  0  0  0  0  0  0  0  0  0  0  0
   11.4190   -0.1770   22.7040 C   0  0  0  0  0  0  0  0  0  0  0  0
    9.6450    0.9700   24.0390 C   0  0  0  0  0  0  0  0  0  0  0  0
    7.3720    0.2350   24.5290 N   0  0  0  0  0  0  0  0  0  0  0  0
   10.9740    1.0340   23.5490 C   0  0  0  0  0  0  0  0  0  0  0  0
    6.6340    1.4360   24.0440 C   0  0  0  0  0  0  0  0  0  0  0  0
   11.8250    1.9020   23.6890 O   0  0  0  0  0  0  0  0  0  0  0  0
    6.4890    1.6650   22.8430 O   0  0  0  0  0  0  0  0  0  0  0  0
    6.1560    2.2830   25.0470 N   0  0  0  0  0  0  0  0  0  0  0  0
    7.3200    2.8360   25.6510 C   0  0  0  0  0  0  0  0  0  0  0  0
    6.8330    3.4110   24.5530 C   0  0  0  0  0  0  0  0  0  0  0  0
    6.8280    1.7560   26.4250 N   0  0  0  0  0  0  0  0  0  0  0  0
    5.6550    2.6040   24.4490 C   0  0  0  0  0  0  0  0  0  0  0  0
    5.6720    1.5560   25.6460 C   0  0  0  0  0  0  0  0  0  0  0  0
    4.5970    2.6130   23.5470 C   0  0  0  0  0  0  0  0  0  0  0  0
    4.5760    0.5840   25.8090 N   0  0  0  0  0  0  0  0  0  0  0  0
    3.5210    1.7040   23.6670 C   0  0  0  0  0  0  0  0  0  0  0  0
    3.5450    0.7630   24.7400 C   0  0  0  0  0  0  0  0  0  0  0  0
    2.3560    1.7210   22.6860 C   0  0  0  0  0  0  0  0  0  0  0  0
    1.1210    1.5840   23.2080 O   0  0  0  0  0  0  0  0  0  0  0  0
    2.6240    1.8670   21.3810 O   0  0  0  0  0  0  0  0  0  0  0  0
  1  2  1  0
  3  2  1  0
  3  4  2  0
  3  5  2  0
  3  6  1  0
  6  7  1  0
  6  8  1  0
  9  7  1  6
  8 10  1  0
  9 11  1  0
  9 12  1  0
 10 12  1  0
 10 13  1  1
 11 14  1  0
 12 15  1  6
 13 16  2  0
 13 17  1  0
 14 18  1  0
 15 18  1  0
 16 19  1  0
 17 20  2  0
 17 21  1  0
 19 22  2  0
 20 22  1  0
 21 23  1  0
 22 24  1  0
 23 25  2  0
 23 26  1  0
 26 27  1  0
 27 28  2  0
 27 29  1  0
 28 30  1  0
 29 31  1  0
 30 31  2  0
 30 32  1  0
 31 33  1  0
 32 34  2  0
 33 35  2  0
 34 35  1  0
 34 36  1  0
 36 37  2  0
 36 38  1  0
M  END
