JAN-GHE-bf40f168-1-bromoalkyne
     RDKit          3D

 31 33  0  0  0  0  0  0  0  0999 V2000
    7.0020   -4.1070   20.2600 C   0  0  0  0  0  0  0  0  0  0  0  0
    5.7310   -3.6470   19.5800 C   0  0  0  0  0  0  0  0  0  0  0  0
    6.9330   -4.9170   21.4100 N   0  0  0  0  0  0  0  0  0  0  0  0
    5.8260   -5.8820   21.7280 C   0  0  0  0  0  0  0  0  0  0  0  0
    7.6890   -4.6360   22.6130 C   0  0  0  0  0  0  0  0  0  0  0  0
    5.0580   -5.2070   22.9420 C   0  0  0  0  0  0  0  0  0  0  0  0
    6.8090   -4.0590   23.5390 C   0  0  0  0  0  0  0  0  0  0  0  0
    5.9200   -5.0820   24.1640 N   0  0  0  0  0  0  0  0  0  0  0  0
    5.2910   -5.0700   25.7520 S   0  0  0  0  0  0  0  0  0  0  0  0
    6.4030   -4.7560   26.6130 O   0  0  0  0  0  0  0  0  0  0  0  0
    4.5570   -6.3080   25.8930 O   0  0  0  0  0  0  0  0  0  0  0  0
    4.1590   -3.7210   25.8570 C   0  0  0  0  0  0  0  0  0  0  0  0
    2.9830   -3.7580   25.2030 C   0  0  0  0  0  0  0  0  0  0  0  0
    4.3790   -2.5950   26.5840 C   0  0  0  0  0  0  0  0  0  0  0  0
    2.7310   -4.8000   24.4800 F   0  0  0  0  0  0  0  0  0  0  0  0
    2.0270   -2.7490   25.2620 C   0  0  0  0  0  0  0  0  0  0  0  0
    3.4490   -1.5530   26.6740 C   0  0  0  0  0  0  0  0  0  0  0  0
    5.4550   -2.5660   27.1430 O   0  0  0  0  0  0  0  0  0  0  0  0
    2.2520   -1.6300   26.0070 C   0  0  0  0  0  0  0  0  0  0  0  0
    6.6290   -2.0510   26.4070 C   0  0  0  0  0  0  0  0  0  0  0  0
    7.5600   -1.0920   27.1830 C   0  0  0  0  0  0  0  0  0  0  0  0
    8.5870   -0.6550   26.1110 C   0  0  0  0  0  0  0  0  0  0  0  0
    9.3340    0.0910   25.5710 N   0  0  0  0  0  0  0  0  0  0  0  0
   10.2460   -0.3020   24.6240 C   0  0  0  0  0  0  0  0  0  0  0  0
   10.2310   -1.4750   23.8610 C   0  0  0  0  0  0  0  0  0  0  0  0
   11.3100    0.5910   24.4080 N   0  0  0  0  0  0  0  0  0  0  0  0
   11.2530   -1.7480   22.9240 C   0  0  0  0  0  0  0  0  0  0  0  0
   12.3450    0.2820   23.4450 C   0  0  0  0  0  0  0  0  0  0  0  0
   12.3260   -0.8630   22.7190 C   0  0  0  0  0  0  0  0  0  0  0  0
   13.4380   -1.1120   21.7540 C   0  0  0  0  0  0  0  0  0  0  0  0
   13.1160   -2.1150   20.8160 N   0  0  0  0  0  0  0  0  0  0  0  0
  1  2  2  3
  1  3  1  0
  3  4  1  0
  3  5  1  0
  4  6  1  0
  5  7  1  0
  6  8  1  0
  7  8  1  0
  8  9  1  0
  9 10  2  0
  9 11  2  0
  9 12  1  0
 12 13  2  0
 12 14  1  0
 13 15  1  0
 13 16  1  0
 14 17  2  0
 14 18  1  0
 16 19  2  0
 17 19  1  0
 18 20  1  0
 20 21  1  0
 21 22  1  0
 22 23  1  0
 23 24  1  0
 24 25  2  0
 24 26  1  0
 25 27  1  0
 26 28  2  0
 27 29  2  0
 28 29  1  0
 29 30  1  0
 30 31  3  0
M  END
