JAN-GHE-fd8d85a5-4-chloroacetamide
     RDKit          3D

 23 25  0  0  0  0  0  0  0  0999 V2000
    8.2770   -4.2060   20.2840 C   0  0  0  0  0  0  0  0  0  0  0  0
    7.4430   -3.2730   20.3770 C   0  0  0  0  0  0  0  0  0  0  0  0
    6.4910   -3.2250   19.4590 O   0  0  0  0  0  0  0  0  0  0  0  0
    7.8090   -2.5150   21.6510 C   0  0  0  0  0  0  0  0  0  0  0  0
    8.9810   -1.7140   21.7760 C   0  0  0  0  0  0  0  0  0  0  0  0
    7.0480   -2.6060   22.7950 C   0  0  0  0  0  0  0  0  0  0  0  0
    9.3720   -1.0750   22.9190 N   0  0  0  0  0  0  0  0  0  0  0  0
    7.4110   -1.9680   23.9980 C   0  0  0  0  0  0  0  0  0  0  0  0
    8.6100   -1.1980   24.0300 C   0  0  0  0  0  0  0  0  0  0  0  0
    6.4600   -2.1950   25.1580 C   0  0  0  0  0  0  0  0  0  0  0  0
    9.0340   -0.5530   25.2140 N   0  0  0  0  0  0  0  0  0  0  0  0
    5.6990   -1.1460   25.6570 N   0  0  0  0  0  0  0  0  0  0  0  0
    8.5530   -1.1440   26.4630 C   0  0  0  0  0  0  0  0  0  0  0  0
    6.4380    0.1510   25.3860 C   0  0  0  0  0  0  0  0  0  0  0  0
    4.6940   -0.7350   24.7900 C   0  0  0  0  0  0  0  0  0  0  0  0
    9.0410   -0.4110   27.6640 C   0  0  0  0  0  0  0  0  0  0  0  0
    5.4520    0.3180   24.4230 C   0  0  0  0  0  0  0  0  0  0  0  0
    4.6470    1.5830   24.4820 C   0  0  0  0  0  0  0  0  0  0  0  0
    5.7390    0.6480   22.9980 C   0  0  0  0  0  0  0  0  0  0  0  0
    5.7330    1.9880   23.5700 N   0  0  0  0  0  0  0  0  0  0  0  0
    6.8640    2.7260   23.8050 C   0  0  0  0  0  0  0  0  0  0  0  0
    8.0880    1.9390   24.3520 C   0  0  0  0  0  0  0  0  0  0  0  0
    6.9250    3.9310   23.5960 O   0  0  0  0  0  0  0  0  0  0  0  0
  1  2  1  0
  2  3  2  0
  2  4  1  0
  4  5  2  0
  4  6  1  0
  5  7  1  0
  6  8  2  0
  7  9  2  0
  8  9  1  0
  8 10  1  0
  9 11  1  0
 10 12  1  0
 11 13  1  0
 12 14  1  0
 12 15  1  0
 13 16  1  0
 17 14  1  0
 15 17  1  0
 17 18  1  0
 17 19  1  0
 18 20  1  0
 19 20  1  0
 20 21  1  0
 21 22  1  0
 21 23  2  0
M  END
