JAN-LUN-04aedcc0-7-bromoalkyne
     RDKit          3D

 36 39  0  0  0  0  0  0  0  0999 V2000
    7.0770   -3.4030   19.8420 C   0  0  0  0  0  0  0  0  0  0  0  0
    5.8960   -3.2300   19.2280 C   0  0  0  0  0  0  0  0  0  0  0  0
    7.3280   -3.2590   21.2350 N   0  0  0  0  0  0  0  0  0  0  0  0
    6.5030   -3.7930   22.3220 C   0  0  0  0  0  0  0  0  0  0  0  0
    8.2710   -2.2230   21.7330 C   0  0  0  0  0  0  0  0  0  0  0  0
    7.4770   -4.0390   23.4870 C   0  0  0  0  0  0  0  0  0  0  0  0
    9.3600   -2.7450   22.7300 C   0  0  2  0  0  0  0  0  0  0  0  0
    6.8300   -4.9370   24.5170 C   0  0  0  0  0  0  0  0  0  0  0  0
    8.7750   -3.5600   23.6630 C   0  0  0  0  0  0  0  0  0  0  0  0
   10.2410   -1.7470   23.1980 C   0  0  0  0  0  0  0  0  0  0  0  0
    7.6830   -5.2680   25.7220 C   0  0  0  0  0  0  0  0  0  0  0  0
    9.5110   -3.9100   24.8060 C   0  0  0  0  0  0  0  0  0  0  0  0
   11.0530   -1.7560   24.4910 C   0  0  0  0  0  0  0  0  0  0  0  0
   10.4320   -0.6400   22.4620 C   0  0  0  0  0  0  0  0  0  0  0  0
    8.9800   -4.7330   25.7980 C   0  0  0  0  0  0  0  0  0  0  0  0
   11.9940   -0.5980   24.8660 C   0  0  0  0  0  0  0  0  0  0  0  0
   11.2620    0.4130   22.7660 C   0  0  0  0  0  0  0  0  0  0  0  0
    9.7440   -0.4650   21.2570 N   0  0  0  0  0  0  0  0  0  0  0  0
    9.7190   -5.0830   26.9560 O   0  0  0  0  0  0  0  0  0  0  0  0
   12.0400    0.5390   23.8530 C   0  0  0  0  0  0  0  0  0  0  0  0
    8.6200    0.4510   21.3270 C   0  0  0  0  0  0  0  0  0  0  0  0
   12.6940    1.5460   23.9170 O   0  0  0  0  0  0  0  0  0  0  0  0
    8.8760    1.6580   21.2740 O   0  0  0  0  0  0  0  0  0  0  0  0
    7.4000   -0.0880   21.3930 N   0  0  0  0  0  0  0  0  0  0  0  0
    6.6130    0.3250   20.2780 C   0  0  0  0  0  0  0  0  0  0  0  0
    6.9740   -0.0760   19.0070 C   0  0  0  0  0  0  0  0  0  0  0  0
    5.5090    1.1260   20.4280 C   0  0  0  0  0  0  0  0  0  0  0  0
    6.3210    0.2800   17.8880 N   0  0  0  0  0  0  0  0  0  0  0  0
    4.7600    1.5570   19.3240 C   0  0  0  0  0  0  0  0  0  0  0  0
    5.1390    1.1570   18.0420 C   0  0  0  0  0  0  0  0  0  0  0  0
    3.6430    2.3950   19.4930 C   0  0  0  0  0  0  0  0  0  0  0  0
    2.5230    1.9090   20.3870 C   0  0  0  0  0  0  0  0  0  0  0  0
    2.6510    2.7570   21.6360 C   0  0  0  0  0  0  0  0  0  0  0  0
    1.2720    3.3680   21.8070 C   0  0  0  0  0  0  0  0  0  0  0  0
    0.6450    3.3880   22.8550 O   0  0  0  0  0  0  0  0  0  0  0  0
    0.7780    3.9080   20.6640 O   0  0  0  0  0  0  0  0  0  0  0  0
  1  2  2  3
  1  3  1  0
  3  4  1  0
  3  5  1  0
  4  6  1  0
  5  7  1  0
  6  8  1  0
  6  9  2  0
  7  9  1  0
  7 10  1  1
  8 11  2  0
  9 12  1  0
 10 13  2  0
 10 14  1  0
 11 15  1  0
 12 15  2  0
 13 16  1  0
 14 17  2  0
 14 18  1  0
 15 19  1  0
 16 20  2  0
 17 20  1  0
 18 21  1  0
 20 22  1  0
 21 23  2  0
 21 24  1  0
 24 25  1  0
 25 26  2  0
 25 27  1  0
 26 28  1  0
 27 29  2  0
 28 30  2  0
 29 30  1  0
 29 31  1  0
 31 32  1  0
 32 33  1  0
 33 34  1  0
 34 35  2  0
 34 36  1  0
M  END
