JAN-UNI-2e92c4b1-2-vinylsulfonamide
     RDKit          3D

 23 24  0  0  0  0  0  0  0  0999 V2000
    7.7390   -4.2080   19.8890 C   0  0  0  0  0  0  0  0  0  0  0  0
    7.3110   -3.9060   21.1120 C   0  0  0  0  0  0  0  0  0  0  0  0
    5.8200   -3.0690   20.7630 S   0  0  0  0  0  0  0  0  0  0  0  0
    4.7930   -3.3730   21.7510 O   0  0  0  0  0  0  0  0  0  0  0  0
    5.4560   -3.4080   19.3920 O   0  0  0  0  0  0  0  0  0  0  0  0
    6.4220   -1.4550   20.7590 N   0  0  0  0  0  0  0  0  0  0  0  0
    7.4830   -0.7720   21.5430 C   0  0  0  0  0  0  0  0  0  0  0  0
    7.6590    0.4840   21.2210 N   0  0  0  0  0  0  0  0  0  0  0  0
    8.2720   -1.3250   22.5430 N   0  0  0  0  0  0  0  0  0  0  0  0
    6.8150    0.8060   20.2140 C   0  0  0  0  0  0  0  0  0  0  0  0
    9.5850   -0.8830   22.8750 C   0  0  0  0  0  0  0  0  0  0  0  0
    5.6150    1.7210   20.3390 C   0  0  0  0  0  0  0  0  0  0  0  0
    7.0120    0.2720   18.9220 C   0  0  0  0  0  0  0  0  0  0  0  0
    9.8400    0.0250   23.9330 C   0  0  0  0  0  0  0  0  0  0  0  0
   10.6800   -1.3290   22.1530 C   0  0  0  0  0  0  0  0  0  0  0  0
    4.7930    1.9750   19.1200 C   0  0  0  0  0  0  0  0  0  0  0  0
    6.2820    0.5030   17.8390 N   0  0  0  0  0  0  0  0  0  0  0  0
   11.1150    0.4810   24.2680 N   0  0  0  0  0  0  0  0  0  0  0  0
   12.0830   -0.8380   22.5050 C   0  0  0  0  0  0  0  0  0  0  0  0
    5.1300    1.3880   17.9210 C   0  0  0  0  0  0  0  0  0  0  0  0
   12.2900    0.0420   23.5360 C   0  0  0  0  0  0  0  0  0  0  0  0
   13.0880   -1.4480   21.5650 C   0  0  0  0  0  0  0  0  0  0  0  0
   13.7240   -1.8670   20.7490 N   0  0  0  0  0  0  0  0  0  0  0  0
  1  2  1  0
  2  3  1  0
  3  4  2  0
  3  5  2  0
  3  6  1  0
  6  7  2  3
  7  8  1  0
  7  9  1  0
  8 10  1  0
  9 11  1  0
 10 12  2  0
 10 13  1  0
 11 14  2  0
 11 15  1  0
 12 16  1  0
 13 17  2  0
 14 18  1  0
 15 19  2  0
 16 20  2  0
 17 20  1  0
 18 21  2  0
 19 21  1  0
 19 22  1  0
 22 23  3  0
M  END
