JAN-GHE-6413aaf8-7-bromoalkyne
     RDKit          3D

 25 27  0  0  0  0  0  0  0  0999 V2000
    6.7980   -3.4280   19.6410 C   0  0  0  0  0  0  0  0  0  0  0  0
    5.8650   -2.8310   18.6860 C   0  0  0  0  0  0  0  0  0  0  0  0
    6.7630   -2.8690   20.8830 N   0  0  0  0  0  0  0  0  0  0  0  0
    7.1970   -1.4920   21.0640 C   0  0  0  0  0  0  0  0  0  0  0  0
    6.5130   -3.5930   22.1250 C   0  0  0  0  0  0  0  0  0  0  0  0
    8.4590   -1.5210   21.8500 C   0  0  0  0  0  0  0  0  0  0  0  0
    7.5750   -3.4870   23.0550 C   0  0  0  0  0  0  0  0  0  0  0  0
    8.2050   -2.1590   23.1520 N   0  0  0  0  0  0  0  0  0  0  0  0
    9.3910   -2.2260   23.8500 C   0  0  0  0  0  0  0  0  0  0  0  0
   10.4670   -1.3810   23.5860 C   0  0  0  0  0  0  0  0  0  0  0  0
   11.7680   -1.8930   23.5080 C   0  0  0  0  0  0  0  0  0  0  0  0
   10.3770    0.0450   23.3750 C   0  0  0  0  0  0  0  0  0  0  0  0
   12.9080   -0.9710   23.2280 C   0  0  0  0  0  0  0  0  0  0  0  0
   11.4980    0.8760   23.1120 C   0  0  0  0  0  0  0  0  0  0  0  0
    9.2850    0.9440   23.3630 N   0  0  0  0  0  0  0  0  0  0  0  0
   12.7900    0.4130   23.0310 C   0  0  0  0  0  0  0  0  0  0  0  0
   11.0280    2.3040   22.9440 C   0  0  0  0  0  0  0  0  0  0  0  0
    9.6650    2.3410   23.0980 C   0  0  0  0  0  0  0  0  0  0  0  0
   11.9050    3.3600   22.6680 C   0  0  0  0  0  0  0  0  0  0  0  0
   11.5810    4.5790   23.4900 C   0  0  0  0  0  0  0  0  0  0  0  0
   10.5910    5.4700   22.9020 N   0  0  0  0  0  0  0  0  0  0  0  0
    9.4200    6.3210   23.7990 S   0  0  0  0  0  0  0  0  0  0  0  0
    9.5090    5.4930   25.3820 C   0  0  0  0  0  0  0  0  0  0  0  0
    9.9140    7.6660   24.0020 O   0  0  0  0  0  0  0  0  0  0  0  0
    8.1120    6.0840   23.2370 O   0  0  0  0  0  0  0  0  0  0  0  0
  1  2  2  3
  1  3  1  0
  3  4  1  0
  3  5  1  0
  4  6  1  0
  5  7  1  0
  6  8  1  0
  7  8  1  0
  8  9  1  0
  9 10  1  0
 10 11  2  0
 10 12  1  0
 11 13  1  0
 12 14  2  0
 12 15  1  0
 13 16  2  0
 14 16  1  0
 14 17  1  0
 15 18  1  0
 17 18  2  0
 17 19  1  0
 19 20  1  0
 20 21  1  0
 22 21  1  0
 22 23  1  0
 22 24  2  0
 22 25  2  0
M  END
