JAN-UNI-2e92c4b1-1-chloroacetamide
     RDKit          3D

 23 25  0  0  0  0  0  0  0  0999 V2000
    8.7650   -4.7600   20.6620 C   0  0  0  0  0  0  0  0  0  0  0  0
    8.2520   -3.6000   20.4690 C   0  0  0  0  0  0  0  0  0  0  0  0
    7.1970   -3.5250   19.5630 O   0  0  0  0  0  0  0  0  0  0  0  0
    9.1750   -2.6590   21.4200 C   0  0  0  0  0  0  0  0  0  0  0  0
   10.1180   -3.2520   22.5640 C   0  0  0  0  0  0  0  0  0  0  0  0
    9.3260   -1.2710   21.3940 C   0  0  0  0  0  0  0  0  0  0  0  0
   11.0290   -2.5810   23.4790 N   0  0  0  0  0  0  0  0  0  0  0  0
   10.2250   -0.5810   22.2910 C   0  0  0  0  0  0  0  0  0  0  0  0
   11.0840   -1.1820   23.3350 C   0  0  0  0  0  0  0  0  0  0  0  0
   10.1750    0.6920   22.0320 N   0  0  0  0  0  0  0  0  0  0  0  0
    8.9100    1.1410   22.4670 C   0  0  0  0  0  0  0  0  0  0  0  0
    7.7330    0.6520   21.9660 C   0  0  0  0  0  0  0  0  0  0  0  0
    8.2800    2.0960   23.3790 C   0  0  0  0  0  0  0  0  0  0  0  0
    7.2580   -0.2020   21.0990 N   0  0  0  0  0  0  0  0  0  0  0  0
    7.0700    1.6070   22.8650 C   0  0  0  0  0  0  0  0  0  0  0  0
    8.5500    2.9330   24.2040 O   0  0  0  0  0  0  0  0  0  0  0  0
    6.4430    0.3210   20.0140 C   0  0  0  0  0  0  0  0  0  0  0  0
    5.9900    2.0450   23.2530 O   0  0  0  0  0  0  0  0  0  0  0  0
    5.2490    0.9560   20.2850 C   0  0  0  0  0  0  0  0  0  0  0  0
    6.9130    0.1800   18.7480 C   0  0  0  0  0  0  0  0  0  0  0  0
    4.5780    1.4570   19.1850 C   0  0  0  0  0  0  0  0  0  0  0  0
    6.3120    0.6450   17.6410 N   0  0  0  0  0  0  0  0  0  0  0  0
    5.1470    1.3020   17.7690 C   0  0  0  0  0  0  0  0  0  0  0  0
  1  2  1  0
  2  3  2  0
  2  4  1  0
  4  5  2  0
  4  6  1  0
  5  7  1  0
  6  8  2  0
  7  9  2  0
  8  9  1  0
  8 10  1  0
 10 11  1  0
 11 12  2  0
 11 13  1  0
 12 14  1  0
 12 15  1  0
 13 15  1  0
 13 16  2  0
 14 17  1  0
 15 18  2  0
 17 19  2  0
 17 20  1  0
 19 21  1  0
 20 22  2  0
 21 23  2  0
 22 23  1  0
M  END
