JAN-GHE-bf40f168-3-acrylamide
     RDKit          3D

 35 38  0  0  0  0  0  0  0  0999 V2000
    7.7740   -6.0530   19.5330 C   0  0  0  0  0  0  0  0  0  0  0  0
    6.2920   -5.8720   19.8690 C   0  0  0  0  0  0  0  0  0  0  0  0
    5.8320   -4.4730   20.0440 C   0  0  0  0  0  0  0  0  0  0  0  0
    4.8900   -3.9600   19.4600 O   0  0  0  0  0  0  0  0  0  0  0  0
    6.5150   -3.7870   20.9490 N   0  0  0  0  0  0  0  0  0  0  0  0
    5.7440   -2.8590   21.7340 C   0  0  0  0  0  0  0  0  0  0  0  0
    7.3420   -4.3270   22.0270 C   0  0  0  0  0  0  0  0  0  0  0  0
    5.6220   -3.5790   23.0440 C   0  0  2  0  0  0  0  0  0  0  0  0
    6.4080   -4.7950   22.8570 C   0  0  2  0  0  0  0  0  0  0  0  0
    4.6220   -4.4190   23.5260 C   0  0  0  0  0  0  0  0  0  0  0  0
    6.6470   -5.4900   23.9560 C   0  0  0  0  0  0  0  0  0  0  0  0
    5.2130   -5.3840   24.4170 N   0  0  0  0  0  0  0  0  0  0  0  0
    4.9350   -5.0730   26.0690 S   0  0  0  0  0  0  0  0  0  0  0  0
    6.1220   -4.5490   26.6570 O   0  0  0  0  0  0  0  0  0  0  0  0
    4.2610   -6.2320   26.5940 O   0  0  0  0  0  0  0  0  0  0  0  0
    3.8740   -3.7450   26.0390 C   0  0  0  0  0  0  0  0  0  0  0  0
    2.5030   -3.9870   25.8820 C   0  0  0  0  0  0  0  0  0  0  0  0
    4.3120   -2.3900   26.1660 C   0  0  0  0  0  0  0  0  0  0  0  0
    1.9720   -5.2390   25.7530 F   0  0  0  0  0  0  0  0  0  0  0  0
    1.5270   -2.9890   25.8440 C   0  0  0  0  0  0  0  0  0  0  0  0
    3.2360   -1.3040   26.1220 C   0  0  0  0  0  0  0  0  0  0  0  0
    5.6570   -2.0690   26.3240 O   0  0  0  0  0  0  0  0  0  0  0  0
    1.8870   -1.6080   25.9670 C   0  0  0  0  0  0  0  0  0  0  0  0
    6.0580   -0.7170   26.6810 C   0  0  0  0  0  0  0  0  0  0  0  0
    7.5640   -0.4120   26.7160 C   0  0  0  0  0  0  0  0  0  0  0  0
    8.3550   -0.4410   25.5670 C   0  0  0  0  0  0  0  0  0  0  0  0
    9.5330    0.2010   25.8070 N   0  0  0  0  0  0  0  0  0  0  0  0
   10.3780   -0.1090   24.8460 C   0  0  0  0  0  0  0  0  0  0  0  0
   10.2380   -1.3660   24.2630 C   0  0  0  0  0  0  0  0  0  0  0  0
   11.3640    0.7280   24.4020 N   0  0  0  0  0  0  0  0  0  0  0  0
   11.1350   -1.8310   23.1720 C   0  0  0  0  0  0  0  0  0  0  0  0
   12.2840    0.3150   23.3340 C   0  0  0  0  0  0  0  0  0  0  0  0
   12.1940   -0.9220   22.7190 C   0  0  0  0  0  0  0  0  0  0  0  0
   13.0790   -1.3630   21.6490 C   0  0  0  0  0  0  0  0  0  0  0  0
   13.8160   -1.7090   20.5990 N   0  0  0  0  0  0  0  0  0  0  0  0
  1  2  1  0
  2  3  1  0
  3  4  2  0
  3  5  1  0
  5  6  1  0
  5  7  1  0
  8  6  1  6
  9  7  1  1
  8  9  1  0
  8 10  1  0
  9 11  1  0
 10 12  1  0
 11 12  1  0
 12 13  1  0
 13 14  2  0
 13 15  2  0
 13 16  1  0
 16 17  2  0
 16 18  1  0
 17 19  1  0
 17 20  1  0
 18 21  2  0
 18 22  1  0
 20 23  2  0
 21 23  1  0
 22 24  1  0
 24 25  1  0
 25 26  1  0
 26 27  1  0
 27 28  1  0
 28 29  2  0
 28 30  1  0
 29 31  1  0
 30 32  2  0
 31 33  2  0
 32 33  1  0
 33 34  1  0
 34 35  3  0
M  END
