JAN-GHE-bf40f168-6-acrylamide
     RDKit          3D

 33 36  0  0  0  0  0  0  0  0999 V2000
    7.3620   -2.9430   18.6980 C   0  0  0  0  0  0  0  0  0  0  0  0
    6.8660   -2.8400   20.1070 C   0  0  0  0  0  0  0  0  0  0  0  0
    6.1650   -4.1050   20.5090 C   0  0  0  0  0  0  0  0  0  0  0  0
    5.1800   -4.5610   19.9140 O   0  0  0  0  0  0  0  0  0  0  0  0
    6.6760   -4.7120   21.6030 N   0  0  0  0  0  0  0  0  0  0  0  0
    6.0790   -4.2870   22.8490 C   0  0  0  0  0  0  0  0  0  0  0  0
    6.8910   -4.7280   23.9740 C   0  0  0  0  0  0  0  0  0  0  0  0
    5.0510   -5.2900   23.4410 C   0  0  0  0  0  0  0  0  0  0  0  0
    5.7970   -5.4980   24.5880 N   0  0  0  0  0  0  0  0  0  0  0  0
    5.1610   -5.1700   26.1340 S   0  0  0  0  0  0  0  0  0  0  0  0
    6.2480   -4.7340   26.9600 O   0  0  0  0  0  0  0  0  0  0  0  0
    4.3810   -6.3330   26.4770 O   0  0  0  0  0  0  0  0  0  0  0  0
    4.0830   -3.7900   25.9830 C   0  0  0  0  0  0  0  0  0  0  0  0
    2.7650   -3.9650   25.8880 C   0  0  0  0  0  0  0  0  0  0  0  0
    4.4120   -2.4640   25.9590 C   0  0  0  0  0  0  0  0  0  0  0  0
    1.8250   -2.9590   25.7830 C   0  0  0  0  0  0  0  0  0  0  0  0
    3.5050   -1.3910   25.8520 C   0  0  0  0  0  0  0  0  0  0  0  0
    5.7340   -1.7780   26.0420 C   0  0  0  0  0  0  0  0  0  0  0  0
    2.1640   -1.6470   25.7640 C   0  0  0  0  0  0  0  0  0  0  0  0
    6.2800   -1.5870   24.6340 C   0  0  0  0  0  0  0  0  0  0  0  0
    6.4220   -1.3320   27.1930 C   0  0  0  0  0  0  0  0  0  0  0  0
    7.6280   -0.8630   24.7140 C   0  0  0  0  0  0  0  0  0  0  0  0
    7.6570   -0.6780   27.1040 C   0  0  0  0  0  0  0  0  0  0  0  0
    8.2760   -0.4360   25.8640 C   0  0  0  0  0  0  0  0  0  0  0  0
    9.4830    0.2120   25.7350 N   0  0  0  0  0  0  0  0  0  0  0  0
   10.2870   -0.2000   24.7800 C   0  0  0  0  0  0  0  0  0  0  0  0
   10.0900   -1.4740   24.2070 C   0  0  0  0  0  0  0  0  0  0  0  0
   11.2950    0.6090   24.3660 N   0  0  0  0  0  0  0  0  0  0  0  0
   10.9950   -1.9870   23.1120 C   0  0  0  0  0  0  0  0  0  0  0  0
   12.2030    0.1800   23.3270 C   0  0  0  0  0  0  0  0  0  0  0  0
   12.0820   -1.0490   22.7130 C   0  0  0  0  0  0  0  0  0  0  0  0
   13.0030   -1.4450   21.6560 C   0  0  0  0  0  0  0  0  0  0  0  0
   13.7840   -1.7170   20.6150 N   0  0  0  0  0  0  0  0  0  0  0  0
  1  2  1  0
  2  3  1  0
  3  4  2  0
  3  5  1  0
  5  6  1  0
  6  7  1  0
  6  8  1  0
  7  9  1  0
  8  9  1  0
  9 10  1  0
 10 11  2  0
 10 12  2  0
 10 13  1  0
 13 14  2  0
 13 15  1  0
 14 16  1  0
 15 17  2  0
 15 18  1  0
 16 19  2  0
 17 19  1  0
 18 20  2  0
 18 21  1  0
 20 22  1  0
 21 23  2  0
 22 24  2  0
 23 24  1  0
 24 25  1  0
 25 26  1  0
 26 27  2  0
 26 28  1  0
 27 29  1  0
 28 30  2  0
 29 31  2  0
 30 31  1  0
 31 32  1  0
 32 33  3  0
M  END
