JAN-GHE-fd8d85a5-11-acrylamide
     RDKit          3D

 22 23  0  0  0  0  0  0  0  0999 V2000
    7.9090   -4.0440   20.3660 C   0  0  0  0  0  0  0  0  0  0  0  0
    7.1950   -2.7900   20.6720 C   0  0  0  0  0  0  0  0  0  0  0  0
    6.6420   -2.6550   22.0560 C   0  0  0  0  0  0  0  0  0  0  0  0
    5.1040   -3.2580   21.3720 O   0  0  0  0  0  0  0  0  0  0  0  0
    8.3300   -2.4080   22.1300 C   0  0  0  0  0  0  0  0  0  0  0  0
    8.7280   -1.4890   23.4250 C   0  0  0  0  0  0  0  0  0  0  0  0
    9.8320   -2.1880   22.1960 C   0  0  0  0  0  0  0  0  0  0  0  0
    9.9850   -0.9050   24.1090 N   0  0  0  0  0  0  0  0  0  0  0  0
   10.1490   -1.5200   23.1850 C   0  0  0  0  0  0  0  0  0  0  0  0
   11.3150   -1.1520   23.5560 C   0  0  0  0  0  0  0  0  0  0  0  0
    9.0420   -1.2030   23.8850 C   0  0  0  0  0  0  0  0  0  0  0  0
   12.0140   -1.7890   22.4880 N   0  0  0  0  0  0  0  0  0  0  0  0
    7.8530   -1.4370   23.0480 N   0  0  0  0  0  0  0  0  0  0  0  0
   13.3140   -1.1970   22.4640 C   0  0  0  0  0  0  0  0  0  0  0  0
    7.1840   -2.7680   23.1670 C   0  0  0  0  0  0  0  0  0  0  0  0
   13.4610   -0.3360   23.4390 C   0  0  0  0  0  0  0  0  0  0  0  0
   13.5890    0.4290   22.3920 C   0  0  0  0  0  0  0  0  0  0  0  0
    6.0160   -2.9630   22.1490 C   0  0  0  0  0  0  0  0  0  0  0  0
    6.2800   -2.3230   20.8260 N   0  0  0  0  0  0  0  0  0  0  0  0
    5.9780   -3.0090   19.6340 C   0  0  0  0  0  0  0  0  0  0  0  0
    6.3120   -2.3400   18.4590 C   0  0  0  0  0  0  0  0  0  0  0  0
    5.4520   -4.1230   19.6070 O   0  0  0  0  0  0  0  0  0  0  0  0
  1  2  1  0
  2  3  1  0
  3  4  2  0
  3  5  1  0
  5  6  2  0
  5  7  1  0
  6  8  1  0
  7  9  2  0
  8 10  2  0
  9 10  1  0
  9 11  1  0
 10 12  1  0
 11 13  1  0
 12 14  1  0
 13 15  1  0
 14 16  1  0
 14 17  1  0
 16 17  1  0
 15 18  1  0
 18 19  1  0
 19 20  1  0
 20 21  1  0
 20 22  2  0
M  END
