JAN-LUN-04aedcc0-2-vinylsulfonamide
     RDKit          3D

 38 41  0  0  0  0  0  0  0  0999 V2000
    7.8580   -3.0580   18.4650 C   0  0  0  0  0  0  0  0  0  0  0  0
    7.4500   -2.3550   19.4910 C   0  0  0  0  0  0  0  0  0  0  0  0
    5.9780   -2.9220   20.3520 S   0  0  0  0  0  0  0  0  0  0  0  0
    5.2140   -4.1390   19.9620 O   0  0  0  0  0  0  0  0  0  0  0  0
    5.2280   -1.7330   20.6740 O   0  0  0  0  0  0  0  0  0  0  0  0
    6.9330   -3.2260   21.6890 N   0  0  0  0  0  0  0  0  0  0  0  0
    6.1680   -3.3390   22.9230 C   0  0  0  0  0  0  0  0  0  0  0  0
    8.1000   -2.2970   21.7030 C   0  0  0  0  0  0  0  0  0  0  0  0
    7.1370   -3.3470   24.0940 C   0  0  1  0  0  0  0  0  0  0  0  0
    8.7400   -2.0540   23.0540 C   0  0  1  0  0  0  0  0  0  0  0  0
    6.7700   -4.6740   24.7280 C   0  0  0  0  0  0  0  0  0  0  0  0
    8.4940   -3.1010   23.8850 C   0  0  2  0  0  0  0  0  0  0  0  0
   10.0050   -1.4340   23.0330 C   0  0  0  0  0  0  0  0  0  0  0  0
    7.9390   -5.4130   25.2950 C   0  0  0  0  0  0  0  0  0  0  0  0
    9.3650   -4.1970   23.7850 C   0  0  0  0  0  0  0  0  0  0  0  0
   11.3760   -2.1120   22.9640 C   0  0  0  0  0  0  0  0  0  0  0  0
   10.0550   -0.0510   23.0800 C   0  0  0  0  0  0  0  0  0  0  0  0
    9.1370   -5.3380   24.5680 C   0  0  0  0  0  0  0  0  0  0  0  0
   12.6860   -1.3160   22.9570 C   0  0  0  0  0  0  0  0  0  0  0  0
   11.2410    0.6810   23.0760 C   0  0  0  0  0  0  0  0  0  0  0  0
    8.8560    0.7710   23.1170 N   0  0  0  0  0  0  0  0  0  0  0  0
   12.5540    0.2120   23.0230 C   0  0  0  0  0  0  0  0  0  0  0  0
    8.6210    1.0260   21.6970 C   0  0  0  0  0  0  0  0  0  0  0  0
   13.6120    0.8050   23.0140 O   0  0  0  0  0  0  0  0  0  0  0  0
    8.9870    2.0490   21.1540 O   0  0  0  0  0  0  0  0  0  0  0  0
    7.9890    0.0320   21.0510 N   0  0  0  0  0  0  0  0  0  0  0  0
    6.9190    0.3970   20.1530 C   0  0  0  0  0  0  0  0  0  0  0  0
    7.0740    0.1470   18.7930 C   0  0  0  0  0  0  0  0  0  0  0  0
    5.7360    0.9890   20.5730 C   0  0  0  0  0  0  0  0  0  0  0  0
    6.1820    0.4470   17.8410 N   0  0  0  0  0  0  0  0  0  0  0  0
    4.7380    1.3410   19.6560 C   0  0  0  0  0  0  0  0  0  0  0  0
    4.9470    1.0850   18.3100 C   0  0  0  0  0  0  0  0  0  0  0  0
    3.5430    1.9430   20.0820 C   0  0  0  0  0  0  0  0  0  0  0  0
    3.5940    3.4610   20.0860 C   0  0  0  0  0  0  0  0  0  0  0  0
    2.4850    3.7270   19.0860 C   0  0  0  0  0  0  0  0  0  0  0  0
    1.8940    4.9620   19.7430 C   0  0  0  0  0  0  0  0  0  0  0  0
    1.1540    4.7700   20.8640 O   0  0  0  0  0  0  0  0  0  0  0  0
    2.1380    6.1590   19.1680 O   0  0  0  0  0  0  0  0  0  0  0  0
  1  2  1  0
  3  2  1  0
  3  4  2  0
  3  5  2  0
  3  6  1  0
  6  7  1  0
  6  8  1  0
  9  7  1  6
  8 10  1  0
  9 11  1  0
  9 12  1  0
 10 12  1  0
 10 13  1  6
 11 14  1  0
 12 15  1  6
 13 16  2  0
 13 17  1  0
 14 18  1  0
 15 18  1  0
 16 19  1  0
 17 20  2  0
 17 21  1  0
 19 22  2  0
 20 22  1  0
 21 23  1  0
 22 24  1  0
 23 25  2  0
 23 26  1  0
 26 27  1  0
 27 28  2  0
 27 29  1  0
 28 30  1  0
 29 31  2  0
 30 32  2  0
 31 32  1  0
 31 33  1  0
 33 34  1  0
 34 35  1  0
 35 36  1  0
 36 37  2  0
 36 38  1  0
M  END
