JAN-GHE-83b26c96-11
     RDKit          3D

 18 19  0  0  0  0  0  0  0  0999 V2000
   13.7520   -2.6720   24.1820 C   0  0  0  0  0  0  0  0  0  0  0  0
   12.7160   -1.9340   23.9250 C   0  0  0  0  0  0  0  0  0  0  0  0
   12.2320   -0.9070   24.9380 C   0  0  0  0  0  0  0  0  0  0  0  0
   12.0380   -2.1120   22.7100 C   0  0  0  0  0  0  0  0  0  0  0  0
   10.9830   -0.1160   24.6370 C   0  0  0  0  0  0  0  0  0  0  0  0
   10.7770   -1.3440   22.3230 C   0  0  0  0  0  0  0  0  0  0  0  0
   10.2440   -0.3290   23.3470 C   0  0  0  0  0  0  0  0  0  0  0  0
    9.0310    0.4620   23.1730 C   0  0  0  0  0  0  0  0  0  0  0  0
    8.6430    0.7710   21.7260 C   0  0  0  0  0  0  0  0  0  0  0  0
    9.1480    1.7270   21.1590 O   0  0  0  0  0  0  0  0  0  0  0  0
    7.6960   -0.0890   21.2220 N   0  0  0  0  0  0  0  0  0  0  0  0
    6.8740    0.2400   20.1440 C   0  0  0  0  0  0  0  0  0  0  0  0
    7.1250   -0.2340   18.8590 C   0  0  0  0  0  0  0  0  0  0  0  0
    5.7530    1.0930   20.3660 C   0  0  0  0  0  0  0  0  0  0  0  0
    6.2960    0.1440   17.8460 N   0  0  0  0  0  0  0  0  0  0  0  0
    4.9060    1.4720   19.3190 C   0  0  0  0  0  0  0  0  0  0  0  0
    5.4830    1.5820   21.6810 C   0  0  0  0  0  0  0  0  0  0  0  0
    5.2180    0.9800   18.0880 C   0  0  0  0  0  0  0  0  0  0  0  0
  1  2  1  0
  2  3  2  0
  2  4  1  0
  3  5  1  0
  4  6  2  0
  5  7  2  0
  6  7  1  0
  7  8  1  0
  8  9  1  0
  9 10  2  0
  9 11  1  0
 11 12  1  0
 12 13  2  0
 12 14  1  0
 13 15  1  0
 14 16  2  0
 14 17  1  0
 15 18  2  0
 16 18  1  0
M  END
