JAN-GHE-bf40f168-4-chloroacetamide
     RDKit          3D

 35 39  0  0  0  0  0  0  0  0999 V2000
    7.3650   -3.0740   18.8160 C   0  0  0  0  0  0  0  0  0  0  0  0
    6.2040   -3.6620   19.5510 C   0  0  0  0  0  0  0  0  0  0  0  0
    5.0740   -3.6260   19.0820 O   0  0  0  0  0  0  0  0  0  0  0  0
    6.4140   -4.1580   20.7770 N   0  0  0  0  0  0  0  0  0  0  0  0
    6.7360   -5.5260   21.3560 C   0  0  0  0  0  0  0  0  0  0  0  0
    5.8350   -3.3830   21.8270 C   0  0  0  0  0  0  0  0  0  0  0  0
    6.7860   -4.9930   22.7820 C   0  0  1  0  0  0  0  0  0  0  0  0
    5.4280   -4.4560   22.5800 C   0  0  1  0  0  0  0  0  0  0  0  0
    6.4630   -5.7580   23.9650 C   0  0  0  0  0  0  0  0  0  0  0  0
    4.8640   -4.3960   23.8290 C   0  0  0  0  0  0  0  0  0  0  0  0
    5.7960   -4.7150   24.7770 N   0  0  0  0  0  0  0  0  0  0  0  0
    5.1710   -4.9800   26.3060 S   0  0  0  0  0  0  0  0  0  0  0  0
    6.1840   -4.5980   27.2510 O   0  0  0  0  0  0  0  0  0  0  0  0
    4.5080   -6.2620   26.3140 O   0  0  0  0  0  0  0  0  0  0  0  0
    4.0150   -3.6820   26.1620 C   0  0  0  0  0  0  0  0  0  0  0  0
    2.7030   -3.9250   26.0980 C   0  0  0  0  0  0  0  0  0  0  0  0
    4.3390   -2.3770   26.0970 C   0  0  0  0  0  0  0  0  0  0  0  0
    1.7300   -2.9300   25.9800 C   0  0  0  0  0  0  0  0  0  0  0  0
    3.4230   -1.3370   25.9780 C   0  0  0  0  0  0  0  0  0  0  0  0
    5.6760   -1.7130   26.1390 C   0  0  0  0  0  0  0  0  0  0  0  0
    2.0890   -1.6100   25.9200 C   0  0  0  0  0  0  0  0  0  0  0  0
    6.2550   -1.6060   24.7380 C   0  0  0  0  0  0  0  0  0  0  0  0
    6.3750   -1.2120   27.2600 C   0  0  0  0  0  0  0  0  0  0  0  0
    7.6190   -0.9080   24.7620 C   0  0  0  0  0  0  0  0  0  0  0  0
    7.6240   -0.5910   27.1370 C   0  0  0  0  0  0  0  0  0  0  0  0
    8.2680   -0.4270   25.8950 C   0  0  0  0  0  0  0  0  0  0  0  0
    9.4880    0.1920   25.7640 N   0  0  0  0  0  0  0  0  0  0  0  0
   10.2820   -0.2240   24.8040 C   0  0  0  0  0  0  0  0  0  0  0  0
   10.0880   -1.5050   24.2400 C   0  0  0  0  0  0  0  0  0  0  0  0
   11.2860    0.5930   24.3730 N   0  0  0  0  0  0  0  0  0  0  0  0
   11.0180   -1.9580   23.1500 C   0  0  0  0  0  0  0  0  0  0  0  0
   12.2060    0.1840   23.3250 C   0  0  0  0  0  0  0  0  0  0  0  0
   12.1020   -1.0460   22.7100 C   0  0  0  0  0  0  0  0  0  0  0  0
   13.0130   -1.4440   21.6500 C   0  0  0  0  0  0  0  0  0  0  0  0
   13.7950   -1.7080   20.6080 N   0  0  0  0  0  0  0  0  0  0  0  0
  1  2  1  0
  2  3  2  0
  2  4  1  0
  4  5  1  0
  4  6  1  0
  7  5  1  6
  8  6  1  1
  7  8  1  0
  7  9  1  0
  8 10  1  0
  9 11  1  0
 10 11  1  0
 11 12  1  0
 12 13  2  0
 12 14  2  0
 12 15  1  0
 15 16  2  0
 15 17  1  0
 16 18  1  0
 17 19  2  0
 17 20  1  0
 18 21  2  0
 19 21  1  0
 20 22  2  0
 20 23  1  0
 22 24  1  0
 23 25  2  0
 24 26  2  0
 25 26  1  0
 26 27  1  0
 27 28  1  0
 28 29  2  0
 28 30  1  0
 29 31  1  0
 30 32  2  0
 31 33  2  0
 32 33  1  0
 33 34  1  0
 34 35  3  0
M  END
