JAN-GHE-bf40f168-1-acrylamide
     RDKit          3D

 33 35  0  0  0  0  0  0  0  0999 V2000
    7.3630   -3.0940   19.0890 C   0  0  0  0  0  0  0  0  0  0  0  0
    6.9570   -3.1910   20.5310 C   0  0  0  0  0  0  0  0  0  0  0  0
    6.1500   -4.4450   20.7290 C   0  0  0  0  0  0  0  0  0  0  0  0
    5.1900   -4.7000   19.9960 O   0  0  0  0  0  0  0  0  0  0  0  0
    6.5280   -5.2920   21.7420 N   0  0  0  0  0  0  0  0  0  0  0  0
    5.5410   -6.2130   22.2810 C   0  0  0  0  0  0  0  0  0  0  0  0
    7.4120   -4.8900   22.8270 C   0  0  0  0  0  0  0  0  0  0  0  0
    4.8560   -5.3170   23.2780 C   0  0  0  0  0  0  0  0  0  0  0  0
    6.6650   -4.1580   23.7600 C   0  0  0  0  0  0  0  0  0  0  0  0
    5.8120   -5.1900   24.4330 N   0  0  0  0  0  0  0  0  0  0  0  0
    5.2100   -5.1080   26.0220 S   0  0  0  0  0  0  0  0  0  0  0  0
    4.4330   -6.3150   26.1880 O   0  0  0  0  0  0  0  0  0  0  0  0
    6.3160   -4.7880   26.8840 O   0  0  0  0  0  0  0  0  0  0  0  0
    4.0830   -3.7540   25.9740 C   0  0  0  0  0  0  0  0  0  0  0  0
    2.7160   -4.0080   25.7760 C   0  0  0  0  0  0  0  0  0  0  0  0
    4.5060   -2.4010   26.1340 C   0  0  0  0  0  0  0  0  0  0  0  0
    2.1740   -5.2520   25.6110 F   0  0  0  0  0  0  0  0  0  0  0  0
    1.7720   -2.9880   25.7290 C   0  0  0  0  0  0  0  0  0  0  0  0
    3.5420   -1.3780   26.0850 C   0  0  0  0  0  0  0  0  0  0  0  0
    5.8560   -2.0870   26.3460 O   0  0  0  0  0  0  0  0  0  0  0  0
    2.1890   -1.6680   25.8860 C   0  0  0  0  0  0  0  0  0  0  0  0
    6.3000   -0.7360   26.0030 C   0  0  0  0  0  0  0  0  0  0  0  0
    7.6110   -0.3690   26.7420 C   0  0  0  0  0  0  0  0  0  0  0  0
    8.6510   -0.7950   25.7120 C   0  0  0  0  0  0  0  0  0  0  0  0
    9.5850    0.2410   25.4380 N   0  0  0  0  0  0  0  0  0  0  0  0
   10.4700   -0.2420   24.5110 C   0  0  0  0  0  0  0  0  0  0  0  0
   10.1470   -1.4890   23.9980 C   0  0  0  0  0  0  0  0  0  0  0  0
   11.6570    0.5180   24.1060 N   0  0  0  0  0  0  0  0  0  0  0  0
   11.0010   -2.0470   23.0640 C   0  0  0  0  0  0  0  0  0  0  0  0
   12.4890   -0.0600   23.1850 C   0  0  0  0  0  0  0  0  0  0  0  0
   12.2430   -1.3230   22.6230 C   0  0  0  0  0  0  0  0  0  0  0  0
   13.0670   -2.0730   21.6300 C   0  0  0  0  0  0  0  0  0  0  0  0
   13.7500   -1.2850   20.6570 N   0  0  0  0  0  0  0  0  0  0  0  0
  1  2  1  0
  2  3  1  0
  3  4  2  0
  3  5  1  0
  5  6  1  0
  5  7  1  0
  6  8  1  0
  7  9  1  0
  8 10  1  0
  9 10  1  0
 10 11  1  0
 11 12  2  0
 11 13  2  0
 11 14  1  0
 14 15  2  0
 14 16  1  0
 15 17  1  0
 15 18  1  0
 16 19  2  0
 16 20  1  0
 18 21  2  0
 19 21  1  0
 20 22  1  0
 22 23  1  0
 23 24  1  0
 24 25  1  0
 25 26  1  0
 26 27  2  0
 26 28  1  0
 27 29  1  0
 28 30  2  0
 29 31  2  0
 30 31  1  0
 31 32  1  0
 32 33  3  0
M  END
