JAN-GHE-5a013bed-7
     RDKit          3D

 16 17  0  0  0  0  0  0  0  0999 V2000
    9.3800    0.7640   21.6150 O   0  0  0  0  0  0  0  0  0  0  0  0
    8.7170   -0.2220   21.9420 C   0  0  0  0  0  0  0  0  0  0  0  0
    8.6820   -0.8760   23.3250 C   0  0  0  0  0  0  0  0  0  0  0  0
    7.9040   -0.7500   20.9630 N   0  0  0  0  0  0  0  0  0  0  0  0
   10.1840   -0.7700   23.1020 C   0  0  0  0  0  0  0  0  0  0  0  0
    7.1020   -0.0780   20.0610 C   0  0  0  0  0  0  0  0  0  0  0  0
   11.0640   -1.9010   22.8530 C   0  0  0  0  0  0  0  0  0  0  0  0
   10.8000    0.4470   23.1430 C   0  0  0  0  0  0  0  0  0  0  0  0
    6.9070    1.2220   19.8870 N   0  0  0  0  0  0  0  0  0  0  0  0
    6.2370   -1.1290   19.0130 S   0  0  0  0  0  0  0  0  0  0  0  0
   12.5440   -1.6850   22.6680 C   0  0  0  0  0  0  0  0  0  0  0  0
   12.1430    0.6630   22.9640 C   0  0  0  0  0  0  0  0  0  0  0  0
    6.0330    1.4290   18.8730 N   0  0  0  0  0  0  0  0  0  0  0  0
    5.5800    0.2630   18.2960 C   0  0  0  0  0  0  0  0  0  0  0  0
   13.0520   -0.4030   22.7290 C   0  0  0  0  0  0  0  0  0  0  0  0
   12.6260    2.2950   23.0130 Cl  0  0  0  0  0  0  0  0  0  0  0  0
  1  2  2  0
  2  3  1  0
  2  4  1  0
  3  5  1  0
  4  6  1  0
  5  7  2  0
  5  8  1  0
  6  9  2  0
  6 10  1  0
  7 11  1  0
  8 12  2  0
  9 13  1  0
 10 14  1  0
 13 14  2  0
 11 15  2  0
 12 15  1  0
 12 16  1  0
M  END
