JAN-GHE-6413aaf8-2-chloroacetamide
     RDKit          3D

 28 31  0  0  0  0  0  0  0  0999 V2000
    9.1270   -3.9980   20.0150 C   0  0  0  0  0  0  0  0  0  0  0  0
    7.8700   -4.5310   20.7700 C   0  0  0  0  0  0  0  0  0  0  0  0
    7.1810   -4.3460   19.6760 O   0  0  0  0  0  0  0  0  0  0  0  0
    8.8920   -4.5680   21.7190 N   0  0  0  0  0  0  0  0  0  0  0  0
    8.7480   -4.8750   23.1270 C   0  0  0  0  0  0  0  0  0  0  0  0
    9.6170   -3.2590   21.8690 C   0  0  0  0  0  0  0  0  0  0  0  0
    9.5480   -3.6570   23.3680 C   0  0  0  0  0  0  0  0  0  0  0  0
    8.8940   -2.5730   24.1300 N   0  0  0  0  0  0  0  0  0  0  0  0
    9.0980   -1.3590   23.4770 C   0  0  0  0  0  0  0  0  0  0  0  0
   10.3600   -0.7780   23.2230 C   0  0  0  0  0  0  0  0  0  0  0  0
   11.5120   -1.5610   22.9870 C   0  0  0  0  0  0  0  0  0  0  0  0
   10.6500    0.6210   23.1530 C   0  0  0  0  0  0  0  0  0  0  0  0
   12.8430   -0.9460   22.7060 C   0  0  0  0  0  0  0  0  0  0  0  0
   11.9060    1.1470   22.8880 C   0  0  0  0  0  0  0  0  0  0  0  0
    9.7300    1.5500   23.3370 N   0  0  0  0  0  0  0  0  0  0  0  0
   13.0540    0.4230   22.6620 C   0  0  0  0  0  0  0  0  0  0  0  0
   11.6910    2.6660   22.9000 C   0  0  0  0  0  0  0  0  0  0  0  0
   10.3280    2.8090   23.1930 C   0  0  0  0  0  0  0  0  0  0  0  0
   12.6520    3.6590   22.6530 C   0  0  0  0  0  0  0  0  0  0  0  0
   12.2900    4.9940   23.2620 C   0  0  0  0  0  0  0  0  0  0  0  0
   11.0830    5.5990   22.7080 N   0  0  0  0  0  0  0  0  0  0  0  0
   10.1280    6.1250   23.5390 C   0  0  0  0  0  0  0  0  0  0  0  0
   10.2730    6.2220   24.7510 O   0  0  0  0  0  0  0  0  0  0  0  0
    8.9540    6.5550   22.9160 C   0  0  0  0  0  0  0  0  0  0  0  0
    8.1140    5.8450   22.0860 C   0  0  0  0  0  0  0  0  0  0  0  0
    8.3740    7.8150   23.0100 N   0  0  0  0  0  0  0  0  0  0  0  0
    7.0820    6.6270   21.6860 C   0  0  0  0  0  0  0  0  0  0  0  0
    7.2620    7.8800   22.2860 C   0  0  0  0  0  0  0  0  0  0  0  0
  1  2  1  0
  2  3  2  0
  2  4  1  0
  4  5  1  0
  4  6  1  0
  5  7  1  0
  6  7  1  0
  7  8  1  0
  8  9  1  0
  9 10  1  0
 10 11  2  0
 10 12  1  0
 11 13  1  0
 12 14  2  0
 12 15  1  0
 13 16  2  0
 14 16  1  0
 14 17  1  0
 15 18  1  0
 17 18  2  0
 17 19  1  0
 19 20  1  0
 20 21  1  0
 21 22  1  0
 22 23  2  0
 22 24  1  0
 24 25  2  0
 24 26  1  0
 25 27  1  0
 26 28  1  0
 27 28  2  0
M  END
