JAN-GHE-6413aaf8-4-chloroacetamide
     RDKit          3D

 31 35  0  0  0  0  0  0  0  0999 V2000
    6.7090   -4.6220   20.4560 C   0  0  0  0  0  0  0  0  0  0  0  0
    5.6450   -3.5850   20.2880 C   0  0  0  0  0  0  0  0  0  0  0  0
    4.9340   -3.6350   19.2960 O   0  0  0  0  0  0  0  0  0  0  0  0
    5.5090   -2.6080   21.2610 N   0  0  0  0  0  0  0  0  0  0  0  0
    5.5430   -2.9520   22.6680 C   0  0  0  0  0  0  0  0  0  0  0  0
    6.2300   -1.3500   21.2080 C   0  0  0  0  0  0  0  0  0  0  0  0
    6.8780   -2.4540   23.1500 C   0  0  1  0  0  0  0  0  0  0  0  0
    7.4130   -1.6860   21.9010 C   0  0  2  0  0  0  0  0  0  0  0  0
    6.9630   -1.5520   24.2240 C   0  0  0  0  0  0  0  0  0  0  0  0
    8.1030   -0.5930   22.4510 C   0  0  0  0  0  0  0  0  0  0  0  0
    8.1350   -0.6940   23.9230 N   0  0  0  0  0  0  0  0  0  0  0  0
    9.3890   -1.2710   24.4230 C   0  0  0  0  0  0  0  0  0  0  0  0
   10.5290   -0.7200   23.8550 C   0  0  0  0  0  0  0  0  0  0  0  0
   11.6840   -1.5520   23.3150 C   0  0  0  0  0  0  0  0  0  0  0  0
   10.8330    0.6290   23.6700 C   0  0  0  0  0  0  0  0  0  0  0  0
   12.8870   -1.1130   22.7300 C   0  0  0  0  0  0  0  0  0  0  0  0
   12.0020    1.1610   23.0930 C   0  0  0  0  0  0  0  0  0  0  0  0
   10.0810    1.7140   23.9980 N   0  0  0  0  0  0  0  0  0  0  0  0
   13.0440    0.3520   22.6320 C   0  0  0  0  0  0  0  0  0  0  0  0
   11.8680    2.5550   23.0910 C   0  0  0  0  0  0  0  0  0  0  0  0
   10.6730    2.8860   23.6610 C   0  0  0  0  0  0  0  0  0  0  0  0
   12.7210    3.7140   22.5990 C   0  0  0  0  0  0  0  0  0  0  0  0
   12.3430    4.8850   23.2630 C   0  0  0  0  0  0  0  0  0  0  0  0
   11.1740    5.5270   22.6700 N   0  0  0  0  0  0  0  0  0  0  0  0
   10.1810    6.0570   23.4690 C   0  0  0  0  0  0  0  0  0  0  0  0
   10.3240    6.2440   24.6740 O   0  0  0  0  0  0  0  0  0  0  0  0
    9.0080    6.3760   22.7970 C   0  0  0  0  0  0  0  0  0  0  0  0
    8.5030    7.6220   22.6860 C   0  0  0  0  0  0  0  0  0  0  0  0
    8.1390    5.5080   22.1230 N   0  0  0  0  0  0  0  0  0  0  0  0
    7.3470    7.5200   21.9500 C   0  0  0  0  0  0  0  0  0  0  0  0
    7.1190    6.1960   21.5970 C   0  0  0  0  0  0  0  0  0  0  0  0
  1  2  1  0
  2  3  2  0
  2  4  1  0
  4  5  1  0
  4  6  1  0
  7  5  1  6
  8  6  1  6
  7  8  1  0
  7  9  1  0
  8 10  1  0
  9 11  1  0
 10 11  1  0
 11 12  1  0
 12 13  1  0
 13 14  2  0
 13 15  1  0
 14 16  1  0
 15 17  2  0
 15 18  1  0
 16 19  2  0
 17 19  1  0
 17 20  1  0
 18 21  1  0
 20 21  2  0
 20 22  1  0
 22 23  1  0
 23 24  1  0
 24 25  1  0
 25 26  2  0
 25 27  1  0
 27 28  2  0
 27 29  1  0
 28 30  1  0
 29 31  1  0
 30 31  2  0
M  END
