JAN-GHE-6413aaf8-8-chloroacetamide
     RDKit          3D

 30 32  0  0  0  0  0  0  0  0999 V2000
    7.1640   -2.9830   18.7840 C   0  0  0  0  0  0  0  0  0  0  0  0
    6.2040   -3.2700   19.8840 C   0  0  0  0  0  0  0  0  0  0  0  0
    5.3690   -4.1690   19.7420 O   0  0  0  0  0  0  0  0  0  0  0  0
    6.3010   -2.5280   21.0520 N   0  0  0  0  0  0  0  0  0  0  0  0
    6.0790   -3.1040   22.3800 C   0  0  0  0  0  0  0  0  0  0  0  0
    7.1500   -1.3260   21.0120 C   0  0  0  0  0  0  0  0  0  0  0  0
    7.3890   -3.2930   23.1010 C   0  0  0  0  0  0  0  0  0  0  0  0
    8.3550   -1.5350   21.6870 C   0  0  0  0  0  0  0  0  0  0  0  0
    8.1890   -2.0520   23.0650 N   0  0  0  0  0  0  0  0  0  0  0  0
    9.4210   -2.2640   23.6480 C   0  0  0  0  0  0  0  0  0  0  0  0
   10.4850   -1.3990   23.4460 C   0  0  0  0  0  0  0  0  0  0  0  0
   11.7870   -1.8880   23.2960 C   0  0  0  0  0  0  0  0  0  0  0  0
   10.3820    0.0410   23.3660 C   0  0  0  0  0  0  0  0  0  0  0  0
   12.9140   -0.9350   23.0790 C   0  0  0  0  0  0  0  0  0  0  0  0
   11.4830    0.9040   23.1570 C   0  0  0  0  0  0  0  0  0  0  0  0
    9.3080    0.9050   23.4580 N   0  0  0  0  0  0  0  0  0  0  0  0
   12.7800    0.4590   23.0080 C   0  0  0  0  0  0  0  0  0  0  0  0
   11.0020    2.3390   23.1290 C   0  0  0  0  0  0  0  0  0  0  0  0
    9.6540    2.2320   23.3220 C   0  0  0  0  0  0  0  0  0  0  0  0
   11.7020    3.5430   22.9430 C   0  0  0  0  0  0  0  0  0  0  0  0
   11.1350    4.7310   23.7020 C   0  0  0  0  0  0  0  0  0  0  0  0
   10.0360    4.4520   24.6180 N   0  0  0  0  0  0  0  0  0  0  0  0
    9.4800    5.4540   25.3850 C   0  0  0  0  0  0  0  0  0  0  0  0
    8.7420    6.3290   24.9390 O   0  0  0  0  0  0  0  0  0  0  0  0
    9.8240    5.4030   26.7300 C   0  0  0  0  0  0  0  0  0  0  0  0
    9.1420    6.2680   27.5800 C   0  0  0  0  0  0  0  0  0  0  0  0
    9.3470    6.0090   28.9160 C   0  0  0  0  0  0  0  0  0  0  0  0
   10.5950    5.4750   29.1860 N   0  0  0  0  0  0  0  0  0  0  0  0
   10.5340    4.3520   29.8690 C   0  0  0  0  0  0  0  0  0  0  0  0
   11.2890    6.3900   29.8220 C   0  0  0  0  0  0  0  0  0  0  0  0
  1  2  1  0
  2  3  2  0
  2  4  1  0
  4  5  1  0
  4  6  1  0
  5  7  1  0
  6  8  1  0
  7  9  1  0
  8  9  1  0
  9 10  1  0
 10 11  1  0
 11 12  2  0
 11 13  1  0
 12 14  1  0
 13 15  2  0
 13 16  1  0
 14 17  2  0
 15 17  1  0
 15 18  1  0
 16 19  1  0
 18 19  2  0
 18 20  1  0
 20 21  1  0
 21 22  1  0
 22 23  1  0
 23 24  2  0
 23 25  1  0
 25 26  1  0
 26 27  1  0
 27 28  1  0
 28 29  1  0
 28 30  1  0
M  END
