JAN-GHE-83b26c96-14
     RDKit          3D

 21 22  0  0  0  0  0  0  0  0999 V2000
    4.9460    1.7390   21.3310 C   0  0  0  0  0  0  0  0  0  0  0  0
    5.8220    0.9780   20.3770 C   0  0  0  0  0  0  0  0  0  0  0  0
    4.9350    1.5030   19.3340 C   0  0  0  0  0  0  0  0  0  0  0  0
    6.9200    0.1480   20.1810 C   0  0  0  0  0  0  0  0  0  0  0  0
    5.3010    1.0770   18.0030 C   0  0  0  0  0  0  0  0  0  0  0  0
    7.1350   -0.1830   18.8300 C   0  0  0  0  0  0  0  0  0  0  0  0
    7.7160   -0.2920   21.2490 N   0  0  0  0  0  0  0  0  0  0  0  0
    6.3550    0.2680   17.7750 N   0  0  0  0  0  0  0  0  0  0  0  0
    8.6780    0.4600   21.8960 C   0  0  0  0  0  0  0  0  0  0  0  0
    9.2630    1.4410   21.4130 O   0  0  0  0  0  0  0  0  0  0  0  0
    8.8850    0.0370   23.2000 C   0  0  0  0  0  0  0  0  0  0  0  0
   10.2220   -0.4050   23.3460 C   0  0  0  0  0  0  0  0  0  0  0  0
   10.8820   -0.0750   24.7110 C   0  0  0  0  0  0  0  0  0  0  0  0
   10.9370   -1.1490   22.2680 C   0  0  0  0  0  0  0  0  0  0  0  0
   12.3750   -0.5790   24.8660 C   0  0  0  0  0  0  0  0  0  0  0  0
   12.2160   -1.5710   22.4460 C   0  0  0  0  0  0  0  0  0  0  0  0
   12.8630   -1.3090   23.6200 C   0  0  0  0  0  0  0  0  0  0  0  0
   12.8620   -2.2630   21.4720 C   0  0  0  0  0  0  0  0  0  0  0  0
   13.7220   -1.5180   20.7390 F   0  0  0  0  0  0  0  0  0  0  0  0
   12.0350   -2.8560   20.6110 F   0  0  0  0  0  0  0  0  0  0  0  0
   13.5210   -3.2770   22.0390 F   0  0  0  0  0  0  0  0  0  0  0  0
  1  2  1  0
  2  3  2  0
  2  4  1  0
  3  5  1  0
  4  6  2  0
  4  7  1  0
  5  8  2  0
  6  8  1  0
  7  9  1  0
  9 10  2  0
  9 11  1  0
 11 12  1  0
 12 13  2  0
 12 14  1  0
 13 15  1  0
 14 16  2  0
 15 17  2  0
 16 17  1  0
 16 18  1  0
 18 19  1  0
 18 20  1  0
 18 21  1  0
M  END
