JAN-GHE-5a013bed-5
     RDKit          3D

 16 17  0  0  0  0  0  0  0  0999 V2000
    9.9440    0.5360   21.8190 O   0  0  0  0  0  0  0  0  0  0  0  0
    8.8710    0.0860   22.1950 C   0  0  0  0  0  0  0  0  0  0  0  0
    8.6030   -0.6350   23.4920 C   0  0  0  0  0  0  0  0  0  0  0  0
    7.7930    0.3070   21.3710 N   0  0  0  0  0  0  0  0  0  0  0  0
   10.1210   -0.8180   23.4580 C   0  0  0  0  0  0  0  0  0  0  0  0
    6.9120   -0.6800   21.1320 N   0  0  0  0  0  0  0  0  0  0  0  0
   10.9240   -0.3580   24.5770 C   0  0  0  0  0  0  0  0  0  0  0  0
   10.8350   -1.4420   22.4250 C   0  0  0  0  0  0  0  0  0  0  0  0
    6.0310   -1.1960   22.0050 C   0  0  0  0  0  0  0  0  0  0  0  0
    6.7200   -1.3950   19.8800 C   0  0  0  0  0  0  0  0  0  0  0  0
   12.4050   -0.5640   24.5830 C   0  0  0  0  0  0  0  0  0  0  0  0
   12.2210   -1.6310   22.4420 C   0  0  0  0  0  0  0  0  0  0  0  0
    5.2860   -2.2360   21.2920 N   0  0  0  0  0  0  0  0  0  0  0  0
    5.7480   -2.2880   20.0430 N   0  0  0  0  0  0  0  0  0  0  0  0
   13.0170   -1.1900   23.5300 C   0  0  0  0  0  0  0  0  0  0  0  0
   12.9560   -2.4180   21.1250 Cl  0  0  0  0  0  0  0  0  0  0  0  0
  1  2  2  0
  2  3  1  0
  2  4  1  0
  3  5  1  0
  4  6  1  0
  5  7  2  0
  5  8  1  0
  6  9  1  0
  6 10  1  0
  7 11  1  0
  8 12  2  0
  9 13  2  0
 10 14  2  0
 13 14  1  0
 11 15  2  0
 12 15  1  0
 12 16  1  0
M  END
