JAN-GHE-83b26c96-2
     RDKit          3D

 22 23  0  0  0  0  0  0  0  0999 V2000
    4.1420   -0.4830   23.0380 C   0  0  0  0  0  0  0  0  0  0  0  0
    4.0400    0.7040   22.4360 C   0  0  0  0  0  0  0  0  0  0  0  0
    2.9200    1.1860   22.2610 O   0  0  0  0  0  0  0  0  0  0  0  0
    5.2270    1.2530   22.0760 N   0  0  0  0  0  0  0  0  0  0  0  0
    5.6720    0.9340   20.7190 C   0  0  0  0  0  0  0  0  0  0  0  0
    4.9840    1.4620   19.4630 C   0  0  0  0  0  0  0  0  0  0  0  0
    6.7450    0.1330   20.2800 C   0  0  0  0  0  0  0  0  0  0  0  0
    5.6970    0.9370   18.2650 C   0  0  0  0  0  0  0  0  0  0  0  0
    7.0940   -0.1220   18.7760 C   0  0  0  0  0  0  0  0  0  0  0  0
    7.5950   -0.5150   21.3040 N   0  0  0  0  0  0  0  0  0  0  0  0
    6.5280    0.3160   17.8460 N   0  0  0  0  0  0  0  0  0  0  0  0
    8.6680    0.1710   21.8950 C   0  0  0  0  0  0  0  0  0  0  0  0
    9.2080    1.1780   21.3960 O   0  0  0  0  0  0  0  0  0  0  0  0
    9.1780   -0.2560   23.1620 C   0  0  1  0  0  0  0  0  0  0  0  0
    8.2760   -1.1080   23.8130 C   0  0  0  0  0  0  0  0  0  0  0  0
   10.4640   -0.8480   23.1350 C   0  0  0  0  0  0  0  0  0  0  0  0
   11.0970   -1.1210   21.9400 C   0  0  0  0  0  0  0  0  0  0  0  0
   11.1640   -1.2000   24.3060 C   0  0  0  0  0  0  0  0  0  0  0  0
   12.3970   -1.7080   21.7410 C   0  0  0  0  0  0  0  0  0  0  0  0
   12.5550   -1.8290   24.2340 C   0  0  0  0  0  0  0  0  0  0  0  0
   13.1310   -2.0580   22.8860 C   0  0  0  0  0  0  0  0  0  0  0  0
   13.5280   -2.3210   25.5370 Cl  0  0  0  0  0  0  0  0  0  0  0  0
  1  2  1  0
  2  3  2  0
  2  4  1  0
  4  5  1  0
  5  6  2  0
  5  7  1  0
  6  8  1  0
  7  9  2  0
  7 10  1  0
  8 11  2  0
  9 11  1  0
 10 12  1  0
 12 13  2  0
 12 14  1  0
 14 15  1  6
 14 16  1  0
 16 17  2  0
 16 18  1  0
 17 19  1  0
 18 20  2  0
 19 21  2  0
 20 21  1  0
 20 22  1  0
M  END
