JAN-GHE-6413aaf8-7-chloroacetamide
     RDKit          3D

 26 28  0  0  0  0  0  0  0  0999 V2000
    7.1340   -2.9800   18.7380 C   0  0  0  0  0  0  0  0  0  0  0  0
    6.2200   -3.2820   19.8820 C   0  0  0  0  0  0  0  0  0  0  0  0
    5.3760   -4.1800   19.7570 O   0  0  0  0  0  0  0  0  0  0  0  0
    6.3820   -2.5340   21.0460 N   0  0  0  0  0  0  0  0  0  0  0  0
    7.2020   -1.3160   21.0910 C   0  0  0  0  0  0  0  0  0  0  0  0
    6.2380   -3.2320   22.3290 C   0  0  0  0  0  0  0  0  0  0  0  0
    8.4940   -1.5730   21.8170 C   0  0  0  0  0  0  0  0  0  0  0  0
    7.4530   -3.3910   23.0360 C   0  0  0  0  0  0  0  0  0  0  0  0
    8.2230   -2.1550   23.1450 N   0  0  0  0  0  0  0  0  0  0  0  0
    9.4000   -2.2780   23.8680 C   0  0  0  0  0  0  0  0  0  0  0  0
   10.4350   -1.3840   23.6390 C   0  0  0  0  0  0  0  0  0  0  0  0
   11.7230   -1.7720   23.2360 C   0  0  0  0  0  0  0  0  0  0  0  0
   10.2510    0.0320   23.7820 C   0  0  0  0  0  0  0  0  0  0  0  0
   12.7610   -0.7160   22.9900 C   0  0  0  0  0  0  0  0  0  0  0  0
   11.2530    0.9970   23.5300 C   0  0  0  0  0  0  0  0  0  0  0  0
    9.1250    0.7740   24.1680 N   0  0  0  0  0  0  0  0  0  0  0  0
   12.5400    0.6720   23.1300 C   0  0  0  0  0  0  0  0  0  0  0  0
   10.6460    2.3650   23.7620 C   0  0  0  0  0  0  0  0  0  0  0  0
    9.3430    2.2220   24.1650 C   0  0  0  0  0  0  0  0  0  0  0  0
   11.3090    3.5740   23.5690 C   0  0  0  0  0  0  0  0  0  0  0  0
   10.4760    4.4090   22.6600 C   0  0  0  0  0  0  0  0  0  0  0  0
    9.4020    5.1390   23.3270 N   0  0  0  0  0  0  0  0  0  0  0  0
    8.9350    6.7430   22.9860 S   0  0  0  0  0  0  0  0  0  0  0  0
    7.7540    6.5820   21.6560 C   0  0  0  0  0  0  0  0  0  0  0  0
    8.2300    7.2690   24.1360 O   0  0  0  0  0  0  0  0  0  0  0  0
   10.1260    7.3830   22.5000 O   0  0  0  0  0  0  0  0  0  0  0  0
  1  2  1  0
  2  3  2  0
  2  4  1  0
  4  5  1  0
  4  6  1  0
  5  7  1  0
  6  8  1  0
  7  9  1  0
  8  9  1  0
  9 10  1  0
 10 11  1  0
 11 12  2  0
 11 13  1  0
 12 14  1  0
 13 15  2  0
 13 16  1  0
 14 17  2  0
 15 17  1  0
 15 18  1  0
 16 19  1  0
 18 19  2  0
 18 20  1  0
 20 21  1  0
 21 22  1  0
 23 22  1  0
 23 24  1  0
 23 25  2  0
 23 26  2  0
M  END
