JAN-GHE-d851b096-7-chloroacetamide
     RDKit          3D

 29 31  0  0  0  0  0  0  0  0999 V2000
    7.9030   -4.2510   20.6040 C   0  0  0  0  0  0  0  0  0  0  0  0
    7.0920   -3.0680   20.4590 C   0  0  0  0  0  0  0  0  0  0  0  0
    6.3200   -3.0360   19.3760 O   0  0  0  0  0  0  0  0  0  0  0  0
    7.2910   -2.1910   21.6830 N   0  0  0  0  0  0  0  0  0  0  0  0
    6.5150   -2.6890   22.8370 C   0  0  0  0  0  0  0  0  0  0  0  0
    8.3470   -1.1740   22.1600 C   0  0  2  0  0  0  0  0  0  0  0  0
    5.0800   -3.0990   22.9240 C   0  0  0  0  0  0  0  0  0  0  0  0
    7.1210   -2.8650   24.1650 N   0  0  0  0  0  0  0  0  0  0  0  0
    8.3560    0.0930   21.5630 C   0  0  0  0  0  0  0  0  0  0  0  0
    9.8130   -1.2820   22.5590 C   0  0  0  0  0  0  0  0  0  0  0  0
    5.0290   -3.4910   24.3840 C   0  0  0  0  0  0  0  0  0  0  0  0
    6.0980   -3.3650   25.0150 O   0  0  0  0  0  0  0  0  0  0  0  0
    9.3720    0.7630   21.4680 O   0  0  0  0  0  0  0  0  0  0  0  0
    7.0520    0.5380   21.1270 N   0  0  0  0  0  0  0  0  0  0  0  0
   10.8210   -2.0020   21.9120 C   0  0  0  0  0  0  0  0  0  0  0  0
   10.3110   -0.5790   23.7140 C   0  0  0  0  0  0  0  0  0  0  0  0
    3.7450   -3.9830   24.9250 C   0  0  0  0  0  0  0  0  0  0  0  0
    6.2260   -0.1350   20.2530 C   0  0  0  0  0  0  0  0  0  0  0  0
   12.2920   -2.0670   22.3230 C   0  0  0  0  0  0  0  0  0  0  0  0
   11.7150   -0.5240   24.2790 N   0  0  0  0  0  0  0  0  0  0  0  0
    3.7400   -4.8140   25.9740 F   0  0  0  0  0  0  0  0  0  0  0  0
    3.0500   -4.6340   23.9580 F   0  0  0  0  0  0  0  0  0  0  0  0
    2.9550   -2.9430   25.2970 F   0  0  0  0  0  0  0  0  0  0  0  0
    4.9120    0.3670   20.2370 C   0  0  0  0  0  0  0  0  0  0  0  0
    6.7800   -0.2440   18.9790 C   0  0  0  0  0  0  0  0  0  0  0  0
   12.7190   -1.2970   23.5440 C   0  0  0  0  0  0  0  0  0  0  0  0
    4.6150    1.3200   19.2330 C   0  0  0  0  0  0  0  0  0  0  0  0
    6.6940    0.9740   18.3690 C   0  0  0  0  0  0  0  0  0  0  0  0
    5.3670    1.1640   18.0760 C   0  0  0  0  0  0  0  0  0  0  0  0
  1  2  1  0
  2  3  2  0
  2  4  1  0
  4  5  1  0
  4  6  1  0
  5  7  1  0
  5  8  2  0
  6  9  1  6
  6 10  1  0
  7 11  2  0
  8 12  1  0
 11 12  1  0
  9 13  2  0
  9 14  1  0
 10 15  2  0
 10 16  1  0
 11 17  1  0
 14 18  1  0
 15 19  1  0
 16 20  2  0
 17 21  1  0
 17 22  1  0
 17 23  1  0
 18 24  1  0
 18 25  1  0
 19 26  2  0
 20 26  1  0
 24 27  1  0
 25 28  1  0
 27 29  1  0
 28 29  1  0
M  END
