JAN-LUN-04aedcc0-6-nitrile
     RDKit          3D

 35 39  0  0  0  0  0  0  0  0999 V2000
    7.2250   -3.6190   19.9480 C   0  0  0  0  0  0  0  0  0  0  0  0
    6.1140   -3.4970   19.3220 N   0  0  0  0  0  0  0  0  0  0  0  0
    7.4540   -3.2470   21.2550 N   0  0  0  0  0  0  0  0  0  0  0  0
    6.9120   -3.9740   22.3940 C   0  0  0  0  0  0  0  0  0  0  0  0
    8.3710   -2.1590   21.6480 C   0  0  0  0  0  0  0  0  0  0  0  0
    7.9760   -4.0720   23.4990 C   0  0  0  0  0  0  0  0  0  0  0  0
    9.6290   -2.6390   22.4220 C   0  0  2  0  0  0  0  0  0  0  0  0
    7.3410   -4.9890   24.5610 C   0  0  0  0  0  0  0  0  0  0  0  0
    9.2490   -3.4460   23.5100 C   0  0  0  0  0  0  0  0  0  0  0  0
   10.5550   -1.5810   22.6100 C   0  0  0  0  0  0  0  0  0  0  0  0
    8.3150   -5.1790   25.7280 C   0  0  0  0  0  0  0  0  0  0  0  0
   10.1200   -3.6310   24.5810 C   0  0  0  0  0  0  0  0  0  0  0  0
   11.8970   -1.8440   22.3670 C   0  0  0  0  0  0  0  0  0  0  0  0
   10.2080   -0.2620   23.0170 C   0  0  0  0  0  0  0  0  0  0  0  0
    9.6780   -4.5140   25.7370 C   0  0  0  0  0  0  0  0  0  0  0  0
   12.9560   -0.7670   22.5260 C   0  0  0  0  0  0  0  0  0  0  0  0
   11.1230    0.7810   23.1890 C   0  0  0  0  0  0  0  0  0  0  0  0
    8.9470    0.0240   23.2270 N   0  0  0  0  0  0  0  0  0  0  0  0
   12.6330    0.6500   22.9540 C   0  0  0  0  0  0  0  0  0  0  0  0
    8.5100    0.5400   22.0810 C   0  0  0  0  0  0  0  0  0  0  0  0
   13.4690    1.5130   23.0690 O   0  0  0  0  0  0  0  0  0  0  0  0
    8.9080    1.6050   21.5300 O   0  0  0  0  0  0  0  0  0  0  0  0
    7.5090   -0.3500   21.5410 N   0  0  0  0  0  0  0  0  0  0  0  0
    6.8080    0.2150   20.6280 C   0  0  0  0  0  0  0  0  0  0  0  0
    5.7230    0.8630   21.0080 C   0  0  0  0  0  0  0  0  0  0  0  0
    7.1510    0.1950   19.2710 N   0  0  0  0  0  0  0  0  0  0  0  0
    5.2040    1.3870   19.9750 C   0  0  0  0  0  0  0  0  0  0  0  0
    6.0400    0.9970   18.9590 C   0  0  0  0  0  0  0  0  0  0  0  0
    4.0960    2.1470   19.9440 C   0  0  0  0  0  0  0  0  0  0  0  0
    5.8400    1.3570   17.7220 N   0  0  0  0  0  0  0  0  0  0  0  0
    3.8170    2.5880   18.7010 C   0  0  0  0  0  0  0  0  0  0  0  0
    4.7280    2.1650   17.6610 C   0  0  0  0  0  0  0  0  0  0  0  0
    2.6670    3.4140   18.5560 C   0  0  0  0  0  0  0  0  0  0  0  0
    1.8190    3.5660   19.4350 O   0  0  0  0  0  0  0  0  0  0  0  0
    2.5340    3.9910   17.4870 O   0  0  0  0  0  0  0  0  0  0  0  0
  1  2  2  3
  1  3  1  0
  3  4  1  0
  3  5  1  0
  4  6  1  0
  5  7  1  0
  6  8  1  0
  6  9  2  0
  7  9  1  0
  7 10  1  1
  8 11  2  0
  9 12  1  0
 10 13  2  0
 10 14  1  0
 11 15  1  0
 12 15  2  0
 13 16  1  0
 14 17  2  0
 14 18  1  0
 16 19  2  0
 17 19  1  0
 18 20  1  0
 19 21  1  0
 20 22  2  0
 20 23  1  0
 23 24  1  0
 24 25  2  0
 24 26  1  0
 25 27  1  0
 26 28  1  0
 27 28  2  0
 27 29  1  0
 28 30  1  0
 29 31  2  0
 30 32  2  0
 31 32  1  0
 31 33  1  0
 33 34  2  0
 33 35  1  0
M  END
