JAN-GHE-bf40f168-6-vinylsulfonamide
     RDKit          3D

 34 37  0  0  0  0  0  0  0  0999 V2000
    8.7900   -4.4370   20.5250 C   0  0  0  0  0  0  0  0  0  0  0  0
    7.5380   -3.5250   20.5300 C   0  0  0  0  0  0  0  0  0  0  0  0
    6.0100   -4.4300   20.6710 S   0  0  0  0  0  0  0  0  0  0  0  0
    5.0790   -3.7450   21.5300 O   0  0  0  0  0  0  0  0  0  0  0  0
    5.5230   -4.7810   19.3930 O   0  0  0  0  0  0  0  0  0  0  0  0
    6.4310   -5.8520   21.3620 N   0  0  0  0  0  0  0  0  0  0  0  0
    6.0020   -6.2490   22.7110 C   0  0  0  0  0  0  0  0  0  0  0  0
    6.6300   -5.1730   23.6050 C   0  0  0  0  0  0  0  0  0  0  0  0
    4.6820   -5.6520   23.3120 C   0  0  0  0  0  0  0  0  0  0  0  0
    5.4380   -4.8630   24.3880 N   0  0  0  0  0  0  0  0  0  0  0  0
    5.2060   -4.9180   26.0610 S   0  0  0  0  0  0  0  0  0  0  0  0
    4.5380   -6.1760   26.3130 O   0  0  0  0  0  0  0  0  0  0  0  0
    6.3920   -4.5070   26.7580 O   0  0  0  0  0  0  0  0  0  0  0  0
    4.0410   -3.6210   26.0430 C   0  0  0  0  0  0  0  0  0  0  0  0
    2.7470   -3.8730   26.3290 C   0  0  0  0  0  0  0  0  0  0  0  0
    4.3170   -2.3230   25.7460 C   0  0  0  0  0  0  0  0  0  0  0  0
    1.7150   -2.9330   26.3310 C   0  0  0  0  0  0  0  0  0  0  0  0
    3.3080   -1.3610   25.7340 C   0  0  0  0  0  0  0  0  0  0  0  0
    5.6830   -1.8120   25.4260 C   0  0  0  0  0  0  0  0  0  0  0  0
    2.0100   -1.6500   26.0220 C   0  0  0  0  0  0  0  0  0  0  0  0
    6.1250   -1.1580   26.7420 C   0  0  0  0  0  0  0  0  0  0  0  0
    6.4980   -1.8290   24.2730 C   0  0  0  0  0  0  0  0  0  0  0  0
    7.5260   -0.5070   26.7270 C   0  0  0  0  0  0  0  0  0  0  0  0
    7.7700   -1.2230   24.3030 C   0  0  0  0  0  0  0  0  0  0  0  0
    8.3100   -0.5800   25.4310 C   0  0  0  0  0  0  0  0  0  0  0  0
    9.5700    0.0680   25.5580 N   0  0  0  0  0  0  0  0  0  0  0  0
   10.4980   -0.2750   24.6230 C   0  0  0  0  0  0  0  0  0  0  0  0
   10.4070   -1.5460   24.0690 C   0  0  0  0  0  0  0  0  0  0  0  0
   11.5070    0.7110   24.2950 N   0  0  0  0  0  0  0  0  0  0  0  0
   11.3790   -1.9020   23.1220 C   0  0  0  0  0  0  0  0  0  0  0  0
   12.4250    0.3630   23.4030 C   0  0  0  0  0  0  0  0  0  0  0  0
   12.4410   -0.8640   22.7970 C   0  0  0  0  0  0  0  0  0  0  0  0
   13.4810   -1.2150   21.8210 C   0  0  0  0  0  0  0  0  0  0  0  0
   12.9570   -2.0080   20.7820 N   0  0  0  0  0  0  0  0  0  0  0  0
  1  2  1  0
  2  3  1  0
  3  4  2  0
  3  5  2  0
  3  6  1  0
  6  7  1  0
  7  8  1  0
  7  9  1  0
  8 10  1  0
  9 10  1  0
 10 11  1  0
 11 12  2  0
 11 13  2  0
 11 14  1  0
 14 15  2  0
 14 16  1  0
 15 17  1  0
 16 18  2  0
 16 19  1  0
 17 20  2  0
 18 20  1  0
 19 21  2  0
 19 22  1  0
 21 23  1  0
 22 24  2  0
 23 25  2  0
 24 25  1  0
 25 26  1  0
 26 27  1  0
 27 28  2  0
 27 29  1  0
 28 30  1  0
 29 31  2  0
 30 32  2  0
 31 32  1  0
 32 33  1  0
 33 34  3  0
M  END
