JAN-GHE-1d98ec1c-7
     RDKit          3D

 23 24  0  0  0  0  0  0  0  0999 V2000
    6.0160   -1.9880   18.5980 C   0  0  0  0  0  0  0  0  0  0  0  0
    5.8090   -2.8380   19.8220 C   0  0  0  0  0  0  0  0  0  0  0  0
    5.3430   -3.9860   19.7210 O   0  0  0  0  0  0  0  0  0  0  0  0
    6.2170   -2.2730   21.0190 N   0  0  0  0  0  0  0  0  0  0  0  0
    7.2550   -1.2120   20.9520 C   0  0  0  0  0  0  0  0  0  0  0  0
    6.0440   -3.0130   22.2950 C   0  0  0  0  0  0  0  0  0  0  0  0
    8.5340   -1.6030   21.7090 C   0  0  0  0  0  0  0  0  0  0  0  0
    7.3770   -3.1950   23.0850 C   0  0  0  0  0  0  0  0  0  0  0  0
    8.2630   -2.0100   23.0810 N   0  0  0  0  0  0  0  0  0  0  0  0
    9.4600   -2.2640   23.8830 C   0  0  0  0  0  0  0  0  0  0  0  0
   10.5900   -1.2720   23.6410 C   0  0  0  0  0  0  0  0  0  0  0  0
   11.5960   -1.5280   22.9730 O   0  0  0  0  0  0  0  0  0  0  0  0
   10.1890   -0.0270   24.3730 N   0  0  0  0  0  0  0  0  0  0  0  0
   10.8650    1.1950   23.9140 C   0  0  0  0  0  0  0  0  0  0  0  0
   12.1370    1.0480   23.3850 C   0  0  0  0  0  0  0  0  0  0  0  0
   10.2590    2.4680   24.0060 C   0  0  0  0  0  0  0  0  0  0  0  0
   12.7990    2.1590   22.9470 C   0  0  0  0  0  0  0  0  0  0  0  0
   10.9420    3.6170   23.5580 C   0  0  0  0  0  0  0  0  0  0  0  0
   12.2210    3.4270   23.0220 C   0  0  0  0  0  0  0  0  0  0  0  0
   10.1030    5.1720   23.7290 S   0  0  0  0  0  0  0  0  0  0  0  0
    8.8540    5.0410   22.6130 N   0  0  0  0  0  0  0  0  0  0  0  0
    9.4340    5.2340   25.0150 O   0  0  0  0  0  0  0  0  0  0  0  0
   11.0010    6.2180   23.2860 O   0  0  0  0  0  0  0  0  0  0  0  0
  1  2  1  0
  2  3  2  0
  2  4  1  0
  4  5  1  0
  4  6  1  0
  5  7  1  0
  6  8  1  0
  7  9  1  0
  8  9  1  0
  9 10  1  0
 10 11  1  0
 11 12  2  0
 11 13  1  0
 13 14  1  0
 14 15  2  0
 14 16  1  0
 15 17  1  0
 16 18  2  0
 17 19  2  0
 18 19  1  0
 18 20  1  0
 20 21  1  0
 20 22  2  0
 20 23  2  0
M  END
