JAN-LUN-3e0f9c09-1
     RDKit          3D

 23 24  0  0  0  0  0  0  0  0999 V2000
    7.2490    1.0960   19.7130 O   0  0  0  0  0  0  0  0  0  0  0  0
    6.7720    0.4920   18.7530 C   0  0  0  0  0  0  0  0  0  0  0  0
    7.1570   -0.7420   18.4250 O   0  0  0  0  0  0  0  0  0  0  0  0
    5.7040    1.0360   17.8470 C   0  0  0  0  0  0  0  0  0  0  0  0
    4.7990    1.9700   18.6160 C   0  0  0  0  0  0  0  0  0  0  0  0
    3.7760    1.3740   19.4710 C   0  0  0  0  0  0  0  0  0  0  0  0
    4.2650    0.8990   20.6530 C   0  0  0  0  0  0  0  0  0  0  0  0
    5.0670   -0.2440   20.7930 C   0  0  0  0  0  0  0  0  0  0  0  0
    3.9030    1.6780   21.8850 C   0  0  0  0  0  0  0  0  0  0  0  0
    5.5280   -0.6700   21.9940 N   0  0  0  0  0  0  0  0  0  0  0  0
    4.3790    1.2330   23.1020 C   0  0  0  0  0  0  0  0  0  0  0  0
    5.1670    0.0790   23.0740 C   0  0  0  0  0  0  0  0  0  0  0  0
    4.0120    1.9880   24.2220 N   0  0  0  0  0  0  0  0  0  0  0  0
    2.7590    2.2650   24.6910 C   0  0  0  0  0  0  0  0  0  0  0  0
    2.1480    1.3470   25.2470 O   0  0  0  0  0  0  0  0  0  0  0  0
    2.2440    3.6170   24.4620 N   0  0  0  0  0  0  0  0  0  0  0  0
    0.8940    3.8510   24.2640 C   0  0  0  0  0  0  0  0  0  0  0  0
    0.3000    4.7740   25.1220 C   0  0  0  0  0  0  0  0  0  0  0  0
    0.0880    3.2360   23.2800 C   0  0  0  0  0  0  0  0  0  0  0  0
   -1.1420    5.0560   24.9510 C   0  0  0  0  0  0  0  0  0  0  0  0
   -1.2870    3.5120   23.1270 C   0  0  0  0  0  0  0  0  0  0  0  0
   -1.9250    4.4420   23.9780 C   0  0  0  0  0  0  0  0  0  0  0  0
   -2.2220    2.7220   21.9000 Cl  0  0  0  0  0  0  0  0  0  0  0  0
  1  2  2  0
  2  3  1  0
  2  4  1  0
  4  5  1  0
  5  6  1  0
  6  7  1  0
  7  8  2  0
  7  9  1  0
  8 10  1  0
  9 11  2  0
 10 12  2  0
 11 12  1  0
 11 13  1  0
 13 14  1  0
 14 15  2  0
 14 16  1  0
 16 17  1  0
 17 18  2  0
 17 19  1  0
 18 20  1  0
 19 21  2  0
 20 22  2  0
 21 22  1  0
 21 23  1  0
M  END
