JAN-GHE-fd8d85a5-4-bromoalkyne
     RDKit          3D

 22 24  0  0  0  0  0  0  0  0999 V2000
    7.3890   -3.9660   19.7560 C   0  0  0  0  0  0  0  0  0  0  0  0
    6.4110   -3.1570   18.9400 C   0  0  0  0  0  0  0  0  0  0  0  0
    8.5690   -3.3040   20.3950 C   0  0  0  0  0  0  0  0  0  0  0  0
    9.7420   -2.5620   21.1870 C   0  0  0  0  0  0  0  0  0  0  0  0
    7.5230   -3.0900   21.3880 C   0  0  0  0  0  0  0  0  0  0  0  0
    9.6950   -1.9490   22.4160 N   0  0  0  0  0  0  0  0  0  0  0  0
    7.4750   -2.4540   22.6810 C   0  0  0  0  0  0  0  0  0  0  0  0
    8.6190   -1.8770   23.1920 C   0  0  0  0  0  0  0  0  0  0  0  0
    6.3000   -2.4140   23.4210 C   0  0  0  0  0  0  0  0  0  0  0  0
    8.6560   -1.2350   24.4560 N   0  0  0  0  0  0  0  0  0  0  0  0
    5.5230   -2.0680   24.2170 N   0  0  0  0  0  0  0  0  0  0  0  0
    9.9220   -1.3910   25.1400 C   0  0  0  0  0  0  0  0  0  0  0  0
    4.7470   -0.8430   23.9550 C   0  0  0  0  0  0  0  0  0  0  0  0
    6.2630   -1.3390   25.3970 C   0  0  0  0  0  0  0  0  0  0  0  0
   10.1770   -0.2680   25.9140 C   0  0  0  0  0  0  0  0  0  0  0  0
    5.6650   -0.1860   24.9270 C   0  0  0  0  0  0  0  0  0  0  0  0
    4.9590    0.8510   25.6550 C   0  0  0  0  0  0  0  0  0  0  0  0
    6.5600    0.9210   24.4140 C   0  0  0  0  0  0  0  0  0  0  0  0
    5.7760    1.8600   25.2520 N   0  0  0  0  0  0  0  0  0  0  0  0
    6.2900    2.6540   26.3540 C   0  0  0  0  0  0  0  0  0  0  0  0
    7.6520    2.2930   26.7580 C   0  0  0  0  0  0  0  0  0  0  0  0
    5.6430    3.5500   26.8950 O   0  0  0  0  0  0  0  0  0  0  0  0
  1  2  2  3
  1  3  1  0
  3  4  2  0
  3  5  1  0
  4  6  1  0
  5  7  2  0
  6  8  2  0
  7  8  1  0
  7  9  1  0
  8 10  1  0
  9 11  1  0
 10 12  1  0
 11 13  1  0
 11 14  1  0
 12 15  1  0
 16 13  1  0
 14 16  1  0
 16 17  1  0
 16 18  1  0
 17 19  1  0
 18 19  1  0
 19 20  1  0
 20 21  1  0
 20 22  2  0
M  END
