JAN-LUN-04aedcc0-7-chloroacetamide
     RDKit          3D

 37 40  0  0  0  0  0  0  0  0999 V2000
    7.1990   -3.0180   19.0010 C   0  0  0  0  0  0  0  0  0  0  0  0
    6.5440   -3.4780   20.0570 C   0  0  0  0  0  0  0  0  0  0  0  0
    5.6370   -4.3170   19.8950 O   0  0  0  0  0  0  0  0  0  0  0  0
    6.9200   -3.0150   21.3560 N   0  0  0  0  0  0  0  0  0  0  0  0
    6.3030   -3.5790   22.5570 C   0  0  0  0  0  0  0  0  0  0  0  0
    8.0280   -2.0590   21.6240 C   0  0  0  0  0  0  0  0  0  0  0  0
    7.4550   -3.8620   23.5280 C   0  0  0  0  0  0  0  0  0  0  0  0
    9.2280   -2.6250   22.4490 C   0  0  2  0  0  0  0  0  0  0  0  0
    6.9500   -4.7500   24.6430 C   0  0  0  0  0  0  0  0  0  0  0  0
    8.7780   -3.4330   23.4800 C   0  0  0  0  0  0  0  0  0  0  0  0
   10.2190   -1.6590   22.7590 C   0  0  0  0  0  0  0  0  0  0  0  0
    7.9770   -5.1340   25.6780 C   0  0  0  0  0  0  0  0  0  0  0  0
    9.6800   -3.8270   24.4810 C   0  0  0  0  0  0  0  0  0  0  0  0
   11.6760   -1.9910   22.9300 C   0  0  0  0  0  0  0  0  0  0  0  0
    9.9710   -0.3230   22.9310 C   0  0  0  0  0  0  0  0  0  0  0  0
    9.2900   -4.6540   25.5410 C   0  0  0  0  0  0  0  0  0  0  0  0
   12.7390   -0.9370   23.2350 C   0  0  0  0  0  0  0  0  0  0  0  0
   10.9100    0.6580   23.1970 C   0  0  0  0  0  0  0  0  0  0  0  0
    8.6680    0.2520   22.8500 N   0  0  0  0  0  0  0  0  0  0  0  0
   10.1430   -4.9570   26.3640 O   0  0  0  0  0  0  0  0  0  0  0  0
   12.2490    0.4970   23.3550 C   0  0  0  0  0  0  0  0  0  0  0  0
    8.5520    0.6940   21.5010 C   0  0  0  0  0  0  0  0  0  0  0  0
   13.0820    1.3240   23.5730 O   0  0  0  0  0  0  0  0  0  0  0  0
    8.8960    1.8010   21.1090 O   0  0  0  0  0  0  0  0  0  0  0  0
    8.0440   -0.2560   20.7340 N   0  0  0  0  0  0  0  0  0  0  0  0
    6.9060    0.1780   20.0100 C   0  0  0  0  0  0  0  0  0  0  0  0
    7.0100    0.0670   18.6590 C   0  0  0  0  0  0  0  0  0  0  0  0
    5.7420    0.6970   20.5560 C   0  0  0  0  0  0  0  0  0  0  0  0
    6.0770    0.4330   17.7840 N   0  0  0  0  0  0  0  0  0  0  0  0
    4.6920    1.1120   19.7240 C   0  0  0  0  0  0  0  0  0  0  0  0
    4.8360    0.9950   18.3450 C   0  0  0  0  0  0  0  0  0  0  0  0
    3.5020    1.6430   20.2530 C   0  0  0  0  0  0  0  0  0  0  0  0
    3.5610    2.2570   21.6400 C   0  0  0  0  0  0  0  0  0  0  0  0
    2.8310    3.5830   21.5050 C   0  0  0  0  0  0  0  0  0  0  0  0
    1.4210    3.2910   21.9940 C   0  0  0  0  0  0  0  0  0  0  0  0
    0.4000    3.6370   21.1730 O   0  0  0  0  0  0  0  0  0  0  0  0
    1.2760    2.7070   23.2060 O   0  0  0  0  0  0  0  0  0  0  0  0
  1  2  1  0
  2  3  2  0
  2  4  1  0
  4  5  1  0
  4  6  1  0
  5  7  1  0
  6  8  1  0
  7  9  1  0
  7 10  2  0
  8 10  1  0
  8 11  1  1
  9 12  2  0
 10 13  1  0
 11 14  2  0
 11 15  1  0
 12 16  1  0
 13 16  2  0
 14 17  1  0
 15 18  2  0
 15 19  1  0
 16 20  1  0
 17 21  2  0
 18 21  1  0
 19 22  1  0
 21 23  1  0
 22 24  2  0
 22 25  1  0
 25 26  1  0
 26 27  2  0
 26 28  1  0
 27 29  1  0
 28 30  2  0
 29 31  2  0
 30 31  1  0
 30 32  1  0
 32 33  1  0
 33 34  1  0
 34 35  1  0
 35 36  2  0
 35 37  1  0
M  END
