JAN-GHE-bf40f168-2-vinylsulfonamide
     RDKit          3D

 35 38  0  0  0  0  0  0  0  0999 V2000
    7.3550   -3.1060   19.0460 C   0  0  0  0  0  0  0  0  0  0  0  0
    7.1720   -3.0690   20.5350 C   0  0  0  0  0  0  0  0  0  0  0  0
    5.8650   -4.1990   20.8980 S   0  0  0  0  0  0  0  0  0  0  0  0
    4.8930   -3.4680   21.6520 O   0  0  0  0  0  0  0  0  0  0  0  0
    5.4130   -4.8410   19.6930 O   0  0  0  0  0  0  0  0  0  0  0  0
    6.5180   -5.3760   21.8740 N   0  0  0  0  0  0  0  0  0  0  0  0
    7.3820   -5.0220   23.0300 C   0  0  0  0  0  0  0  0  0  0  0  0
    5.5210   -6.3260   22.2820 C   0  0  0  0  0  0  0  0  0  0  0  0
    6.3100   -4.4810   24.0320 C   0  0  0  0  0  0  0  0  0  0  0  0
    4.6940   -5.6470   23.1840 C   0  0  0  0  0  0  0  0  0  0  0  0
    5.3950   -5.5500   24.5210 N   0  0  0  0  0  0  0  0  0  0  0  0
    4.6620   -5.3920   26.0360 S   0  0  0  0  0  0  0  0  0  0  0  0
    3.9410   -6.6300   26.2120 O   0  0  0  0  0  0  0  0  0  0  0  0
    5.7090   -5.0010   26.9500 O   0  0  0  0  0  0  0  0  0  0  0  0
    3.5030   -4.0530   25.8760 C   0  0  0  0  0  0  0  0  0  0  0  0
    2.1710   -4.2450   26.2960 C   0  0  0  0  0  0  0  0  0  0  0  0
    3.8190   -2.7690   25.3570 C   0  0  0  0  0  0  0  0  0  0  0  0
    1.2050   -3.2410   26.2320 C   0  0  0  0  0  0  0  0  0  0  0  0
    2.8610   -1.7780   25.3020 C   0  0  0  0  0  0  0  0  0  0  0  0
    5.1820   -2.4310   24.8660 C   0  0  0  0  0  0  0  0  0  0  0  0
    1.5650   -2.0020   25.7360 C   0  0  0  0  0  0  0  0  0  0  0  0
    5.8280   -2.1630   26.1600 C   0  0  0  0  0  0  0  0  0  0  0  0
    5.7900   -2.3710   23.5890 C   0  0  0  0  0  0  0  0  0  0  0  0
    7.2630   -1.8300   26.0050 C   0  0  0  0  0  0  0  0  0  0  0  0
    7.1500   -2.0690   23.4850 C   0  0  0  0  0  0  0  0  0  0  0  0
    7.9090   -1.8150   24.6100 C   0  0  0  0  0  0  0  0  0  0  0  0
    9.2850   -1.5180   24.7480 N   0  0  0  0  0  0  0  0  0  0  0  0
   10.2340   -1.5410   23.8240 C   0  0  0  0  0  0  0  0  0  0  0  0
   10.0240   -2.2900   22.7230 C   0  0  0  0  0  0  0  0  0  0  0  0
   11.4090   -0.7570   24.1310 N   0  0  0  0  0  0  0  0  0  0  0  0
   11.0700   -2.3000   21.8170 C   0  0  0  0  0  0  0  0  0  0  0  0
   12.4070   -0.7700   23.2670 C   0  0  0  0  0  0  0  0  0  0  0  0
   12.3170   -1.5040   22.1250 C   0  0  0  0  0  0  0  0  0  0  0  0
   13.3720   -1.6110   21.1130 C   0  0  0  0  0  0  0  0  0  0  0  0
   13.4020   -2.9980   20.7450 N   0  0  0  0  0  0  0  0  0  0  0  0
  1  2  1  0
  3  2  1  0
  3  4  2  0
  3  5  2  0
  3  6  1  0
  6  7  1  0
  6  8  1  0
  7  9  1  0
  8 10  1  0
  9 11  1  0
 10 11  1  0
 11 12  1  0
 12 13  2  0
 12 14  2  0
 12 15  1  0
 15 16  2  0
 15 17  1  0
 16 18  1  0
 17 19  2  0
 17 20  1  0
 18 21  2  0
 19 21  1  0
 20 22  2  0
 20 23  1  0
 22 24  1  0
 23 25  2  0
 24 26  2  0
 25 26  1  0
 26 27  1  0
 27 28  1  0
 28 29  2  0
 28 30  1  0
 29 31  1  0
 30 32  2  0
 31 33  2  0
 32 33  1  0
 33 34  1  0
 34 35  3  0
M  END
