JAN-GHE-d851b096-1-acrylamide
     RDKit          3D

 23 24  0  0  0  0  0  0  0  0999 V2000
    6.5860   -4.2060   20.1300 C   0  0  0  0  0  0  0  0  0  0  0  0
    5.9010   -2.8650   20.0740 C   0  0  0  0  0  0  0  0  0  0  0  0
    5.5040   -2.5750   21.4800 C   0  0  0  0  0  0  0  0  0  0  0  0
    4.5160   -3.2000   21.9380 O   0  0  0  0  0  0  0  0  0  0  0  0
    6.3030   -1.6360   22.1970 N   0  0  0  0  0  0  0  0  0  0  0  0
    7.1760   -0.7440   21.4040 N   0  0  0  0  0  0  0  0  0  0  0  0
    8.3300   -0.2110   22.0010 C   0  0  0  0  0  0  0  0  0  0  0  0
    6.5440   -0.0780   20.2800 C   0  0  0  0  0  0  0  0  0  0  0  0
    9.0290    0.6830   21.5180 O   0  0  0  0  0  0  0  0  0  0  0  0
    8.7510   -0.7630   23.3800 C   0  0  0  0  0  0  0  0  0  0  0  0
    7.0700   -0.1840   18.9470 C   0  0  0  0  0  0  0  0  0  0  0  0
    5.3940    0.6950   20.4930 C   0  0  0  0  0  0  0  0  0  0  0  0
   10.2260   -0.9160   23.4730 C   0  0  0  0  0  0  0  0  0  0  0  0
    6.4830    0.4830   17.8000 N   0  0  0  0  0  0  0  0  0  0  0  0
    4.7540    1.3980   19.3050 C   0  0  0  0  0  0  0  0  0  0  0  0
    4.7920    0.8370   21.8840 C   0  0  0  0  0  0  0  0  0  0  0  0
   10.9710   -0.4600   24.7240 C   0  0  0  0  0  0  0  0  0  0  0  0
   10.8930   -1.4890   22.4090 C   0  0  0  0  0  0  0  0  0  0  0  0
    5.3010    1.3050   17.9030 C   0  0  0  0  0  0  0  0  0  0  0  0
   12.3360   -0.6520   24.7340 C   0  0  0  0  0  0  0  0  0  0  0  0
   12.2810   -1.6770   22.4450 C   0  0  0  0  0  0  0  0  0  0  0  0
   12.9540   -1.2440   23.6220 C   0  0  0  0  0  0  0  0  0  0  0  0
   13.0750   -2.3960   21.1270 Cl  0  0  0  0  0  0  0  0  0  0  0  0
  1  2  1  0
  2  3  1  0
  3  4  2  0
  3  5  1  0
  5  6  1  0
  6  7  1  0
  6  8  1  0
  7  9  2  0
  7 10  1  0
  8 11  2  0
  8 12  1  0
 10 13  1  0
 11 14  1  0
 12 15  2  0
 12 16  1  0
 13 17  2  0
 13 18  1  0
 14 19  2  0
 15 19  1  0
 17 20  1  0
 18 21  2  0
 20 22  2  0
 21 22  1  0
 21 23  1  0
M  END
