JAN-GHE-6413aaf8-2-nitrile
     RDKit          3D

 27 30  0  0  0  0  0  0  0  0999 V2000
    6.7080   -3.5700   19.4960 C   0  0  0  0  0  0  0  0  0  0  0  0
    5.4470   -3.5770   19.3130 N   0  0  0  0  0  0  0  0  0  0  0  0
    7.4530   -2.4370   19.6660 N   0  0  0  0  0  0  0  0  0  0  0  0
    6.8780   -1.1600   19.4730 C   0  0  0  0  0  0  0  0  0  0  0  0
    8.0120   -2.1040   20.9780 C   0  0  0  0  0  0  0  0  0  0  0  0
    7.1920   -0.7220   20.9080 C   0  0  0  0  0  0  0  0  0  0  0  0
    8.0330    0.5190   21.0570 N   0  0  0  0  0  0  0  0  0  0  0  0
    8.8830    0.5730   22.2710 C   0  0  0  0  0  0  0  0  0  0  0  0
    9.2240   -0.7140   22.7190 C   0  0  0  0  0  0  0  0  0  0  0  0
   10.5270   -1.2340   22.5070 C   0  0  0  0  0  0  0  0  0  0  0  0
    8.2690   -1.5480   23.3970 C   0  0  0  0  0  0  0  0  0  0  0  0
   10.8710   -2.5080   22.9340 C   0  0  0  0  0  0  0  0  0  0  0  0
    8.5360   -2.8410   23.8460 C   0  0  0  0  0  0  0  0  0  0  0  0
    6.9470   -1.3250   23.7540 N   0  0  0  0  0  0  0  0  0  0  0  0
    9.8170   -3.3000   23.6130 C   0  0  0  0  0  0  0  0  0  0  0  0
    7.2930   -3.3680   24.4750 C   0  0  0  0  0  0  0  0  0  0  0  0
    6.3340   -2.3190   24.3730 C   0  0  0  0  0  0  0  0  0  0  0  0
    7.2310   -4.7800   25.0650 C   0  0  0  0  0  0  0  0  0  0  0  0
    6.0450   -5.4420   24.7520 C   0  0  0  0  0  0  0  0  0  0  0  0
    4.9790   -4.4670   24.6330 N   0  0  0  0  0  0  0  0  0  0  0  0
    4.0450   -4.4960   23.6190 C   0  0  0  0  0  0  0  0  0  0  0  0
    4.3200   -4.4280   22.4140 O   0  0  0  0  0  0  0  0  0  0  0  0
    2.7410   -4.5950   24.0940 C   0  0  0  0  0  0  0  0  0  0  0  0
    2.1740   -3.6070   24.9680 C   0  0  0  0  0  0  0  0  0  0  0  0
    1.9130   -5.6500   23.7500 N   0  0  0  0  0  0  0  0  0  0  0  0
    0.9450   -4.2910   25.0290 C   0  0  0  0  0  0  0  0  0  0  0  0
    0.8060   -5.4390   24.3420 C   0  0  0  0  0  0  0  0  0  0  0  0
  1  2  2  3
  1  3  1  0
  3  4  1  0
  3  5  1  0
  4  6  1  0
  5  6  1  0
  6  7  1  0
  7  8  1  0
  8  9  1  0
  9 10  2  0
  9 11  1  0
 10 12  1  0
 11 13  2  0
 11 14  1  0
 12 15  2  0
 13 15  1  0
 13 16  1  0
 14 17  1  0
 16 17  2  0
 16 18  1  0
 18 19  1  0
 19 20  1  0
 20 21  1  0
 21 22  2  0
 21 23  1  0
 23 24  2  0
 23 25  1  0
 24 26  1  0
 25 27  1  0
 26 27  2  0
M  END
