JAN-GHE-1d98ec1c-1
     RDKit          3D

 24 26  0  0  0  0  0  0  0  0999 V2000
    6.3550   -1.9220   18.6390 C   0  0  0  0  0  0  0  0  0  0  0  0
    6.1390   -2.7960   19.8490 C   0  0  0  0  0  0  0  0  0  0  0  0
    5.5060   -3.8630   19.7250 O   0  0  0  0  0  0  0  0  0  0  0  0
    6.7110   -2.3750   21.0530 N   0  0  0  0  0  0  0  0  0  0  0  0
    6.4750   -3.1820   22.2620 C   0  0  0  0  0  0  0  0  0  0  0  0
    7.7240   -1.3120   21.1880 C   0  0  0  0  0  0  0  0  0  0  0  0
    7.8100   -3.4990   22.9690 C   0  0  0  0  0  0  0  0  0  0  0  0
    8.9220   -1.8220   21.7020 C   0  0  0  0  0  0  0  0  0  0  0  0
    8.7130   -2.3450   23.0730 N   0  0  0  0  0  0  0  0  0  0  0  0
   10.0280   -2.6530   23.6860 C   0  0  0  0  0  0  0  0  0  0  0  0
   10.8880   -1.4320   23.4960 C   0  0  0  0  0  0  0  0  0  0  0  0
   12.2230   -1.4610   23.0900 C   0  0  0  0  0  0  0  0  0  0  0  0
   10.3140   -0.1900   23.7180 C   0  0  0  0  0  0  0  0  0  0  0  0
   12.9460   -0.2790   22.8900 C   0  0  0  0  0  0  0  0  0  0  0  0
   10.9940    0.9880   23.5090 C   0  0  0  0  0  0  0  0  0  0  0  0
   12.3300    0.9490   23.0820 C   0  0  0  0  0  0  0  0  0  0  0  0
   10.3410    2.3660   23.7090 C   0  0  0  0  0  0  0  0  0  0  0  0
   13.0170    2.1530   22.8510 C   0  0  0  0  0  0  0  0  0  0  0  0
   11.1400    3.6330   23.4240 C   0  0  0  0  0  0  0  0  0  0  0  0
   12.4470    3.4490   23.0050 C   0  0  0  0  0  0  0  0  0  0  0  0
   10.3280    5.1410   23.6450 S   0  0  0  0  0  0  0  0  0  0  0  0
   11.4100    6.2260   22.9740 N   0  0  0  0  0  0  0  0  0  0  0  0
   10.2310    5.5270   25.0220 O   0  0  0  0  0  0  0  0  0  0  0  0
    9.1570    5.1600   22.8110 O   0  0  0  0  0  0  0  0  0  0  0  0
  1  2  1  0
  2  3  2  0
  2  4  1  0
  4  5  1  0
  4  6  1  0
  5  7  1  0
  6  8  1  0
  7  9  1  0
  8  9  1  0
  9 10  1  0
 10 11  1  0
 11 12  2  0
 11 13  1  0
 12 14  1  0
 13 15  2  0
 14 16  2  0
 15 16  1  0
 15 17  1  0
 16 18  1  0
 17 19  2  0
 18 20  2  0
 19 20  1  0
 19 21  1  0
 21 22  1  0
 21 23  2  0
 21 24  2  0
M  END
