JAN-GHE-bf40f168-8-vinylsulfonamide
     RDKit          3D

 33 35  0  0  0  0  0  0  0  0999 V2000
    8.2030   -4.1980   20.3220 C   0  0  0  0  0  0  0  0  0  0  0  0
    7.2840   -3.0310   20.1040 C   0  0  0  0  0  0  0  0  0  0  0  0
    5.7160   -3.5620   20.6640 S   0  0  0  0  0  0  0  0  0  0  0  0
    5.0180   -4.2240   19.5950 O   0  0  0  0  0  0  0  0  0  0  0  0
    5.1280   -2.4710   21.4030 O   0  0  0  0  0  0  0  0  0  0  0  0
    6.0860   -4.7600   21.7210 N   0  0  0  0  0  0  0  0  0  0  0  0
    5.0700   -5.1430   22.6660 C   0  0  0  0  0  0  0  0  0  0  0  0
    7.0710   -4.6190   22.8200 C   0  0  0  0  0  0  0  0  0  0  0  0
    5.8700   -4.5000   23.8090 C   0  0  0  0  0  0  0  0  0  0  0  0
    5.7770   -5.4260   24.8970 N   0  0  0  0  0  0  0  0  0  0  0  0
    5.1160   -4.9950   26.3750 S   0  0  0  0  0  0  0  0  0  0  0  0
    6.1980   -4.5120   27.1770 O   0  0  0  0  0  0  0  0  0  0  0  0
    4.3470   -6.1510   26.7670 O   0  0  0  0  0  0  0  0  0  0  0  0
    3.9990   -3.6530   26.1040 C   0  0  0  0  0  0  0  0  0  0  0  0
    2.6290   -4.0300   26.1650 C   0  0  0  0  0  0  0  0  0  0  0  0
    4.3180   -2.2500   25.8460 C   0  0  0  0  0  0  0  0  0  0  0  0
    2.2300   -5.2920   26.3770 F   0  0  0  0  0  0  0  0  0  0  0  0
    1.6430   -3.0770   26.0050 C   0  0  0  0  0  0  0  0  0  0  0  0
    3.2730   -1.3260   25.6950 C   0  0  0  0  0  0  0  0  0  0  0  0
    5.5960   -1.6850   25.7130 O   0  0  0  0  0  0  0  0  0  0  0  0
    1.9630   -1.7690   25.7850 C   0  0  0  0  0  0  0  0  0  0  0  0
    6.7640   -1.8550   26.5480 C   0  0  0  0  0  0  0  0  0  0  0  0
    7.4210   -0.5230   26.9940 C   0  0  0  0  0  0  0  0  0  0  0  0
    8.5480   -0.2330   25.9750 C   0  0  0  0  0  0  0  0  0  0  0  0
    9.5570    0.2540   25.5770 N   0  0  0  0  0  0  0  0  0  0  0  0
   10.3910   -0.3390   24.6680 C   0  0  0  0  0  0  0  0  0  0  0  0
   10.2570   -1.6290   24.1740 C   0  0  0  0  0  0  0  0  0  0  0  0
   11.4860    0.4400   24.1910 N   0  0  0  0  0  0  0  0  0  0  0  0
   11.1800   -2.1190   23.2530 C   0  0  0  0  0  0  0  0  0  0  0  0
   12.4180   -0.1510   23.2230 C   0  0  0  0  0  0  0  0  0  0  0  0
   12.2760   -1.4280   22.7480 C   0  0  0  0  0  0  0  0  0  0  0  0
   13.1910   -2.1070   21.7640 C   0  0  0  0  0  0  0  0  0  0  0  0
   13.7010   -1.3010   20.7080 N   0  0  0  0  0  0  0  0  0  0  0  0
  1  2  1  0
  3  2  1  0
  3  4  2  0
  3  5  2  0
  3  6  1  0
  6  7  1  0
  6  8  1  0
  7  9  1  0
  8  9  1  0
  9 10  1  0
 11 10  1  0
 11 12  2  0
 11 13  2  0
 11 14  1  0
 14 15  2  0
 14 16  1  0
 15 17  1  0
 15 18  1  0
 16 19  2  0
 16 20  1  0
 18 21  2  0
 19 21  1  0
 20 22  1  0
 22 23  1  0
 23 24  1  0
 24 25  1  0
 25 26  1  0
 26 27  2  0
 26 28  1  0
 27 29  1  0
 28 30  2  0
 29 31  2  0
 30 31  1  0
 31 32  1  0
 32 33  3  0
M  END
