JAN-GHE-6413aaf8-1-bromoalkyne
     RDKit          3D

 28 31  0  0  0  0  0  0  0  0999 V2000
    6.8900   -3.4970   19.7900 C   0  0  0  0  0  0  0  0  0  0  0  0
    6.2250   -2.8140   18.6280 C   0  0  0  0  0  0  0  0  0  0  0  0
    6.6270   -2.9250   21.0150 N   0  0  0  0  0  0  0  0  0  0  0  0
    6.2970   -3.5660   22.2880 C   0  0  0  0  0  0  0  0  0  0  0  0
    7.1780   -1.6020   21.2470 C   0  0  0  0  0  0  0  0  0  0  0  0
    7.5370   -3.6220   23.1550 C   0  0  0  0  0  0  0  0  0  0  0  0
    8.4570   -1.8120   21.7380 C   0  0  0  0  0  0  0  0  0  0  0  0
    8.3520   -2.3720   23.0990 N   0  0  0  0  0  0  0  0  0  0  0  0
    9.5990   -2.5430   23.6700 C   0  0  0  0  0  0  0  0  0  0  0  0
   10.5010   -1.5050   23.5850 C   0  0  0  0  0  0  0  0  0  0  0  0
   11.8420   -1.6550   23.1690 C   0  0  0  0  0  0  0  0  0  0  0  0
   10.1620   -0.1740   23.8920 C   0  0  0  0  0  0  0  0  0  0  0  0
   12.7550   -0.4740   23.0790 C   0  0  0  0  0  0  0  0  0  0  0  0
   11.0310    0.8900   23.7860 C   0  0  0  0  0  0  0  0  0  0  0  0
    8.9550    0.1390   24.3050 N   0  0  0  0  0  0  0  0  0  0  0  0
   12.3540    0.8260   23.3870 C   0  0  0  0  0  0  0  0  0  0  0  0
   10.1530    2.0700   24.2000 C   0  0  0  0  0  0  0  0  0  0  0  0
    8.9070    1.5070   24.5070 C   0  0  0  0  0  0  0  0  0  0  0  0
   10.4760    3.4140   24.2570 C   0  0  0  0  0  0  0  0  0  0  0  0
    9.2090    4.1940   24.4160 C   0  0  0  0  0  0  0  0  0  0  0  0
    8.5280    4.0640   23.1680 N   0  0  0  0  0  0  0  0  0  0  0  0
    9.3300    3.5610   22.1900 C   0  0  0  0  0  0  0  0  0  0  0  0
    8.9450    2.7540   21.3320 O   0  0  0  0  0  0  0  0  0  0  0  0
   10.6450    4.0830   22.3060 C   0  0  0  0  0  0  0  0  0  0  0  0
   11.8600    3.4210   22.3030 C   0  0  0  0  0  0  0  0  0  0  0  0
   10.9880    5.4340   22.4530 N   0  0  0  0  0  0  0  0  0  0  0  0
   12.8750    4.3130   22.4350 C   0  0  0  0  0  0  0  0  0  0  0  0
   12.3070    5.5910   22.5300 C   0  0  0  0  0  0  0  0  0  0  0  0
  1  2  2  3
  1  3  1  0
  3  4  1  0
  3  5  1  0
  4  6  1  0
  5  7  1  0
  6  8  1  0
  7  8  1  0
  8  9  1  0
  9 10  1  0
 10 11  2  0
 10 12  1  0
 11 13  1  0
 12 14  2  0
 12 15  1  0
 13 16  2  0
 14 16  1  0
 14 17  1  0
 15 18  1  0
 17 18  2  0
 17 19  1  0
 19 20  1  0
 20 21  1  0
 21 22  1  0
 22 23  2  0
 22 24  1  0
 24 25  2  0
 24 26  1  0
 25 27  1  0
 26 28  1  0
 27 28  2  0
M  END
