JAN-GHE-6413aaf8-3-acrylamide
     RDKit          3D

 29 32  0  0  0  0  0  0  0  0999 V2000
    6.4180   -4.4300   20.3700 C   0  0  0  0  0  0  0  0  0  0  0  0
    5.8010   -3.1190   20.8150 C   0  0  0  0  0  0  0  0  0  0  0  0
    5.1980   -3.2970   22.1900 C   0  0  0  0  0  0  0  0  0  0  0  0
    4.4350   -4.2150   22.4240 O   0  0  0  0  0  0  0  0  0  0  0  0
    5.5250   -2.3920   23.1700 N   0  0  0  0  0  0  0  0  0  0  0  0
    6.7310   -2.4900   23.9770 C   0  0  0  0  0  0  0  0  0  0  0  0
    7.2430   -1.2750   24.4590 C   0  0  0  0  0  0  0  0  0  0  0  0
    8.1010   -2.6100   23.1440 C   0  0  0  0  0  0  0  0  0  0  0  0
    8.4620   -1.2890   23.6880 N   0  0  0  0  0  0  0  0  0  0  0  0
    9.6450   -1.3850   24.5120 C   0  0  0  0  0  0  0  0  0  0  0  0
   10.7300   -0.7880   23.9160 C   0  0  0  0  0  0  0  0  0  0  0  0
   11.8640   -1.6040   23.3420 C   0  0  0  0  0  0  0  0  0  0  0  0
   10.9730    0.5660   23.7380 C   0  0  0  0  0  0  0  0  0  0  0  0
   13.0100   -1.0700   22.7320 C   0  0  0  0  0  0  0  0  0  0  0  0
   12.0950    1.1450   23.1350 C   0  0  0  0  0  0  0  0  0  0  0  0
   10.1940    1.6210   24.0990 N   0  0  0  0  0  0  0  0  0  0  0  0
   13.1630    0.4000   22.6240 C   0  0  0  0  0  0  0  0  0  0  0  0
   11.9080    2.5360   23.1550 C   0  0  0  0  0  0  0  0  0  0  0  0
   10.7190    2.8280   23.7650 C   0  0  0  0  0  0  0  0  0  0  0  0
   12.7150    3.7300   22.6500 C   0  0  0  0  0  0  0  0  0  0  0  0
   12.3210    4.9580   23.2070 C   0  0  0  0  0  0  0  0  0  0  0  0
   11.0500    5.4430   22.6620 N   0  0  0  0  0  0  0  0  0  0  0  0
   10.1750    6.0700   23.5280 C   0  0  0  0  0  0  0  0  0  0  0  0
   10.4130    6.2240   24.7220 O   0  0  0  0  0  0  0  0  0  0  0  0
    8.9900    6.5270   22.9390 C   0  0  0  0  0  0  0  0  0  0  0  0
    8.1440    5.8140   22.1300 C   0  0  0  0  0  0  0  0  0  0  0  0
    8.3990    7.7860   23.0370 N   0  0  0  0  0  0  0  0  0  0  0  0
    7.0970    6.6560   21.7650 C   0  0  0  0  0  0  0  0  0  0  0  0
    7.2760    7.8940   22.3510 C   0  0  0  0  0  0  0  0  0  0  0  0
  1  2  1  0
  2  3  1  0
  3  4  2  0
  3  5  1  0
  5  6  1  0
  6  7  1  0
  6  8  1  0
  7  9  1  0
  8  9  1  0
  9 10  1  0
 10 11  1  0
 11 12  2  0
 11 13  1  0
 12 14  1  0
 13 15  2  0
 13 16  1  0
 14 17  2  0
 15 17  1  0
 15 18  1  0
 16 19  1  0
 18 19  2  0
 18 20  1  0
 20 21  1  0
 21 22  1  0
 22 23  1  0
 23 24  2  0
 23 25  1  0
 25 26  2  0
 25 27  1  0
 26 28  1  0
 27 29  1  0
 28 29  2  0
M  END
