JAN-LUN-04aedcc0-2-nitrile
     RDKit          3D

 35 38  0  0  0  0  0  0  0  0999 V2000
    7.2640   -3.5110   19.8150 C   0  0  0  0  0  0  0  0  0  0  0  0
    6.3050   -3.2760   18.9860 N   0  0  0  0  0  0  0  0  0  0  0  0
    7.3270   -3.1390   21.1570 N   0  0  0  0  0  0  0  0  0  0  0  0
    6.7550   -3.8800   22.2730 C   0  0  0  0  0  0  0  0  0  0  0  0
    8.2080   -2.1330   21.5930 C   0  0  0  0  0  0  0  0  0  0  0  0
    7.8490   -4.2440   23.3050 C   0  0  2  0  0  0  0  0  0  0  0  0
    9.4650   -2.6680   22.3150 C   0  0  2  0  0  0  0  0  0  0  0  0
    6.9990   -4.1560   24.5910 C   0  0  0  0  0  0  0  0  0  0  0  0
    9.1630   -3.6660   23.2700 C   0  0  1  0  0  0  0  0  0  0  0  0
   10.3570   -1.6060   22.6230 C   0  0  0  0  0  0  0  0  0  0  0  0
    7.9130   -4.8310   25.6210 C   0  0  0  0  0  0  0  0  0  0  0  0
    9.7780   -3.4790   24.5100 C   0  0  0  0  0  0  0  0  0  0  0  0
   11.7390   -1.8690   22.5790 C   0  0  0  0  0  0  0  0  0  0  0  0
    9.9360   -0.2880   22.9580 C   0  0  0  0  0  0  0  0  0  0  0  0
    9.3950   -4.5520   25.5140 C   0  0  0  0  0  0  0  0  0  0  0  0
   12.7730   -0.7660   22.8780 C   0  0  0  0  0  0  0  0  0  0  0  0
   10.8270    0.7230   23.2360 C   0  0  0  0  0  0  0  0  0  0  0  0
    8.6550    0.0350   22.9890 N   0  0  0  0  0  0  0  0  0  0  0  0
   12.3450    0.6540   23.2360 C   0  0  0  0  0  0  0  0  0  0  0  0
    8.3580    0.5740   21.7960 C   0  0  0  0  0  0  0  0  0  0  0  0
   13.0920    1.5660   23.4700 O   0  0  0  0  0  0  0  0  0  0  0  0
    8.9110    1.5730   21.2710 O   0  0  0  0  0  0  0  0  0  0  0  0
    7.2900   -0.2150   21.2130 N   0  0  0  0  0  0  0  0  0  0  0  0
    6.5940    0.2270   20.1970 C   0  0  0  0  0  0  0  0  0  0  0  0
    6.9600   -0.0390   18.9140 C   0  0  0  0  0  0  0  0  0  0  0  0
    5.4670    0.9830   20.4440 C   0  0  0  0  0  0  0  0  0  0  0  0
    6.2150    0.4540   17.7950 N   0  0  0  0  0  0  0  0  0  0  0  0
    4.6500    1.5240   19.3890 C   0  0  0  0  0  0  0  0  0  0  0  0
    5.1320    1.1920   18.1020 C   0  0  0  0  0  0  0  0  0  0  0  0
    3.4990    2.3050   19.5280 C   0  0  0  0  0  0  0  0  0  0  0  0
    2.6110    1.9610   20.5610 C   0  0  0  0  0  0  0  0  0  0  0  0
    1.2020    2.5010   20.3900 C   0  0  0  0  0  0  0  0  0  0  0  0
    0.4100    1.6240   21.3460 C   0  0  0  0  0  0  0  0  0  0  0  0
    0.4840    1.6040   22.5620 O   0  0  0  0  0  0  0  0  0  0  0  0
   -0.4480    0.8020   20.6980 O   0  0  0  0  0  0  0  0  0  0  0  0
  1  2  2  3
  1  3  1  0
  3  4  1  0
  3  5  1  0
  6  4  1  6
  5  7  1  0
  6  8  1  0
  6  9  1  0
  7  9  1  0
  7 10  1  1
  8 11  1  0
  9 12  1  1
 10 13  2  0
 10 14  1  0
 11 15  1  0
 12 15  1  0
 13 16  1  0
 14 17  2  0
 14 18  1  0
 16 19  2  0
 17 19  1  0
 18 20  1  0
 19 21  1  0
 20 22  2  0
 20 23  1  0
 23 24  1  0
 24 25  2  0
 24 26  1  0
 25 27  1  0
 26 28  2  0
 27 29  2  0
 28 29  1  0
 28 30  1  0
 30 31  1  0
 31 32  1  0
 32 33  1  0
 33 34  2  0
 33 35  1  0
M  END
