JAN-GHE-1d98ec1c-9
     RDKit          3D

 24 25  0  0  0  0  0  0  0  0999 V2000
    6.0060   -1.9790   18.6090 C   0  0  0  0  0  0  0  0  0  0  0  0
    5.7760   -2.8510   19.8120 C   0  0  0  0  0  0  0  0  0  0  0  0
    5.3280   -4.0060   19.6910 O   0  0  0  0  0  0  0  0  0  0  0  0
    6.1400   -2.3110   21.0260 N   0  0  0  0  0  0  0  0  0  0  0  0
    7.1590   -1.2230   21.0180 C   0  0  0  0  0  0  0  0  0  0  0  0
    5.9130   -2.9390   22.3500 C   0  0  0  0  0  0  0  0  0  0  0  0
    8.4380   -1.6270   21.7720 C   0  0  0  0  0  0  0  0  0  0  0  0
    7.2520   -3.3720   22.9980 C   0  0  0  0  0  0  0  0  0  0  0  0
    8.1500   -2.2020   23.0790 N   0  0  0  0  0  0  0  0  0  0  0  0
    9.3150   -2.3700   23.9390 C   0  0  0  0  0  0  0  0  0  0  0  0
   10.8270   -1.3860   23.6680 S   0  0  0  0  0  0  0  0  0  0  0  0
   11.0440   -1.1720   22.2580 O   0  0  0  0  0  0  0  0  0  0  0  0
   11.8520   -1.9320   24.5280 O   0  0  0  0  0  0  0  0  0  0  0  0
   10.3710    0.0550   24.4000 N   0  0  0  0  0  0  0  0  0  0  0  0
   10.9660    1.2570   23.9330 C   0  0  0  0  0  0  0  0  0  0  0  0
   12.2340    1.2110   23.3620 C   0  0  0  0  0  0  0  0  0  0  0  0
   10.3100    2.5030   24.0380 C   0  0  0  0  0  0  0  0  0  0  0  0
   12.8340    2.3750   22.9050 C   0  0  0  0  0  0  0  0  0  0  0  0
   10.9420    3.6640   23.5700 C   0  0  0  0  0  0  0  0  0  0  0  0
   12.2030    3.5950   23.0000 C   0  0  0  0  0  0  0  0  0  0  0  0
   10.1530    5.2530   23.7020 S   0  0  0  0  0  0  0  0  0  0  0  0
    8.8300    5.0870   22.6790 N   0  0  0  0  0  0  0  0  0  0  0  0
    9.6010    5.4160   25.0260 O   0  0  0  0  0  0  0  0  0  0  0  0
   11.0420    6.2420   23.1370 O   0  0  0  0  0  0  0  0  0  0  0  0
  1  2  1  0
  2  3  2  0
  2  4  1  0
  4  5  1  0
  4  6  1  0
  5  7  1  0
  6  8  1  0
  7  9  1  0
  8  9  1  0
  9 10  1  0
 10 11  1  0
 11 12  2  0
 11 13  2  0
 11 14  1  0
 14 15  1  0
 15 16  2  0
 15 17  1  0
 16 18  1  0
 17 19  2  0
 18 20  2  0
 19 20  1  0
 19 21  1  0
 21 22  1  0
 21 23  2  0
 21 24  2  0
M  END
