JAN-GHE-fd8d85a5-6-chloroacetamide
     RDKit          3D

 23 24  0  0  0  0  0  0  0  0999 V2000
    8.1250   -3.9590   20.3010 C   0  0  0  0  0  0  0  0  0  0  0  0
    6.9580   -3.1140   20.2330 C   0  0  0  0  0  0  0  0  0  0  0  0
    6.0670   -3.2480   19.3350 O   0  0  0  0  0  0  0  0  0  0  0  0
    7.0850   -2.2090   21.4180 C   0  0  0  0  0  0  0  0  0  0  0  0
    8.1810   -1.4970   22.0040 C   0  0  0  0  0  0  0  0  0  0  0  0
    6.4100   -1.6630   22.4540 C   0  0  0  0  0  0  0  0  0  0  0  0
    9.3740   -1.1790   22.0070 N   0  0  0  0  0  0  0  0  0  0  0  0
    7.3350   -0.8200   23.3270 C   0  0  0  0  0  0  0  0  0  0  0  0
    8.8230   -0.5760   23.0920 C   0  0  0  0  0  0  0  0  0  0  0  0
    6.6720   -0.1970   24.5310 C   0  0  0  0  0  0  0  0  0  0  0  0
    9.5860    0.2250   23.9640 N   0  0  0  0  0  0  0  0  0  0  0  0
    5.2230   -0.4640   24.5540 N   0  0  0  0  0  0  0  0  0  0  0  0
   10.0640   -0.4410   25.1700 C   0  0  0  0  0  0  0  0  0  0  0  0
    4.6610   -0.1010   25.8640 C   0  0  0  0  0  0  0  0  0  0  0  0
    4.5730    0.2700   23.4620 C   0  0  0  0  0  0  0  0  0  0  0  0
    9.3850    0.0110   26.3030 C   0  0  0  0  0  0  0  0  0  0  0  0
    3.8380    1.1850   25.8670 C   0  0  0  0  0  0  0  0  0  0  0  0
    5.0560    1.7140   23.2170 C   0  0  0  0  0  0  0  0  0  0  0  0
    4.5940    2.4860   25.5670 C   0  0  0  0  0  0  0  0  0  0  0  0
    5.5110    2.4170   24.4240 N   0  0  0  0  0  0  0  0  0  0  0  0
    6.8010    2.9030   24.5860 C   0  0  0  0  0  0  0  0  0  0  0  0
    7.5760    2.3810   25.7690 C   0  0  0  0  0  0  0  0  0  0  0  0
    7.3100    3.7240   23.8190 O   0  0  0  0  0  0  0  0  0  0  0  0
  1  2  1  0
  2  3  2  0
  2  4  1  0
  4  5  2  0
  4  6  1  0
  5  7  1  0
  6  8  2  0
  7  9  2  0
  8  9  1  0
  8 10  1  0
  9 11  1  0
 10 12  1  0
 11 13  1  0
 12 14  1  0
 12 15  1  0
 13 16  1  0
 14 17  1  0
 15 18  1  0
 17 19  1  0
 18 20  1  0
 19 20  1  0
 20 21  1  0
 21 22  1  0
 21 23  2  0
M  END
