JAN-GHE-6413aaf8-5-vinylsulfonamide
     RDKit          3D

 27 29  0  0  0  0  0  0  0  0999 V2000
    7.9470   -3.2900   19.1600 C   0  0  0  0  0  0  0  0  0  0  0  0
    6.8310   -2.4440   18.6070 C   0  0  0  0  0  0  0  0  0  0  0  0
    5.5560   -2.3720   19.7900 S   0  0  0  0  0  0  0  0  0  0  0  0
    4.9300   -3.6630   19.6930 O   0  0  0  0  0  0  0  0  0  0  0  0
    4.8400   -1.1290   19.6380 O   0  0  0  0  0  0  0  0  0  0  0  0
    6.4580   -2.2510   21.1820 N   0  0  0  0  0  0  0  0  0  0  0  0
    7.4890   -1.2220   21.2410 C   0  0  0  0  0  0  0  0  0  0  0  0
    6.2180   -3.1470   22.3310 C   0  0  0  0  0  0  0  0  0  0  0  0
    8.7060   -1.7540   21.9270 C   0  0  0  0  0  0  0  0  0  0  0  0
    7.4990   -3.4570   23.1600 C   0  0  0  0  0  0  0  0  0  0  0  0
    8.3520   -2.2670   23.2680 N   0  0  0  0  0  0  0  0  0  0  0  0
    9.5150   -2.3640   24.0170 C   0  0  0  0  0  0  0  0  0  0  0  0
   10.5240   -1.4530   23.7510 C   0  0  0  0  0  0  0  0  0  0  0  0
   11.8240   -1.8460   23.3690 C   0  0  0  0  0  0  0  0  0  0  0  0
   10.2700   -0.0560   23.8360 C   0  0  0  0  0  0  0  0  0  0  0  0
   12.8220   -0.7480   23.0770 C   0  0  0  0  0  0  0  0  0  0  0  0
   11.2010    0.9250   23.5530 C   0  0  0  0  0  0  0  0  0  0  0  0
    9.1080    0.6310   24.1870 N   0  0  0  0  0  0  0  0  0  0  0  0
   12.4940    0.6260   23.1710 C   0  0  0  0  0  0  0  0  0  0  0  0
   10.5510    2.2840   23.7200 C   0  0  0  0  0  0  0  0  0  0  0  0
    9.2680    2.0040   24.1230 C   0  0  0  0  0  0  0  0  0  0  0  0
   11.1170    3.5340   23.4960 C   0  0  0  0  0  0  0  0  0  0  0  0
   12.4680    3.5040   22.8720 C   0  0  0  0  0  0  0  0  0  0  0  0
   13.2350    4.6240   23.3620 N   0  0  0  0  0  0  0  0  0  0  0  0
   12.9370    5.8270   22.8530 C   0  0  0  0  0  0  0  0  0  0  0  0
   13.1470    5.8020   21.5120 C   0  0  0  0  0  0  0  0  0  0  0  0
   12.5160    6.8030   23.4670 O   0  0  0  0  0  0  0  0  0  0  0  0
  1  2  1  0
  3  2  1  0
  3  4  2  0
  3  5  2  0
  3  6  1  0
  6  7  1  0
  6  8  1  0
  7  9  1  0
  8 10  1  0
  9 11  1  0
 10 11  1  0
 11 12  1  0
 12 13  1  0
 13 14  2  0
 13 15  1  0
 14 16  1  0
 15 17  2  0
 15 18  1  0
 16 19  2  0
 17 19  1  0
 17 20  1  0
 18 21  1  0
 20 21  2  0
 20 22  1  0
 22 23  1  0
 23 24  1  0
 24 25  1  0
 25 26  1  0
 25 27  2  0
M  END
