JAN-GHE-d851b096-2
     RDKit          3D

 24 26  0  0  0  0  0  0  0  0999 V2000
    9.2490    1.2840   21.3900 O   0  0  0  0  0  0  0  0  0  0  0  0
    8.8690    0.2580   21.9770 C   0  0  0  0  0  0  0  0  0  0  0  0
    7.9130   -0.5960   21.4740 N   0  0  0  0  0  0  0  0  0  0  0  0
    9.4110   -0.1120   23.2990 C   0  0  1  0  0  0  0  0  0  0  0  0
    6.8920    0.0320   20.7160 C   0  0  0  0  0  0  0  0  0  0  0  0
   10.6980   -0.6370   23.4210 C   0  0  0  0  0  0  0  0  0  0  0  0
    9.2720    1.0470   24.1840 N   0  0  0  0  0  0  0  0  0  0  0  0
    5.7080    0.4490   21.5880 C   0  0  0  0  0  0  0  0  0  0  0  0
    6.9450    0.2610   19.3820 C   0  0  0  0  0  0  0  0  0  0  0  0
   11.3650   -1.2090   22.3200 C   0  0  0  0  0  0  0  0  0  0  0  0
   11.3720   -0.6260   24.6540 C   0  0  0  0  0  0  0  0  0  0  0  0
    8.0160    1.2660   24.9700 C   0  0  0  0  0  0  0  0  0  0  0  0
    9.8320    2.4010   23.9180 C   0  0  0  0  0  0  0  0  0  0  0  0
    4.5260    1.1660   20.9260 C   0  0  0  0  0  0  0  0  0  0  0  0
    5.8180    0.9690   18.7150 C   0  0  0  0  0  0  0  0  0  0  0  0
   12.6450   -1.7430   22.4510 C   0  0  0  0  0  0  0  0  0  0  0  0
   12.6100   -1.1240   24.8580 N   0  0  0  0  0  0  0  0  0  0  0  0
    7.3230    0.4380   25.5630 O   0  0  0  0  0  0  0  0  0  0  0  0
    7.7490    2.6640   24.9020 C   0  0  0  0  0  0  0  0  0  0  0  0
    8.7470    3.3770   24.3060 C   0  0  0  0  0  0  0  0  0  0  0  0
   11.0560    2.9570   23.4380 O   0  0  0  0  0  0  0  0  0  0  0  0
    4.6070    1.4240   19.4470 C   0  0  0  0  0  0  0  0  0  0  0  0
    5.6970    1.3820   17.1230 Cl  0  0  0  0  0  0  0  0  0  0  0  0
   13.2480   -1.7020   23.6940 C   0  0  0  0  0  0  0  0  0  0  0  0
  1  2  2  0
  2  3  1  0
  4  2  1  6
  3  5  1  0
  4  6  1  0
  4  7  1  0
  5  8  2  0
  5  9  1  0
  6 10  2  0
  6 11  1  0
  7 12  1  0
  7 13  1  0
  8 14  1  0
  9 15  2  0
 10 16  1  0
 11 17  2  0
 12 18  2  0
 12 19  1  0
 13 20  1  0
 19 20  2  0
 13 21  2  0
 14 22  2  0
 15 22  1  0
 15 23  1  0
 16 24  2  0
 17 24  1  0
M  END
