JAN-GHE-d851b096-1-vinylsulfonamide
     RDKit          3D

 24 25  0  0  0  0  0  0  0  0999 V2000
    6.6370   -4.0350   20.0050 C   0  0  0  0  0  0  0  0  0  0  0  0
    5.9430   -2.7570   19.5990 C   0  0  0  0  0  0  0  0  0  0  0  0
    5.3800   -2.0920   21.1120 S   0  0  0  0  0  0  0  0  0  0  0  0
    4.6980   -3.2330   21.7550 O   0  0  0  0  0  0  0  0  0  0  0  0
    4.6660   -0.8800   20.8180 O   0  0  0  0  0  0  0  0  0  0  0  0
    6.8620   -1.5750   21.8300 N   0  0  0  0  0  0  0  0  0  0  0  0
    7.5120   -0.4950   21.0670 N   0  0  0  0  0  0  0  0  0  0  0  0
    8.5250    0.4140   21.6520 C   0  0  0  0  0  0  0  0  0  0  0  0
    6.6410    0.2290   20.1830 C   0  0  0  0  0  0  0  0  0  0  0  0
    8.9710    1.4480   21.1230 O   0  0  0  0  0  0  0  0  0  0  0  0
    8.9870   -0.0220   23.0230 C   0  0  0  0  0  0  0  0  0  0  0  0
    6.7910    0.2270   18.8470 C   0  0  0  0  0  0  0  0  0  0  0  0
    5.5450    1.0310   20.4660 C   0  0  0  0  0  0  0  0  0  0  0  0
   10.4440   -0.4990   23.0320 C   0  0  0  0  0  0  0  0  0  0  0  0
    6.4810    0.5450   17.8160 N   0  0  0  0  0  0  0  0  0  0  0  0
    4.8870    1.6290   19.1950 C   0  0  0  0  0  0  0  0  0  0  0  0
    5.0510    1.2960   21.7380 C   0  0  0  0  0  0  0  0  0  0  0  0
   11.2660    0.0260   24.1060 C   0  0  0  0  0  0  0  0  0  0  0  0
   10.9480   -1.3890   22.0900 C   0  0  0  0  0  0  0  0  0  0  0  0
    5.3150    1.4200   17.8550 C   0  0  0  0  0  0  0  0  0  0  0  0
   12.7040   -0.4460   24.2040 C   0  0  0  0  0  0  0  0  0  0  0  0
   12.2850   -1.7580   22.2490 C   0  0  0  0  0  0  0  0  0  0  0  0
   13.1440   -1.3340   23.2470 C   0  0  0  0  0  0  0  0  0  0  0  0
   12.9260   -2.8440   21.1050 Cl  0  0  0  0  0  0  0  0  0  0  0  0
  1  2  1  0
  2  3  1  0
  3  4  2  0
  3  5  2  0
  3  6  1  0
  6  7  1  0
  7  8  1  0
  7  9  1  0
  8 10  2  0
  8 11  1  0
  9 12  2  0
  9 13  1  0
 11 14  1  0
 12 15  1  0
 13 16  2  0
 13 17  1  0
 14 18  2  0
 14 19  1  0
 15 20  2  0
 16 20  1  0
 18 21  1  0
 19 22  2  0
 21 23  2  0
 22 23  1  0
 22 24  1  0
M  END
