JAN-GHE-6413aaf8-9-bromoalkyne
     RDKit          3D

 22 24  0  0  0  0  0  0  0  0999 V2000
    6.8350   -3.4420   19.7040 C   0  0  0  0  0  0  0  0  0  0  0  0
    5.8440   -2.8760   18.7700 C   0  0  0  0  0  0  0  0  0  0  0  0
    6.8240   -2.9360   20.9820 N   0  0  0  0  0  0  0  0  0  0  0  0
    7.1770   -1.5360   21.2080 C   0  0  0  0  0  0  0  0  0  0  0  0
    6.6370   -3.7330   22.1980 C   0  0  0  0  0  0  0  0  0  0  0  0
    8.4710   -1.4790   21.9560 C   0  0  0  0  0  0  0  0  0  0  0  0
    7.2910   -3.1210   23.2890 C   0  0  0  0  0  0  0  0  0  0  0  0
    8.6090   -2.6320   22.8750 N   0  0  0  0  0  0  0  0  0  0  0  0
    9.4710   -2.2920   23.9110 C   0  0  0  0  0  0  0  0  0  0  0  0
   10.5150   -1.4070   23.6540 C   0  0  0  0  0  0  0  0  0  0  0  0
   11.7990   -1.8390   23.3240 C   0  0  0  0  0  0  0  0  0  0  0  0
   10.3490    0.0210   23.6850 C   0  0  0  0  0  0  0  0  0  0  0  0
   12.8440   -0.8170   23.0350 C   0  0  0  0  0  0  0  0  0  0  0  0
   11.3430    0.9720   23.3980 C   0  0  0  0  0  0  0  0  0  0  0  0
    9.2770    0.8670   23.9650 N   0  0  0  0  0  0  0  0  0  0  0  0
   12.6300    0.5740   23.0670 C   0  0  0  0  0  0  0  0  0  0  0  0
   10.9650    2.4360   23.4480 C   0  0  0  0  0  0  0  0  0  0  0  0
    9.6040    2.3030   23.8380 C   0  0  0  0  0  0  0  0  0  0  0  0
   11.7830    3.5400   23.1580 C   0  0  0  0  0  0  0  0  0  0  0  0
   11.2500    4.8030   23.7900 C   0  0  0  0  0  0  0  0  0  0  0  0
    9.8500    5.0530   23.5020 N   0  0  0  0  0  0  0  0  0  0  0  0
   11.9000    5.5760   24.4840 O   0  0  0  0  0  0  0  0  0  0  0  0
  1  2  2  3
  1  3  1  0
  3  4  1  0
  3  5  1  0
  4  6  1  0
  5  7  1  0
  6  8  1  0
  7  8  1  0
  8  9  1  0
  9 10  1  0
 10 11  2  0
 10 12  1  0
 11 13  1  0
 12 14  2  0
 12 15  1  0
 13 16  2  0
 14 16  1  0
 14 17  1  0
 15 18  1  0
 17 18  2  0
 17 19  1  0
 19 20  1  0
 20 21  1  0
 20 22  2  0
M  END
