JAN-UNI-2e92c4b1-3-nitrile
     RDKit          3D

 19 20  0  0  0  0  0  0  0  0999 V2000
    7.4010   -3.4570   19.6280 C   0  0  0  0  0  0  0  0  0  0  0  0
    6.5750   -2.9530   18.7570 N   0  0  0  0  0  0  0  0  0  0  0  0
    8.4800   -2.6700   20.4690 C   0  0  0  0  0  0  0  0  0  0  0  0
    9.9780   -2.8520   20.2790 C   0  0  0  0  0  0  0  0  0  0  0  0
    8.3080   -1.7600   21.4800 C   0  0  0  0  0  0  0  0  0  0  0  0
   10.9800   -2.2160   20.9950 N   0  0  0  0  0  0  0  0  0  0  0  0
    9.4220   -1.1340   22.1910 C   0  0  0  0  0  0  0  0  0  0  0  0
   10.9020   -1.2650   22.0610 C   0  0  0  0  0  0  0  0  0  0  0  0
    8.9060   -0.2760   23.1570 C   0  0  0  0  0  0  0  0  0  0  0  0
   10.8250   -0.3250   23.1170 N   0  0  0  0  0  0  0  0  0  0  0  0
    8.1250   -1.0880   24.1210 N   0  0  0  0  0  0  0  0  0  0  0  0
   12.0000    0.5630   23.2760 C   0  0  0  0  0  0  0  0  0  0  0  0
    8.8230   -1.5740   25.2630 C   0  0  0  0  0  0  0  0  0  0  0  0
    7.0540   -1.9290   23.5730 C   0  0  0  0  0  0  0  0  0  0  0  0
   13.1950    0.0500   22.4850 C   0  0  0  0  0  0  0  0  0  0  0  0
    9.1370   -2.9270   25.2220 C   0  0  0  0  0  0  0  0  0  0  0  0
    7.2870   -3.4480   23.8630 C   0  0  0  0  0  0  0  0  0  0  0  0
    8.0120   -3.7390   25.0290 C   0  0  0  0  0  0  0  0  0  0  0  0
    7.1230   -3.4660   26.1120 O   0  0  0  0  0  0  0  0  0  0  0  0
  1  2  2  3
  1  3  1  0
  3  4  2  0
  3  5  1  0
  4  6  1  0
  5  7  2  0
  6  8  2  0
  7  8  1  0
  7  9  1  0
  8 10  1  0
  9 11  1  0
 10 12  1  0
 11 13  1  0
 11 14  1  0
 12 15  1  0
 13 16  1  0
 14 17  1  0
 16 18  1  0
 17 18  1  0
 18 19  1  0
M  END
