JAN-GHE-bf40f168-4-bromoalkyne
     RDKit          3D

 34 38  0  0  0  0  0  0  0  0999 V2000
    6.6940   -3.8690   19.6140 C   0  0  0  0  0  0  0  0  0  0  0  0
    5.8650   -2.9820   18.7570 C   0  0  0  0  0  0  0  0  0  0  0  0
    6.2690   -4.3030   20.8050 N   0  0  0  0  0  0  0  0  0  0  0  0
    6.4210   -3.4310   21.9390 C   0  0  0  0  0  0  0  0  0  0  0  0
    6.1290   -5.6830   21.2640 C   0  0  0  0  0  0  0  0  0  0  0  0
    7.0720   -4.4370   22.9150 C   0  0  2  0  0  0  0  0  0  0  0  0
    6.2760   -5.6900   22.6500 C   0  0  1  0  0  0  0  0  0  0  0  0
    6.6840   -4.1580   24.3080 C   0  0  0  0  0  0  0  0  0  0  0  0
    5.2240   -5.4480   23.5250 C   0  0  0  0  0  0  0  0  0  0  0  0
    5.8570   -5.3240   24.7380 N   0  0  0  0  0  0  0  0  0  0  0  0
    5.0090   -5.1990   26.1950 S   0  0  0  0  0  0  0  0  0  0  0  0
    5.9770   -4.8620   27.1980 O   0  0  0  0  0  0  0  0  0  0  0  0
    4.1960   -6.3870   26.2610 O   0  0  0  0  0  0  0  0  0  0  0  0
    3.9600   -3.8020   26.0190 C   0  0  0  0  0  0  0  0  0  0  0  0
    2.5800   -4.0320   25.8780 C   0  0  0  0  0  0  0  0  0  0  0  0
    4.3980   -2.4410   26.0170 C   0  0  0  0  0  0  0  0  0  0  0  0
    1.6810   -2.9710   25.7520 C   0  0  0  0  0  0  0  0  0  0  0  0
    3.4980   -1.3830   25.8920 C   0  0  0  0  0  0  0  0  0  0  0  0
    5.7670   -1.7290   26.1370 C   0  0  0  0  0  0  0  0  0  0  0  0
    2.1380   -1.6500   25.7620 C   0  0  0  0  0  0  0  0  0  0  0  0
    6.3100   -1.4920   24.7410 C   0  0  0  0  0  0  0  0  0  0  0  0
    6.4750   -1.3140   27.2860 C   0  0  0  0  0  0  0  0  0  0  0  0
    7.6580   -0.7840   24.7930 C   0  0  0  0  0  0  0  0  0  0  0  0
    7.7120   -0.6660   27.1860 C   0  0  0  0  0  0  0  0  0  0  0  0
    8.3220   -0.3940   25.9430 C   0  0  0  0  0  0  0  0  0  0  0  0
    9.5270    0.2440   25.8060 N   0  0  0  0  0  0  0  0  0  0  0  0
   10.3120   -0.1870   24.8410 C   0  0  0  0  0  0  0  0  0  0  0  0
   10.1120   -1.4850   24.3210 C   0  0  0  0  0  0  0  0  0  0  0  0
   11.3000    0.6250   24.3720 N   0  0  0  0  0  0  0  0  0  0  0  0
   11.0300   -1.9550   23.2220 C   0  0  0  0  0  0  0  0  0  0  0  0
   12.2040    0.1990   23.3170 C   0  0  0  0  0  0  0  0  0  0  0  0
   12.0950   -1.0480   22.7380 C   0  0  0  0  0  0  0  0  0  0  0  0
   12.9920   -1.4690   21.6710 C   0  0  0  0  0  0  0  0  0  0  0  0
   13.7660   -1.7610   20.6300 N   0  0  0  0  0  0  0  0  0  0  0  0
  1  2  2  3
  1  3  1  0
  3  4  1  0
  3  5  1  0
  6  4  1  6
  7  5  1  6
  6  7  1  0
  6  8  1  0
  7  9  1  0
  8 10  1  0
  9 10  1  0
 10 11  1  0
 11 12  2  0
 11 13  2  0
 11 14  1  0
 14 15  2  0
 14 16  1  0
 15 17  1  0
 16 18  2  0
 16 19  1  0
 17 20  2  0
 18 20  1  0
 19 21  2  0
 19 22  1  0
 21 23  1  0
 22 24  2  0
 23 25  2  0
 24 25  1  0
 25 26  1  0
 26 27  1  0
 27 28  2  0
 27 29  1  0
 28 30  1  0
 29 31  2  0
 30 32  2  0
 31 32  1  0
 32 33  1  0
 33 34  3  0
M  END
