JAN-UNI-2e92c4b1-3-acrylamide
     RDKit          3D

 21 22  0  0  0  0  0  0  0  0999 V2000
    7.8670   -4.6070   21.0460 C   0  0  0  0  0  0  0  0  0  0  0  0
    6.8550   -4.1430   21.7790 C   0  0  0  0  0  0  0  0  0  0  0  0
    6.1930   -2.9650   21.1480 C   0  0  0  0  0  0  0  0  0  0  0  0
    4.9210   -3.0790   20.9590 O   0  0  0  0  0  0  0  0  0  0  0  0
    7.0510   -1.7450   20.7000 C   0  0  0  0  0  0  0  0  0  0  0  0
    8.2100   -0.7780   20.7750 C   0  0  0  0  0  0  0  0  0  0  0  0
    8.1890   -1.6460   21.6360 C   0  0  0  0  0  0  0  0  0  0  0  0
    9.3520   -0.4400   21.4650 N   0  0  0  0  0  0  0  0  0  0  0  0
    8.6630   -2.3970   22.8430 C   0  0  0  0  0  0  0  0  0  0  0  0
    9.6140   -1.3240   22.5980 C   0  0  0  0  0  0  0  0  0  0  0  0
    9.5310   -2.6120   23.8620 C   0  0  0  0  0  0  0  0  0  0  0  0
   10.7360   -1.1060   23.3830 N   0  0  0  0  0  0  0  0  0  0  0  0
    9.0840   -3.3930   24.9020 N   0  0  0  0  0  0  0  0  0  0  0  0
   11.8720   -0.4270   22.7430 C   0  0  0  0  0  0  0  0  0  0  0  0
    9.4360   -4.8040   24.8950 C   0  0  0  0  0  0  0  0  0  0  0  0
    7.7350   -3.1430   25.3860 C   0  0  0  0  0  0  0  0  0  0  0  0
   12.6140   -1.3710   22.0070 C   0  0  0  0  0  0  0  0  0  0  0  0
    9.1970   -5.5240   26.2420 C   0  0  0  0  0  0  0  0  0  0  0  0
    7.6140   -3.5060   26.7120 C   0  0  0  0  0  0  0  0  0  0  0  0
    8.0830   -4.9310   27.1290 C   0  0  0  0  0  0  0  0  0  0  0  0
    8.3280   -4.8160   28.3160 O   0  0  0  0  0  0  0  0  0  0  0  0
  1  2  1  0
  2  3  1  0
  3  4  2  0
  3  5  1  0
  5  6  2  0
  5  7  1  0
  6  8  1  0
  7  9  2  0
  8 10  2  0
  9 10  1  0
  9 11  1  0
 10 12  1  0
 11 13  1  0
 12 14  1  0
 13 15  1  0
 13 16  1  0
 14 17  1  0
 15 18  1  0
 16 19  1  0
 18 20  1  0
 19 20  1  0
 20 21  1  0
M  END
