JAN-LUN-04aedcc0-4-acrylamide
     RDKit          3D

 37 41  0  0  0  0  0  0  0  0999 V2000
    8.0950   -3.2970   19.4060 C   0  0  0  0  0  0  0  0  0  0  0  0
    6.7770   -3.4380   19.7260 C   0  0  0  0  0  0  0  0  0  0  0  0
    6.4100   -3.9560   21.0950 C   0  0  0  0  0  0  0  0  0  0  0  0
    5.2400   -4.3060   21.3520 O   0  0  0  0  0  0  0  0  0  0  0  0
    7.3980   -4.0120   22.0590 N   0  0  0  0  0  0  0  0  0  0  0  0
    7.1500   -4.8650   23.2040 C   0  0  0  0  0  0  0  0  0  0  0  0
    8.4790   -3.0240   22.1790 C   0  0  0  0  0  0  0  0  0  0  0  0
    7.2750   -4.0610   24.4940 C   0  0  1  0  0  0  0  0  0  0  0  0
    8.7730   -2.4840   23.6090 C   0  0  1  0  0  0  0  0  0  0  0  0
    6.9060   -4.7860   25.7710 C   0  0  0  0  0  0  0  0  0  0  0  0
    8.4630   -3.3600   24.6400 C   0  0  2  0  0  0  0  0  0  0  0  0
   10.1610   -1.8100   23.6420 C   0  0  0  0  0  0  0  0  0  0  0  0
    7.9850   -5.3400   26.4930 C   0  0  0  0  0  0  0  0  0  0  0  0
    9.4820   -4.1730   25.0960 C   0  0  0  0  0  0  0  0  0  0  0  0
   11.2290   -2.1890   24.6720 C   0  0  0  0  0  0  0  0  0  0  0  0
   10.4800   -0.8220   22.7210 C   0  0  0  0  0  0  0  0  0  0  0  0
    9.2260   -4.6900   26.3550 C   0  0  0  0  0  0  0  0  0  0  0  0
   12.5750   -1.4680   24.6010 C   0  0  0  0  0  0  0  0  0  0  0  0
   11.7060   -0.2100   22.7170 C   0  0  0  0  0  0  0  0  0  0  0  0
    9.5900   -0.4610   21.8370 N   0  0  0  0  0  0  0  0  0  0  0  0
   12.7750   -0.4070   23.5110 C   0  0  0  0  0  0  0  0  0  0  0  0
    8.8470    0.7160   22.2210 C   0  0  0  0  0  0  0  0  0  0  0  0
   13.8880    0.2950   23.3130 O   0  0  0  0  0  0  0  0  0  0  0  0
    9.2440    1.9790   21.6740 O   0  0  0  0  0  0  0  0  0  0  0  0
    7.7230    0.5120   23.0130 N   0  0  0  0  0  0  0  0  0  0  0  0
    6.6370    0.8760   22.1820 C   0  0  0  0  0  0  0  0  0  0  0  0
    6.9190    1.0550   20.9030 C   0  0  0  0  0  0  0  0  0  0  0  0
    5.2510    1.1370   22.3150 N   0  0  0  0  0  0  0  0  0  0  0  0
    5.8890    1.4040   20.2550 C   0  0  0  0  0  0  0  0  0  0  0  0
    4.7670    1.4940   21.0220 C   0  0  0  0  0  0  0  0  0  0  0  0
    5.8830    1.6600   18.9970 C   0  0  0  0  0  0  0  0  0  0  0  0
    3.5270    1.8580   20.5610 N   0  0  0  0  0  0  0  0  0  0  0  0
    4.6460    2.0640   18.4280 C   0  0  0  0  0  0  0  0  0  0  0  0
    3.5110    2.1470   19.2040 C   0  0  0  0  0  0  0  0  0  0  0  0
    5.0500    2.2850   17.0540 C   0  0  0  0  0  0  0  0  0  0  0  0
    4.4300    3.2580   16.3320 O   0  0  0  0  0  0  0  0  0  0  0  0
    6.0840    1.4480   16.7530 O   0  0  0  0  0  0  0  0  0  0  0  0
  1  2  1  0
  2  3  1  0
  3  4  2  0
  3  5  1  0
  5  6  1  0
  5  7  1  0
  8  6  1  6
  7  9  1  0
  8 10  1  0
  8 11  1  0
  9 11  1  0
  9 12  1  6
 10 13  1  0
 11 14  1  6
 12 15  2  0
 12 16  1  0
 13 17  1  0
 14 17  1  0
 15 18  1  0
 16 19  2  0
 16 20  1  0
 18 21  2  0
 19 21  1  0
 20 22  1  0
 21 23  1  0
 22 24  2  0
 22 25  1  0
 25 26  1  0
 26 27  2  0
 26 28  1  0
 27 29  1  0
 28 30  1  0
 29 30  2  0
 29 31  1  0
 30 32  1  0
 31 33  2  0
 32 34  2  0
 33 34  1  0
 33 35  1  0
 35 36  2  0
 35 37  1  0
M  END
