JAN-GHE-d851b096-5-bromoalkyne
     RDKit          3D

 21 23  0  0  0  0  0  0  0  0999 V2000
    7.1190   -3.3530   19.9370 C   0  0  0  0  0  0  0  0  0  0  0  0
    5.7130   -3.4570   19.3730 C   0  0  0  0  0  0  0  0  0  0  0  0
    7.5050   -2.5340   21.0660 N   0  0  0  0  0  0  0  0  0  0  0  0
    8.0310   -3.0770   22.3320 C   0  0  0  0  0  0  0  0  0  0  0  0
    7.5590   -1.0480   21.0970 N   0  0  0  0  0  0  0  0  0  0  0  0
    9.4450   -2.5850   22.6990 C   0  0  0  0  0  0  0  0  0  0  0  0
    8.6920   -0.3370   21.7530 C   0  0  0  0  0  0  0  0  0  0  0  0
    6.7410   -0.2820   20.1480 C   0  0  0  0  0  0  0  0  0  0  0  0
    9.4400   -1.0660   22.9100 C   0  0  2  0  0  0  0  0  0  0  0  0
    9.0340    0.8020   21.4310 O   0  0  0  0  0  0  0  0  0  0  0  0
    5.5820    0.5330   20.4440 C   0  0  0  0  0  0  0  0  0  0  0  0
    7.0710   -0.2920   18.7980 C   0  0  0  0  0  0  0  0  0  0  0  0
   10.8020   -0.5130   23.1720 C   0  0  0  0  0  0  0  0  0  0  0  0
    4.8580    1.2570   19.4360 C   0  0  0  0  0  0  0  0  0  0  0  0
    6.3530    0.4220   17.8370 N   0  0  0  0  0  0  0  0  0  0  0  0
   11.8670   -1.0970   22.2290 C   0  0  0  0  0  0  0  0  0  0  0  0
   11.1260   -0.6540   24.5180 C   0  0  0  0  0  0  0  0  0  0  0  0
    5.2460    1.2070   18.1150 C   0  0  0  0  0  0  0  0  0  0  0  0
   12.6540   -2.0330   22.8700 C   0  0  0  0  0  0  0  0  0  0  0  0
   12.5060   -0.5900   24.7440 C   0  0  0  0  0  0  0  0  0  0  0  0
   12.9700   -1.8000   24.2080 C   0  0  0  0  0  0  0  0  0  0  0  0
  1  2  2  3
  1  3  1  0
  3  4  1  0
  3  5  1  0
  4  6  1  0
  5  7  1  0
  5  8  1  0
  6  9  1  0
  7  9  1  0
  7 10  2  0
  8 11  2  0
  8 12  1  0
  9 13  1  6
 11 14  1  0
 12 15  2  0
 13 16  1  0
 13 17  1  0
 14 18  2  0
 15 18  1  0
 16 19  1  0
 17 20  1  0
 19 21  1  0
 20 21  1  0
M  END
