JAN-GHE-bf40f168-8-acrylamide
     RDKit          3D

 32 34  0  0  0  0  0  0  0  0999 V2000
    7.3430   -2.9800   18.7830 C   0  0  0  0  0  0  0  0  0  0  0  0
    6.7930   -2.9340   20.1780 C   0  0  0  0  0  0  0  0  0  0  0  0
    6.1720   -4.2550   20.5150 C   0  0  0  0  0  0  0  0  0  0  0  0
    5.1720   -4.6700   19.9380 O   0  0  0  0  0  0  0  0  0  0  0  0
    6.8320   -4.9620   21.4690 N   0  0  0  0  0  0  0  0  0  0  0  0
    6.2150   -6.0100   22.2430 C   0  0  0  0  0  0  0  0  0  0  0  0
    7.5770   -4.4970   22.6370 C   0  0  0  0  0  0  0  0  0  0  0  0
    6.7470   -5.4550   23.5080 C   0  0  0  0  0  0  0  0  0  0  0  0
    5.5980   -4.8640   24.1620 N   0  0  0  0  0  0  0  0  0  0  0  0
    5.6520   -4.5280   25.7950 S   0  0  0  0  0  0  0  0  0  0  0  0
    6.9920   -4.1300   26.1030 O   0  0  0  0  0  0  0  0  0  0  0  0
    5.0140   -5.6710   26.4270 O   0  0  0  0  0  0  0  0  0  0  0  0
    4.5730   -3.1570   25.8530 C   0  0  0  0  0  0  0  0  0  0  0  0
    4.0500   -2.5230   24.7920 C   0  0  0  0  0  0  0  0  0  0  0  0
    4.2330   -2.6950   27.0410 C   0  0  0  0  0  0  0  0  0  0  0  0
    4.4050   -2.8550   23.5580 F   0  0  0  0  0  0  0  0  0  0  0  0
    3.1240   -1.4850   24.8920 C   0  0  0  0  0  0  0  0  0  0  0  0
    3.2970   -1.6760   27.2330 C   0  0  0  0  0  0  0  0  0  0  0  0
    4.9220   -3.3000   28.0010 O   0  0  0  0  0  0  0  0  0  0  0  0
    2.7170   -1.0640   26.1420 C   0  0  0  0  0  0  0  0  0  0  0  0
    6.3870   -2.7490   27.9670 C   0  0  0  0  0  0  0  0  0  0  0  0
    6.7730   -1.5150   26.9770 C   0  0  0  0  0  0  0  0  0  0  0  0
    8.3210   -1.6000   26.5820 C   0  0  0  0  0  0  0  0  0  0  0  0
    8.8830   -0.4190   25.8820 N   0  0  0  0  0  0  0  0  0  0  0  0
    9.9140   -0.6250   24.8950 C   0  0  0  0  0  0  0  0  0  0  0  0
    9.9500   -1.8150   24.1480 C   0  0  0  0  0  0  0  0  0  0  0  0
   10.9350    0.4070   24.6520 N   0  0  0  0  0  0  0  0  0  0  0  0
   10.9870   -1.9930   23.1820 C   0  0  0  0  0  0  0  0  0  0  0  0
   11.9250    0.2200   23.7280 C   0  0  0  0  0  0  0  0  0  0  0  0
   12.0530   -0.9210   22.9510 C   0  0  0  0  0  0  0  0  0  0  0  0
   13.1790   -1.0890   21.9570 C   0  0  0  0  0  0  0  0  0  0  0  0
   12.9950   -2.1120   20.9670 N   0  0  0  0  0  0  0  0  0  0  0  0
  1  2  1  0
  2  3  1  0
  3  4  2  0
  3  5  1  0
  5  6  1  0
  5  7  1  0
  6  8  1  0
  7  8  1  0
  8  9  1  0
 10  9  1  0
 10 11  2  0
 10 12  2  0
 10 13  1  0
 13 14  2  0
 13 15  1  0
 14 16  1  0
 14 17  1  0
 15 18  2  0
 15 19  1  0
 17 20  2  0
 18 20  1  0
 19 21  1  0
 21 22  1  0
 22 23  1  0
 23 24  1  0
 24 25  1  0
 25 26  2  0
 25 27  1  0
 26 28  1  0
 27 29  2  0
 28 30  2  0
 29 30  1  0
 30 31  1  0
 31 32  3  0
M  END
