JAN-GHE-bf40f168-7-chloroacetamide
     RDKit          3D

 31 33  0  0  0  0  0  0  0  0999 V2000
    7.0750   -3.2940   19.3820 C   0  0  0  0  0  0  0  0  0  0  0  0
    6.3360   -4.1560   20.3500 C   0  0  0  0  0  0  0  0  0  0  0  0
    5.3920   -4.8430   19.9790 O   0  0  0  0  0  0  0  0  0  0  0  0
    6.7710   -4.1680   21.6300 N   0  0  0  0  0  0  0  0  0  0  0  0
    6.8200   -5.3320   22.5400 C   0  0  0  0  0  0  0  0  0  0  0  0
    5.4090   -5.3670   23.1400 C   0  0  0  0  0  0  0  0  0  0  0  0
    7.2260   -5.0560   24.0250 C   0  0  0  0  0  0  0  0  0  0  0  0
    5.7970   -4.8330   24.4420 N   0  0  0  0  0  0  0  0  0  0  0  0
    5.0080   -5.0570   25.9210 S   0  0  0  0  0  0  0  0  0  0  0  0
    5.9920   -4.8950   26.9540 O   0  0  0  0  0  0  0  0  0  0  0  0
    4.1970   -6.2460   25.8300 O   0  0  0  0  0  0  0  0  0  0  0  0
    3.9620   -3.6520   25.9420 C   0  0  0  0  0  0  0  0  0  0  0  0
    2.7360   -3.7280   25.4010 C   0  0  0  0  0  0  0  0  0  0  0  0
    4.3020   -2.4530   26.4790 C   0  0  0  0  0  0  0  0  0  0  0  0
    2.3960   -4.8530   24.8660 F   0  0  0  0  0  0  0  0  0  0  0  0
    1.8270   -2.6810   25.3870 C   0  0  0  0  0  0  0  0  0  0  0  0
    3.4180   -1.3700   26.4890 C   0  0  0  0  0  0  0  0  0  0  0  0
    5.5490   -2.3490   27.0080 O   0  0  0  0  0  0  0  0  0  0  0  0
    2.1640   -1.4850   25.9390 C   0  0  0  0  0  0  0  0  0  0  0  0
    6.5720   -1.6080   26.2150 C   0  0  0  0  0  0  0  0  0  0  0  0
    7.4100   -0.5960   27.0380 C   0  0  0  0  0  0  0  0  0  0  0  0
    8.6410   -0.2660   26.1470 C   0  0  0  0  0  0  0  0  0  0  0  0
    9.3410    0.3780   25.4430 N   0  0  0  0  0  0  0  0  0  0  0  0
   10.2700   -0.1460   24.5690 C   0  0  0  0  0  0  0  0  0  0  0  0
   10.2670   -1.4160   23.9940 C   0  0  0  0  0  0  0  0  0  0  0  0
   11.3340    0.7130   24.2150 N   0  0  0  0  0  0  0  0  0  0  0  0
   11.2750   -1.8200   23.0930 C   0  0  0  0  0  0  0  0  0  0  0  0
   12.3620    0.2650   23.2850 C   0  0  0  0  0  0  0  0  0  0  0  0
   12.3370   -0.9770   22.7270 C   0  0  0  0  0  0  0  0  0  0  0  0
   13.4150   -1.3920   21.7610 C   0  0  0  0  0  0  0  0  0  0  0  0
   13.0440   -2.5110   20.9470 N   0  0  0  0  0  0  0  0  0  0  0  0
  1  2  1  0
  2  3  2  0
  2  4  1  0
  4  5  1  0
  5  6  1  0
  5  7  1  0
  6  8  1  0
  7  8  1  0
  8  9  1  0
  9 10  2  0
  9 11  2  0
  9 12  1  0
 12 13  2  0
 12 14  1  0
 13 15  1  0
 13 16  1  0
 14 17  2  0
 14 18  1  0
 16 19  2  0
 17 19  1  0
 18 20  1  0
 20 21  1  0
 21 22  1  0
 22 23  1  0
 23 24  1  0
 24 25  2  0
 24 26  1  0
 25 27  1  0
 26 28  2  0
 27 29  2  0
 28 29  1  0
 29 30  1  0
 30 31  3  0
M  END
