JAN-GHE-d851b096-5-acrylamide
     RDKit          3D

 23 25  0  0  0  0  0  0  0  0999 V2000
    6.7700   -3.7670   20.0010 C   0  0  0  0  0  0  0  0  0  0  0  0
    6.8320   -3.3380   21.4740 C   0  0  0  0  0  0  0  0  0  0  0  0
    5.6140   -2.5060   21.8260 C   0  0  0  0  0  0  0  0  0  0  0  0
    5.0500   -3.4970   21.3470 O   0  0  0  0  0  0  0  0  0  0  0  0
    6.6380   -1.6510   22.2710 N   0  0  0  0  0  0  0  0  0  0  0  0
    6.9160   -1.3300   23.6780 C   0  0  0  0  0  0  0  0  0  0  0  0
    7.3200   -0.7480   21.3520 N   0  0  0  0  0  0  0  0  0  0  0  0
    8.4260   -1.3890   24.0190 C   0  0  0  0  0  0  0  0  0  0  0  0
    8.5810   -0.1700   21.8490 C   0  0  0  0  0  0  0  0  0  0  0  0
    6.6080   -0.0860   20.3490 C   0  0  0  0  0  0  0  0  0  0  0  0
    9.2780   -1.1240   22.8420 C   0  0  1  0  0  0  0  0  0  0  0  0
    9.0640    0.9240   21.5490 O   0  0  0  0  0  0  0  0  0  0  0  0
    5.4460    0.7280   20.5450 C   0  0  0  0  0  0  0  0  0  0  0  0
    7.0330   -0.1880   19.0150 C   0  0  0  0  0  0  0  0  0  0  0  0
   10.6760   -0.5450   23.1930 C   0  0  0  0  0  0  0  0  0  0  0  0
    4.7930    1.3690   19.5040 C   0  0  0  0  0  0  0  0  0  0  0  0
    6.4310    0.4490   17.8190 N   0  0  0  0  0  0  0  0  0  0  0  0
   11.6210   -1.0690   22.3250 C   0  0  0  0  0  0  0  0  0  0  0  0
   11.1200   -0.6500   24.5120 C   0  0  0  0  0  0  0  0  0  0  0  0
    5.2590    1.2620   18.0760 C   0  0  0  0  0  0  0  0  0  0  0  0
   12.5070   -1.9890   22.8560 C   0  0  0  0  0  0  0  0  0  0  0  0
   12.4950   -0.5090   24.6860 C   0  0  0  0  0  0  0  0  0  0  0  0
   13.2010   -1.4390   23.9220 C   0  0  0  0  0  0  0  0  0  0  0  0
  1  2  1  0
  2  3  1  0
  3  4  2  0
  3  5  1  0
  5  6  1  0
  5  7  1  0
  6  8  1  0
  7  9  1  0
  7 10  1  0
  8 11  1  0
  9 11  1  0
  9 12  2  0
 10 13  2  0
 10 14  1  0
 11 15  1  1
 13 16  1  0
 14 17  2  0
 15 18  1  0
 15 19  1  0
 16 20  2  0
 17 20  1  0
 18 21  1  0
 19 22  1  0
 21 23  1  0
 22 23  1  0
M  END
