JAN-LUN-04aedcc0-6-vinylsulfonamide
     RDKit          3D

 38 42  0  0  0  0  0  0  0  0999 V2000
    7.8630   -3.3680   19.6730 C   0  0  0  0  0  0  0  0  0  0  0  0
    7.0700   -2.5130   19.0470 C   0  0  0  0  0  0  0  0  0  0  0  0
    5.7100   -2.6280   20.1130 S   0  0  0  0  0  0  0  0  0  0  0  0
    5.1240   -3.9390   19.8790 O   0  0  0  0  0  0  0  0  0  0  0  0
    4.9710   -1.3870   20.0390 O   0  0  0  0  0  0  0  0  0  0  0  0
    6.5220   -2.6620   21.5990 N   0  0  0  0  0  0  0  0  0  0  0  0
    5.8550   -3.2330   22.7530 C   0  0  0  0  0  0  0  0  0  0  0  0
    7.6330   -1.7350   21.8570 C   0  0  0  0  0  0  0  0  0  0  0  0
    6.9940   -3.6400   23.6650 C   0  0  0  0  0  0  0  0  0  0  0  0
    8.8080   -2.3770   22.6450 C   0  0  2  0  0  0  0  0  0  0  0  0
    6.5290   -4.5950   24.7270 C   0  0  0  0  0  0  0  0  0  0  0  0
    8.3180   -3.2580   23.6190 C   0  0  0  0  0  0  0  0  0  0  0  0
    9.5730   -1.2840   23.0860 C   0  0  0  0  0  0  0  0  0  0  0  0
    7.4960   -5.1350   25.7340 C   0  0  0  0  0  0  0  0  0  0  0  0
    9.1880   -3.7920   24.5810 C   0  0  0  0  0  0  0  0  0  0  0  0
   10.9520   -1.2200   22.4030 C   0  0  0  0  0  0  0  0  0  0  0  0
    9.1940   -0.2610   24.0720 C   0  0  0  0  0  0  0  0  0  0  0  0
    8.8120   -4.6920   25.6020 C   0  0  0  0  0  0  0  0  0  0  0  0
   11.8940   -0.1030   22.7460 C   0  0  0  0  0  0  0  0  0  0  0  0
   10.1210    0.7800   24.3590 C   0  0  0  0  0  0  0  0  0  0  0  0
    7.8400   -0.1760   24.8830 N   0  0  0  0  0  0  0  0  0  0  0  0
   11.4220    0.9260   23.7640 C   0  0  0  0  0  0  0  0  0  0  0  0
    7.1200    1.1590   25.2590 C   0  0  0  0  0  0  0  0  0  0  0  0
   12.2600    1.7740   23.9380 O   0  0  0  0  0  0  0  0  0  0  0  0
    7.3200    2.1720   24.6020 O   0  0  0  0  0  0  0  0  0  0  0  0
    6.2110    1.2270   26.3880 N   0  0  0  0  0  0  0  0  0  0  0  0
    4.6890    1.3660   26.2260 C   0  0  0  0  0  0  0  0  0  0  0  0
    4.1650    2.1570   25.2690 C   0  0  0  0  0  0  0  0  0  0  0  0
    3.5500    0.7320   26.9650 N   0  0  0  0  0  0  0  0  0  0  0  0
    2.8630    2.0770   25.2390 C   0  0  0  0  0  0  0  0  0  0  0  0
    2.3910    1.1680   26.3240 C   0  0  0  0  0  0  0  0  0  0  0  0
    2.2010    2.6790   24.3680 C   0  0  0  0  0  0  0  0  0  0  0  0
    0.9510    0.9090   26.4910 N   0  0  0  0  0  0  0  0  0  0  0  0
    0.9110    2.4320   24.3830 C   0  0  0  0  0  0  0  0  0  0  0  0
    0.2700    1.6290   25.3640 C   0  0  0  0  0  0  0  0  0  0  0  0
    0.3950    3.0860   23.2290 C   0  0  0  0  0  0  0  0  0  0  0  0
   -0.8510    2.8180   22.9170 O   0  0  0  0  0  0  0  0  0  0  0  0
    1.3360    3.8030   22.5670 O   0  0  0  0  0  0  0  0  0  0  0  0
  1  2  1  0
  3  2  1  0
  3  4  2  0
  3  5  2  0
  3  6  1  0
  6  7  1  0
  6  8  1  0
  7  9  1  0
  8 10  1  0
  9 11  1  0
  9 12  2  0
 10 12  1  0
 10 13  1  1
 11 14  2  0
 12 15  1  0
 13 16  2  0
 13 17  1  0
 14 18  1  0
 15 18  2  0
 16 19  1  0
 17 20  2  0
 17 21  1  0
 19 22  2  0
 20 22  1  0
 21 23  1  0
 22 24  1  0
 23 25  2  0
 23 26  1  0
 26 27  1  0
 27 28  2  0
 27 29  1  0
 28 30  1  0
 29 31  1  0
 30 31  2  0
 30 32  1  0
 31 33  1  0
 32 34  2  0
 33 35  2  0
 34 35  1  0
 34 36  1  0
 36 37  2  0
 36 38  1  0
M  END
