JAN-LUN-04aedcc0-4-chloroacetamide
     RDKit          3D

 36 40  0  0  0  0  0  0  0  0999 V2000
    7.1050   -3.1270   19.1520 C   0  0  0  0  0  0  0  0  0  0  0  0
    6.4540   -3.6970   20.1650 C   0  0  0  0  0  0  0  0  0  0  0  0
    5.5390   -4.5060   19.9400 O   0  0  0  0  0  0  0  0  0  0  0  0
    6.8530   -3.3650   21.4930 N   0  0  0  0  0  0  0  0  0  0  0  0
    6.1370   -4.0260   22.5920 C   0  0  0  0  0  0  0  0  0  0  0  0
    8.2100   -2.8480   21.8510 C   0  0  0  0  0  0  0  0  0  0  0  0
    7.2130   -4.4150   23.6070 C   0  0  2  0  0  0  0  0  0  0  0  0
    8.4310   -2.3980   23.3260 C   0  0  1  0  0  0  0  0  0  0  0  0
    6.4390   -5.0650   24.7320 C   0  0  0  0  0  0  0  0  0  0  0  0
    8.0750   -3.4690   24.1330 C   0  0  2  0  0  0  0  0  0  0  0  0
    9.7900   -2.0450   23.4870 C   0  0  0  0  0  0  0  0  0  0  0  0
    7.3400   -5.2250   25.9490 C   0  0  0  0  0  0  0  0  0  0  0  0
    9.0870   -4.0410   24.9100 C   0  0  0  0  0  0  0  0  0  0  0  0
   10.6110   -2.5430   24.6870 C   0  0  0  0  0  0  0  0  0  0  0  0
   10.4910   -1.2250   22.5920 C   0  0  0  0  0  0  0  0  0  0  0  0
    8.7100   -5.1980   25.5990 C   0  0  0  0  0  0  0  0  0  0  0  0
   12.0710   -2.1330   24.8040 C   0  0  0  0  0  0  0  0  0  0  0  0
   11.8240   -0.8690   22.7490 C   0  0  0  0  0  0  0  0  0  0  0  0
    9.9290   -0.6430   21.4080 N   0  0  0  0  0  0  0  0  0  0  0  0
   12.6710   -1.2350   23.7500 C   0  0  0  0  0  0  0  0  0  0  0  0
    8.8910    0.3380   21.6840 C   0  0  0  0  0  0  0  0  0  0  0  0
   13.7880   -0.8330   23.7230 O   0  0  0  0  0  0  0  0  0  0  0  0
    9.1580    1.5440   21.5150 O   0  0  0  0  0  0  0  0  0  0  0  0
    7.6910   -0.1280   22.0410 N   0  0  0  0  0  0  0  0  0  0  0  0
    6.8760    0.4500   21.0580 C   0  0  0  0  0  0  0  0  0  0  0  0
    5.7780    1.2140   21.3050 C   0  0  0  0  0  0  0  0  0  0  0  0
    7.1050    0.3450   19.6270 N   0  0  0  0  0  0  0  0  0  0  0  0
    5.2620    1.6600   20.1230 C   0  0  0  0  0  0  0  0  0  0  0  0
    6.1490    1.0790   19.0360 C   0  0  0  0  0  0  0  0  0  0  0  0
    4.2120    2.4500   19.8800 C   0  0  0  0  0  0  0  0  0  0  0  0
    5.9520    1.3230   17.6400 N   0  0  0  0  0  0  0  0  0  0  0  0
    3.9230    2.7820   18.5770 C   0  0  0  0  0  0  0  0  0  0  0  0
    4.7820    2.2330   17.5530 C   0  0  0  0  0  0  0  0  0  0  0  0
    2.7250    3.7010   18.3260 C   0  0  0  0  0  0  0  0  0  0  0  0
    2.4290    4.2860   17.2960 O   0  0  0  0  0  0  0  0  0  0  0  0
    1.9540    3.8310   19.4210 O   0  0  0  0  0  0  0  0  0  0  0  0
  1  2  1  0
  2  3  2  0
  2  4  1  0
  4  5  1  0
  4  6  1  0
  7  5  1  6
  6  8  1  0
  7  9  1  0
  7 10  1  0
  8 10  1  0
  8 11  1  6
  9 12  1  0
 10 13  1  6
 11 14  2  0
 11 15  1  0
 12 16  1  0
 13 16  1  0
 14 17  1  0
 15 18  2  0
 15 19  1  0
 17 20  2  0
 18 20  1  0
 19 21  1  0
 20 22  1  0
 21 23  2  0
 21 24  1  0
 24 25  1  0
 25 26  2  0
 25 27  1  0
 26 28  1  0
 27 29  1  0
 28 29  2  0
 28 30  1  0
 29 31  1  0
 30 32  2  0
 31 33  2  0
 32 33  1  0
 32 34  1  0
 34 35  2  0
 34 36  1  0
M  END
