JAN-GHE-83b26c96-19
     RDKit          3D

 17 18  0  0  0  0  0  0  0  0999 V2000
    9.1360    1.6410   21.3010 O   0  0  0  0  0  0  0  0  0  0  0  0
    8.7670    0.6360   21.9320 C   0  0  0  0  0  0  0  0  0  0  0  0
    7.7110   -0.0930   21.4650 N   0  0  0  0  0  0  0  0  0  0  0  0
    9.3080    0.1390   23.1110 N   0  0  0  0  0  0  0  0  0  0  0  0
    6.8750    0.3030   20.4100 C   0  0  0  0  0  0  0  0  0  0  0  0
   10.5490   -0.4480   23.2710 C   0  0  0  0  0  0  0  0  0  0  0  0
    5.7370    1.2570   20.5300 C   0  0  0  0  0  0  0  0  0  0  0  0
    7.1220   -0.2300   19.1370 C   0  0  0  0  0  0  0  0  0  0  0  0
   11.1160   -0.2240   24.4940 C   0  0  0  0  0  0  0  0  0  0  0  0
   11.0810   -1.1730   22.2460 C   0  0  0  0  0  0  0  0  0  0  0  0
    4.9450    1.6060   19.3570 C   0  0  0  0  0  0  0  0  0  0  0  0
    6.3550    0.1080   17.9920 N   0  0  0  0  0  0  0  0  0  0  0  0
   12.3950   -0.8050   24.7220 C   0  0  0  0  0  0  0  0  0  0  0  0
   12.4250   -1.8000   22.4520 C   0  0  0  0  0  0  0  0  0  0  0  0
    5.2760    1.0000   18.0140 C   0  0  0  0  0  0  0  0  0  0  0  0
   13.2390   -1.6770   23.7500 C   0  0  0  0  0  0  0  0  0  0  0  0
   13.0340   -2.6940   21.1380 Cl  0  0  0  0  0  0  0  0  0  0  0  0
  1  2  2  0
  2  3  1  0
  2  4  1  0
  3  5  1  0
  4  6  1  0
  5  7  2  0
  5  8  1  0
  6  9  2  0
  6 10  1  0
  7 11  1  0
  8 12  2  0
  9 13  1  0
 10 14  2  0
 11 15  2  0
 12 15  1  0
 13 16  2  0
 14 16  1  0
 14 17  1  0
M  END
