JAN-UNI-2e92c4b1-4-vinylsulfonamide
     RDKit          3D

 21 22  0  0  0  0  0  0  0  0999 V2000
    7.1360   -3.8510   20.5310 C   0  0  0  0  0  0  0  0  0  0  0  0
    7.5660   -2.9010   21.4440 C   0  0  0  0  0  0  0  0  0  0  0  0
    6.1480   -1.9600   21.9150 S   0  0  0  0  0  0  0  0  0  0  0  0
    4.8040   -2.8760   21.2460 O   0  0  0  0  0  0  0  0  0  0  0  0
    6.2260   -1.6600   23.3530 O   0  0  0  0  0  0  0  0  0  0  0  0
    7.1370   -0.3920   21.3910 C   0  0  0  0  0  0  0  0  0  0  0  0
    8.0930    0.8690   21.1080 C   0  0  0  0  0  0  0  0  0  0  0  0
    8.1040   -0.7580   22.5730 C   0  0  0  0  0  0  0  0  0  0  0  0
    8.7200    0.3170   22.1320 N   0  0  0  0  0  0  0  0  0  0  0  0
    9.3900   -0.1850   23.1820 C   0  0  0  0  0  0  0  0  0  0  0  0
    9.9060    0.9380   22.5960 C   0  0  0  0  0  0  0  0  0  0  0  0
    9.9970   -0.7880   24.2960 C   0  0  0  0  0  0  0  0  0  0  0  0
   11.0320    0.9580   23.5590 N   0  0  0  0  0  0  0  0  0  0  0  0
   11.3830   -1.2140   24.0120 N   0  0  0  0  0  0  0  0  0  0  0  0
   12.2730    1.4780   23.0100 C   0  0  0  0  0  0  0  0  0  0  0  0
   11.9260   -1.9120   22.9250 C   0  0  0  0  0  0  0  0  0  0  0  0
   13.1770    0.4380   22.8160 C   0  0  0  0  0  0  0  0  0  0  0  0
   13.1090   -2.6030   22.8300 C   0  0  0  0  0  0  0  0  0  0  0  0
   11.3420   -1.9950   21.8120 O   0  0  0  0  0  0  0  0  0  0  0  0
   13.1800   -3.1610   21.4420 C   0  0  0  0  0  0  0  0  0  0  0  0
   12.0490   -2.7520   20.8330 N   0  0  0  0  0  0  0  0  0  0  0  0
  1  2  1  0
  3  2  1  0
  3  4  2  0
  3  5  2  0
  3  6  1  0
  6  7  2  0
  6  8  1  0
  7  9  1  0
  8 10  2  0
  9 11  2  0
 10 11  1  0
 10 12  1  0
 11 13  1  0
 12 14  1  0
 13 15  1  0
 14 16  1  0
 15 17  1  0
 16 18  2  0
 16 19  1  0
 18 20  1  0
 19 21  1  0
 20 21  2  0
M  END
