JAN-GHE-d851b096-5-chloroacetamide
     RDKit          3D

 22 24  0  0  0  0  0  0  0  0999 V2000
    6.3850   -4.6120   20.4060 C   0  0  0  0  0  0  0  0  0  0  0  0
    6.7550   -3.2310   19.9550 C   0  0  0  0  0  0  0  0  0  0  0  0
    6.3540   -2.9010   18.8360 O   0  0  0  0  0  0  0  0  0  0  0  0
    7.5650   -2.4560   20.8830 N   0  0  0  0  0  0  0  0  0  0  0  0
    8.3580   -3.0710   21.9560 C   0  0  0  0  0  0  0  0  0  0  0  0
    7.4950   -0.9950   21.0820 N   0  0  0  0  0  0  0  0  0  0  0  0
    8.2790   -2.3450   23.2980 C   0  0  0  0  0  0  0  0  0  0  0  0
    8.6100   -0.3190   21.8140 C   0  0  0  0  0  0  0  0  0  0  0  0
    6.6990   -0.2120   20.1420 C   0  0  0  0  0  0  0  0  0  0  0  0
    9.0090   -1.0080   23.1620 C   0  0  2  0  0  0  0  0  0  0  0  0
    9.1940    0.7060   21.4810 O   0  0  0  0  0  0  0  0  0  0  0  0
    5.5600    0.6210   20.4370 C   0  0  0  0  0  0  0  0  0  0  0  0
    7.0370   -0.2330   18.7960 C   0  0  0  0  0  0  0  0  0  0  0  0
   10.4620   -1.2240   23.4090 C   0  0  0  0  0  0  0  0  0  0  0  0
    4.8520    1.3570   19.4300 C   0  0  0  0  0  0  0  0  0  0  0  0
    6.3370    0.4900   17.8360 N   0  0  0  0  0  0  0  0  0  0  0  0
   11.0090   -0.3770   24.5550 C   0  0  0  0  0  0  0  0  0  0  0  0
   11.2380   -1.1630   22.2780 C   0  0  0  0  0  0  0  0  0  0  0  0
    5.2440    1.2970   18.1080 C   0  0  0  0  0  0  0  0  0  0  0  0
   12.3900   -0.2210   24.4180 C   0  0  0  0  0  0  0  0  0  0  0  0
   12.4800   -1.7500   22.5020 C   0  0  0  0  0  0  0  0  0  0  0  0
   13.1150   -0.8240   23.3620 C   0  0  0  0  0  0  0  0  0  0  0  0
  1  2  1  0
  2  3  2  0
  2  4  1  0
  4  5  1  0
  4  6  1  0
  5  7  1  0
  6  8  1  0
  6  9  1  0
  7 10  1  0
  8 10  1  0
  8 11  2  0
  9 12  2  0
  9 13  1  0
 10 14  1  6
 12 15  1  0
 13 16  2  0
 14 17  1  0
 14 18  1  0
 15 19  2  0
 16 19  1  0
 17 20  1  0
 18 21  1  0
 20 22  1  0
 21 22  1  0
M  END
