JAN-GHE-6413aaf8-10-vinylsulfonamide
     RDKit          3D

 24 26  0  0  0  0  0  0  0  0999 V2000
    6.9320   -3.5090   19.5950 C   0  0  0  0  0  0  0  0  0  0  0  0
    7.1920   -2.8640   20.9340 C   0  0  0  0  0  0  0  0  0  0  0  0
    5.6590   -2.8930   21.8180 S   0  0  0  0  0  0  0  0  0  0  0  0
    5.0840   -4.1990   21.6850 O   0  0  0  0  0  0  0  0  0  0  0  0
    4.9390   -1.6780   21.5370 O   0  0  0  0  0  0  0  0  0  0  0  0
    6.1530   -2.8770   23.3930 N   0  0  0  0  0  0  0  0  0  0  0  0
    6.7980   -1.6750   23.8410 C   0  0  0  0  0  0  0  0  0  0  0  0
    6.9760   -3.9300   24.1180 C   0  0  0  0  0  0  0  0  0  0  0  0
    7.6590   -2.6090   24.5700 C   0  0  0  0  0  0  0  0  0  0  0  0
    9.0730   -2.6170   24.1020 N   0  0  0  0  0  0  0  0  0  0  0  0
    9.3220   -1.5160   23.3110 C   0  0  0  0  0  0  0  0  0  0  0  0
   10.5660   -0.9490   23.1000 C   0  0  0  0  0  0  0  0  0  0  0  0
   11.7160   -1.7040   22.8580 C   0  0  0  0  0  0  0  0  0  0  0  0
   10.6960    0.4610   23.1120 C   0  0  0  0  0  0  0  0  0  0  0  0
   12.9830   -0.9330   22.6360 C   0  0  0  0  0  0  0  0  0  0  0  0
   11.8640    1.1800   22.9040 C   0  0  0  0  0  0  0  0  0  0  0  0
    9.7480    1.4720   23.3190 N   0  0  0  0  0  0  0  0  0  0  0  0
   13.0380    0.4880   22.6690 C   0  0  0  0  0  0  0  0  0  0  0  0
   11.7500    2.7000   22.9430 C   0  0  0  0  0  0  0  0  0  0  0  0
   10.3670    2.8060   23.2220 C   0  0  0  0  0  0  0  0  0  0  0  0
   12.6890    3.7090   22.7520 C   0  0  0  0  0  0  0  0  0  0  0  0
   12.2370    4.9960   23.3940 C   0  0  0  0  0  0  0  0  0  0  0  0
   11.3760    5.7740   22.5470 N   0  0  0  0  0  0  0  0  0  0  0  0
   12.5140    5.3860   24.5110 O   0  0  0  0  0  0  0  0  0  0  0  0
  1  2  1  0
  3  2  1  0
  3  4  2  0
  3  5  2  0
  3  6  1  0
  6  7  1  0
  6  8  1  0
  7  9  1  0
  8  9  1  0
  9 10  1  0
 10 11  1  0
 11 12  1  0
 12 13  2  0
 12 14  1  0
 13 15  1  0
 14 16  2  0
 14 17  1  0
 15 18  2  0
 16 18  1  0
 16 19  1  0
 17 20  1  0
 19 20  2  0
 19 21  1  0
 21 22  1  0
 22 23  1  0
 22 24  2  0
M  END
