JAN-GHE-bf40f168-3-vinylsulfonamide
     RDKit          3D

 36 39  0  0  0  0  0  0  0  0999 V2000
    8.0330   -3.3360   19.1550 C   0  0  0  0  0  0  0  0  0  0  0  0
    6.8110   -2.4770   19.1010 C   0  0  0  0  0  0  0  0  0  0  0  0
    5.5040   -3.0080   20.1500 S   0  0  0  0  0  0  0  0  0  0  0  0
    4.7580   -3.8990   19.3320 O   0  0  0  0  0  0  0  0  0  0  0  0
    4.9850   -1.7810   20.7080 O   0  0  0  0  0  0  0  0  0  0  0  0
    5.9970   -3.9360   21.4230 N   0  0  0  0  0  0  0  0  0  0  0  0
    7.2880   -3.7360   22.1590 C   0  0  0  0  0  0  0  0  0  0  0  0
    5.6690   -5.3590   21.6880 C   0  0  0  0  0  0  0  0  0  0  0  0
    7.2940   -4.9460   23.1390 C   0  0  2  0  0  0  0  0  0  0  0  0
    6.0240   -5.7090   22.9330 C   0  0  1  0  0  0  0  0  0  0  0  0
    6.9590   -4.5380   24.5370 C   0  0  0  0  0  0  0  0  0  0  0  0
    4.9940   -5.4090   23.7610 C   0  0  0  0  0  0  0  0  0  0  0  0
    5.8130   -5.4150   25.0010 N   0  0  0  0  0  0  0  0  0  0  0  0
    5.1120   -5.0990   26.4830 S   0  0  0  0  0  0  0  0  0  0  0  0
    4.2790   -6.2520   26.7210 O   0  0  0  0  0  0  0  0  0  0  0  0
    6.1760   -4.7000   27.3650 O   0  0  0  0  0  0  0  0  0  0  0  0
    4.0480   -3.6890   26.2270 C   0  0  0  0  0  0  0  0  0  0  0  0
    2.6960   -3.9630   25.9620 C   0  0  0  0  0  0  0  0  0  0  0  0
    4.4800   -2.3230   26.2810 C   0  0  0  0  0  0  0  0  0  0  0  0
    2.1330   -5.2040   25.8740 F   0  0  0  0  0  0  0  0  0  0  0  0
    1.8150   -2.9210   25.7690 C   0  0  0  0  0  0  0  0  0  0  0  0
    3.5470   -1.2850   26.0780 C   0  0  0  0  0  0  0  0  0  0  0  0
    5.8240   -2.0150   26.5440 O   0  0  0  0  0  0  0  0  0  0  0  0
    2.2030   -1.5930   25.8230 C   0  0  0  0  0  0  0  0  0  0  0  0
    6.3740   -0.7470   26.0670 C   0  0  0  0  0  0  0  0  0  0  0  0
    7.6930   -0.4200   26.8080 C   0  0  0  0  0  0  0  0  0  0  0  0
    8.6720   -0.7500   25.6830 C   0  0  0  0  0  0  0  0  0  0  0  0
    9.5670    0.3110   25.3620 N   0  0  0  0  0  0  0  0  0  0  0  0
   10.4490   -0.1810   24.4290 C   0  0  0  0  0  0  0  0  0  0  0  0
   10.0390   -1.3490   23.8130 C   0  0  0  0  0  0  0  0  0  0  0  0
   11.7140    0.4830   24.1260 N   0  0  0  0  0  0  0  0  0  0  0  0
   10.8460   -1.9690   22.8610 C   0  0  0  0  0  0  0  0  0  0  0  0
   12.5150   -0.1190   23.1970 C   0  0  0  0  0  0  0  0  0  0  0  0
   12.1700   -1.3130   22.5420 C   0  0  0  0  0  0  0  0  0  0  0  0
   12.9770   -2.0640   21.5310 C   0  0  0  0  0  0  0  0  0  0  0  0
   13.7690   -1.2680   20.6560 N   0  0  0  0  0  0  0  0  0  0  0  0
  1  2  1  0
  3  2  1  0
  3  4  2  0
  3  5  2  0
  3  6  1  0
  6  7  1  0
  6  8  1  0
  9  7  1  6
 10  8  1  6
  9 10  1  0
  9 11  1  0
 10 12  1  0
 11 13  1  0
 12 13  1  0
 13 14  1  0
 14 15  2  0
 14 16  2  0
 14 17  1  0
 17 18  2  0
 17 19  1  0
 18 20  1  0
 18 21  1  0
 19 22  2  0
 19 23  1  0
 21 24  2  0
 22 24  1  0
 23 25  1  0
 25 26  1  0
 26 27  1  0
 27 28  1  0
 28 29  1  0
 29 30  2  0
 29 31  1  0
 30 32  1  0
 31 33  2  0
 32 34  2  0
 33 34  1  0
 34 35  1  0
 35 36  3  0
M  END
