JAN-GHE-83b26c96-21
     RDKit          3D

 18 19  0  0  0  0  0  0  0  0999 V2000
    4.6940    1.6570   21.2830 C   0  0  0  0  0  0  0  0  0  0  0  0
    5.6640    0.9190   20.4050 C   0  0  0  0  0  0  0  0  0  0  0  0
    4.8880    1.4890   19.2980 C   0  0  0  0  0  0  0  0  0  0  0  0
    6.7750    0.0840   20.3010 C   0  0  0  0  0  0  0  0  0  0  0  0
    5.3800    1.1070   17.9940 C   0  0  0  0  0  0  0  0  0  0  0  0
    7.1200   -0.2010   18.9660 C   0  0  0  0  0  0  0  0  0  0  0  0
    7.4590   -0.4070   21.4330 N   0  0  0  0  0  0  0  0  0  0  0  0
    6.4500    0.2960   17.8560 N   0  0  0  0  0  0  0  0  0  0  0  0
    8.4040    0.7040   22.2840 S   0  0  0  0  0  0  0  0  0  0  0  0
    8.8860    1.6810   21.3070 O   0  0  0  0  0  0  0  0  0  0  0  0
    7.7230    1.1220   23.4860 O   0  0  0  0  0  0  0  0  0  0  0  0
    9.8320   -0.2230   22.7440 C   0  0  0  0  0  0  0  0  0  0  0  0
    9.8220   -1.5080   23.1470 C   0  0  0  0  0  0  0  0  0  0  0  0
   11.0060    0.3870   22.6880 C   0  0  0  0  0  0  0  0  0  0  0  0
   10.9740   -2.2520   23.4830 C   0  0  0  0  0  0  0  0  0  0  0  0
   12.2640   -0.3410   23.0380 C   0  0  0  0  0  0  0  0  0  0  0  0
   12.4350   -1.7850   23.4820 C   0  0  0  0  0  0  0  0  0  0  0  0
   13.5410    0.6390   22.8860 Cl  0  0  0  0  0  0  0  0  0  0  0  0
  1  2  1  0
  2  3  2  0
  2  4  1  0
  3  5  1  0
  4  6  2  0
  4  7  1  0
  5  8  2  0
  6  8  1  0
  9  7  1  0
  9 10  2  0
  9 11  2  0
  9 12  1  0
 12 13  2  0
 12 14  1  0
 13 15  1  0
 14 16  2  0
 15 17  2  0
 16 17  1  0
 16 18  1  0
M  END
