JAN-GHE-6413aaf8-3-nitrile
     RDKit          3D

 27 30  0  0  0  0  0  0  0  0999 V2000
    7.2890   -3.6250   19.7590 C   0  0  0  0  0  0  0  0  0  0  0  0
    6.1440   -4.2240   19.7990 N   0  0  0  0  0  0  0  0  0  0  0  0
    7.5530   -2.4380   20.3990 N   0  0  0  0  0  0  0  0  0  0  0  0
    8.5600   -2.3340   21.4770 C   0  0  0  0  0  0  0  0  0  0  0  0
    8.6650   -0.9470   22.0880 C   0  0  0  0  0  0  0  0  0  0  0  0
    8.0480   -2.7720   22.9440 C   0  0  0  0  0  0  0  0  0  0  0  0
    8.3990   -1.4250   23.4150 N   0  0  0  0  0  0  0  0  0  0  0  0
    9.5940   -1.4930   24.2720 C   0  0  0  0  0  0  0  0  0  0  0  0
   10.7380   -0.8910   23.7220 C   0  0  0  0  0  0  0  0  0  0  0  0
   11.7990   -1.6980   23.2310 C   0  0  0  0  0  0  0  0  0  0  0  0
   10.8690    0.5380   23.6320 C   0  0  0  0  0  0  0  0  0  0  0  0
   12.9360   -1.1240   22.6910 C   0  0  0  0  0  0  0  0  0  0  0  0
   11.9780    1.1950   23.0950 C   0  0  0  0  0  0  0  0  0  0  0  0
   10.0160    1.5570   24.0120 N   0  0  0  0  0  0  0  0  0  0  0  0
   12.9830    0.3560   22.6540 C   0  0  0  0  0  0  0  0  0  0  0  0
   11.7080    2.6690   23.1660 C   0  0  0  0  0  0  0  0  0  0  0  0
   10.4300    2.7850   23.7740 C   0  0  0  0  0  0  0  0  0  0  0  0
   12.6810    3.7370   22.6410 C   0  0  0  0  0  0  0  0  0  0  0  0
   12.4830    5.0300   23.1410 C   0  0  0  0  0  0  0  0  0  0  0  0
   11.1790    5.5540   22.7200 N   0  0  0  0  0  0  0  0  0  0  0  0
   10.3360    6.1650   23.6270 C   0  0  0  0  0  0  0  0  0  0  0  0
   10.5560    6.1870   24.8300 O   0  0  0  0  0  0  0  0  0  0  0  0
    9.1980    6.7780   23.0990 C   0  0  0  0  0  0  0  0  0  0  0  0
    8.3250    7.6240   23.7330 C   0  0  0  0  0  0  0  0  0  0  0  0
    8.6850    6.6760   21.8080 N   0  0  0  0  0  0  0  0  0  0  0  0
    7.3340    8.0190   22.8970 C   0  0  0  0  0  0  0  0  0  0  0  0
    7.5740    7.4150   21.6950 C   0  0  0  0  0  0  0  0  0  0  0  0
  1  2  2  3
  1  3  1  0
  3  4  1  0
  4  5  1  0
  4  6  1  0
  5  7  1  0
  6  7  1  0
  7  8  1  0
  8  9  1  0
  9 10  2  0
  9 11  1  0
 10 12  1  0
 11 13  2  0
 11 14  1  0
 12 15  2  0
 13 15  1  0
 13 16  1  0
 14 17  1  0
 16 17  2  0
 16 18  1  0
 18 19  1  0
 19 20  1  0
 20 21  1  0
 21 22  2  0
 21 23  1  0
 23 24  2  0
 23 25  1  0
 24 26  1  0
 25 27  1  0
 26 27  2  0
M  END
