JAN-LUN-8953ce76-5
     RDKit          3D

 25 27  0  0  0  0  0  0  0  0999 V2000
    5.1040    2.1540   17.0810 O   0  0  0  0  0  0  0  0  0  0  0  0
    5.3210    1.3310   17.9280 C   0  0  0  0  0  0  0  0  0  0  0  0
    6.4370    0.5890   17.9360 O   0  0  0  0  0  0  0  0  0  0  0  0
    4.4450    1.0430   19.0610 C   0  0  0  0  0  0  0  0  0  0  0  0
    5.1090    1.7580   20.2440 C   0  0  0  0  0  0  0  0  0  0  0  0
    5.8100    0.7680   21.1800 C   0  0  0  0  0  0  0  0  0  0  0  0
    6.6360   -0.3260   20.5230 C   0  0  0  0  0  0  0  0  0  0  0  0
    5.7030    0.8230   22.5710 C   0  0  2  0  0  0  0  0  0  0  0  0
    7.3070   -1.3070   21.3570 C   0  0  0  0  0  0  0  0  0  0  0  0
    5.6440   -0.5390   23.0530 C   0  0  2  0  0  0  0  0  0  0  0  0
    4.4250    1.3240   22.9350 C   0  0  0  0  0  0  0  0  0  0  0  0
    6.7580   -1.4320   22.7280 N   0  0  0  0  0  0  0  0  0  0  0  0
    4.3660   -0.9930   22.7090 N   0  0  0  0  0  0  0  0  0  0  0  0
    3.5420    0.1280   23.0080 C   0  0  0  0  0  0  0  0  0  0  0  0
    3.8860    2.6650   23.2060 N   0  0  0  0  0  0  0  0  0  0  0  0
    2.5530    2.7770   23.5970 C   0  0  0  0  0  0  0  0  0  0  0  0
    2.1160    1.9720   24.6000 O   0  0  0  0  0  0  0  0  0  0  0  0
    1.8750    3.5510   23.0550 N   0  0  0  0  0  0  0  0  0  0  0  0
    0.5250    3.7520   23.5720 C   0  0  0  0  0  0  0  0  0  0  0  0
   -0.6000    2.7990   23.1440 C   0  0  0  0  0  0  0  0  0  0  0  0
    0.3060    4.8400   24.4630 C   0  0  0  0  0  0  0  0  0  0  0  0
   -1.9730    3.0910   23.7370 C   0  0  0  0  0  0  0  0  0  0  0  0
   -0.9700    5.1120   25.0150 C   0  0  0  0  0  0  0  0  0  0  0  0
   -2.0680    4.3000   24.6880 C   0  0  0  0  0  0  0  0  0  0  0  0
   -1.0760    6.0570   25.7680 O   0  0  0  0  0  0  0  0  0  0  0  0
  1  2  2  0
  2  3  1  0
  2  4  1  0
  4  5  1  0
  5  6  1  0
  6  7  2  0
  8  6  1  6
  7  9  1  0
  8 10  1  0
  8 11  1  0
  9 12  2  0
 10 12  1  6
 10 13  1  0
 11 14  2  0
 13 14  1  0
 11 15  1  0
 15 16  1  0
 16 17  2  0
 16 18  1  0
 18 19  1  0
 19 20  2  0
 19 21  1  0
 20 22  1  0
 21 23  2  0
 22 24  2  0
 23 24  1  0
 23 25  1  0
M  END
