JAN-GHE-d851b096-4-bromoalkyne
     RDKit          3D

 30 32  0  0  0  0  0  0  0  0999 V2000
    7.4740   -3.3520   19.8550 C   0  0  0  0  0  0  0  0  0  0  0  0
    5.9840   -3.5740   19.5100 C   0  0  0  0  0  0  0  0  0  0  0  0
    8.0510   -3.2290   21.1490 N   0  0  0  0  0  0  0  0  0  0  0  0
    8.9400   -2.1310   21.5170 C   0  0  0  0  0  0  0  0  0  0  0  0
    7.3450   -3.2190   22.4290 C   0  0  2  0  0  0  0  0  0  0  0  0
    8.4330   -0.7020   21.4450 C   0  0  0  0  0  0  0  0  0  0  0  0
   10.3300   -2.2860   22.0150 C   0  0  0  0  0  0  0  0  0  0  0  0
    6.1430   -2.5370   22.2900 C   0  0  0  0  0  0  0  0  0  0  0  0
    8.4330   -2.5100   23.2990 C   0  0  0  0  0  0  0  0  0  0  0  0
    9.4170    0.3930   21.9240 C   0  0  0  0  0  0  0  0  0  0  0  0
   11.1360   -1.2410   22.4210 C   0  0  0  0  0  0  0  0  0  0  0  0
    5.4480   -3.4060   21.7880 O   0  0  0  0  0  0  0  0  0  0  0  0
    5.4160   -1.6410   22.3650 N   0  0  0  0  0  0  0  0  0  0  0  0
    9.7740   -3.0710   23.5670 C   0  0  0  0  0  0  0  0  0  0  0  0
    8.2050   -1.2440   23.8780 C   0  0  0  0  0  0  0  0  0  0  0  0
   10.7970    0.1160   22.4330 C   0  0  0  0  0  0  0  0  0  0  0  0
    5.4090   -0.5070   21.4440 C   0  0  0  0  0  0  0  0  0  0  0  0
   10.7600   -2.3210   24.3610 C   0  0  0  0  0  0  0  0  0  0  0  0
    9.1020   -0.5300   24.6270 N   0  0  0  0  0  0  0  0  0  0  0  0
   11.7970    0.4990   22.8600 N   0  0  0  0  0  0  0  0  0  0  0  0
    5.3040    0.7270   22.1720 C   0  0  0  0  0  0  0  0  0  0  0  0
    5.4840   -0.4940   20.0280 C   0  0  0  0  0  0  0  0  0  0  0  0
   10.4410   -1.1250   24.8530 C   0  0  0  0  0  0  0  0  0  0  0  0
   13.0460    0.0160   22.4950 C   0  0  0  0  0  0  0  0  0  0  0  0
    5.2670    1.9930   21.5270 C   0  0  0  0  0  0  0  0  0  0  0  0
    5.4480    0.7500   19.3770 C   0  0  0  0  0  0  0  0  0  0  0  0
   13.1690   -1.2370   21.8660 C   0  0  0  0  0  0  0  0  0  0  0  0
   14.0410    0.6610   22.7020 O   0  0  0  0  0  0  0  0  0  0  0  0
    5.3360    2.0360   20.1570 C   0  0  0  0  0  0  0  0  0  0  0  0
    5.5200    0.9970   17.6500 Cl  0  0  0  0  0  0  0  0  0  0  0  0
  1  2  2  3
  1  3  1  0
  3  4  1  0
  3  5  1  0
  4  6  2  0
  4  7  1  0
  5  8  1  6
  5  9  1  0
  6 10  1  0
  7 11  2  0
  8 12  2  0
  8 13  1  0
  9 14  2  0
  9 15  1  0
 10 16  2  0
 11 16  1  0
 13 17  1  0
 14 18  1  0
 15 19  2  0
 16 20  1  0
 17 21  2  0
 17 22  1  0
 18 23  2  0
 19 23  1  0
 20 24  1  0
 21 25  1  0
 22 26  2  0
 24 27  1  0
 24 28  2  0
 25 29  2  0
 26 29  1  0
 26 30  1  0
M  END
