JAN-GHE-6413aaf8-6-bromoalkyne
     RDKit          3D

 28 31  0  0  0  0  0  0  0  0999 V2000
    6.8620   -3.5390   19.8170 C   0  0  0  0  0  0  0  0  0  0  0  0
    6.2020   -2.8390   18.6630 C   0  0  0  0  0  0  0  0  0  0  0  0
    6.6030   -2.9840   21.0470 N   0  0  0  0  0  0  0  0  0  0  0  0
    6.2020   -3.6100   22.3030 C   0  0  0  0  0  0  0  0  0  0  0  0
    7.1210   -1.6540   21.3000 C   0  0  0  0  0  0  0  0  0  0  0  0
    7.2320   -3.2470   23.3470 C   0  0  0  0  0  0  0  0  0  0  0  0
    8.4310   -1.7670   21.7460 C   0  0  0  0  0  0  0  0  0  0  0  0
    8.5340   -2.8570   22.7410 N   0  0  0  0  0  0  0  0  0  0  0  0
    9.4940   -2.6120   23.7040 C   0  0  0  0  0  0  0  0  0  0  0  0
   10.4570   -1.6400   23.4890 C   0  0  0  0  0  0  0  0  0  0  0  0
   11.8330   -1.9340   23.3720 C   0  0  0  0  0  0  0  0  0  0  0  0
   10.1900   -0.2620   23.3540 C   0  0  0  0  0  0  0  0  0  0  0  0
   12.8430   -0.8590   23.1360 C   0  0  0  0  0  0  0  0  0  0  0  0
   11.1610    0.6950   23.1360 C   0  0  0  0  0  0  0  0  0  0  0  0
    8.9600    0.2220   23.4260 N   0  0  0  0  0  0  0  0  0  0  0  0
   12.5180    0.4860   23.0160 C   0  0  0  0  0  0  0  0  0  0  0  0
   10.3650    1.9860   23.0720 C   0  0  0  0  0  0  0  0  0  0  0  0
    9.0410    1.5920   23.2560 C   0  0  0  0  0  0  0  0  0  0  0  0
   10.8470    3.2520   22.8830 C   0  0  0  0  0  0  0  0  0  0  0  0
   10.2560    4.0840   23.9930 C   0  0  0  0  0  0  0  0  0  0  0  0
    9.8930    5.4260   23.6100 N   0  0  0  0  0  0  0  0  0  0  0  0
   10.3010    6.4520   24.4060 C   0  0  0  0  0  0  0  0  0  0  0  0
    9.5430    7.1480   25.0700 O   0  0  0  0  0  0  0  0  0  0  0  0
   11.6720    6.6330   24.3830 C   0  0  2  0  0  0  0  0  0  0  0  0
   12.0770    7.0870   23.1680 C   0  0  0  0  0  0  0  0  0  0  0  0
   12.4330    5.4940   24.4750 N   0  0  0  0  0  0  0  0  0  0  0  0
   12.7310    6.0990   22.5000 C   0  0  0  0  0  0  0  0  0  0  0  0
   12.6560    4.9610   23.2870 C   0  0  0  0  0  0  0  0  0  0  0  0
  1  2  2  3
  1  3  1  0
  3  4  1  0
  3  5  1  0
  4  6  1  0
  5  7  1  0
  6  8  1  0
  7  8  1  0
  8  9  1  0
  9 10  1  0
 10 11  2  0
 10 12  1  0
 11 13  1  0
 12 14  2  0
 12 15  1  0
 13 16  2  0
 14 16  1  0
 14 17  1  0
 15 18  1  0
 17 18  2  0
 17 19  1  0
 19 20  1  0
 20 21  1  0
 21 22  1  0
 22 23  2  0
 24 22  1  6
 24 25  1  0
 24 26  1  0
 25 27  1  0
 26 28  1  0
 27 28  1  0
M  END
