JAN-UNI-2e92c4b1-4-acrylamide
     RDKit          3D

 20 21  0  0  0  0  0  0  0  0999 V2000
    8.0750   -5.1050   20.4430 C   0  0  0  0  0  0  0  0  0  0  0  0
    7.5020   -3.8800   20.2750 C   0  0  0  0  0  0  0  0  0  0  0  0
    6.6130   -3.3750   21.3930 C   0  0  0  0  0  0  0  0  0  0  0  0
    5.1940   -3.6860   21.3690 O   0  0  0  0  0  0  0  0  0  0  0  0
    7.6130   -2.5370   22.3420 C   0  0  0  0  0  0  0  0  0  0  0  0
    9.0200   -2.5770   22.6490 C   0  0  0  0  0  0  0  0  0  0  0  0
    7.5830   -1.5200   23.1610 C   0  0  0  0  0  0  0  0  0  0  0  0
    8.5150   -1.4110   23.5020 N   0  0  0  0  0  0  0  0  0  0  0  0
    9.1460   -1.8740   23.3020 C   0  0  0  0  0  0  0  0  0  0  0  0
    9.6600   -0.9530   24.2000 C   0  0  0  0  0  0  0  0  0  0  0  0
    9.8870   -2.9040   22.6960 C   0  0  0  0  0  0  0  0  0  0  0  0
    9.1870    0.1200   24.9770 N   0  0  0  0  0  0  0  0  0  0  0  0
    9.8750   -4.1270   23.4110 N   0  0  0  0  0  0  0  0  0  0  0  0
    9.1750   -0.2940   26.3880 C   0  0  0  0  0  0  0  0  0  0  0  0
    8.8670   -4.3990   24.4700 C   0  0  0  0  0  0  0  0  0  0  0  0
    8.3750    0.5680   27.1360 C   0  0  0  0  0  0  0  0  0  0  0  0
    9.9140   -5.4330   25.1660 C   0  0  0  0  0  0  0  0  0  0  0  0
    8.6110   -5.0150   25.4880 O   0  0  0  0  0  0  0  0  0  0  0  0
    8.7770   -5.7270   26.3520 C   0  0  0  0  0  0  0  0  0  0  0  0
    7.5990   -5.0810   26.2720 N   0  0  0  0  0  0  0  0  0  0  0  0
  1  2  1  0
  2  3  1  0
  3  4  2  0
  3  5  1  0
  5  6  2  0
  5  7  1  0
  6  8  1  0
  7  9  2  0
  8 10  2  0
  9 10  1  0
  9 11  1  0
 10 12  1  0
 11 13  1  0
 12 14  1  0
 13 15  1  0
 14 16  1  0
 15 17  2  0
 15 18  1  0
 17 19  1  0
 18 20  1  0
 19 20  2  0
M  END
