JAN-GHE-bf40f168-2-bromoalkyne
     RDKit          3D

 32 35  0  0  0  0  0  0  0  0999 V2000
    6.7830   -4.5820   20.3490 C   0  0  0  0  0  0  0  0  0  0  0  0
    6.0570   -3.5280   19.5460 C   0  0  0  0  0  0  0  0  0  0  0  0
    6.4890   -4.9090   21.6700 N   0  0  0  0  0  0  0  0  0  0  0  0
    5.5510   -5.9910   22.0940 C   0  0  0  0  0  0  0  0  0  0  0  0
    7.4090   -4.6120   22.7570 C   0  0  0  0  0  0  0  0  0  0  0  0
    4.8590   -5.3410   23.3390 C   0  0  0  0  0  0  0  0  0  0  0  0
    6.5510   -4.0580   23.7130 C   0  0  0  0  0  0  0  0  0  0  0  0
    5.8340   -5.1650   24.4600 N   0  0  0  0  0  0  0  0  0  0  0  0
    5.2830   -4.9580   26.0580 S   0  0  0  0  0  0  0  0  0  0  0  0
    4.5340   -6.1620   26.3290 O   0  0  0  0  0  0  0  0  0  0  0  0
    6.4020   -4.5630   26.8610 O   0  0  0  0  0  0  0  0  0  0  0  0
    4.1290   -3.6350   25.9650 C   0  0  0  0  0  0  0  0  0  0  0  0
    2.8350   -3.9540   25.8240 C   0  0  0  0  0  0  0  0  0  0  0  0
    4.3840   -2.2910   26.0240 C   0  0  0  0  0  0  0  0  0  0  0  0
    1.7950   -3.0340   25.7450 C   0  0  0  0  0  0  0  0  0  0  0  0
    3.3690   -1.3290   25.9490 C   0  0  0  0  0  0  0  0  0  0  0  0
    5.7360   -1.6610   26.1760 C   0  0  0  0  0  0  0  0  0  0  0  0
    2.0590   -1.7020   25.8090 C   0  0  0  0  0  0  0  0  0  0  0  0
    6.2430   -1.3900   24.7750 C   0  0  0  0  0  0  0  0  0  0  0  0
    6.5180   -1.3030   27.3090 C   0  0  0  0  0  0  0  0  0  0  0  0
    7.6290   -0.7180   24.6730 C   0  0  0  0  0  0  0  0  0  0  0  0
    7.7860   -0.6830   27.1830 C   0  0  0  0  0  0  0  0  0  0  0  0
    8.3670   -0.3840   25.9310 C   0  0  0  0  0  0  0  0  0  0  0  0
    9.6440    0.2450   25.7000 N   0  0  0  0  0  0  0  0  0  0  0  0
   10.4470   -0.3110   24.7070 C   0  0  0  0  0  0  0  0  0  0  0  0
   10.0530   -1.5360   24.1950 C   0  0  0  0  0  0  0  0  0  0  0  0
   11.6440    0.4130   24.2700 N   0  0  0  0  0  0  0  0  0  0  0  0
   10.8680   -2.1140   23.2070 C   0  0  0  0  0  0  0  0  0  0  0  0
   12.4230   -0.1590   23.3180 C   0  0  0  0  0  0  0  0  0  0  0  0
   12.1200   -1.3920   22.7470 C   0  0  0  0  0  0  0  0  0  0  0  0
   12.9060   -2.1320   21.6970 C   0  0  0  0  0  0  0  0  0  0  0  0
   13.6780   -1.3250   20.8030 N   0  0  0  0  0  0  0  0  0  0  0  0
  1  2  2  3
  1  3  1  0
  3  4  1  0
  3  5  1  0
  4  6  1  0
  5  7  1  0
  6  8  1  0
  7  8  1  0
  8  9  1  0
  9 10  2  0
  9 11  2  0
  9 12  1  0
 12 13  2  0
 12 14  1  0
 13 15  1  0
 14 16  2  0
 14 17  1  0
 15 18  2  0
 16 18  1  0
 17 19  2  0
 17 20  1  0
 19 21  1  0
 20 22  2  0
 21 23  2  0
 22 23  1  0
 23 24  1  0
 24 25  1  0
 25 26  2  0
 25 27  1  0
 26 28  1  0
 27 29  2  0
 28 30  2  0
 29 30  1  0
 30 31  1  0
 31 32  3  0
M  END
