JAN-GHE-6413aaf8-9-vinylsulfonamide
     RDKit          3D

 25 27  0  0  0  0  0  0  0  0999 V2000
    7.9380   -3.2610   19.1010 C   0  0  0  0  0  0  0  0  0  0  0  0
    6.8010   -2.4280   18.5660 C   0  0  0  0  0  0  0  0  0  0  0  0
    5.5560   -2.3640   19.7770 S   0  0  0  0  0  0  0  0  0  0  0  0
    4.9320   -3.6580   19.6980 O   0  0  0  0  0  0  0  0  0  0  0  0
    4.8300   -1.1220   19.6420 O   0  0  0  0  0  0  0  0  0  0  0  0
    6.4990   -2.2420   21.1400 N   0  0  0  0  0  0  0  0  0  0  0  0
    6.2540   -3.0410   22.3580 C   0  0  0  0  0  0  0  0  0  0  0  0
    7.5060   -1.1820   21.1290 C   0  0  0  0  0  0  0  0  0  0  0  0
    7.5330   -3.2150   23.1620 C   0  0  0  0  0  0  0  0  0  0  0  0
    8.6130   -1.5620   21.8740 C   0  0  0  0  0  0  0  0  0  0  0  0
    8.2780   -1.9370   23.2330 N   0  0  0  0  0  0  0  0  0  0  0  0
    9.4210   -1.9990   24.0060 C   0  0  0  0  0  0  0  0  0  0  0  0
   10.5220   -1.1880   23.7120 C   0  0  0  0  0  0  0  0  0  0  0  0
   11.7710   -1.7380   23.3730 C   0  0  0  0  0  0  0  0  0  0  0  0
   10.4310    0.2470   23.7350 C   0  0  0  0  0  0  0  0  0  0  0  0
   12.8850   -0.7680   23.0700 C   0  0  0  0  0  0  0  0  0  0  0  0
   11.4720    1.1290   23.4500 C   0  0  0  0  0  0  0  0  0  0  0  0
    9.3850    1.1450   24.0150 N   0  0  0  0  0  0  0  0  0  0  0  0
   12.7160    0.6370   23.1150 C   0  0  0  0  0  0  0  0  0  0  0  0
   11.2060    2.6190   23.5130 C   0  0  0  0  0  0  0  0  0  0  0  0
    9.8340    2.5580   23.8850 C   0  0  0  0  0  0  0  0  0  0  0  0
   12.1050    3.6960   23.2730 C   0  0  0  0  0  0  0  0  0  0  0  0
   12.2220    4.3470   21.9380 C   0  0  0  0  0  0  0  0  0  0  0  0
   12.8830    5.6380   21.9820 N   0  0  0  0  0  0  0  0  0  0  0  0
   11.8390    3.8870   20.9110 O   0  0  0  0  0  0  0  0  0  0  0  0
  1  2  1  0
  3  2  1  0
  3  4  2  0
  3  5  2  0
  3  6  1  0
  6  7  1  0
  6  8  1  0
  7  9  1  0
  8 10  1  0
  9 11  1  0
 10 11  1  0
 11 12  1  0
 12 13  1  0
 13 14  2  0
 13 15  1  0
 14 16  1  0
 15 17  2  0
 15 18  1  0
 16 19  2  0
 17 19  1  0
 17 20  1  0
 18 21  1  0
 20 21  2  0
 20 22  1  0
 22 23  1  0
 23 24  1  0
 23 25  2  0
M  END
