JAN-GHE-bf40f168-5-bromoalkyne
     RDKit          3D

 31 34  0  0  0  0  0  0  0  0999 V2000
    6.7690   -4.5530   20.2790 C   0  0  0  0  0  0  0  0  0  0  0  0
    6.1290   -3.4640   19.4500 C   0  0  0  0  0  0  0  0  0  0  0  0
    6.4280   -4.8310   21.5790 N   0  0  0  0  0  0  0  0  0  0  0  0
    5.1870   -5.4160   22.0980 C   0  0  0  0  0  0  0  0  0  0  0  0
    7.1860   -5.5960   22.6100 C   0  0  0  0  0  0  0  0  0  0  0  0
    5.8710   -5.7530   23.4320 C   0  0  0  0  0  0  0  0  0  0  0  0
    5.7860   -4.7230   24.4630 N   0  0  0  0  0  0  0  0  0  0  0  0
    5.1500   -4.9620   26.0030 S   0  0  0  0  0  0  0  0  0  0  0  0
    4.4380   -6.2190   25.9690 O   0  0  0  0  0  0  0  0  0  0  0  0
    6.2160   -4.6900   26.9310 O   0  0  0  0  0  0  0  0  0  0  0  0
    3.9950   -3.6570   25.9890 C   0  0  0  0  0  0  0  0  0  0  0  0
    2.6300   -3.9830   26.1070 C   0  0  0  0  0  0  0  0  0  0  0  0
    4.3650   -2.2870   25.8540 C   0  0  0  0  0  0  0  0  0  0  0  0
    1.6560   -2.9890   26.1060 C   0  0  0  0  0  0  0  0  0  0  0  0
    3.3780   -1.2990   25.8570 C   0  0  0  0  0  0  0  0  0  0  0  0
    5.7810   -1.6840   25.6730 C   0  0  0  0  0  0  0  0  0  0  0  0
    2.0290   -1.6550   25.9860 C   0  0  0  0  0  0  0  0  0  0  0  0
    6.2940   -1.1120   26.9930 C   0  0  0  0  0  0  0  0  0  0  0  0
    6.5450   -1.6180   24.4900 C   0  0  0  0  0  0  0  0  0  0  0  0
    7.7010   -0.4550   26.9300 C   0  0  0  0  0  0  0  0  0  0  0  0
    7.8090   -1.0240   24.4420 C   0  0  0  0  0  0  0  0  0  0  0  0
    8.4100   -0.4520   25.5700 C   0  0  0  0  0  0  0  0  0  0  0  0
    9.6990    0.1770   25.5830 N   0  0  0  0  0  0  0  0  0  0  0  0
   10.5440   -0.3290   24.6210 C   0  0  0  0  0  0  0  0  0  0  0  0
   10.2170   -1.5910   24.1650 C   0  0  0  0  0  0  0  0  0  0  0  0
   11.6860    0.4580   24.1640 N   0  0  0  0  0  0  0  0  0  0  0  0
   11.0500   -2.1540   23.2030 C   0  0  0  0  0  0  0  0  0  0  0  0
   12.4890   -0.1090   23.2330 C   0  0  0  0  0  0  0  0  0  0  0  0
   12.2510   -1.3790   22.7150 C   0  0  0  0  0  0  0  0  0  0  0  0
   13.0610   -2.1210   21.6940 C   0  0  0  0  0  0  0  0  0  0  0  0
   13.7120   -1.3150   20.7110 N   0  0  0  0  0  0  0  0  0  0  0  0
  1  2  2  3
  1  3  1  0
  3  4  1  0
  3  5  1  0
  4  6  1  0
  5  6  1  0
  6  7  1  0
  8  7  1  0
  8  9  2  0
  8 10  2  0
  8 11  1  0
 11 12  2  0
 11 13  1  0
 12 14  1  0
 13 15  2  0
 13 16  1  0
 14 17  2  0
 15 17  1  0
 16 18  2  0
 16 19  1  0
 18 20  1  0
 19 21  2  0
 20 22  2  0
 21 22  1  0
 22 23  1  0
 23 24  1  0
 24 25  2  0
 24 26  1  0
 25 27  1  0
 26 28  2  0
 27 29  2  0
 28 29  1  0
 29 30  1  0
 30 31  3  0
M  END
