JAN-LUN-04aedcc0-2-acrylamide
     RDKit          3D

 37 40  0  0  0  0  0  0  0  0999 V2000
    7.4520   -2.9390   18.4420 C   0  0  0  0  0  0  0  0  0  0  0  0
    6.8630   -2.3490   19.4670 C   0  0  0  0  0  0  0  0  0  0  0  0
    6.3220   -3.2610   20.5370 C   0  0  0  0  0  0  0  0  0  0  0  0
    5.2910   -3.9770   20.3830 O   0  0  0  0  0  0  0  0  0  0  0  0
    7.0570   -3.2210   21.7130 N   0  0  0  0  0  0  0  0  0  0  0  0
    6.3070   -3.2330   22.9540 C   0  0  0  0  0  0  0  0  0  0  0  0
    8.4220   -2.6740   21.8500 C   0  0  0  0  0  0  0  0  0  0  0  0
    7.1690   -3.5380   24.1870 C   0  0  1  0  0  0  0  0  0  0  0  0
    8.7060   -2.0880   23.2400 C   0  0  1  0  0  0  0  0  0  0  0  0
    7.1200   -4.9510   24.7020 C   0  0  0  0  0  0  0  0  0  0  0  0
    8.4660   -3.0100   24.2350 C   0  0  2  0  0  0  0  0  0  0  0  0
   10.0670   -1.3580   23.2330 C   0  0  0  0  0  0  0  0  0  0  0  0
    7.9670   -5.1470   25.7980 C   0  0  0  0  0  0  0  0  0  0  0  0
    9.4900   -3.9320   24.4670 C   0  0  0  0  0  0  0  0  0  0  0  0
   11.3740   -2.0920   23.3450 C   0  0  0  0  0  0  0  0  0  0  0  0
   10.1300    0.0170   23.1210 C   0  0  0  0  0  0  0  0  0  0  0  0
    9.3030   -4.8220   25.5240 C   0  0  0  0  0  0  0  0  0  0  0  0
   12.6500   -1.2630   23.3080 C   0  0  0  0  0  0  0  0  0  0  0  0
   11.3210    0.7300   23.0860 C   0  0  0  0  0  0  0  0  0  0  0  0
    8.9900    0.6620   23.0450 N   0  0  0  0  0  0  0  0  0  0  0  0
   12.5870    0.2460   23.1580 C   0  0  0  0  0  0  0  0  0  0  0  0
    8.5800    0.8470   21.6910 C   0  0  0  0  0  0  0  0  0  0  0  0
   13.6850    1.0060   23.1020 O   0  0  0  0  0  0  0  0  0  0  0  0
    9.0660    1.9980   21.0490 O   0  0  0  0  0  0  0  0  0  0  0  0
    7.7490   -0.1040   21.1520 N   0  0  0  0  0  0  0  0  0  0  0  0
    6.7870    0.2490   20.1310 C   0  0  0  0  0  0  0  0  0  0  0  0
    7.0040    0.0770   18.7660 C   0  0  0  0  0  0  0  0  0  0  0  0
    5.5860    0.8020   20.5860 C   0  0  0  0  0  0  0  0  0  0  0  0
    5.9810    0.4980   17.8680 N   0  0  0  0  0  0  0  0  0  0  0  0
    4.5860    1.2080   19.6890 C   0  0  0  0  0  0  0  0  0  0  0  0
    4.8450    1.0360   18.3410 C   0  0  0  0  0  0  0  0  0  0  0  0
    3.2670    1.8140   20.1280 C   0  0  0  0  0  0  0  0  0  0  0  0
    3.6210    2.8750   21.1510 C   0  0  0  0  0  0  0  0  0  0  0  0
    4.0080    4.0650   20.2950 C   0  0  0  0  0  0  0  0  0  0  0  0
    3.5570    5.2330   21.1500 C   0  0  0  0  0  0  0  0  0  0  0  0
    2.5710    5.2920   21.8670 O   0  0  0  0  0  0  0  0  0  0  0  0
    4.3930    6.2900   21.0470 O   0  0  0  0  0  0  0  0  0  0  0  0
  1  2  1  0
  2  3  1  0
  3  4  2  0
  3  5  1  0
  5  6  1  0
  5  7  1  0
  8  6  1  6
  7  9  1  0
  8 10  1  0
  8 11  1  0
  9 11  1  0
  9 12  1  6
 10 13  1  0
 11 14  1  6
 12 15  2  0
 12 16  1  0
 13 17  1  0
 14 17  1  0
 15 18  1  0
 16 19  2  0
 16 20  1  0
 18 21  2  0
 19 21  1  0
 20 22  1  0
 21 23  1  0
 22 24  2  0
 22 25  1  0
 25 26  1  0
 26 27  2  0
 26 28  1  0
 27 29  1  0
 28 30  2  0
 29 31  2  0
 30 31  1  0
 30 32  1  0
 32 33  1  0
 33 34  1  0
 34 35  1  0
 35 36  2  0
 35 37  1  0
M  END
