JAN-GHE-83b26c96-4
     RDKit          3D

 19 20  0  0  0  0  0  0  0  0999 V2000
    5.3460    0.9840   21.9320 C   0  0  0  0  0  0  0  0  0  0  0  0
    5.7170    0.7520   20.6650 C   0  0  0  0  0  0  0  0  0  0  0  0
    4.9270    1.4190   19.5150 C   0  0  0  0  0  0  0  0  0  0  0  0
    6.8450   -0.1180   20.4650 C   0  0  0  0  0  0  0  0  0  0  0  0
    5.3620    1.1450   18.1060 C   0  0  0  0  0  0  0  0  0  0  0  0
    7.0600   -0.2240   18.9570 C   0  0  0  0  0  0  0  0  0  0  0  0
    7.1090   -0.3660   21.5510 N   0  0  0  0  0  0  0  0  0  0  0  0
    6.3960    0.3440   17.8890 N   0  0  0  0  0  0  0  0  0  0  0  0
    8.4180   -0.2420   21.9760 C   0  0  0  0  0  0  0  0  0  0  0  0
    9.1060    0.7270   21.6510 O   0  0  0  0  0  0  0  0  0  0  0  0
    9.0020   -1.2470   22.7770 C   0  0  2  0  0  0  0  0  0  0  0  0
    8.4260   -1.3210   24.0490 C   0  0  0  0  0  0  0  0  0  0  0  0
   10.3540   -0.9760   22.8440 C   0  0  0  0  0  0  0  0  0  0  0  0
   11.3520   -1.9460   22.8060 C   0  0  0  0  0  0  0  0  0  0  0  0
   10.7660    0.3250   22.9360 C   0  0  0  0  0  0  0  0  0  0  0  0
   12.6970   -1.6340   22.8550 C   0  0  0  0  0  0  0  0  0  0  0  0
   12.2100    0.7050   22.9740 C   0  0  0  0  0  0  0  0  0  0  0  0
   13.1640   -0.2950   22.9370 C   0  0  0  0  0  0  0  0  0  0  0  0
   12.5520    2.3730   23.0260 Cl  0  0  0  0  0  0  0  0  0  0  0  0
  1  2  1  0
  2  3  2  0
  2  4  1  0
  3  5  1  0
  4  6  2  0
  4  7  1  0
  5  8  2  0
  6  8  1  0
  7  9  1  0
  9 10  2  0
  9 11  1  0
 11 12  1  1
 11 13  1  0
 13 14  2  0
 13 15  1  0
 14 16  1  0
 15 17  2  0
 16 18  2  0
 17 18  1  0
 17 19  1  0
M  END
