JAN-GHE-83b26c96-3
     RDKit          3D

 23 25  0  0  0  0  0  0  0  0999 V2000
    8.9280    1.0190   24.2840 C   0  0  0  0  0  0  0  0  0  0  0  0
    9.0540    0.1080   23.3010 C   0  0  1  0  0  0  0  0  0  0  0  0
    8.6490    0.4460   21.8580 C   0  0  0  0  0  0  0  0  0  0  0  0
   10.4470   -0.4830   23.3950 C   0  0  0  0  0  0  0  0  0  0  0  0
    9.1380    1.4320   21.2830 O   0  0  0  0  0  0  0  0  0  0  0  0
    7.6800   -0.3730   21.2200 N   0  0  0  0  0  0  0  0  0  0  0  0
   11.2000   -0.3280   24.6060 C   0  0  0  0  0  0  0  0  0  0  0  0
   11.0110   -1.1870   22.3230 C   0  0  0  0  0  0  0  0  0  0  0  0
    6.6370    0.1390   20.3370 C   0  0  0  0  0  0  0  0  0  0  0  0
   12.5150   -0.8610   24.7620 C   0  0  0  0  0  0  0  0  0  0  0  0
   12.3940   -1.7860   22.4210 C   0  0  0  0  0  0  0  0  0  0  0  0
    6.8880    0.2200   18.8650 C   0  0  0  0  0  0  0  0  0  0  0  0
    5.3470    0.6150   20.5870 C   0  0  0  0  0  0  0  0  0  0  0  0
   13.1380   -1.5820   23.7220 C   0  0  0  0  0  0  0  0  0  0  0  0
   13.0390   -2.6440   21.1050 Cl  0  0  0  0  0  0  0  0  0  0  0  0
    6.5680    0.4830   17.8270 N   0  0  0  0  0  0  0  0  0  0  0  0
    4.5280    1.1130   19.3580 C   0  0  0  0  0  0  0  0  0  0  0  0
    4.6150    0.7240   21.8500 N   0  0  0  0  0  0  0  0  0  0  0  0
    5.2080    1.0300   17.9570 C   0  0  0  0  0  0  0  0  0  0  0  0
    3.2500    0.8200   22.0070 C   0  0  0  0  0  0  0  0  0  0  0  0
    5.1810    0.7460   23.1380 N   0  0  0  0  0  0  0  0  0  0  0  0
    2.8960    0.9000   23.2960 C   0  0  0  0  0  0  0  0  0  0  0  0
    4.0180    0.8620   24.0820 C   0  0  0  0  0  0  0  0  0  0  0  0
  2  1  1  1
  2  3  1  0
  2  4  1  0
  3  5  2  0
  3  6  1  0
  4  7  2  0
  4  8  1  0
  6  9  1  0
  7 10  1  0
  8 11  2  0
  9 12  2  0
  9 13  1  0
 10 14  2  0
 11 14  1  0
 11 15  1  0
 12 16  1  0
 13 17  2  0
 13 18  1  0
 16 19  2  0
 17 19  1  0
 18 20  1  0
 18 21  1  0
 20 22  2  0
 21 23  2  0
 22 23  1  0
M  END
