JAN-GHE-fd8d85a5-8-bromoalkyne
     RDKit          3D

 22 24  0  0  0  0  0  0  0  0999 V2000
    7.0970   -4.1500   19.9660 C   0  0  0  0  0  0  0  0  0  0  0  0
    6.9440   -3.2140   19.0050 C   0  0  0  0  0  0  0  0  0  0  0  0
    7.8090   -3.6770   21.1630 C   0  0  0  0  0  0  0  0  0  0  0  0
    8.7290   -2.5650   21.1770 C   0  0  0  0  0  0  0  0  0  0  0  0
    7.7510   -4.1710   22.4140 C   0  0  0  0  0  0  0  0  0  0  0  0
    8.8750   -2.8710   22.6110 C   0  0  0  0  0  0  0  0  0  0  0  0
    8.3140   -3.8860   23.5930 C   0  0  0  0  0  0  0  0  0  0  0  0
    9.2050   -2.9510   24.0410 C   0  0  0  0  0  0  0  0  0  0  0  0
    8.6110   -3.0190   22.5500 C   0  0  0  0  0  0  0  0  0  0  0  0
   10.0830   -1.8290   23.9230 N   0  0  0  0  0  0  0  0  0  0  0  0
    7.6330   -1.8520   22.7290 N   0  0  0  0  0  0  0  0  0  0  0  0
   11.4540   -2.0270   23.4000 C   0  0  0  0  0  0  0  0  0  0  0  0
    6.2870   -2.2950   23.1660 C   0  0  0  0  0  0  0  0  0  0  0  0
    7.5450   -0.8440   21.6410 C   0  0  0  0  0  0  0  0  0  0  0  0
   12.6090   -1.9880   24.2480 C   0  0  0  0  0  0  0  0  0  0  0  0
   12.5770   -0.8160   23.4060 C   0  0  0  0  0  0  0  0  0  0  0  0
    5.4440   -2.6740   22.1140 C   0  0  0  0  0  0  0  0  0  0  0  0
    6.2310   -0.5050   21.3120 C   0  0  0  0  0  0  0  0  0  0  0  0
    5.4630   -1.7090   21.0050 N   0  0  0  0  0  0  0  0  0  0  0  0
    5.3390   -2.1860   19.7060 C   0  0  0  0  0  0  0  0  0  0  0  0
    5.6330   -1.2620   18.6900 C   0  0  0  0  0  0  0  0  0  0  0  0
    4.9910   -3.3500   19.4400 O   0  0  0  0  0  0  0  0  0  0  0  0
  1  2  2  3
  1  3  1  0
  3  4  2  0
  3  5  1  0
  4  6  1  0
  5  7  2  0
  6  8  2  0
  7  8  1  0
  7  9  1  0
  8 10  1  0
  9 11  1  0
 10 12  1  0
 11 13  1  0
 11 14  1  0
 12 15  1  0
 12 16  1  0
 15 16  1  0
 13 17  1  0
 14 18  1  0
 17 19  1  0
 18 19  1  0
 19 20  1  0
 20 21  1  0
 20 22  2  0
M  END
