JAN-GHE-bf40f168-7-acrylamide
     RDKit          3D

 32 34  0  0  0  0  0  0  0  0999 V2000
    8.1010   -3.7030   20.2430 C   0  0  0  0  0  0  0  0  0  0  0  0
    6.8080   -3.0390   20.0450 C   0  0  0  0  0  0  0  0  0  0  0  0
    5.8310   -4.1420   20.2450 C   0  0  0  0  0  0  0  0  0  0  0  0
    4.9420   -4.3070   19.4760 O   0  0  0  0  0  0  0  0  0  0  0  0
    5.9860   -4.9630   21.3130 N   0  0  0  0  0  0  0  0  0  0  0  0
    5.5390   -4.4900   22.6060 C   0  0  0  0  0  0  0  0  0  0  0  0
    5.0150   -5.6400   23.3720 C   0  0  0  0  0  0  0  0  0  0  0  0
    6.6490   -4.4570   23.7040 C   0  0  0  0  0  0  0  0  0  0  0  0
    5.8550   -5.3960   24.5560 N   0  0  0  0  0  0  0  0  0  0  0  0
    5.2160   -5.1230   26.1030 S   0  0  0  0  0  0  0  0  0  0  0  0
    4.4100   -6.2950   26.3530 O   0  0  0  0  0  0  0  0  0  0  0  0
    6.3250   -4.7760   26.9490 O   0  0  0  0  0  0  0  0  0  0  0  0
    4.1120   -3.7490   26.0120 C   0  0  0  0  0  0  0  0  0  0  0  0
    2.9290   -3.8280   25.3910 C   0  0  0  0  0  0  0  0  0  0  0  0
    4.3760   -2.5340   26.5710 C   0  0  0  0  0  0  0  0  0  0  0  0
    2.5670   -4.9440   24.7980 F   0  0  0  0  0  0  0  0  0  0  0  0
    1.9930   -2.8060   25.3020 C   0  0  0  0  0  0  0  0  0  0  0  0
    3.4620   -1.4730   26.5080 C   0  0  0  0  0  0  0  0  0  0  0  0
    5.5610   -2.3620   27.1980 O   0  0  0  0  0  0  0  0  0  0  0  0
    2.2590   -1.5960   25.8770 C   0  0  0  0  0  0  0  0  0  0  0  0
    6.6220   -1.9480   26.2580 C   0  0  0  0  0  0  0  0  0  0  0  0
    7.6350   -0.8940   26.7890 C   0  0  0  0  0  0  0  0  0  0  0  0
    8.6570   -1.0430   25.6510 C   0  0  0  0  0  0  0  0  0  0  0  0
    9.4390    0.1230   25.3950 N   0  0  0  0  0  0  0  0  0  0  0  0
   10.3790   -0.2090   24.4400 C   0  0  0  0  0  0  0  0  0  0  0  0
   10.0550   -1.2630   23.5830 C   0  0  0  0  0  0  0  0  0  0  0  0
   11.6410    0.5140   24.3510 N   0  0  0  0  0  0  0  0  0  0  0  0
   10.9990   -1.6410   22.6160 C   0  0  0  0  0  0  0  0  0  0  0  0
   12.5390    0.1290   23.4100 C   0  0  0  0  0  0  0  0  0  0  0  0
   12.3260   -0.9130   22.5210 C   0  0  0  0  0  0  0  0  0  0  0  0
   13.3320   -1.3370   21.4960 C   0  0  0  0  0  0  0  0  0  0  0  0
   13.1010   -2.6610   20.9860 N   0  0  0  0  0  0  0  0  0  0  0  0
  1  2  1  0
  2  3  1  0
  3  4  2  0
  3  5  1  0
  5  6  1  0
  6  7  1  0
  6  8  1  0
  7  9  1  0
  8  9  1  0
  9 10  1  0
 10 11  2  0
 10 12  2  0
 10 13  1  0
 13 14  2  0
 13 15  1  0
 14 16  1  0
 14 17  1  0
 15 18  2  0
 15 19  1  0
 17 20  2  0
 18 20  1  0
 19 21  1  0
 21 22  1  0
 22 23  1  0
 23 24  1  0
 24 25  1  0
 25 26  2  0
 25 27  1  0
 26 28  1  0
 27 29  2  0
 28 30  2  0
 29 30  1  0
 30 31  1  0
 31 32  3  0
M  END
