JAN-GHE-5a013bed-4
     RDKit          3D

 17 18  0  0  0  0  0  0  0  0999 V2000
    9.6450    0.9770   21.6690 O   0  0  0  0  0  0  0  0  0  0  0  0
    8.8870    0.0650   21.9750 C   0  0  0  0  0  0  0  0  0  0  0  0
    8.5830   -0.3190   23.4010 C   0  0  0  0  0  0  0  0  0  0  0  0
    8.2480   -0.5900   20.9330 N   0  0  0  0  0  0  0  0  0  0  0  0
   10.0930   -0.6340   23.3980 C   0  0  0  0  0  0  0  0  0  0  0  0
    7.0960   -0.0840   20.3760 N   0  0  0  0  0  0  0  0  0  0  0  0
   10.8900   -0.2690   24.5580 C   0  0  0  0  0  0  0  0  0  0  0  0
   10.8150   -1.2830   22.3770 C   0  0  0  0  0  0  0  0  0  0  0  0
    6.7620    1.2140   20.1890 C   0  0  0  0  0  0  0  0  0  0  0  0
    6.2560   -0.7620   19.3740 C   0  0  0  0  0  0  0  0  0  0  0  0
   12.3590   -0.5780   24.6260 C   0  0  0  0  0  0  0  0  0  0  0  0
   12.1920   -1.5730   22.4490 C   0  0  0  0  0  0  0  0  0  0  0  0
    6.1400    1.2920   18.8550 N   0  0  0  0  0  0  0  0  0  0  0  0
    6.1580    0.0620   18.3420 N   0  0  0  0  0  0  0  0  0  0  0  0
    5.7220   -1.8520   19.4860 O   0  0  0  0  0  0  0  0  0  0  0  0
   12.9730   -1.2200   23.5790 C   0  0  0  0  0  0  0  0  0  0  0  0
   12.9430   -2.3770   21.1480 Cl  0  0  0  0  0  0  0  0  0  0  0  0
  1  2  2  0
  2  3  1  0
  2  4  1  0
  3  5  1  0
  4  6  1  0
  5  7  2  0
  5  8  1  0
  6  9  1  0
  6 10  1  0
  7 11  1  0
  8 12  2  0
  9 13  2  0
 10 14  1  0
 13 14  1  0
 10 15  2  0
 11 16  2  0
 12 16  1  0
 12 17  1  0
M  END
