JAN-UNI-2e92c4b1-3-bromoalkyne
     RDKit          3D

 19 20  0  0  0  0  0  0  0  0999 V2000
    8.0520   -3.5070   19.9300 C   0  0  0  0  0  0  0  0  0  0  0  0
    6.6080   -3.6810   19.9390 C   0  0  0  0  0  0  0  0  0  0  0  0
    9.0740   -2.7880   21.1870 C   0  0  0  0  0  0  0  0  0  0  0  0
   10.7050   -2.6000   21.2410 C   0  0  0  0  0  0  0  0  0  0  0  0
    8.6060   -2.2520   22.4140 C   0  0  0  0  0  0  0  0  0  0  0  0
   11.5300   -2.0310   22.1940 N   0  0  0  0  0  0  0  0  0  0  0  0
    9.4620   -1.6840   23.4070 C   0  0  0  0  0  0  0  0  0  0  0  0
   10.8220   -1.5620   23.3040 C   0  0  0  0  0  0  0  0  0  0  0  0
    8.8920   -1.2600   24.5450 C   0  0  0  0  0  0  0  0  0  0  0  0
   11.5820   -0.9270   24.3740 N   0  0  0  0  0  0  0  0  0  0  0  0
    9.0910   -2.5040   25.3020 N   0  0  0  0  0  0  0  0  0  0  0  0
   12.1300    0.3160   23.8360 C   0  0  0  0  0  0  0  0  0  0  0  0
   10.2350   -3.3660   25.2200 C   0  0  0  0  0  0  0  0  0  0  0  0
    7.8440   -3.2860   25.1980 C   0  0  0  0  0  0  0  0  0  0  0  0
   13.1730    0.0170   22.9620 C   0  0  0  0  0  0  0  0  0  0  0  0
   10.3330   -4.5000   26.0360 C   0  0  0  0  0  0  0  0  0  0  0  0
    7.8180   -4.3950   26.2900 C   0  0  0  0  0  0  0  0  0  0  0  0
    9.1640   -4.5130   27.0270 C   0  0  0  0  0  0  0  0  0  0  0  0
    9.0530   -5.4390   27.7970 O   0  0  0  0  0  0  0  0  0  0  0  0
  1  2  2  3
  1  3  1  0
  3  4  2  0
  3  5  1  0
  4  6  1  0
  5  7  2  0
  6  8  2  0
  7  8  1  0
  7  9  1  0
  8 10  1  0
  9 11  1  0
 10 12  1  0
 11 13  1  0
 11 14  1  0
 12 15  1  0
 13 16  1  0
 14 17  1  0
 16 18  1  0
 17 18  1  0
 18 19  1  0
M  END
