JAN-GHE-bf40f168-8-chloroacetamide
     RDKit          3D

 31 33  0  0  0  0  0  0  0  0999 V2000
    6.9960   -3.4740   19.8020 C   0  0  0  0  0  0  0  0  0  0  0  0
    6.3520   -4.6300   20.5010 C   0  0  0  0  0  0  0  0  0  0  0  0
    5.3620   -5.1310   20.0060 O   0  0  0  0  0  0  0  0  0  0  0  0
    6.9090   -5.1430   21.6340 N   0  0  0  0  0  0  0  0  0  0  0  0
    7.3360   -4.4320   22.8430 C   0  0  0  0  0  0  0  0  0  0  0  0
    6.3470   -6.2410   22.4540 C   0  0  0  0  0  0  0  0  0  0  0  0
    6.6650   -5.4480   23.7780 C   0  0  0  0  0  0  0  0  0  0  0  0
    5.4770   -4.9310   24.4620 N   0  0  0  0  0  0  0  0  0  0  0  0
    5.2460   -4.8640   26.1470 S   0  0  0  0  0  0  0  0  0  0  0  0
    4.5240   -6.0810   26.4510 O   0  0  0  0  0  0  0  0  0  0  0  0
    6.4650   -4.5000   26.8080 O   0  0  0  0  0  0  0  0  0  0  0  0
    4.1570   -3.4950   26.1490 C   0  0  0  0  0  0  0  0  0  0  0  0
    3.2290   -3.3150   27.1170 C   0  0  0  0  0  0  0  0  0  0  0  0
    4.1940   -2.5550   25.1720 C   0  0  0  0  0  0  0  0  0  0  0  0
    3.1850   -4.1730   28.0930 F   0  0  0  0  0  0  0  0  0  0  0  0
    2.3240   -2.2560   27.1130 C   0  0  0  0  0  0  0  0  0  0  0  0
    3.3070   -1.4860   25.1200 C   0  0  0  0  0  0  0  0  0  0  0  0
    5.1620   -2.7100   24.2480 O   0  0  0  0  0  0  0  0  0  0  0  0
    2.3510   -1.3330   26.1010 C   0  0  0  0  0  0  0  0  0  0  0  0
    6.5470   -2.1500   24.5400 C   0  0  0  0  0  0  0  0  0  0  0  0
    6.6950   -1.0070   25.6030 C   0  0  0  0  0  0  0  0  0  0  0  0
    8.2020   -0.6160   25.5710 C   0  0  0  0  0  0  0  0  0  0  0  0
    9.1910    0.0370   25.3890 N   0  0  0  0  0  0  0  0  0  0  0  0
   10.1700   -0.3480   24.5050 C   0  0  0  0  0  0  0  0  0  0  0  0
   10.2220   -1.5560   23.8140 C   0  0  0  0  0  0  0  0  0  0  0  0
   11.2220    0.5690   24.2770 N   0  0  0  0  0  0  0  0  0  0  0  0
   11.2630   -1.8560   22.9250 C   0  0  0  0  0  0  0  0  0  0  0  0
   12.2910    0.2280   23.3480 C   0  0  0  0  0  0  0  0  0  0  0  0
   12.3140   -0.9620   22.6800 C   0  0  0  0  0  0  0  0  0  0  0  0
   13.4250   -1.2830   21.7240 C   0  0  0  0  0  0  0  0  0  0  0  0
   13.1280   -2.4240   20.9160 N   0  0  0  0  0  0  0  0  0  0  0  0
  1  2  1  0
  2  3  2  0
  2  4  1  0
  4  5  1  0
  4  6  1  0
  5  7  1  0
  6  7  1  0
  7  8  1  0
  9  8  1  0
  9 10  2  0
  9 11  2  0
  9 12  1  0
 12 13  2  0
 12 14  1  0
 13 15  1  0
 13 16  1  0
 14 17  2  0
 14 18  1  0
 16 19  2  0
 17 19  1  0
 18 20  1  0
 20 21  1  0
 21 22  1  0
 22 23  1  0
 23 24  1  0
 24 25  2  0
 24 26  1  0
 25 27  1  0
 26 28  2  0
 27 29  2  0
 28 29  1  0
 29 30  1  0
 30 31  3  0
M  END
