JAN-GHE-6413aaf8-4-bromoalkyne
     RDKit          3D

 30 34  0  0  0  0  0  0  0  0999 V2000
    6.5430   -4.4910   20.1280 C   0  0  0  0  0  0  0  0  0  0  0  0
    5.8260   -5.8140   20.0160 C   0  0  0  0  0  0  0  0  0  0  0  0
    6.3860   -3.8270   21.3160 N   0  0  0  0  0  0  0  0  0  0  0  0
    6.1150   -2.4130   21.5120 C   0  0  0  0  0  0  0  0  0  0  0  0
    6.3830   -4.4770   22.6180 C   0  0  0  0  0  0  0  0  0  0  0  0
    6.2630   -2.1850   22.9910 C   0  0  1  0  0  0  0  0  0  0  0  0
    6.9440   -3.4970   23.4520 C   0  0  2  0  0  0  0  0  0  0  0  0
    7.1360   -1.1790   23.4520 C   0  0  0  0  0  0  0  0  0  0  0  0
    8.2800   -3.1950   23.1500 C   0  0  0  0  0  0  0  0  0  0  0  0
    8.5010   -1.7390   23.2580 N   0  0  0  0  0  0  0  0  0  0  0  0
    9.4820   -1.4510   24.2950 C   0  0  0  0  0  0  0  0  0  0  0  0
   10.5940   -0.8060   23.7760 C   0  0  0  0  0  0  0  0  0  0  0  0
   11.7760   -1.5770   23.2320 C   0  0  0  0  0  0  0  0  0  0  0  0
   10.8470    0.5640   23.6410 C   0  0  0  0  0  0  0  0  0  0  0  0
   12.9680   -1.0810   22.6820 C   0  0  0  0  0  0  0  0  0  0  0  0
   12.0060    1.1510   23.0950 C   0  0  0  0  0  0  0  0  0  0  0  0
   10.0600    1.6210   23.9890 N   0  0  0  0  0  0  0  0  0  0  0  0
   13.0770    0.3870   22.6290 C   0  0  0  0  0  0  0  0  0  0  0  0
   11.8290    2.5420   23.1230 C   0  0  0  0  0  0  0  0  0  0  0  0
   10.6170    2.8190   23.6920 C   0  0  0  0  0  0  0  0  0  0  0  0
   12.6630    3.7280   22.6560 C   0  0  0  0  0  0  0  0  0  0  0  0
   12.2560    4.8880   23.3250 C   0  0  0  0  0  0  0  0  0  0  0  0
   11.0840    5.5250   22.7300 N   0  0  0  0  0  0  0  0  0  0  0  0
   10.1270    6.1060   23.5430 C   0  0  0  0  0  0  0  0  0  0  0  0
   10.2980    6.2550   24.7480 O   0  0  0  0  0  0  0  0  0  0  0  0
    8.9520    6.5190   22.9140 C   0  0  0  0  0  0  0  0  0  0  0  0
    8.1550    5.7510   22.1370 C   0  0  0  0  0  0  0  0  0  0  0  0
    8.3760    7.7960   22.9740 N   0  0  0  0  0  0  0  0  0  0  0  0
    7.1180    6.5460   21.7190 C   0  0  0  0  0  0  0  0  0  0  0  0
    7.2520    7.8240   22.2430 C   0  0  0  0  0  0  0  0  0  0  0  0
  1  2  2  3
  1  3  1  0
  3  4  1  0
  3  5  1  0
  6  4  1  6
  7  5  1  6
  6  7  1  0
  6  8  1  0
  7  9  1  0
  8 10  1  0
  9 10  1  0
 10 11  1  0
 11 12  1  0
 12 13  2  0
 12 14  1  0
 13 15  1  0
 14 16  2  0
 14 17  1  0
 15 18  2  0
 16 18  1  0
 16 19  1  0
 17 20  1  0
 19 20  2  0
 19 21  1  0
 21 22  1  0
 22 23  1  0
 23 24  1  0
 24 25  2  0
 24 26  1  0
 26 27  2  0
 26 28  1  0
 27 29  1  0
 28 30  1  0
 29 30  2  0
M  END
