JAN-GHE-bf40f168-7-vinylsulfonamide
     RDKit          3D

 33 35  0  0  0  0  0  0  0  0999 V2000
    8.2650   -3.7350   20.2520 C   0  0  0  0  0  0  0  0  0  0  0  0
    7.1390   -2.7900   20.1840 C   0  0  0  0  0  0  0  0  0  0  0  0
    5.7460   -3.8100   20.4370 S   0  0  0  0  0  0  0  0  0  0  0  0
    4.8320   -3.0680   21.1790 O   0  0  0  0  0  0  0  0  0  0  0  0
    5.2930   -4.4010   19.2370 O   0  0  0  0  0  0  0  0  0  0  0  0
    6.1390   -5.0200   21.4660 N   0  0  0  0  0  0  0  0  0  0  0  0
    5.3130   -4.9620   22.6950 C   0  0  0  0  0  0  0  0  0  0  0  0
    6.3250   -4.5700   23.7800 C   0  0  0  0  0  0  0  0  0  0  0  0
    5.0960   -6.1920   23.6220 C   0  0  0  0  0  0  0  0  0  0  0  0
    5.8930   -5.5610   24.7460 N   0  0  0  0  0  0  0  0  0  0  0  0
    5.1760   -5.2060   26.2450 S   0  0  0  0  0  0  0  0  0  0  0  0
    4.3740   -6.3760   26.5130 O   0  0  0  0  0  0  0  0  0  0  0  0
    6.2530   -4.8130   27.1150 O   0  0  0  0  0  0  0  0  0  0  0  0
    4.0890   -3.8240   26.0450 C   0  0  0  0  0  0  0  0  0  0  0  0
    2.7080   -4.0770   25.8160 C   0  0  0  0  0  0  0  0  0  0  0  0
    4.5450   -2.4640   26.1210 C   0  0  0  0  0  0  0  0  0  0  0  0
    2.1930   -5.3140   25.7310 F   0  0  0  0  0  0  0  0  0  0  0  0
    1.8400   -3.0040   25.6750 C   0  0  0  0  0  0  0  0  0  0  0  0
    3.6400   -1.3980   25.9730 C   0  0  0  0  0  0  0  0  0  0  0  0
    5.9020   -2.2440   26.3530 O   0  0  0  0  0  0  0  0  0  0  0  0
    2.2990   -1.7070   25.7540 C   0  0  0  0  0  0  0  0  0  0  0  0
    6.5250   -0.9310   26.2230 C   0  0  0  0  0  0  0  0  0  0  0  0
    7.7910   -0.8010   27.0800 C   0  0  0  0  0  0  0  0  0  0  0  0
    8.8230   -0.3620   26.0460 C   0  0  0  0  0  0  0  0  0  0  0  0
    9.4480    0.3620   25.3730 N   0  0  0  0  0  0  0  0  0  0  0  0
   10.3390   -0.1130   24.4620 C   0  0  0  0  0  0  0  0  0  0  0  0
   10.2360   -1.3100   23.7410 C   0  0  0  0  0  0  0  0  0  0  0  0
   11.4650    0.7040   24.2330 N   0  0  0  0  0  0  0  0  0  0  0  0
   11.2470   -1.6540   22.8310 C   0  0  0  0  0  0  0  0  0  0  0  0
   12.4700    0.2770   23.2800 C   0  0  0  0  0  0  0  0  0  0  0  0
   12.3850   -0.8820   22.5770 C   0  0  0  0  0  0  0  0  0  0  0  0
   13.4590   -1.2620   21.6100 C   0  0  0  0  0  0  0  0  0  0  0  0
   13.1220   -2.4210   20.8640 N   0  0  0  0  0  0  0  0  0  0  0  0
  1  2  1  0
  2  3  1  0
  3  4  2  0
  3  5  2  0
  3  6  1  0
  6  7  1  0
  7  8  1  0
  7  9  1  0
  8 10  1  0
  9 10  1  0
 10 11  1  0
 11 12  2  0
 11 13  2  0
 11 14  1  0
 14 15  2  0
 14 16  1  0
 15 17  1  0
 15 18  1  0
 16 19  2  0
 16 20  1  0
 18 21  2  0
 19 21  1  0
 20 22  1  0
 22 23  1  0
 23 24  1  0
 24 25  1  0
 25 26  1  0
 26 27  2  0
 26 28  1  0
 27 29  1  0
 28 30  2  0
 29 31  2  0
 30 31  1  0
 31 32  1  0
 32 33  3  0
M  END
