JAN-GHE-d851b096-5-nitrile
     RDKit          3D

 21 23  0  0  0  0  0  0  0  0999 V2000
    6.8240   -3.4290   19.8350 C   0  0  0  0  0  0  0  0  0  0  0  0
    5.8430   -3.0740   19.0990 N   0  0  0  0  0  0  0  0  0  0  0  0
    7.3210   -2.6410   20.9400 N   0  0  0  0  0  0  0  0  0  0  0  0
    7.0850   -2.9900   22.3550 C   0  0  0  0  0  0  0  0  0  0  0  0
    7.5440   -1.2550   20.9060 N   0  0  0  0  0  0  0  0  0  0  0  0
    8.2990   -2.7190   23.2600 C   0  0  0  0  0  0  0  0  0  0  0  0
    8.4910   -0.6500   21.7100 C   0  0  0  0  0  0  0  0  0  0  0  0
    6.7640   -0.4370   20.1570 C   0  0  0  0  0  0  0  0  0  0  0  0
    8.8710   -1.2940   23.0840 C   0  0  2  0  0  0  0  0  0  0  0  0
    9.0330    0.4130   21.4050 O   0  0  0  0  0  0  0  0  0  0  0  0
    5.6390    0.3630   20.6940 C   0  0  0  0  0  0  0  0  0  0  0  0
    7.0950   -0.3700   18.7650 C   0  0  0  0  0  0  0  0  0  0  0  0
   10.3970   -1.3390   23.4150 C   0  0  0  0  0  0  0  0  0  0  0  0
    4.9100    1.1810   19.7810 C   0  0  0  0  0  0  0  0  0  0  0  0
    6.4430    0.4090   17.7810 N   0  0  0  0  0  0  0  0  0  0  0  0
   11.1710   -1.5560   22.1860 C   0  0  0  0  0  0  0  0  0  0  0  0
   10.8490   -0.3740   24.3160 C   0  0  0  0  0  0  0  0  0  0  0  0
    5.4490    1.0430   18.5330 C   0  0  0  0  0  0  0  0  0  0  0  0
   12.7020   -1.6790   22.4370 C   0  0  0  0  0  0  0  0  0  0  0  0
   12.2390   -0.2590   24.3370 C   0  0  0  0  0  0  0  0  0  0  0  0
   13.1570   -0.8760   23.4870 C   0  0  0  0  0  0  0  0  0  0  0  0
  1  2  2  3
  1  3  1  0
  3  4  1  0
  3  5  1  0
  4  6  1  0
  5  7  1  0
  5  8  1  0
  6  9  1  0
  7  9  1  0
  7 10  2  0
  8 11  2  0
  8 12  1  0
  9 13  1  6
 11 14  1  0
 12 15  2  0
 13 16  1  0
 13 17  1  0
 14 18  2  0
 15 18  1  0
 16 19  1  0
 17 20  1  0
 19 21  1  0
 20 21  1  0
M  END
