JAN-GHE-83b26c96-15
     RDKit          3D

 19 20  0  0  0  0  0  0  0  0999 V2000
    4.4210    1.6400   21.1920 C   0  0  0  0  0  0  0  0  0  0  0  0
    5.4720    0.8990   20.4120 C   0  0  0  0  0  0  0  0  0  0  0  0
    4.8510    1.5310   19.2430 C   0  0  0  0  0  0  0  0  0  0  0  0
    6.5600    0.0350   20.4080 C   0  0  0  0  0  0  0  0  0  0  0  0
    5.4840    1.1790   17.9980 C   0  0  0  0  0  0  0  0  0  0  0  0
    7.0630   -0.2120   19.1150 C   0  0  0  0  0  0  0  0  0  0  0  0
    7.0700   -0.5150   21.6000 N   0  0  0  0  0  0  0  0  0  0  0  0
    6.5440    0.3420   17.9510 N   0  0  0  0  0  0  0  0  0  0  0  0
    6.7540   -1.7450   22.1500 C   0  0  0  0  0  0  0  0  0  0  0  0
    8.3900   -0.3340   21.9340 C   0  0  0  0  0  0  0  0  0  0  0  0
    9.0420    0.6200   21.4870 O   0  0  0  0  0  0  0  0  0  0  0  0
    9.0590   -1.2270   22.8110 C   0  0  0  0  0  0  0  0  0  0  0  0
   10.4820   -0.7030   22.8730 C   0  0  0  0  0  0  0  0  0  0  0  0
   11.2560   -2.0300   22.8140 C   0  0  0  0  0  0  0  0  0  0  0  0
   10.8970    0.5760   22.9440 C   0  0  0  0  0  0  0  0  0  0  0  0
   12.7160   -1.5460   22.8540 C   0  0  0  0  0  0  0  0  0  0  0  0
   12.2180    0.8330   22.9580 C   0  0  0  0  0  0  0  0  0  0  0  0
   13.1260   -0.2060   22.9180 C   0  0  0  0  0  0  0  0  0  0  0  0
   12.6210    2.4930   22.9910 Cl  0  0  0  0  0  0  0  0  0  0  0  0
  1  2  1  0
  2  3  2  0
  2  4  1  0
  3  5  1  0
  4  6  2  0
  4  7  1  0
  5  8  2  0
  6  8  1  0
  7  9  1  0
  7 10  1  0
 10 11  2  0
 10 12  1  0
 12 13  1  0
 13 14  2  0
 13 15  1  0
 14 16  1  0
 15 17  2  0
 16 18  2  0
 17 18  1  0
 17 19  1  0
M  END
