JAN-GHE-d851b096-4-chloroacetamide
     RDKit          3D

 31 33  0  0  0  0  0  0  0  0999 V2000
    7.9190   -4.4640   20.6520 C   0  0  0  0  0  0  0  0  0  0  0  0
    7.1090   -3.2810   20.5420 C   0  0  0  0  0  0  0  0  0  0  0  0
    6.2490   -3.2390   19.5300 O   0  0  0  0  0  0  0  0  0  0  0  0
    7.5070   -2.3900   21.6940 N   0  0  0  0  0  0  0  0  0  0  0  0
    7.0390   -2.7850   23.0360 C   0  0  0  0  0  0  0  0  0  0  0  0
    8.7470   -1.4220   21.6980 C   0  0  1  0  0  0  0  0  0  0  0  0
    6.5670   -4.2170   23.2510 C   0  0  0  0  0  0  0  0  0  0  0  0
    6.9630   -1.9170   24.2570 C   0  0  0  0  0  0  0  0  0  0  0  0
    8.2650   -0.1490   21.8230 C   0  0  0  0  0  0  0  0  0  0  0  0
   10.1080   -1.5390   22.5460 C   0  0  0  0  0  0  0  0  0  0  0  0
    6.0740   -4.5870   24.6680 C   0  0  0  0  0  0  0  0  0  0  0  0
    6.4990   -2.3460   25.5020 C   0  0  0  0  0  0  0  0  0  0  0  0
    9.3510    0.6710   21.6530 O   0  0  0  0  0  0  0  0  0  0  0  0
    7.4380    0.5930   21.9820 N   0  0  0  0  0  0  0  0  0  0  0  0
   10.3320   -1.4300   24.0110 C   0  0  0  0  0  0  0  0  0  0  0  0
   11.3290   -1.7580   21.8490 C   0  0  0  0  0  0  0  0  0  0  0  0
    6.0300   -3.6400   25.8310 C   0  0  0  0  0  0  0  0  0  0  0  0
    6.5170    0.7640   20.9120 C   0  0  0  0  0  0  0  0  0  0  0  0
   11.7150   -1.5570   24.5500 C   0  0  0  0  0  0  0  0  0  0  0  0
   12.5930   -1.8700   22.3340 N   0  0  0  0  0  0  0  0  0  0  0  0
    5.7800   -3.4330   26.9500 N   0  0  0  0  0  0  0  0  0  0  0  0
    5.1680    0.7200   21.3610 C   0  0  0  0  0  0  0  0  0  0  0  0
    6.8020    0.9580   19.5750 C   0  0  0  0  0  0  0  0  0  0  0  0
   12.7650   -1.7570   23.7760 C   0  0  0  0  0  0  0  0  0  0  0  0
    6.3400   -4.0580   28.0680 C   0  0  0  0  0  0  0  0  0  0  0  0
    4.0670    0.8720   20.4840 C   0  0  0  0  0  0  0  0  0  0  0  0
    5.7340    1.1090   18.7450 C   0  0  0  0  0  0  0  0  0  0  0  0
    6.5490   -5.4480   28.0720 C   0  0  0  0  0  0  0  0  0  0  0  0
    6.6430   -3.4040   29.0590 O   0  0  0  0  0  0  0  0  0  0  0  0
    4.3240    1.0670   19.1780 C   0  0  0  0  0  0  0  0  0  0  0  0
    5.8040    1.3780   17.1080 Cl  0  0  0  0  0  0  0  0  0  0  0  0
  1  2  1  0
  2  3  2  0
  2  4  1  0
  4  5  1  0
  4  6  1  0
  5  7  2  0
  5  8  1  0
  6  9  1  1
  6 10  1  0
  7 11  1  0
  8 12  2  0
  9 13  2  0
  9 14  1  0
 10 15  2  0
 10 16  1  0
 11 17  2  0
 12 17  1  0
 14 18  1  0
 15 19  1  0
 16 20  2  0
 17 21  1  0
 18 22  2  0
 18 23  1  0
 19 24  2  0
 20 24  1  0
 21 25  1  0
 22 26  1  0
 23 27  2  0
 25 28  1  0
 25 29  2  0
 26 30  2  0
 27 30  1  0
 27 31  1  0
M  END
