JAN-GHE-83b26c96-18
     RDKit          3D

 20 22  0  0  0  0  0  0  0  0999 V2000
    7.9880    0.6630   20.9730 O   0  0  0  0  0  0  0  0  0  0  0  0
    8.4970   -0.2650   21.6040 C   0  0  0  0  0  0  0  0  0  0  0  0
    8.7330   -1.4750   21.1030 N   0  0  0  0  0  0  0  0  0  0  0  0
    8.9700   -0.3850   22.8950 N   0  0  0  0  0  0  0  0  0  0  0  0
    9.2500   -2.3530   22.0750 C   0  0  2  0  0  0  0  0  0  0  0  0
    8.6270   -1.6390   23.1180 C   0  0  0  0  0  0  0  0  0  0  0  0
   10.2890   -0.0170   23.0370 C   0  0  0  0  0  0  0  0  0  0  0  0
   10.6980   -2.4790   22.5000 C   0  0  0  0  0  0  0  0  0  0  0  0
    7.8450   -2.2090   24.0940 O   0  0  0  0  0  0  0  0  0  0  0  0
   11.3780   -1.0710   23.3980 C   0  0  0  0  0  0  0  0  0  0  0  0
   10.5230    1.2970   22.8220 C   0  0  0  0  0  0  0  0  0  0  0  0
   11.0170   -2.7380   23.9030 C   0  0  0  0  0  0  0  0  0  0  0  0
   11.8160   -2.3630   21.6550 C   0  0  0  0  0  0  0  0  0  0  0  0
   12.8320   -0.4900   23.4800 C   0  0  0  0  0  0  0  0  0  0  0  0
   11.7620    1.8150   22.8930 C   0  0  0  0  0  0  0  0  0  0  0  0
   12.4490   -2.8700   24.3650 C   0  0  0  0  0  0  0  0  0  0  0  0
   13.0800   -2.4770   22.0360 N   0  0  0  0  0  0  0  0  0  0  0  0
   12.8110    0.9980   23.1830 C   0  0  0  0  0  0  0  0  0  0  0  0
   12.0030    3.4960   22.6070 Cl  0  0  0  0  0  0  0  0  0  0  0  0
   13.3830   -2.7310   23.3860 C   0  0  0  0  0  0  0  0  0  0  0  0
  1  2  2  0
  2  3  1  0
  2  4  1  0
  3  5  1  0
  4  6  1  0
  5  6  1  0
  4  7  1  0
  5  8  1  1
  6  9  2  0
  7 10  2  0
  7 11  1  0
  8 12  2  0
  8 13  1  0
 10 14  1  0
 11 15  2  0
 12 16  1  0
 13 17  2  0
 14 18  2  0
 15 18  1  0
 15 19  1  0
 16 20  2  0
 17 20  1  0
M  END
