JAN-GHE-bf40f168-1-nitrile
     RDKit          3D

 31 33  0  0  0  0  0  0  0  0999 V2000
    7.0670   -4.1420   20.2810 C   0  0  0  0  0  0  0  0  0  0  0  0
    6.0360   -3.7680   19.6240 N   0  0  0  0  0  0  0  0  0  0  0  0
    6.9330   -4.9020   21.4380 N   0  0  0  0  0  0  0  0  0  0  0  0
    5.8230   -5.8330   21.7080 C   0  0  0  0  0  0  0  0  0  0  0  0
    7.5930   -4.5880   22.7060 C   0  0  0  0  0  0  0  0  0  0  0  0
    5.0960   -5.1770   22.9610 C   0  0  0  0  0  0  0  0  0  0  0  0
    6.6190   -4.0960   23.6120 C   0  0  0  0  0  0  0  0  0  0  0  0
    6.0260   -4.9740   24.1300 N   0  0  0  0  0  0  0  0  0  0  0  0
    5.4260   -5.0130   25.7310 S   0  0  0  0  0  0  0  0  0  0  0  0
    6.5510   -4.7760   26.5960 O   0  0  0  0  0  0  0  0  0  0  0  0
    4.6610   -6.2380   25.8280 O   0  0  0  0  0  0  0  0  0  0  0  0
    4.2670   -3.6900   25.8910 C   0  0  0  0  0  0  0  0  0  0  0  0
    3.0450   -3.6750   25.1160 C   0  0  0  0  0  0  0  0  0  0  0  0
    4.4130   -2.6190   26.7310 C   0  0  0  0  0  0  0  0  0  0  0  0
    2.8360   -4.6360   24.2800 F   0  0  0  0  0  0  0  0  0  0  0  0
    2.0930   -2.6670   25.2450 C   0  0  0  0  0  0  0  0  0  0  0  0
    3.4440   -1.6070   26.8490 C   0  0  0  0  0  0  0  0  0  0  0  0
    5.4460   -2.5890   27.3760 O   0  0  0  0  0  0  0  0  0  0  0  0
    2.2820   -1.6310   26.1090 C   0  0  0  0  0  0  0  0  0  0  0  0
    6.6610   -2.1390   26.6410 C   0  0  0  0  0  0  0  0  0  0  0  0
    7.4940   -0.8750   27.0330 C   0  0  0  0  0  0  0  0  0  0  0  0
    8.4900   -1.0040   25.8650 C   0  0  0  0  0  0  0  0  0  0  0  0
    9.4520   -0.0160   25.6210 N   0  0  0  0  0  0  0  0  0  0  0  0
   10.2970   -0.3910   24.5980 C   0  0  0  0  0  0  0  0  0  0  0  0
    9.9760   -1.5950   23.7810 C   0  0  0  0  0  0  0  0  0  0  0  0
   11.4860    0.3080   24.2680 N   0  0  0  0  0  0  0  0  0  0  0  0
   10.7580   -2.0500   22.7750 C   0  0  0  0  0  0  0  0  0  0  0  0
   12.2520   -0.1950   23.2380 C   0  0  0  0  0  0  0  0  0  0  0  0
   11.9250   -1.3580   22.4880 C   0  0  0  0  0  0  0  0  0  0  0  0
   12.6760   -1.9220   21.4450 C   0  0  0  0  0  0  0  0  0  0  0  0
   13.7370   -1.1690   20.8970 N   0  0  0  0  0  0  0  0  0  0  0  0
  1  2  2  3
  1  3  1  0
  3  4  1  0
  3  5  1  0
  4  6  1  0
  5  7  1  0
  6  8  1  0
  7  8  1  0
  8  9  1  0
  9 10  2  0
  9 11  2  0
  9 12  1  0
 12 13  2  0
 12 14  1  0
 13 15  1  0
 13 16  1  0
 14 17  2  0
 14 18  1  0
 16 19  2  0
 17 19  1  0
 18 20  1  0
 20 21  1  0
 21 22  1  0
 22 23  1  0
 23 24  1  0
 24 25  2  0
 24 26  1  0
 25 27  1  0
 26 28  2  0
 27 29  2  0
 28 29  1  0
 29 30  1  0
 30 31  3  0
M  END
