JAN-LUN-04aedcc0-3-chloroacetamide
     RDKit          3D

 33 37  0  0  0  0  0  0  0  0999 V2000
    7.3490   -3.0840   19.0170 C   0  0  0  0  0  0  0  0  0  0  0  0
    6.6200   -3.4810   20.0520 C   0  0  0  0  0  0  0  0  0  0  0  0
    5.6380   -4.2340   19.8650 O   0  0  0  0  0  0  0  0  0  0  0  0
    7.0370   -3.0480   21.3470 N   0  0  0  0  0  0  0  0  0  0  0  0
    6.4460   -3.7810   22.4840 C   0  0  0  0  0  0  0  0  0  0  0  0
    8.4190   -2.5690   21.5960 C   0  0  0  0  0  0  0  0  0  0  0  0
    7.0970   -3.3810   23.8270 C   0  0  1  0  0  0  0  0  0  0  0  0
    8.7210   -1.9520   22.9800 C   0  0  1  0  0  0  0  0  0  0  0  0
    6.8030   -4.6190   24.6550 C   0  0  0  0  0  0  0  0  0  0  0  0
    8.4220   -2.9370   23.9150 C   0  0  2  0  0  0  0  0  0  0  0  0
   10.0710   -1.5280   22.8790 C   0  0  0  0  0  0  0  0  0  0  0  0
    7.9070   -4.9490   25.6300 C   0  0  0  0  0  0  0  0  0  0  0  0
    9.3980   -3.9200   24.0980 C   0  0  0  0  0  0  0  0  0  0  0  0
   11.1880   -2.4530   22.5970 C   0  0  0  0  0  0  0  0  0  0  0  0
   10.4760   -0.2050   23.0180 C   0  0  0  0  0  0  0  0  0  0  0  0
    9.1730   -4.9410   25.0420 C   0  0  0  0  0  0  0  0  0  0  0  0
   12.6090   -1.9080   22.4860 C   0  0  0  0  0  0  0  0  0  0  0  0
   11.7840    0.2750   22.9180 C   0  0  0  0  0  0  0  0  0  0  0  0
    9.5030    0.7930   23.2690 N   0  0  0  0  0  0  0  0  0  0  0  0
   12.8920   -0.4390   22.6660 C   0  0  0  0  0  0  0  0  0  0  0  0
    8.7680    0.7890   22.0370 C   0  0  0  0  0  0  0  0  0  0  0  0
   13.9600    0.1140   22.6010 O   0  0  0  0  0  0  0  0  0  0  0  0
    8.9880    1.7290   21.2600 O   0  0  0  0  0  0  0  0  0  0  0  0
    7.9170   -0.2310   21.8310 N   0  0  0  0  0  0  0  0  0  0  0  0
    7.0940    0.2420   20.8300 C   0  0  0  0  0  0  0  0  0  0  0  0
    5.9690    0.9100   21.1030 C   0  0  0  0  0  0  0  0  0  0  0  0
    7.2640    0.1740   19.4100 N   0  0  0  0  0  0  0  0  0  0  0  0
    5.4230    1.3240   19.9600 C   0  0  0  0  0  0  0  0  0  0  0  0
    6.2330    0.8650   18.8910 C   0  0  0  0  0  0  0  0  0  0  0  0
    4.3130    2.0640   19.7720 C   0  0  0  0  0  0  0  0  0  0  0  0
    6.0880    1.0520   17.6060 N   0  0  0  0  0  0  0  0  0  0  0  0
    4.0630    2.3560   18.5010 C   0  0  0  0  0  0  0  0  0  0  0  0
    5.0100    1.8160   17.4680 C   0  0  0  0  0  0  0  0  0  0  0  0
  1  2  1  0
  2  3  2  0
  2  4  1  0
  4  5  1  0
  4  6  1  0
  7  5  1  6
  6  8  1  0
  7  9  1  0
  7 10  1  0
  8 10  1  0
  8 11  1  6
  9 12  1  0
 10 13  1  6
 11 14  2  0
 11 15  1  0
 12 16  1  0
 13 16  1  0
 14 17  1  0
 15 18  2  0
 15 19  1  0
 17 20  2  0
 18 20  1  0
 19 21  1  0
 20 22  1  0
 21 23  2  0
 21 24  1  0
 24 25  1  0
 25 26  2  0
 25 27  1  0
 26 28  1  0
 27 29  1  0
 28 29  2  0
 28 30  1  0
 29 31  1  0
 30 32  2  0
 31 33  2  0
 32 33  1  0
M  END
