JAN-LUN-04aedcc0-3-nitrile
     RDKit          3D

 32 36  0  0  0  0  0  0  0  0999 V2000
    7.3080   -3.6380   19.9490 C   0  0  0  0  0  0  0  0  0  0  0  0
    6.1250   -3.6240   19.4390 N   0  0  0  0  0  0  0  0  0  0  0  0
    7.6410   -3.3180   21.2650 N   0  0  0  0  0  0  0  0  0  0  0  0
    6.7800   -3.6780   22.4070 C   0  0  0  0  0  0  0  0  0  0  0  0
    8.8590   -2.5410   21.5260 C   0  0  0  0  0  0  0  0  0  0  0  0
    7.4290   -3.4720   23.7970 C   0  0  1  0  0  0  0  0  0  0  0  0
    9.0540   -1.9990   22.9410 C   0  0  1  0  0  0  0  0  0  0  0  0
    7.0640   -4.8410   24.4250 C   0  0  0  0  0  0  0  0  0  0  0  0
    8.7540   -2.9750   23.8930 C   0  0  2  0  0  0  0  0  0  0  0  0
   10.3030   -1.3380   22.9310 C   0  0  0  0  0  0  0  0  0  0  0  0
    7.9820   -4.9290   25.6530 C   0  0  0  0  0  0  0  0  0  0  0  0
    9.7360   -3.9200   24.1400 C   0  0  0  0  0  0  0  0  0  0  0  0
   11.4870   -2.0100   22.5920 C   0  0  0  0  0  0  0  0  0  0  0  0
   10.3580    0.0230   23.2500 C   0  0  0  0  0  0  0  0  0  0  0  0
    9.4510   -4.6790   25.4170 C   0  0  0  0  0  0  0  0  0  0  0  0
   12.8320   -1.2600   22.5760 C   0  0  0  0  0  0  0  0  0  0  0  0
   11.5390    0.7450   23.2590 C   0  0  0  0  0  0  0  0  0  0  0  0
    9.2170    0.6100   23.5230 N   0  0  0  0  0  0  0  0  0  0  0  0
   12.9300    0.2110   22.9240 C   0  0  0  0  0  0  0  0  0  0  0  0
    8.6920    0.9210   22.3340 C   0  0  0  0  0  0  0  0  0  0  0  0
   13.9730    0.8110   22.9100 O   0  0  0  0  0  0  0  0  0  0  0  0
    9.0360    1.8850   21.6010 O   0  0  0  0  0  0  0  0  0  0  0  0
    7.6640   -0.0500   21.9850 N   0  0  0  0  0  0  0  0  0  0  0  0
    6.9450    0.4030   21.0120 C   0  0  0  0  0  0  0  0  0  0  0  0
    5.8400    1.1420   21.2120 C   0  0  0  0  0  0  0  0  0  0  0  0
    7.1480    0.2700   19.6720 N   0  0  0  0  0  0  0  0  0  0  0  0
    5.3420    1.5190   20.0360 C   0  0  0  0  0  0  0  0  0  0  0  0
    6.1630    0.9700   19.0430 C   0  0  0  0  0  0  0  0  0  0  0  0
    4.2560    2.2960   19.7710 C   0  0  0  0  0  0  0  0  0  0  0  0
    6.0450    1.0970   17.7350 N   0  0  0  0  0  0  0  0  0  0  0  0
    4.1140    2.4730   18.4480 C   0  0  0  0  0  0  0  0  0  0  0  0
    4.9860    1.8930   17.5270 C   0  0  0  0  0  0  0  0  0  0  0  0
  1  2  2  3
  1  3  1  0
  3  4  1  0
  3  5  1  0
  6  4  1  6
  5  7  1  0
  6  8  1  0
  6  9  1  0
  7  9  1  0
  7 10  1  6
  8 11  1  0
  9 12  1  6
 10 13  2  0
 10 14  1  0
 11 15  1  0
 12 15  1  0
 13 16  1  0
 14 17  2  0
 14 18  1  0
 16 19  2  0
 17 19  1  0
 18 20  1  0
 19 21  1  0
 20 22  2  0
 20 23  1  0
 23 24  1  0
 24 25  2  0
 24 26  1  0
 25 27  1  0
 26 28  1  0
 27 28  2  0
 27 29  1  0
 28 30  1  0
 29 31  2  0
 30 32  2  0
 31 32  1  0
M  END
