JAS-UND-c13ee042-2
     RDKit          3D

 11 11  0  0  0  0  0  0  0  0999 V2000
    5.1140   -6.1160   22.4030 N   0  0  0  0  0  0  0  0  0  0  0  0
    4.2310   -5.6930   23.3610 C   0  0  0  0  0  0  0  0  0  0  0  0
    4.5300   -4.5800   24.1900 O   0  0  0  0  0  0  0  0  0  0  0  0
    2.9850   -6.4970   23.3860 C   0  0  0  0  0  0  0  0  0  0  0  0
    1.9700   -6.1400   22.5690 N   0  0  0  0  0  0  0  0  0  0  0  0
    2.8990   -7.6640   24.2910 C   0  0  0  0  0  0  0  0  0  0  0  0
    0.8610   -6.9200   22.6020 C   0  0  0  0  0  0  0  0  0  0  0  0
    1.7910   -8.4970   24.3420 N   0  0  0  0  0  0  0  0  0  0  0  0
    3.7420   -8.0520   25.0760 O   0  0  0  0  0  0  0  0  0  0  0  0
   -0.6310   -6.4940   21.5390 Br  0  0  0  0  0  0  0  0  0  0  0  0
    0.7610   -8.1380   23.4900 C   0  0  0  0  0  0  0  0  0  0  0  0
  1  2  1  0
  2  3  2  0
  2  4  1  0
  4  5  2  0
  4  6  1  0
  5  7  1  0
  6  8  2  0
  6  9  1  0
  7 10  1  0
  7 11  2  0
  8 11  1  0
M  END
