JAS-UND-c13ee042-1
     RDKit          3D

 11 11  0  0  0  0  0  0  0  0999 V2000
    5.2580   -6.2400   22.6200 N   0  0  0  0  0  0  0  0  0  0  0  0
    4.2570   -5.7120   23.3970 C   0  0  0  0  0  0  0  0  0  0  0  0
    4.4580   -4.4960   24.0970 O   0  0  0  0  0  0  0  0  0  0  0  0
    3.0070   -6.5170   23.3910 C   0  0  0  0  0  0  0  0  0  0  0  0
    2.0070   -6.1730   22.5430 N   0  0  0  0  0  0  0  0  0  0  0  0
    2.9050   -7.6730   24.3020 C   0  0  0  0  0  0  0  0  0  0  0  0
    0.9050   -6.9690   22.5600 C   0  0  0  0  0  0  0  0  0  0  0  0
    1.8060   -8.5160   24.3350 N   0  0  0  0  0  0  0  0  0  0  0  0
    3.7280   -8.0520   25.1090 O   0  0  0  0  0  0  0  0  0  0  0  0
   -0.3900   -6.5610   21.5350 Cl  0  0  0  0  0  0  0  0  0  0  0  0
    0.7930   -8.1760   23.4550 C   0  0  0  0  0  0  0  0  0  0  0  0
  1  2  1  0
  2  3  2  0
  2  4  1  0
  4  5  2  0
  4  6  1  0
  5  7  1  0
  6  8  2  0
  6  9  1  0
  7 10  1  0
  7 11  2  0
  8 11  1  0
M  END
