JAV-UNI-4503e1e6-1
     RDKit          3D

 26 29  0  0  0  0  0  0  0  0999 V2000
    5.8530   -2.7910   20.0300 C   0  0  0  0  0  0  0  0  0  0  0  0
    5.6800   -4.2280   20.4450 C   0  0  0  0  0  0  0  0  0  0  0  0
    5.4830   -5.0970   19.6260 O   0  0  0  0  0  0  0  0  0  0  0  0
    5.7470   -4.5120   21.7740 N   0  0  0  0  0  0  0  0  0  0  0  0
    5.4200   -5.8380   22.3050 C   0  0  0  0  0  0  0  0  0  0  0  0
    6.2180   -3.4130   22.6510 C   0  0  1  0  0  0  0  0  0  0  0  0
    4.6950   -5.7540   23.5920 C   0  0  0  0  0  0  0  0  0  0  0  0
    6.0660   -3.7130   24.1720 C   0  0  2  0  0  0  0  0  0  0  0  0
    7.6810   -3.1050   22.3320 C   0  0  0  0  0  0  0  0  0  0  0  0
    3.6990   -6.6830   23.9220 C   0  0  0  0  0  0  0  0  0  0  0  0
    5.0080   -4.7370   24.4820 C   0  0  0  0  0  0  0  0  0  0  0  0
    5.8030   -2.4270   24.9520 C   0  0  0  0  0  0  0  0  0  0  0  0
    8.3040   -4.3690   22.7040 C   0  0  0  0  0  0  0  0  0  0  0  0
    3.0260   -6.5750   25.1380 C   0  0  0  0  0  0  0  0  0  0  0  0
    4.3410   -4.6340   25.6880 C   0  0  0  0  0  0  0  0  0  0  0  0
    5.1120   -1.3680   24.3290 C   0  0  0  0  0  0  0  0  0  0  0  0
    6.2190   -2.2550   26.2810 C   0  0  0  0  0  0  0  0  0  0  0  0
    7.8310   -5.5300   22.1240 C   0  0  0  0  0  0  0  0  0  0  0  0
    9.3110   -4.4360   23.6190 C   0  0  0  0  0  0  0  0  0  0  0  0
    3.3480   -5.5450   26.0190 C   0  0  0  0  0  0  0  0  0  0  0  0
    4.8530   -0.1850   25.0160 C   0  0  0  0  0  0  0  0  0  0  0  0
    5.9600   -1.0720   26.9660 C   0  0  0  0  0  0  0  0  0  0  0  0
    8.3640   -6.7210   22.4860 C   0  0  0  0  0  0  0  0  0  0  0  0
    9.8520   -5.5890   23.9810 N   0  0  0  0  0  0  0  0  0  0  0  0
    5.2760   -0.0330   26.3330 C   0  0  0  0  0  0  0  0  0  0  0  0
    9.3540   -6.6900   23.4050 C   0  0  0  0  0  0  0  0  0  0  0  0
  1  2  1  0
  2  3  2  0
  2  4  1  0
  4  5  1  0
  4  6  1  0
  5  7  1  0
  6  8  1  0
  6  9  1  1
  7 10  1  0
  7 11  2  0
  8 11  1  0
  8 12  1  1
  9 13  1  0
 10 14  2  0
 11 15  1  0
 12 16  2  0
 12 17  1  0
 13 18  2  0
 13 19  1  0
 14 20  1  0
 15 20  2  0
 16 21  1  0
 17 22  2  0
 18 23  1  0
 19 24  2  0
 21 25  2  0
 22 25  1  0
 23 26  2  0
 24 26  1  0
M  END
