JIA-UNI-9972d268-1
     RDKit          3D

 27 28  0  0  0  0  0  0  0  0999 V2000
    8.6400    0.7360   21.1670 O   0  0  0  0  0  0  0  0  0  0  0  0
    8.2760   -0.3280   21.6210 C   0  0  0  0  0  0  0  0  0  0  0  0
    9.0060   -1.1900   22.3980 N   0  0  0  0  0  0  0  0  0  0  0  0
    7.0120   -0.8290   21.4140 N   0  0  0  0  0  0  0  0  0  0  0  0
   10.2800   -0.6380   22.7190 C   0  0  0  0  0  0  0  0  0  0  0  0
    6.0440   -0.2240   20.4760 C   0  0  1  0  0  0  0  0  0  0  0  0
   11.4270   -1.3860   22.0980 C   0  0  0  0  0  0  0  0  0  0  0  0
   10.5220    0.4910   23.5240 C   0  0  0  0  0  0  0  0  0  0  0  0
    5.7870    1.2930   20.6640 C   0  0  0  0  0  0  0  0  0  0  0  0
    6.5090   -0.4650   19.0530 C   0  0  0  0  0  0  0  0  0  0  0  0
   12.7680   -0.8260   22.3990 C   0  0  0  0  0  0  0  0  0  0  0  0
   11.8510    0.9180   23.7260 C   0  0  0  0  0  0  0  0  0  0  0  0
    9.4470    1.3490   24.2350 C   0  0  0  0  0  0  0  0  0  0  0  0
    4.2950    1.5600   20.6110 C   0  0  2  0  0  0  0  0  0  0  0  0
    6.4940   -1.5660   18.5090 O   0  0  0  0  0  0  0  0  0  0  0  0
    6.9310    0.6790   18.4230 C   0  0  0  0  0  0  0  0  0  0  0  0
   12.9390    0.2510   23.1560 C   0  0  0  0  0  0  0  0  0  0  0  0
    9.6250    3.0790   23.8500 S   0  0  0  0  0  0  0  0  0  0  0  0
    3.7670    2.2490   19.5120 C   0  0  0  0  0  0  0  0  0  0  0  0
    3.7230    2.4060   21.7390 C   0  0  0  0  0  0  0  0  0  0  0  0
    5.6070    1.2870   17.4660 Cl  0  0  0  0  0  0  0  0  0  0  0  0
   11.0410    3.3800   23.7220 O   0  0  0  0  0  0  0  0  0  0  0  0
    8.7790    3.8390   24.7440 O   0  0  0  0  0  0  0  0  0  0  0  0
    9.0130    3.3260   22.4070 F   0  0  0  0  0  0  0  0  0  0  0  0
    2.7190    3.1310   19.7780 C   0  0  0  0  0  0  0  0  0  0  0  0
    2.7370    3.2120   21.2080 N   0  0  0  0  0  0  0  0  0  0  0  0
    4.0650    2.3930   22.9090 O   0  0  0  0  0  0  0  0  0  0  0  0
  1  2  2  0
  2  3  1  0
  2  4  1  0
  3  5  1  0
  4  6  1  0
  5  7  2  0
  5  8  1  0
  6  9  1  1
  6 10  1  0
  7 11  1  0
  8 12  2  0
  8 13  1  0
 14  9  1  6
 10 15  2  0
 10 16  1  0
 11 17  2  0
 12 17  1  0
 13 18  1  0
 14 19  1  0
 14 20  1  0
 16 21  1  0
 18 22  2  0
 18 23  2  0
 18 24  1  0
 19 25  1  0
 20 26  1  0
 25 26  1  0
 20 27  2  0
M  END
