JOH-UNI-27ac80fd-33-bromoalkyne
     RDKit          3D

 18 20  0  0  0  0  0  0  0  0999 V2000
    6.7000   -4.4120   20.6810 C   0  0  0  0  0  0  0  0  0  0  0  0
    5.5330   -4.6680   20.1300 C   0  0  0  0  0  0  0  0  0  0  0  0
    6.9590   -4.8200   22.0950 N   0  0  0  0  0  0  0  0  0  0  0  0
    8.0170   -5.6710   22.6310 C   0  0  0  0  0  0  0  0  0  0  0  0
    6.0460   -4.5810   23.2750 C   0  0  0  0  0  0  0  0  0  0  0  0
    8.8650   -5.0160   23.7740 C   0  0  0  0  0  0  0  0  0  0  0  0
    6.7380   -4.1410   24.6040 C   0  0  0  0  0  0  0  0  0  0  0  0
    8.1830   -3.9970   24.5830 N   0  0  0  0  0  0  0  0  0  0  0  0
    8.6120   -2.6430   24.2590 C   0  0  2  0  0  0  0  0  0  0  0  0
   10.1300   -2.5420   24.0100 C   0  0  0  0  0  0  0  0  0  0  0  0
    8.0040   -1.4540   25.0380 C   0  0  0  0  0  0  0  0  0  0  0  0
    7.9340   -2.0930   23.0960 O   0  0  0  0  0  0  0  0  0  0  0  0
   11.1940   -2.9250   24.8040 C   0  0  0  0  0  0  0  0  0  0  0  0
   10.5420   -1.8440   22.5430 S   0  0  0  0  0  0  0  0  0  0  0  0
    8.1650   -0.7920   23.6740 C   0  0  0  0  0  0  0  0  0  0  0  0
   12.4140   -2.6080   24.1480 C   0  0  0  0  0  0  0  0  0  0  0  0
   12.1360   -2.0240   22.9370 C   0  0  0  0  0  0  0  0  0  0  0  0
   13.3420   -1.4040   21.6860 Br  0  0  0  0  0  0  0  0  0  0  0  0
  1  2  2  3
  1  3  1  0
  3  4  1  0
  3  5  1  0
  4  6  1  0
  5  7  1  0
  6  8  1  0
  7  8  1  0
  8  9  1  0
  9 10  1  6
  9 11  1  0
  9 12  1  0
 10 13  2  0
 10 14  1  0
 11 15  1  0
 12 15  1  0
 13 16  1  0
 14 17  1  0
 16 17  2  0
 17 18  1  0
M  END
