JOH-MSK-1fa17de7-1-acrylamide
     RDKit          3D

 17 18  0  0  0  0  0  0  0  0999 V2000
    8.2170   -3.3580   20.2780 C   0  0  0  0  0  0  0  0  0  0  0  0
    7.1370   -3.8360   20.8600 C   0  0  0  0  0  0  0  0  0  0  0  0
    6.3650   -2.6860   21.4440 C   0  0  0  0  0  0  0  0  0  0  0  0
    4.9280   -3.1150   21.3460 O   0  0  0  0  0  0  0  0  0  0  0  0
    7.3130   -1.2410   21.9560 C   0  0  0  0  0  0  0  0  0  0  0  0
    6.4630   -0.0290   22.4190 C   0  0  0  0  0  0  0  0  0  0  0  0
    8.9820   -0.7190   22.0870 C   0  0  0  0  0  0  0  0  0  0  0  0
    6.9930    1.3070   22.8580 C   0  0  0  0  0  0  0  0  0  0  0  0
    9.3670    0.6820   22.5400 C   0  0  0  0  0  0  0  0  0  0  0  0
    8.3380    1.5210   22.8660 C   0  0  0  0  0  0  0  0  0  0  0  0
   10.5540    1.5510   22.7750 C   0  0  0  0  0  0  0  0  0  0  0  0
    8.8650    2.7850   23.2580 N   0  0  0  0  0  0  0  0  0  0  0  0
   10.2200    2.8990   23.2250 C   0  0  0  0  0  0  0  0  0  0  0  0
   10.8300    4.5050   23.7070 S   0  0  0  0  0  0  0  0  0  0  0  0
    9.7650    5.5330   22.9330 N   0  0  0  0  0  0  0  0  0  0  0  0
   10.5380    4.6630   25.1150 O   0  0  0  0  0  0  0  0  0  0  0  0
   12.0940    4.8070   23.0890 O   0  0  0  0  0  0  0  0  0  0  0  0
  1  2  1  0
  2  3  1  0
  3  4  2  0
  3  5  1  0
  5  6  2  0
  5  7  1  0
  6  8  1  0
  7  9  2  0
  8 10  2  0
  9 10  1  0
  9 11  1  0
 10 12  1  0
 11 13  2  0
 12 13  1  0
 13 14  1  0
 14 15  1  0
 14 16  2  0
 14 17  2  0
M  END
