JOH-CHE-3504ac3d-3
     RDKit          3D

 25 27  0  0  0  0  0  0  0  0999 V2000
    9.7620    6.4140   25.0720 C   0  0  0  0  0  0  0  0  0  0  0  0
   10.3480    6.6650   23.6880 C   0  0  0  0  0  0  0  0  0  0  0  0
    9.5020    7.0030   22.6210 C   0  0  0  0  0  0  0  0  0  0  0  0
   11.8310    6.5470   23.4630 C   0  0  0  0  0  0  0  0  0  0  0  0
   12.1810    5.5890   22.5220 C   0  0  0  0  0  0  0  0  0  0  0  0
   12.9220    4.3390   22.9640 C   0  0  0  0  0  0  0  0  0  0  0  0
   11.8930    3.2470   23.2130 C   0  0  0  0  0  0  0  0  0  0  0  0
   10.5590    3.3990   23.5340 C   0  0  0  0  0  0  0  0  0  0  0  0
   12.1740    1.7750   23.1490 C   0  0  0  0  0  0  0  0  0  0  0  0
    9.9520    2.1200   23.6720 N   0  0  0  0  0  0  0  0  0  0  0  0
   10.9580    1.1450   23.4170 C   0  0  0  0  0  0  0  0  0  0  0  0
   13.3020    1.1510   22.8930 N   0  0  0  0  0  0  0  0  0  0  0  0
   13.0980   -0.0870   22.5160 C   0  0  0  0  0  0  0  0  0  0  0  0
   10.7730   -0.2860   23.4140 C   0  0  2  0  0  0  0  0  0  0  0  0
   13.7270   -0.5580   21.5950 O   0  0  0  0  0  0  0  0  0  0  0  0
   12.0950   -0.9920   23.1150 C   0  0  1  0  0  0  0  0  0  0  0  0
    9.6330   -0.8520   22.1730 S   0  0  0  0  0  0  0  0  0  0  0  0
   11.9270   -1.9740   21.9970 C   0  0  0  0  0  0  0  0  0  0  0  0
   10.5000   -2.4500   22.1090 C   0  0  1  0  0  0  0  0  0  0  0  0
   10.1430   -3.0630   23.3230 C   0  0  0  0  0  0  0  0  0  0  0  0
    8.8160   -3.8220   23.2510 C   0  0  0  0  0  0  0  0  0  0  0  0
    8.2080   -4.1200   24.4820 C   0  0  0  0  0  0  0  0  0  0  0  0
    8.8990   -4.9020   25.4080 C   0  0  0  0  0  0  0  0  0  0  0  0
    9.8310   -5.6840   25.0350 N   0  0  0  0  0  0  0  0  0  0  0  0
    8.5910   -4.8440   26.7100 N   0  0  0  0  0  0  0  0  0  0  0  0
  1  2  2  3
  2  3  1  0
  2  4  1  0
  4  5  1  0
  5  6  1  0
  6  7  1  0
  7  8  2  0
  7  9  1  0
  8 10  1  0
  9 11  2  0
 10 11  1  0
  9 12  1  0
 12 13  1  0
 11 14  1  0
 13 15  2  0
 13 16  1  0
 14 16  1  0
 14 17  1  6
 16 18  1  6
 17 19  1  0
 18 19  1  0
 19 20  1  1
 20 21  1  0
 21 22  1  0
 22 23  1  0
 23 24  2  3
 23 25  1  0
M  END
