JOH-UNI-522b0723-2-acrylamide
     RDKit          3D

 18 19  0  0  0  0  0  0  0  0999 V2000
    7.8390   -3.7370   20.2510 C   0  0  0  0  0  0  0  0  0  0  0  0
    6.9860   -2.5160   20.0010 C   0  0  0  0  0  0  0  0  0  0  0  0
    6.1570   -2.3690   21.2370 C   0  0  0  0  0  0  0  0  0  0  0  0
    4.9050   -3.1070   21.3390 O   0  0  0  0  0  0  0  0  0  0  0  0
    7.1110   -1.3020   22.0610 C   0  0  0  0  0  0  0  0  0  0  0  0
    7.4700   -2.2510   23.0560 C   0  0  0  0  0  0  0  0  0  0  0  0
    8.0250   -0.8400   23.0840 N   0  0  0  0  0  0  0  0  0  0  0  0
    7.4020   -3.5280   23.6340 C   0  0  0  0  0  0  0  0  0  0  0  0
    8.7000   -1.4910   24.3350 C   0  0  0  0  0  0  0  0  0  0  0  0
    8.2580   -2.8630   24.4700 C   0  0  0  0  0  0  0  0  0  0  0  0
    8.7020   -3.6070   25.5140 N   0  0  0  0  0  0  0  0  0  0  0  0
    7.8270   -3.7370   26.5020 C   0  0  0  0  0  0  0  0  0  0  0  0
    9.0190   -4.9330   25.1730 C   0  0  1  0  0  0  0  0  0  0  0  0
    7.0910   -4.9530   26.3870 C   0  0  0  0  0  0  0  0  0  0  0  0
    7.9100   -5.2370   24.3950 C   0  0  2  0  0  0  0  0  0  0  0  0
   10.3180   -4.8270   24.5900 C   0  0  0  0  0  0  0  0  0  0  0  0
    6.9870   -5.5630   25.2910 O   0  0  0  0  0  0  0  0  0  0  0  0
    8.0580   -6.2010   23.2590 C   0  0  0  0  0  0  0  0  0  0  0  0
  1  2  1  0
  2  3  1  0
  3  4  2  0
  3  5  1  0
  5  6  2  0
  5  7  1  0
  6  8  1  0
  7  9  2  0
  8 10  2  0
  9 10  1  0
 10 11  1  0
 11 12  1  0
 11 13  1  0
 12 14  1  0
 13 15  1  0
 13 16  1  6
 14 17  1  0
 15 17  1  0
 15 18  1  6
M  END
