JOH-UNI-522b0723-5-vinylsulfonamide
     RDKit          3D

 19 20  0  0  0  0  0  0  0  0999 V2000
    7.2150   -3.0920   19.1000 C   0  0  0  0  0  0  0  0  0  0  0  0
    7.4130   -1.8600   19.9900 C   0  0  0  0  0  0  0  0  0  0  0  0
    6.1110   -1.9330   21.2320 S   0  0  0  0  0  0  0  0  0  0  0  0
    4.9830   -3.1130   21.0010 O   0  0  0  0  0  0  0  0  0  0  0  0
    5.6560   -0.5730   21.4070 O   0  0  0  0  0  0  0  0  0  0  0  0
    7.2420   -2.2620   22.6010 C   0  0  0  0  0  0  0  0  0  0  0  0
    6.7270   -2.2340   23.9570 C   0  0  0  0  0  0  0  0  0  0  0  0
    8.6070   -2.5810   22.2740 N   0  0  0  0  0  0  0  0  0  0  0  0
    7.9540   -2.6470   24.1370 C   0  0  0  0  0  0  0  0  0  0  0  0
    9.6190   -2.9910   23.2260 C   0  0  0  0  0  0  0  0  0  0  0  0
    9.1520   -3.0740   24.4710 C   0  0  0  0  0  0  0  0  0  0  0  0
    9.6420   -3.4680   25.6620 N   0  0  0  0  0  0  0  0  0  0  0  0
   10.4280   -4.5830   25.1170 C   0  0  0  0  0  0  0  0  0  0  0  0
    8.5780   -4.1560   26.5260 C   0  0  1  0  0  0  0  0  0  0  0  0
    9.2350   -5.3800   24.6450 C   0  0  0  0  0  0  0  0  0  0  0  0
    7.7230   -5.2710   25.7370 C   0  0  2  0  0  0  0  0  0  0  0  0
    9.2980   -4.7880   27.7640 C   0  0  0  0  0  0  0  0  0  0  0  0
    8.1390   -5.6250   24.6930 N   0  0  0  0  0  0  0  0  0  0  0  0
    6.2260   -4.9800   25.5940 C   0  0  0  0  0  0  0  0  0  0  0  0
  1  2  1  0
  3  2  1  0
  3  4  2  0
  3  5  2  0
  3  6  1  0
  6  7  2  0
  6  8  1  0
  7  9  1  0
  8 10  2  0
  9 11  2  0
 10 11  1  0
 11 12  1  0
 12 13  1  0
 12 14  1  0
 13 15  1  0
 14 16  1  0
 14 17  1  1
 15 18  1  0
 16 18  1  0
 16 19  1  6
M  END
