JOH-UNI-e19b918c-10-chloroacetamide
     RDKit          3D

 15 17  0  0  0  0  0  0  0  0999 V2000
    7.3150   -3.2650   19.2830 C   0  0  0  0  0  0  0  0  0  0  0  0
    6.5770   -4.0820   20.2890 C   0  0  0  0  0  0  0  0  0  0  0  0
    5.5120   -4.6240   19.9650 O   0  0  0  0  0  0  0  0  0  0  0  0
    7.1530   -4.2670   21.5340 N   0  0  0  0  0  0  0  0  0  0  0  0
    7.0370   -3.1690   22.5350 C   0  0  0  0  0  0  0  0  0  0  0  0
    6.7120   -5.5470   22.1430 C   0  0  0  0  0  0  0  0  0  0  0  0
    5.7990   -3.6560   23.2310 C   0  0  0  0  0  0  0  0  0  0  0  0
    5.5960   -5.0150   23.0110 C   0  0  0  0  0  0  0  0  0  0  0  0
    4.8320   -2.8490   24.0630 C   0  0  0  0  0  0  0  0  0  0  0  0
    4.3810   -5.7670   23.5940 C   0  0  0  0  0  0  0  0  0  0  0  0
    3.7020   -3.5110   24.6110 C   0  0  0  0  0  0  0  0  0  0  0  0
    3.4360   -4.8810   24.4220 C   0  0  0  0  0  0  0  0  0  0  0  0
    2.3160   -5.2890   25.0220 O   0  0  0  0  0  0  0  0  0  0  0  0
    2.7880   -2.8670   25.3550 O   0  0  0  0  0  0  0  0  0  0  0  0
    1.8560   -3.9890   25.5270 C   0  0  0  0  0  0  0  0  0  0  0  0
  1  2  1  0
  2  3  2  0
  2  4  1  0
  4  5  1  0
  4  6  1  0
  5  7  1  0
  6  8  1  0
  7  8  2  0
  7  9  1  0
  8 10  1  0
  9 11  2  0
 10 12  2  0
 11 12  1  0
 12 13  1  0
 11 14  1  0
 13 15  1  0
 14 15  1  0
M  END
