JOH-UNI-522b0723-6-acrylamide
     RDKit          3D

 19 20  0  0  0  0  0  0  0  0999 V2000
    8.1680   -3.9840   20.5510 C   0  0  0  0  0  0  0  0  0  0  0  0
    6.7260   -3.4950   20.4820 C   0  0  0  0  0  0  0  0  0  0  0  0
    6.0820   -3.6560   21.8520 C   0  0  0  0  0  0  0  0  0  0  0  0
    4.8520   -3.8470   21.9600 O   0  0  0  0  0  0  0  0  0  0  0  0
    6.9570   -3.6090   23.0830 C   0  0  0  0  0  0  0  0  0  0  0  0
    7.9460   -3.3120   24.2250 C   0  0  0  0  0  0  0  0  0  0  0  0
    7.2170   -2.4390   22.2740 N   0  0  0  0  0  0  0  0  0  0  0  0
    8.7930   -2.1820   24.3090 C   0  0  0  0  0  0  0  0  0  0  0  0
    8.1670   -1.4860   22.6900 C   0  0  0  0  0  0  0  0  0  0  0  0
    7.8540   -2.5800   23.3400 C   0  0  0  0  0  0  0  0  0  0  0  0
    7.8390   -3.5750   24.3220 N   0  0  0  0  0  0  0  0  0  0  0  0
    8.9000   -4.5820   24.1380 C   0  0  0  0  0  0  0  0  0  0  0  0
    7.6010   -3.2410   25.8160 C   0  0  2  0  0  0  0  0  0  0  0  0
    8.9520   -5.1180   25.5530 C   0  0  0  0  0  0  0  0  0  0  0  0
    7.3670   -4.4120   26.6040 C   0  0  2  0  0  0  0  0  0  0  0  0
    6.5790   -2.0780   25.9740 C   0  0  0  0  0  0  0  0  0  0  0  0
    8.5160   -5.2240   26.6000 N   0  0  0  0  0  0  0  0  0  0  0  0
    6.1640   -5.3530   26.3080 C   0  0  0  0  0  0  0  0  0  0  0  0
    9.3180   -5.1220   27.8230 C   0  0  0  0  0  0  0  0  0  0  0  0
  1  2  1  0
  2  3  1  0
  3  4  2  0
  3  5  1  0
  5  6  2  0
  5  7  1  0
  6  8  1  0
  7  9  2  0
  8 10  2  0
  9 10  1  0
 10 11  1  0
 11 12  1  0
 11 13  1  0
 12 14  1  0
 13 15  1  0
 13 16  1  6
 14 17  1  0
 15 17  1  0
 15 18  1  6
 17 19  1  0
M  END
