JOH-UNI-522b0723-11-chloroacetamide
     RDKit          3D

 25 27  0  0  0  0  0  0  0  0999 V2000
    7.7640   -2.7260   18.8200 C   0  0  0  0  0  0  0  0  0  0  0  0
    7.1260   -2.9670   20.0900 C   0  0  0  0  0  0  0  0  0  0  0  0
    6.0760   -3.7220   19.8190 O   0  0  0  0  0  0  0  0  0  0  0  0
    7.7220   -2.6110   21.5220 C   0  0  0  0  0  0  0  0  0  0  0  0
    8.1820   -3.7690   21.9870 N   0  0  0  0  0  0  0  0  0  0  0  0
    7.8910   -1.4670   22.4160 C   0  0  0  0  0  0  0  0  0  0  0  0
    8.7530   -3.9840   23.2130 C   0  0  0  0  0  0  0  0  0  0  0  0
    8.4920   -1.7060   23.7250 C   0  0  0  0  0  0  0  0  0  0  0  0
    7.4650   -0.0120   22.0880 C   0  0  0  0  0  0  0  0  0  0  0  0
    8.9090   -3.0040   24.1160 C   0  0  0  0  0  0  0  0  0  0  0  0
    8.5730    0.8790   22.0110 O   0  0  0  0  0  0  0  0  0  0  0  0
    6.1240    0.2680   21.9060 N   0  0  0  0  0  0  0  0  0  0  0  0
    9.4320   -3.5210   25.2150 N   0  0  0  0  0  0  0  0  0  0  0  0
    5.6250    0.7610   20.6860 C   0  0  0  0  0  0  0  0  0  0  0  0
    8.6540   -3.4590   26.3020 C   0  0  0  0  0  0  0  0  0  0  0  0
    9.6150   -4.9580   25.0890 C   0  0  0  0  0  0  0  0  0  0  0  0
    4.2280    1.3980   20.4230 C   0  0  0  0  0  0  0  0  0  0  0  0
    6.4820    0.6700   19.5800 C   0  0  0  0  0  0  0  0  0  0  0  0
    7.6030   -4.5460   26.3660 C   0  0  0  0  0  0  0  0  0  0  0  0
    8.2110   -5.6450   24.8080 C   0  0  1  0  0  0  0  0  0  0  0  0
    3.8880    1.8490   19.1290 C   0  0  0  0  0  0  0  0  0  0  0  0
    6.1180    1.1220   18.3260 C   0  0  0  0  0  0  0  0  0  0  0  0
    7.2870   -5.0180   25.3120 O   0  0  0  0  0  0  0  0  0  0  0  0
    8.1840   -6.2700   23.4010 C   0  0  0  0  0  0  0  0  0  0  0  0
    4.9060    1.6980   18.0230 C   0  0  0  0  0  0  0  0  0  0  0  0
  1  2  1  0
  2  3  2  0
  2  4  1  0
  4  5  2  0
  4  6  1  0
  5  7  1  0
  6  8  2  0
  6  9  1  0
  7 10  2  0
  8 10  1  0
  9 11  2  0
  9 12  1  0
 10 13  1  0
 12 14  1  0
 13 15  1  0
 13 16  1  0
 14 17  2  0
 14 18  1  0
 15 19  1  0
 16 20  1  0
 17 21  1  0
 18 22  2  0
 19 23  1  0
 20 23  1  0
 20 24  1  6
 21 25  2  0
 22 25  1  0
M  END
