JOH-UNI-e19b918c-10-acrylamide
     RDKit          3D

 16 18  0  0  0  0  0  0  0  0999 V2000
    8.1260   -3.5490   19.4730 C   0  0  0  0  0  0  0  0  0  0  0  0
    7.0800   -2.7170   20.1630 C   0  0  0  0  0  0  0  0  0  0  0  0
    5.9500   -3.5490   20.6660 C   0  0  0  0  0  0  0  0  0  0  0  0
    5.2450   -4.2860   21.3220 O   0  0  0  0  0  0  0  0  0  0  0  0
    6.8780   -3.7570   21.7390 N   0  0  0  0  0  0  0  0  0  0  0  0
    6.6880   -5.0810   22.3970 C   0  0  0  0  0  0  0  0  0  0  0  0
    6.8660   -2.7830   22.8350 C   0  0  0  0  0  0  0  0  0  0  0  0
    5.5270   -4.7210   23.2680 C   0  0  0  0  0  0  0  0  0  0  0  0
    5.6520   -3.3500   23.5230 C   0  0  0  0  0  0  0  0  0  0  0  0
    4.4190   -5.4880   23.8010 C   0  0  0  0  0  0  0  0  0  0  0  0
    4.6500   -2.5810   24.3670 C   0  0  0  0  0  0  0  0  0  0  0  0
    3.4800   -4.7350   24.5880 C   0  0  0  0  0  0  0  0  0  0  0  0
    3.4940   -3.3790   24.9130 C   0  0  0  0  0  0  0  0  0  0  0  0
    2.4390   -3.0360   25.6680 O   0  0  0  0  0  0  0  0  0  0  0  0
    2.4310   -5.4130   25.0860 O   0  0  0  0  0  0  0  0  0  0  0  0
    1.6760   -4.2700   25.5780 C   0  0  0  0  0  0  0  0  0  0  0  0
  1  2  1  0
  2  3  1  0
  3  4  2  0
  3  5  1  0
  5  6  1  0
  5  7  1  0
  6  8  1  0
  7  9  1  0
  8  9  2  0
  8 10  1  0
  9 11  1  0
 10 12  2  0
 11 13  2  0
 12 13  1  0
 13 14  1  0
 12 15  1  0
 14 16  1  0
 15 16  1  0
M  END
