JOH-UNI-522b0723-8-chloroacetamide
     RDKit          3D

 25 27  0  0  0  0  0  0  0  0999 V2000
    8.0970   -2.8720   19.8140 C   0  0  0  0  0  0  0  0  0  0  0  0
    6.7900   -2.5690   20.4660 C   0  0  0  0  0  0  0  0  0  0  0  0
    6.3790   -2.8990   19.2550 O   0  0  0  0  0  0  0  0  0  0  0  0
    7.6150   -2.2700   21.7790 C   0  0  0  0  0  0  0  0  0  0  0  0
    7.9700   -3.4730   22.2570 N   0  0  0  0  0  0  0  0  0  0  0  0
    8.0210   -1.1350   22.5640 C   0  0  0  0  0  0  0  0  0  0  0  0
    8.6430   -3.7490   23.4120 C   0  0  0  0  0  0  0  0  0  0  0  0
    8.7250   -1.4420   23.7990 C   0  0  0  0  0  0  0  0  0  0  0  0
    7.7160    0.3420   22.1670 C   0  0  0  0  0  0  0  0  0  0  0  0
    9.0280   -2.7620   24.2400 C   0  0  0  0  0  0  0  0  0  0  0  0
    7.4960    1.1360   23.0860 O   0  0  0  0  0  0  0  0  0  0  0  0
    7.7140    0.6650   20.8540 N   0  0  0  0  0  0  0  0  0  0  0  0
    9.6070   -3.2660   25.3200 N   0  0  0  0  0  0  0  0  0  0  0  0
    6.5360    1.0000   20.2950 C   0  0  0  0  0  0  0  0  0  0  0  0
   10.3650   -4.3210   24.9800 C   0  0  0  0  0  0  0  0  0  0  0  0
    8.6220   -3.7780   26.3570 C   0  0  0  0  0  0  0  0  0  0  0  0
    6.2570    0.9750   18.7600 C   0  0  0  0  0  0  0  0  0  0  0  0
    5.4590    1.4010   21.1110 C   0  0  0  0  0  0  0  0  0  0  0  0
    9.3710   -5.4360   25.0040 C   0  0  0  0  0  0  0  0  0  0  0  0
    7.7590   -5.0690   25.9570 C   0  0  2  0  0  0  0  0  0  0  0  0
    4.9790    1.3450   18.2900 C   0  0  0  0  0  0  0  0  0  0  0  0
    4.2060    1.7600   20.6030 C   0  0  0  0  0  0  0  0  0  0  0  0
    8.3700   -5.7910   25.3090 N   0  0  0  0  0  0  0  0  0  0  0  0
    6.3310   -4.7230   25.5380 C   0  0  0  0  0  0  0  0  0  0  0  0
    3.8930    1.7590   19.2520 C   0  0  0  0  0  0  0  0  0  0  0  0
  1  2  1  0
  2  3  2  0
  2  4  1  0
  4  5  2  0
  4  6  1  0
  5  7  1  0
  6  8  2  0
  6  9  1  0
  7 10  2  0
  8 10  1  0
  9 11  2  0
  9 12  1  0
 10 13  1  0
 12 14  1  0
 13 15  1  0
 13 16  1  0
 14 17  2  0
 14 18  1  0
 15 19  1  0
 16 20  1  0
 17 21  1  0
 18 22  2  0
 19 23  1  0
 20 23  1  0
 20 24  1  6
 21 25  2  0
 22 25  1  0
M  END
