JOH-UNI-27ac80fd-38-bromoalkyne
     RDKit          3D

 18 19  0  0  0  0  0  0  0  0999 V2000
    6.8220   -3.3940   19.5980 C   0  0  0  0  0  0  0  0  0  0  0  0
    5.9820   -2.8930   18.7090 C   0  0  0  0  0  0  0  0  0  0  0  0
    6.7330   -2.9650   20.9000 N   0  0  0  0  0  0  0  0  0  0  0  0
    7.1560   -1.5740   21.1780 C   0  0  0  0  0  0  0  0  0  0  0  0
    6.6220   -3.8610   22.0720 C   0  0  0  0  0  0  0  0  0  0  0  0
    8.3920   -1.5350   22.0830 C   0  0  0  0  0  0  0  0  0  0  0  0
    7.8370   -3.6860   23.0090 C   0  0  0  0  0  0  0  0  0  0  0  0
    8.1390   -2.2640   23.3140 N   0  0  0  0  0  0  0  0  0  0  0  0
    9.1720   -2.1220   24.3320 C   0  0  0  0  0  0  0  0  0  0  0  0
    8.8040   -3.0770   25.3980 C   0  0  0  0  0  0  0  0  0  0  0  0
    9.5620   -4.0590   25.9400 C   0  0  0  0  0  0  0  0  0  0  0  0
    7.2310   -3.0340   26.0940 S   0  0  0  0  0  0  0  0  0  0  0  0
    8.8430   -4.7840   26.9240 C   0  0  0  0  0  0  0  0  0  0  0  0
    7.5900   -4.3340   27.0990 C   0  0  0  0  0  0  0  0  0  0  0  0
    9.4130   -5.8780   27.6220 C   0  0  0  0  0  0  0  0  0  0  0  0
    6.3670   -5.1050   28.3500 Br  0  0  0  0  0  0  0  0  0  0  0  0
    9.8030   -6.7070   26.5500 O   0  0  0  0  0  0  0  0  0  0  0  0
    9.6000   -6.0090   25.3220 C   0  0  0  0  0  0  0  0  0  0  0  0
  1  2  2  3
  1  3  1  0
  3  4  1  0
  3  5  1  0
  4  6  1  0
  5  7  1  0
  6  8  1  0
  7  8  1  0
  8  9  1  0
  9 10  1  0
 10 11  2  0
 10 12  1  0
 11 13  1  0
 12 14  1  0
 13 14  2  0
 13 15  1  0
 14 16  1  0
 15 17  1  0
 17 18  1  0
M  END
