JOH-UNI-522b0723-9-nitrile
     RDKit          3D

 25 27  0  0  0  0  0  0  0  0999 V2000
    7.6990   -2.9980   19.7920 C   0  0  0  0  0  0  0  0  0  0  0  0
    6.5750   -2.9090   19.1570 N   0  0  0  0  0  0  0  0  0  0  0  0
    8.0320   -1.9810   20.9610 C   0  0  0  0  0  0  0  0  0  0  0  0
    8.6980   -2.8380   21.6610 N   0  0  0  0  0  0  0  0  0  0  0  0
    8.5850   -1.4310   22.3210 C   0  0  0  0  0  0  0  0  0  0  0  0
    8.4820   -3.2660   22.9240 C   0  0  0  0  0  0  0  0  0  0  0  0
    9.2200   -1.9830   23.6580 C   0  0  0  0  0  0  0  0  0  0  0  0
    8.5140    0.1260   22.3230 C   0  0  0  0  0  0  0  0  0  0  0  0
    9.0040   -3.3060   24.0170 C   0  0  0  0  0  0  0  0  0  0  0  0
    9.5240    0.7410   21.9640 O   0  0  0  0  0  0  0  0  0  0  0  0
    7.4440    0.7960   22.7210 N   0  0  0  0  0  0  0  0  0  0  0  0
    9.1250   -3.8770   25.2230 N   0  0  0  0  0  0  0  0  0  0  0  0
    7.2770    1.0330   24.0130 C   0  0  0  0  0  0  0  0  0  0  0  0
    9.7480   -5.1900   25.1390 C   0  0  0  0  0  0  0  0  0  0  0  0
    8.0160   -3.9580   25.9610 C   0  0  0  0  0  0  0  0  0  0  0  0
    7.5700    2.4500   24.5720 C   0  0  0  0  0  0  0  0  0  0  0  0
    6.8440    0.0760   24.9560 C   0  0  0  0  0  0  0  0  0  0  0  0
    9.0130   -5.8280   24.1240 C   0  0  0  0  0  0  0  0  0  0  0  0
    7.3670   -5.3330   25.6250 C   0  0  2  0  0  0  0  0  0  0  0  0
    7.4080    2.7390   25.9370 C   0  0  0  0  0  0  0  0  0  0  0  0
    6.6880    0.3920   26.3150 C   0  0  0  0  0  0  0  0  0  0  0  0
    7.6590   -5.7680   24.3410 N   0  0  0  0  0  0  0  0  0  0  0  0
    5.8800   -5.3000   25.9760 C   0  0  0  0  0  0  0  0  0  0  0  0
    6.9410    1.6510   26.8620 C   0  0  0  0  0  0  0  0  0  0  0  0
    6.7780   -6.8350   23.8550 C   0  0  0  0  0  0  0  0  0  0  0  0
  1  2  2  3
  1  3  1  0
  3  4  2  0
  3  5  1  0
  4  6  1  0
  5  7  2  0
  5  8  1  0
  6  9  2  0
  7  9  1  0
  8 10  2  0
  8 11  1  0
  9 12  1  0
 11 13  1  0
 12 14  1  0
 12 15  1  0
 13 16  2  0
 13 17  1  0
 14 18  1  0
 15 19  1  0
 16 20  1  0
 17 21  2  0
 18 22  1  0
 19 22  1  0
 19 23  1  6
 20 24  2  0
 21 24  1  0
 22 25  1  0
M  END
