JOH-PRI-13d3b0af-1-vinylsulfonamide
     RDKit          3D

 27 28  0  0  0  0  0  0  0  0999 V2000
    7.4540   -2.9510   18.7670 C   0  0  0  0  0  0  0  0  0  0  0  0
    7.0570   -2.5940   20.1810 C   0  0  0  0  0  0  0  0  0  0  0  0
    5.8120   -3.7680   20.6300 S   0  0  0  0  0  0  0  0  0  0  0  0
    4.8150   -3.1950   21.4900 O   0  0  0  0  0  0  0  0  0  0  0  0
    5.3410   -4.3960   19.4340 O   0  0  0  0  0  0  0  0  0  0  0  0
    6.5950   -4.9490   21.5360 N   0  0  0  0  0  0  0  0  0  0  0  0
    7.7200   -4.4370   22.1790 N   0  0  0  0  0  0  0  0  0  0  0  0
    7.6690   -3.3450   23.0620 C   0  0  0  0  0  0  0  0  0  0  0  0
    6.7310   -3.2470   23.8400 O   0  0  0  0  0  0  0  0  0  0  0  0
    8.7260   -2.2580   23.0240 C   0  0  0  0  0  0  0  0  0  0  0  0
    9.8860   -2.4130   22.0220 C   0  0  0  0  0  0  0  0  0  0  0  0
    8.5800   -0.8880   24.0690 S   0  0  0  0  0  0  0  0  0  0  0  0
   10.4320   -1.1270   22.4010 C   0  0  0  0  0  0  0  0  0  0  0  0
    9.9200   -0.2940   23.3170 C   0  0  0  0  0  0  0  0  0  0  0  0
   10.5740    1.0500   23.4360 C   0  0  0  0  0  0  0  0  0  0  0  0
   11.9640    1.3400   23.1120 C   0  0  0  0  0  0  0  0  0  0  0  0
    9.9880    2.2540   23.7820 N   0  0  0  0  0  0  0  0  0  0  0  0
   13.1480    0.2210   22.6550 Cl  0  0  0  0  0  0  0  0  0  0  0  0
   11.9800    2.7040   23.2350 C   0  0  0  0  0  0  0  0  0  0  0  0
   10.8350    3.3080   23.6660 N   0  0  0  0  0  0  0  0  0  0  0  0
    8.7310    2.4790   24.1600 C   0  0  0  0  0  0  0  0  0  0  0  0
   12.9820    3.6070   22.9590 C   0  0  0  0  0  0  0  0  0  0  0  0
   12.4050    4.5720   22.1860 C   0  0  0  0  0  0  0  0  0  0  0  0
   13.5510    5.3580   21.5900 C   0  0  0  0  0  0  0  0  0  0  0  0
   14.4880    5.1940   20.8720 O   0  0  0  0  0  0  0  0  0  0  0  0
   13.2180    6.5340   22.1610 N   0  0  0  0  0  0  0  0  0  0  0  0
   12.4420    6.6020   23.2600 C   0  0  0  0  0  0  0  0  0  0  0  0
  1  2  1  0
  2  3  1  0
  3  4  2  0
  3  5  2  0
  3  6  1  0
  6  7  1  0
  7  8  1  0
  8  9  2  0
  8 10  1  0
 10 11  2  0
 10 12  1  0
 11 13  1  0
 12 14  1  0
 13 14  2  0
 14 15  1  0
 15 16  2  0
 15 17  1  0
 16 18  1  0
 16 19  1  0
 17 20  1  0
 19 20  2  0
 17 21  1  0
 19 22  1  0
 22 23  1  0
 23 24  1  0
 24 25  2  0
 24 26  1  0
 26 27  1  0
M  END
