JOH-UNI-8a168a37-1
     RDKit          3D

 14 14  0  0  0  0  0  0  0  0999 V2000
   13.0880    0.1380   22.6430 C   0  0  0  0  0  0  0  0  0  0  0  0
   12.1950   -0.7120   23.4080 C   0  0  2  0  0  0  0  0  0  0  0  0
   12.8910   -2.0690   23.5790 C   0  0  0  0  0  0  0  0  0  0  0  0
   10.9070   -0.9090   22.6490 C   0  0  0  0  0  0  0  0  0  0  0  0
   13.4570   -2.5520   25.2410 S   0  0  0  0  0  0  0  0  0  0  0  0
   10.9660   -1.5750   21.6350 O   0  0  0  0  0  0  0  0  0  0  0  0
    9.6300   -0.3450   23.1080 N   0  0  0  0  0  0  0  0  0  0  0  0
    8.5640   -1.2920   23.5860 C   0  0  0  0  0  0  0  0  0  0  0  0
    8.8730    0.7560   22.3930 C   0  0  1  0  0  0  0  0  0  0  0  0
    7.3670   -0.4960   23.6740 C   0  0  0  0  0  0  0  0  0  0  0  0
    7.5550    0.8200   23.1740 C   0  0  0  0  0  0  0  0  0  0  0  0
    9.3660    2.0280   22.2180 C   0  0  0  0  0  0  0  0  0  0  0  0
   10.3670    2.5910   22.9320 O   0  0  0  0  0  0  0  0  0  0  0  0
    8.7160    2.6540   21.2070 O   0  0  0  0  0  0  0  0  0  0  0  0
  2  1  1  6
  2  3  1  0
  2  4  1  0
  3  5  1  0
  4  6  2  0
  4  7  1  0
  7  8  1  0
  7  9  1  0
  8 10  1  0
  9 11  1  0
 10 11  1  0
  9 12  1  1
 12 13  2  0
 12 14  1  0
M  END
