JOH-UNI-e19b918c-11
     RDKit          3D

 19 22  0  0  0  0  0  0  0  0999 V2000
    9.2290   -0.4260   23.4700 O   0  0  0  0  0  0  0  0  0  0  0  0
    8.5380   -1.2190   22.8390 C   0  0  0  0  0  0  0  0  0  0  0  0
    7.3750   -0.8550   22.0100 C   0  0  0  0  0  0  0  0  0  0  0  0
    8.7460   -2.7560   22.8020 C   0  0  0  0  0  0  0  0  0  0  0  0
    7.2540   -2.1480   21.2590 C   0  0  0  0  0  0  0  0  0  0  0  0
    8.2080   -3.1870   21.5490 C   0  0  2  0  0  0  0  0  0  0  0  0
    6.2440   -2.5510   20.2310 C   0  0  0  0  0  0  0  0  0  0  0  0
    7.3350   -4.4030   21.3730 N   0  0  0  0  0  0  0  0  0  0  0  0
    6.0470   -4.0010   20.6740 C   0  0  0  0  0  0  0  0  0  0  0  0
    7.1150   -5.2200   22.5700 C   0  0  0  0  0  0  0  0  0  0  0  0
    6.0060   -4.5870   23.2420 C   0  0  0  0  0  0  0  0  0  0  0  0
    6.0630   -3.2240   23.7450 C   0  0  0  0  0  0  0  0  0  0  0  0
    4.8620   -5.4010   23.3660 C   0  0  0  0  0  0  0  0  0  0  0  0
    4.9290   -2.7230   24.3690 C   0  0  0  0  0  0  0  0  0  0  0  0
    3.6590   -4.7950   24.0580 C   0  0  0  0  0  0  0  0  0  0  0  0
    3.7500   -3.4190   24.5520 C   0  0  0  0  0  0  0  0  0  0  0  0
    2.3630   -5.2700   24.3680 O   0  0  0  0  0  0  0  0  0  0  0  0
    1.9550   -4.1560   25.2370 C   0  0  0  0  0  0  0  0  0  0  0  0
    2.5830   -3.0630   25.1350 O   0  0  0  0  0  0  0  0  0  0  0  0
  1  2  2  0
  2  3  1  0
  2  4  1  0
  3  5  2  0
  6  4  1  1
  5  6  1  0
  5  7  1  0
  6  8  1  0
  7  9  1  0
  8  9  1  0
  8 10  1  0
 10 11  1  0
 11 12  2  0
 11 13  1  0
 12 14  1  0
 13 15  2  0
 14 16  2  0
 15 16  1  0
 15 17  1  0
 17 18  1  0
 16 19  1  0
 18 19  1  0
M  END
