JOH-MEM-5e386bbd-8
     RDKit          3D

 19 20  0  0  0  0  0  0  0  0999 V2000
   13.2230   -2.3290   20.9970 C   0  0  0  0  0  0  0  0  0  0  0  0
   13.4600   -2.1210   22.3670 O   0  0  0  0  0  0  0  0  0  0  0  0
   12.5100   -1.3380   22.8970 C   0  0  0  0  0  0  0  0  0  0  0  0
   11.2380   -1.7670   23.5950 C   0  0  0  0  0  0  0  0  0  0  0  0
   12.7690    0.1660   22.7480 C   0  0  0  0  0  0  0  0  0  0  0  0
   10.9310   -3.0710   23.7700 O   0  0  0  0  0  0  0  0  0  0  0  0
   10.2900   -0.7350   24.1030 C   0  0  0  0  0  0  0  0  0  0  0  0
   11.8460    1.1060   23.2160 C   0  0  0  0  0  0  0  0  0  0  0  0
   13.7990    0.3080   22.2080 O   0  0  0  0  0  0  0  0  0  0  0  0
   10.6740    0.6690   23.8630 C   0  0  0  0  0  0  0  0  0  0  0  0
   11.6920    2.6410   23.2460 C   0  0  0  0  0  0  0  0  0  0  0  0
    9.8640    1.7660   24.2750 N   0  0  0  0  0  0  0  0  0  0  0  0
   10.3870    2.9440   23.9510 C   0  0  0  0  0  0  0  0  0  0  0  0
   12.6680    3.7240   22.6570 C   0  0  0  0  0  0  0  0  0  0  0  0
   12.5310    5.1700   23.0520 C   0  0  0  0  0  0  0  0  0  0  0  0
   11.4230    5.9140   22.4970 N   0  0  0  0  0  0  0  0  0  0  0  0
   10.2670    6.2430   23.3120 C   0  0  0  0  0  0  0  0  0  0  0  0
    9.0660    6.5300   22.6540 C   0  0  0  0  0  0  0  0  0  0  0  0
   10.2400    6.3050   24.5380 O   0  0  0  0  0  0  0  0  0  0  0  0
  1  2  1  0
  2  3  1  0
  3  4  2  0
  3  5  1  0
  4  6  1  0
  4  7  1  0
  5  8  2  0
  5  9  1  0
  7 10  2  0
  8 10  1  0
  8 11  1  0
 10 12  1  0
 11 13  2  0
 12 13  1  0
 11 14  1  0
 14 15  1  0
 15 16  1  0
 16 17  1  0
 17 18  1  0
 17 19  2  0
M  END
