JOH-CHE-3504ac3d-1
     RDKit          3D

 31 34  0  0  0  0  0  0  0  0999 V2000
    8.9230    6.5700   22.5800 C   0  0  0  0  0  0  0  0  0  0  0  0
   10.2520    6.2210   23.2390 C   0  0  0  0  0  0  0  0  0  0  0  0
   10.3600    6.2690   24.4630 O   0  0  0  0  0  0  0  0  0  0  0  0
   11.2810    5.8640   22.4610 N   0  0  0  0  0  0  0  0  0  0  0  0
   12.2560    5.0160   22.9720 C   0  0  0  0  0  0  0  0  0  0  0  0
   12.4680    3.7560   22.4190 C   0  0  0  0  0  0  0  0  0  0  0  0
   11.8840    2.6820   23.0930 C   0  0  0  0  0  0  0  0  0  0  0  0
   10.5950    2.5770   23.8750 C   0  0  0  0  0  0  0  0  0  0  0  0
   12.4310    1.3000   23.2140 C   0  0  0  0  0  0  0  0  0  0  0  0
   10.4020    1.3110   24.4190 N   0  0  0  0  0  0  0  0  0  0  0  0
   11.4850    0.5290   24.0640 C   0  0  0  0  0  0  0  0  0  0  0  0
   13.5090    0.6090   22.7770 N   0  0  0  0  0  0  0  0  0  0  0  0
   13.2390   -0.6730   22.2860 C   0  0  0  0  0  0  0  0  0  0  0  0
   11.9180   -0.8400   24.3280 C   0  0  2  0  0  0  0  0  0  0  0  0
   13.7150   -1.1040   21.2520 O   0  0  0  0  0  0  0  0  0  0  0  0
   12.3530   -1.4640   23.0080 C   0  0  1  0  0  0  0  0  0  0  0  0
   10.8410   -2.0580   25.0120 S   0  0  0  0  0  0  0  0  0  0  0  0
   11.1480   -1.7140   22.4160 C   0  0  0  0  0  0  0  0  0  0  0  0
   10.0000   -2.0610   23.4020 C   0  0  2  0  0  0  0  0  0  0  0  0
    8.9750   -0.9220   23.5560 C   0  0  0  0  0  0  0  0  0  0  0  0
    9.3870   -3.2500   23.1530 N   0  0  0  0  0  0  0  0  0  0  0  0
    7.7340   -1.3020   23.1240 N   0  0  0  0  0  0  0  0  0  0  0  0
    8.6920   -3.1060   21.8910 C   0  0  0  0  0  0  0  0  0  0  0  0
    8.4800   -3.7850   24.0550 C   0  0  0  0  0  0  0  0  0  0  0  0
    6.7790   -0.3530   23.4280 C   0  0  0  0  0  0  0  0  0  0  0  0
    7.7320   -2.0610   21.8790 C   0  0  0  0  0  0  0  0  0  0  0  0
    8.9330   -4.8550   24.8770 C   0  0  0  0  0  0  0  0  0  0  0  0
    6.6060    0.6190   22.6900 O   0  0  0  0  0  0  0  0  0  0  0  0
    5.8400   -0.6090   24.8840 Cl  0  0  0  0  0  0  0  0  0  0  0  0
    9.8780   -5.6560   24.5580 N   0  0  0  0  0  0  0  0  0  0  0  0
    8.3290   -5.0720   26.0790 N   0  0  0  0  0  0  0  0  0  0  0  0
  1  2  1  0
  2  3  2  0
  2  4  1  0
  4  5  1  0
  5  6  1  0
  6  7  1  0
  7  8  2  0
  7  9  1  0
  8 10  1  0
  9 11  2  0
 10 11  1  0
  9 12  1  0
 12 13  1  0
 11 14  1  0
 13 15  2  0
 13 16  1  0
 14 16  1  0
 14 17  1  6
 16 18  1  6
 19 17  1  0
 19 18  1  6
 19 20  1  0
 19 21  1  0
 20 22  1  0
 21 23  1  0
 21 24  1  0
 22 25  1  0
 22 26  1  0
 23 26  1  0
 24 27  1  0
 25 28  2  0
 25 29  1  0
 27 30  2  3
 27 31  1  0
M  END
