JOH-UNI-522b0723-11-acrylamide
     RDKit          3D

 26 28  0  0  0  0  0  0  0  0999 V2000
    6.8810   -3.1490   19.0060 C   0  0  0  0  0  0  0  0  0  0  0  0
    6.9440   -1.9220   19.8810 C   0  0  0  0  0  0  0  0  0  0  0  0
    6.1500   -2.2100   21.1490 C   0  0  0  0  0  0  0  0  0  0  0  0
    4.9590   -3.0930   21.1380 O   0  0  0  0  0  0  0  0  0  0  0  0
    6.8530   -1.4020   22.3130 C   0  0  0  0  0  0  0  0  0  0  0  0
    7.1760   -2.7630   22.3620 N   0  0  0  0  0  0  0  0  0  0  0  0
    7.6150   -0.9230   23.4870 C   0  0  0  0  0  0  0  0  0  0  0  0
    7.9250   -3.5410   23.2380 C   0  0  0  0  0  0  0  0  0  0  0  0
    8.2770   -1.8330   24.2470 C   0  0  0  0  0  0  0  0  0  0  0  0
    7.6280    0.5900   23.8320 C   0  0  0  0  0  0  0  0  0  0  0  0
    8.5520   -3.1100   24.3490 C   0  0  0  0  0  0  0  0  0  0  0  0
    8.6690    1.2030   24.0480 O   0  0  0  0  0  0  0  0  0  0  0  0
    6.4210    1.2030   23.8610 N   0  0  0  0  0  0  0  0  0  0  0  0
    9.2240   -3.9090   25.2510 N   0  0  0  0  0  0  0  0  0  0  0  0
    6.2410    2.4170   23.1070 C   0  0  0  0  0  0  0  0  0  0  0  0
    8.5420   -4.2440   26.3720 C   0  0  0  0  0  0  0  0  0  0  0  0
    9.4990   -5.2120   24.7070 C   0  0  0  0  0  0  0  0  0  0  0  0
    7.3020    3.3690   22.9560 C   0  0  0  0  0  0  0  0  0  0  0  0
    5.0190    2.7420   22.4730 C   0  0  0  0  0  0  0  0  0  0  0  0
    7.2770   -5.0590   26.0910 C   0  0  0  0  0  0  0  0  0  0  0  0
    8.0800   -5.6500   24.2290 C   0  0  2  0  0  0  0  0  0  0  0  0
    7.1560    4.6510   22.1740 C   0  0  0  0  0  0  0  0  0  0  0  0
    4.8260    3.9110   21.7390 C   0  0  0  0  0  0  0  0  0  0  0  0
    7.2790   -5.8540   25.1600 O   0  0  0  0  0  0  0  0  0  0  0  0
    8.1120   -6.5090   22.9650 C   0  0  0  0  0  0  0  0  0  0  0  0
    5.8010    4.8680   21.5540 C   0  0  0  0  0  0  0  0  0  0  0  0
  1  2  1  0
  2  3  1  0
  3  4  2  0
  3  5  1  0
  5  6  2  0
  5  7  1  0
  6  8  1  0
  7  9  2  0
  7 10  1  0
  8 11  2  0
  9 11  1  0
 10 12  2  0
 10 13  1  0
 11 14  1  0
 13 15  1  0
 14 16  1  0
 14 17  1  0
 15 18  2  0
 15 19  1  0
 16 20  1  0
 17 21  1  0
 18 22  1  0
 19 23  2  0
 20 24  1  0
 21 24  1  0
 21 25  1  1
 22 26  2  0
 23 26  1  0
M  END
