JOH-UNI-9dc98897-1-vinylsulfonamide
     RDKit          3D

 19 20  0  0  0  0  0  0  0  0999 V2000
    8.0340   -3.8690   20.4140 C   0  0  0  0  0  0  0  0  0  0  0  0
    6.7820   -3.0990   19.9760 C   0  0  0  0  0  0  0  0  0  0  0  0
    5.9500   -2.4220   21.3980 S   0  0  0  0  0  0  0  0  0  0  0  0
    4.7360   -3.1870   21.6150 O   0  0  0  0  0  0  0  0  0  0  0  0
    5.9000   -0.9910   21.2180 O   0  0  0  0  0  0  0  0  0  0  0  0
    6.9030   -2.7500   22.8310 C   0  0  0  0  0  0  0  0  0  0  0  0
    8.3340   -2.6330   22.7510 N   0  0  0  0  0  0  0  0  0  0  0  0
    6.4180   -3.1250   24.0370 C   0  0  0  0  0  0  0  0  0  0  0  0
    8.9130   -2.9880   24.0620 C   0  0  0  0  0  0  0  0  0  0  0  0
    6.4750   -3.5040   25.3670 C   0  0  0  0  0  0  0  0  0  0  0  0
    7.7260   -3.1110   24.2870 F   0  0  0  0  0  0  0  0  0  0  0  0
    7.9200   -3.4000   25.2670 C   0  0  0  0  0  0  0  0  0  0  0  0
    8.7770   -3.7280   26.4480 N   0  0  0  0  0  0  0  0  0  0  0  0
    9.9110   -4.4940   26.1910 C   0  0  0  0  0  0  0  0  0  0  0  0
    8.0280   -4.2230   27.6220 C   0  0  0  0  0  0  0  0  0  0  0  0
    9.5590   -5.8260   25.4950 C   0  0  0  0  0  0  0  0  0  0  0  0
    7.6590   -5.6940   27.4260 C   0  0  0  0  0  0  0  0  0  0  0  0
    8.0560   -5.5610   25.2290 C   0  0  0  0  0  0  0  0  0  0  0  0
    7.1980   -5.9220   26.3120 O   0  0  0  0  0  0  0  0  0  0  0  0
  1  2  1  0
  3  2  1  0
  3  4  2  0
  3  5  2  0
  3  6  1  0
  6  7  2  0
  6  8  1  0
  7  9  1  0
  8 10  2  0
  8 11  1  0
  9 12  2  0
 10 12  1  0
 12 13  1  0
 13 14  1  0
 13 15  1  0
 14 16  1  0
 15 17  1  0
 16 18  1  0
 17 19  1  0
 18 19  1  0
M  END
