JOH-UNI-522b0723-6-chloroacetamide
     RDKit          3D

 18 19  0  0  0  0  0  0  0  0999 V2000
    7.8690   -2.8470   18.9470 C   0  0  0  0  0  0  0  0  0  0  0  0
    7.1050   -3.0250   20.1450 C   0  0  0  0  0  0  0  0  0  0  0  0
    5.9990   -3.6500   19.8030 O   0  0  0  0  0  0  0  0  0  0  0  0
    7.6450   -2.7780   21.6050 C   0  0  0  0  0  0  0  0  0  0  0  0
    7.4450   -1.8100   22.6740 C   0  0  0  0  0  0  0  0  0  0  0  0
    8.4830   -3.7640   21.8800 N   0  0  0  0  0  0  0  0  0  0  0  0
    8.0450   -1.9270   23.9900 C   0  0  0  0  0  0  0  0  0  0  0  0
    9.0760   -3.9230   23.1050 C   0  0  0  0  0  0  0  0  0  0  0  0
    8.8740   -3.0300   24.2700 C   0  0  0  0  0  0  0  0  0  0  0  0
    9.4490   -3.3410   25.4640 N   0  0  0  0  0  0  0  0  0  0  0  0
   10.4110   -4.3640   25.0560 C   0  0  0  0  0  0  0  0  0  0  0  0
    8.5340   -4.1310   26.3960 C   0  0  1  0  0  0  0  0  0  0  0  0
    9.3190   -5.3640   24.7680 C   0  0  0  0  0  0  0  0  0  0  0  0
    7.8510   -5.2270   25.7020 C   0  0  2  0  0  0  0  0  0  0  0  0
    9.2750   -4.7710   27.6230 C   0  0  0  0  0  0  0  0  0  0  0  0
    8.2120   -5.5550   24.5950 N   0  0  0  0  0  0  0  0  0  0  0  0
    6.3140   -5.2470   25.7560 C   0  0  0  0  0  0  0  0  0  0  0  0
    7.8790   -6.9130   24.1010 C   0  0  0  0  0  0  0  0  0  0  0  0
  1  2  1  0
  2  3  2  0
  2  4  1  0
  4  5  2  0
  4  6  1  0
  5  7  1  0
  6  8  2  0
  7  9  2  0
  8  9  1  0
  9 10  1  0
 10 11  1  0
 10 12  1  0
 11 13  1  0
 12 14  1  0
 12 15  1  1
 13 16  1  0
 14 16  1  0
 14 17  1  6
 16 18  1  0
M  END
