JOH-MSK-a63bdd1d-6
     RDKit          3D

 28 30  0  0  0  0  0  0  0  0999 V2000
    9.8330    6.7740   22.5550 C   0  0  0  0  0  0  0  0  0  0  0  0
    9.9710    5.9360   23.8300 C   0  0  0  0  0  0  0  0  0  0  0  0
   10.8120    6.1880   24.6890 O   0  0  0  0  0  0  0  0  0  0  0  0
    9.0770    4.8980   23.9120 N   0  0  0  0  0  0  0  0  0  0  0  0
    9.3890    3.5850   23.3690 C   0  0  0  0  0  0  0  0  0  0  0  0
    9.9680    2.6490   24.4330 C   0  0  0  0  0  0  0  0  0  0  0  0
    9.9010    1.1930   24.0980 C   0  0  0  0  0  0  0  0  0  0  0  0
    8.8440    0.9260   25.0600 C   0  0  0  0  0  0  0  0  0  0  0  0
   10.3620    0.1540   23.3420 C   0  0  0  0  0  0  0  0  0  0  0  0
    8.6560   -0.4240   24.8240 N   0  0  0  0  0  0  0  0  0  0  0  0
    9.5350   -0.8980   23.8010 C   0  0  0  0  0  0  0  0  0  0  0  0
   11.3170   -0.0080   22.3650 C   0  0  0  0  0  0  0  0  0  0  0  0
    9.7050   -2.2930   23.1530 C   0  0  0  0  0  0  0  0  0  0  0  0
   11.5290   -1.3770   21.6120 C   0  0  0  0  0  0  0  0  0  0  0  0
   10.7330   -2.3770   22.0600 C   0  0  0  0  0  0  0  0  0  0  0  0
   12.4230   -1.6860   20.4890 O   0  0  0  0  0  0  0  0  0  0  0  0
   13.8110   -1.6760   20.5210 C   0  0  1  0  0  0  0  0  0  0  0  0
   13.7720   -3.1920   20.5920 O   0  0  0  0  0  0  0  0  0  0  0  0
   14.8050   -1.0550   19.3800 C   0  0  1  0  0  0  0  0  0  0  0  0
   14.4430   -4.1370   19.6530 C   0  0  2  0  0  0  0  0  0  0  0  0
   15.6750   -1.9100   18.4810 C   0  0  2  0  0  0  0  0  0  0  0  0
   14.2000   -0.1550   18.5330 O   0  0  0  0  0  0  0  0  0  0  0  0
   15.1160   -5.4000   20.1210 C   0  0  0  0  0  0  0  0  0  0  0  0
   15.6260   -3.5480   18.8360 C   0  0  2  0  0  0  0  0  0  0  0  0
   16.8660   -1.2200   18.3760 O   0  0  0  0  0  0  0  0  0  0  0  0
   14.5430   -6.3640   20.4970 O   0  0  0  0  0  0  0  0  0  0  0  0
   16.2760   -5.6070   20.0830 O   0  0  0  0  0  0  0  0  0  0  0  0
   16.2950   -4.3440   17.9990 O   0  0  0  0  0  0  0  0  0  0  0  0
  1  2  1  0
  2  3  2  0
  2  4  1  0
  4  5  1  0
  5  6  1  0
  6  7  1  0
  7  8  2  0
  7  9  1  0
  8 10  1  0
  9 11  2  0
 10 11  1  0
  9 12  1  0
 11 13  1  0
 12 14  2  0
 13 15  2  0
 14 15  1  0
 14 16  1  0
 17 16  1  6
 17 18  1  0
 17 19  1  0
 18 20  1  0
 19 21  1  0
 19 22  1  6
 20 23  1  1
 20 24  1  0
 21 24  1  0
 21 25  1  1
 23 26  2  0
 23 27  1  0
 24 28  1  6
M  END
