JOH-MSK-2d8052dc-1-acrylamide
     RDKit          3D

 32 35  0  0  0  0  0  0  0  0999 V2000
    6.6170   -5.3150   19.9940 C   0  0  0  0  0  0  0  0  0  0  0  0
    6.5370   -5.4400   21.3190 C   0  0  0  0  0  0  0  0  0  0  0  0
    6.1160   -4.1280   21.9110 C   0  0  0  0  0  0  0  0  0  0  0  0
    4.8990   -3.7610   21.8840 O   0  0  0  0  0  0  0  0  0  0  0  0
    7.3410   -3.4120   22.4290 C   0  0  0  0  0  0  0  0  0  0  0  0
    8.4050   -3.9270   23.2060 C   0  0  0  0  0  0  0  0  0  0  0  0
    8.3890   -2.3860   22.1060 C   0  0  0  0  0  0  0  0  0  0  0  0
    8.9670   -2.6480   22.9230 C   0  0  0  0  0  0  0  0  0  0  0  0
    9.2210   -1.1380   23.1220 C   0  0  0  0  0  0  0  0  0  0  0  0
    7.8590   -1.7780   22.6150 C   0  0  1  0  0  0  0  0  0  0  0  0
   10.0130   -1.8790   22.8790 C   0  0  0  0  0  0  0  0  0  0  0  0
   10.4250   -0.4940   23.5520 C   0  0  0  0  0  0  0  0  0  0  0  0
    7.4260   -1.4990   21.2730 C   0  0  0  0  0  0  0  0  0  0  0  0
    6.6840   -1.8900   23.6230 C   0  0  0  0  0  0  0  0  0  0  0  0
    8.6420   -1.4290   23.0170 N   0  0  0  0  0  0  0  0  0  0  0  0
    9.1670   -0.2010   23.5930 C   0  0  0  0  0  0  0  0  0  0  0  0
   10.9630    0.6060   24.1940 C   0  0  0  0  0  0  0  0  0  0  0  0
    5.9850   -1.7060   21.0460 N   0  0  0  0  0  0  0  0  0  0  0  0
    5.3040   -1.3900   23.1750 C   0  0  0  0  0  0  0  0  0  0  0  0
    6.9070   -2.4280   24.8940 C   0  0  0  0  0  0  0  0  0  0  0  0
   10.7080    1.8300   23.5560 C   0  0  0  0  0  0  0  0  0  0  0  0
    5.6810   -2.2730   19.7350 C   0  0  0  0  0  0  0  0  0  0  0  0
    5.1330   -0.8750   21.9090 C   0  0  0  0  0  0  0  0  0  0  0  0
    4.2390   -1.5470   24.2640 C   0  0  0  0  0  0  0  0  0  0  0  0
    5.9030   -2.5590   25.8680 C   0  0  0  0  0  0  0  0  0  0  0  0
   11.8920    2.5540   23.1150 N   0  0  0  0  0  0  0  0  0  0  0  0
    6.0800   -1.5620   18.6210 C   0  0  0  0  0  0  0  0  0  0  0  0
    5.0140   -3.5310   19.5340 O   0  0  0  0  0  0  0  0  0  0  0  0
    4.5880   -2.1510   25.6300 C   0  0  0  0  0  0  0  0  0  0  0  0
   11.8680    3.9240   22.9460 C   0  0  0  0  0  0  0  0  0  0  0  0
   13.0760    4.4930   22.2290 C   0  0  0  0  0  0  0  0  0  0  0  0
   10.9480    4.6360   23.3440 O   0  0  0  0  0  0  0  0  0  0  0  0
  1  2  1  0
  2  3  1  0
  3  4  2  0
  3  5  1  0
  5  6  2  0
  5  7  1  0
  6  8  1  0
  7  9  2  0
 10  8  1  6
  8 11  2  0
  9 11  1  0
  9 12  1  0
 10 13  1  0
 10 14  1  0
 11 15  1  0
 12 16  2  0
 15 16  1  0
 12 17  1  0
 13 18  1  0
 14 19  2  0
 14 20  1  0
 17 21  1  0
 18 22  1  0
 18 23  1  0
 19 23  1  0
 19 24  1  0
 20 25  2  0
 21 26  1  0
 22 27  1  0
 22 28  2  0
 24 29  2  0
 25 29  1  0
 26 30  1  0
 30 31  1  0
 30 32  2  0
M  END
