JOH-MEM-5e386bbd-2
     RDKit          3D

 18 19  0  0  0  0  0  0  0  0999 V2000
   13.2300   -2.8110   21.0720 C   0  0  0  0  0  0  0  0  0  0  0  0
   13.6670   -1.5850   21.6010 O   0  0  0  0  0  0  0  0  0  0  0  0
   12.6430   -0.9480   22.1610 C   0  0  0  0  0  0  0  0  0  0  0  0
   11.3630   -1.7200   22.4530 C   0  0  0  0  0  0  0  0  0  0  0  0
   12.6170    0.3890   22.5030 C   0  0  0  0  0  0  0  0  0  0  0  0
   10.1470   -1.0360   23.0670 C   0  0  0  0  0  0  0  0  0  0  0  0
   11.2850    0.7690   23.0710 C   0  0  0  0  0  0  0  0  0  0  0  0
   10.0940    0.4280   23.4230 C   0  0  0  0  0  0  0  0  0  0  0  0
   11.6220    2.1740   23.3050 C   0  0  1  0  0  0  0  0  0  0  0  0
   12.2740    1.5830   24.3840 O   0  0  0  0  0  0  0  0  0  0  0  0
   12.4630    3.1950   22.5360 C   0  0  0  0  0  0  0  0  0  0  0  0
   10.2460    2.6370   23.5920 C   0  0  0  0  0  0  0  0  0  0  0  0
    9.3880    1.5730   23.9530 N   0  0  0  0  0  0  0  0  0  0  0  0
   12.3350    4.5550   22.9580 C   0  0  0  0  0  0  0  0  0  0  0  0
   11.2280    5.2570   22.5400 N   0  0  0  0  0  0  0  0  0  0  0  0
   10.3750    5.9910   23.3210 C   0  0  0  0  0  0  0  0  0  0  0  0
    9.2980    6.5490   22.6350 C   0  0  0  0  0  0  0  0  0  0  0  0
   10.4520    6.2460   24.7230 O   0  0  0  0  0  0  0  0  0  0  0  0
  1  2  1  0
  2  3  1  0
  3  4  2  0
  3  5  1  0
  4  6  1  0
  5  7  2  0
  6  8  2  0
  7  8  1  0
  7  9  1  0
  9 10  1  1
  9 11  1  0
  9 12  1  0
  8 13  1  0
 12 13  1  0
 11 14  1  0
 14 15  1  0
 15 16  1  0
 16 17  1  0
 16 18  2  0
M  END
