JOH-MEM-5e386bbd-6
     RDKit          3D

 18 20  0  0  0  0  0  0  0  0999 V2000
   13.6630   -2.7460   23.6880 C   0  0  0  0  0  0  0  0  0  0  0  0
   13.3590   -2.0300   22.5240 O   0  0  0  0  0  0  0  0  0  0  0  0
   12.5470   -1.0310   22.8500 C   0  0  0  0  0  0  0  0  0  0  0  0
   12.9440    0.4130   22.6720 C   0  0  0  0  0  0  0  0  0  0  0  0
   11.1640   -1.2550   23.4440 C   0  0  0  0  0  0  0  0  0  0  0  0
   11.9780    1.5070   23.0630 C   0  0  0  0  0  0  0  0  0  0  0  0
   10.3340   -0.1940   23.7900 C   0  0  0  0  0  0  0  0  0  0  0  0
   10.6360   -2.5610   23.6900 O   0  0  0  0  0  0  0  0  0  0  0  0
   12.2190    3.0090   22.9270 C   0  0  0  0  0  0  0  0  0  0  0  0
   10.7820    1.1050   23.5820 C   0  0  0  0  0  0  0  0  0  0  0  0
   10.9480    3.3740   23.4680 C   0  0  0  0  0  0  0  0  0  0  0  0
   10.1350    2.2670   23.8440 N   0  0  0  0  0  0  0  0  0  0  0  0
   13.0780    4.1270   22.5320 C   0  0  0  0  0  0  0  0  0  0  0  0
   10.9600    4.7710   23.4310 N   0  0  0  0  0  0  0  0  0  0  0  0
   12.3550    5.2380   23.0130 C   0  0  0  0  0  0  0  0  0  0  0  0
    9.8920    5.7050   23.7420 C   0  0  0  0  0  0  0  0  0  0  0  0
    9.0780    6.1980   22.7120 C   0  0  0  0  0  0  0  0  0  0  0  0
    9.6460    6.1360   24.8600 O   0  0  0  0  0  0  0  0  0  0  0  0
  1  2  1  0
  2  3  1  0
  3  4  2  0
  3  5  1  0
  4  6  1  0
  5  7  2  0
  5  8  1  0
  6  9  1  0
  6 10  2  0
  7 10  1  0
  9 11  2  0
 10 12  1  0
 11 12  1  0
  9 13  1  0
 11 14  1  0
 13 15  1  0
 14 15  1  0
 14 16  1  0
 16 17  1  0
 16 18  2  0
M  END
