JOH-UNI-522b0723-7-bromoalkyne
     RDKit          3D

 25 27  0  0  0  0  0  0  0  0999 V2000
    7.8790   -2.9420   19.7170 C   0  0  0  0  0  0  0  0  0  0  0  0
    6.4420   -2.8410   19.1440 C   0  0  0  0  0  0  0  0  0  0  0  0
    8.2160   -2.6680   21.2400 C   0  0  0  0  0  0  0  0  0  0  0  0
    8.8030   -3.7540   21.7790 N   0  0  0  0  0  0  0  0  0  0  0  0
    8.0370   -1.5550   22.1600 C   0  0  0  0  0  0  0  0  0  0  0  0
    9.2030   -3.9000   23.0910 C   0  0  0  0  0  0  0  0  0  0  0  0
    8.4620   -1.7280   23.5370 C   0  0  0  0  0  0  0  0  0  0  0  0
    7.3840   -0.2270   21.6680 C   0  0  0  0  0  0  0  0  0  0  0  0
    9.0390   -2.9210   24.0150 C   0  0  0  0  0  0  0  0  0  0  0  0
    8.0110    0.4070   20.8200 O   0  0  0  0  0  0  0  0  0  0  0  0
    6.2020    0.1870   22.1660 N   0  0  0  0  0  0  0  0  0  0  0  0
    9.4520   -3.3070   25.2150 N   0  0  0  0  0  0  0  0  0  0  0  0
    6.0480    0.1070   23.4980 C   0  0  0  0  0  0  0  0  0  0  0  0
   10.2450   -4.3910   25.0790 C   0  0  0  0  0  0  0  0  0  0  0  0
    8.3030   -3.7420   26.0900 C   0  0  2  0  0  0  0  0  0  0  0  0
    5.0340   -0.6650   24.1240 C   0  0  0  0  0  0  0  0  0  0  0  0
    6.9460    0.8290   24.3180 C   0  0  0  0  0  0  0  0  0  0  0  0
    9.2090   -5.4380   24.8410 C   0  0  0  0  0  0  0  0  0  0  0  0
    7.4630   -4.9640   25.4720 C   0  0  1  0  0  0  0  0  0  0  0  0
    7.2070   -2.6520   26.1900 C   0  0  0  0  0  0  0  0  0  0  0  0
    4.9040   -0.7200   25.6180 C   0  0  0  0  0  0  0  0  0  0  0  0
    6.8870    0.8260   25.7210 C   0  0  0  0  0  0  0  0  0  0  0  0
    8.1210   -5.6640   24.8290 N   0  0  0  0  0  0  0  0  0  0  0  0
    6.5550   -5.5740   26.5430 C   0  0  0  0  0  0  0  0  0  0  0  0
    5.9150    0.0910   26.3900 C   0  0  0  0  0  0  0  0  0  0  0  0
  1  2  2  3
  1  3  1  0
  3  4  2  0
  3  5  1  0
  4  6  1  0
  5  7  2  0
  5  8  1  0
  6  9  2  0
  7  9  1  0
  8 10  2  0
  8 11  1  0
  9 12  1  0
 11 13  1  0
 12 14  1  0
 12 15  1  0
 13 16  2  0
 13 17  1  0
 14 18  1  0
 15 19  1  0
 15 20  1  6
 16 21  1  0
 17 22  2  0
 18 23  1  0
 19 23  1  0
 19 24  1  1
 21 25  2  0
 22 25  1  0
M  END
