JOH-UNI-522b0723-7-nitrile
     RDKit          3D

 25 27  0  0  0  0  0  0  0  0999 V2000
    7.5740   -3.0230   19.9010 C   0  0  0  0  0  0  0  0  0  0  0  0
    6.3850   -3.0310   19.3860 N   0  0  0  0  0  0  0  0  0  0  0  0
    8.0060   -1.7790   20.8220 C   0  0  0  0  0  0  0  0  0  0  0  0
    8.3310   -2.4700   21.9580 N   0  0  0  0  0  0  0  0  0  0  0  0
    8.4800   -1.0060   22.0300 C   0  0  0  0  0  0  0  0  0  0  0  0
    8.4640   -3.5670   22.6220 C   0  0  0  0  0  0  0  0  0  0  0  0
    8.8670   -1.6060   23.3920 C   0  0  0  0  0  0  0  0  0  0  0  0
    8.5790    0.5580   21.8970 C   0  0  0  0  0  0  0  0  0  0  0  0
    8.8650   -3.0340   23.7760 C   0  0  0  0  0  0  0  0  0  0  0  0
    8.3020    1.1000   20.8180 O   0  0  0  0  0  0  0  0  0  0  0  0
    8.9380    1.3170   22.9200 N   0  0  0  0  0  0  0  0  0  0  0  0
    9.1740   -3.6790   24.9430 N   0  0  0  0  0  0  0  0  0  0  0  0
   10.1190    1.8820   22.8760 C   0  0  0  0  0  0  0  0  0  0  0  0
    9.7680   -4.9750   24.7260 C   0  0  0  0  0  0  0  0  0  0  0  0
    8.2520   -3.8460   26.0680 C   0  0  1  0  0  0  0  0  0  0  0  0
   10.2230    3.3990   22.5690 C   0  0  0  0  0  0  0  0  0  0  0  0
   11.3320    1.2010   23.0830 C   0  0  0  0  0  0  0  0  0  0  0  0
    8.7540   -5.6280   24.0080 C   0  0  0  0  0  0  0  0  0  0  0  0
    7.2080   -4.6690   25.6330 C   0  0  1  0  0  0  0  0  0  0  0  0
    8.8440   -4.6370   27.2800 C   0  0  0  0  0  0  0  0  0  0  0  0
   11.4680    4.0380   22.5030 C   0  0  0  0  0  0  0  0  0  0  0  0
   12.5560    1.8600   23.0090 C   0  0  0  0  0  0  0  0  0  0  0  0
    7.4850   -5.3590   24.4880 N   0  0  0  0  0  0  0  0  0  0  0  0
    6.7390   -5.7770   26.5810 C   0  0  0  0  0  0  0  0  0  0  0  0
   12.7050    3.2250   22.7350 C   0  0  0  0  0  0  0  0  0  0  0  0
  1  2  2  3
  1  3  1  0
  3  4  2  0
  3  5  1  0
  4  6  1  0
  5  7  2  0
  5  8  1  0
  6  9  2  0
  7  9  1  0
  8 10  2  0
  8 11  1  0
  9 12  1  0
 11 13  1  0
 12 14  1  0
 12 15  1  0
 13 16  2  0
 13 17  1  0
 14 18  1  0
 15 19  1  0
 15 20  1  1
 16 21  1  0
 17 22  2  0
 18 23  1  0
 19 23  1  0
 19 24  1  1
 21 25  2  0
 22 25  1  0
M  END
