JOH-UNI-e19b918c-12-acrylamide
     RDKit          3D

 17 19  0  0  0  0  0  0  0  0999 V2000
    8.1120   -3.6230   19.4310 C   0  0  0  0  0  0  0  0  0  0  0  0
    7.0240   -2.7270   19.9710 C   0  0  0  0  0  0  0  0  0  0  0  0
    5.9230   -3.4940   20.6260 C   0  0  0  0  0  0  0  0  0  0  0  0
    5.2300   -4.1750   21.3600 O   0  0  0  0  0  0  0  0  0  0  0  0
    6.9570   -3.7230   21.6080 N   0  0  0  0  0  0  0  0  0  0  0  0
    7.6120   -2.5670   22.2470 C   0  0  0  0  0  0  0  0  0  0  0  0
    6.9120   -4.8660   22.5340 C   0  0  0  0  0  0  0  0  0  0  0  0
    6.9950   -2.4560   23.6260 C   0  0  0  0  0  0  0  0  0  0  0  0
    5.7400   -4.4660   23.3660 C   0  0  0  0  0  0  0  0  0  0  0  0
    5.7750   -3.1590   23.9500 C   0  0  0  0  0  0  0  0  0  0  0  0
    4.5400   -5.3550   23.5800 C   0  0  0  0  0  0  0  0  0  0  0  0
    4.6450   -2.7050   24.7410 C   0  0  0  0  0  0  0  0  0  0  0  0
    3.3890   -4.8480   24.4010 C   0  0  0  0  0  0  0  0  0  0  0  0
    3.4840   -3.5000   24.9690 C   0  0  0  0  0  0  0  0  0  0  0  0
    2.2220   -5.3660   24.7560 O   0  0  0  0  0  0  0  0  0  0  0  0
    1.6730   -4.1760   25.4680 C   0  0  0  0  0  0  0  0  0  0  0  0
    2.4100   -3.1540   25.6710 O   0  0  0  0  0  0  0  0  0  0  0  0
  1  2  1  0
  2  3  1  0
  3  4  2  0
  3  5  1  0
  5  6  1  0
  5  7  1  0
  6  8  1  0
  7  9  1  0
  8 10  1  0
  9 10  2  0
  9 11  1  0
 10 12  1  0
 11 13  2  0
 12 14  2  0
 13 14  1  0
 13 15  1  0
 15 16  1  0
 14 17  1  0
 16 17  1  0
M  END
