JOH-MSK-a63bdd1d-7
     RDKit          3D

 14 15  0  0  0  0  0  0  0  0999 V2000
   13.3710   -1.9970   20.9110 C   0  0  0  0  0  0  0  0  0  0  0  0
   13.6570   -1.7620   22.2590 O   0  0  0  0  0  0  0  0  0  0  0  0
   12.6280   -1.1520   22.8320 C   0  0  0  0  0  0  0  0  0  0  0  0
   11.4160   -1.7900   23.5160 C   0  0  0  0  0  0  0  0  0  0  0  0
   12.7870    0.2350   22.7090 C   0  0  0  0  0  0  0  0  0  0  0  0
   10.3720   -0.8270   24.0550 C   0  0  0  0  0  0  0  0  0  0  0  0
   11.8150    1.0820   23.1960 C   0  0  0  0  0  0  0  0  0  0  0  0
   10.6860    0.6100   23.8230 C   0  0  0  0  0  0  0  0  0  0  0  0
   11.7760    2.6200   23.1440 C   0  0  0  0  0  0  0  0  0  0  0  0
    9.8920    1.7390   24.1970 N   0  0  0  0  0  0  0  0  0  0  0  0
   10.4490    2.9170   23.8360 C   0  0  0  0  0  0  0  0  0  0  0  0
   12.7330    3.7300   22.5750 C   0  0  0  0  0  0  0  0  0  0  0  0
   12.6840    5.1410   23.1070 C   0  0  0  0  0  0  0  0  0  0  0  0
   11.4730    5.8960   22.8980 N   0  0  0  0  0  0  0  0  0  0  0  0
  1  2  1  0
  2  3  1  0
  3  4  2  0
  3  5  1  0
  4  6  1  0
  5  7  2  0
  6  8  2  0
  7  8  1  0
  7  9  1  0
  8 10  1  0
  9 11  2  0
 10 11  1  0
  9 12  1  0
 12 13  1  0
 13 14  1  0
M  END
