JOH-UNI-522b0723-3-vinylsulfonamide
     RDKit          3D

 18 19  0  0  0  0  0  0  0  0999 V2000
    7.7320   -3.2910   19.3180 C   0  0  0  0  0  0  0  0  0  0  0  0
    7.8220   -2.7480   20.7310 C   0  0  0  0  0  0  0  0  0  0  0  0
    6.2190   -2.1680   21.2250 S   0  0  0  0  0  0  0  0  0  0  0  0
    4.9970   -3.2750   21.3860 O   0  0  0  0  0  0  0  0  0  0  0  0
    5.9020   -1.2500   20.1540 O   0  0  0  0  0  0  0  0  0  0  0  0
    7.1410   -0.9810   22.4660 C   0  0  0  0  0  0  0  0  0  0  0  0
    7.9170   -0.4990   23.4700 C   0  0  0  0  0  0  0  0  0  0  0  0
    7.9090   -1.9160   23.3510 N   0  0  0  0  0  0  0  0  0  0  0  0
    8.0770   -2.0810   23.6370 C   0  0  0  0  0  0  0  0  0  0  0  0
    8.7210   -1.1630   24.3290 C   0  0  0  0  0  0  0  0  0  0  0  0
    8.9870   -2.4150   24.7390 C   0  0  0  0  0  0  0  0  0  0  0  0
    8.7870   -3.7490   24.5990 N   0  0  0  0  0  0  0  0  0  0  0  0
    8.4480   -4.3490   25.8800 C   0  0  0  0  0  0  0  0  0  0  0  0
    9.6380   -4.4980   23.8310 C   0  0  1  0  0  0  0  0  0  0  0  0
    7.8200   -5.5320   25.5640 C   0  0  0  0  0  0  0  0  0  0  0  0
    9.0120   -5.7170   23.5430 C   0  0  0  0  0  0  0  0  0  0  0  0
   10.2070   -3.7180   22.6790 C   0  0  0  0  0  0  0  0  0  0  0  0
    7.7810   -5.8030   24.2090 N   0  0  0  0  0  0  0  0  0  0  0  0
  1  2  1  0
  3  2  1  0
  3  4  2  0
  3  5  2  0
  3  6  1  0
  6  7  2  0
  6  8  1  0
  7  9  1  0
  8 10  2  0
  9 11  2  0
 10 11  1  0
 11 12  1  0
 12 13  1  0
 12 14  1  0
 13 15  1  0
 14 16  1  0
 14 17  1  6
 15 18  1  0
 16 18  1  0
M  END
