JOH-UNI-522b0723-10-acrylamide
     RDKit          3D

 25 27  0  0  0  0  0  0  0  0999 V2000
    7.1800   -3.1050   18.8890 C   0  0  0  0  0  0  0  0  0  0  0  0
    7.0620   -2.0210   19.9260 C   0  0  0  0  0  0  0  0  0  0  0  0
    6.2950   -2.5230   21.1390 C   0  0  0  0  0  0  0  0  0  0  0  0
    4.9990   -3.1070   21.0520 O   0  0  0  0  0  0  0  0  0  0  0  0
    7.1370   -2.4570   22.4200 C   0  0  0  0  0  0  0  0  0  0  0  0
    7.7710   -3.6320   22.4490 N   0  0  0  0  0  0  0  0  0  0  0  0
    7.3030   -1.4420   23.4610 C   0  0  0  0  0  0  0  0  0  0  0  0
    8.4030   -3.6050   23.5700 C   0  0  0  0  0  0  0  0  0  0  0  0
    8.1430   -1.7340   24.6200 C   0  0  0  0  0  0  0  0  0  0  0  0
    6.5840   -0.0620   23.3930 C   0  0  0  0  0  0  0  0  0  0  0  0
    8.7490   -3.0020   24.6860 C   0  0  0  0  0  0  0  0  0  0  0  0
    7.0670    0.7840   22.3560 O   0  0  0  0  0  0  0  0  0  0  0  0
    5.5880    0.1900   24.3270 N   0  0  0  0  0  0  0  0  0  0  0  0
    9.5260   -3.6700   25.6120 N   0  0  0  0  0  0  0  0  0  0  0  0
    5.7980    0.9060   25.5320 C   0  0  0  0  0  0  0  0  0  0  0  0
    8.9490   -4.1610   26.7190 C   0  0  0  0  0  0  0  0  0  0  0  0
   10.1760   -4.7720   24.9010 C   0  0  0  0  0  0  0  0  0  0  0  0
    7.1220    1.6210   25.8980 C   0  0  0  0  0  0  0  0  0  0  0  0
    4.7650    1.0030   26.4840 C   0  0  0  0  0  0  0  0  0  0  0  0
    8.0870   -5.3720   26.3790 C   0  0  0  0  0  0  0  0  0  0  0  0
    8.9050   -5.5360   24.4290 C   0  0  0  0  0  0  0  0  0  0  0  0
    7.2590    2.3220   27.1150 C   0  0  0  0  0  0  0  0  0  0  0  0
    4.9220    1.7030   27.6850 C   0  0  0  0  0  0  0  0  0  0  0  0
    7.9060   -5.6190   25.1940 O   0  0  0  0  0  0  0  0  0  0  0  0
    6.0860    2.3650   28.0630 C   0  0  0  0  0  0  0  0  0  0  0  0
  1  2  1  0
  2  3  1  0
  3  4  2  0
  3  5  1  0
  5  6  2  0
  5  7  1  0
  6  8  1  0
  7  9  2  0
  7 10  1  0
  8 11  2  0
  9 11  1  0
 10 12  2  0
 10 13  1  0
 11 14  1  0
 13 15  1  0
 14 16  1  0
 14 17  1  0
 15 18  2  0
 15 19  1  0
 16 20  1  0
 17 21  1  0
 18 22  1  0
 19 23  2  0
 20 24  1  0
 21 24  1  0
 22 25  2  0
 23 25  1  0
M  END
