JOH-UNI-522b0723-13-chloroacetamide
     RDKit          3D

 26 28  0  0  0  0  0  0  0  0999 V2000
    8.6220   -3.5800   20.4450 C   0  0  0  0  0  0  0  0  0  0  0  0
    7.6480   -2.3490   20.1130 C   0  0  0  0  0  0  0  0  0  0  0  0
    7.2740   -2.9790   18.9980 O   0  0  0  0  0  0  0  0  0  0  0  0
    8.2940   -2.0320   21.5160 C   0  0  0  0  0  0  0  0  0  0  0  0
    8.1190   -3.2090   22.0600 N   0  0  0  0  0  0  0  0  0  0  0  0
    8.9300   -1.0310   22.3760 C   0  0  0  0  0  0  0  0  0  0  0  0
    8.4330   -3.6020   23.3020 C   0  0  0  0  0  0  0  0  0  0  0  0
    9.2610   -1.4750   23.7360 C   0  0  0  0  0  0  0  0  0  0  0  0
    9.2660    0.4500   21.9580 C   0  0  0  0  0  0  0  0  0  0  0  0
    8.9870   -2.7930   24.1840 C   0  0  0  0  0  0  0  0  0  0  0  0
    8.6830    1.1290   21.0980 O   0  0  0  0  0  0  0  0  0  0  0  0
   10.3160    0.9160   22.7060 N   0  0  0  0  0  0  0  0  0  0  0  0
    9.1270   -3.4970   25.2880 N   0  0  0  0  0  0  0  0  0  0  0  0
   10.7540    2.2940   22.7530 C   0  0  0  0  0  0  0  0  0  0  0  0
    8.1320   -3.3370   26.2050 C   0  0  0  0  0  0  0  0  0  0  0  0
    9.1460   -4.9240   24.9980 C   0  0  1  0  0  0  0  0  0  0  0  0
   12.1470    2.6270   22.7300 C   0  0  0  0  0  0  0  0  0  0  0  0
    9.8640    3.3900   22.8250 C   0  0  0  0  0  0  0  0  0  0  0  0
    7.3550   -4.6350   26.5810 C   0  0  0  0  0  0  0  0  0  0  0  0
    7.6750   -5.3110   24.6960 C   0  0  2  0  0  0  0  0  0  0  0  0
    9.8880   -5.3060   23.7350 C   0  0  0  0  0  0  0  0  0  0  0  0
   12.6650    4.0470   22.7750 C   0  0  0  0  0  0  0  0  0  0  0  0
   10.2860    4.7270   22.8720 C   0  0  0  0  0  0  0  0  0  0  0  0
    7.2200   -5.5740   25.7920 O   0  0  0  0  0  0  0  0  0  0  0  0
    7.6020   -6.0770   23.3450 C   0  0  0  0  0  0  0  0  0  0  0  0
   11.6100    5.1150   22.8500 C   0  0  0  0  0  0  0  0  0  0  0  0
  1  2  1  0
  2  3  2  0
  2  4  1  0
  4  5  2  0
  4  6  1  0
  5  7  1  0
  6  8  2  0
  6  9  1  0
  7 10  2  0
  8 10  1  0
  9 11  2  0
  9 12  1  0
 10 13  1  0
 12 14  1  0
 13 15  1  0
 13 16  1  0
 14 17  2  0
 14 18  1  0
 15 19  1  0
 16 20  1  0
 16 21  1  6
 17 22  1  0
 18 23  2  0
 19 24  1  0
 20 24  1  0
 20 25  1  6
 22 26  2  0
 23 26  1  0
M  END
