JOH-UNI-522b0723-13-vinylsulfonamide
     RDKit          3D

 28 30  0  0  0  0  0  0  0  0999 V2000
    7.2040   -3.0850   18.7630 C   0  0  0  0  0  0  0  0  0  0  0  0
    7.2300   -1.9650   19.7450 C   0  0  0  0  0  0  0  0  0  0  0  0
    6.4650   -2.6710   21.1670 S   0  0  0  0  0  0  0  0  0  0  0  0
    4.9040   -3.0260   21.0470 O   0  0  0  0  0  0  0  0  0  0  0  0
    7.2220   -3.8410   21.4970 O   0  0  0  0  0  0  0  0  0  0  0  0
    7.3110   -1.3930   22.1300 C   0  0  0  0  0  0  0  0  0  0  0  0
    7.3960   -2.6740   22.5520 N   0  0  0  0  0  0  0  0  0  0  0  0
    8.1010   -0.7630   23.1580 C   0  0  0  0  0  0  0  0  0  0  0  0
    7.9520   -3.3670   23.5780 C   0  0  0  0  0  0  0  0  0  0  0  0
    8.7240   -1.4230   24.2810 C   0  0  0  0  0  0  0  0  0  0  0  0
    8.2130    0.7820   22.8860 C   0  0  0  0  0  0  0  0  0  0  0  0
    8.6230   -2.7700   24.4990 C   0  0  0  0  0  0  0  0  0  0  0  0
    8.2490    1.6570   24.0120 O   0  0  0  0  0  0  0  0  0  0  0  0
    8.2900    1.1250   21.5640 N   0  0  0  0  0  0  0  0  0  0  0  0
    9.0220   -3.6150   25.3970 N   0  0  0  0  0  0  0  0  0  0  0  0
    7.1160    1.4230   20.7610 C   0  0  0  0  0  0  0  0  0  0  0  0
    8.1240   -3.8340   26.4010 C   0  0  0  0  0  0  0  0  0  0  0  0
    9.3810   -4.9090   24.8710 C   0  0  2  0  0  0  0  0  0  0  0  0
    6.1450    2.3870   21.1910 C   0  0  0  0  0  0  0  0  0  0  0  0
    6.8820    0.7720   19.5140 C   0  0  0  0  0  0  0  0  0  0  0  0
    6.9500   -4.7370   25.9700 C   0  0  0  0  0  0  0  0  0  0  0  0
    8.1980   -5.7540   24.3540 C   0  0  1  0  0  0  0  0  0  0  0  0
    9.9520   -5.8480   25.8920 C   0  0  0  0  0  0  0  0  0  0  0  0
    4.9270    2.6940   20.3520 C   0  0  0  0  0  0  0  0  0  0  0  0
    5.7690    1.0260   18.7080 C   0  0  0  0  0  0  0  0  0  0  0  0
    7.1190   -5.7760   25.3220 O   0  0  0  0  0  0  0  0  0  0  0  0
    7.5680   -5.4260   22.9940 C   0  0  0  0  0  0  0  0  0  0  0  0
    4.8010    1.9370   19.0610 C   0  0  0  0  0  0  0  0  0  0  0  0
  1  2  1  0
  3  2  1  0
  3  4  2  0
  3  5  2  0
  3  6  1  0
  6  7  2  0
  6  8  1  0
  7  9  1  0
  8 10  2  0
  8 11  1  0
  9 12  2  0
 10 12  1  0
 11 13  2  0
 11 14  1  0
 12 15  1  0
 14 16  1  0
 15 17  1  0
 15 18  1  0
 16 19  2  0
 16 20  1  0
 17 21  1  0
 18 22  1  0
 18 23  1  1
 19 24  1  0
 20 25  2  0
 21 26  1  0
 22 26  1  0
 22 27  1  6
 24 28  2  0
 25 28  1  0
M  END
