JOH-UNI-9dc98897-10-nitrile
     RDKit          3D

 19 20  0  0  0  0  0  0  0  0999 V2000
    7.1120   -3.8120   19.7850 C   0  0  0  0  0  0  0  0  0  0  0  0
    5.8860   -4.1790   19.8920 N   0  0  0  0  0  0  0  0  0  0  0  0
    7.5140   -2.3820   19.9030 C   0  0  0  0  0  0  0  0  0  0  0  0
    7.9160   -2.4640   21.2110 C   0  0  0  0  0  0  0  0  0  0  0  0
    8.0780   -1.3120   20.7870 N   0  0  0  0  0  0  0  0  0  0  0  0
    7.9560   -3.5040   22.1790 C   0  0  0  0  0  0  0  0  0  0  0  0
    8.5410   -1.3980   22.2400 C   0  0  0  0  0  0  0  0  0  0  0  0
    8.5090   -2.6490   23.1390 C   0  0  0  0  0  0  0  0  0  0  0  0
    9.0850   -0.1600   22.8770 C   0  0  0  0  0  0  0  0  0  0  0  0
    8.8520   -3.1030   24.5110 N   0  0  0  0  0  0  0  0  0  0  0  0
   10.3880   -0.1190   23.1820 F   0  0  0  0  0  0  0  0  0  0  0  0
    8.4400    0.1640   24.0300 F   0  0  0  0  0  0  0  0  0  0  0  0
    8.9230    0.9290   22.0690 F   0  0  0  0  0  0  0  0  0  0  0  0
    9.3280   -4.4260   24.6330 C   0  0  0  0  0  0  0  0  0  0  0  0
    7.8780   -2.6860   25.5370 C   0  0  0  0  0  0  0  0  0  0  0  0
    8.6770   -5.5110   23.7490 C   0  0  0  0  0  0  0  0  0  0  0  0
    6.7600   -3.7230   25.4760 C   0  0  0  0  0  0  0  0  0  0  0  0
    7.2500   -5.4480   24.3480 C   0  0  0  0  0  0  0  0  0  0  0  0
    6.6860   -4.3570   24.4180 O   0  0  0  0  0  0  0  0  0  0  0  0
  1  2  2  3
  1  3  1  0
  3  4  2  0
  3  5  1  0
  4  6  1  0
  5  7  2  0
  6  8  2  0
  7  8  1  0
  7  9  1  0
  8 10  1  0
  9 11  1  0
  9 12  1  0
  9 13  1  0
 10 14  1  0
 10 15  1  0
 14 16  1  0
 15 17  1  0
 16 18  1  0
 17 19  1  0
 18 19  1  0
M  END
