JOH-UNI-27ac80fd-36-bromoalkyne
     RDKit          3D

 17 18  0  0  0  0  0  0  0  0999 V2000
    7.2390   -3.2460   19.6050 C   0  0  0  0  0  0  0  0  0  0  0  0
    6.3140   -2.8180   18.7460 C   0  0  0  0  0  0  0  0  0  0  0  0
    7.1940   -2.9020   20.9450 N   0  0  0  0  0  0  0  0  0  0  0  0
    6.6370   -3.6160   22.0380 C   0  0  0  0  0  0  0  0  0  0  0  0
    7.8020   -1.6220   21.3870 C   0  0  0  0  0  0  0  0  0  0  0  0
    7.3370   -3.4740   23.2590 C   0  0  0  0  0  0  0  0  0  0  0  0
    8.8510   -1.9180   22.2530 C   0  0  0  0  0  0  0  0  0  0  0  0
    8.6740   -3.1400   23.0790 N   0  0  0  0  0  0  0  0  0  0  0  0
    9.5310   -3.1120   24.2630 C   0  0  0  0  0  0  0  0  0  0  0  0
   10.8320   -3.3170   23.9250 F   0  0  0  0  0  0  0  0  0  0  0  0
    9.5220   -1.8550   24.7830 F   0  0  0  0  0  0  0  0  0  0  0  0
    9.1420   -4.0060   25.2460 C   0  0  0  0  0  0  0  0  0  0  0  0
    9.7730   -5.2560   25.4460 C   0  0  0  0  0  0  0  0  0  0  0  0
    7.8490   -3.7770   26.3750 S   0  0  0  0  0  0  0  0  0  0  0  0
    9.1830   -5.9130   26.4600 C   0  0  0  0  0  0  0  0  0  0  0  0
    8.1160   -5.2900   27.1010 C   0  0  0  0  0  0  0  0  0  0  0  0
    7.0690   -5.9410   28.5500 Br  0  0  0  0  0  0  0  0  0  0  0  0
  1  2  2  3
  1  3  1  0
  3  4  1  0
  3  5  1  0
  4  6  1  0
  5  7  1  0
  6  8  1  0
  7  8  1  0
  8  9  1  0
  9 10  1  0
  9 11  1  0
  9 12  1  0
 12 13  2  0
 12 14  1  0
 13 15  1  0
 14 16  1  0
 15 16  2  0
 16 17  1  0
M  END
