JOH-UNI-9dc98897-3-acrylamide
     RDKit          3D

 18 19  0  0  0  0  0  0  0  0999 V2000
    7.6390   -2.9220   18.4940 C   0  0  0  0  0  0  0  0  0  0  0  0
    7.0040   -2.3480   19.7350 C   0  0  0  0  0  0  0  0  0  0  0  0
    6.1790   -3.3840   20.4240 C   0  0  0  0  0  0  0  0  0  0  0  0
    5.1320   -3.8270   19.9660 O   0  0  0  0  0  0  0  0  0  0  0  0
    6.6630   -3.8530   21.7200 C   0  0  0  0  0  0  0  0  0  0  0  0
    8.0090   -3.6050   22.5010 C   0  0  0  0  0  0  0  0  0  0  0  0
    6.2320   -4.6010   22.6960 N   0  0  0  0  0  0  0  0  0  0  0  0
    7.3490   -4.5830   23.7200 C   0  0  0  0  0  0  0  0  0  0  0  0
    7.6160   -4.0430   22.9430 C   0  0  0  0  0  0  0  0  0  0  0  0
    6.2100   -4.7940   23.0350 F   0  0  0  0  0  0  0  0  0  0  0  0
    8.6730   -3.9340   23.7460 C   0  0  0  0  0  0  0  0  0  0  0  0
    9.0800   -4.3470   24.9560 N   0  0  0  0  0  0  0  0  0  0  0  0
    9.5580   -5.4930   25.4950 C   0  0  0  0  0  0  0  0  0  0  0  0
    8.7480   -3.3850   25.9790 C   0  0  0  0  0  0  0  0  0  0  0  0
    9.2660   -5.8560   26.9700 C   0  0  0  0  0  0  0  0  0  0  0  0
    7.6010   -3.7380   26.7000 C   0  0  0  0  0  0  0  0  0  0  0  0
    7.8450   -5.7150   27.5450 C   0  0  0  0  0  0  0  0  0  0  0  0
    7.6960   -4.5180   27.8070 O   0  0  0  0  0  0  0  0  0  0  0  0
  1  2  1  0
  2  3  1  0
  3  4  2  0
  3  5  1  0
  5  6  2  0
  5  7  1  0
  6  8  1  0
  7  9  2  0
  8 10  1  0
  8 11  2  0
  9 11  1  0
 11 12  1  0
 12 13  1  0
 12 14  1  0
 13 15  1  0
 14 16  1  0
 15 17  1  0
 16 18  1  0
 17 18  1  0
M  END
