JOH-UNI-27ac80fd-28-chloroacetamide
     RDKit          3D

 17 18  0  0  0  0  0  0  0  0999 V2000
    7.3530   -2.9570   18.7990 C   0  0  0  0  0  0  0  0  0  0  0  0
    6.3660   -3.2230   19.8860 C   0  0  0  0  0  0  0  0  0  0  0  0
    5.4030   -3.9740   19.6560 O   0  0  0  0  0  0  0  0  0  0  0  0
    6.5370   -2.6720   21.1520 N   0  0  0  0  0  0  0  0  0  0  0  0
    7.6080   -1.6270   21.3720 C   0  0  0  0  0  0  0  0  0  0  0  0
    6.2100   -3.4450   22.3260 C   0  0  0  0  0  0  0  0  0  0  0  0
    8.7380   -2.1220   22.0870 C   0  0  0  0  0  0  0  0  0  0  0  0
    7.5080   -4.0050   22.9380 C   0  0  1  0  0  0  0  0  0  0  0  0
    8.3620   -2.8680   23.3230 N   0  0  0  0  0  0  0  0  0  0  0  0
    7.0930   -5.0010   23.9660 C   0  0  0  0  0  0  0  0  0  0  0  0
    9.5440   -3.1590   24.1680 C   0  0  0  0  0  0  0  0  0  0  0  0
    9.2050   -4.0700   25.1700 C   0  0  0  0  0  0  0  0  0  0  0  0
    9.8080   -5.3080   25.3520 C   0  0  0  0  0  0  0  0  0  0  0  0
    7.9540   -3.7670   26.3250 S   0  0  0  0  0  0  0  0  0  0  0  0
    9.2850   -6.0250   26.3990 C   0  0  0  0  0  0  0  0  0  0  0  0
    8.1730   -5.2610   27.0770 C   0  0  0  0  0  0  0  0  0  0  0  0
    7.1320   -5.8420   28.5510 Br  0  0  0  0  0  0  0  0  0  0  0  0
  1  2  1  0
  2  3  2  0
  2  4  1  0
  4  5  1  0
  4  6  1  0
  5  7  1  0
  6  8  1  0
  7  9  1  0
  8  9  1  0
  8 10  1  1
  9 11  1  0
 11 12  1  0
 12 13  2  0
 12 14  1  0
 13 15  1  0
 14 16  1  0
 15 16  2  0
 16 17  1  0
M  END
