JOH-UNI-9dc98897-7-acrylamide
     RDKit          3D

 21 22  0  0  0  0  0  0  0  0999 V2000
    7.2190   -3.1650   19.0350 C   0  0  0  0  0  0  0  0  0  0  0  0
    7.1960   -2.2650   20.2450 C   0  0  0  0  0  0  0  0  0  0  0  0
    6.1390   -2.7230   21.2360 C   0  0  0  0  0  0  0  0  0  0  0  0
    5.1330   -3.4450   20.9410 O   0  0  0  0  0  0  0  0  0  0  0  0
    6.3520   -2.2660   22.6270 C   0  0  0  0  0  0  0  0  0  0  0  0
    6.0870   -0.9330   23.4080 C   0  0  0  0  0  0  0  0  0  0  0  0
    6.8490   -2.8200   23.6870 N   0  0  0  0  0  0  0  0  0  0  0  0
    6.7440   -1.6840   24.8040 C   0  0  0  0  0  0  0  0  0  0  0  0
    7.3920   -3.8640   24.2660 C   0  0  0  0  0  0  0  0  0  0  0  0
    6.6450   -0.5650   25.8820 C   0  0  0  0  0  0  0  0  0  0  0  0
    7.4030   -3.1140   25.3300 C   0  0  0  0  0  0  0  0  0  0  0  0
    5.6060   -0.5800   26.7400 F   0  0  0  0  0  0  0  0  0  0  0  0
    6.5990    0.6870   25.3320 F   0  0  0  0  0  0  0  0  0  0  0  0
    7.7380   -0.5390   26.7020 F   0  0  0  0  0  0  0  0  0  0  0  0
    7.8810   -3.4890   26.6120 N   0  0  0  0  0  0  0  0  0  0  0  0
    8.4510   -4.7120   26.8780 C   0  0  0  0  0  0  0  0  0  0  0  0
    7.1110   -2.9770   27.7400 C   0  0  0  0  0  0  0  0  0  0  0  0
    7.4840   -5.8170   26.5290 C   0  0  0  0  0  0  0  0  0  0  0  0
    6.2100   -3.9460   28.1770 C   0  0  0  0  0  0  0  0  0  0  0  0
    6.3360   -6.0130   27.2810 C   0  0  0  0  0  0  0  0  0  0  0  0
    5.6620   -4.8420   27.3170 O   0  0  0  0  0  0  0  0  0  0  0  0
  1  2  1  0
  2  3  1  0
  3  4  2  0
  3  5  1  0
  5  6  2  0
  5  7  1  0
  6  8  1  0
  7  9  2  0
  8 10  1  0
  8 11  2  0
  9 11  1  0
 10 12  1  0
 10 13  1  0
 10 14  1  0
 11 15  1  0
 15 16  1  0
 15 17  1  0
 16 18  1  0
 17 19  1  0
 18 20  1  0
 19 21  1  0
 20 21  1  0
M  END
