JOH-UNI-27ac80fd-20
     RDKit          3D

 19 20  0  0  0  0  0  0  0  0999 V2000
    6.3200   -1.9020   18.6080 C   0  0  0  0  0  0  0  0  0  0  0  0
    6.0530   -2.7930   19.8080 C   0  0  0  0  0  0  0  0  0  0  0  0
    5.4670   -3.8820   19.6630 O   0  0  0  0  0  0  0  0  0  0  0  0
    6.5220   -2.3700   21.0530 N   0  0  0  0  0  0  0  0  0  0  0  0
    7.6330   -1.3960   21.1370 C   0  0  0  0  0  0  0  0  0  0  0  0
    6.1770   -3.0450   22.3050 C   0  0  0  0  0  0  0  0  0  0  0  0
    8.7850   -1.8260   22.0840 C   0  0  0  0  0  0  0  0  0  0  0  0
    7.4270   -3.5120   23.0690 C   0  0  0  0  0  0  0  0  0  0  0  0
    8.3690   -2.4300   23.3690 N   0  0  0  0  0  0  0  0  0  0  0  0
    9.5250   -2.9000   24.1390 C   0  0  0  0  0  0  0  0  0  0  0  0
   10.4820   -3.3280   23.2780 F   0  0  0  0  0  0  0  0  0  0  0  0
   10.0860   -1.8410   24.7690 F   0  0  0  0  0  0  0  0  0  0  0  0
    9.2830   -3.9760   25.1090 N   0  0  0  0  0  0  0  0  0  0  0  0
    9.5280   -5.3230   24.6320 C   0  0  0  0  0  0  0  0  0  0  0  0
    8.3660   -3.8060   26.2380 C   0  0  0  0  0  0  0  0  0  0  0  0
    8.5470   -5.8280   23.5830 C   0  0  0  0  0  0  0  0  0  0  0  0
    6.9700   -4.4780   26.1500 C   0  0  0  0  0  0  0  0  0  0  0  0
    7.1050   -5.6600   24.0290 C   0  0  0  0  0  0  0  0  0  0  0  0
    6.9240   -5.7110   25.4420 O   0  0  0  0  0  0  0  0  0  0  0  0
  1  2  1  0
  2  3  2  0
  2  4  1  0
  4  5  1  0
  4  6  1  0
  5  7  1  0
  6  8  1  0
  7  9  1  0
  8  9  1  0
  9 10  1  0
 10 11  1  0
 10 12  1  0
 10 13  1  0
 13 14  1  0
 13 15  1  0
 14 16  1  0
 15 17  1  0
 16 18  1  0
 17 19  1  0
 18 19  1  0
M  END
