JOH-UNI-522b0723-12-chloroacetamide
     RDKit          3D

 25 27  0  0  0  0  0  0  0  0999 V2000
    8.1330   -2.9390   19.8860 C   0  0  0  0  0  0  0  0  0  0  0  0
    6.8210   -2.5880   20.5130 C   0  0  0  0  0  0  0  0  0  0  0  0
    6.4390   -2.8880   19.2780 O   0  0  0  0  0  0  0  0  0  0  0  0
    7.6100   -2.3340   21.8740 C   0  0  0  0  0  0  0  0  0  0  0  0
    8.1150   -3.5100   22.2530 N   0  0  0  0  0  0  0  0  0  0  0  0
    7.8560   -1.2340   22.7750 C   0  0  0  0  0  0  0  0  0  0  0  0
    8.7900   -3.8000   23.3950 C   0  0  0  0  0  0  0  0  0  0  0  0
    8.5740   -1.5330   24.0200 C   0  0  0  0  0  0  0  0  0  0  0  0
    7.3550    0.2170   22.4940 C   0  0  0  0  0  0  0  0  0  0  0  0
    9.0210   -2.8620   24.3250 C   0  0  0  0  0  0  0  0  0  0  0  0
    6.3230    0.2720   21.5170 O   0  0  0  0  0  0  0  0  0  0  0  0
    7.9210    1.2720   23.1820 N   0  0  0  0  0  0  0  0  0  0  0  0
    9.6290   -3.4480   25.3580 N   0  0  0  0  0  0  0  0  0  0  0  0
    7.3160    1.9470   24.2750 C   0  0  0  0  0  0  0  0  0  0  0  0
   10.1190   -4.6170   24.9110 C   0  0  0  0  0  0  0  0  0  0  0  0
    8.6520   -3.9100   26.3940 C   0  0  1  0  0  0  0  0  0  0  0  0
    7.3050    1.4760   25.7630 C   0  0  0  0  0  0  0  0  0  0  0  0
    6.6600    3.1660   24.0150 C   0  0  0  0  0  0  0  0  0  0  0  0
    8.9810   -5.5780   24.4730 C   0  0  0  0  0  0  0  0  0  0  0  0
    7.5810   -4.8070   25.7740 C   0  0  0  0  0  0  0  0  0  0  0  0
    9.2820   -4.7090   27.5840 C   0  0  0  0  0  0  0  0  0  0  0  0
    6.6660    2.2580   26.7520 C   0  0  0  0  0  0  0  0  0  0  0  0
    6.0380    3.9150   25.0130 C   0  0  0  0  0  0  0  0  0  0  0  0
    8.0460   -5.8170   25.2510 O   0  0  0  0  0  0  0  0  0  0  0  0
    5.9950    3.5490   26.3520 C   0  0  0  0  0  0  0  0  0  0  0  0
  1  2  1  0
  2  3  2  0
  2  4  1  0
  4  5  2  0
  4  6  1  0
  5  7  1  0
  6  8  2  0
  6  9  1  0
  7 10  2  0
  8 10  1  0
  9 11  2  0
  9 12  1  0
 10 13  1  0
 12 14  1  0
 13 15  1  0
 13 16  1  0
 14 17  2  0
 14 18  1  0
 15 19  1  0
 16 20  1  0
 16 21  1  1
 17 22  1  0
 18 23  2  0
 19 24  1  0
 20 24  1  0
 22 25  2  0
 23 25  1  0
M  END
