JOH-UNI-9dc98897-5-bromoalkyne
     RDKit          3D

 18 19  0  0  0  0  0  0  0  0999 V2000
    7.6310   -3.4900   19.7800 C   0  0  0  0  0  0  0  0  0  0  0  0
    6.2370   -3.3120   19.1740 C   0  0  0  0  0  0  0  0  0  0  0  0
    7.8130   -3.6550   21.2250 C   0  0  0  0  0  0  0  0  0  0  0  0
    9.0950   -3.0420   21.8970 C   0  0  0  0  0  0  0  0  0  0  0  0
    6.8440   -4.3370   21.8410 N   0  0  0  0  0  0  0  0  0  0  0  0
    9.1930   -3.2970   23.4440 C   0  0  0  0  0  0  0  0  0  0  0  0
    6.9580   -4.5550   23.2430 C   0  0  0  0  0  0  0  0  0  0  0  0
    8.0190   -4.1020   24.0340 C   0  0  0  0  0  0  0  0  0  0  0  0
    5.8210   -5.3260   23.8200 C   0  0  0  0  0  0  0  0  0  0  0  0
    7.9450   -4.4080   25.3120 N   0  0  0  0  0  0  0  0  0  0  0  0
    4.6260   -4.6490   23.7520 F   0  0  0  0  0  0  0  0  0  0  0  0
    5.5790   -6.5070   23.1860 F   0  0  0  0  0  0  0  0  0  0  0  0
    9.3010   -4.9010   25.6260 C   0  0  0  0  0  0  0  0  0  0  0  0
    7.3940   -3.3220   26.1310 C   0  0  0  0  0  0  0  0  0  0  0  0
    9.2110   -5.5220   27.0320 C   0  0  0  0  0  0  0  0  0  0  0  0
    6.8780   -3.8670   27.4720 C   0  0  0  0  0  0  0  0  0  0  0  0
    7.8680   -5.6540   27.7830 C   0  0  0  0  0  0  0  0  0  0  0  0
    7.6470   -4.5050   28.1790 O   0  0  0  0  0  0  0  0  0  0  0  0
  1  2  2  3
  1  3  1  0
  3  4  2  0
  3  5  1  0
  4  6  1  0
  5  7  2  0
  6  8  2  0
  7  8  1  0
  7  9  1  0
  8 10  1  0
  9 11  1  0
  9 12  1  0
 10 13  1  0
 10 14  1  0
 13 15  1  0
 14 16  1  0
 15 17  1  0
 16 18  1  0
 17 18  1  0
M  END
