JOH-UNI-9dc98897-5-acrylamide
     RDKit          3D

 20 21  0  0  0  0  0  0  0  0999 V2000
    7.6110   -2.9080   18.4900 C   0  0  0  0  0  0  0  0  0  0  0  0
    7.0060   -2.1160   19.6240 C   0  0  0  0  0  0  0  0  0  0  0  0
    6.1370   -2.9680   20.5030 C   0  0  0  0  0  0  0  0  0  0  0  0
    5.0570   -3.4460   20.1650 O   0  0  0  0  0  0  0  0  0  0  0  0
    6.6790   -3.1830   21.8320 C   0  0  0  0  0  0  0  0  0  0  0  0
    7.3280   -4.5660   22.1980 C   0  0  0  0  0  0  0  0  0  0  0  0
    6.6140   -2.0510   22.7860 N   0  0  0  0  0  0  0  0  0  0  0  0
    7.9260   -4.6970   23.5990 C   0  0  0  0  0  0  0  0  0  0  0  0
    7.2000   -2.2590   24.0800 C   0  0  0  0  0  0  0  0  0  0  0  0
    7.7940   -3.4290   24.4540 C   0  0  0  0  0  0  0  0  0  0  0  0
    7.1290   -1.0710   25.0390 C   0  0  0  0  0  0  0  0  0  0  0  0
    8.3550   -3.5740   25.6500 N   0  0  0  0  0  0  0  0  0  0  0  0
    5.8360   -0.6860   25.2960 F   0  0  0  0  0  0  0  0  0  0  0  0
    7.7310    0.0960   24.6770 F   0  0  0  0  0  0  0  0  0  0  0  0
    9.6690   -3.8210   25.9040 C   0  0  0  0  0  0  0  0  0  0  0  0
    7.3990   -3.8250   26.7430 C   0  0  0  0  0  0  0  0  0  0  0  0
   10.0310   -5.1420   26.5400 C   0  0  0  0  0  0  0  0  0  0  0  0
    7.9560   -4.4670   27.8570 C   0  0  0  0  0  0  0  0  0  0  0  0
    8.8400   -6.0670   26.7180 C   0  0  0  0  0  0  0  0  0  0  0  0
    8.2930   -5.7660   27.7760 O   0  0  0  0  0  0  0  0  0  0  0  0
  1  2  1  0
  2  3  1  0
  3  4  2  0
  3  5  1  0
  5  6  2  0
  5  7  1  0
  6  8  1  0
  7  9  2  0
  8 10  2  0
  9 10  1  0
  9 11  1  0
 10 12  1  0
 11 13  1  0
 11 14  1  0
 12 15  1  0
 12 16  1  0
 15 17  1  0
 16 18  1  0
 17 19  1  0
 18 20  1  0
 19 20  1  0
M  END
