JOH-UNI-e19b918c-7
     RDKit          3D

 20 25  0  0  0  0  0  0  0  0999 V2000
    7.1430   -1.0510   21.9490 C   0  0  0  0  0  0  0  0  0  0  0  0
    7.6990   -2.3990   21.6860 C   0  0  0  0  0  0  0  0  0  0  0  0
    9.0280   -2.7770   22.2140 C   0  0  0  0  0  0  0  0  0  0  0  0
    5.7410   -0.8810   21.5310 C   0  0  2  0  0  0  0  0  0  0  0  0
    5.8520   -1.7260   20.5380 C   0  0  2  0  0  0  0  0  0  0  0  0
    5.0340   -0.7290   20.3890 O   0  0  0  0  0  0  0  0  0  0  0  0
    7.0790   -3.5520   21.0320 C   0  0  1  0  0  0  0  0  0  0  0  0
    8.3680   -3.9460   22.9880 C   0  0  0  0  0  0  0  0  0  0  0  0
    7.5540   -4.6350   21.9140 N   0  0  0  0  0  0  0  0  0  0  0  0
    5.6260   -3.1990   20.9650 C   0  0  1  0  0  0  0  0  0  0  0  0
    6.4730   -5.6400   22.0860 C   0  0  0  0  0  0  0  0  0  0  0  0
    5.0710   -3.6910   22.3250 C   0  0  0  0  0  0  0  0  0  0  0  0
    5.4790   -4.9680   22.8580 C   0  0  0  0  0  0  0  0  0  0  0  0
    4.0680   -2.8550   23.0920 C   0  0  0  0  0  0  0  0  0  0  0  0
    4.8700   -5.4450   24.0770 C   0  0  0  0  0  0  0  0  0  0  0  0
    3.4770   -3.4220   24.3650 C   0  0  0  0  0  0  0  0  0  0  0  0
    3.8980   -4.7570   24.8260 C   0  0  0  0  0  0  0  0  0  0  0  0
    2.5690   -2.9100   25.2040 O   0  0  0  0  0  0  0  0  0  0  0  0
    2.2540   -4.1390   25.9460 C   0  0  0  0  0  0  0  0  0  0  0  0
    3.2970   -5.1780   25.9280 O   0  0  0  0  0  0  0  0  0  0  0  0
  1  2  2  0
  2  3  1  0
  4  1  1  6
  4  5  1  0
  4  6  1  0
  5  6  1  6
  7  2  1  1
  3  8  1  0
  7  9  1  0
  8  9  1  0
  5 10  1  0
  7 10  1  0
  9 11  1  0
 10 12  1  1
 11 13  1  0
 12 13  2  0
 12 14  1  0
 13 15  1  0
 14 16  2  0
 15 17  2  0
 16 17  1  0
 16 18  1  0
 18 19  1  0
 17 20  1  0
 19 20  1  0
M  END
