JOH-UNI-522b0723-13-nitrile
     RDKit          3D

 25 27  0  0  0  0  0  0  0  0999 V2000
    7.8000   -3.0940   19.8050 C   0  0  0  0  0  0  0  0  0  0  0  0
    6.7960   -2.6450   19.0860 N   0  0  0  0  0  0  0  0  0  0  0  0
    8.0500   -2.6430   21.3240 C   0  0  0  0  0  0  0  0  0  0  0  0
    8.7660   -3.7470   21.9210 N   0  0  0  0  0  0  0  0  0  0  0  0
    7.6150   -1.4040   21.9810 C   0  0  0  0  0  0  0  0  0  0  0  0
    9.0410   -3.7560   23.2060 C   0  0  0  0  0  0  0  0  0  0  0  0
    8.0430   -1.7040   23.3700 C   0  0  0  0  0  0  0  0  0  0  0  0
    7.2170   -0.1440   22.8180 C   0  0  0  0  0  0  0  0  0  0  0  0
    8.6850   -2.7830   24.0210 C   0  0  0  0  0  0  0  0  0  0  0  0
    7.9870    0.8190   22.7350 O   0  0  0  0  0  0  0  0  0  0  0  0
    6.0730   -0.1480   23.5540 N   0  0  0  0  0  0  0  0  0  0  0  0
    8.9470   -2.9270   25.3290 N   0  0  0  0  0  0  0  0  0  0  0  0
    6.0440    0.5430   24.7120 C   0  0  0  0  0  0  0  0  0  0  0  0
    7.7370   -3.1620   26.1530 C   0  0  0  0  0  0  0  0  0  0  0  0
    9.8570   -3.9650   25.6910 C   0  0  1  0  0  0  0  0  0  0  0  0
    4.8980    0.4490   25.7640 C   0  0  0  0  0  0  0  0  0  0  0  0
    7.1020    1.4240   25.0290 C   0  0  0  0  0  0  0  0  0  0  0  0
    7.1950   -4.3410   25.6220 C   0  0  0  0  0  0  0  0  0  0  0  0
    9.2990   -5.2020   25.2700 C   0  0  2  0  0  0  0  0  0  0  0  0
   11.2720   -3.7130   25.1590 C   0  0  0  0  0  0  0  0  0  0  0  0
    4.9800    1.2290   26.9410 C   0  0  0  0  0  0  0  0  0  0  0  0
    7.1430    2.1750   26.2000 C   0  0  0  0  0  0  0  0  0  0  0  0
    8.0240   -5.0310   24.7760 O   0  0  0  0  0  0  0  0  0  0  0  0
    9.1670   -6.1950   26.4090 C   0  0  0  0  0  0  0  0  0  0  0  0
    6.1610    2.1420   27.1760 C   0  0  0  0  0  0  0  0  0  0  0  0
  1  2  2  3
  1  3  1  0
  3  4  2  0
  3  5  1  0
  4  6  1  0
  5  7  2  0
  5  8  1  0
  6  9  2  0
  7  9  1  0
  8 10  2  0
  8 11  1  0
  9 12  1  0
 11 13  1  0
 12 14  1  0
 12 15  1  0
 13 16  2  0
 13 17  1  0
 14 18  1  0
 15 19  1  0
 15 20  1  6
 16 21  1  0
 17 22  2  0
 18 23  1  0
 19 23  1  0
 19 24  1  1
 21 25  2  0
 22 25  1  0
M  END
