JOH-UNI-9dc98897-7-bromoalkyne
     RDKit          3D

 19 20  0  0  0  0  0  0  0  0999 V2000
    7.1680   -3.6260   19.9760 C   0  0  0  0  0  0  0  0  0  0  0  0
    5.6870   -3.6820   19.6610 C   0  0  0  0  0  0  0  0  0  0  0  0
    7.6370   -2.0820   20.5630 C   0  0  0  0  0  0  0  0  0  0  0  0
    7.9560   -0.6400   20.7250 C   0  0  0  0  0  0  0  0  0  0  0  0
    7.1710   -1.5250   19.3960 N   0  0  0  0  0  0  0  0  0  0  0  0
    8.1210   -1.5340   21.9920 C   0  0  0  0  0  0  0  0  0  0  0  0
    6.7700   -2.6380   19.8380 C   0  0  0  0  0  0  0  0  0  0  0  0
    8.6760   -0.1050   22.0340 C   0  0  0  0  0  0  0  0  0  0  0  0
    7.3260   -2.7260   21.2510 C   0  0  0  0  0  0  0  0  0  0  0  0
   10.0090    0.0770   21.9820 F   0  0  0  0  0  0  0  0  0  0  0  0
    8.3200    0.5150   23.1980 F   0  0  0  0  0  0  0  0  0  0  0  0
    8.1370    0.7200   21.0880 F   0  0  0  0  0  0  0  0  0  0  0  0
    7.1520   -3.8300   22.0820 N   0  0  0  0  0  0  0  0  0  0  0  0
    8.0220   -4.5280   22.9040 C   0  0  0  0  0  0  0  0  0  0  0  0
    5.7320   -4.1910   22.2570 C   0  0  0  0  0  0  0  0  0  0  0  0
    7.8220   -6.0240   23.1580 C   0  0  0  0  0  0  0  0  0  0  0  0
    5.4880   -4.9430   23.4130 C   0  0  0  0  0  0  0  0  0  0  0  0
    6.5360   -6.6870   22.6510 C   0  0  0  0  0  0  0  0  0  0  0  0
    5.6550   -6.2980   23.4160 O   0  0  0  0  0  0  0  0  0  0  0  0
  1  2  2  3
  1  3  1  0
  3  4  2  0
  3  5  1  0
  4  6  1  0
  5  7  2  0
  6  8  1  0
  6  9  2  0
  7  9  1  0
  8 10  1  0
  8 11  1  0
  8 12  1  0
  9 13  1  0
 13 14  1  0
 13 15  1  0
 14 16  1  0
 15 17  1  0
 16 18  1  0
 17 19  1  0
 18 19  1  0
M  END
