JOH-UNI-27ac80fd-23-acrylamide
     RDKit          3D

 17 18  0  0  0  0  0  0  0  0999 V2000
    7.9290   -3.2520   19.0830 C   0  0  0  0  0  0  0  0  0  0  0  0
    6.7410   -2.3550   18.9310 C   0  0  0  0  0  0  0  0  0  0  0  0
    5.8970   -2.6290   20.1210 C   0  0  0  0  0  0  0  0  0  0  0  0
    4.8350   -3.1970   19.9800 O   0  0  0  0  0  0  0  0  0  0  0  0
    6.4130   -2.2850   21.3550 N   0  0  0  0  0  0  0  0  0  0  0  0
    6.1960   -3.1110   22.5550 C   0  0  0  0  0  0  0  0  0  0  0  0
    7.5580   -1.3480   21.3990 C   0  0  0  0  0  0  0  0  0  0  0  0
    7.4970   -3.6380   23.1880 C   0  0  0  0  0  0  0  0  0  0  0  0
    8.7790   -1.8730   22.1830 C   0  0  0  0  0  0  0  0  0  0  0  0
    8.4540   -2.5550   23.4510 N   0  0  0  0  0  0  0  0  0  0  0  0
    9.6370   -3.0310   24.1900 C   0  0  0  0  0  0  0  0  0  0  0  0
    9.2790   -4.0550   25.2330 C   0  0  0  0  0  0  0  0  0  0  0  0
    9.8870   -5.2570   25.5280 C   0  0  0  0  0  0  0  0  0  0  0  0
    7.9360   -3.7940   26.2630 S   0  0  0  0  0  0  0  0  0  0  0  0
    9.2540   -5.9570   26.5780 C   0  0  0  0  0  0  0  0  0  0  0  0
    8.1840   -5.2600   27.0580 C   0  0  0  0  0  0  0  0  0  0  0  0
    7.0530   -5.8400   28.4750 Br  0  0  0  0  0  0  0  0  0  0  0  0
  1  2  1  0
  2  3  1  0
  3  4  2  0
  3  5  1  0
  5  6  1  0
  5  7  1  0
  6  8  1  0
  7  9  1  0
  8 10  1  0
  9 10  1  0
 10 11  1  0
 11 12  1  0
 12 13  2  0
 12 14  1  0
 13 15  1  0
 14 16  1  0
 15 16  2  0
 16 17  1  0
M  END
