JOH-UNI-522b0723-6-vinylsulfonamide
     RDKit          3D

 20 21  0  0  0  0  0  0  0  0999 V2000
    7.0590   -3.0720   19.0120 C   0  0  0  0  0  0  0  0  0  0  0  0
    7.2140   -1.7750   19.8080 C   0  0  0  0  0  0  0  0  0  0  0  0
    6.0580   -1.9020   21.1670 S   0  0  0  0  0  0  0  0  0  0  0  0
    4.9950   -3.1360   21.0240 O   0  0  0  0  0  0  0  0  0  0  0  0
    5.5290   -0.5730   21.3600 O   0  0  0  0  0  0  0  0  0  0  0  0
    7.4330   -2.0590   22.3320 C   0  0  0  0  0  0  0  0  0  0  0  0
    7.3500   -2.7300   23.5730 C   0  0  0  0  0  0  0  0  0  0  0  0
    8.6620   -1.5690   22.1260 N   0  0  0  0  0  0  0  0  0  0  0  0
    8.3750   -2.9740   24.5590 C   0  0  0  0  0  0  0  0  0  0  0  0
    9.1070   -2.0870   23.2850 C   0  0  0  0  0  0  0  0  0  0  0  0
    9.7300   -2.5880   24.5080 C   0  0  0  0  0  0  0  0  0  0  0  0
    9.7400   -3.2620   25.6840 N   0  0  0  0  0  0  0  0  0  0  0  0
   10.4990   -4.4180   25.2040 C   0  0  0  0  0  0  0  0  0  0  0  0
    8.4930   -3.8230   26.3780 C   0  0  1  0  0  0  0  0  0  0  0  0
    9.3510   -5.3830   25.1280 C   0  0  0  0  0  0  0  0  0  0  0  0
    7.8640   -4.7760   25.4960 C   0  0  1  0  0  0  0  0  0  0  0  0
    8.7830   -4.4820   27.7800 C   0  0  0  0  0  0  0  0  0  0  0  0
    8.3910   -5.8110   25.5060 N   0  0  0  0  0  0  0  0  0  0  0  0
    6.3440   -4.9930   25.5560 C   0  0  0  0  0  0  0  0  0  0  0  0
    8.6110   -6.2810   26.8800 C   0  0  0  0  0  0  0  0  0  0  0  0
  1  2  1  0
  3  2  1  0
  3  4  2  0
  3  5  2  0
  3  6  1  0
  6  7  2  0
  6  8  1  0
  7  9  1  0
  8 10  2  0
  9 11  2  0
 10 11  1  0
 11 12  1  0
 12 13  1  0
 12 14  1  0
 13 15  1  0
 14 16  1  0
 14 17  1  1
 15 18  1  0
 16 18  1  0
 16 19  1  1
 18 20  1  0
M  END
