JOH-UNI-9dc98897-8-bromoalkyne
     RDKit          3D

 18 19  0  0  0  0  0  0  0  0999 V2000
    7.8200   -2.8800   19.6250 C   0  0  0  0  0  0  0  0  0  0  0  0
    6.3720   -2.7780   19.0970 C   0  0  0  0  0  0  0  0  0  0  0  0
    8.0940   -2.6250   21.1340 C   0  0  0  0  0  0  0  0  0  0  0  0
    7.8670   -1.3070   22.0280 C   0  0  0  0  0  0  0  0  0  0  0  0
    8.5670   -3.7370   21.6460 N   0  0  0  0  0  0  0  0  0  0  0  0
    8.2440   -1.6270   23.5360 C   0  0  0  0  0  0  0  0  0  0  0  0
    8.8810   -3.8920   23.0230 C   0  0  0  0  0  0  0  0  0  0  0  0
    8.0230   -0.4350   24.4760 C   0  0  0  0  0  0  0  0  0  0  0  0
    8.7480   -2.9780   23.9940 C   0  0  0  0  0  0  0  0  0  0  0  0
    6.9990   -0.4660   25.3490 F   0  0  0  0  0  0  0  0  0  0  0  0
    7.8550    0.7220   23.7760 F   0  0  0  0  0  0  0  0  0  0  0  0
    9.0930   -3.5130   25.1690 N   0  0  0  0  0  0  0  0  0  0  0  0
    9.6420   -4.7660   25.2090 C   0  0  0  0  0  0  0  0  0  0  0  0
    7.9600   -3.4430   26.1060 C   0  0  0  0  0  0  0  0  0  0  0  0
    8.7750   -5.8820   24.6980 C   0  0  0  0  0  0  0  0  0  0  0  0
    7.3940   -4.7110   26.3650 C   0  0  0  0  0  0  0  0  0  0  0  0
    7.3330   -5.5350   24.3120 C   0  0  0  0  0  0  0  0  0  0  0  0
    6.7640   -5.4710   25.4010 O   0  0  0  0  0  0  0  0  0  0  0  0
  1  2  2  3
  1  3  1  0
  3  4  2  0
  3  5  1  0
  4  6  1  0
  5  7  2  0
  6  8  1  0
  6  9  2  0
  7  9  1  0
  8 10  1  0
  8 11  1  0
  9 12  1  0
 12 13  1  0
 12 14  1  0
 13 15  1  0
 14 16  1  0
 15 17  1  0
 16 18  1  0
 17 18  1  0
M  END
