JOH-UNI-9dc98897-5-chloroacetamide
     RDKit          3D

 19 20  0  0  0  0  0  0  0  0999 V2000
    8.2200   -3.4570   19.7540 C   0  0  0  0  0  0  0  0  0  0  0  0
    6.9190   -3.8630   20.4660 C   0  0  0  0  0  0  0  0  0  0  0  0
    5.9700   -4.4390   19.9110 O   0  0  0  0  0  0  0  0  0  0  0  0
    6.7050   -3.5330   21.9090 C   0  0  0  0  0  0  0  0  0  0  0  0
    5.9600   -2.5350   23.0020 C   0  0  0  0  0  0  0  0  0  0  0  0
    6.7670   -2.5740   21.1230 N   0  0  0  0  0  0  0  0  0  0  0  0
    6.2500   -3.2020   24.2800 C   0  0  0  0  0  0  0  0  0  0  0  0
    7.6650   -2.4630   22.3210 C   0  0  0  0  0  0  0  0  0  0  0  0
    7.6200   -3.0230   23.6900 C   0  0  0  0  0  0  0  0  0  0  0  0
    8.8910   -1.6900   21.9470 C   0  0  0  0  0  0  0  0  0  0  0  0
    8.7140   -3.1470   24.4410 N   0  0  0  0  0  0  0  0  0  0  0  0
    9.7000   -1.4140   23.0190 F   0  0  0  0  0  0  0  0  0  0  0  0
    8.6230   -0.4610   21.4080 F   0  0  0  0  0  0  0  0  0  0  0  0
    9.6660   -3.9550   23.6480 C   0  0  0  0  0  0  0  0  0  0  0  0
    8.4580   -3.5680   25.8370 C   0  0  0  0  0  0  0  0  0  0  0  0
    8.9530   -5.2860   23.3590 C   0  0  0  0  0  0  0  0  0  0  0  0
    7.6360   -4.8700   25.9550 C   0  0  0  0  0  0  0  0  0  0  0  0
    7.5880   -5.5930   23.9860 C   0  0  0  0  0  0  0  0  0  0  0  0
    7.8280   -5.8040   25.1730 O   0  0  0  0  0  0  0  0  0  0  0  0
  1  2  1  0
  2  3  2  0
  2  4  1  0
  4  5  2  0
  4  6  1  0
  5  7  1  0
  6  8  2  0
  7  9  2  0
  8  9  1  0
  8 10  1  0
  9 11  1  0
 10 12  1  0
 10 13  1  0
 11 14  1  0
 11 15  1  0
 14 16  1  0
 15 17  1  0
 16 18  1  0
 17 19  1  0
 18 19  1  0
M  END
