JOH-UNI-522b0723-6-bromoalkyne
     RDKit          3D

 17 18  0  0  0  0  0  0  0  0999 V2000
    7.8970   -2.9150   19.8000 C   0  0  0  0  0  0  0  0  0  0  0  0
    6.7210   -2.4320   18.9260 C   0  0  0  0  0  0  0  0  0  0  0  0
    8.0480   -2.0370   21.2010 C   0  0  0  0  0  0  0  0  0  0  0  0
    8.2290   -1.3420   22.5330 C   0  0  0  0  0  0  0  0  0  0  0  0
    8.5340   -3.1870   21.7130 N   0  0  0  0  0  0  0  0  0  0  0  0
    8.6770   -1.6810   23.8730 C   0  0  0  0  0  0  0  0  0  0  0  0
    9.0030   -3.6890   22.9210 C   0  0  0  0  0  0  0  0  0  0  0  0
    9.0900   -2.9390   24.1560 C   0  0  0  0  0  0  0  0  0  0  0  0
    9.5030   -3.4460   25.3470 N   0  0  0  0  0  0  0  0  0  0  0  0
   10.3010   -4.5800   24.9190 C   0  0  0  0  0  0  0  0  0  0  0  0
    8.4820   -4.1030   26.2310 C   0  0  1  0  0  0  0  0  0  0  0  0
    9.1400   -5.5310   24.7390 C   0  0  0  0  0  0  0  0  0  0  0  0
    7.5840   -4.8800   25.3950 C   0  0  1  0  0  0  0  0  0  0  0  0
    9.1220   -4.9650   27.3780 C   0  0  0  0  0  0  0  0  0  0  0  0
    8.0240   -5.7500   24.6640 N   0  0  0  0  0  0  0  0  0  0  0  0
    6.3540   -5.4620   26.1080 C   0  0  0  0  0  0  0  0  0  0  0  0
    7.4700   -5.7900   23.2840 C   0  0  0  0  0  0  0  0  0  0  0  0
  1  2  2  3
  1  3  1  0
  3  4  2  0
  3  5  1  0
  4  6  1  0
  5  7  2  0
  6  8  2  0
  7  8  1  0
  8  9  1  0
  9 10  1  0
  9 11  1  0
 10 12  1  0
 11 13  1  0
 11 14  1  1
 12 15  1  0
 13 15  1  0
 13 16  1  1
 15 17  1  0
M  END
