JOH-UNI-e19b918c-5-bromoalkyne
     RDKit          3D

 14 16  0  0  0  0  0  0  0  0999 V2000
    7.0970   -3.7530   19.9910 C   0  0  0  0  0  0  0  0  0  0  0  0
    5.7390   -3.4400   19.3620 C   0  0  0  0  0  0  0  0  0  0  0  0
    7.2650   -4.1740   21.3120 N   0  0  0  0  0  0  0  0  0  0  0  0
    7.0970   -3.1190   22.3640 C   0  0  0  0  0  0  0  0  0  0  0  0
    6.6370   -5.4550   21.7810 C   0  0  0  0  0  0  0  0  0  0  0  0
    5.8590   -3.6220   23.0640 C   0  0  0  0  0  0  0  0  0  0  0  0
    5.5880   -4.9350   22.7450 C   0  0  0  0  0  0  0  0  0  0  0  0
    4.9460   -2.8680   24.0000 C   0  0  0  0  0  0  0  0  0  0  0  0
    4.3620   -5.6800   23.3220 C   0  0  0  0  0  0  0  0  0  0  0  0
    3.7990   -3.5250   24.5450 C   0  0  0  0  0  0  0  0  0  0  0  0
    3.4360   -4.8820   24.2760 C   0  0  0  0  0  0  0  0  0  0  0  0
    2.4220   -5.2500   24.8400 O   0  0  0  0  0  0  0  0  0  0  0  0
    3.0480   -2.9280   25.2970 O   0  0  0  0  0  0  0  0  0  0  0  0
    2.0510   -3.9810   25.4560 C   0  0  0  0  0  0  0  0  0  0  0  0
  1  2  2  3
  1  3  1  0
  3  4  1  0
  3  5  1  0
  4  6  1  0
  5  7  1  0
  6  7  2  0
  6  8  1  0
  7  9  1  0
  8 10  2  0
  9 11  2  0
 10 11  1  0
 11 12  1  0
 10 13  1  0
 12 14  1  0
 13 14  1  0
M  END
