JOH-UNI-27ac80fd-5
     RDKit          3D

 18 19  0  0  0  0  0  0  0  0999 V2000
    6.2990   -1.9540   18.7900 C   0  0  0  0  0  0  0  0  0  0  0  0
    6.0890   -2.7760   19.8450 C   0  0  0  0  0  0  0  0  0  0  0  0
    5.4970   -3.8530   19.6450 O   0  0  0  0  0  0  0  0  0  0  0  0
    6.5770   -2.3590   21.0540 N   0  0  0  0  0  0  0  0  0  0  0  0
    6.1340   -3.1000   22.2250 C   0  0  0  0  0  0  0  0  0  0  0  0
    7.6410   -1.4790   21.2790 C   0  0  0  0  0  0  0  0  0  0  0  0
    7.2920   -3.6690   23.0370 C   0  0  0  0  0  0  0  0  0  0  0  0
    8.7580   -1.9630   22.0330 C   0  0  2  0  0  0  0  0  0  0  0  0
    8.3160   -2.6760   23.3040 N   0  0  0  0  0  0  0  0  0  0  0  0
    9.7530   -1.0230   22.3210 C   0  0  0  0  0  0  0  0  0  0  0  0
    9.3990   -2.9750   24.1310 C   0  0  0  0  0  0  0  0  0  0  0  0
    9.1430   -4.1250   25.0330 N   0  0  0  0  0  0  0  0  0  0  0  0
    9.5820   -5.3790   24.7070 C   0  0  0  0  0  0  0  0  0  0  0  0
    8.3510   -3.9010   26.1790 C   0  0  0  0  0  0  0  0  0  0  0  0
    8.5780   -6.2410   23.9230 C   0  0  0  0  0  0  0  0  0  0  0  0
    7.1560   -4.6550   26.1050 C   0  0  0  0  0  0  0  0  0  0  0  0
    7.3180   -6.0760   24.4980 C   0  0  0  0  0  0  0  0  0  0  0  0
    7.2210   -5.8250   25.7020 O   0  0  0  0  0  0  0  0  0  0  0  0
  1  2  1  0
  2  3  2  0
  2  4  1  0
  4  5  1  0
  4  6  1  0
  5  7  1  0
  6  8  1  0
  7  9  1  0
  8  9  1  0
  8 10  1  1
  9 11  1  0
 11 12  1  0
 12 13  1  0
 12 14  1  0
 13 15  1  0
 14 16  1  0
 15 17  1  0
 16 18  1  0
 17 18  1  0
M  END
