JOH-UNI-abdb2f0c-4-bromoalkyne
     RDKit          3D

 20 22  0  0  0  0  0  0  0  0999 V2000
    7.4840   -3.4130   19.7300 C   0  0  0  0  0  0  0  0  0  0  0  0
    6.2260   -3.1860   19.2620 C   0  0  0  0  0  0  0  0  0  0  0  0
    7.6620   -3.2560   21.2180 C   0  0  0  0  0  0  0  0  0  0  0  0
    7.8270   -4.4190   21.9230 N   0  0  0  0  0  0  0  0  0  0  0  0
    7.6580   -2.0240   21.7890 C   0  0  0  0  0  0  0  0  0  0  0  0
    8.0550   -4.7550   23.3510 C   0  0  0  0  0  0  0  0  0  0  0  0
    7.8550   -2.0560   23.1370 C   0  0  0  0  0  0  0  0  0  0  0  0
    7.4590   -0.6660   21.0830 C   0  0  0  0  0  0  0  0  0  0  0  0
    8.0310   -3.2630   23.8130 C   0  0  0  0  0  0  0  0  0  0  0  0
    6.9740   -0.6900   19.8030 N   0  0  0  0  0  0  0  0  0  0  0  0
    7.6800    0.4920   21.5410 O   0  0  0  0  0  0  0  0  0  0  0  0
    8.2430   -3.2070   25.2650 N   0  0  0  0  0  0  0  0  0  0  0  0
    6.8380    0.6390   19.3130 C   0  0  0  0  0  0  0  0  0  0  0  0
    7.3330    1.4040   20.5450 C   0  0  0  0  0  0  0  0  0  0  0  0
    9.5640   -3.7110   25.6850 C   0  0  0  0  0  0  0  0  0  0  0  0
    7.1120   -3.0730   26.1960 C   0  0  0  0  0  0  0  0  0  0  0  0
    9.5110   -4.6760   26.6960 C   0  0  0  0  0  0  0  0  0  0  0  0
    7.1110   -4.1000   27.1330 C   0  0  0  0  0  0  0  0  0  0  0  0
    8.7110   -5.7830   26.4090 C   0  0  0  0  0  0  0  0  0  0  0  0
    7.3480   -5.3760   26.5470 O   0  0  0  0  0  0  0  0  0  0  0  0
  1  2  2  3
  1  3  1  0
  3  4  2  0
  3  5  1  0
  4  6  1  0
  5  7  2  0
  5  8  1  0
  6  9  2  0
  7  9  1  0
  8 10  2  0
  8 11  1  0
  9 12  1  0
 10 13  1  0
 11 14  1  0
 13 14  2  0
 12 15  1  0
 12 16  1  0
 15 17  1  0
 16 18  1  0
 17 19  1  0
 18 20  1  0
 19 20  1  0
M  END
