JOH-UNI-abdb2f0c-2-acrylamide
     RDKit          3D

 26 28  0  0  0  0  0  0  0  0999 V2000
    7.9790   -3.6710   20.2260 C   0  0  0  0  0  0  0  0  0  0  0  0
    6.8310   -2.9950   20.1270 C   0  0  0  0  0  0  0  0  0  0  0  0
    6.2730   -3.0860   21.4860 C   0  0  0  0  0  0  0  0  0  0  0  0
    4.9790   -3.5300   21.6710 O   0  0  0  0  0  0  0  0  0  0  0  0
    7.5680   -2.6250   22.2400 C   0  0  0  0  0  0  0  0  0  0  0  0
    8.2830   -3.6100   22.9750 N   0  0  0  0  0  0  0  0  0  0  0  0
    8.0740   -1.3390   22.1500 C   0  0  0  0  0  0  0  0  0  0  0  0
    9.5860   -3.2110   23.6010 C   0  0  0  0  0  0  0  0  0  0  0  0
    9.3990   -0.9950   22.8000 C   0  0  0  0  0  0  0  0  0  0  0  0
    7.5120   -0.1420   21.4450 C   0  0  0  0  0  0  0  0  0  0  0  0
   10.1950   -1.8410   23.5060 C   0  0  0  0  0  0  0  0  0  0  0  0
    8.2340    0.8390   21.2480 O   0  0  0  0  0  0  0  0  0  0  0  0
    6.2260   -0.2730   21.0720 N   0  0  0  0  0  0  0  0  0  0  0  0
   11.3790   -1.4010   24.0180 N   0  0  0  0  0  0  0  0  0  0  0  0
    5.8980    0.3470   19.8340 C   0  0  0  0  0  0  0  0  0  0  0  0
   12.2550   -1.1340   22.8630 C   0  0  0  0  0  0  0  0  0  0  0  0
   11.2490   -0.2770   24.9340 C   0  0  0  0  0  0  0  0  0  0  0  0
    4.6550    1.1820   19.9110 C   0  0  0  0  0  0  0  0  0  0  0  0
    6.6040    0.2530   18.6500 C   0  0  0  0  0  0  0  0  0  0  0  0
   13.0290    0.0060   23.0620 C   0  0  0  0  0  0  0  0  0  0  0  0
   10.4340    0.6770   24.3260 C   0  0  0  0  0  0  0  0  0  0  0  0
    4.2990    1.8310   18.7540 C   0  0  0  0  0  0  0  0  0  0  0  0
    6.2230    0.8990   17.5440 N   0  0  0  0  0  0  0  0  0  0  0  0
   12.2990    1.1830   23.0580 C   0  0  0  0  0  0  0  0  0  0  0  0
   10.9140    0.9090   23.0100 O   0  0  0  0  0  0  0  0  0  0  0  0
    5.1020    1.6630   17.6260 C   0  0  0  0  0  0  0  0  0  0  0  0
  1  2  1  0
  2  3  1  0
  3  4  2  0
  3  5  1  0
  5  6  2  0
  5  7  1  0
  6  8  1  0
  7  9  2  0
  7 10  1  0
  8 11  2  0
  9 11  1  0
 10 12  2  0
 10 13  1  0
 11 14  1  0
 13 15  1  0
 14 16  1  0
 14 17  1  0
 15 18  2  0
 15 19  1  0
 16 20  1  0
 17 21  1  0
 18 22  1  0
 19 23  2  0
 20 24  1  0
 21 25  1  0
 24 25  1  0
 22 26  2  0
 23 26  1  0
M  END
