JOH-MEM-4bb7e4cc-1-nitrile
     RDKit          3D

 17 18  0  0  0  0  0  0  0  0999 V2000
    7.7970   -2.7260   19.6530 C   0  0  0  0  0  0  0  0  0  0  0  0
    6.9750   -2.4830   18.6240 N   0  0  0  0  0  0  0  0  0  0  0  0
    8.4570   -1.3990   20.5240 C   0  0  0  0  0  0  0  0  0  0  0  0
    9.5310   -0.9770   21.5190 C   0  0  0  0  0  0  0  0  0  0  0  0
    9.7190   -1.3050   21.6080 C   0  0  0  0  0  0  0  0  0  0  0  0
   10.6380   -1.7260   22.3250 C   0  0  0  0  0  0  0  0  0  0  0  0
   10.5830   -0.3190   22.4880 C   0  0  0  0  0  0  0  0  0  0  0  0
   11.5220   -1.0220   23.2010 C   0  0  0  0  0  0  0  0  0  0  0  0
   10.7970    1.2240   22.8720 C   0  0  0  0  0  0  0  0  0  0  0  0
   12.0870    0.1850   23.8750 N   0  0  0  0  0  0  0  0  0  0  0  0
   11.8390    1.5310   23.8400 C   0  0  0  0  0  0  0  0  0  0  0  0
   10.1750    2.6210   22.4750 C   0  0  0  0  0  0  0  0  0  0  0  0
   11.2340    3.7110   22.8170 C   0  0  0  0  0  0  0  0  0  0  0  0
   10.8240    5.0270   22.5530 N   0  0  0  0  0  0  0  0  0  0  0  0
   10.1220    5.9040   23.3500 C   0  0  0  0  0  0  0  0  0  0  0  0
    9.1730    6.6390   22.6280 C   0  0  0  0  0  0  0  0  0  0  0  0
   10.2720    6.0570   24.5630 O   0  0  0  0  0  0  0  0  0  0  0  0
  1  2  2  3
  1  3  1  0
  3  4  2  0
  3  5  1  0
  4  6  1  0
  5  7  2  0
  6  8  2  0
  7  8  1  0
  7  9  1  0
  8 10  1  0
  9 11  2  0
 10 11  1  0
  9 12  1  0
 12 13  1  0
 13 14  1  0
 14 15  1  0
 15 16  1  0
 15 17  2  0
M  END
