JOH-UNI-e19b918c-10-bromoalkyne
     RDKit          3D

 14 16  0  0  0  0  0  0  0  0999 V2000
    7.0750   -3.8060   19.9620 C   0  0  0  0  0  0  0  0  0  0  0  0
    5.7800   -3.3790   19.3170 C   0  0  0  0  0  0  0  0  0  0  0  0
    7.2400   -4.1670   21.2960 N   0  0  0  0  0  0  0  0  0  0  0  0
    7.0550   -3.0900   22.3230 C   0  0  0  0  0  0  0  0  0  0  0  0
    6.6470   -5.4500   21.7870 C   0  0  0  0  0  0  0  0  0  0  0  0
    5.8340   -3.6080   23.0380 C   0  0  0  0  0  0  0  0  0  0  0  0
    5.5900   -4.9340   22.7480 C   0  0  0  0  0  0  0  0  0  0  0  0
    4.9120   -2.8570   23.9660 C   0  0  0  0  0  0  0  0  0  0  0  0
    4.3830   -5.6920   23.3480 C   0  0  0  0  0  0  0  0  0  0  0  0
    3.7850   -3.5270   24.5330 C   0  0  0  0  0  0  0  0  0  0  0  0
    3.4480   -4.8940   24.2920 C   0  0  0  0  0  0  0  0  0  0  0  0
    2.4450   -5.2700   24.8690 O   0  0  0  0  0  0  0  0  0  0  0  0
    3.0290   -2.9280   25.2790 O   0  0  0  0  0  0  0  0  0  0  0  0
    2.0480   -3.9930   25.4560 C   0  0  0  0  0  0  0  0  0  0  0  0
  1  2  2  3
  1  3  1  0
  3  4  1  0
  3  5  1  0
  4  6  1  0
  5  7  1  0
  6  7  2  0
  6  8  1  0
  7  9  1  0
  8 10  2  0
  9 11  2  0
 10 11  1  0
 11 12  1  0
 10 13  1  0
 12 14  1  0
 13 14  1  0
M  END
