JOH-UNI-522b0723-11-nitrile
     RDKit          3D

 24 26  0  0  0  0  0  0  0  0999 V2000
    7.5950   -3.0080   19.8070 C   0  0  0  0  0  0  0  0  0  0  0  0
    6.8500   -2.5280   18.8520 N   0  0  0  0  0  0  0  0  0  0  0  0
    8.0540   -1.8980   20.9190 C   0  0  0  0  0  0  0  0  0  0  0  0
    8.3860   -2.6530   22.0300 N   0  0  0  0  0  0  0  0  0  0  0  0
    8.5270   -1.1780   22.1750 C   0  0  0  0  0  0  0  0  0  0  0  0
    8.5580   -3.7500   22.7220 C   0  0  0  0  0  0  0  0  0  0  0  0
    8.9210   -1.8020   23.5350 C   0  0  0  0  0  0  0  0  0  0  0  0
    8.6030    0.3800   22.0750 C   0  0  0  0  0  0  0  0  0  0  0  0
    8.9310   -3.2330   23.8670 C   0  0  0  0  0  0  0  0  0  0  0  0
    9.6480    0.9890   21.8140 O   0  0  0  0  0  0  0  0  0  0  0  0
    7.3820    1.0210   22.3020 N   0  0  0  0  0  0  0  0  0  0  0  0
    9.2300   -3.8860   25.0180 N   0  0  0  0  0  0  0  0  0  0  0  0
    7.0760    2.3960   22.1040 C   0  0  0  0  0  0  0  0  0  0  0  0
    8.3450   -3.6180   26.1630 C   0  0  0  0  0  0  0  0  0  0  0  0
    9.5900   -5.3010   25.0330 C   0  0  0  0  0  0  0  0  0  0  0  0
    5.6880    2.9360   21.6670 C   0  0  0  0  0  0  0  0  0  0  0  0
    8.0800    3.3730   22.3150 C   0  0  0  0  0  0  0  0  0  0  0  0
    7.2520   -4.4940   26.0180 C   0  0  0  0  0  0  0  0  0  0  0  0
    8.4480   -6.0740   24.7610 C   0  0  1  0  0  0  0  0  0  0  0  0
    5.4820    4.4530   21.4930 C   0  0  0  0  0  0  0  0  0  0  0  0
    7.7970    4.7390   22.1310 C   0  0  0  0  0  0  0  0  0  0  0  0
    7.5140   -5.8160   25.7380 O   0  0  0  0  0  0  0  0  0  0  0  0
    7.7630   -6.0710   23.3760 C   0  0  0  0  0  0  0  0  0  0  0  0
    6.5810    5.2970   21.7440 C   0  0  0  0  0  0  0  0  0  0  0  0
  1  2  2  3
  1  3  1  0
  3  4  2  0
  3  5  1  0
  4  6  1  0
  5  7  2  0
  5  8  1  0
  6  9  2  0
  7  9  1  0
  8 10  2  0
  8 11  1  0
  9 12  1  0
 11 13  1  0
 12 14  1  0
 12 15  1  0
 13 16  2  0
 13 17  1  0
 14 18  1  0
 15 19  1  0
 16 20  1  0
 17 21  2  0
 18 22  1  0
 19 22  1  0
 19 23  1  6
 20 24  2  0
 21 24  1  0
M  END
