JOH-UNI-522b0723-2-chloroacetamide
     RDKit          3D

 17 18  0  0  0  0  0  0  0  0999 V2000
    7.6970   -2.8760   18.9430 C   0  0  0  0  0  0  0  0  0  0  0  0
    6.8550   -3.2610   20.0840 C   0  0  0  0  0  0  0  0  0  0  0  0
    5.7650   -3.8420   19.7750 O   0  0  0  0  0  0  0  0  0  0  0  0
    7.4040   -3.1250   21.5530 C   0  0  0  0  0  0  0  0  0  0  0  0
    6.4660   -3.0020   22.6200 C   0  0  0  0  0  0  0  0  0  0  0  0
    8.7790   -3.1740   21.7630 N   0  0  0  0  0  0  0  0  0  0  0  0
    7.0140   -2.9920   24.0320 C   0  0  0  0  0  0  0  0  0  0  0  0
    9.2670   -3.1680   23.0620 C   0  0  0  0  0  0  0  0  0  0  0  0
    8.4780   -3.1100   24.1990 C   0  0  0  0  0  0  0  0  0  0  0  0
    8.7980   -3.1630   25.5380 N   0  0  0  0  0  0  0  0  0  0  0  0
    7.6360   -3.4480   26.3630 C   0  0  0  0  0  0  0  0  0  0  0  0
    9.7840   -4.1990   25.8060 C   0  0  1  0  0  0  0  0  0  0  0  0
    7.2770   -4.7710   26.0980 C   0  0  0  0  0  0  0  0  0  0  0  0
    9.1470   -5.3990   25.3220 C   0  0  1  0  0  0  0  0  0  0  0  0
   10.9810   -3.7200   25.0440 C   0  0  0  0  0  0  0  0  0  0  0  0
    8.1670   -5.6290   26.0630 O   0  0  0  0  0  0  0  0  0  0  0  0
    8.7160   -5.4450   23.9830 C   0  0  0  0  0  0  0  0  0  0  0  0
  1  2  1  0
  2  3  2  0
  2  4  1  0
  4  5  2  0
  4  6  1  0
  5  7  1  0
  6  8  2  0
  7  9  2  0
  8  9  1  0
  9 10  1  0
 10 11  1  0
 10 12  1  0
 11 13  1  0
 12 14  1  0
 12 15  1  6
 13 16  1  0
 14 16  1  0
 14 17  1  6
M  END
