JOH-UNI-abdb2f0c-2-vinylsulfonamide
     RDKit          3D

 27 29  0  0  0  0  0  0  0  0999 V2000
    7.9140   -4.6650   20.8330 C   0  0  0  0  0  0  0  0  0  0  0  0
    6.8010   -4.4560   21.5370 C   0  0  0  0  0  0  0  0  0  0  0  0
    6.2000   -2.8380   21.1660 S   0  0  0  0  0  0  0  0  0  0  0  0
    4.7710   -2.9830   21.1690 O   0  0  0  0  0  0  0  0  0  0  0  0
    6.9050   -2.4090   19.9760 O   0  0  0  0  0  0  0  0  0  0  0  0
    6.7050   -1.7580   22.5150 C   0  0  0  0  0  0  0  0  0  0  0  0
    6.6750   -2.4800   23.7660 N   0  0  0  0  0  0  0  0  0  0  0  0
    7.0900   -0.3500   22.3180 C   0  0  0  0  0  0  0  0  0  0  0  0
    7.0780   -1.7910   25.0260 C   0  0  0  0  0  0  0  0  0  0  0  0
    7.4790    0.3110   23.4930 C   0  0  0  0  0  0  0  0  0  0  0  0
    7.1610    0.5560   21.0260 C   0  0  0  0  0  0  0  0  0  0  0  0
    7.4200   -0.4670   24.5980 C   0  0  0  0  0  0  0  0  0  0  0  0
    8.2110    1.2240   20.8430 O   0  0  0  0  0  0  0  0  0  0  0  0
    6.0310    0.6160   20.1560 N   0  0  0  0  0  0  0  0  0  0  0  0
    6.8830   -1.5280   23.7130 N   0  0  0  0  0  0  0  0  0  0  0  0
    4.9900   -0.4200   20.1840 C   0  0  0  0  0  0  0  0  0  0  0  0
    7.5540   -2.8480   24.0000 C   0  0  0  0  0  0  0  0  0  0  0  0
    5.3780   -1.5670   23.7150 C   0  0  0  0  0  0  0  0  0  0  0  0
    5.4740    0.3760   21.3270 C   0  0  0  0  0  0  0  0  0  0  0  0
    5.3150   -0.3970   18.8750 C   0  0  0  0  0  0  0  0  0  0  0  0
    6.6350   -3.9250   24.2580 C   0  0  0  0  0  0  0  0  0  0  0  0
    4.8520   -1.6850   25.0180 C   0  0  0  0  0  0  0  0  0  0  0  0
    6.0470    0.6250   19.8350 C   0  0  0  0  0  0  0  0  0  0  0  0
    6.0660    0.1780   17.9730 N   0  0  0  0  0  0  0  0  0  0  0  0
    5.9190   -3.8170   25.4710 C   0  0  0  0  0  0  0  0  0  0  0  0
    4.7050   -3.0820   25.3190 O   0  0  0  0  0  0  0  0  0  0  0  0
    6.7760    1.1250   18.6700 C   0  0  0  0  0  0  0  0  0  0  0  0
  1  2  1  0
  3  2  1  0
  3  4  2  0
  3  5  2  0
  3  6  1  0
  6  7  2  0
  6  8  1  0
  7  9  1  0
  8 10  2  0
  8 11  1  0
  9 12  2  0
 10 12  1  0
 11 13  2  0
 11 14  1  0
 12 15  1  0
 14 16  1  0
 15 17  1  0
 15 18  1  0
 16 19  2  0
 16 20  1  0
 17 21  1  0
 18 22  1  0
 19 23  1  0
 20 24  2  0
 21 25  1  0
 22 26  1  0
 25 26  1  0
 23 27  2  0
 24 27  1  0
M  END
