JOH-UNI-522b0723-4-acrylamide
     RDKit          3D

 18 19  0  0  0  0  0  0  0  0999 V2000
    8.0430   -4.0510   20.6790 C   0  0  0  0  0  0  0  0  0  0  0  0
    6.6900   -3.3590   20.6010 C   0  0  0  0  0  0  0  0  0  0  0  0
    5.9350   -3.3460   21.9400 C   0  0  0  0  0  0  0  0  0  0  0  0
    4.8210   -3.9000   22.0190 O   0  0  0  0  0  0  0  0  0  0  0  0
    6.4620   -2.6160   23.1690 C   0  0  0  0  0  0  0  0  0  0  0  0
    6.5670   -1.2970   23.6650 C   0  0  0  0  0  0  0  0  0  0  0  0
    7.0400   -2.8170   24.3190 N   0  0  0  0  0  0  0  0  0  0  0  0
    7.1090   -2.3420   24.5540 C   0  0  0  0  0  0  0  0  0  0  0  0
    6.7300   -1.4770   23.9610 C   0  0  0  0  0  0  0  0  0  0  0  0
    6.5150   -2.6920   23.2560 C   0  0  0  0  0  0  0  0  0  0  0  0
    6.7250   -4.0740   23.3930 N   0  0  0  0  0  0  0  0  0  0  0  0
    8.1290   -4.5120   23.4880 C   0  0  0  0  0  0  0  0  0  0  0  0
    5.8430   -4.9210   24.3090 C   0  0  1  0  0  0  0  0  0  0  0  0
    7.8940   -5.9480   23.8860 C   0  0  0  0  0  0  0  0  0  0  0  0
    5.9280   -6.3000   23.9380 C   0  0  0  0  0  0  0  0  0  0  0  0
    6.0590   -4.6320   25.8270 C   0  0  0  0  0  0  0  0  0  0  0  0
    7.2200   -6.8440   24.0470 N   0  0  0  0  0  0  0  0  0  0  0  0
    7.3710   -7.9620   23.1340 C   0  0  0  0  0  0  0  0  0  0  0  0
  1  2  1  0
  2  3  1  0
  3  4  2  0
  3  5  1  0
  5  6  2  0
  5  7  1  0
  6  8  1  0
  7  9  2  0
  8 10  2  0
  9 10  1  0
 10 11  1  0
 11 12  1  0
 11 13  1  0
 12 14  1  0
 13 15  1  0
 13 16  1  1
 14 17  1  0
 15 17  1  0
 17 18  1  0
M  END
