JOH-UNI-522b0723-9-chloroacetamide
     RDKit          3D

 26 28  0  0  0  0  0  0  0  0999 V2000
    7.8230   -2.6460   19.4720 C   0  0  0  0  0  0  0  0  0  0  0  0
    6.6500   -2.6900   20.3790 C   0  0  0  0  0  0  0  0  0  0  0  0
    6.1460   -2.9980   19.2230 O   0  0  0  0  0  0  0  0  0  0  0  0
    7.5730   -2.3130   21.6100 C   0  0  0  0  0  0  0  0  0  0  0  0
    7.6940   -3.4980   22.1720 N   0  0  0  0  0  0  0  0  0  0  0  0
    8.2510   -1.2240   22.2910 C   0  0  0  0  0  0  0  0  0  0  0  0
    8.3580   -3.8150   23.2880 C   0  0  0  0  0  0  0  0  0  0  0  0
    8.9590   -1.5880   23.5180 C   0  0  0  0  0  0  0  0  0  0  0  0
    8.2120    0.2380   21.7620 C   0  0  0  0  0  0  0  0  0  0  0  0
    8.9910   -2.9160   24.0060 C   0  0  0  0  0  0  0  0  0  0  0  0
    7.1540    0.6170   21.2550 O   0  0  0  0  0  0  0  0  0  0  0  0
    9.3080    1.0280   21.8700 N   0  0  0  0  0  0  0  0  0  0  0  0
    9.4810   -3.5780   25.0200 N   0  0  0  0  0  0  0  0  0  0  0  0
    9.3160    1.9760   22.8300 C   0  0  0  0  0  0  0  0  0  0  0  0
    9.9920   -4.7170   24.5350 C   0  0  0  0  0  0  0  0  0  0  0  0
    8.2840   -3.8070   25.8830 C   0  0  0  0  0  0  0  0  0  0  0  0
   10.2710    3.0280   22.8840 C   0  0  0  0  0  0  0  0  0  0  0  0
    8.3260    1.9160   23.8330 C   0  0  0  0  0  0  0  0  0  0  0  0
    8.7940   -5.5670   24.2760 C   0  0  0  0  0  0  0  0  0  0  0  0
    7.2620   -4.9260   25.3610 C   0  0  1  0  0  0  0  0  0  0  0  0
   10.2440    4.0610   23.9760 C   0  0  0  0  0  0  0  0  0  0  0  0
    8.2370    2.8460   24.8840 C   0  0  0  0  0  0  0  0  0  0  0  0
    7.6690   -5.7580   24.3040 N   0  0  0  0  0  0  0  0  0  0  0  0
    6.7670   -5.7270   26.5770 C   0  0  0  0  0  0  0  0  0  0  0  0
    9.1410    3.8980   24.9940 C   0  0  0  0  0  0  0  0  0  0  0  0
    6.8160   -6.0200   23.2770 C   0  0  0  0  0  0  0  0  0  0  0  0
  1  2  1  0
  2  3  2  0
  2  4  1  0
  4  5  2  0
  4  6  1  0
  5  7  1  0
  6  8  2  0
  6  9  1  0
  7 10  2  0
  8 10  1  0
  9 11  2  0
  9 12  1  0
 10 13  1  0
 12 14  1  0
 13 15  1  0
 13 16  1  0
 14 17  2  0
 14 18  1  0
 15 19  1  0
 16 20  1  0
 17 21  1  0
 18 22  2  0
 19 23  1  0
 20 23  1  0
 20 24  1  1
 21 25  2  0
 22 25  1  0
 23 26  1  0
M  END
