JOH-UNI-27ac80fd-9
     RDKit          3D

 19 20  0  0  0  0  0  0  0  0999 V2000
    7.5020   -0.5060   20.3800 C   0  0  0  0  0  0  0  0  0  0  0  0
    7.4310   -1.3030   21.4400 C   0  0  2  0  0  0  0  0  0  0  0  0
    8.7020   -1.8150   22.1220 C   0  0  0  0  0  0  0  0  0  0  0  0
    6.5100   -2.4480   21.2560 N   0  0  0  0  0  0  0  0  0  0  0  0
    8.5120   -2.6910   23.2000 N   0  0  0  0  0  0  0  0  0  0  0  0
    6.3390   -3.3180   22.2750 C   0  0  0  0  0  0  0  0  0  0  0  0
    6.1140   -2.7510   19.9830 C   0  0  0  0  0  0  0  0  0  0  0  0
    9.5640   -3.1020   24.1520 C   0  0  0  0  0  0  0  0  0  0  0  0
    7.5700   -3.7510   22.8130 C   0  0  0  0  0  0  0  0  0  0  0  0
    5.5400   -3.8280   19.7510 O   0  0  0  0  0  0  0  0  0  0  0  0
    6.3550   -1.8580   18.8850 C   0  0  0  0  0  0  0  0  0  0  0  0
    9.1310   -4.2580   24.9440 N   0  0  0  0  0  0  0  0  0  0  0  0
    5.5700   -0.7370   18.9270 F   0  0  0  0  0  0  0  0  0  0  0  0
    9.4910   -5.5580   24.7630 C   0  0  0  0  0  0  0  0  0  0  0  0
    8.3610   -4.0080   26.1110 C   0  0  0  0  0  0  0  0  0  0  0  0
    8.5320   -6.2940   23.9390 C   0  0  0  0  0  0  0  0  0  0  0  0
    7.0940   -4.6240   26.0860 C   0  0  0  0  0  0  0  0  0  0  0  0
    7.1200   -6.0470   24.5190 C   0  0  0  0  0  0  0  0  0  0  0  0
    7.0420   -5.8040   25.7230 O   0  0  0  0  0  0  0  0  0  0  0  0
  2  1  1  6
  2  3  1  0
  2  4  1  0
  3  5  1  0
  4  6  1  0
  4  7  1  0
  5  8  1  0
  5  9  1  0
  6  9  1  0
  7 10  2  0
  7 11  1  0
  8 12  1  0
 11 13  1  0
 12 14  1  0
 12 15  1  0
 14 16  1  0
 15 17  1  0
 16 18  1  0
 17 19  1  0
 18 19  1  0
M  END
