JOH-UNI-9dc98897-9-chloroacetamide
     RDKit          3D

 17 18  0  0  0  0  0  0  0  0999 V2000
    7.4820   -3.2820   19.4360 C   0  0  0  0  0  0  0  0  0  0  0  0
    6.2640   -3.4790   20.2350 C   0  0  0  0  0  0  0  0  0  0  0  0
    5.2380   -3.8190   19.6440 O   0  0  0  0  0  0  0  0  0  0  0  0
    6.4220   -3.3960   21.7130 C   0  0  0  0  0  0  0  0  0  0  0  0
    5.3080   -3.8450   22.7090 C   0  0  0  0  0  0  0  0  0  0  0  0
    7.6300   -2.9150   22.0660 N   0  0  0  0  0  0  0  0  0  0  0  0
    5.7170   -3.7110   24.2290 C   0  0  0  0  0  0  0  0  0  0  0  0
    7.9810   -2.8070   23.4450 C   0  0  0  0  0  0  0  0  0  0  0  0
    7.1380   -3.1660   24.4980 C   0  0  0  0  0  0  0  0  0  0  0  0
    9.5800   -2.1790   23.6450 Cl  0  0  0  0  0  0  0  0  0  0  0  0
    7.6350   -3.0070   25.7160 N   0  0  0  0  0  0  0  0  0  0  0  0
    8.6940   -4.0340   25.8340 C   0  0  0  0  0  0  0  0  0  0  0  0
    6.6220   -2.9250   26.7810 C   0  0  0  0  0  0  0  0  0  0  0  0
    7.9890   -5.3870   26.0890 C   0  0  0  0  0  0  0  0  0  0  0  0
    6.9760   -3.8780   27.9320 C   0  0  0  0  0  0  0  0  0  0  0  0
    6.5720   -5.5110   26.7060 C   0  0  0  0  0  0  0  0  0  0  0  0
    6.6300   -5.0540   27.8490 O   0  0  0  0  0  0  0  0  0  0  0  0
  1  2  1  0
  2  3  2  0
  2  4  1  0
  4  5  2  0
  4  6  1  0
  5  7  1  0
  6  8  2  0
  7  9  2  0
  8  9  1  0
  8 10  1  0
  9 11  1  0
 11 12  1  0
 11 13  1  0
 12 14  1  0
 13 15  1  0
 14 16  1  0
 15 17  1  0
 16 17  1  0
M  END
