JOH-MEM-5e386bbd-1
     RDKit          3D

 18 19  0  0  0  0  0  0  0  0999 V2000
   13.0970   -2.3520   21.2090 C   0  0  0  0  0  0  0  0  0  0  0  0
   13.6610   -1.2410   21.8560 O   0  0  0  0  0  0  0  0  0  0  0  0
   12.7160   -0.6490   22.5990 C   0  0  0  0  0  0  0  0  0  0  0  0
   11.8550   -1.4530   23.5590 C   0  0  0  0  0  0  0  0  0  0  0  0
   12.4090    0.6990   22.5690 C   0  0  0  0  0  0  0  0  0  0  0  0
   10.7560   -0.7670   24.3790 C   0  0  0  0  0  0  0  0  0  0  0  0
   11.2910    1.0820   23.4500 C   0  0  0  0  0  0  0  0  0  0  0  0
   10.4270    0.7150   24.3060 C   0  0  0  0  0  0  0  0  0  0  0  0
   11.2550    2.5310   23.0420 C   0  0  2  0  0  0  0  0  0  0  0  0
   12.4600    3.4240   22.7680 C   0  0  0  0  0  0  0  0  0  0  0  0
   10.2580    2.9710   24.0460 C   0  0  0  0  0  0  0  0  0  0  0  0
    9.6430    1.8600   24.7150 N   0  0  0  0  0  0  0  0  0  0  0  0
   12.3240    4.7930   23.1100 C   0  0  0  0  0  0  0  0  0  0  0  0
    9.9730    4.1360   24.2730 O   0  0  0  0  0  0  0  0  0  0  0  0
   11.2360    5.4740   22.6180 N   0  0  0  0  0  0  0  0  0  0  0  0
   10.3200    6.1750   23.3560 C   0  0  0  0  0  0  0  0  0  0  0  0
    9.2510    6.6060   22.5760 C   0  0  0  0  0  0  0  0  0  0  0  0
   10.4210    6.4360   24.6970 O   0  0  0  0  0  0  0  0  0  0  0  0
  1  2  1  0
  2  3  1  0
  3  4  2  0
  3  5  1  0
  4  6  1  0
  5  7  2  0
  6  8  2  0
  7  8  1  0
  7  9  1  0
  9 10  1  1
  9 11  1  0
  8 12  1  0
 11 12  1  0
 10 13  1  0
 11 14  2  0
 13 15  1  0
 15 16  1  0
 16 17  1  0
 16 18  2  0
M  END
