JOH-UNI-e19b918c-8
     RDKit          3D

 16 18  0  0  0  0  0  0  0  0999 V2000
    8.6240   -3.1480   22.9040 O   0  0  0  0  0  0  0  0  0  0  0  0
    8.0060   -3.2440   21.8570 C   0  0  0  0  0  0  0  0  0  0  0  0
    7.9990   -2.2150   20.8100 C   0  0  0  0  0  0  0  0  0  0  0  0
    7.1960   -4.2810   21.4250 N   0  0  0  0  0  0  0  0  0  0  0  0
    6.7820   -2.5480   19.9630 C   0  0  0  0  0  0  0  0  0  0  0  0
    6.1050   -3.7800   20.5570 C   0  0  0  0  0  0  0  0  0  0  0  0
    6.8660   -5.3810   22.3570 C   0  0  0  0  0  0  0  0  0  0  0  0
    5.8360   -4.7480   23.1280 C   0  0  0  0  0  0  0  0  0  0  0  0
    5.9290   -3.4090   23.7320 C   0  0  0  0  0  0  0  0  0  0  0  0
    4.6640   -5.4730   23.2910 C   0  0  0  0  0  0  0  0  0  0  0  0
    4.9240   -2.7190   24.5010 C   0  0  0  0  0  0  0  0  0  0  0  0
    3.5520   -4.8370   24.0830 C   0  0  0  0  0  0  0  0  0  0  0  0
    3.7870   -3.4730   24.6350 C   0  0  0  0  0  0  0  0  0  0  0  0
    2.3210   -5.2730   24.4090 O   0  0  0  0  0  0  0  0  0  0  0  0
    1.8740   -4.1670   25.2630 C   0  0  0  0  0  0  0  0  0  0  0  0
    2.7420   -2.9900   25.3200 O   0  0  0  0  0  0  0  0  0  0  0  0
  1  2  2  0
  2  3  1  0
  2  4  1  0
  3  5  2  0
  4  6  1  0
  5  6  1  0
  4  7  1  0
  7  8  1  0
  8  9  2  0
  8 10  1  0
  9 11  1  0
 10 12  2  0
 11 13  2  0
 12 13  1  0
 12 14  1  0
 14 15  1  0
 13 16  1  0
 15 16  1  0
M  END
