JOH-MEM-4bb7e4cc-1-acrylamide
     RDKit          3D

 19 20  0  0  0  0  0  0  0  0999 V2000
    5.9920   -5.6010   20.5640 C   0  0  0  0  0  0  0  0  0  0  0  0
    4.6470   -4.8320   20.3490 C   0  0  0  0  0  0  0  0  0  0  0  0
    3.5770   -5.2610   21.3300 C   0  0  0  0  0  0  0  0  0  0  0  0
    4.3420   -5.9560   21.6040 O   0  0  0  0  0  0  0  0  0  0  0  0
    2.3990   -4.1890   20.9070 C   0  0  0  0  0  0  0  0  0  0  0  0
    1.3680   -4.5150   21.6290 C   0  0  0  0  0  0  0  0  0  0  0  0
    2.3300   -3.1540   20.0290 C   0  0  0  0  0  0  0  0  0  0  0  0
    2.9990   -4.7000   21.1460 C   0  0  0  0  0  0  0  0  0  0  0  0
    3.3300   -2.9120   19.3830 C   0  0  0  0  0  0  0  0  0  0  0  0
    3.9090   -3.9200   20.0630 C   0  0  0  0  0  0  0  0  0  0  0  0
    4.0740   -2.3040   18.5060 C   0  0  0  0  0  0  0  0  0  0  0  0
    5.2720   -4.1770   19.7160 N   0  0  0  0  0  0  0  0  0  0  0  0
    5.2270   -3.0200   18.6840 C   0  0  0  0  0  0  0  0  0  0  0  0
    3.8290   -1.2760   17.5600 C   0  0  0  0  0  0  0  0  0  0  0  0
    4.0460    0.0410   18.0420 C   0  0  0  0  0  0  0  0  0  0  0  0
    4.3460    0.0760   19.3350 N   0  0  0  0  0  0  0  0  0  0  0  0
    5.5570    0.9460   19.6820 C   0  0  0  0  0  0  0  0  0  0  0  0
    5.2340    2.4860   19.9620 C   0  0  0  0  0  0  0  0  0  0  0  0
    6.8620    0.4510   19.7520 O   0  0  0  0  0  0  0  0  0  0  0  0
  1  2  1  0
  2  3  1  0
  3  4  2  0
  3  5  1  0
  5  6  2  0
  5  7  1  0
  6  8  1  0
  7  9  2  0
  8 10  2  0
  9 10  1  0
  9 11  1  0
 10 12  1  0
 11 13  2  0
 12 13  1  0
 11 14  1  0
 14 15  1  0
 15 16  1  0
 16 17  1  0
 17 18  1  0
 17 19  2  0
M  END
