JOH-UNI-522b0723-13-acrylamide
     RDKit          3D

 27 29  0  0  0  0  0  0  0  0999 V2000
    8.1360   -3.8960   20.8170 C   0  0  0  0  0  0  0  0  0  0  0  0
    6.6090   -3.6570   21.1140 C   0  0  0  0  0  0  0  0  0  0  0  0
    5.9410   -2.2680   21.0920 C   0  0  0  0  0  0  0  0  0  0  0  0
    5.0070   -3.1240   20.4800 O   0  0  0  0  0  0  0  0  0  0  0  0
    6.9990   -2.2210   22.2120 C   0  0  0  0  0  0  0  0  0  0  0  0
    7.7050   -3.3380   22.1710 N   0  0  0  0  0  0  0  0  0  0  0  0
    7.1740   -1.2240   23.2280 C   0  0  0  0  0  0  0  0  0  0  0  0
    8.5280   -3.5650   23.1800 C   0  0  0  0  0  0  0  0  0  0  0  0
    8.0680   -1.5660   24.2390 C   0  0  0  0  0  0  0  0  0  0  0  0
    6.3830    0.1210   23.2790 C   0  0  0  0  0  0  0  0  0  0  0  0
    8.7300   -2.7720   24.2520 C   0  0  0  0  0  0  0  0  0  0  0  0
    6.5570    1.0080   22.4400 O   0  0  0  0  0  0  0  0  0  0  0  0
    5.4870    0.2160   24.3370 N   0  0  0  0  0  0  0  0  0  0  0  0
    9.5160   -3.2960   25.2030 N   0  0  0  0  0  0  0  0  0  0  0  0
    5.8200    1.0010   25.4940 C   0  0  0  0  0  0  0  0  0  0  0  0
    8.9080   -3.5650   26.3770 C   0  0  0  0  0  0  0  0  0  0  0  0
    9.9440   -4.6220   24.8820 C   0  0  2  0  0  0  0  0  0  0  0  0
    7.1730    1.5970   25.7390 C   0  0  0  0  0  0  0  0  0  0  0  0
    4.7560    1.2710   26.5680 C   0  0  0  0  0  0  0  0  0  0  0  0
    8.0330   -4.8260   26.4550 C   0  0  0  0  0  0  0  0  0  0  0  0
    8.6790   -5.5460   24.6280 C   0  0  1  0  0  0  0  0  0  0  0  0
   10.6890   -5.0300   26.1370 C   0  0  0  0  0  0  0  0  0  0  0  0
    7.3790    2.4050   26.9950 C   0  0  0  0  0  0  0  0  0  0  0  0
    5.0880    2.0430   27.6910 C   0  0  0  0  0  0  0  0  0  0  0  0
    7.7520   -5.4190   25.4400 O   0  0  0  0  0  0  0  0  0  0  0  0
    8.2960   -5.8750   23.1720 C   0  0  0  0  0  0  0  0  0  0  0  0
    6.3550    2.6000   27.9110 C   0  0  0  0  0  0  0  0  0  0  0  0
  1  2  1  0
  2  3  1  0
  3  4  2  0
  3  5  1  0
  5  6  2  0
  5  7  1  0
  6  8  1  0
  7  9  2  0
  7 10  1  0
  8 11  2  0
  9 11  1  0
 10 12  2  0
 10 13  1  0
 11 14  1  0
 13 15  1  0
 14 16  1  0
 14 17  1  0
 15 18  2  0
 15 19  1  0
 16 20  1  0
 17 21  1  0
 17 22  1  1
 18 23  1  0
 19 24  2  0
 20 25  1  0
 21 25  1  0
 21 26  1  6
 23 27  2  0
 24 27  1  0
M  END
