JOH-UNI-522b0723-1-bromoalkyne
     RDKit          3D

 15 16  0  0  0  0  0  0  0  0999 V2000
    7.5900   -3.3670   19.7750 C   0  0  0  0  0  0  0  0  0  0  0  0
    6.4620   -2.6840   19.0170 C   0  0  0  0  0  0  0  0  0  0  0  0
    7.9430   -3.1870   21.2850 C   0  0  0  0  0  0  0  0  0  0  0  0
    6.9200   -2.8940   22.2540 C   0  0  0  0  0  0  0  0  0  0  0  0
    9.2750   -3.3950   21.6100 N   0  0  0  0  0  0  0  0  0  0  0  0
    7.3440   -2.9030   23.7200 C   0  0  0  0  0  0  0  0  0  0  0  0
    9.6450   -3.4070   22.9560 C   0  0  0  0  0  0  0  0  0  0  0  0
    8.7690   -3.2140   23.9910 C   0  0  0  0  0  0  0  0  0  0  0  0
    9.0550   -3.3080   25.3290 N   0  0  0  0  0  0  0  0  0  0  0  0
    7.8500   -3.4380   26.1380 C   0  0  0  0  0  0  0  0  0  0  0  0
    9.7750   -4.4770   25.5350 C   0  0  2  0  0  0  0  0  0  0  0  0
    7.1550   -4.5650   25.6780 C   0  0  0  0  0  0  0  0  0  0  0  0
    9.0710   -5.4220   24.7830 C   0  0  0  0  0  0  0  0  0  0  0  0
    9.8770   -4.9020   26.9720 C   0  0  0  0  0  0  0  0  0  0  0  0
    7.9040   -5.6390   25.4060 O   0  0  0  0  0  0  0  0  0  0  0  0
  1  2  2  3
  1  3  1  0
  3  4  2  0
  3  5  1  0
  4  6  1  0
  5  7  2  0
  6  8  2  0
  7  8  1  0
  8  9  1  0
  9 10  1  0
  9 11  1  0
 10 12  1  0
 11 13  1  0
 11 14  1  1
 12 15  1  0
 13 15  1  0
M  END
