JOH-UNI-9dc98897-7-vinylsulfonamide
     RDKit          3D

 22 23  0  0  0  0  0  0  0  0999 V2000
    7.2960   -2.9980   18.7770 C   0  0  0  0  0  0  0  0  0  0  0  0
    7.3760   -1.8750   19.8030 C   0  0  0  0  0  0  0  0  0  0  0  0
    5.9360   -1.9010   20.8570 S   0  0  0  0  0  0  0  0  0  0  0  0
    4.9800   -3.1170   20.6790 O   0  0  0  0  0  0  0  0  0  0  0  0
    5.4060   -0.5590   20.8270 O   0  0  0  0  0  0  0  0  0  0  0  0
    6.7430   -2.1010   22.3900 C   0  0  0  0  0  0  0  0  0  0  0  0
    6.2540   -1.3750   23.6560 C   0  0  0  0  0  0  0  0  0  0  0  0
    7.7830   -2.9530   22.3270 N   0  0  0  0  0  0  0  0  0  0  0  0
    7.0640   -1.7940   24.8880 C   0  0  0  0  0  0  0  0  0  0  0  0
    8.4960   -3.2870   23.5560 C   0  0  0  0  0  0  0  0  0  0  0  0
    6.4780   -1.0450   26.0960 C   0  0  0  0  0  0  0  0  0  0  0  0
    8.2140   -2.8100   24.8250 C   0  0  0  0  0  0  0  0  0  0  0  0
    5.2280   -0.5610   25.9700 F   0  0  0  0  0  0  0  0  0  0  0  0
    7.1950    0.0710   26.4030 F   0  0  0  0  0  0  0  0  0  0  0  0
    6.4070   -1.7780   27.2360 F   0  0  0  0  0  0  0  0  0  0  0  0
    8.9720   -3.3250   25.8140 N   0  0  0  0  0  0  0  0  0  0  0  0
    9.9340   -4.2660   25.6750 C   0  0  0  0  0  0  0  0  0  0  0  0
    8.0590   -3.8270   26.8620 C   0  0  0  0  0  0  0  0  0  0  0  0
    9.4050   -5.6210   25.2110 C   0  0  0  0  0  0  0  0  0  0  0  0
    7.3760   -5.0170   26.5490 C   0  0  0  0  0  0  0  0  0  0  0  0
    8.1250   -5.6040   24.3530 C   0  0  0  0  0  0  0  0  0  0  0  0
    7.0070   -5.3850   25.2120 O   0  0  0  0  0  0  0  0  0  0  0  0
  1  2  1  0
  3  2  1  0
  3  4  2  0
  3  5  2  0
  3  6  1  0
  6  7  2  0
  6  8  1  0
  7  9  1  0
  8 10  2  0
  9 11  1  0
  9 12  2  0
 10 12  1  0
 11 13  1  0
 11 14  1  0
 11 15  1  0
 12 16  1  0
 16 17  1  0
 16 18  1  0
 17 19  1  0
 18 20  1  0
 19 21  1  0
 20 22  1  0
 21 22  1  0
M  END
