JOH-UNI-522b0723-1-nitrile
     RDKit          3D

 15 16  0  0  0  0  0  0  0  0999 V2000
    6.6890   -5.1500   20.4200 C   0  0  0  0  0  0  0  0  0  0  0  0
    6.1890   -4.0650   19.8320 N   0  0  0  0  0  0  0  0  0  0  0  0
    7.3300   -6.4060   21.1480 C   0  0  0  0  0  0  0  0  0  0  0  0
    7.8470   -7.4170   21.7360 C   0  0  0  0  0  0  0  0  0  0  0  0
    7.1200   -6.3020   20.0580 N   0  0  0  0  0  0  0  0  0  0  0  0
    7.6690   -6.8410   22.9720 C   0  0  0  0  0  0  0  0  0  0  0  0
    6.6650   -5.2490   21.0260 C   0  0  0  0  0  0  0  0  0  0  0  0
    6.9590   -5.4790   22.4990 C   0  0  0  0  0  0  0  0  0  0  0  0
    6.6250   -4.5780   23.5650 N   0  0  0  0  0  0  0  0  0  0  0  0
    7.6140   -3.7470   23.6870 C   0  0  0  0  0  0  0  0  0  0  0  0
    6.4030   -5.2550   24.7620 C   0  0  2  0  0  0  0  0  0  0  0  0
    7.9460   -3.6310   25.0540 C   0  0  0  0  0  0  0  0  0  0  0  0
    7.6560   -5.6260   25.1080 C   0  0  0  0  0  0  0  0  0  0  0  0
    5.5010   -6.3140   24.6260 C   0  0  0  0  0  0  0  0  0  0  0  0
    8.2010   -4.5960   25.7440 O   0  0  0  0  0  0  0  0  0  0  0  0
  1  2  2  3
  1  3  1  0
  3  4  2  0
  3  5  1  0
  4  6  1  0
  5  7  2  0
  6  8  2  0
  7  8  1  0
  8  9  1  0
  9 10  1  0
  9 11  1  0
 10 12  1  0
 11 13  1  0
 11 14  1  6
 12 15  1  0
 13 15  1  0
M  END
