JOH-UNI-522b0723-6-nitrile
     RDKit          3D

 17 18  0  0  0  0  0  0  0  0999 V2000
    7.8040   -3.0200   19.8200 C   0  0  0  0  0  0  0  0  0  0  0  0
    6.7980   -2.6220   19.0710 N   0  0  0  0  0  0  0  0  0  0  0  0
    8.1330   -2.4880   21.2830 C   0  0  0  0  0  0  0  0  0  0  0  0
    8.1910   -1.4120   22.3010 C   0  0  0  0  0  0  0  0  0  0  0  0
    8.5370   -2.9570   22.2440 N   0  0  0  0  0  0  0  0  0  0  0  0
    8.6550   -1.5570   23.8310 C   0  0  0  0  0  0  0  0  0  0  0  0
    8.9670   -3.8400   22.9690 C   0  0  0  0  0  0  0  0  0  0  0  0
    9.0500   -3.0430   24.0340 C   0  0  0  0  0  0  0  0  0  0  0  0
    9.4690   -3.5590   25.2170 N   0  0  0  0  0  0  0  0  0  0  0  0
   10.2070   -4.6130   24.9140 C   0  0  0  0  0  0  0  0  0  0  0  0
    8.2860   -3.9850   26.0570 C   0  0  1  0  0  0  0  0  0  0  0  0
    9.1220   -5.6050   24.5760 C   0  0  0  0  0  0  0  0  0  0  0  0
    7.4350   -5.1670   25.4060 C   0  0  2  0  0  0  0  0  0  0  0  0
    8.7100   -4.3940   27.5060 C   0  0  0  0  0  0  0  0  0  0  0  0
    8.0340   -5.8620   24.3690 N   0  0  0  0  0  0  0  0  0  0  0  0
    5.9760   -4.7900   25.1350 C   0  0  0  0  0  0  0  0  0  0  0  0
    7.4080   -5.9110   23.1660 C   0  0  0  0  0  0  0  0  0  0  0  0
  1  2  2  3
  1  3  1  0
  3  4  2  0
  3  5  1  0
  4  6  1  0
  5  7  2  0
  6  8  2  0
  7  8  1  0
  8  9  1  0
  9 10  1  0
  9 11  1  0
 10 12  1  0
 11 13  1  0
 11 14  1  1
 12 15  1  0
 13 15  1  0
 13 16  1  6
 15 17  1  0
M  END
