JOH-UNI-abdb2f0c-2-bromoalkyne
     RDKit          3D

 24 26  0  0  0  0  0  0  0  0999 V2000
    7.2480   -3.3520   20.0590 C   0  0  0  0  0  0  0  0  0  0  0  0
    6.7630   -2.6770   18.9710 C   0  0  0  0  0  0  0  0  0  0  0  0
    8.3270   -2.6170   21.0010 C   0  0  0  0  0  0  0  0  0  0  0  0
    9.5970   -3.0820   21.1680 N   0  0  0  0  0  0  0  0  0  0  0  0
    7.9810   -1.4490   21.7090 C   0  0  0  0  0  0  0  0  0  0  0  0
   10.5880   -2.3990   22.0410 C   0  0  0  0  0  0  0  0  0  0  0  0
    8.8480   -0.7470   22.5520 C   0  0  0  0  0  0  0  0  0  0  0  0
    6.6520   -0.7880   21.6790 C   0  0  0  0  0  0  0  0  0  0  0  0
   10.1200   -1.1650   22.7480 C   0  0  0  0  0  0  0  0  0  0  0  0
    5.6260   -1.3390   21.9530 O   0  0  0  0  0  0  0  0  0  0  0  0
    6.7410    0.4910   21.3120 N   0  0  0  0  0  0  0  0  0  0  0  0
   11.0620   -0.4840   23.6270 N   0  0  0  0  0  0  0  0  0  0  0  0
    6.2090    0.8880   20.0500 C   0  0  0  0  0  0  0  0  0  0  0  0
   11.4860   -1.3550   24.7040 C   0  0  0  0  0  0  0  0  0  0  0  0
   11.9170    0.5960   23.1850 C   0  0  0  0  0  0  0  0  0  0  0  0
    5.0140    1.8170   20.1830 C   0  0  0  0  0  0  0  0  0  0  0  0
    6.7110    0.4740   18.8230 C   0  0  0  0  0  0  0  0  0  0  0  0
   12.7710   -1.8890   24.5620 C   0  0  0  0  0  0  0  0  0  0  0  0
   13.1660    0.0510   23.0220 C   0  0  0  0  0  0  0  0  0  0  0  0
    4.5050    2.1990   18.8140 C   0  0  0  0  0  0  0  0  0  0  0  0
    6.1970    0.8620   17.6460 N   0  0  0  0  0  0  0  0  0  0  0  0
   13.1140   -2.3510   23.2850 C   0  0  0  0  0  0  0  0  0  0  0  0
   13.1440   -1.2260   22.3990 O   0  0  0  0  0  0  0  0  0  0  0  0
    5.1350    1.6980   17.6810 C   0  0  0  0  0  0  0  0  0  0  0  0
  1  2  2  3
  1  3  1  0
  3  4  2  0
  3  5  1  0
  4  6  1  0
  5  7  2  0
  5  8  1  0
  6  9  2  0
  7  9  1  0
  8 10  2  0
  8 11  1  0
  9 12  1  0
 11 13  1  0
 12 14  1  0
 12 15  1  0
 13 16  2  0
 13 17  1  0
 14 18  1  0
 15 19  1  0
 16 20  1  0
 17 21  2  0
 18 22  1  0
 19 23  1  0
 22 23  1  0
 20 24  2  0
 21 24  1  0
M  END
