JOH-UNI-9dc98897-7-nitrile
     RDKit          3D

 19 20  0  0  0  0  0  0  0  0999 V2000
    7.3920   -3.5660   19.7740 C   0  0  0  0  0  0  0  0  0  0  0  0
    6.3000   -3.3890   19.0970 N   0  0  0  0  0  0  0  0  0  0  0  0
    7.4080   -3.6010   21.2960 C   0  0  0  0  0  0  0  0  0  0  0  0
    8.1240   -3.2250   22.5110 C   0  0  0  0  0  0  0  0  0  0  0  0
    7.0100   -4.5590   22.1750 N   0  0  0  0  0  0  0  0  0  0  0  0
    6.4730   -3.1420   23.0670 C   0  0  0  0  0  0  0  0  0  0  0  0
    7.1340   -4.3690   23.5330 C   0  0  0  0  0  0  0  0  0  0  0  0
    6.4530   -3.2690   21.5520 C   0  0  0  0  0  0  0  0  0  0  0  0
    6.7960   -3.2700   24.3430 C   0  0  0  0  0  0  0  0  0  0  0  0
    6.3920   -4.4900   20.9840 F   0  0  0  0  0  0  0  0  0  0  0  0
    5.2840   -2.7120   21.1190 F   0  0  0  0  0  0  0  0  0  0  0  0
    7.3770   -2.4560   20.9790 F   0  0  0  0  0  0  0  0  0  0  0  0
    7.4310   -3.6480   25.5410 N   0  0  0  0  0  0  0  0  0  0  0  0
    8.7640   -3.9990   25.7000 C   0  0  0  0  0  0  0  0  0  0  0  0
    6.7700   -3.2400   26.6890 C   0  0  0  0  0  0  0  0  0  0  0  0
    9.0050   -4.9690   26.8870 C   0  0  0  0  0  0  0  0  0  0  0  0
    7.1860   -4.0170   27.9400 C   0  0  0  0  0  0  0  0  0  0  0  0
    7.9530   -5.8910   27.5560 C   0  0  0  0  0  0  0  0  0  0  0  0
    7.0200   -5.2170   27.9990 O   0  0  0  0  0  0  0  0  0  0  0  0
  1  2  2  3
  1  3  1  0
  3  4  2  0
  3  5  1  0
  4  6  1  0
  5  7  2  0
  6  8  1  0
  6  9  2  0
  7  9  1  0
  8 10  1  0
  8 11  1  0
  8 12  1  0
  9 13  1  0
 13 14  1  0
 13 15  1  0
 14 16  1  0
 15 17  1  0
 16 18  1  0
 17 19  1  0
 18 19  1  0
M  END
