JOH-UNI-27ac80fd-39-chloroacetamide
     RDKit          3D

 20 21  0  0  0  0  0  0  0  0999 V2000
    7.4930   -3.0190   18.8670 C   0  0  0  0  0  0  0  0  0  0  0  0
    6.4080   -3.1810   19.8810 C   0  0  0  0  0  0  0  0  0  0  0  0
    5.4660   -3.9650   19.6690 O   0  0  0  0  0  0  0  0  0  0  0  0
    6.5120   -2.4560   21.0580 N   0  0  0  0  0  0  0  0  0  0  0  0
    6.1850   -3.0380   22.3230 C   0  0  0  0  0  0  0  0  0  0  0  0
    7.5330   -1.3990   21.1320 C   0  0  0  0  0  0  0  0  0  0  0  0
    7.2510   -3.4450   23.1120 C   0  0  0  0  0  0  0  0  0  0  0  0
    8.6110   -1.6950   22.1950 C   0  0  0  0  0  0  0  0  0  0  0  0
    8.0750   -2.2870   23.4400 N   0  0  0  0  0  0  0  0  0  0  0  0
    9.1100   -2.6830   24.3850 C   0  0  0  0  0  0  0  0  0  0  0  0
    8.6580   -3.7860   25.3200 C   0  0  0  0  0  0  0  0  0  0  0  0
    7.8490   -3.4300   26.7830 S   0  0  0  0  0  0  0  0  0  0  0  0
    8.7970   -5.1320   25.1570 C   0  0  0  0  0  0  0  0  0  0  0  0
    7.7070   -5.0090   27.2710 C   0  0  0  0  0  0  0  0  0  0  0  0
    8.2880   -5.9480   26.3130 C   0  0  0  0  0  0  0  0  0  0  0  0
    9.3710   -5.7190   23.9680 C   0  0  0  0  0  0  0  0  0  0  0  0
    6.8680   -5.6000   28.8610 Br  0  0  0  0  0  0  0  0  0  0  0  0
    8.2670   -6.1820   22.9760 C   0  0  0  0  0  0  0  0  0  0  0  0
    6.9240   -5.6580   23.1330 O   0  0  0  0  0  0  0  0  0  0  0  0
    6.3370   -5.6160   24.4290 C   0  0  0  0  0  0  0  0  0  0  0  0
  1  2  1  0
  2  3  2  0
  2  4  1  0
  4  5  1  0
  4  6  1  0
  5  7  1  0
  6  8  1  0
  7  9  1  0
  8  9  1  0
  9 10  1  0
 10 11  1  0
 11 12  1  0
 11 13  2  0
 12 14  1  0
 13 15  1  0
 14 15  2  0
 13 16  1  0
 14 17  1  0
 16 18  1  0
 18 19  1  0
 19 20  1  0
M  END
