JOH-UNI-522b0723-2-vinylsulfonamide
     RDKit          3D

 19 20  0  0  0  0  0  0  0  0999 V2000
    7.0450   -3.0340   18.9780 C   0  0  0  0  0  0  0  0  0  0  0  0
    7.2480   -1.7460   19.8090 C   0  0  0  0  0  0  0  0  0  0  0  0
    6.0320   -1.8310   21.1100 S   0  0  0  0  0  0  0  0  0  0  0  0
    4.9370   -3.0330   20.9160 O   0  0  0  0  0  0  0  0  0  0  0  0
    5.5710   -0.4740   21.3060 O   0  0  0  0  0  0  0  0  0  0  0  0
    7.2470   -2.2660   22.4620 C   0  0  0  0  0  0  0  0  0  0  0  0
    6.7440   -2.2340   23.7680 C   0  0  0  0  0  0  0  0  0  0  0  0
    8.5670   -2.6610   22.1700 N   0  0  0  0  0  0  0  0  0  0  0  0
    7.5860   -2.7250   24.8650 C   0  0  0  0  0  0  0  0  0  0  0  0
    9.3590   -3.1340   23.2300 C   0  0  0  0  0  0  0  0  0  0  0  0
    8.9200   -3.2290   24.5480 C   0  0  0  0  0  0  0  0  0  0  0  0
    9.4650   -3.7580   25.6720 N   0  0  0  0  0  0  0  0  0  0  0  0
    8.4590   -3.7460   26.7430 C   0  0  0  0  0  0  0  0  0  0  0  0
    9.4970   -5.1670   25.3160 C   0  0  2  0  0  0  0  0  0  0  0  0
    7.4460   -4.7250   26.5740 C   0  0  0  0  0  0  0  0  0  0  0  0
    8.3050   -5.2150   24.5310 C   0  0  2  0  0  0  0  0  0  0  0  0
    9.5940   -5.9840   26.5760 C   0  0  0  0  0  0  0  0  0  0  0  0
    7.3310   -5.3880   25.4070 O   0  0  0  0  0  0  0  0  0  0  0  0
    8.0400   -6.0950   23.4840 C   0  0  0  0  0  0  0  0  0  0  0  0
  1  2  1  0
  3  2  1  0
  3  4  2  0
  3  5  2  0
  3  6  1  0
  6  7  2  0
  6  8  1  0
  7  9  1  0
  8 10  2  0
  9 11  2  0
 10 11  1  0
 11 12  1  0
 12 13  1  0
 12 14  1  0
 13 15  1  0
 14 16  1  0
 14 17  1  1
 15 18  1  0
 16 18  1  0
 16 19  1  6
M  END
