JOH-MEM-5e386bbd-3
     RDKit          3D

 29 31  0  0  0  0  0  0  0  0999 V2000
   13.1750   -2.5740   21.1770 C   0  0  0  0  0  0  0  0  0  0  0  0
   13.7190   -1.4830   21.9050 O   0  0  0  0  0  0  0  0  0  0  0  0
   12.7370   -0.8200   22.5110 C   0  0  0  0  0  0  0  0  0  0  0  0
   11.6040   -1.6250   23.1230 C   0  0  0  0  0  0  0  0  0  0  0  0
   12.6250    0.5630   22.6360 C   0  0  0  0  0  0  0  0  0  0  0  0
   10.4220   -0.9410   23.7930 C   0  0  0  0  0  0  0  0  0  0  0  0
   11.3560    0.9570   23.3180 C   0  0  0  0  0  0  0  0  0  0  0  0
   10.2580    0.5550   23.8940 C   0  0  0  0  0  0  0  0  0  0  0  0
   11.4900    2.4640   23.2480 C   0  0  0  0  0  0  0  0  0  0  0  0
   12.5260    3.4300   22.6840 C   0  0  0  0  0  0  0  0  0  0  0  0
   10.2320    2.8340   23.9130 C   0  0  0  0  0  0  0  0  0  0  0  0
    9.4780    1.7000   24.3150 N   0  0  0  0  0  0  0  0  0  0  0  0
   12.4190    4.8000   23.0550 C   0  0  0  0  0  0  0  0  0  0  0  0
    8.2090    1.4870   24.9750 C   0  0  1  0  0  0  0  0  0  0  0  0
   11.3180    5.5050   22.6160 N   0  0  0  0  0  0  0  0  0  0  0  0
    7.6630    2.3360   25.6900 O   0  0  0  0  0  0  0  0  0  0  0  0
    7.2700    1.0920   24.0010 C   0  0  1  0  0  0  0  0  0  0  0  0
   10.3580    6.1270   23.3770 C   0  0  0  0  0  0  0  0  0  0  0  0
    6.4540    1.9750   26.2320 C   0  0  2  0  0  0  0  0  0  0  0  0
    6.1050    1.8550   23.9510 C   0  0  2  0  0  0  0  0  0  0  0  0
    7.8400    1.2120   22.6820 O   0  0  0  0  0  0  0  0  0  0  0  0
    9.2860    6.5700   22.5970 C   0  0  0  0  0  0  0  0  0  0  0  0
   10.4190    6.3090   24.7300 O   0  0  0  0  0  0  0  0  0  0  0  0
    6.5440    0.6110   26.9170 C   0  0  0  0  0  0  0  0  0  0  0  0
    5.3760    1.8440   25.1220 C   0  0  1  0  0  0  0  0  0  0  0  0
    5.2990    1.2340   22.9240 O   0  0  0  0  0  0  0  0  0  0  0  0
    6.1820   -0.5240   26.2380 O   0  0  0  0  0  0  0  0  0  0  0  0
    6.9780    0.6000   28.2090 O   0  0  0  0  0  0  0  0  0  0  0  0
    4.6610    0.7410   25.4660 O   0  0  0  0  0  0  0  0  0  0  0  0
  1  2  1  0
  2  3  1  0
  3  4  2  0
  3  5  1  0
  4  6  1  0
  5  7  2  0
  6  8  2  0
  7  8  1  0
  7  9  1  0
  9 10  1  0
  9 11  2  0
  8 12  1  0
 11 12  1  0
 10 13  1  0
 14 12  1  6
 13 15  1  0
 14 16  1  0
 14 17  1  0
 15 18  1  0
 16 19  1  0
 17 20  1  0
 17 21  1  6
 18 22  1  0
 18 23  2  0
 19 24  1  6
 19 25  1  0
 20 25  1  0
 20 26  1  6
 24 27  2  0
 24 28  1  0
 25 29  1  1
M  END
