JOH-PRI-13d3b0af-1-chloroacetamide
     RDKit          3D

 25 26  0  0  0  0  0  0  0  0999 V2000
    7.4800   -3.1470   19.3980 C   0  0  0  0  0  0  0  0  0  0  0  0
    6.3910   -3.9390   20.1010 C   0  0  0  0  0  0  0  0  0  0  0  0
    5.2550   -3.9760   19.6460 O   0  0  0  0  0  0  0  0  0  0  0  0
    6.6770   -4.6790   21.2750 N   0  0  0  0  0  0  0  0  0  0  0  0
    7.7680   -4.4410   22.1150 N   0  0  0  0  0  0  0  0  0  0  0  0
    7.7180   -3.3540   22.9960 C   0  0  0  0  0  0  0  0  0  0  0  0
    6.6280   -3.0930   23.7650 O   0  0  0  0  0  0  0  0  0  0  0  0
    8.8440   -2.3530   23.0960 C   0  0  0  0  0  0  0  0  0  0  0  0
   10.2650   -2.8240   22.7160 C   0  0  0  0  0  0  0  0  0  0  0  0
    8.4580   -0.7740   23.5930 S   0  0  0  0  0  0  0  0  0  0  0  0
   10.8220   -1.4580   22.9250 C   0  0  0  0  0  0  0  0  0  0  0  0
   10.1020   -0.3860   23.3190 C   0  0  0  0  0  0  0  0  0  0  0  0
   10.6030    1.0360   23.4310 C   0  0  0  0  0  0  0  0  0  0  0  0
   11.9520    1.4440   23.0680 C   0  0  0  0  0  0  0  0  0  0  0  0
    9.9340    2.1880   23.8020 N   0  0  0  0  0  0  0  0  0  0  0  0
   13.1860    0.3880   22.5910 Cl  0  0  0  0  0  0  0  0  0  0  0  0
   11.8710    2.8130   23.1850 C   0  0  0  0  0  0  0  0  0  0  0  0
   10.6890    3.3130   23.6580 N   0  0  0  0  0  0  0  0  0  0  0  0
    8.6790    2.3200   24.2330 C   0  0  0  0  0  0  0  0  0  0  0  0
   12.7940    3.8120   22.8800 C   0  0  0  0  0  0  0  0  0  0  0  0
   12.5400    4.9810   23.5620 C   0  0  0  0  0  0  0  0  0  0  0  0
   12.4480    6.1450   22.5620 C   0  0  0  0  0  0  0  0  0  0  0  0
   13.1330    6.3450   21.5770 O   0  0  0  0  0  0  0  0  0  0  0  0
   11.4110    6.8200   23.1120 N   0  0  0  0  0  0  0  0  0  0  0  0
   10.1400    6.5840   22.7210 C   0  0  0  0  0  0  0  0  0  0  0  0
  1  2  1  0
  2  3  2  0
  2  4  1  0
  4  5  1  0
  5  6  1  0
  6  7  2  0
  6  8  1  0
  8  9  2  0
  8 10  1  0
  9 11  1  0
 10 12  1  0
 11 12  2  0
 12 13  1  0
 13 14  2  0
 13 15  1  0
 14 16  1  0
 14 17  1  0
 15 18  1  0
 17 18  2  0
 15 19  1  0
 17 20  1  0
 20 21  1  0
 21 22  1  0
 22 23  2  0
 22 24  1  0
 24 25  1  0
M  END
