JOH-PRI-13a2d501-1-nitrile
     RDKit          3D

 25 27  0  0  0  0  0  0  0  0999 V2000
    6.9020   -3.7650   19.8240 C   0  0  0  0  0  0  0  0  0  0  0  0
    5.9480   -3.2820   19.1390 N   0  0  0  0  0  0  0  0  0  0  0  0
    6.8150   -4.2840   21.0910 N   0  0  0  0  0  0  0  0  0  0  0  0
    7.8260   -3.9470   21.9750 N   0  0  0  0  0  0  0  0  0  0  0  0
    7.7150   -2.6840   22.5500 C   0  0  0  0  0  0  0  0  0  0  0  0
    6.6130   -2.3330   22.9440 O   0  0  0  0  0  0  0  0  0  0  0  0
    8.8740   -1.8730   22.6550 C   0  0  2  0  0  0  0  0  0  0  0  0
   10.1410   -2.4940   22.5820 C   0  0  0  0  0  0  0  0  0  0  0  0
    8.8320   -1.2940   24.3660 S   0  0  0  0  0  0  0  0  0  0  0  0
   11.2220   -1.7740   23.3280 N   0  0  0  0  0  0  0  0  0  0  0  0
   10.5710   -0.9010   24.3380 C   0  0  1  0  0  0  0  0  0  0  0  0
   12.3630   -1.2360   22.4880 C   0  0  0  0  0  0  0  0  0  0  0  0
   10.7760    0.5570   24.0370 C   0  0  0  0  0  0  0  0  0  0  0  0
   12.8790    0.0040   22.9210 C   0  0  0  0  0  0  0  0  0  0  0  0
   11.8350    1.0120   23.3840 C   0  0  0  0  0  0  0  0  0  0  0  0
    9.9980    1.6220   24.3310 N   0  0  0  0  0  0  0  0  0  0  0  0
   11.6810    2.4080   23.2930 C   0  0  0  0  0  0  0  0  0  0  0  0
   10.5340    2.7810   23.8860 N   0  0  0  0  0  0  0  0  0  0  0  0
    8.7380    1.6320   25.0260 C   0  0  0  0  0  0  0  0  0  0  0  0
   12.5870    3.4580   22.6560 C   0  0  0  0  0  0  0  0  0  0  0  0
   12.5320    4.7750   23.4290 C   0  0  0  0  0  0  0  0  0  0  0  0
   11.7110    5.8130   22.6850 C   0  0  0  0  0  0  0  0  0  0  0  0
   12.1130    6.1890   21.6160 O   0  0  0  0  0  0  0  0  0  0  0  0
   10.5530    6.2440   23.3120 N   0  0  0  0  0  0  0  0  0  0  0  0
    9.3440    6.5370   22.5790 C   0  0  0  0  0  0  0  0  0  0  0  0
  1  2  2  3
  1  3  1  0
  3  4  1  0
  4  5  1  0
  5  6  2  0
  7  5  1  1
  7  8  1  0
  7  9  1  0
  8 10  1  0
 11  9  1  6
 10 11  1  0
 10 12  1  0
 11 13  1  0
 12 14  1  0
 13 15  2  0
 14 15  1  0
 13 16  1  0
 15 17  1  0
 16 18  1  0
 17 18  2  0
 16 19  1  0
 17 20  1  0
 20 21  1  0
 21 22  1  0
 22 23  2  0
 22 24  1  0
 24 25  1  0
M  END
