JOH-UNI-abdb2f0c-1
     RDKit          3D

 22 24  0  0  0  0  0  0  0  0999 V2000
    8.7630   -1.9820   21.0710 O   0  0  0  0  0  0  0  0  0  0  0  0
    8.3320   -0.9640   21.4790 C   0  0  0  0  0  0  0  0  0  0  0  0
    6.9390   -0.5320   21.5090 N   0  0  0  0  0  0  0  0  0  0  0  0
    9.3330   -0.0370   22.0040 C   0  0  0  0  0  0  0  0  0  0  0  0
    6.4420    0.0390   20.2400 C   0  0  0  0  0  0  0  0  0  0  0  0
   10.5390   -0.5090   22.5520 C   0  0  0  0  0  0  0  0  0  0  0  0
    8.9980    1.2470   21.8970 N   0  0  0  0  0  0  0  0  0  0  0  0
    5.1720    0.8630   20.5300 C   0  0  0  0  0  0  0  0  0  0  0  0
    6.9740   -0.1040   18.9870 C   0  0  0  0  0  0  0  0  0  0  0  0
   11.4710    0.3740   23.0090 C   0  0  0  0  0  0  0  0  0  0  0  0
    9.9370    2.0660   22.3670 C   0  0  0  0  0  0  0  0  0  0  0  0
    4.5230    1.5430   19.2900 C   0  0  0  0  0  0  0  0  0  0  0  0
    6.4530    0.4740   17.8550 N   0  0  0  0  0  0  0  0  0  0  0  0
   11.1700    1.7210   22.9230 C   0  0  0  0  0  0  0  0  0  0  0  0
    5.2500    1.2900   17.9590 C   0  0  0  0  0  0  0  0  0  0  0  0
   11.9100    2.7900   23.3320 N   0  0  0  0  0  0  0  0  0  0  0  0
   12.8250    3.4820   22.4030 C   0  0  0  0  0  0  0  0  0  0  0  0
   10.9500    3.7030   23.9900 C   0  0  0  0  0  0  0  0  0  0  0  0
   13.1880    4.9720   22.6420 C   0  0  0  0  0  0  0  0  0  0  0  0
   11.4690    4.9530   24.3550 C   0  0  0  0  0  0  0  0  0  0  0  0
   11.9980    5.9580   22.6790 C   0  0  0  0  0  0  0  0  0  0  0  0
   11.1980    5.8490   23.5830 O   0  0  0  0  0  0  0  0  0  0  0  0
  1  2  2  0
  2  3  1  0
  2  4  1  0
  3  5  1  0
  4  6  2  0
  4  7  1  0
  5  8  2  0
  5  9  1  0
  6 10  1  0
  7 11  2  0
  8 12  1  0
  9 13  2  0
 10 14  2  0
 11 14  1  0
 12 15  2  0
 13 15  1  0
 14 16  1  0
 16 17  1  0
 16 18  1  0
 17 19  1  0
 18 20  1  0
 19 21  1  0
 20 22  1  0
 21 22  1  0
M  END
