JOH-UNI-9dc98897-10-vinylsulfonamide
     RDKit          3D

 22 23  0  0  0  0  0  0  0  0999 V2000
    8.6930   -3.7380   20.1440 C   0  0  0  0  0  0  0  0  0  0  0  0
    7.6760   -4.3080   21.1420 C   0  0  0  0  0  0  0  0  0  0  0  0
    6.0260   -3.6930   20.7680 S   0  0  0  0  0  0  0  0  0  0  0  0
    5.0580   -4.1530   21.7470 O   0  0  0  0  0  0  0  0  0  0  0  0
    5.7070   -4.0570   19.4090 O   0  0  0  0  0  0  0  0  0  0  0  0
    5.9730   -1.9120   20.7810 C   0  0  0  0  0  0  0  0  0  0  0  0
    6.4740   -1.0790   22.2280 C   0  0  0  0  0  0  0  0  0  0  0  0
    6.2160   -1.0740   21.5280 N   0  0  0  0  0  0  0  0  0  0  0  0
    6.6260   -2.3250   22.4770 C   0  0  0  0  0  0  0  0  0  0  0  0
    6.6110   -2.4300   22.4220 C   0  0  0  0  0  0  0  0  0  0  0  0
    7.1150   -2.9250   23.7190 C   0  0  0  0  0  0  0  0  0  0  0  0
    6.8560   -1.1840   23.2710 C   0  0  0  0  0  0  0  0  0  0  0  0
    7.2930   -4.2230   24.0110 N   0  0  0  0  0  0  0  0  0  0  0  0
    6.0770   -1.1380   24.4120 F   0  0  0  0  0  0  0  0  0  0  0  0
    8.1450   -1.0480   23.7360 F   0  0  0  0  0  0  0  0  0  0  0  0
    6.5750    0.0080   22.6390 F   0  0  0  0  0  0  0  0  0  0  0  0
    6.8080   -4.4120   25.4040 C   0  0  0  0  0  0  0  0  0  0  0  0
    8.6190   -4.7700   23.6390 C   0  0  0  0  0  0  0  0  0  0  0  0
    7.9210   -3.8480   26.3320 C   0  0  0  0  0  0  0  0  0  0  0  0
    9.2540   -5.6120   24.7390 C   0  0  0  0  0  0  0  0  0  0  0  0
    9.1110   -4.7490   26.7570 C   0  0  0  0  0  0  0  0  0  0  0  0
    9.8870   -4.9960   25.8450 O   0  0  0  0  0  0  0  0  0  0  0  0
  1  2  1  0
  3  2  1  0
  3  4  2  0
  3  5  2  0
  3  6  1  0
  6  7  2  0
  6  8  1  0
  7  9  1  0
  8 10  2  0
  9 11  2  0
 10 11  1  0
 10 12  1  0
 11 13  1  0
 12 14  1  0
 12 15  1  0
 12 16  1  0
 13 17  1  0
 13 18  1  0
 17 19  1  0
 18 20  1  0
 19 21  1  0
 20 22  1  0
 21 22  1  0
M  END
