JOH-UNI-27ac80fd-30-bromoalkyne
     RDKit          3D

 17 18  0  0  0  0  0  0  0  0999 V2000
    6.8870   -3.3340   19.6110 C   0  0  0  0  0  0  0  0  0  0  0  0
    5.9990   -2.8640   18.7430 C   0  0  0  0  0  0  0  0  0  0  0  0
    6.8530   -2.9360   20.9360 N   0  0  0  0  0  0  0  0  0  0  0  0
    6.5030   -3.8170   22.0640 C   0  0  0  0  0  0  0  0  0  0  0  0
    7.5060   -1.6670   21.3310 C   0  0  0  0  0  0  0  0  0  0  0  0
    7.7080   -3.9780   23.0180 C   0  0  0  0  0  0  0  0  0  0  0  0
    8.7430   -1.9340   22.2070 C   0  0  0  0  0  0  0  0  0  0  0  0
    8.4020   -2.7240   23.3980 N   0  0  0  0  0  0  0  0  0  0  0  0
    9.5560   -3.0070   24.2450 C   0  0  0  0  0  0  0  0  0  0  0  0
   10.6350   -3.3210   23.4850 F   0  0  0  0  0  0  0  0  0  0  0  0
    9.9070   -1.8710   24.9100 F   0  0  0  0  0  0  0  0  0  0  0  0
    9.2380   -4.0800   25.2330 C   0  0  0  0  0  0  0  0  0  0  0  0
    9.7990   -5.3310   25.3930 C   0  0  0  0  0  0  0  0  0  0  0  0
    7.9970   -3.8090   26.3770 S   0  0  0  0  0  0  0  0  0  0  0  0
    9.2030   -6.0580   26.4580 C   0  0  0  0  0  0  0  0  0  0  0  0
    8.2120   -5.3260   27.0560 C   0  0  0  0  0  0  0  0  0  0  0  0
    7.1340   -5.9030   28.5130 Br  0  0  0  0  0  0  0  0  0  0  0  0
  1  2  2  3
  1  3  1  0
  3  4  1  0
  3  5  1  0
  4  6  1  0
  5  7  1  0
  6  8  1  0
  7  8  1  0
  8  9  1  0
  9 10  1  0
  9 11  1  0
  9 12  1  0
 12 13  2  0
 12 14  1  0
 13 15  1  0
 14 16  1  0
 15 16  2  0
 16 17  1  0
M  END
