JOH-UNI-522b0723-7-vinylsulfonamide
     RDKit          3D

 28 30  0  0  0  0  0  0  0  0999 V2000
    8.3990   -3.7070   20.4230 C   0  0  0  0  0  0  0  0  0  0  0  0
    6.9990   -3.1370   20.4250 C   0  0  0  0  0  0  0  0  0  0  0  0
    6.2700   -3.7410   21.9270 S   0  0  0  0  0  0  0  0  0  0  0  0
    4.8340   -3.5710   21.8300 O   0  0  0  0  0  0  0  0  0  0  0  0
    6.8110   -5.0660   22.1410 O   0  0  0  0  0  0  0  0  0  0  0  0
    6.9140   -2.6130   23.1680 C   0  0  0  0  0  0  0  0  0  0  0  0
    7.3980   -3.1660   24.3540 N   0  0  0  0  0  0  0  0  0  0  0  0
    6.9260   -1.2610   22.9410 C   0  0  0  0  0  0  0  0  0  0  0  0
    7.9790   -2.5470   25.5280 C   0  0  0  0  0  0  0  0  0  0  0  0
    7.4270   -0.3570   23.8840 C   0  0  0  0  0  0  0  0  0  0  0  0
    6.3500   -0.7730   21.5690 C   0  0  0  0  0  0  0  0  0  0  0  0
    7.7860   -1.3390   24.8660 C   0  0  0  0  0  0  0  0  0  0  0  0
    5.2350   -1.1820   21.2540 O   0  0  0  0  0  0  0  0  0  0  0  0
    7.0680    0.0600   20.7700 N   0  0  0  0  0  0  0  0  0  0  0  0
    7.3570   -2.3870   24.1460 N   0  0  0  0  0  0  0  0  0  0  0  0
    7.2470    1.3170   21.1890 C   0  0  0  0  0  0  0  0  0  0  0  0
    8.3970   -3.1760   23.6610 C   0  0  0  0  0  0  0  0  0  0  0  0
    6.1940   -3.1980   24.7900 C   0  0  2  0  0  0  0  0  0  0  0  0
    6.1110    2.1810   21.1920 C   0  0  0  0  0  0  0  0  0  0  0  0
    8.6270    1.5400   21.5690 C   0  0  0  0  0  0  0  0  0  0  0  0
    8.0430   -4.5490   24.1440 C   0  0  0  0  0  0  0  0  0  0  0  0
    6.3650   -4.7890   25.1180 C   0  0  2  0  0  0  0  0  0  0  0  0
    4.7890   -3.0090   24.1360 C   0  0  0  0  0  0  0  0  0  0  0  0
    6.2070    3.5740   21.6340 C   0  0  0  0  0  0  0  0  0  0  0  0
    8.6020    2.9130   21.9760 C   0  0  0  0  0  0  0  0  0  0  0  0
    7.3280   -5.2450   24.6450 N   0  0  0  0  0  0  0  0  0  0  0  0
    5.0250   -5.5180   24.8530 C   0  0  0  0  0  0  0  0  0  0  0  0
    7.5900    3.8650   22.0340 C   0  0  0  0  0  0  0  0  0  0  0  0
  1  2  1  0
  3  2  1  0
  3  4  2  0
  3  5  2  0
  3  6  1  0
  6  7  2  0
  6  8  1  0
  7  9  1  0
  8 10  2  0
  8 11  1  0
  9 12  2  0
 10 12  1  0
 11 13  2  0
 11 14  1  0
 12 15  1  0
 14 16  1  0
 15 17  1  0
 15 18  1  0
 16 19  2  0
 16 20  1  0
 17 21  1  0
 18 22  1  0
 18 23  1  6
 19 24  1  0
 20 25  2  0
 21 26  1  0
 22 26  1  0
 22 27  1  6
 24 28  2  0
 25 28  1  0
M  END
