JOH-UNI-522b0723-3-acrylamide
     RDKit          3D

 17 18  0  0  0  0  0  0  0  0999 V2000
    7.0620   -3.2680   19.2600 C   0  0  0  0  0  0  0  0  0  0  0  0
    7.1720   -2.4050   20.4810 C   0  0  0  0  0  0  0  0  0  0  0  0
    6.1460   -2.8940   21.4840 C   0  0  0  0  0  0  0  0  0  0  0  0
    5.0530   -3.3580   21.1050 O   0  0  0  0  0  0  0  0  0  0  0  0
    6.4450   -2.8450   22.9290 C   0  0  0  0  0  0  0  0  0  0  0  0
    7.0660   -3.2820   24.0260 C   0  0  0  0  0  0  0  0  0  0  0  0
    7.2800   -3.9080   22.6670 N   0  0  0  0  0  0  0  0  0  0  0  0
    7.5800   -3.5570   25.2400 C   0  0  0  0  0  0  0  0  0  0  0  0
    8.0340   -4.5030   23.7790 C   0  0  0  0  0  0  0  0  0  0  0  0
    8.5170   -4.7160   25.1210 C   0  0  0  0  0  0  0  0  0  0  0  0
    8.6540   -4.5200   26.4640 N   0  0  0  0  0  0  0  0  0  0  0  0
    8.5650   -5.7700   27.1960 C   0  0  0  0  0  0  0  0  0  0  0  0
    7.7480   -3.4990   27.1620 C   0  0  2  0  0  0  0  0  0  0  0  0
    7.1490   -5.6130   27.6730 C   0  0  0  0  0  0  0  0  0  0  0  0
    6.3670   -3.9310   27.2740 C   0  0  0  0  0  0  0  0  0  0  0  0
    8.0500   -2.0890   26.5310 C   0  0  0  0  0  0  0  0  0  0  0  0
    6.2150   -4.9810   27.7730 N   0  0  0  0  0  0  0  0  0  0  0  0
  1  2  1  0
  2  3  1  0
  3  4  2  0
  3  5  1  0
  5  6  2  0
  5  7  1  0
  6  8  1  0
  7  9  2  0
  8 10  2  0
  9 10  1  0
 10 11  1  0
 11 12  1  0
 11 13  1  0
 12 14  1  0
 13 15  1  0
 13 16  1  6
 14 17  1  0
 15 17  1  0
M  END
