JOH-UNI-e19b918c-4-vinylsulfonamide
     RDKit          3D

 16 17  0  0  0  0  0  0  0  0999 V2000
    7.3570   -2.9450   18.5890 C   0  0  0  0  0  0  0  0  0  0  0  0
    6.8060   -2.7020   19.9770 C   0  0  0  0  0  0  0  0  0  0  0  0
    6.0320   -4.1650   20.6130 S   0  0  0  0  0  0  0  0  0  0  0  0
    5.0650   -3.7520   21.5590 O   0  0  0  0  0  0  0  0  0  0  0  0
    5.5400   -5.0500   19.6000 O   0  0  0  0  0  0  0  0  0  0  0  0
    7.3470   -4.8880   21.4140 N   0  0  0  0  0  0  0  0  0  0  0  0
    7.0420   -5.6350   22.6220 C   0  0  0  0  0  0  0  0  0  0  0  0
    5.8390   -5.0220   23.2980 C   0  0  0  0  0  0  0  0  0  0  0  0
    6.0200   -3.5740   23.8010 C   0  0  0  0  0  0  0  0  0  0  0  0
    4.5980   -5.7070   23.4710 C   0  0  0  0  0  0  0  0  0  0  0  0
    5.0650   -2.7180   24.4740 C   0  0  0  0  0  0  0  0  0  0  0  0
    3.5660   -4.8210   24.1830 C   0  0  0  0  0  0  0  0  0  0  0  0
    3.8370   -3.4410   24.6280 C   0  0  0  0  0  0  0  0  0  0  0  0
    2.3150   -5.1810   24.4880 O   0  0  0  0  0  0  0  0  0  0  0  0
    1.9320   -4.0080   25.3010 C   0  0  0  0  0  0  0  0  0  0  0  0
    2.7670   -2.8880   25.2270 O   0  0  0  0  0  0  0  0  0  0  0  0
  1  2  1  0
  2  3  1  0
  3  4  2  0
  3  5  2  0
  3  6  1  0
  6  7  1  0
  7  8  1  0
  8  9  2  0
  8 10  1  0
  9 11  1  0
 10 12  2  0
 11 13  2  0
 12 13  1  0
 12 14  1  0
 14 15  1  0
 13 16  1  0
 15 16  1  0
M  END
