JOH-MEM-4bb7e4cc-1-chloroacetamide
     RDKit          3D

 18 19  0  0  0  0  0  0  0  0999 V2000
    7.7000   -4.1170   21.0590 C   0  0  0  0  0  0  0  0  0  0  0  0
    8.1150   -2.7980   20.3920 C   0  0  0  0  0  0  0  0  0  0  0  0
    7.4200   -2.8450   19.1320 O   0  0  0  0  0  0  0  0  0  0  0  0
    9.1960   -1.7580   21.3010 C   0  0  0  0  0  0  0  0  0  0  0  0
   10.2300   -2.5010   22.2070 C   0  0  0  0  0  0  0  0  0  0  0  0
    9.3820   -0.2750   21.4290 C   0  0  0  0  0  0  0  0  0  0  0  0
   11.3830   -2.0540   23.1440 C   0  0  0  0  0  0  0  0  0  0  0  0
   10.4410    0.2810   22.2530 C   0  0  0  0  0  0  0  0  0  0  0  0
   11.2420   -0.6000   22.9370 C   0  0  0  0  0  0  0  0  0  0  0  0
   10.9910    1.6750   22.6170 C   0  0  0  0  0  0  0  0  0  0  0  0
   12.1870    0.1190   23.6110 N   0  0  0  0  0  0  0  0  0  0  0  0
   12.0690    1.4750   23.4100 C   0  0  0  0  0  0  0  0  0  0  0  0
   10.6830    3.1420   22.3170 C   0  0  0  0  0  0  0  0  0  0  0  0
   11.7620    4.0600   22.5840 C   0  0  0  0  0  0  0  0  0  0  0  0
   11.3920    5.3930   22.5380 N   0  0  0  0  0  0  0  0  0  0  0  0
   10.3140    5.8490   23.3090 C   0  0  0  0  0  0  0  0  0  0  0  0
    9.2330    6.4010   22.6240 C   0  0  0  0  0  0  0  0  0  0  0  0
   10.3110    5.7800   24.6740 O   0  0  0  0  0  0  0  0  0  0  0  0
  1  2  1  0
  2  3  2  0
  2  4  1  0
  4  5  2  0
  4  6  1  0
  5  7  1  0
  6  8  2  0
  7  9  2  0
  8  9  1  0
  8 10  1  0
  9 11  1  0
 10 12  2  0
 11 12  1  0
 10 13  1  0
 13 14  1  0
 14 15  1  0
 15 16  1  0
 16 17  1  0
 16 18  2  0
M  END
