JOH-UNI-e19b918c-5-nitrile
     RDKit          3D

 14 16  0  0  0  0  0  0  0  0999 V2000
    6.9390   -4.4560   20.2410 C   0  0  0  0  0  0  0  0  0  0  0  0
    6.2220   -3.6290   19.5670 N   0  0  0  0  0  0  0  0  0  0  0  0
    7.3050   -4.3640   21.5610 N   0  0  0  0  0  0  0  0  0  0  0  0
    7.0400   -3.1330   22.3330 C   0  0  0  0  0  0  0  0  0  0  0  0
    6.9080   -5.4900   22.4460 C   0  0  0  0  0  0  0  0  0  0  0  0
    5.8130   -3.5400   23.1480 C   0  0  0  0  0  0  0  0  0  0  0  0
    5.7270   -4.9200   23.1950 C   0  0  0  0  0  0  0  0  0  0  0  0
    4.8250   -2.5800   23.7920 C   0  0  0  0  0  0  0  0  0  0  0  0
    4.5990   -5.6540   23.8940 C   0  0  0  0  0  0  0  0  0  0  0  0
    3.7300   -3.4090   24.4720 C   0  0  0  0  0  0  0  0  0  0  0  0
    3.6480   -4.8730   24.4960 C   0  0  0  0  0  0  0  0  0  0  0  0
    2.5640   -5.3110   25.1600 O   0  0  0  0  0  0  0  0  0  0  0  0
    2.7770   -2.9040   25.0800 O   0  0  0  0  0  0  0  0  0  0  0  0
    1.9370   -4.0400   25.3960 C   0  0  0  0  0  0  0  0  0  0  0  0
  1  2  2  3
  1  3  1  0
  3  4  1  0
  3  5  1  0
  4  6  1  0
  5  7  1  0
  6  7  2  0
  6  8  1  0
  7  9  1  0
  8 10  2  0
  9 11  2  0
 10 11  1  0
 11 12  1  0
 10 13  1  0
 12 14  1  0
 13 14  1  0
M  END
