JOH-UNI-522b0723-9-vinylsulfonamide
     RDKit          3D

 28 30  0  0  0  0  0  0  0  0999 V2000
    7.2770   -3.0660   19.0220 C   0  0  0  0  0  0  0  0  0  0  0  0
    7.4670   -1.8650   19.9400 C   0  0  0  0  0  0  0  0  0  0  0  0
    6.0780   -1.8770   21.0800 S   0  0  0  0  0  0  0  0  0  0  0  0
    4.9900   -3.1030   20.9060 O   0  0  0  0  0  0  0  0  0  0  0  0
    5.5730   -0.5260   21.0880 O   0  0  0  0  0  0  0  0  0  0  0  0
    7.1570   -2.0590   22.5110 C   0  0  0  0  0  0  0  0  0  0  0  0
    8.0670   -3.0450   22.2930 N   0  0  0  0  0  0  0  0  0  0  0  0
    7.1410   -1.3690   23.7410 C   0  0  0  0  0  0  0  0  0  0  0  0
    8.9580   -3.4720   23.2670 C   0  0  0  0  0  0  0  0  0  0  0  0
    8.0500   -1.8240   24.7270 C   0  0  0  0  0  0  0  0  0  0  0  0
    6.1250   -0.2030   23.9790 C   0  0  0  0  0  0  0  0  0  0  0  0
    8.9350   -2.8900   24.5190 C   0  0  0  0  0  0  0  0  0  0  0  0
    5.8260    0.0500   25.1460 O   0  0  0  0  0  0  0  0  0  0  0  0
    5.6100    0.4860   22.9290 N   0  0  0  0  0  0  0  0  0  0  0  0
    9.7390   -3.4390   25.3910 N   0  0  0  0  0  0  0  0  0  0  0  0
    6.1490    1.6810   22.6330 C   0  0  0  0  0  0  0  0  0  0  0  0
   10.3620   -4.4610   24.8310 C   0  0  0  0  0  0  0  0  0  0  0  0
    8.6940   -3.9480   26.3250 C   0  0  0  0  0  0  0  0  0  0  0  0
    7.5200    2.0100   22.8530 C   0  0  0  0  0  0  0  0  0  0  0  0
    5.2930    2.6490   22.0680 C   0  0  0  0  0  0  0  0  0  0  0  0
    9.1820   -5.3720   24.5370 C   0  0  0  0  0  0  0  0  0  0  0  0
    7.6100   -4.8710   25.5860 C   0  0  1  0  0  0  0  0  0  0  0  0
    8.0500    3.3770   22.4880 C   0  0  0  0  0  0  0  0  0  0  0  0
    5.7140    3.9320   21.7060 C   0  0  0  0  0  0  0  0  0  0  0  0
    8.0820   -5.6580   24.5270 N   0  0  0  0  0  0  0  0  0  0  0  0
    6.8410   -5.6990   26.6280 C   0  0  0  0  0  0  0  0  0  0  0  0
    7.0330    4.3220   21.8920 C   0  0  0  0  0  0  0  0  0  0  0  0
    7.2860   -5.7880   23.4400 C   0  0  0  0  0  0  0  0  0  0  0  0
  1  2  1  0
  3  2  1  0
  3  4  2  0
  3  5  2  0
  3  6  1  0
  6  7  2  0
  6  8  1  0
  7  9  1  0
  8 10  2  0
  8 11  1  0
  9 12  2  0
 10 12  1  0
 11 13  2  0
 11 14  1  0
 12 15  1  0
 14 16  1  0
 15 17  1  0
 15 18  1  0
 16 19  2  0
 16 20  1  0
 17 21  1  0
 18 22  1  0
 19 23  1  0
 20 24  2  0
 21 25  1  0
 22 25  1  0
 22 26  1  1
 23 27  2  0
 24 27  1  0
 25 28  1  0
M  END
