JOH-MSK-35a8745a-1
     RDKit          3D

 17 18  0  0  0  0  0  0  0  0999 V2000
   13.1320   -2.5110   21.0890 C   0  0  0  0  0  0  0  0  0  0  0  0
   13.4830   -2.1290   22.3990 O   0  0  0  0  0  0  0  0  0  0  0  0
   12.6710   -1.1580   22.8320 C   0  0  0  0  0  0  0  0  0  0  0  0
   11.5370   -1.6460   23.4830 C   0  0  0  0  0  0  0  0  0  0  0  0
   12.8930    0.2110   22.6620 C   0  0  0  0  0  0  0  0  0  0  0  0
   10.6280   -0.7370   23.9540 C   0  0  0  0  0  0  0  0  0  0  0  0
   11.9460    1.1360   23.1350 C   0  0  0  0  0  0  0  0  0  0  0  0
   10.8390    0.6150   23.7720 C   0  0  0  0  0  0  0  0  0  0  0  0
   11.7820    2.5640   23.1410 C   0  0  0  0  0  0  0  0  0  0  0  0
   10.0540    1.6350   24.1540 N   0  0  0  0  0  0  0  0  0  0  0  0
   10.5800    2.8220   23.7910 C   0  0  0  0  0  0  0  0  0  0  0  0
   12.6610    3.6700   22.5760 C   0  0  0  0  0  0  0  0  0  0  0  0
   12.4610    5.0590   23.1330 C   0  0  0  0  0  0  0  0  0  0  0  0
   11.2930    5.7330   22.5670 N   0  0  0  0  0  0  0  0  0  0  0  0
   10.2800    6.1860   23.3730 C   0  0  0  0  0  0  0  0  0  0  0  0
    9.0260    6.5820   22.5830 C   0  0  0  0  0  0  0  0  0  0  0  0
   10.3520    6.2820   24.5960 O   0  0  0  0  0  0  0  0  0  0  0  0
  1  2  1  0
  2  3  1  0
  3  4  2  0
  3  5  1  0
  4  6  1  0
  5  7  2  0
  6  8  2  0
  7  8  1  0
  7  9  1  0
  8 10  1  0
  9 11  2  0
 10 11  1  0
  9 12  1  0
 12 13  1  0
 13 14  1  0
 14 15  1  0
 15 16  1  0
 15 17  2  0
M  END
