JOH-UNI-27ac80fd-23-chloroacetamide
     RDKit          3D

 16 17  0  0  0  0  0  0  0  0999 V2000
    7.3850   -3.0030   18.7930 C   0  0  0  0  0  0  0  0  0  0  0  0
    6.3990   -3.2670   19.9090 C   0  0  0  0  0  0  0  0  0  0  0  0
    5.4540   -4.0500   19.7230 O   0  0  0  0  0  0  0  0  0  0  0  0
    6.6040   -2.6340   21.1150 N   0  0  0  0  0  0  0  0  0  0  0  0
    7.5230   -1.4960   21.3070 C   0  0  0  0  0  0  0  0  0  0  0  0
    6.2570   -3.3820   22.3220 C   0  0  0  0  0  0  0  0  0  0  0  0
    8.7920   -2.1120   21.9880 C   0  0  0  0  0  0  0  0  0  0  0  0
    7.4970   -3.7790   23.1280 C   0  0  0  0  0  0  0  0  0  0  0  0
    8.3960   -2.6300   23.3350 N   0  0  0  0  0  0  0  0  0  0  0  0
    9.5480   -3.0660   24.1480 C   0  0  0  0  0  0  0  0  0  0  0  0
    9.0600   -3.9470   25.2560 C   0  0  0  0  0  0  0  0  0  0  0  0
    9.8060   -5.2600   25.3850 C   0  0  0  0  0  0  0  0  0  0  0  0
    7.8070   -3.7360   26.3920 S   0  0  0  0  0  0  0  0  0  0  0  0
    9.2850   -6.0300   26.4380 C   0  0  0  0  0  0  0  0  0  0  0  0
    8.1280   -5.2560   27.0870 C   0  0  0  0  0  0  0  0  0  0  0  0
    7.0930   -5.8900   28.5460 Br  0  0  0  0  0  0  0  0  0  0  0  0
  1  2  1  0
  2  3  2  0
  2  4  1  0
  4  5  1  0
  4  6  1  0
  5  7  1  0
  6  8  1  0
  7  9  1  0
  8  9  1  0
  9 10  1  0
 10 11  1  0
 11 12  2  0
 11 13  1  0
 12 14  1  0
 13 15  1  0
 14 15  2  0
 15 16  1  0
M  END
