JOH-UNI-e19b918c-12-nitrile
     RDKit          3D

 15 17  0  0  0  0  0  0  0  0999 V2000
    7.0400   -4.0280   20.1320 C   0  0  0  0  0  0  0  0  0  0  0  0
    5.8340   -3.9280   19.7480 N   0  0  0  0  0  0  0  0  0  0  0  0
    7.4580   -4.1910   21.4210 N   0  0  0  0  0  0  0  0  0  0  0  0
    8.1380   -3.1130   22.1710 C   0  0  0  0  0  0  0  0  0  0  0  0
    6.9760   -5.3290   22.2020 C   0  0  0  0  0  0  0  0  0  0  0  0
    7.3230   -2.5980   23.3710 C   0  0  0  0  0  0  0  0  0  0  0  0
    5.8630   -4.7330   23.0390 C   0  0  0  0  0  0  0  0  0  0  0  0
    6.0470   -3.4220   23.5820 C   0  0  0  0  0  0  0  0  0  0  0  0
    4.5460   -5.4650   23.3180 C   0  0  0  0  0  0  0  0  0  0  0  0
    4.9510   -2.7630   24.4200 C   0  0  0  0  0  0  0  0  0  0  0  0
    3.4620   -4.7910   24.1570 C   0  0  0  0  0  0  0  0  0  0  0  0
    3.7540   -3.5480   24.6110 C   0  0  0  0  0  0  0  0  0  0  0  0
    2.3620   -5.2310   24.4690 O   0  0  0  0  0  0  0  0  0  0  0  0
    1.9250   -4.1180   25.2890 C   0  0  0  0  0  0  0  0  0  0  0  0
    2.8720   -3.0210   25.2810 O   0  0  0  0  0  0  0  0  0  0  0  0
  1  2  2  3
  1  3  1  0
  3  4  1  0
  3  5  1  0
  4  6  1  0
  5  7  1  0
  6  8  1  0
  7  8  2  0
  7  9  1  0
  8 10  1  0
  9 11  2  0
 10 12  2  0
 11 12  1  0
 11 13  1  0
 13 14  1  0
 12 15  1  0
 14 15  1  0
M  END
