JOH-UNI-9dc98897-10-chloroacetamide
     RDKit          3D

 20 21  0  0  0  0  0  0  0  0999 V2000
    7.5020   -2.9980   19.2130 C   0  0  0  0  0  0  0  0  0  0  0  0
    6.3310   -3.2360   20.0850 C   0  0  0  0  0  0  0  0  0  0  0  0
    5.3010   -3.7210   19.6120 O   0  0  0  0  0  0  0  0  0  0  0  0
    6.5660   -2.9710   21.5190 C   0  0  0  0  0  0  0  0  0  0  0  0
    6.7540   -1.5480   22.1530 C   0  0  0  0  0  0  0  0  0  0  0  0
    6.6180   -4.1140   22.1730 N   0  0  0  0  0  0  0  0  0  0  0  0
    7.0430   -1.5690   23.7130 C   0  0  0  0  0  0  0  0  0  0  0  0
    6.8760   -4.1170   23.5580 C   0  0  0  0  0  0  0  0  0  0  0  0
    7.0910   -2.9800   24.3560 C   0  0  0  0  0  0  0  0  0  0  0  0
    6.8920   -5.4900   24.0720 C   0  0  0  0  0  0  0  0  0  0  0  0
    7.3330   -3.1880   25.6610 N   0  0  0  0  0  0  0  0  0  0  0  0
    5.6640   -5.8630   24.5620 F   0  0  0  0  0  0  0  0  0  0  0  0
    7.7850   -5.7060   25.0710 F   0  0  0  0  0  0  0  0  0  0  0  0
    7.1620   -6.4020   23.0870 F   0  0  0  0  0  0  0  0  0  0  0  0
    8.7350   -3.6910   25.7070 C   0  0  0  0  0  0  0  0  0  0  0  0
    6.2550   -3.8680   26.3980 C   0  0  0  0  0  0  0  0  0  0  0  0
    8.9300   -4.6660   26.9090 C   0  0  0  0  0  0  0  0  0  0  0  0
    6.4230   -3.6690   27.9080 C   0  0  0  0  0  0  0  0  0  0  0  0
    7.8030   -5.2120   27.8310 C   0  0  0  0  0  0  0  0  0  0  0  0
    7.3450   -4.2550   28.4650 O   0  0  0  0  0  0  0  0  0  0  0  0
  1  2  1  0
  2  3  2  0
  2  4  1  0
  4  5  2  0
  4  6  1  0
  5  7  1  0
  6  8  2  0
  7  9  2  0
  8  9  1  0
  8 10  1  0
  9 11  1  0
 10 12  1  0
 10 13  1  0
 10 14  1  0
 11 15  1  0
 11 16  1  0
 15 17  1  0
 16 18  1  0
 17 19  1  0
 18 20  1  0
 19 20  1  0
M  END
