JOH-UNI-9dc98897-10-acrylamide
     RDKit          3D

 21 22  0  0  0  0  0  0  0  0999 V2000
    7.8510   -5.3160   20.3500 C   0  0  0  0  0  0  0  0  0  0  0  0
    7.2040   -3.9160   20.2750 C   0  0  0  0  0  0  0  0  0  0  0  0
    6.3450   -3.6870   21.4710 C   0  0  0  0  0  0  0  0  0  0  0  0
    5.1030   -3.6850   21.4240 O   0  0  0  0  0  0  0  0  0  0  0  0
    6.9960   -3.5100   22.7640 C   0  0  0  0  0  0  0  0  0  0  0  0
    6.4260   -4.8410   22.9310 C   0  0  0  0  0  0  0  0  0  0  0  0
    7.3680   -2.2720   22.2500 N   0  0  0  0  0  0  0  0  0  0  0  0
    7.0310   -4.8450   24.3070 C   0  0  0  0  0  0  0  0  0  0  0  0
    7.9640   -2.2750   23.5960 C   0  0  0  0  0  0  0  0  0  0  0  0
    7.8050   -3.4310   24.5010 C   0  0  0  0  0  0  0  0  0  0  0  0
    8.7460   -1.0350   23.9960 C   0  0  0  0  0  0  0  0  0  0  0  0
    8.3630   -3.4080   25.7190 N   0  0  0  0  0  0  0  0  0  0  0  0
    8.1350   -0.3460   25.0100 F   0  0  0  0  0  0  0  0  0  0  0  0
   10.0190   -1.2230   24.4450 F   0  0  0  0  0  0  0  0  0  0  0  0
    8.8450   -0.1380   22.9700 F   0  0  0  0  0  0  0  0  0  0  0  0
    9.6370   -3.7110   26.1000 C   0  0  0  0  0  0  0  0  0  0  0  0
    7.3480   -3.7950   26.7160 C   0  0  0  0  0  0  0  0  0  0  0  0
   10.1220   -5.1180   25.7850 C   0  0  0  0  0  0  0  0  0  0  0  0
    7.5420   -5.0860   27.1970 C   0  0  0  0  0  0  0  0  0  0  0  0
    9.3880   -6.1120   26.6750 C   0  0  0  0  0  0  0  0  0  0  0  0
    8.1930   -5.9860   26.4110 O   0  0  0  0  0  0  0  0  0  0  0  0
  1  2  1  0
  2  3  1  0
  3  4  2  0
  3  5  1  0
  5  6  2  0
  5  7  1  0
  6  8  1  0
  7  9  2  0
  8 10  2  0
  9 10  1  0
  9 11  1  0
 10 12  1  0
 11 13  1  0
 11 14  1  0
 11 15  1  0
 12 16  1  0
 12 17  1  0
 16 18  1  0
 17 19  1  0
 18 20  1  0
 19 21  1  0
 20 21  1  0
M  END
