JOH-UNI-27ac80fd-28-nitrile
     RDKit          3D

 16 17  0  0  0  0  0  0  0  0999 V2000
    6.8560   -3.3290   19.6150 C   0  0  0  0  0  0  0  0  0  0  0  0
    5.9340   -3.1110   18.7550 N   0  0  0  0  0  0  0  0  0  0  0  0
    6.8820   -2.7890   20.8880 N   0  0  0  0  0  0  0  0  0  0  0  0
    6.4270   -3.5300   22.0610 C   0  0  0  0  0  0  0  0  0  0  0  0
    7.6120   -1.5510   21.1960 C   0  0  0  0  0  0  0  0  0  0  0  0
    7.6300   -3.8880   22.9450 C   0  0  0  0  0  0  0  0  0  0  0  0
    8.6230   -1.6510   22.3910 C   0  0  1  0  0  0  0  0  0  0  0  0
    8.3950   -2.7140   23.3860 N   0  0  0  0  0  0  0  0  0  0  0  0
   10.0690   -1.7870   21.9070 C   0  0  0  0  0  0  0  0  0  0  0  0
    9.5530   -3.0540   24.2180 C   0  0  0  0  0  0  0  0  0  0  0  0
    9.2290   -4.0930   25.2430 C   0  0  0  0  0  0  0  0  0  0  0  0
    9.8200   -5.3170   25.4650 C   0  0  0  0  0  0  0  0  0  0  0  0
    7.9490   -3.8240   26.3420 S   0  0  0  0  0  0  0  0  0  0  0  0
    9.2170   -6.0280   26.5310 C   0  0  0  0  0  0  0  0  0  0  0  0
    8.1900   -5.3140   27.0770 C   0  0  0  0  0  0  0  0  0  0  0  0
    7.0960   -5.8860   28.5230 Br  0  0  0  0  0  0  0  0  0  0  0  0
  1  2  2  3
  1  3  1  0
  3  4  1  0
  3  5  1  0
  4  6  1  0
  5  7  1  0
  6  8  1  0
  7  8  1  0
  7  9  1  6
  8 10  1  0
 10 11  1  0
 11 12  2  0
 11 13  1  0
 12 14  1  0
 13 15  1  0
 14 15  2  0
 15 16  1  0
M  END
