JOK-SYG-302da050-2-nitrile
     RDKit          3D

 24 26  0  0  0  0  0  0  0  0999 V2000
    6.6220   -3.7730   19.9060 C   0  0  0  0  0  0  0  0  0  0  0  0
    5.8750   -4.7950   19.9890 N   0  0  0  0  0  0  0  0  0  0  0  0
    6.5460   -2.8490   20.9180 N   0  0  0  0  0  0  0  0  0  0  0  0
    7.2260   -1.5390   20.8650 C   0  0  0  0  0  0  0  0  0  0  0  0
    6.1470   -3.2710   22.2590 C   0  0  0  0  0  0  0  0  0  0  0  0
    8.4380   -1.5520   21.8220 C   0  0  0  0  0  0  0  0  0  0  0  0
    7.3820   -3.3130   23.1650 C   0  0  0  0  0  0  0  0  0  0  0  0
    8.1120   -2.0400   23.1800 N   0  0  0  0  0  0  0  0  0  0  0  0
    9.2770   -2.1090   24.0320 C   0  0  0  0  0  0  0  0  0  0  0  0
   10.4140   -1.2420   23.5810 C   0  0  0  0  0  0  0  0  0  0  0  0
   11.6410   -1.8430   23.3310 C   0  0  0  0  0  0  0  0  0  0  0  0
   10.3610    0.1600   23.3780 C   0  0  0  0  0  0  0  0  0  0  0  0
   12.7130   -1.0980   22.9350 C   0  0  0  0  0  0  0  0  0  0  0  0
   11.4610    0.9310   22.9840 C   0  0  0  0  0  0  0  0  0  0  0  0
    9.3060    1.0470   23.5030 N   0  0  0  0  0  0  0  0  0  0  0  0
   13.8260   -1.7390   22.7050 F   0  0  0  0  0  0  0  0  0  0  0  0
   12.6740    0.2700   22.7670 C   0  0  0  0  0  0  0  0  0  0  0  0
   11.0450    2.3130   22.8910 C   0  0  0  0  0  0  0  0  0  0  0  0
    9.7050    2.3310   23.2130 C   0  0  0  0  0  0  0  0  0  0  0  0
   11.8820    3.5070   22.5180 C   0  0  0  0  0  0  0  0  0  0  0  0
   11.3750    5.0300   23.3660 S   0  0  0  0  0  0  0  0  0  0  0  0
    9.7870    5.2200   22.8400 N   0  0  0  0  0  0  0  0  0  0  0  0
   12.0560    6.1820   22.8140 O   0  0  0  0  0  0  0  0  0  0  0  0
   11.2320    4.8300   24.7900 O   0  0  0  0  0  0  0  0  0  0  0  0
  1  2  2  3
  1  3  1  0
  3  4  1  0
  3  5  1  0
  4  6  1  0
  5  7  1  0
  6  8  1  0
  7  8  1  0
  8  9  1  0
  9 10  1  0
 10 11  2  0
 10 12  1  0
 11 13  1  0
 12 14  2  0
 12 15  1  0
 13 16  1  0
 13 17  2  0
 14 17  1  0
 14 18  1  0
 15 19  1  0
 18 19  2  0
 18 20  1  0
 20 21  1  0
 21 22  1  0
 21 23  2  0
 21 24  2  0
M  END
