JOK-SYG-302da050-1-vinylsulfonamide
     RDKit          3D

 28 30  0  0  0  0  0  0  0  0999 V2000
    6.4930   -4.9760   20.4110 C   0  0  0  0  0  0  0  0  0  0  0  0
    5.9050   -5.7640   21.5820 C   0  0  0  0  0  0  0  0  0  0  0  0
    5.3150   -4.8000   22.9500 S   0  0  0  0  0  0  0  0  0  0  0  0
    4.2090   -3.9870   22.5300 O   0  0  0  0  0  0  0  0  0  0  0  0
    5.1690   -5.6740   24.0890 O   0  0  0  0  0  0  0  0  0  0  0  0
    6.5450   -3.7190   23.3220 N   0  0  0  0  0  0  0  0  0  0  0  0
    7.9790   -4.0880   23.0780 C   0  0  0  0  0  0  0  0  0  0  0  0
    6.3490   -3.1250   24.6760 C   0  0  0  0  0  0  0  0  0  0  0  0
    8.9010   -2.8630   23.2640 C   0  0  0  0  0  0  0  0  0  0  0  0
    7.1910   -1.8630   24.7680 C   0  0  0  0  0  0  0  0  0  0  0  0
    8.6190   -2.0960   24.4950 N   0  0  0  0  0  0  0  0  0  0  0  0
    9.3410   -0.8580   24.7470 C   0  0  0  0  0  0  0  0  0  0  0  0
   10.6070   -0.5850   23.9750 C   0  0  0  0  0  0  0  0  0  0  0  0
   11.5220   -1.5320   23.4710 C   0  0  0  0  0  0  0  0  0  0  0  0
   10.9040    0.7520   23.7400 C   0  0  0  0  0  0  0  0  0  0  0  0
   12.6550   -1.0970   22.7980 C   0  0  0  0  0  0  0  0  0  0  0  0
   12.0240    1.2240   23.0770 C   0  0  0  0  0  0  0  0  0  0  0  0
   10.1540    1.8270   24.1170 N   0  0  0  0  0  0  0  0  0  0  0  0
   13.5070   -1.9960   22.3200 F   0  0  0  0  0  0  0  0  0  0  0  0
   12.9280    0.2540   22.6060 C   0  0  0  0  0  0  0  0  0  0  0  0
   11.9090    2.6710   23.0700 C   0  0  0  0  0  0  0  0  0  0  0  0
   10.7440    2.9740   23.7190 C   0  0  0  0  0  0  0  0  0  0  0  0
   12.8080    3.7280   22.4950 C   0  0  0  0  0  0  0  0  0  0  0  0
   12.5470    5.1290   23.0610 C   0  0  0  0  0  0  0  0  0  0  0  0
   11.3360    5.7420   22.5280 N   0  0  0  0  0  0  0  0  0  0  0  0
   10.3260    6.1800   23.3580 C   0  0  0  0  0  0  0  0  0  0  0  0
    9.0830    6.5800   22.6080 C   0  0  0  0  0  0  0  0  0  0  0  0
   10.4110    6.2510   24.5790 O   0  0  0  0  0  0  0  0  0  0  0  0
  1  2  1  0
  3  2  1  0
  3  4  2  0
  3  5  2  0
  3  6  1  0
  6  7  1  0
  6  8  1  0
  7  9  1  0
  8 10  1  0
  9 11  1  0
 10 11  1  0
 11 12  1  0
 12 13  1  0
 13 14  2  0
 13 15  1  0
 14 16  1  0
 15 17  2  0
 15 18  1  0
 16 19  1  0
 16 20  2  0
 17 20  1  0
 17 21  1  0
 18 22  1  0
 21 22  2  0
 21 23  1  0
 23 24  1  0
 24 25  1  0
 25 26  1  0
 26 27  1  0
 26 28  2  0
M  END
