JOK-SYG-a0b0bf84-1-acrylamide
     RDKit          3D

 19 19  0  0  0  0  0  0  0  0999 V2000
    7.1330   -3.1080   18.7790 C   0  0  0  0  0  0  0  0  0  0  0  0
    6.9220   -2.0430   19.8230 C   0  0  0  0  0  0  0  0  0  0  0  0
    6.2570   -2.5410   21.0950 C   0  0  0  0  0  0  0  0  0  0  0  0
    5.0640   -3.2500   21.0820 O   0  0  0  0  0  0  0  0  0  0  0  0
    7.1100   -2.1020   22.2250 N   0  0  0  0  0  0  0  0  0  0  0  0
    8.3160   -2.8280   22.7990 C   0  0  2  0  0  0  0  0  0  0  0  0
    7.9500   -3.4240   24.1590 C   0  0  0  0  0  0  0  0  0  0  0  0
    9.6220   -2.3140   23.0250 C   0  0  0  0  0  0  0  0  0  0  0  0
    7.5520   -3.4830   25.2400 N   0  0  0  0  0  0  0  0  0  0  0  0
   10.0130   -1.8910   24.2760 C   0  0  0  0  0  0  0  0  0  0  0  0
   10.6640   -2.2400   22.0610 C   0  0  0  0  0  0  0  0  0  0  0  0
    8.1300   -4.6620   26.3070 S   0  0  0  0  0  0  0  0  0  0  0  0
   11.2740   -1.4610   24.5480 C   0  0  0  0  0  0  0  0  0  0  0  0
   11.9760   -1.7810   22.3690 C   0  0  0  0  0  0  0  0  0  0  0  0
    6.7070   -5.3790   26.9890 C   0  0  0  0  0  0  0  0  0  0  0  0
    8.7920   -3.9770   27.3770 O   0  0  0  0  0  0  0  0  0  0  0  0
    8.8330   -5.6670   25.5620 O   0  0  0  0  0  0  0  0  0  0  0  0
   12.3000   -1.3710   23.6460 C   0  0  0  0  0  0  0  0  0  0  0  0
   13.1870   -1.7470   21.1860 Cl  0  0  0  0  0  0  0  0  0  0  0  0
  1  2  1  0
  2  3  1  0
  3  4  2  0
  3  5  1  0
  5  6  1  0
  6  7  1  1
  6  8  1  0
  7  9  1  0
  8 10  2  0
  8 11  1  0
 12  9  1  0
 10 13  1  0
 11 14  2  0
 12 15  1  0
 12 16  2  0
 12 17  2  0
 13 18  2  0
 14 18  1  0
 14 19  1  0
M  END
