JON-UIO-066ce08b-10-acrylamide
     RDKit          3D

 25 26  0  0  0  0  0  0  0  0999 V2000
    7.8730   -3.8710   20.5960 C   0  0  0  0  0  0  0  0  0  0  0  0
    7.2630   -2.4790   20.9750 C   0  0  0  0  0  0  0  0  0  0  0  0
    5.8670   -2.6360   21.6020 C   0  0  0  0  0  0  0  0  0  0  0  0
    4.8730   -3.0390   20.9630 O   0  0  0  0  0  0  0  0  0  0  0  0
    5.6890   -2.3310   23.0430 C   0  0  0  0  0  0  0  0  0  0  0  0
    5.3930   -0.9030   23.5240 C   0  0  0  0  0  0  0  0  0  0  0  0
    5.7990   -3.3880   23.9140 C   0  0  0  0  0  0  0  0  0  0  0  0
    5.2130   -0.6560   25.0660 C   0  0  0  0  0  0  0  0  0  0  0  0
    5.6370   -3.2180   25.4160 C   0  0  0  0  0  0  0  0  0  0  0  0
    5.3470   -1.8830   26.0220 C   0  0  0  0  0  0  0  0  0  0  0  0
    5.8140   -4.4990   25.9520 C   0  0  0  0  0  0  0  0  0  0  0  0
    5.1390   -1.4290   27.4760 C   0  0  2  0  0  0  0  0  0  0  0  0
    6.1240   -5.4050   24.9610 N   0  0  0  0  0  0  0  0  0  0  0  0
    4.9990   -2.5790   28.4870 C   0  0  0  0  0  0  0  0  0  0  0  0
    3.8410   -0.7520   27.4410 O   0  0  0  0  0  0  0  0  0  0  0  0
    5.8680   -0.3720   27.8530 F   0  0  0  0  0  0  0  0  0  0  0  0
    5.0290   -5.9470   24.2990 C   0  0  0  0  0  0  0  0  0  0  0  0
    7.4750   -5.3430   24.3410 C   0  0  0  0  0  0  0  0  0  0  0  0
    5.3130   -6.5900   23.1030 C   0  0  0  0  0  0  0  0  0  0  0  0
    7.3160   -5.1700   22.9520 C   0  0  0  0  0  0  0  0  0  0  0  0
    6.1450   -5.7520   22.2860 N   0  0  0  0  0  0  0  0  0  0  0  0
    5.6680   -5.1700   21.0190 C   0  0  0  0  0  0  0  0  0  0  0  0
    5.4480   -5.8330   20.0100 O   0  0  0  0  0  0  0  0  0  0  0  0
    5.4530   -3.6880   21.0620 C   0  0  0  0  0  0  0  0  0  0  0  0
    5.3020   -3.0730   19.6810 C   0  0  0  0  0  0  0  0  0  0  0  0
  1  2  1  0
  2  3  1  0
  3  4  2  0
  3  5  1  0
  5  6  2  0
  5  7  1  0
  6  8  1  0
  7  9  2  0
  8 10  2  0
  9 10  1  0
  9 11  1  0
 10 12  1  0
 11 13  1  0
 12 14  1  1
 12 15  1  0
 12 16  1  0
 13 17  1  0
 13 18  1  0
 17 19  1  0
 18 20  1  0
 19 21  1  0
 20 21  1  0
 21 22  1  0
 22 23  2  0
 22 24  1  0
 24 25  1  0
M  END
