JON-UIO-066ce08b-12-acrylamide
     RDKit          3D

 27 29  0  0  0  0  0  0  0  0999 V2000
    6.5520   -4.9110   20.5160 C   0  0  0  0  0  0  0  0  0  0  0  0
    6.2020   -5.5600   21.8920 C   0  0  0  0  0  0  0  0  0  0  0  0
    5.3700   -4.7080   22.8250 C   0  0  0  0  0  0  0  0  0  0  0  0
    4.3150   -4.1820   22.5030 O   0  0  0  0  0  0  0  0  0  0  0  0
    5.8350   -4.5240   24.2240 C   0  0  2  0  0  0  0  0  0  0  0  0
    4.9480   -5.2740   25.2310 C   0  0  2  0  0  0  0  0  0  0  0  0
    5.9470   -3.1290   24.5120 C   0  0  0  0  0  0  0  0  0  0  0  0
    3.5090   -4.8710   24.7810 C   0  0  0  0  0  0  0  0  0  0  0  0
    5.0420   -4.6910   26.7100 C   0  0  0  0  0  0  0  0  0  0  0  0
    5.0660   -2.2120   23.9220 C   0  0  0  0  0  0  0  0  0  0  0  0
    7.3420   -2.6680   24.2190 C   0  0  0  0  0  0  0  0  0  0  0  0
    2.8180   -4.1160   25.9160 C   0  0  0  0  0  0  0  0  0  0  0  0
    3.8240   -4.0580   27.0400 C   0  0  0  0  0  0  0  0  0  0  0  0
    5.1900   -2.1060   22.5390 C   0  0  0  0  0  0  0  0  0  0  0  0
    7.5020   -2.4720   22.8460 C   0  0  0  0  0  0  0  0  0  0  0  0
    3.5630   -3.4620   28.2130 F   0  0  0  0  0  0  0  0  0  0  0  0
    6.4370   -1.6090   22.2760 N   0  0  0  0  0  0  0  0  0  0  0  0
    6.5630   -1.5230   20.9100 C   0  0  2  0  0  0  0  0  0  0  0  0
    8.0100   -1.5160   20.5250 C   0  0  0  0  0  0  0  0  0  0  0  0
    5.8160   -0.3130   20.3810 C   0  0  0  0  0  0  0  0  0  0  0  0
    8.6010   -0.6250   21.1330 O   0  0  0  0  0  0  0  0  0  0  0  0
    4.9240    0.5140   21.2420 C   0  0  0  0  0  0  0  0  0  0  0  0
    5.9460    0.0800   19.0300 C   0  0  0  0  0  0  0  0  0  0  0  0
    4.2140    1.7100   20.6250 C   0  0  0  0  0  0  0  0  0  0  0  0
    5.2730    1.1920   18.5100 C   0  0  0  0  0  0  0  0  0  0  0  0
    4.4260    1.9960   19.2730 C   0  0  0  0  0  0  0  0  0  0  0  0
    5.4540    1.4950   17.2320 F   0  0  0  0  0  0  0  0  0  0  0  0
  1  2  1  0
  2  3  1  0
  3  4  2  0
  5  3  1  6
  5  6  1  0
  5  7  1  0
  6  8  1  6
  6  9  1  0
  7 10  1  0
  7 11  1  0
  8 12  2  0
  9 13  2  0
 12 13  1  0
 10 14  1  0
 11 15  1  0
 13 16  1  0
 14 17  1  0
 15 17  1  0
 17 18  1  0
 18 19  1  1
 18 20  1  0
 19 21  1  0
 20 22  2  0
 20 23  1  0
 22 24  1  0
 23 25  2  0
 24 26  2  0
 25 26  1  0
 25 27  1  0
M  END
