JON-UIO-066ce08b-9
     RDKit          3D

 21 22  0  0  0  0  0  0  0  0999 V2000
    5.8790   -2.3670   26.3140 C   0  0  0  0  0  0  0  0  0  0  0  0
    4.3930   -2.5940   26.1130 C   0  0  0  0  0  0  0  0  0  0  0  0
    3.4890   -1.3520   26.1910 C   0  0  0  0  0  0  0  0  0  0  0  0
    3.9130   -3.8630   25.8760 C   0  0  0  0  0  0  0  0  0  0  0  0
    1.9690   -1.6290   25.9830 C   0  0  0  0  0  0  0  0  0  0  0  0
    2.4640   -4.2570   25.6560 C   0  0  0  0  0  0  0  0  0  0  0  0
    4.7200   -5.1770   25.7810 C   0  0  0  0  0  0  0  0  0  0  0  0
    1.4780   -3.0720   25.7190 C   0  0  0  0  0  0  0  0  0  0  0  0
    5.3760   -5.2900   24.4510 N   0  0  0  0  0  0  0  0  0  0  0  0
    4.7810   -5.6750   23.2880 C   0  0  0  0  0  0  0  0  0  0  0  0
    6.3040   -4.1800   24.1690 C   0  0  0  0  0  0  0  0  0  0  0  0
    5.6540   -6.1400   22.2820 C   0  0  0  0  0  0  0  0  0  0  0  0
    7.2570   -4.5290   23.2230 C   0  0  0  0  0  0  0  0  0  0  0  0
    6.5620   -5.0170   22.0250 N   0  0  0  0  0  0  0  0  0  0  0  0
    6.3290   -4.1780   20.8330 C   0  0  0  0  0  0  0  0  0  0  0  0
    5.5080   -4.5900   19.8220 O   0  0  0  0  0  0  0  0  0  0  0  0
    7.0530   -2.9810   20.8330 C   0  0  2  0  0  0  0  0  0  0  0  0
    7.0720   -2.5110   22.1210 F   0  0  0  0  0  0  0  0  0  0  0  0
    6.4380   -1.9150   20.1730 C   0  0  0  0  0  0  0  0  0  0  0  0
    5.4460   -2.3840   19.1420 C   0  0  0  0  0  0  0  0  0  0  0  0
    7.4390   -1.0080   19.5170 C   0  0  0  0  0  0  0  0  0  0  0  0
  1  2  1  0
  2  3  2  0
  2  4  1  0
  3  5  1  0
  4  6  2  0
  4  7  1  0
  5  8  2  0
  6  8  1  0
  7  9  1  0
  9 10  1  0
  9 11  1  0
 10 12  1  0
 11 13  1  0
 12 14  1  0
 13 14  1  0
 14 15  1  0
 15 16  2  0
 15 17  1  0
 17 18  1  1
 17 19  1  0
 19 20  1  0
 19 21  1  0
M  END
