JON-UIO-066ce08b-6-bromoalkyne
     RDKit          3D

 25 26  0  0  0  0  0  0  0  0999 V2000
    6.5030   -4.3690   20.4950 C   0  0  0  0  0  0  0  0  0  0  0  0
    5.5240   -3.5730   19.5970 C   0  0  0  0  0  0  0  0  0  0  0  0
    6.2640   -4.2950   22.0410 C   0  0  1  0  0  0  0  0  0  0  0  0
    4.9490   -4.0900   22.9330 C   0  0  0  0  0  0  0  0  0  0  0  0
    7.2580   -5.0690   22.9690 C   0  0  2  0  0  0  0  0  0  0  0  0
    4.9540   -2.6070   23.1930 C   0  0  0  0  0  0  0  0  0  0  0  0
    4.0080   -4.9430   23.4370 C   0  0  0  0  0  0  0  0  0  0  0  0
    6.5510   -6.0490   23.6010 F   0  0  0  0  0  0  0  0  0  0  0  0
    7.8680   -4.1830   23.8720 C   0  0  0  0  0  0  0  0  0  0  0  0
    3.9290   -1.7750   24.0770 C   0  0  0  0  0  0  0  0  0  0  0  0
    3.0570   -4.3670   24.2140 C   0  0  0  0  0  0  0  0  0  0  0  0
    3.9110   -6.6300   23.2030 S   0  0  0  0  0  0  0  0  0  0  0  0
    6.9560   -3.4020   24.5970 C   0  0  0  0  0  0  0  0  0  0  0  0
    9.1010   -3.4940   23.3310 C   0  0  0  0  0  0  0  0  0  0  0  0
    2.9880   -2.9930   24.5220 C   0  0  0  0  0  0  0  0  0  0  0  0
    2.1010   -5.1440   24.7450 F   0  0  0  0  0  0  0  0  0  0  0  0
    5.0540   -6.7400   22.0240 N   0  0  0  0  0  0  0  0  0  0  0  0
    2.6160   -6.8950   22.6070 O   0  0  0  0  0  0  0  0  0  0  0  0
    4.3640   -7.4100   24.3520 O   0  0  0  0  0  0  0  0  0  0  0  0
    6.9540   -2.0050   24.4490 C   0  0  0  0  0  0  0  0  0  0  0  0
    9.1390   -2.1150   23.4180 C   0  0  0  0  0  0  0  0  0  0  0  0
    7.7840   -1.6180   23.3240 N   0  0  0  0  0  0  0  0  0  0  0  0
    7.2280   -1.2740   22.0090 C   0  0  0  0  0  0  0  0  0  0  0  0
    8.0150   -1.8500   20.8740 C   0  0  0  0  0  0  0  0  0  0  0  0
    6.2360   -0.5770   21.8270 O   0  0  0  0  0  0  0  0  0  0  0  0
  1  2  2  3
  3  1  1  6
  3  4  1  0
  3  5  1  0
  4  6  2  0
  4  7  1  0
  5  8  1  1
  5  9  1  0
  6 10  1  0
  7 11  2  0
  7 12  1  0
  9 13  1  0
  9 14  1  0
 10 15  2  0
 11 15  1  0
 11 16  1  0
 12 17  1  0
 12 18  2  0
 12 19  2  0
 13 20  1  0
 14 21  1  0
 20 22  1  0
 21 22  1  0
 22 23  1  0
 23 24  1  0
 23 25  2  0
M  END
