JON-UIO-066ce08b-6-nitrile
     RDKit          3D

 25 26  0  0  0  0  0  0  0  0999 V2000
    6.7160   -4.1380   20.3960 C   0  0  0  0  0  0  0  0  0  0  0  0
    5.5880   -4.4890   19.9210 N   0  0  0  0  0  0  0  0  0  0  0  0
    6.7930   -3.2250   21.6100 C   0  0  1  0  0  0  0  0  0  0  0  0
    5.6280   -3.0050   22.6780 C   0  0  0  0  0  0  0  0  0  0  0  0
    8.1330   -3.6010   22.3170 C   0  0  2  0  0  0  0  0  0  0  0  0
    5.9950   -1.5830   23.1180 C   0  0  0  0  0  0  0  0  0  0  0  0
    4.5180   -3.7290   23.2210 C   0  0  0  0  0  0  0  0  0  0  0  0
    8.2320   -4.9180   22.1540 F   0  0  0  0  0  0  0  0  0  0  0  0
    8.2690   -3.3820   23.6810 C   0  0  0  0  0  0  0  0  0  0  0  0
    5.1480   -0.9000   24.1850 C   0  0  0  0  0  0  0  0  0  0  0  0
    3.7000   -3.1450   24.2150 C   0  0  0  0  0  0  0  0  0  0  0  0
    4.0160   -5.3210   22.7730 S   0  0  0  0  0  0  0  0  0  0  0  0
    7.1550   -3.5370   24.5160 C   0  0  0  0  0  0  0  0  0  0  0  0
    9.3700   -4.1650   24.0160 C   0  0  0  0  0  0  0  0  0  0  0  0
    3.9520   -1.7220   24.7560 C   0  0  0  0  0  0  0  0  0  0  0  0
    2.6530   -3.8020   24.7400 F   0  0  0  0  0  0  0  0  0  0  0  0
    4.6010   -6.4990   23.8190 N   0  0  0  0  0  0  0  0  0  0  0  0
    2.5740   -5.3960   22.8910 O   0  0  0  0  0  0  0  0  0  0  0  0
    4.6430   -5.5370   21.5060 O   0  0  0  0  0  0  0  0  0  0  0  0
    6.5950   -4.8030   24.6100 C   0  0  0  0  0  0  0  0  0  0  0  0
    9.0170   -5.3580   24.6850 C   0  0  0  0  0  0  0  0  0  0  0  0
    7.7170   -5.6840   24.1850 N   0  0  0  0  0  0  0  0  0  0  0  0
    7.5100   -6.5010   23.0050 C   0  0  0  0  0  0  0  0  0  0  0  0
    6.4270   -6.1710   22.0440 C   0  0  0  0  0  0  0  0  0  0  0  0
    8.2260   -7.4480   22.8500 O   0  0  0  0  0  0  0  0  0  0  0  0
  1  2  2  3
  3  1  1  6
  3  4  1  0
  3  5  1  0
  4  6  2  0
  4  7  1  0
  5  8  1  1
  5  9  1  0
  6 10  1  0
  7 11  2  0
  7 12  1  0
  9 13  1  0
  9 14  1  0
 10 15  2  0
 11 15  1  0
 11 16  1  0
 12 17  1  0
 12 18  2  0
 12 19  2  0
 13 20  1  0
 14 21  1  0
 20 22  1  0
 21 22  1  0
 22 23  1  0
 23 24  1  0
 23 25  2  0
M  END
