JON-UNI-2a110085-3
     RDKit          3D

 30 32  0  0  0  0  0  0  0  0999 V2000
    5.1160   -6.9880   28.0570 C   0  0  0  0  0  0  0  0  0  0  0  0
    5.6370   -5.7520   27.6920 N   0  0  0  0  0  0  0  0  0  0  0  0
    5.0500   -4.9220   26.7240 C   0  0  0  0  0  0  0  0  0  0  0  0
    4.0450   -5.3240   26.1510 O   0  0  0  0  0  0  0  0  0  0  0  0
    5.5830   -3.5260   26.3440 C   0  0  1  0  0  0  0  0  0  0  0  0
    4.8400   -2.6400   25.3360 C   0  0  0  0  0  0  0  0  0  0  0  0
    5.8150   -2.6580   27.5960 C   0  0  0  0  0  0  0  0  0  0  0  0
    5.0670   -1.2080   25.2910 N   0  0  0  0  0  0  0  0  0  0  0  0
    6.4150   -1.2690   27.2980 C   0  0  0  0  0  0  0  0  0  0  0  0
    6.0110   -0.6160   26.1760 C   0  0  0  0  0  0  0  0  0  0  0  0
    7.3330   -0.8070   28.2290 N   0  0  0  0  0  0  0  0  0  0  0  0
    6.4960    0.7470   25.7310 C   0  0  0  0  0  0  0  0  0  0  0  0
    6.4300    0.7990   24.2040 C   0  0  0  0  0  0  0  0  0  0  0  0
    7.2000   -0.3310   23.6200 C   0  0  0  0  0  0  0  0  0  0  0  0
    8.3520   -0.6740   24.3340 C   0  0  0  0  0  0  0  0  0  0  0  0
    6.8300   -1.0330   22.4360 C   0  0  0  0  0  0  0  0  0  0  0  0
    9.1960   -1.7470   23.8890 N   0  0  0  0  0  0  0  0  0  0  0  0
    7.6140   -2.1110   21.9350 C   0  0  0  0  0  0  0  0  0  0  0  0
    8.7530   -2.4280   22.6690 C   0  0  0  0  0  0  0  0  0  0  0  0
    7.2880   -2.8300   20.7590 C   0  0  0  0  0  0  0  0  0  0  0  0
    9.6010   -3.4390   22.3240 C   0  0  0  0  0  0  0  0  0  0  0  0
    6.3710   -3.8940   20.8150 C   0  0  0  0  0  0  0  0  0  0  0  0
   10.0010   -4.1100   23.4700 N   0  0  0  0  0  0  0  0  0  0  0  0
    5.5010   -4.0410   19.9370 O   0  0  0  0  0  0  0  0  0  0  0  0
    6.4720   -4.8370   21.8310 N   0  0  0  0  0  0  0  0  0  0  0  0
    7.1620   -4.6140   23.0740 C   0  0  0  0  0  0  0  0  0  0  0  0
    5.6480   -6.0130   22.0190 C   0  0  0  0  0  0  0  0  0  0  0  0
    6.0330   -4.8550   24.0500 C   0  0  0  0  0  0  0  0  0  0  0  0
    4.9640   -5.7210   23.3550 C   0  0  1  0  0  0  0  0  0  0  0  0
    3.7570   -4.7860   23.2050 C   0  0  0  0  0  0  0  0  0  0  0  0
  1  2  1  0
  2  3  1  0
  3  4  2  0
  5  3  1  1
  5  6  1  0
  5  7  1  0
  6  8  2  0
  7  9  1  0
  8 10  1  0
  9 10  2  0
  9 11  1  0
 10 12  1  0
 12 13  1  0
 13 14  1  0
 14 15  2  0
 14 16  1  0
 15 17  1  0
 16 18  2  0
 17 19  2  0
 18 19  1  0
 18 20  1  0
 19 21  1  0
 20 22  1  0
 21 23  3  0
 22 24  2  0
 22 25  1  0
 25 26  1  0
 25 27  1  0
 26 28  1  0
 27 29  1  0
 28 29  1  0
 29 30  1  6
M  END
