JON-UNI-4b544d07-1
     RDKit          3D

 19 20  0  0  0  0  0  0  0  0999 V2000
    5.7330   -2.6920   23.0760 C   0  0  0  0  0  0  0  0  0  0  0  0
    6.6510   -2.1320   23.9540 N   0  0  0  0  0  0  0  0  0  0  0  0
    6.4580   -2.0440   25.3390 C   0  0  0  0  0  0  0  0  0  0  0  0
    7.3310   -1.6160   26.0760 O   0  0  0  0  0  0  0  0  0  0  0  0
    5.1180   -2.4920   25.9060 C   0  0  1  0  0  0  0  0  0  0  0  0
    4.8740   -3.1150   27.2620 C   0  0  0  0  0  0  0  0  0  0  0  0
    4.0760   -1.3450   25.7330 C   0  0  0  0  0  0  0  0  0  0  0  0
    3.5800   -3.1260   27.9900 C   0  0  0  0  0  0  0  0  0  0  0  0
    2.7610   -1.6080   26.1970 C   0  0  0  0  0  0  0  0  0  0  0  0
    2.4740   -2.4310   27.2410 C   0  0  0  0  0  0  0  0  0  0  0  0
    1.2860   -2.7860   27.8020 N   0  0  0  0  0  0  0  0  0  0  0  0
    0.3320   -2.3210   27.0620 C   0  0  2  0  0  0  0  0  0  0  0  0
   -0.8100   -2.0940   27.8980 O   0  0  0  0  0  0  0  0  0  0  0  0
    0.0430   -3.3460   25.7260 S   0  0  0  0  0  0  0  0  0  0  0  0
   -2.0990   -1.9000   27.3120 C   0  0  2  0  0  0  0  0  0  0  0  0
   -1.4740   -4.0900   26.3480 C   0  0  0  0  0  0  0  0  0  0  0  0
   -3.0580   -1.6930   28.3240 C   0  0  0  0  0  0  0  0  0  0  0  0
   -2.4700   -3.1200   26.4500 C   0  0  0  0  0  0  0  0  0  0  0  0
   -4.0440   -2.7220   28.4030 O   0  0  0  0  0  0  0  0  0  0  0  0
  1  2  1  0
  2  3  1  0
  3  4  2  0
  5  3  1  1
  5  6  1  0
  5  7  1  0
  6  8  2  0
  7  9  1  0
  8 10  1  0
  9 10  2  0
 10 11  1  0
 12 11  1  1
 12 13  1  0
 12 14  1  0
 13 15  1  0
 14 16  1  0
 15 17  1  1
 15 18  1  0
 16 18  1  0
 17 19  1  0
M  END
