JON-UIO-066ce08b-1
     RDKit          3D

 19 20  0  0  0  0  0  0  0  0999 V2000
    6.7840   -2.8750   20.9460 C   0  0  0  0  0  0  0  0  0  0  0  0
    6.2790   -4.2980   20.8720 C   0  0  0  0  0  0  0  0  0  0  0  0
    5.4450   -4.5540   19.7180 O   0  0  0  0  0  0  0  0  0  0  0  0
    6.6260   -5.2020   21.8570 N   0  0  0  0  0  0  0  0  0  0  0  0
    5.6770   -6.2080   22.3260 C   0  0  0  0  0  0  0  0  0  0  0  0
    7.5690   -4.8630   22.7840 C   0  0  0  0  0  0  0  0  0  0  0  0
    4.9260   -5.4760   23.4870 C   0  0  0  0  0  0  0  0  0  0  0  0
    7.0130   -4.0920   23.7870 C   0  0  0  0  0  0  0  0  0  0  0  0
    5.9740   -4.9000   24.3940 N   0  0  0  0  0  0  0  0  0  0  0  0
    5.5110   -4.6850   25.7800 C   0  0  0  0  0  0  0  0  0  0  0  0
    5.2800   -5.7840   26.6320 O   0  0  0  0  0  0  0  0  0  0  0  0
    5.3260   -3.2360   26.3150 C   0  0  2  0  0  0  0  0  0  0  0  0
    5.4470   -3.1120   27.6150 F   0  0  0  0  0  0  0  0  0  0  0  0
    3.8970   -3.0740   25.9880 C   0  0  0  0  0  0  0  0  0  0  0  0
    3.2680   -1.7070   26.1870 C   0  0  0  0  0  0  0  0  0  0  0  0
    3.2000   -4.2410   25.5290 N   0  0  0  0  0  0  0  0  0  0  0  0
    1.7880   -1.6450   25.8690 C   0  0  0  0  0  0  0  0  0  0  0  0
    1.8770   -4.0230   25.2900 C   0  0  0  0  0  0  0  0  0  0  0  0
    1.1570   -2.8280   25.4330 C   0  0  0  0  0  0  0  0  0  0  0  0
  1  2  1  0
  2  3  2  0
  2  4  1  0
  4  5  1  0
  4  6  1  0
  5  7  1  0
  6  8  1  0
  7  9  1  0
  8  9  1  0
  9 10  1  0
 10 11  2  0
 10 12  1  0
 12 13  1  1
 12 14  1  0
 14 15  2  0
 14 16  1  0
 15 17  1  0
 16 18  2  0
 17 19  2  0
 18 19  1  0
M  END
