JON-CHE-41f76505-2
     RDKit          3D

 28 30  0  0  0  0  0  0  0  0999 V2000
    5.7240    0.1370   23.4600 N   0  0  0  0  0  0  0  0  0  0  0  0
    4.7530    0.8770   22.8480 C   0  0  0  0  0  0  0  0  0  0  0  0
    3.8120    1.6450   23.5910 O   0  0  0  0  0  0  0  0  0  0  0  0
    4.7220    0.8740   21.3390 C   0  0  0  0  0  0  0  0  0  0  0  0
    4.3270    2.0690   20.8160 N   0  0  0  0  0  0  0  0  0  0  0  0
    5.0630   -0.2380   20.5200 C   0  0  0  0  0  0  0  0  0  0  0  0
    4.2740    2.1700   19.4730 C   0  0  0  0  0  0  0  0  0  0  0  0
    5.0440   -0.2120   19.1470 N   0  0  0  0  0  0  0  0  0  0  0  0
    5.4440   -1.4330   21.0810 O   0  0  0  0  0  0  0  0  0  0  0  0
    3.8750    3.3470   18.9690 F   0  0  0  0  0  0  0  0  0  0  0  0
    4.6350    1.0410   18.5210 C   0  0  0  0  0  0  0  0  0  0  0  0
    5.9640   -2.4060   20.1640 C   0  0  0  0  0  0  0  0  0  0  0  0
    5.9600   -3.7600   20.5730 C   0  0  0  0  0  0  0  0  0  0  0  0
    5.3970   -4.7430   19.8140 O   0  0  0  0  0  0  0  0  0  0  0  0
    6.5880   -4.0550   21.7410 N   0  0  0  0  0  0  0  0  0  0  0  0
    7.6210   -3.2040   22.3460 C   0  0  0  0  0  0  0  0  0  0  0  0
    6.3770   -5.2650   22.3180 C   0  0  0  0  0  0  0  0  0  0  0  0
    7.4570   -3.2090   23.7190 C   0  0  0  0  0  0  0  0  0  0  0  0
    6.0430   -5.1270   23.6720 C   0  0  0  0  0  0  0  0  0  0  0  0
    6.1830   -3.6430   24.0740 C   0  0  0  0  0  0  0  0  0  0  0  0
    5.7170   -3.4240   25.3960 C   0  0  0  0  0  0  0  0  0  0  0  0
    4.5680   -3.0010   25.5290 O   0  0  0  0  0  0  0  0  0  0  0  0
    6.4940   -3.6560   26.5480 N   0  0  0  0  0  0  0  0  0  0  0  0
    5.9110   -3.1570   27.8020 C   0  0  0  0  0  0  0  0  0  0  0  0
    7.7230   -4.2390   26.6260 C   0  0  0  0  0  0  0  0  0  0  0  0
    5.8190   -4.3150   28.8100 C   0  0  0  0  0  0  0  0  0  0  0  0
    7.9760   -4.8720   27.8530 C   0  0  0  0  0  0  0  0  0  0  0  0
    6.8780   -5.3910   28.5400 C   0  0  0  0  0  0  0  0  0  0  0  0
  1  2  1  0
  2  3  2  0
  2  4  1  0
  4  5  2  0
  4  6  1  0
  5  7  1  0
  6  8  2  0
  6  9  1  0
  7 10  1  0
  7 11  2  0
  8 11  1  0
  9 12  1  0
 12 13  1  0
 13 14  2  0
 13 15  1  0
 15 16  1  0
 15 17  1  0
 16 18  1  0
 17 19  1  0
 18 20  1  0
 19 20  1  0
 20 21  1  0
 21 22  2  0
 21 23  1  0
 23 24  1  0
 23 25  1  0
 24 26  1  0
 25 27  1  0
 26 28  1  0
 27 28  1  0
M  END
