JON-UIO-066ce08b-6-vinylsulfonamide
     RDKit          3D

 28 29  0  0  0  0  0  0  0  0999 V2000
    6.4440   -3.4630   19.7730 C   0  0  0  0  0  0  0  0  0  0  0  0
    6.3810   -2.3970   20.9590 C   0  0  0  0  0  0  0  0  0  0  0  0
    5.7520   -3.2490   22.4000 S   0  0  0  0  0  0  0  0  0  0  0  0
    4.3490   -3.4320   22.2330 O   0  0  0  0  0  0  0  0  0  0  0  0
    6.6310   -4.3780   22.4210 O   0  0  0  0  0  0  0  0  0  0  0  0
    5.8900   -2.4290   24.0240 C   0  0  1  0  0  0  0  0  0  0  0  0
    4.5750   -1.8880   24.6760 C   0  0  0  0  0  0  0  0  0  0  0  0
    6.3950   -3.4640   25.0870 C   0  0  1  0  0  0  0  0  0  0  0  0
    3.5830   -3.0380   24.6950 C   0  0  0  0  0  0  0  0  0  0  0  0
    4.3290   -0.6040   25.1790 C   0  0  0  0  0  0  0  0  0  0  0  0
    5.6560   -3.2990   26.2320 F   0  0  0  0  0  0  0  0  0  0  0  0
    6.2180   -4.7180   24.5480 C   0  0  0  0  0  0  0  0  0  0  0  0
    2.2250   -2.6800   25.3490 C   0  0  0  0  0  0  0  0  0  0  0  0
    3.0900   -0.2850   25.7720 C   0  0  0  0  0  0  0  0  0  0  0  0
    5.5430    0.6250   25.0980 S   0  0  0  0  0  0  0  0  0  0  0  0
    7.4030   -5.3350   24.2190 C   0  0  0  0  0  0  0  0  0  0  0  0
    5.3480   -5.6420   25.3200 C   0  0  0  0  0  0  0  0  0  0  0  0
    2.0400   -1.2290   25.8880 C   0  0  0  0  0  0  0  0  0  0  0  0
    2.8680    0.9460   26.2540 F   0  0  0  0  0  0  0  0  0  0  0  0
    4.6570    2.0570   25.2480 N   0  0  0  0  0  0  0  0  0  0  0  0
    6.1350    0.7200   23.7790 O   0  0  0  0  0  0  0  0  0  0  0  0
    6.3650    0.4850   26.2800 O   0  0  0  0  0  0  0  0  0  0  0  0
    7.0910   -6.2440   23.2160 C   0  0  0  0  0  0  0  0  0  0  0  0
    4.8350   -6.5850   24.4480 C   0  0  0  0  0  0  0  0  0  0  0  0
    5.6320   -6.5150   23.1880 N   0  0  0  0  0  0  0  0  0  0  0  0
    4.9530   -5.8830   22.1020 C   0  0  0  0  0  0  0  0  0  0  0  0
    5.6650   -5.9400   20.8150 C   0  0  0  0  0  0  0  0  0  0  0  0
    3.7060   -5.2300   22.2500 O   0  0  0  0  0  0  0  0  0  0  0  0
  1  2  1  0
  3  2  1  0
  3  4  2  0
  3  5  2  0
  6  3  1  6
  6  7  1  0
  6  8  1  0
  7  9  2  0
  7 10  1  0
  8 11  1  1
  8 12  1  0
  9 13  1  0
 10 14  2  0
 10 15  1  0
 12 16  1  0
 12 17  1  0
 13 18  2  0
 14 18  1  0
 14 19  1  0
 15 20  1  0
 15 21  2  0
 15 22  2  0
 16 23  1  0
 17 24  1  0
 23 25  1  0
 24 25  1  0
 25 26  1  0
 26 27  1  0
 26 28  2  0
M  END
