JON-UIO-f971c856-6
     RDKit          3D

 31 34  0  0  0  0  0  0  0  0999 V2000
   13.8920    4.5500   22.4180 C   0  0  0  0  0  0  0  0  0  0  0  0
   12.9960    5.3580   21.5140 C   0  0  0  0  0  0  0  0  0  0  0  0
   11.8670    5.8980   22.1100 N   0  0  0  0  0  0  0  0  0  0  0  0
   11.5260    5.5240   23.4850 C   0  0  1  0  0  0  0  0  0  0  0  0
   11.5680    6.7450   24.4370 C   0  0  0  0  0  0  0  0  0  0  0  0
   10.1910    4.7890   23.4630 C   0  0  0  0  0  0  0  0  0  0  0  0
   10.4080    6.9850   25.4260 C   0  0  0  0  0  0  0  0  0  0  0  0
    9.0870    5.1630   24.4300 C   0  0  0  0  0  0  0  0  0  0  0  0
   10.1240    3.7090   22.3840 C   0  0  0  0  0  0  0  0  0  0  0  0
    9.1290    6.1480   25.4020 C   0  0  0  0  0  0  0  0  0  0  0  0
   10.2670    2.3410   22.8530 N   0  0  0  0  0  0  0  0  0  0  0  0
    8.1030    6.3400   26.2550 F   0  0  0  0  0  0  0  0  0  0  0  0
    9.5910    1.3250   22.2180 C   0  0  0  0  0  0  0  0  0  0  0  0
    9.0160    1.4700   21.1310 O   0  0  0  0  0  0  0  0  0  0  0  0
    9.6050    0.1590   22.9560 C   0  0  2  0  0  0  0  0  0  0  0  0
    9.0930    0.4050   24.2420 C   0  0  0  0  0  0  0  0  0  0  0  0
   10.8080   -0.6030   22.7180 C   0  0  2  0  0  0  0  0  0  0  0  0
    8.7830   -1.0510   22.2300 C   0  0  2  0  0  0  0  0  0  0  0  0
   10.4040   -1.7350   23.6980 C   0  0  1  0  0  0  0  0  0  0  0  0
   12.2830   -0.5120   23.1470 C   0  0  2  0  0  0  0  0  0  0  0  0
    8.8740   -1.9690   23.5060 C   0  0  1  0  0  0  0  0  0  0  0  0
    9.3610   -2.2030   21.6890 C   0  0  0  0  0  0  0  0  0  0  0  0
    7.5830   -0.6690   21.4170 C   0  0  0  0  0  0  0  0  0  0  0  0
   11.3930   -2.6470   23.4690 C   0  0  0  0  0  0  0  0  0  0  0  0
   12.6380   -1.8790   23.0620 C   0  0  0  0  0  0  0  0  0  0  0  0
   12.3540    0.1470   24.4760 C   0  0  0  0  0  0  0  0  0  0  0  0
   13.1030    0.1950   22.2470 O   0  0  0  0  0  0  0  0  0  0  0  0
    8.0080   -1.8010   24.6040 C   0  0  0  0  0  0  0  0  0  0  0  0
    8.4630   -3.0440   22.5830 C   0  0  0  0  0  0  0  0  0  0  0  0
    6.9900    0.3820   21.4300 O   0  0  0  0  0  0  0  0  0  0  0  0
    7.1800   -1.6450   20.5420 O   0  0  0  0  0  0  0  0  0  0  0  0
  1  2  1  0
  2  3  1  0
  4  3  1  6
  4  5  1  0
  4  6  1  0
  5  7  1  0
  6  8  2  0
  6  9  1  0
  7 10  2  0
  8 10  1  0
  9 11  1  0
 10 12  1  0
 11 13  1  0
 13 14  2  0
 15 13  1  0
 15 16  1  1
 15 17  1  0
 15 18  1  0
 17 19  1  0
 17 20  1  1
 18 21  1  0
 19 21  1  0
 18 22  1  0
 18 23  1  6
 19 24  1  6
 20 25  1  0
 24 25  1  0
 20 26  1  1
 20 27  1  0
 21 28  1  1
 21 29  1  0
 22 29  1  0
 23 30  2  0
 23 31  1  0
M  END
