JON-UIO-066ce08b-12-nitrile
     RDKit          3D

 25 27  0  0  0  0  0  0  0  0999 V2000
    6.5520   -4.6180   20.4800 C   0  0  0  0  0  0  0  0  0  0  0  0
    5.6710   -3.9970   19.7850 N   0  0  0  0  0  0  0  0  0  0  0  0
    6.4010   -4.7630   21.9910 C   0  0  2  0  0  0  0  0  0  0  0  0
    4.9810   -5.2640   22.4260 C   0  0  1  0  0  0  0  0  0  0  0  0
    7.0030   -3.7880   22.7290 C   0  0  0  0  0  0  0  0  0  0  0  0
    5.3050   -6.3430   23.4630 C   0  0  0  0  0  0  0  0  0  0  0  0
    4.0950   -4.2060   23.2050 C   0  0  0  0  0  0  0  0  0  0  0  0
    8.1160   -3.0140   22.0070 C   0  0  0  0  0  0  0  0  0  0  0  0
    6.1130   -2.8090   23.4780 C   0  0  0  0  0  0  0  0  0  0  0  0
    4.6410   -5.9670   24.7630 C   0  0  0  0  0  0  0  0  0  0  0  0
    3.8630   -4.6430   24.6710 C   0  0  0  0  0  0  0  0  0  0  0  0
    7.8730   -1.6340   21.8300 C   0  0  0  0  0  0  0  0  0  0  0  0
    5.4410   -2.0330   22.5410 C   0  0  0  0  0  0  0  0  0  0  0  0
    3.1830   -4.0760   25.6760 F   0  0  0  0  0  0  0  0  0  0  0  0
    6.4190   -1.5130   21.5930 N   0  0  0  0  0  0  0  0  0  0  0  0
    5.9470   -1.5000   20.1870 C   0  0  2  0  0  0  0  0  0  0  0  0
    7.0420   -1.8980   19.4440 C   0  0  0  0  0  0  0  0  0  0  0  0
    5.4490   -0.2300   19.8570 C   0  0  0  0  0  0  0  0  0  0  0  0
    7.7770   -0.9350   19.3280 O   0  0  0  0  0  0  0  0  0  0  0  0
    5.4820    0.2370   18.4240 C   0  0  0  0  0  0  0  0  0  0  0  0
    4.9130    0.6270   20.8520 C   0  0  0  0  0  0  0  0  0  0  0  0
    4.9550    1.5820   18.1100 C   0  0  0  0  0  0  0  0  0  0  0  0
    4.4120    1.9090   20.5400 C   0  0  0  0  0  0  0  0  0  0  0  0
    4.4180    2.3950   19.2330 C   0  0  0  0  0  0  0  0  0  0  0  0
    3.9180    2.6850   21.5230 F   0  0  0  0  0  0  0  0  0  0  0  0
  1  2  2  3
  3  1  1  6
  3  4  1  0
  3  5  1  0
  4  6  1  1
  4  7  1  0
  5  8  1  0
  5  9  1  0
  6 10  2  0
  7 11  2  0
 10 11  1  0
  8 12  1  0
  9 13  1  0
 11 14  1  0
 12 15  1  0
 13 15  1  0
 15 16  1  0
 16 17  1  6
 16 18  1  0
 17 19  1  0
 18 20  2  0
 18 21  1  0
 20 22  1  0
 21 23  2  0
 22 24  2  0
 23 24  1  0
 23 25  1  0
M  END
