JON-UNI-4b544d07-8
     RDKit          3D

 19 21  0  0  0  0  0  0  0  0999 V2000
    7.3350   -1.5050   26.2290 O   0  0  0  0  0  0  0  0  0  0  0  0
    6.4180   -1.7610   25.4740 C   0  0  0  0  0  0  0  0  0  0  0  0
    5.1640   -1.9780   26.0450 C   0  0  0  0  0  0  0  0  0  0  0  0
    6.5270   -1.8410   24.0980 N   0  0  0  0  0  0  0  0  0  0  0  0
    4.9810   -3.0110   27.1490 C   0  0  0  0  0  0  0  0  0  0  0  0
    4.0380   -1.2500   25.6190 C   0  0  0  0  0  0  0  0  0  0  0  0
    5.5660   -2.5240   23.2770 C   0  0  0  0  0  0  0  0  0  0  0  0
    7.9040   -1.7960   23.5980 C   0  0  0  0  0  0  0  0  0  0  0  0
    3.6040   -3.2020   27.7320 C   0  0  0  0  0  0  0  0  0  0  0  0
    2.7530   -1.4430   26.1800 C   0  0  0  0  0  0  0  0  0  0  0  0
    5.9330   -3.4800   22.3710 C   0  0  0  0  0  0  0  0  0  0  0  0
    8.2530   -3.0200   22.8050 C   0  0  0  0  0  0  0  0  0  0  0  0
    2.4590   -2.3720   27.2100 C   0  0  0  0  0  0  0  0  0  0  0  0
    7.3220   -3.8070   22.2360 C   0  0  0  0  0  0  0  0  0  0  0  0
    1.0510   -2.5190   27.7540 C   0  0  0  0  0  0  0  0  0  0  0  0
    0.6920   -3.0220   29.0940 C   0  0  0  0  0  0  0  0  0  0  0  0
   -0.2440   -2.1750   27.0430 C   0  0  0  0  0  0  0  0  0  0  0  0
   -0.7570   -2.9830   29.1650 C   0  0  0  0  0  0  0  0  0  0  0  0
   -1.3030   -2.6720   27.8880 C   0  0  0  0  0  0  0  0  0  0  0  0
  1  2  2  0
  2  3  1  0
  2  4  1  0
  3  5  2  0
  3  6  1  0
  4  7  1  0
  4  8  1  0
  5  9  1  0
  6 10  2  0
  7 11  2  0
  8 12  1  0
  9 13  2  0
 10 13  1  0
 11 14  1  0
 12 14  2  0
 13 15  1  0
 15 16  2  0
 15 17  1  0
 16 18  1  0
 17 19  1  0
 18 19  1  0
M  END
