JON-UNI-4b544d07-5
     RDKit          3D

 22 23  0  0  0  0  0  0  0  0999 V2000
    9.5930   -3.0940   25.3280 C   0  0  0  0  0  0  0  0  0  0  0  0
    9.3270   -1.8410   24.7600 C   0  0  0  0  0  0  0  0  0  0  0  0
    8.0520   -1.7220   23.9060 C   0  0  2  0  0  0  0  0  0  0  0  0
    6.6150   -2.0460   24.3150 C   0  0  0  0  0  0  0  0  0  0  0  0
    8.2550   -2.5020   22.6020 C   0  0  1  0  0  0  0  0  0  0  0  0
    5.7240   -2.2430   23.4930 O   0  0  0  0  0  0  0  0  0  0  0  0
    6.4300   -2.0880   25.6750 N   0  0  0  0  0  0  0  0  0  0  0  0
    7.2180   -3.4650   22.2120 C   0  0  0  0  0  0  0  0  0  0  0  0
    8.3570   -1.6520   21.3160 C   0  0  1  0  0  0  0  0  0  0  0  0
    5.1590   -2.1900   26.2480 C   0  0  0  0  0  0  0  0  0  0  0  0
    7.1120   -3.5650   20.8670 C   0  0  0  0  0  0  0  0  0  0  0  0
    7.9860   -2.7040   20.2660 C   0  0  0  0  0  0  0  0  0  0  0  0
    7.5480   -0.3660   21.3320 C   0  0  0  0  0  0  0  0  0  0  0  0
    4.1120   -1.3390   25.5930 C   0  0  0  0  0  0  0  0  0  0  0  0
    4.8500   -3.0100   27.3290 C   0  0  0  0  0  0  0  0  0  0  0  0
    7.0900   -0.0690   20.0970 F   0  0  0  0  0  0  0  0  0  0  0  0
    6.4740   -0.4480   22.1440 F   0  0  0  0  0  0  0  0  0  0  0  0
    8.2970    0.6870   21.7290 F   0  0  0  0  0  0  0  0  0  0  0  0
    2.7430   -1.4500   26.1850 C   0  0  0  0  0  0  0  0  0  0  0  0
    3.5640   -3.1250   27.8960 C   0  0  0  0  0  0  0  0  0  0  0  0
    2.5390   -2.3650   27.3350 C   0  0  0  0  0  0  0  0  0  0  0  0
    0.9860   -2.5160   28.0280 Cl  0  0  0  0  0  0  0  0  0  0  0  0
  1  2  1  0
  3  2  1  1
  3  4  1  0
  3  5  1  0
  4  6  2  0
  4  7  1  0
  5  8  1  6
  5  9  1  0
  7 10  1  0
  8 11  1  0
  9 12  1  0
 11 12  1  0
  9 13  1  1
 10 14  2  0
 10 15  1  0
 13 16  1  0
 13 17  1  0
 13 18  1  0
 14 19  1  0
 15 20  2  0
 19 21  2  0
 20 21  1  0
 21 22  1  0
M  END
