JON-UIO-066ce08b-8-vinylsulfonamide
     RDKit          3D

 25 26  0  0  0  0  0  0  0  0999 V2000
    7.6460   -5.2030   20.8890 C   0  0  0  0  0  0  0  0  0  0  0  0
    6.2970   -4.9780   21.5130 C   0  0  0  0  0  0  0  0  0  0  0  0
    5.9270   -3.3330   21.0720 S   0  0  0  0  0  0  0  0  0  0  0  0
    4.6470   -3.1410   21.7120 O   0  0  0  0  0  0  0  0  0  0  0  0
    5.9910   -3.2650   19.6170 O   0  0  0  0  0  0  0  0  0  0  0  0
    7.2900   -2.4410   21.9220 C   0  0  0  0  0  0  0  0  0  0  0  0
    8.8770   -2.5670   21.6350 C   0  0  0  0  0  0  0  0  0  0  0  0
    7.3440   -1.5930   22.8410 C   0  0  0  0  0  0  0  0  0  0  0  0
    9.1040   -3.4220   20.6480 F   0  0  0  0  0  0  0  0  0  0  0  0
   10.2070   -1.8080   22.3660 C   0  0  0  0  0  0  0  0  0  0  0  0
    8.6690   -1.6460   22.6850 C   0  0  0  0  0  0  0  0  0  0  0  0
    6.3850   -0.8370   23.7260 C   0  0  1  0  0  0  0  0  0  0  0  0
    9.4610   -0.8780   23.4750 C   0  0  0  0  0  0  0  0  0  0  0  0
    6.6980   -0.9660   25.0190 F   0  0  0  0  0  0  0  0  0  0  0  0
    6.4320    0.5230   23.3730 C   0  0  0  0  0  0  0  0  0  0  0  0
    5.9250    1.2900   24.1990 O   0  0  0  0  0  0  0  0  0  0  0  0
    7.0750    0.9130   22.0870 N   0  0  0  0  0  0  0  0  0  0  0  0
    6.7960   -0.0070   20.9770 C   0  0  0  0  0  0  0  0  0  0  0  0
    7.2460    2.2840   21.6430 C   0  0  0  0  0  0  0  0  0  0  0  0
    6.4710    0.7100   19.8320 C   0  0  0  0  0  0  0  0  0  0  0  0
    5.9240    2.5560   21.2630 C   0  0  0  0  0  0  0  0  0  0  0  0
    5.6330    1.8600   20.1390 N   0  0  0  0  0  0  0  0  0  0  0  0
    4.5210    2.0980   19.3700 C   0  0  0  0  0  0  0  0  0  0  0  0
    4.6960    1.9230   17.9820 N   0  0  0  0  0  0  0  0  0  0  0  0
    3.2460    2.4900   19.9310 O   0  0  0  0  0  0  0  0  0  0  0  0
  1  2  1  0
  3  2  1  0
  3  4  2  0
  3  5  2  0
  3  6  1  0
  6  7  2  0
  6  8  1  0
  7  9  1  0
  7 10  1  0
  8 11  2  0
  8 12  1  0
 10 13  2  0
 11 13  1  0
 12 14  1  1
 12 15  1  0
 15 16  2  0
 15 17  1  0
 17 18  1  0
 17 19  1  0
 18 20  1  0
 19 21  1  0
 20 22  1  0
 21 22  1  0
 22 23  1  0
 23 24  1  0
 23 25  2  0
M  END
