JON-UIO-066ce08b-14
     RDKit          3D

 15 15  0  0  0  0  0  0  0  0999 V2000
    8.3490   -2.3320   23.8960 C   0  0  0  0  0  0  0  0  0  0  0  0
    8.8440   -1.5510   22.7130 C   0  0  2  0  0  0  0  0  0  0  0  0
    8.2930   -1.9930   21.5300 N   0  0  0  0  0  0  0  0  0  0  0  0
   10.1610   -1.1430   22.6740 C   0  0  0  0  0  0  0  0  0  0  0  0
    7.6240   -1.0050   20.6990 C   0  0  0  0  0  0  0  0  0  0  0  0
   10.4220    0.2210   23.2850 C   0  0  0  0  0  0  0  0  0  0  0  0
   11.1490   -1.9280   22.1040 C   0  0  0  0  0  0  0  0  0  0  0  0
    7.9360    0.1670   20.6130 O   0  0  0  0  0  0  0  0  0  0  0  0
    6.4150   -1.6670   19.9870 C   0  0  0  0  0  0  0  0  0  0  0  0
   11.8970    0.6350   23.2130 C   0  0  0  0  0  0  0  0  0  0  0  0
   12.5240   -1.6220   21.9960 C   0  0  0  0  0  0  0  0  0  0  0  0
    5.3530   -0.8150   19.9940 F   0  0  0  0  0  0  0  0  0  0  0  0
    5.9580   -2.7690   20.6660 F   0  0  0  0  0  0  0  0  0  0  0  0
   12.8390   -0.3570   22.5570 C   0  0  0  0  0  0  0  0  0  0  0  0
   13.3980   -2.4320   21.4260 F   0  0  0  0  0  0  0  0  0  0  0  0
  2  1  1  1
  2  3  1  0
  2  4  1  0
  3  5  1  0
  4  6  2  0
  4  7  1  0
  5  8  2  0
  5  9  1  0
  6 10  1  0
  7 11  2  0
  9 12  1  0
  9 13  1  0
 10 14  2  0
 11 14  1  0
 11 15  1  0
M  END
