JON-UNI-2a110085-8
     RDKit          3D

 29 32  0  0  0  0  0  0  0  0999 V2000
    5.4730   -6.7160   28.3530 C   0  0  0  0  0  0  0  0  0  0  0  0
    6.2080   -5.8030   27.5860 C   0  0  0  0  0  0  0  0  0  0  0  0
    5.5100   -5.2430   26.3280 C   0  0  0  0  0  0  0  0  0  0  0  0
    4.0930   -4.6660   26.1130 C   0  0  0  0  0  0  0  0  0  0  0  0
    6.2970   -5.1870   25.0800 C   0  0  0  0  0  0  0  0  0  0  0  0
    2.9360   -4.4380   27.0330 C   0  0  2  0  0  0  0  0  0  0  0  0
    3.7530   -4.2200   24.7150 C   0  0  0  0  0  0  0  0  0  0  0  0
    5.6680   -5.1540   23.9050 C   0  0  0  0  0  0  0  0  0  0  0  0
    7.8020   -5.0770   25.0170 C   0  0  0  0  0  0  0  0  0  0  0  0
    1.6360   -4.7980   26.3440 C   0  0  0  0  0  0  0  0  0  0  0  0
    2.9510   -3.1080   27.4780 C   0  0  0  0  0  0  0  0  0  0  0  0
    4.3170   -5.2120   23.8510 N   0  0  0  0  0  0  0  0  0  0  0  0
    6.3000   -5.0010   22.7480 C   0  0  0  0  0  0  0  0  0  0  0  0
    8.5780   -5.9250   25.4180 O   0  0  0  0  0  0  0  0  0  0  0  0
    8.1550   -3.8800   24.4530 N   0  0  0  0  0  0  0  0  0  0  0  0
    0.6970   -3.6070   26.3270 C   0  0  0  0  0  0  0  0  0  0  0  0
    2.5910   -2.0440   26.6340 C   0  0  0  0  0  0  0  0  0  0  0  0
    7.1930   -5.9340   22.3360 C   0  0  0  0  0  0  0  0  0  0  0  0
    5.3610   -4.7550   21.5640 C   0  0  0  0  0  0  0  0  0  0  0  0
    8.6660   -2.9160   25.3590 C   0  0  1  0  0  0  0  0  0  0  0  0
    1.3750   -2.3180   26.0400 C   0  0  2  0  0  0  0  0  0  0  0  0
    7.4910   -5.6340   21.0260 C   0  0  0  0  0  0  0  0  0  0  0  0
    6.2910   -4.9680   20.4750 C   0  0  0  0  0  0  0  0  0  0  0  0
    8.8340   -3.8520   26.5030 C   0  0  0  0  0  0  0  0  0  0  0  0
   10.0010   -2.3150   24.8370 C   0  0  0  0  0  0  0  0  0  0  0  0
    0.4720   -1.2790   26.4040 O   0  0  0  0  0  0  0  0  0  0  0  0
   10.1620   -4.4920   26.8090 C   0  0  0  0  0  0  0  0  0  0  0  0
   11.2650   -3.1770   25.0920 C   0  0  0  0  0  0  0  0  0  0  0  0
   11.3100   -4.1660   26.0060 C   0  0  0  0  0  0  0  0  0  0  0  0
  1  2  1  0
  2  3  1  0
  3  4  2  0
  3  5  1  0
  6  4  1  6
  4  7  1  0
  5  8  2  0
  5  9  1  0
  6 10  1  0
  6 11  1  0
  7 12  1  0
  8 12  1  0
  8 13  1  0
  9 14  2  0
  9 15  1  0
 10 16  1  0
 11 17  1  0
 13 18  1  0
 13 19  1  0
 20 15  1  6
 16 21  1  0
 17 21  1  0
 18 22  1  0
 19 23  1  0
 22 23  1  0
 20 24  1  0
 20 25  1  0
 21 26  1  1
 24 27  2  0
 25 28  1  0
 27 29  1  0
 28 29  2  0
M  END
