JON-UIO-066ce08b-3
     RDKit          3D

 18 19  0  0  0  0  0  0  0  0999 V2000
    7.4230   -2.9800   20.6930 C   0  0  0  0  0  0  0  0  0  0  0  0
    6.5140   -4.1890   20.8650 C   0  0  0  0  0  0  0  0  0  0  0  0
    5.4870   -4.3330   19.8410 O   0  0  0  0  0  0  0  0  0  0  0  0
    6.7060   -5.0480   21.9270 N   0  0  0  0  0  0  0  0  0  0  0  0
    5.9210   -6.2650   22.0690 C   0  0  0  0  0  0  0  0  0  0  0  0
    7.3300   -4.6350   23.0690 C   0  0  0  0  0  0  0  0  0  0  0  0
    4.8500   -5.8410   23.1080 C   0  0  0  0  0  0  0  0  0  0  0  0
    6.4580   -4.2050   24.0540 C   0  0  0  0  0  0  0  0  0  0  0  0
    5.5610   -5.3200   24.3140 N   0  0  0  0  0  0  0  0  0  0  0  0
    4.5510   -5.2940   25.3780 C   0  0  0  0  0  0  0  0  0  0  0  0
    4.7060   -6.0170   26.5780 O   0  0  0  0  0  0  0  0  0  0  0  0
    3.2810   -4.4890   25.0660 C   0  0  0  0  0  0  0  0  0  0  0  0
    3.5160   -3.1270   25.7160 C   0  0  0  0  0  0  0  0  0  0  0  0
    2.1760   -2.4430   25.7710 C   0  0  0  0  0  0  0  0  0  0  0  0
    4.7820   -2.5200   26.2270 N   0  0  0  0  0  0  0  0  0  0  0  0
    2.1170   -1.0890   26.3730 C   0  0  0  0  0  0  0  0  0  0  0  0
    4.5330   -1.2580   26.7520 C   0  0  0  0  0  0  0  0  0  0  0  0
    3.3080   -0.5630   26.8380 C   0  0  0  0  0  0  0  0  0  0  0  0
  1  2  1  0
  2  3  2  0
  2  4  1  0
  4  5  1  0
  4  6  1  0
  5  7  1  0
  6  8  1  0
  7  9  1  0
  8  9  1  0
  9 10  1  0
 10 11  2  0
 10 12  1  0
 12 13  1  0
 13 14  2  0
 13 15  1  0
 14 16  1  0
 15 17  2  0
 16 18  2  0
 17 18  1  0
M  END
