JOO-IND-6372a4f3-1-bromoalkyne
     RDKit          3D

 17 18  0  0  0  0  0  0  0  0999 V2000
    6.8280   -4.7240   20.4180 C   0  0  0  0  0  0  0  0  0  0  0  0
    5.8970   -5.8290   20.0340 C   0  0  0  0  0  0  0  0  0  0  0  0
    6.7560   -4.0220   21.6160 N   0  0  0  0  0  0  0  0  0  0  0  0
    5.8910   -4.3100   22.7820 C   0  0  0  0  0  0  0  0  0  0  0  0
    5.9390   -3.2440   23.8490 C   0  0  0  0  0  0  0  0  0  0  0  0
    5.0810   -5.4580   22.9290 C   0  0  0  0  0  0  0  0  0  0  0  0
    5.0820   -3.4510   25.0800 C   0  0  0  0  0  0  0  0  0  0  0  0
    4.2760   -5.6500   24.0870 C   0  0  0  0  0  0  0  0  0  0  0  0
    4.2220   -4.7350   25.1580 C   0  0  0  0  0  0  0  0  0  0  0  0
    3.4110   -6.9040   24.2150 C   0  0  0  0  0  0  0  0  0  0  0  0
    4.0130   -8.0050   24.7480 O   0  0  0  0  0  0  0  0  0  0  0  0
    2.0140   -6.8000   23.7760 N   0  0  0  0  0  0  0  0  0  0  0  0
    1.4710   -5.4900   23.4630 C   0  0  0  0  0  0  0  0  0  0  0  0
    1.0880   -7.9390   24.0180 C   0  0  0  0  0  0  0  0  0  0  0  0
    0.4450   -5.0990   24.3290 C   0  0  0  0  0  0  0  0  0  0  0  0
    0.1030   -7.5750   24.9620 C   0  0  0  0  0  0  0  0  0  0  0  0
   -0.8240   -6.2200   24.4690 S   0  0  0  0  0  0  0  0  0  0  0  0
  1  2  2  3
  1  3  1  0
  3  4  1  0
  4  5  2  0
  4  6  1  0
  5  7  1  0
  6  8  2  0
  7  9  2  0
  8  9  1  0
  8 10  1  0
 10 11  2  0
 10 12  1  0
 12 13  1  0
 12 14  1  0
 13 15  1  0
 14 16  1  0
 15 17  1  0
 16 17  1  0
M  END
