JOO-IND-b2fae8f6-2-vinylsulfonamide
     RDKit          3D

 20 22  0  0  0  0  0  0  0  0999 V2000
    8.1220   -4.0620   20.0380 C   0  0  0  0  0  0  0  0  0  0  0  0
    7.0970   -2.9870   19.7500 C   0  0  0  0  0  0  0  0  0  0  0  0
    5.6890   -3.7460   20.4570 S   0  0  0  0  0  0  0  0  0  0  0  0
    4.7460   -2.9020   20.9920 O   0  0  0  0  0  0  0  0  0  0  0  0
    5.1570   -4.7670   19.6140 O   0  0  0  0  0  0  0  0  0  0  0  0
    6.4240   -4.4500   21.8780 C   0  0  0  0  0  0  0  0  0  0  0  0
    5.7910   -5.4840   22.3870 N   0  0  0  0  0  0  0  0  0  0  0  0
    7.5370   -3.8840   22.3140 N   0  0  0  0  0  0  0  0  0  0  0  0
    6.3800   -5.9990   23.4880 C   0  0  0  0  0  0  0  0  0  0  0  0
    8.0580   -4.5350   23.4920 C   0  0  0  0  0  0  0  0  0  0  0  0
    7.5020   -5.5770   24.0870 N   0  0  0  0  0  0  0  0  0  0  0  0
    9.3520   -3.8920   23.9680 C   0  0  0  0  0  0  0  0  0  0  0  0
    9.8190   -2.7510   23.4880 N   0  0  0  0  0  0  0  0  0  0  0  0
   10.3230   -4.6550   25.1670 S   0  0  0  0  0  0  0  0  0  0  0  0
   11.0010   -2.4870   24.0450 C   0  0  0  0  0  0  0  0  0  0  0  0
   11.4880   -3.4130   24.9960 C   0  0  0  0  0  0  0  0  0  0  0  0
   11.7830   -1.2470   23.6550 C   0  0  0  0  0  0  0  0  0  0  0  0
   12.7040   -3.2750   25.6260 C   0  0  0  0  0  0  0  0  0  0  0  0
   13.0610   -1.2520   24.4230 C   0  0  0  0  0  0  0  0  0  0  0  0
   13.4800   -2.1960   25.3300 C   0  0  0  0  0  0  0  0  0  0  0  0
  1  2  1  0
  3  2  1  0
  3  4  2  0
  3  5  2  0
  3  6  1  0
  6  7  2  0
  6  8  1  0
  7  9  1  0
  8 10  2  0
  9 11  2  0
 10 11  1  0
 10 12  1  0
 12 13  2  0
 12 14  1  0
 13 15  1  0
 14 16  1  0
 15 16  2  0
 15 17  1  0
 16 18  1  0
 17 19  2  0
 18 20  2  0
 19 20  1  0
M  END
