JOO-IND-3132366c-1-bromoalkyne
     RDKit          3D

 26 29  0  0  0  0  0  0  0  0999 V2000
    7.0770   -3.3370   19.6360 C   0  0  0  0  0  0  0  0  0  0  0  0
    6.4460   -2.7810   18.6200 C   0  0  0  0  0  0  0  0  0  0  0  0
    6.9150   -2.6770   20.8470 N   0  0  0  0  0  0  0  0  0  0  0  0
    6.4410   -3.2300   22.1110 C   0  0  0  0  0  0  0  0  0  0  0  0
    7.6500   -1.4320   21.0400 C   0  0  0  0  0  0  0  0  0  0  0  0
    7.6890   -3.4780   22.9530 C   0  0  0  0  0  0  0  0  0  0  0  0
    8.7730   -1.6600   21.8380 C   0  0  0  0  0  0  0  0  0  0  0  0
    8.5310   -2.2780   23.1510 N   0  0  0  0  0  0  0  0  0  0  0  0
    9.8030   -2.6510   23.7790 C   0  0  1  0  0  0  0  0  0  0  0  0
   10.8920   -1.6020   23.5080 C   0  0  0  0  0  0  0  0  0  0  0  0
    9.6210   -3.0030   25.1040 N   0  0  0  0  0  0  0  0  0  0  0  0
   12.0990   -2.0010   22.9220 C   0  0  0  0  0  0  0  0  0  0  0  0
   10.7130   -0.2470   23.7980 C   0  0  0  0  0  0  0  0  0  0  0  0
    8.3160   -2.8520   25.4970 C   0  0  0  0  0  0  0  0  0  0  0  0
   10.0540   -4.3180   25.1980 C   0  0  0  0  0  0  0  0  0  0  0  0
   13.1100   -1.0970   22.6190 C   0  0  0  0  0  0  0  0  0  0  0  0
   11.7730    0.6610   23.4590 C   0  0  0  0  0  0  0  0  0  0  0  0
    9.5120    0.1740   24.3900 C   0  0  0  0  0  0  0  0  0  0  0  0
    7.5910   -3.9730   25.9580 C   0  0  0  0  0  0  0  0  0  0  0  0
   10.1790   -4.7910   26.4980 C   0  0  0  0  0  0  0  0  0  0  0  0
   12.9530    0.2350   22.8860 C   0  0  0  0  0  0  0  0  0  0  0  0
   11.6410    2.0230   23.6910 C   0  0  0  0  0  0  0  0  0  0  0  0
    9.2920    1.6720   24.6820 C   0  0  0  0  0  0  0  0  0  0  0  0
    7.9250   -4.4930   27.2040 C   0  0  0  0  0  0  0  0  0  0  0  0
    9.2870   -4.1840   27.4210 O   0  0  0  0  0  0  0  0  0  0  0  0
   10.4020    2.6500   24.3080 C   0  0  0  0  0  0  0  0  0  0  0  0
  1  2  2  3
  1  3  1  0
  3  4  1  0
  3  5  1  0
  4  6  1  0
  5  7  1  0
  6  8  1  0
  7  8  1  0
  8  9  1  0
  9 10  1  1
  9 11  1  0
 10 12  2  0
 10 13  1  0
 11 14  1  0
 11 15  1  0
 12 16  1  0
 13 17  2  0
 13 18  1  0
 14 19  1  0
 15 20  1  0
 16 21  2  0
 17 21  1  0
 17 22  1  0
 18 23  2  0
 19 24  1  0
 20 25  1  0
 24 25  1  0
 22 26  2  0
 23 26  1  0
M  END
