JOO-IND-9269dfbd-2
     RDKit          3D

 29 31  0  0  0  0  0  0  0  0999 V2000
    6.7630   -0.3360   22.6690 N   0  0  0  0  0  0  0  0  0  0  0  0
    7.8980   -0.6020   22.0200 C   0  0  1  0  0  0  0  0  0  0  0  0
    9.3770   -0.5130   21.6190 C   0  0  0  0  0  0  0  0  0  0  0  0
    7.7270   -2.1580   21.9820 C   0  0  0  0  0  0  0  0  0  0  0  0
   10.3670   -1.2540   22.5330 C   0  0  2  0  0  0  0  0  0  0  0  0
    8.0990   -2.8510   22.9160 O   0  0  0  0  0  0  0  0  0  0  0  0
    7.0160   -2.7080   20.6790 C   0  0  0  0  0  0  0  0  0  0  0  0
   10.9830   -0.4890   23.6910 C   0  0  0  0  0  0  0  0  0  0  0  0
   11.6300   -1.7010   21.8170 C   0  0  0  0  0  0  0  0  0  0  0  0
    7.0400   -2.0940   19.4590 O   0  0  0  0  0  0  0  0  0  0  0  0
    6.2820   -3.8730   20.7170 N   0  0  0  0  0  0  0  0  0  0  0  0
   12.4450   -0.2590   23.4880 C   0  0  0  0  0  0  0  0  0  0  0  0
   12.7240   -0.9820   22.2410 N   0  0  0  0  0  0  0  0  0  0  0  0
   11.7430   -2.5990   20.9990 O   0  0  0  0  0  0  0  0  0  0  0  0
    6.3760   -4.8300   21.7300 C   0  0  0  0  0  0  0  0  0  0  0  0
    5.6610   -4.7230   22.9060 C   0  0  0  0  0  0  0  0  0  0  0  0
    5.8030   -3.6560   23.8090 C   0  0  0  0  0  0  0  0  0  0  0  0
    4.7600   -5.7530   23.1790 C   0  0  0  0  0  0  0  0  0  0  0  0
    5.0680   -3.6000   24.9680 C   0  0  0  0  0  0  0  0  0  0  0  0
    3.9730   -5.7650   24.3360 C   0  0  0  0  0  0  0  0  0  0  0  0
    4.0770   -4.7310   25.2650 C   0  0  0  0  0  0  0  0  0  0  0  0
    3.0440   -6.9080   24.5220 C   0  0  0  0  0  0  0  0  0  0  0  0
    3.6250   -8.1050   24.8230 O   0  0  0  0  0  0  0  0  0  0  0  0
    1.6830   -6.7580   24.3970 N   0  0  0  0  0  0  0  0  0  0  0  0
    1.3810   -5.7650   23.5240 C   0  0  0  0  0  0  0  0  0  0  0  0
    0.9410   -7.8620   24.2360 C   0  0  0  0  0  0  0  0  0  0  0  0
    0.1040   -5.1110   23.9650 C   0  0  0  0  0  0  0  0  0  0  0  0
   -0.2020   -7.7040   25.0150 C   0  0  0  0  0  0  0  0  0  0  0  0
   -1.2140   -6.2770   24.4530 S   0  0  0  0  0  0  0  0  0  0  0  0
  2  1  1  1
  2  3  1  0
  2  4  1  0
  5  3  1  6
  4  6  2  0
  4  7  1  0
  5  8  1  0
  5  9  1  0
  7 10  2  0
  7 11  1  0
  8 12  1  0
  9 13  1  0
 12 13  1  0
  9 14  2  0
 11 15  1  0
 15 16  1  0
 16 17  2  0
 16 18  1  0
 17 19  1  0
 18 20  2  0
 19 21  2  0
 20 21  1  0
 20 22  1  0
 22 23  2  0
 22 24  1  0
 24 25  1  0
 24 26  1  0
 25 27  1  0
 26 28  1  0
 27 29  1  0
 28 29  1  0
M  END
