JOO-IND-b2fae8f6-2-bromoalkyne
     RDKit          3D

 17 19  0  0  0  0  0  0  0  0999 V2000
    7.0270   -3.9380   19.9910 C   0  0  0  0  0  0  0  0  0  0  0  0
    5.8280   -3.3780   19.2910 C   0  0  0  0  0  0  0  0  0  0  0  0
    7.0380   -4.4430   21.3930 C   0  0  0  0  0  0  0  0  0  0  0  0
    6.1090   -5.2900   21.8960 N   0  0  0  0  0  0  0  0  0  0  0  0
    8.0520   -3.9890   22.0680 N   0  0  0  0  0  0  0  0  0  0  0  0
    6.3090   -5.6580   23.2280 C   0  0  0  0  0  0  0  0  0  0  0  0
    8.1460   -4.4510   23.4230 C   0  0  0  0  0  0  0  0  0  0  0  0
    7.3090   -5.2580   24.0310 N   0  0  0  0  0  0  0  0  0  0  0  0
    9.4090   -3.8520   23.9780 C   0  0  0  0  0  0  0  0  0  0  0  0
    9.8730   -2.7170   23.5080 N   0  0  0  0  0  0  0  0  0  0  0  0
   10.3480   -4.6180   25.1920 S   0  0  0  0  0  0  0  0  0  0  0  0
   11.0390   -2.4760   24.0810 C   0  0  0  0  0  0  0  0  0  0  0  0
   11.4990   -3.4000   25.0200 C   0  0  0  0  0  0  0  0  0  0  0  0
   11.8300   -1.2550   23.7020 C   0  0  0  0  0  0  0  0  0  0  0  0
   12.7090   -3.2590   25.6420 C   0  0  0  0  0  0  0  0  0  0  0  0
   13.1220   -1.2190   24.4460 C   0  0  0  0  0  0  0  0  0  0  0  0
   13.5120   -2.1920   25.3630 C   0  0  0  0  0  0  0  0  0  0  0  0
  1  2  2  3
  1  3  1  0
  3  4  2  0
  3  5  1  0
  4  6  1  0
  5  7  2  0
  6  8  2  0
  7  8  1  0
  7  9  1  0
  9 10  2  0
  9 11  1  0
 10 12  1  0
 11 13  1  0
 12 13  2  0
 12 14  1  0
 13 15  1  0
 14 16  2  0
 15 17  2  0
 16 17  1  0
M  END
