JOO-PER-d7ab4f65-1-chloroacetamide
     RDKit          3D

 26 28  0  0  0  0  0  0  0  0999 V2000
    7.3480   -2.9350   18.7310 C   0  0  0  0  0  0  0  0  0  0  0  0
    6.3450   -3.1610   19.8050 C   0  0  0  0  0  0  0  0  0  0  0  0
    5.3950   -3.9270   19.6260 O   0  0  0  0  0  0  0  0  0  0  0  0
    6.5340   -2.4730   21.0120 N   0  0  0  0  0  0  0  0  0  0  0  0
    6.4470   -3.1660   22.2540 C   0  0  0  0  0  0  0  0  0  0  0  0
    7.4300   -1.3150   21.0930 C   0  0  0  0  0  0  0  0  0  0  0  0
    7.6300   -3.4120   22.9430 C   0  0  0  0  0  0  0  0  0  0  0  0
    8.6060   -1.6690   21.7320 C   0  0  0  0  0  0  0  0  0  0  0  0
    8.3070   -2.2640   23.0470 N   0  0  0  0  0  0  0  0  0  0  0  0
    9.4900   -2.4020   23.7280 C   0  0  0  0  0  0  0  0  0  0  0  0
   10.5380   -1.5860   23.3570 C   0  0  0  0  0  0  0  0  0  0  0  0
   11.7500   -1.9870   22.5730 C   0  0  0  0  0  0  0  0  0  0  0  0
   10.3900   -0.1470   23.7770 C   0  0  0  0  0  0  0  0  0  0  0  0
   12.7910   -0.9790   22.2100 C   0  0  0  0  0  0  0  0  0  0  0  0
   11.3300    0.8800   23.4470 C   0  0  0  0  0  0  0  0  0  0  0  0
    9.3870    0.4140   24.5050 N   0  0  0  0  0  0  0  0  0  0  0  0
   13.8230   -1.3550   21.5130 F   0  0  0  0  0  0  0  0  0  0  0  0
   12.5600    0.4610   22.6690 C   0  0  0  0  0  0  0  0  0  0  0  0
    9.6340    1.7520   24.6530 C   0  0  0  0  0  0  0  0  0  0  0  0
   10.9000    2.2780   23.9440 C   0  0  2  0  0  0  0  0  0  0  0  0
   10.8390    3.3850   22.8570 C   0  0  0  0  0  0  0  0  0  0  0  0
   10.7910    4.8620   23.3770 C   0  0  0  0  0  0  0  0  0  0  0  0
   10.5640    5.8950   22.5270 N   0  0  0  0  0  0  0  0  0  0  0  0
    9.7190    6.8450   22.9480 C   0  0  0  0  0  0  0  0  0  0  0  0
    8.4140    7.0810   22.2020 C   0  0  0  0  0  0  0  0  0  0  0  0
    9.9800    7.5390   23.9330 O   0  0  0  0  0  0  0  0  0  0  0  0
  1  2  1  0
  2  3  2  0
  2  4  1  0
  4  5  1  0
  4  6  1  0
  5  7  1  0
  6  8  1  0
  7  9  1  0
  8  9  1  0
  9 10  1  0
 10 11  1  0
 11 12  2  0
 11 13  1  0
 12 14  1  0
 13 15  2  0
 13 16  1  0
 14 17  1  0
 14 18  2  0
 15 18  1  0
 16 19  2  0
 15 20  1  0
 19 20  1  0
 20 21  1  6
 21 22  1  0
 22 23  1  0
 23 24  1  0
 24 25  1  0
 24 26  2  0
M  END
