JOO-IND-6372a4f3-1-chloroacetamide
     RDKit          3D

 18 19  0  0  0  0  0  0  0  0999 V2000
    7.0680   -3.4020   19.5330 C   0  0  0  0  0  0  0  0  0  0  0  0
    6.3550   -4.3060   20.4920 C   0  0  0  0  0  0  0  0  0  0  0  0
    5.4050   -4.9570   20.0460 O   0  0  0  0  0  0  0  0  0  0  0  0
    6.8340   -4.3860   21.8100 N   0  0  0  0  0  0  0  0  0  0  0  0
    5.9070   -4.5270   22.9260 C   0  0  0  0  0  0  0  0  0  0  0  0
    5.8990   -3.3790   23.9050 C   0  0  0  0  0  0  0  0  0  0  0  0
    5.0860   -5.6460   23.0890 C   0  0  0  0  0  0  0  0  0  0  0  0
    4.9530   -3.4920   25.0820 C   0  0  0  0  0  0  0  0  0  0  0  0
    4.2060   -5.7540   24.1840 C   0  0  0  0  0  0  0  0  0  0  0  0
    4.0780   -4.7660   25.1870 C   0  0  0  0  0  0  0  0  0  0  0  0
    3.3430   -7.0020   24.3050 C   0  0  0  0  0  0  0  0  0  0  0  0
    3.7890   -8.0340   24.7950 O   0  0  0  0  0  0  0  0  0  0  0  0
    1.9770   -6.8370   23.8020 N   0  0  0  0  0  0  0  0  0  0  0  0
    1.5090   -5.4910   23.4950 C   0  0  0  0  0  0  0  0  0  0  0  0
    0.9990   -7.9400   24.0100 C   0  0  0  0  0  0  0  0  0  0  0  0
    0.4640   -5.0660   24.3230 C   0  0  0  0  0  0  0  0  0  0  0  0
    0.0080   -7.5400   24.9310 C   0  0  0  0  0  0  0  0  0  0  0  0
   -0.8470   -6.1440   24.4260 S   0  0  0  0  0  0  0  0  0  0  0  0
  1  2  1  0
  2  3  2  0
  2  4  1  0
  4  5  1  0
  5  6  2  0
  5  7  1  0
  6  8  1  0
  7  9  2  0
  8 10  2  0
  9 10  1  0
  9 11  1  0
 11 12  2  0
 11 13  1  0
 13 14  1  0
 13 15  1  0
 14 16  1  0
 15 17  1  0
 16 18  1  0
 17 18  1  0
M  END
