JOO-IND-3132366c-1-chloroacetamide
     RDKit          3D

 27 30  0  0  0  0  0  0  0  0999 V2000
    7.4260   -2.9420   18.7480 C   0  0  0  0  0  0  0  0  0  0  0  0
    6.4820   -3.0490   19.6660 C   0  0  0  0  0  0  0  0  0  0  0  0
    5.4950   -3.7810   19.5250 O   0  0  0  0  0  0  0  0  0  0  0  0
    6.6410   -2.2990   20.8300 N   0  0  0  0  0  0  0  0  0  0  0  0
    6.3520   -2.9980   22.0820 C   0  0  0  0  0  0  0  0  0  0  0  0
    7.6170   -1.2100   20.9480 C   0  0  0  0  0  0  0  0  0  0  0  0
    7.6910   -3.4160   22.6850 C   0  0  0  0  0  0  0  0  0  0  0  0
    8.7590   -1.5750   21.6890 C   0  0  0  0  0  0  0  0  0  0  0  0
    8.5370   -2.2560   22.9630 N   0  0  0  0  0  0  0  0  0  0  0  0
    9.8000   -2.6540   23.5880 C   0  0  1  0  0  0  0  0  0  0  0  0
   10.8940   -1.6060   23.3570 C   0  0  0  0  0  0  0  0  0  0  0  0
    9.5920   -2.8510   24.9210 N   0  0  0  0  0  0  0  0  0  0  0  0
   12.0990   -1.9870   22.7640 C   0  0  0  0  0  0  0  0  0  0  0  0
   10.7130   -0.2600   23.7000 C   0  0  0  0  0  0  0  0  0  0  0  0
   10.3890   -3.7860   25.5070 C   0  0  0  0  0  0  0  0  0  0  0  0
    8.2570   -2.6810   25.3280 C   0  0  0  0  0  0  0  0  0  0  0  0
   13.1160   -1.0730   22.5060 C   0  0  0  0  0  0  0  0  0  0  0  0
   11.7810    0.6570   23.4060 C   0  0  0  0  0  0  0  0  0  0  0  0
    9.5080    0.1490   24.3020 C   0  0  0  0  0  0  0  0  0  0  0  0
    9.8900   -5.0500   25.8230 C   0  0  0  0  0  0  0  0  0  0  0  0
    7.7370   -3.8250   25.9520 C   0  0  0  0  0  0  0  0  0  0  0  0
   12.9590    0.2460   22.8270 C   0  0  0  0  0  0  0  0  0  0  0  0
   11.6540    2.0110   23.6910 C   0  0  0  0  0  0  0  0  0  0  0  0
    9.2950    1.6400   24.6500 C   0  0  0  0  0  0  0  0  0  0  0  0
    9.3150   -5.1790   27.0810 C   0  0  0  0  0  0  0  0  0  0  0  0
    8.3730   -4.1340   27.1920 O   0  0  0  0  0  0  0  0  0  0  0  0
   10.4160    2.6230   24.3250 C   0  0  0  0  0  0  0  0  0  0  0  0
  1  2  1  0
  2  3  2  0
  2  4  1  0
  4  5  1  0
  4  6  1  0
  5  7  1  0
  6  8  1  0
  7  9  1  0
  8  9  1  0
  9 10  1  0
 10 11  1  1
 10 12  1  0
 11 13  2  0
 11 14  1  0
 12 15  1  0
 12 16  1  0
 13 17  1  0
 14 18  2  0
 14 19  1  0
 15 20  1  0
 16 21  1  0
 17 22  2  0
 18 22  1  0
 18 23  1  0
 19 24  2  0
 20 25  1  0
 21 26  1  0
 25 26  1  0
 23 27  2  0
 24 27  1  0
M  END
