JOO-IND-6372a4f3-1-acrylamide
     RDKit          3D

 19 20  0  0  0  0  0  0  0  0999 V2000
    8.3010   -4.1800   20.3380 C   0  0  0  0  0  0  0  0  0  0  0  0
    7.3930   -3.0130   20.2380 C   0  0  0  0  0  0  0  0  0  0  0  0
    6.2400   -3.5210   20.9820 C   0  0  0  0  0  0  0  0  0  0  0  0
    5.1110   -3.4210   20.5460 O   0  0  0  0  0  0  0  0  0  0  0  0
    6.6170   -4.1100   22.1610 N   0  0  0  0  0  0  0  0  0  0  0  0
    5.7340   -4.4180   23.2320 C   0  0  0  0  0  0  0  0  0  0  0  0
    5.7870   -3.3470   24.3120 C   0  0  0  0  0  0  0  0  0  0  0  0
    4.9280   -5.5510   23.2830 C   0  0  0  0  0  0  0  0  0  0  0  0
    4.8770   -3.5650   25.5180 C   0  0  0  0  0  0  0  0  0  0  0  0
    4.0930   -5.7670   24.3750 C   0  0  0  0  0  0  0  0  0  0  0  0
    4.0600   -4.8490   25.4210 C   0  0  0  0  0  0  0  0  0  0  0  0
    3.2220   -6.9910   24.4290 C   0  0  0  0  0  0  0  0  0  0  0  0
    3.6670   -8.1850   24.9080 O   0  0  0  0  0  0  0  0  0  0  0  0
    1.8510   -6.8440   23.9430 N   0  0  0  0  0  0  0  0  0  0  0  0
    0.8940   -7.9560   24.0620 C   0  0  0  0  0  0  0  0  0  0  0  0
    1.3400   -5.5820   23.4280 C   0  0  0  0  0  0  0  0  0  0  0  0
   -0.1460   -7.5850   24.9260 C   0  0  0  0  0  0  0  0  0  0  0  0
    0.3560   -5.0660   24.2790 C   0  0  0  0  0  0  0  0  0  0  0  0
   -1.0480   -6.2040   24.4550 S   0  0  0  0  0  0  0  0  0  0  0  0
  1  2  1  0
  2  3  1  0
  3  4  2  0
  3  5  1  0
  5  6  1  0
  6  7  2  0
  6  8  1  0
  7  9  1  0
  8 10  2  0
  9 11  2  0
 10 11  1  0
 10 12  1  0
 12 13  2  0
 12 14  1  0
 14 15  1  0
 14 16  1  0
 15 17  1  0
 16 18  1  0
 17 19  1  0
 18 19  1  0
M  END
