JOO-IND-b13e14cc-1-vinylsulfonamide
     RDKit          3D

 20 22  0  0  0  0  0  0  0  0999 V2000
    8.6830   -3.8530   20.2030 C   0  0  0  0  0  0  0  0  0  0  0  0
    7.5270   -3.0500   19.5380 C   0  0  0  0  0  0  0  0  0  0  0  0
    5.9710   -3.3810   20.3810 S   0  0  0  0  0  0  0  0  0  0  0  0
    5.0770   -4.2740   19.6690 O   0  0  0  0  0  0  0  0  0  0  0  0
    5.4530   -2.1470   20.9340 O   0  0  0  0  0  0  0  0  0  0  0  0
    6.5560   -4.2710   21.6760 N   0  0  0  0  0  0  0  0  0  0  0  0
    5.7710   -5.4220   22.1150 C   0  0  0  0  0  0  0  0  0  0  0  0
    7.3360   -3.4990   22.6520 C   0  0  0  0  0  0  0  0  0  0  0  0
    6.4000   -6.2110   23.2550 C   0  0  0  0  0  0  0  0  0  0  0  0
    8.2470   -4.6210   23.1510 C   0  0  2  0  0  0  0  0  0  0  0  0
    7.3360   -5.3400   24.0940 C   0  0  0  0  0  0  0  0  0  0  0  0
    9.4520   -3.9680   23.7770 C   0  0  0  0  0  0  0  0  0  0  0  0
    9.9080   -2.7440   23.2950 N   0  0  0  0  0  0  0  0  0  0  0  0
   10.3670   -4.6720   25.0560 S   0  0  0  0  0  0  0  0  0  0  0  0
   11.1130   -2.4250   23.9680 C   0  0  0  0  0  0  0  0  0  0  0  0
   11.4780   -3.3690   24.8930 C   0  0  0  0  0  0  0  0  0  0  0  0
   11.9440   -1.2300   23.7340 C   0  0  0  0  0  0  0  0  0  0  0  0
   12.6420   -3.2500   25.6000 C   0  0  0  0  0  0  0  0  0  0  0  0
   13.1080   -1.1290   24.4670 C   0  0  0  0  0  0  0  0  0  0  0  0
   13.4730   -2.1440   25.4010 C   0  0  0  0  0  0  0  0  0  0  0  0
  1  2  1  0
  3  2  1  0
  3  4  2  0
  3  5  2  0
  3  6  1  0
  6  7  1  0
  6  8  1  0
  7  9  1  0
  8 10  1  0
  9 11  1  0
 10 11  1  0
 10 12  1  1
 12 13  2  0
 12 14  1  0
 13 15  1  0
 14 16  1  0
 15 16  2  0
 15 17  1  0
 16 18  1  0
 17 19  2  0
 18 20  2  0
 19 20  1  0
M  END
