JOO-IND-6372a4f3-4-bromoalkyne
     RDKit          3D

 19 21  0  0  0  0  0  0  0  0999 V2000
    7.0490   -3.4050   19.7180 C   0  0  0  0  0  0  0  0  0  0  0  0
    6.2920   -2.7490   18.6070 C   0  0  0  0  0  0  0  0  0  0  0  0
    7.0540   -2.7310   20.9350 N   0  0  0  0  0  0  0  0  0  0  0  0
    6.5760   -3.2410   22.2060 C   0  0  0  0  0  0  0  0  0  0  0  0
    7.8680   -1.5230   21.0830 C   0  0  0  0  0  0  0  0  0  0  0  0
    7.7420   -3.5570   23.1280 C   0  0  0  0  0  0  0  0  0  0  0  0
    9.0300   -1.8160   21.7920 C   0  0  0  0  0  0  0  0  0  0  0  0
    8.7170   -2.4130   23.1250 N   0  0  0  0  0  0  0  0  0  0  0  0
    9.7510   -2.4770   23.9830 C   0  0  0  0  0  0  0  0  0  0  0  0
   10.8890   -1.5760   23.5240 C   0  0  0  0  0  0  0  0  0  0  0  0
   12.1270   -2.0190   22.8000 C   0  0  0  0  0  0  0  0  0  0  0  0
   10.6710   -0.0910   23.8640 C   0  0  0  0  0  0  0  0  0  0  0  0
   13.1590   -1.0430   22.4050 C   0  0  0  0  0  0  0  0  0  0  0  0
   11.6600    0.8480   23.4710 C   0  0  0  0  0  0  0  0  0  0  0  0
    9.5350    0.3790   24.5410 C   0  0  0  0  0  0  0  0  0  0  0  0
   12.9300    0.4000   22.7450 C   0  0  0  0  0  0  0  0  0  0  0  0
   11.5020    2.1970   23.7250 C   0  0  0  0  0  0  0  0  0  0  0  0
    9.3780    1.7280   24.7980 C   0  0  0  0  0  0  0  0  0  0  0  0
   10.3610    2.6130   24.3780 C   0  0  0  0  0  0  0  0  0  0  0  0
  1  2  2  3
  1  3  1  0
  3  4  1  0
  3  5  1  0
  4  6  1  0
  5  7  1  0
  6  8  1  0
  7  8  1  0
  8  9  1  0
  9 10  1  0
 10 11  2  0
 10 12  1  0
 11 13  1  0
 12 14  2  0
 12 15  1  0
 13 16  2  0
 14 16  1  0
 14 17  1  0
 15 18  2  0
 17 19  2  0
 18 19  1  0
M  END
