JOO-IND-b2fae8f6-2-acrylamide
     RDKit          3D

 19 21  0  0  0  0  0  0  0  0999 V2000
    7.3670   -2.8940   18.5620 C   0  0  0  0  0  0  0  0  0  0  0  0
    6.7020   -2.6210   19.8740 C   0  0  0  0  0  0  0  0  0  0  0  0
    6.0530   -3.8710   20.3910 C   0  0  0  0  0  0  0  0  0  0  0  0
    5.1360   -4.4340   19.8080 O   0  0  0  0  0  0  0  0  0  0  0  0
    6.5820   -4.4430   21.6520 C   0  0  0  0  0  0  0  0  0  0  0  0
    5.9250   -5.4760   22.1630 N   0  0  0  0  0  0  0  0  0  0  0  0
    7.7020   -3.8740   22.1930 N   0  0  0  0  0  0  0  0  0  0  0  0
    6.4510   -5.9460   23.2920 C   0  0  0  0  0  0  0  0  0  0  0  0
    8.1210   -4.4430   23.3080 C   0  0  0  0  0  0  0  0  0  0  0  0
    7.5370   -5.4820   23.9170 N   0  0  0  0  0  0  0  0  0  0  0  0
    9.3850   -3.8270   23.8540 C   0  0  0  0  0  0  0  0  0  0  0  0
    9.8820   -2.7040   23.4020 N   0  0  0  0  0  0  0  0  0  0  0  0
   10.3080   -4.5840   25.0930 S   0  0  0  0  0  0  0  0  0  0  0  0
   11.0720   -2.4410   24.0060 C   0  0  0  0  0  0  0  0  0  0  0  0
   11.4980   -3.3600   24.9580 C   0  0  0  0  0  0  0  0  0  0  0  0
   11.9470   -1.2770   23.7260 C   0  0  0  0  0  0  0  0  0  0  0  0
   12.6880   -3.2830   25.6570 C   0  0  0  0  0  0  0  0  0  0  0  0
   13.1050   -1.1830   24.3940 C   0  0  0  0  0  0  0  0  0  0  0  0
   13.4870   -2.1930   25.3660 C   0  0  0  0  0  0  0  0  0  0  0  0
  1  2  1  0
  2  3  1  0
  3  4  2  0
  3  5  1  0
  5  6  2  0
  5  7  1  0
  6  8  1  0
  7  9  2  0
  8 10  2  0
  9 10  1  0
  9 11  1  0
 11 12  2  0
 11 13  1  0
 12 14  1  0
 13 15  1  0
 14 15  2  0
 14 16  1  0
 15 17  1  0
 16 18  2  0
 17 19  2  0
 18 19  1  0
M  END
