JOO-IND-3132366c-1-vinylsulfonamide
     RDKit          3D

 29 32  0  0  0  0  0  0  0  0999 V2000
    7.6410   -3.0020   18.4140 C   0  0  0  0  0  0  0  0  0  0  0  0
    7.4120   -2.4180   19.5340 C   0  0  0  0  0  0  0  0  0  0  0  0
    6.3200   -3.3930   20.4960 S   0  0  0  0  0  0  0  0  0  0  0  0
    5.0000   -3.5240   19.8980 O   0  0  0  0  0  0  0  0  0  0  0  0
    7.0030   -4.5590   21.0730 O   0  0  0  0  0  0  0  0  0  0  0  0
    6.2680   -2.2130   21.6740 N   0  0  0  0  0  0  0  0  0  0  0  0
    7.2640   -1.1090   21.5060 C   0  0  0  0  0  0  0  0  0  0  0  0
    6.3060   -2.8280   22.9740 C   0  0  0  0  0  0  0  0  0  0  0  0
    8.6430   -1.5080   22.0860 C   0  0  0  0  0  0  0  0  0  0  0  0
    7.6140   -3.2580   23.1890 C   0  0  0  0  0  0  0  0  0  0  0  0
    8.5320   -2.1510   23.4070 N   0  0  0  0  0  0  0  0  0  0  0  0
    9.8020   -2.6280   23.9670 C   0  0  1  0  0  0  0  0  0  0  0  0
   10.9090   -1.6250   23.6150 C   0  0  0  0  0  0  0  0  0  0  0  0
    9.7020   -2.8580   25.3360 N   0  0  0  0  0  0  0  0  0  0  0  0
   12.1020   -2.0330   23.0140 C   0  0  0  0  0  0  0  0  0  0  0  0
   10.7450   -0.2610   23.8580 C   0  0  0  0  0  0  0  0  0  0  0  0
   10.4300   -3.8880   25.8460 C   0  0  0  0  0  0  0  0  0  0  0  0
    8.4000   -2.7940   25.8570 C   0  0  0  0  0  0  0  0  0  0  0  0
   13.1130   -1.1510   22.6530 C   0  0  0  0  0  0  0  0  0  0  0  0
   11.7990    0.6450   23.4630 C   0  0  0  0  0  0  0  0  0  0  0  0
    9.5740    0.2050   24.4590 C   0  0  0  0  0  0  0  0  0  0  0  0
    9.8560   -4.6230   26.9030 C   0  0  0  0  0  0  0  0  0  0  0  0
    7.6370   -3.9690   25.7220 C   0  0  0  0  0  0  0  0  0  0  0  0
   12.9660    0.1930   22.8770 C   0  0  0  0  0  0  0  0  0  0  0  0
   11.6870    2.0340   23.6470 C   0  0  0  0  0  0  0  0  0  0  0  0
    9.3440    1.6920   24.7080 C   0  0  0  0  0  0  0  0  0  0  0  0
    9.1170   -5.6810   26.4170 C   0  0  0  0  0  0  0  0  0  0  0  0
    8.3830   -5.1300   25.3440 O   0  0  0  0  0  0  0  0  0  0  0  0
   10.4390    2.6550   24.2770 C   0  0  0  0  0  0  0  0  0  0  0  0
  1  2  1  0
  3  2  1  0
  3  4  2  0
  3  5  2  0
  3  6  1  0
  6  7  1  0
  6  8  1  0
  7  9  1  0
  8 10  1  0
  9 11  1  0
 10 11  1  0
 11 12  1  0
 12 13  1  1
 12 14  1  0
 13 15  2  0
 13 16  1  0
 14 17  1  0
 14 18  1  0
 15 19  1  0
 16 20  2  0
 16 21  1  0
 17 22  1  0
 18 23  1  0
 19 24  2  0
 20 24  1  0
 20 25  1  0
 21 26  2  0
 22 27  1  0
 23 28  1  0
 27 28  1  0
 25 29  2  0
 26 29  1  0
M  END
