JOO-IND-b2fae8f6-2-chloroacetamide
     RDKit          3D

 18 20  0  0  0  0  0  0  0  0999 V2000
    7.0970   -3.2110   19.3560 C   0  0  0  0  0  0  0  0  0  0  0  0
    6.2150   -4.0620   20.2330 C   0  0  0  0  0  0  0  0  0  0  0  0
    5.1460   -4.4610   19.8290 O   0  0  0  0  0  0  0  0  0  0  0  0
    6.6930   -4.4600   21.5820 C   0  0  0  0  0  0  0  0  0  0  0  0
    5.9520   -5.3920   22.2010 N   0  0  0  0  0  0  0  0  0  0  0  0
    7.7810   -3.9040   22.0820 N   0  0  0  0  0  0  0  0  0  0  0  0
    6.3820   -5.7770   23.4490 C   0  0  0  0  0  0  0  0  0  0  0  0
    8.1190   -4.4130   23.4050 C   0  0  0  0  0  0  0  0  0  0  0  0
    7.4520   -5.3150   24.0900 N   0  0  0  0  0  0  0  0  0  0  0  0
    9.3940   -3.7920   23.9160 C   0  0  0  0  0  0  0  0  0  0  0  0
    9.8720   -2.6710   23.4390 N   0  0  0  0  0  0  0  0  0  0  0  0
   10.3270   -4.5610   25.1420 S   0  0  0  0  0  0  0  0  0  0  0  0
   11.0390   -2.4390   24.0210 C   0  0  0  0  0  0  0  0  0  0  0  0
   11.4860   -3.3610   24.9760 C   0  0  0  0  0  0  0  0  0  0  0  0
   11.8450   -1.2320   23.6450 C   0  0  0  0  0  0  0  0  0  0  0  0
   12.6880   -3.2310   25.6150 C   0  0  0  0  0  0  0  0  0  0  0  0
   13.1280   -1.2050   24.4090 C   0  0  0  0  0  0  0  0  0  0  0  0
   13.5010   -2.1730   25.3390 C   0  0  0  0  0  0  0  0  0  0  0  0
  1  2  1  0
  2  3  2  0
  2  4  1  0
  4  5  2  0
  4  6  1  0
  5  7  1  0
  6  8  2  0
  7  9  2  0
  8  9  1  0
  8 10  1  0
 10 11  2  0
 10 12  1  0
 11 13  1  0
 12 14  1  0
 13 14  2  0
 13 15  1  0
 14 16  1  0
 15 17  2  0
 16 18  2  0
 17 18  1  0
M  END
