JOO-IND-b13e14cc-1-bromoalkyne
     RDKit          3D

 17 19  0  0  0  0  0  0  0  0999 V2000
    7.0860   -3.8690   20.0040 C   0  0  0  0  0  0  0  0  0  0  0  0
    5.9420   -3.2990   19.2010 C   0  0  0  0  0  0  0  0  0  0  0  0
    6.9940   -4.2940   21.3410 N   0  0  0  0  0  0  0  0  0  0  0  0
    6.0620   -5.3200   21.7940 C   0  0  0  0  0  0  0  0  0  0  0  0
    8.2220   -4.3330   22.1390 C   0  0  0  0  0  0  0  0  0  0  0  0
    6.6880   -6.2590   22.8370 C   0  0  0  0  0  0  0  0  0  0  0  0
    7.8340   -4.1020   23.6010 C   0  0  1  0  0  0  0  0  0  0  0  0
    7.4480   -5.5240   23.9670 C   0  0  0  0  0  0  0  0  0  0  0  0
    9.1970   -3.6240   24.0530 C   0  0  0  0  0  0  0  0  0  0  0  0
    9.7340   -2.4530   23.5550 N   0  0  0  0  0  0  0  0  0  0  0  0
   10.2290   -4.5310   25.2070 S   0  0  0  0  0  0  0  0  0  0  0  0
   11.0360   -2.2960   24.1010 C   0  0  0  0  0  0  0  0  0  0  0  0
   11.4210   -3.3030   24.9680 C   0  0  0  0  0  0  0  0  0  0  0  0
   11.9410   -1.1750   23.7870 C   0  0  0  0  0  0  0  0  0  0  0  0
   12.6730   -3.2740   25.5540 C   0  0  0  0  0  0  0  0  0  0  0  0
   13.1760   -1.1800   24.3890 C   0  0  0  0  0  0  0  0  0  0  0  0
   13.5480   -2.2260   25.2720 C   0  0  0  0  0  0  0  0  0  0  0  0
  1  2  2  3
  1  3  1  0
  3  4  1  0
  3  5  1  0
  4  6  1  0
  5  7  1  0
  6  8  1  0
  7  8  1  0
  7  9  1  1
  9 10  2  0
  9 11  1  0
 10 12  1  0
 11 13  1  0
 12 13  2  0
 12 14  1  0
 13 15  1  0
 14 16  2  0
 15 17  2  0
 16 17  1  0
M  END
