JOO-IND-b13e14cc-1-chloroacetamide
     RDKit          3D

 18 20  0  0  0  0  0  0  0  0999 V2000
    7.1970   -3.1960   19.3160 C   0  0  0  0  0  0  0  0  0  0  0  0
    6.2480   -3.9510   20.2470 C   0  0  0  0  0  0  0  0  0  0  0  0
    5.1990   -4.3990   19.8080 O   0  0  0  0  0  0  0  0  0  0  0  0
    6.5450   -4.1760   21.5870 N   0  0  0  0  0  0  0  0  0  0  0  0
    5.9210   -5.3520   22.1530 C   0  0  0  0  0  0  0  0  0  0  0  0
    7.8380   -3.7850   22.1890 C   0  0  0  0  0  0  0  0  0  0  0  0
    6.9630   -6.2770   22.7130 C   0  0  0  0  0  0  0  0  0  0  0  0
    7.8170   -4.0920   23.7220 C   0  0  1  0  0  0  0  0  0  0  0  0
    7.7120   -5.6060   23.8590 C   0  0  0  0  0  0  0  0  0  0  0  0
    9.1940   -3.6010   24.1090 C   0  0  0  0  0  0  0  0  0  0  0  0
    9.7240   -2.4410   23.5820 N   0  0  0  0  0  0  0  0  0  0  0  0
   10.2410   -4.5040   25.2520 S   0  0  0  0  0  0  0  0  0  0  0  0
   11.0360   -2.2870   24.1030 C   0  0  0  0  0  0  0  0  0  0  0  0
   11.4310   -3.2840   24.9740 C   0  0  0  0  0  0  0  0  0  0  0  0
   11.9450   -1.1750   23.7650 C   0  0  0  0  0  0  0  0  0  0  0  0
   12.6850   -3.2600   25.5430 C   0  0  0  0  0  0  0  0  0  0  0  0
   13.1930   -1.1780   24.3500 C   0  0  0  0  0  0  0  0  0  0  0  0
   13.5630   -2.2230   25.2410 C   0  0  0  0  0  0  0  0  0  0  0  0
  1  2  1  0
  2  3  2  0
  2  4  1  0
  4  5  1  0
  4  6  1  0
  5  7  1  0
  6  8  1  0
  7  9  1  0
  8  9  1  0
  8 10  1  6
 10 11  2  0
 10 12  1  0
 11 13  1  0
 12 14  1  0
 13 14  2  0
 13 15  1  0
 14 16  1  0
 15 17  2  0
 16 18  2  0
 17 18  1  0
M  END
