JOO-PER-d7ab4f65-1-acrylamide
     RDKit          3D

 27 29  0  0  0  0  0  0  0  0999 V2000
    7.4020   -2.8590   18.2300 C   0  0  0  0  0  0  0  0  0  0  0  0
    6.7140   -1.9640   19.1640 C   0  0  0  0  0  0  0  0  0  0  0  0
    6.0150   -2.6700   20.2910 C   0  0  0  0  0  0  0  0  0  0  0  0
    5.0980   -3.5280   20.1320 O   0  0  0  0  0  0  0  0  0  0  0  0
    6.4760   -2.2670   21.5190 N   0  0  0  0  0  0  0  0  0  0  0  0
    6.4690   -3.1040   22.6680 C   0  0  0  0  0  0  0  0  0  0  0  0
    7.4740   -1.1850   21.5640 C   0  0  0  0  0  0  0  0  0  0  0  0
    7.7270   -3.4130   23.2090 C   0  0  0  0  0  0  0  0  0  0  0  0
    8.6740   -1.7000   22.0040 C   0  0  0  0  0  0  0  0  0  0  0  0
    8.4670   -2.3090   23.3240 N   0  0  0  0  0  0  0  0  0  0  0  0
    9.5510   -2.2940   24.1390 C   0  0  0  0  0  0  0  0  0  0  0  0
   10.6270   -1.3930   23.5890 C   0  0  0  0  0  0  0  0  0  0  0  0
   11.7760   -1.9390   22.7920 C   0  0  0  0  0  0  0  0  0  0  0  0
   10.5120    0.1000   23.8370 C   0  0  0  0  0  0  0  0  0  0  0  0
   12.7980   -0.9900   22.2490 C   0  0  0  0  0  0  0  0  0  0  0  0
   11.4430    1.0150   23.2780 C   0  0  0  0  0  0  0  0  0  0  0  0
    9.5890    0.7720   24.5700 N   0  0  0  0  0  0  0  0  0  0  0  0
   13.8060   -1.4170   21.5440 F   0  0  0  0  0  0  0  0  0  0  0  0
   12.5270    0.5000   22.5620 C   0  0  0  0  0  0  0  0  0  0  0  0
    9.8950    2.1150   24.4960 C   0  0  0  0  0  0  0  0  0  0  0  0
   11.0430    2.4940   23.5250 C   0  0  1  0  0  0  0  0  0  0  0  0
   11.9260    3.7790   23.3030 C   0  0  0  0  0  0  0  0  0  0  0  0
   11.4520    5.0350   23.8110 C   0  0  0  0  0  0  0  0  0  0  0  0
   12.0880    5.7810   24.7550 N   0  0  0  0  0  0  0  0  0  0  0  0
   11.3290    6.5290   25.5710 C   0  0  0  0  0  0  0  0  0  0  0  0
   11.9580    7.3240   26.7050 C   0  0  0  0  0  0  0  0  0  0  0  0
   10.1070    6.5830   25.4140 O   0  0  0  0  0  0  0  0  0  0  0  0
  1  2  1  0
  2  3  1  0
  3  4  2  0
  3  5  1  0
  5  6  1  0
  5  7  1  0
  6  8  1  0
  7  9  1  0
  8 10  1  0
  9 10  1  0
 10 11  1  0
 11 12  1  0
 12 13  2  0
 12 14  1  0
 13 15  1  0
 14 16  2  0
 14 17  1  0
 15 18  1  0
 15 19  2  0
 16 19  1  0
 17 20  2  0
 16 21  1  0
 20 21  1  0
 21 22  1  1
 22 23  1  0
 23 24  1  0
 24 25  1  0
 25 26  1  0
 25 27  2  0
M  END
