JOO-PER-d7ab4f65-1-bromoalkyne
     RDKit          3D

 25 27  0  0  0  0  0  0  0  0999 V2000
    7.0310   -3.4000   19.7540 C   0  0  0  0  0  0  0  0  0  0  0  0
    5.7490   -3.1080   19.0160 C   0  0  0  0  0  0  0  0  0  0  0  0
    7.2410   -2.9740   21.0500 N   0  0  0  0  0  0  0  0  0  0  0  0
    8.0420   -1.8320   21.3030 C   0  0  0  0  0  0  0  0  0  0  0  0
    6.5490   -3.4560   22.2340 C   0  0  0  0  0  0  0  0  0  0  0  0
    8.0060   -1.3510   22.5870 C   0  0  0  0  0  0  0  0  0  0  0  0
    7.4550   -3.5810   23.2810 C   0  0  0  0  0  0  0  0  0  0  0  0
    8.2680   -2.3570   23.4590 N   0  0  0  0  0  0  0  0  0  0  0  0
    9.6080   -2.6380   23.4580 C   0  0  0  0  0  0  0  0  0  0  0  0
   10.5900   -1.7100   23.1750 C   0  0  0  0  0  0  0  0  0  0  0  0
   11.8000   -2.0290   22.3620 C   0  0  0  0  0  0  0  0  0  0  0  0
   10.4230   -0.2920   23.6920 C   0  0  0  0  0  0  0  0  0  0  0  0
   12.8260   -1.0040   22.0530 C   0  0  0  0  0  0  0  0  0  0  0  0
   11.3620    0.7520   23.4040 C   0  0  0  0  0  0  0  0  0  0  0  0
    9.4350    0.2420   24.4650 N   0  0  0  0  0  0  0  0  0  0  0  0
   13.8470   -1.3400   21.3220 F   0  0  0  0  0  0  0  0  0  0  0  0
   12.5860    0.3970   22.5970 C   0  0  0  0  0  0  0  0  0  0  0  0
    9.6980    1.5740   24.6720 C   0  0  0  0  0  0  0  0  0  0  0  0
   10.9590    2.1180   23.9630 C   0  0  2  0  0  0  0  0  0  0  0  0
   10.8900    3.2560   22.9050 C   0  0  0  0  0  0  0  0  0  0  0  0
   10.4240    4.6680   23.3880 C   0  0  0  0  0  0  0  0  0  0  0  0
   11.2980    5.5560   23.9180 N   0  0  0  0  0  0  0  0  0  0  0  0
   10.8710    6.2680   24.9720 C   0  0  0  0  0  0  0  0  0  0  0  0
   11.8460    7.0700   25.8110 C   0  0  0  0  0  0  0  0  0  0  0  0
    9.6790    6.2760   25.2760 O   0  0  0  0  0  0  0  0  0  0  0  0
  1  2  2  3
  1  3  1  0
  3  4  1  0
  3  5  1  0
  4  6  1  0
  5  7  1  0
  6  8  1  0
  7  8  1  0
  8  9  1  0
  9 10  1  0
 10 11  2  0
 10 12  1  0
 11 13  1  0
 12 14  2  0
 12 15  1  0
 13 16  1  0
 13 17  2  0
 14 17  1  0
 15 18  2  0
 14 19  1  0
 18 19  1  0
 19 20  1  6
 20 21  1  0
 21 22  1  0
 22 23  1  0
 23 24  1  0
 23 25  2  0
M  END
