JOO-IND-b2fae8f6-1-vinylsulfonamide
     RDKit          3D

 20 22  0  0  0  0  0  0  0  0999 V2000
    7.8810   -3.3070   19.2780 C   0  0  0  0  0  0  0  0  0  0  0  0
    6.5980   -2.5900   19.6020 C   0  0  0  0  0  0  0  0  0  0  0  0
    5.5210   -3.6110   20.5670 S   0  0  0  0  0  0  0  0  0  0  0  0
    4.6290   -2.8840   21.3240 O   0  0  0  0  0  0  0  0  0  0  0  0
    4.9800   -4.6140   19.7080 O   0  0  0  0  0  0  0  0  0  0  0  0
    6.4010   -4.4070   21.8490 C   0  0  0  0  0  0  0  0  0  0  0  0
    5.8950   -5.5770   22.1980 N   0  0  0  0  0  0  0  0  0  0  0  0
    7.4820   -3.8080   22.3480 N   0  0  0  0  0  0  0  0  0  0  0  0
    6.5620   -6.2340   23.1680 C   0  0  0  0  0  0  0  0  0  0  0  0
    8.1870   -4.4200   23.3250 C   0  0  0  0  0  0  0  0  0  0  0  0
    7.8310   -5.6430   23.8300 C   0  0  0  0  0  0  0  0  0  0  0  0
    9.4400   -3.8330   23.9050 C   0  0  0  0  0  0  0  0  0  0  0  0
    9.9150   -2.7050   23.4550 N   0  0  0  0  0  0  0  0  0  0  0  0
   10.3540   -4.6080   25.1340 S   0  0  0  0  0  0  0  0  0  0  0  0
   11.0960   -2.4530   24.0550 C   0  0  0  0  0  0  0  0  0  0  0  0
   11.5410   -3.3770   25.0000 C   0  0  0  0  0  0  0  0  0  0  0  0
   11.9820   -1.3150   23.8160 C   0  0  0  0  0  0  0  0  0  0  0  0
   12.7540   -3.3020   25.7010 C   0  0  0  0  0  0  0  0  0  0  0  0
   13.1300   -1.1990   24.4510 C   0  0  0  0  0  0  0  0  0  0  0  0
   13.5470   -2.1990   25.4100 C   0  0  0  0  0  0  0  0  0  0  0  0
  1  2  1  0
  3  2  1  0
  3  4  2  0
  3  5  2  0
  3  6  1  0
  6  7  2  0
  6  8  1  0
  7  9  1  0
  8 10  2  0
  9 11  2  0
 10 11  1  0
 10 12  1  0
 12 13  2  0
 12 14  1  0
 13 15  1  0
 14 16  1  0
 15 16  2  0
 15 17  1  0
 16 18  1  0
 17 19  2  0
 18 20  2  0
 19 20  1  0
M  END
