JOO-IND-6372a4f3-6
     RDKit          3D

 22 24  0  0  0  0  0  0  0  0999 V2000
    5.5350   -3.5930   19.7480 O   0  0  0  0  0  0  0  0  0  0  0  0
    6.1270   -2.5150   19.9390 C   0  0  0  0  0  0  0  0  0  0  0  0
    6.4090   -1.6300   18.7720 C   0  0  2  0  0  0  0  0  0  0  0  0
    6.6110   -2.0190   21.1310 N   0  0  0  0  0  0  0  0  0  0  0  0
    7.6340   -1.0610   18.7860 F   0  0  0  0  0  0  0  0  0  0  0  0
    5.2230   -0.3030   18.7520 Cl  0  0  0  0  0  0  0  0  0  0  0  0
    7.6440   -0.9860   21.2320 C   0  0  0  0  0  0  0  0  0  0  0  0
    6.4580   -2.9370   22.2860 C   0  0  0  0  0  0  0  0  0  0  0  0
    8.9560   -1.5680   21.7150 C   0  0  0  0  0  0  0  0  0  0  0  0
    7.6960   -3.3830   22.8030 C   0  0  0  0  0  0  0  0  0  0  0  0
    8.6340   -2.2340   22.9970 N   0  0  0  0  0  0  0  0  0  0  0  0
    9.6240   -2.4900   23.8800 C   0  0  0  0  0  0  0  0  0  0  0  0
   10.7950   -1.5800   23.4760 C   0  0  0  0  0  0  0  0  0  0  0  0
   12.0470   -2.0260   22.7610 C   0  0  0  0  0  0  0  0  0  0  0  0
   10.6010   -0.0980   23.8510 C   0  0  0  0  0  0  0  0  0  0  0  0
   13.1290   -1.0750   22.3930 C   0  0  0  0  0  0  0  0  0  0  0  0
   11.6210    0.8220   23.4870 C   0  0  0  0  0  0  0  0  0  0  0  0
    9.4620    0.3840   24.5230 C   0  0  0  0  0  0  0  0  0  0  0  0
   12.8930    0.3640   22.7710 C   0  0  0  0  0  0  0  0  0  0  0  0
   11.4860    2.1710   23.7630 C   0  0  0  0  0  0  0  0  0  0  0  0
    9.3450    1.7310   24.8000 C   0  0  0  0  0  0  0  0  0  0  0  0
   10.3490    2.5950   24.4090 C   0  0  0  0  0  0  0  0  0  0  0  0
  1  2  2  0
  2  3  1  0
  2  4  1  0
  3  5  1  1
  3  6  1  0
  4  7  1  0
  4  8  1  0
  7  9  1  0
  8 10  1  0
  9 11  1  0
 10 11  1  0
 11 12  1  0
 12 13  1  0
 13 14  2  0
 13 15  1  0
 14 16  1  0
 15 17  2  0
 15 18  1  0
 16 19  2  0
 17 19  1  0
 17 20  1  0
 18 21  2  0
 20 22  2  0
 21 22  1  0
M  END
