JOO-IND-6372a4f3-4-vinylsulfonamide
     RDKit          3D

 22 24  0  0  0  0  0  0  0  0999 V2000
    7.8750   -3.3580   19.6020 C   0  0  0  0  0  0  0  0  0  0  0  0
    7.0290   -2.4100   18.8370 C   0  0  0  0  0  0  0  0  0  0  0  0
    5.6400   -2.3430   19.8800 S   0  0  0  0  0  0  0  0  0  0  0  0
    5.0430   -3.6890   19.8420 O   0  0  0  0  0  0  0  0  0  0  0  0
    4.8720   -1.1470   19.6070 O   0  0  0  0  0  0  0  0  0  0  0  0
    6.4910   -2.0580   21.3340 N   0  0  0  0  0  0  0  0  0  0  0  0
    6.2930   -2.9400   22.4710 C   0  0  0  0  0  0  0  0  0  0  0  0
    7.6730   -1.1480   21.2800 C   0  0  0  0  0  0  0  0  0  0  0  0
    7.5910   -3.4210   23.0980 C   0  0  0  0  0  0  0  0  0  0  0  0
    8.8600   -1.7270   21.7820 C   0  0  0  0  0  0  0  0  0  0  0  0
    8.5660   -2.2910   23.1290 N   0  0  0  0  0  0  0  0  0  0  0  0
    9.6100   -2.3600   23.9900 C   0  0  0  0  0  0  0  0  0  0  0  0
   10.8130   -1.5380   23.5260 C   0  0  0  0  0  0  0  0  0  0  0  0
   12.0520   -2.0510   22.8310 C   0  0  0  0  0  0  0  0  0  0  0  0
   10.6620   -0.0400   23.8310 C   0  0  0  0  0  0  0  0  0  0  0  0
   13.1230   -1.1090   22.4490 C   0  0  0  0  0  0  0  0  0  0  0  0
   11.6900    0.8520   23.4460 C   0  0  0  0  0  0  0  0  0  0  0  0
    9.5340    0.4760   24.4740 C   0  0  0  0  0  0  0  0  0  0  0  0
   12.9550    0.3480   22.7560 C   0  0  0  0  0  0  0  0  0  0  0  0
   11.5860    2.2070   23.6710 C   0  0  0  0  0  0  0  0  0  0  0  0
    9.4110    1.8290   24.7120 C   0  0  0  0  0  0  0  0  0  0  0  0
   10.4410    2.6600   24.2940 C   0  0  0  0  0  0  0  0  0  0  0  0
  1  2  1  0
  3  2  1  0
  3  4  2  0
  3  5  2  0
  3  6  1  0
  6  7  1  0
  6  8  1  0
  7  9  1  0
  8 10  1  0
  9 11  1  0
 10 11  1  0
 11 12  1  0
 12 13  1  0
 13 14  2  0
 13 15  1  0
 14 16  1  0
 15 17  2  0
 15 18  1  0
 16 19  2  0
 17 19  1  0
 17 20  1  0
 18 21  2  0
 20 22  2  0
 21 22  1  0
M  END
