JOR-UNI-61e7b1d5-11-nitrile
     RDKit          3D

 30 32  0  0  0  0  0  0  0  0999 V2000
    8.0010   -3.3610   19.8520 C   0  0  0  0  0  0  0  0  0  0  0  0
    7.7090   -2.8080   18.6930 N   0  0  0  0  0  0  0  0  0  0  0  0
    9.2570   -2.8660   20.9110 C   0  0  0  0  0  0  0  0  0  0  0  0
   10.0310   -2.2130   21.9490 C   0  0  0  0  0  0  0  0  0  0  0  0
    8.4190   -1.9680   21.5830 C   0  0  0  0  0  0  0  0  0  0  0  0
   10.9150   -1.7180   22.8500 N   0  0  0  0  0  0  0  0  0  0  0  0
    8.7830   -1.1220   22.7150 C   0  0  0  0  0  0  0  0  0  0  0  0
   10.0060   -0.9770   23.3990 C   0  0  0  0  0  0  0  0  0  0  0  0
    7.7970   -0.3980   23.1120 N   0  0  0  0  0  0  0  0  0  0  0  0
   10.1150   -0.1200   24.5420 N   0  0  0  0  0  0  0  0  0  0  0  0
    6.7480   -0.8670   23.9400 C   0  0  0  0  0  0  0  0  0  0  0  0
    7.5850    0.2980   21.8730 C   0  0  0  0  0  0  0  0  0  0  0  0
    9.7120   -0.5460   25.8200 C   0  0  0  0  0  0  0  0  0  0  0  0
    5.9370    0.0860   24.5750 C   0  0  0  0  0  0  0  0  0  0  0  0
    8.2420    1.2830   21.5080 O   0  0  0  0  0  0  0  0  0  0  0  0
    6.6290   -0.2770   21.1310 N   0  0  0  0  0  0  0  0  0  0  0  0
    8.4560    0.1590   26.3110 C   0  0  0  0  0  0  0  0  0  0  0  0
    5.1430   -0.4460   25.7110 N   0  0  0  0  0  0  0  0  0  0  0  0
    6.1020    0.3220   20.0150 C   0  0  0  0  0  0  0  0  0  0  0  0
    3.8480   -0.9840   25.2520 C   0  0  0  0  0  0  0  0  0  0  0  0
    5.0100    0.4680   26.6960 C   0  0  0  0  0  0  0  0  0  0  0  0
    4.9400    1.0680   20.0170 C   0  0  0  0  0  0  0  0  0  0  0  0
    6.7510    0.2010   18.8040 C   0  0  0  0  0  0  0  0  0  0  0  0
    3.0950   -1.6400   26.2160 C   0  0  0  0  0  0  0  0  0  0  0  0
    4.2780    0.1000   27.8200 C   0  0  0  0  0  0  0  0  0  0  0  0
    4.4490    1.6700   18.8920 C   0  0  0  0  0  0  0  0  0  0  0  0
    6.3210    0.7710   17.6620 N   0  0  0  0  0  0  0  0  0  0  0  0
    2.2620   -0.7840   27.1770 C   0  0  0  0  0  0  0  0  0  0  0  0
    3.0540    0.2700   27.7400 O   0  0  0  0  0  0  0  0  0  0  0  0
    5.1790    1.4990   17.7310 C   0  0  0  0  0  0  0  0  0  0  0  0
  1  2  2  3
  1  3  1  0
  3  4  2  0
  3  5  1  0
  4  6  1  0
  5  7  2  0
  6  8  2  0
  7  8  1  0
  7  9  1  0
  8 10  1  0
  9 11  1  0
  9 12  1  0
 10 13  1  0
 11 14  1  0
 12 15  2  0
 12 16  1  0
 13 17  1  0
 14 18  1  0
 16 19  1  0
 18 20  1  0
 18 21  1  0
 19 22  2  0
 19 23  1  0
 20 24  1  0
 21 25  1  0
 22 26  1  0
 23 27  2  0
 24 28  1  0
 25 29  1  0
 28 29  1  0
 26 30  2  0
 27 30  1  0
M  END
