JOR-UNI-61e7b1d5-9-bromoalkyne
     RDKit          3D

 23 25  0  0  0  0  0  0  0  0999 V2000
    7.5420   -3.1730   19.5070 C   0  0  0  0  0  0  0  0  0  0  0  0
    6.0200   -3.2630   19.1620 C   0  0  0  0  0  0  0  0  0  0  0  0
    7.9780   -2.5460   20.8980 C   0  0  0  0  0  0  0  0  0  0  0  0
    7.2350   -1.2040   20.5600 C   0  0  0  0  0  0  0  0  0  0  0  0
    8.3100   -1.8420   22.1360 C   0  0  0  0  0  0  0  0  0  0  0  0
    6.9460   -1.9510   19.5150 C   0  0  0  0  0  0  0  0  0  0  0  0
    7.6230   -0.9670   21.4320 C   0  0  0  0  0  0  0  0  0  0  0  0
    7.7080   -2.1970   20.7590 C   0  0  0  0  0  0  0  0  0  0  0  0
    7.8050    0.0260   22.4380 N   0  0  0  0  0  0  0  0  0  0  0  0
    7.1630    0.0560   23.6790 C   0  0  0  0  0  0  0  0  0  0  0  0
    8.1860    1.2840   21.9850 C   0  0  0  0  0  0  0  0  0  0  0  0
    7.8180   -0.7890   24.5910 C   0  0  0  0  0  0  0  0  0  0  0  0
    9.2940    1.8230   22.1330 O   0  0  0  0  0  0  0  0  0  0  0  0
    7.2340    1.9630   21.2840 N   0  0  0  0  0  0  0  0  0  0  0  0
    7.2800   -2.0740   24.6860 C   0  0  0  0  0  0  0  0  0  0  0  0
    6.2860    1.5280   20.3460 C   0  0  0  0  0  0  0  0  0  0  0  0
    6.3960   -2.3070   25.6390 C   0  0  0  0  0  0  0  0  0  0  0  0
    5.6470   -2.2770   24.4420 C   0  0  0  0  0  0  0  0  0  0  0  0
    4.9130    1.5760   20.5950 C   0  0  0  0  0  0  0  0  0  0  0  0
    6.6760    0.9790   19.0190 C   0  0  0  0  0  0  0  0  0  0  0  0
    3.9740    1.0800   19.5350 C   0  0  0  0  0  0  0  0  0  0  0  0
    5.8820    0.5480   18.0950 N   0  0  0  0  0  0  0  0  0  0  0  0
    4.5790    0.6070   18.3730 C   0  0  0  0  0  0  0  0  0  0  0  0
  1  2  2  3
  1  3  1  0
  3  4  2  0
  3  5  1  0
  4  6  1  0
  5  7  2  0
  6  8  2  0
  7  8  1  0
  7  9  1  0
  9 10  1  0
  9 11  1  0
 10 12  1  0
 11 13  2  0
 11 14  1  0
 12 15  1  0
 14 16  1  0
 15 17  1  0
 15 18  1  0
 17 18  1  0
 16 19  2  0
 16 20  1  0
 19 21  1  0
 20 22  2  0
 21 23  2  0
 22 23  1  0
M  END
