JOR-UNI-61e7b1d5-2-nitrile
     RDKit          3D

 18 19  0  0  0  0  0  0  0  0999 V2000
    8.1060   -3.5280   19.9640 C   0  0  0  0  0  0  0  0  0  0  0  0
    6.7300   -3.6630   19.7610 N   0  0  0  0  0  0  0  0  0  0  0  0
    9.0370   -2.4920   21.0490 C   0  0  0  0  0  0  0  0  0  0  0  0
   10.5170   -2.5280   21.3810 C   0  0  0  0  0  0  0  0  0  0  0  0
    8.5120   -1.4210   21.7370 C   0  0  0  0  0  0  0  0  0  0  0  0
   11.2640   -1.6710   22.2130 C   0  0  0  0  0  0  0  0  0  0  0  0
    9.2730   -0.5770   22.5430 C   0  0  0  0  0  0  0  0  0  0  0  0
   10.6160   -0.6590   22.8090 C   0  0  0  0  0  0  0  0  0  0  0  0
    8.6770    0.4450   23.1090 N   0  0  0  0  0  0  0  0  0  0  0  0
    8.2170    0.8990   21.9070 C   0  0  0  0  0  0  0  0  0  0  0  0
    8.8670    1.7730   21.3190 O   0  0  0  0  0  0  0  0  0  0  0  0
    7.0810    0.2920   21.4370 N   0  0  0  0  0  0  0  0  0  0  0  0
    6.4750    0.5740   20.2150 C   0  0  0  0  0  0  0  0  0  0  0  0
    5.3460    1.3790   20.2710 C   0  0  0  0  0  0  0  0  0  0  0  0
    6.9170    0.1220   18.9730 C   0  0  0  0  0  0  0  0  0  0  0  0
    4.7070    1.7160   19.1030 C   0  0  0  0  0  0  0  0  0  0  0  0
    6.2940    0.4550   17.8150 N   0  0  0  0  0  0  0  0  0  0  0  0
    5.1650    1.2740   17.8920 C   0  0  0  0  0  0  0  0  0  0  0  0
  1  2  2  3
  1  3  1  0
  3  4  2  0
  3  5  1  0
  4  6  1  0
  5  7  2  0
  6  8  2  0
  7  8  1  0
  7  9  1  0
  9 10  1  0
 10 11  2  0
 10 12  1  0
 12 13  1  0
 13 14  2  0
 13 15  1  0
 14 16  1  0
 15 17  2  0
 16 18  2  0
 17 18  1  0
M  END
