JOR-UNI-2fc98d0b-12
     RDKit          3D

 25 27  0  0  0  0  0  0  0  0999 V2000
    8.6320    0.7600   21.2600 O   0  0  0  0  0  0  0  0  0  0  0  0
    8.0830   -0.2670   21.6170 C   0  0  0  0  0  0  0  0  0  0  0  0
    7.0170   -0.8290   20.9860 N   0  0  0  0  0  0  0  0  0  0  0  0
    8.5730   -0.9120   22.7640 N   0  0  0  0  0  0  0  0  0  0  0  0
    6.2820   -0.0530   20.0820 C   0  0  0  0  0  0  0  0  0  0  0  0
    8.1410   -2.1200   23.0910 C   0  0  0  0  0  0  0  0  0  0  0  0
    9.9840   -0.6500   22.9000 C   0  0  0  0  0  0  0  0  0  0  0  0
    4.9360    0.5890   20.4360 C   0  0  0  0  0  0  0  0  0  0  0  0
    6.8520    0.1300   18.8140 C   0  0  0  0  0  0  0  0  0  0  0  0
    8.2490   -2.2340   24.5250 C   0  0  0  0  0  0  0  0  0  0  0  0
   10.4750    0.4400   23.8520 C   0  0  0  0  0  0  0  0  0  0  0  0
   10.8410   -1.4000   22.1280 C   0  0  0  0  0  0  0  0  0  0  0  0
    4.3440    1.4090   19.2940 C   0  0  0  0  0  0  0  0  0  0  0  0
    6.2900    0.8890   17.8060 N   0  0  0  0  0  0  0  0  0  0  0  0
    7.6560   -3.4760   24.6760 C   0  0  0  0  0  0  0  0  0  0  0  0
   11.9550    0.7070   23.9300 C   0  0  0  0  0  0  0  0  0  0  0  0
   12.3340   -1.1450   22.2010 C   0  0  0  0  0  0  0  0  0  0  0  0
    5.0840    1.5270   17.9790 C   0  0  0  0  0  0  0  0  0  0  0  0
    8.6380   -4.4130   25.0250 C   0  0  0  0  0  0  0  0  0  0  0  0
    6.5360   -3.5130   25.5490 C   0  0  0  0  0  0  0  0  0  0  0  0
   12.8740   -0.0730   23.1160 C   0  0  0  0  0  0  0  0  0  0  0  0
   13.2700   -2.1200   21.1990 Cl  0  0  0  0  0  0  0  0  0  0  0  0
    9.0480   -4.6130   26.4560 C   0  0  0  0  0  0  0  0  0  0  0  0
    6.7830   -3.6490   27.0700 C   0  0  0  0  0  0  0  0  0  0  0  0
    7.9660   -4.5130   27.5350 C   0  0  0  0  0  0  0  0  0  0  0  0
  1  2  2  0
  2  3  1  0
  2  4  1  0
  3  5  1  0
  4  6  1  0
  4  7  1  0
  5  8  2  0
  5  9  1  0
  6 10  1  0
  7 11  2  0
  7 12  1  0
  8 13  1  0
  9 14  2  0
 10 15  1  0
 11 16  1  0
 12 17  2  0
 13 18  2  0
 14 18  1  0
 15 19  1  0
 15 20  1  0
 16 21  2  0
 17 21  1  0
 17 22  1  0
 19 23  1  0
 20 24  1  0
 23 25  1  0
 24 25  1  0
M  END
