JOR-UNI-61e7b1d5-24-acrylamide
     RDKit          3D

 29 31  0  0  0  0  0  0  0  0999 V2000
    5.8540   -4.8220   20.2800 C   0  0  0  0  0  0  0  0  0  0  0  0
    5.8350   -4.7090   21.8300 C   0  0  0  0  0  0  0  0  0  0  0  0
    5.1360   -5.9810   22.1210 C   0  0  0  0  0  0  0  0  0  0  0  0
    3.8400   -5.8200   22.0330 O   0  0  0  0  0  0  0  0  0  0  0  0
    5.8410   -7.3680   22.2940 C   0  0  0  0  0  0  0  0  0  0  0  0
    6.0560   -8.4580   21.4480 C   0  0  0  0  0  0  0  0  0  0  0  0
    5.3200   -7.3750   20.8620 C   0  0  0  0  0  0  0  0  0  0  0  0
    5.1700   -7.3180   20.6230 C   0  0  0  0  0  0  0  0  0  0  0  0
    5.8000   -7.2780   22.2880 C   0  0  0  0  0  0  0  0  0  0  0  0
    4.9800   -6.1610   21.5850 C   0  0  0  0  0  0  0  0  0  0  0  0
    5.9650   -6.6610   23.5820 N   0  0  0  0  0  0  0  0  0  0  0  0
    4.9090   -6.7800   24.6070 C   0  0  0  0  0  0  0  0  0  0  0  0
    6.9710   -5.7410   24.2800 C   0  0  0  0  0  0  0  0  0  0  0  0
    3.5230   -7.1660   24.3720 C   0  0  0  0  0  0  0  0  0  0  0  0
    7.7020   -5.0710   24.7880 O   0  0  0  0  0  0  0  0  0  0  0  0
    6.2420   -4.5960   24.1040 N   0  0  0  0  0  0  0  0  0  0  0  0
    2.6020   -6.2860   24.8560 N   0  0  0  0  0  0  0  0  0  0  0  0
    6.7270   -3.2740   24.2530 C   0  0  0  0  0  0  0  0  0  0  0  0
    2.0120   -6.4980   26.1300 C   0  0  0  0  0  0  0  0  0  0  0  0
    3.3110   -5.0960   24.9670 C   0  0  0  0  0  0  0  0  0  0  0  0
    6.7170   -2.1440   23.8960 C   0  0  0  0  0  0  0  0  0  0  0  0
    6.0330   -2.4770   23.2400 C   0  0  0  0  0  0  0  0  0  0  0  0
    2.5060   -5.7780   27.4050 C   0  0  0  0  0  0  0  0  0  0  0  0
    4.2820   -5.2390   26.0710 C   0  0  0  0  0  0  0  0  0  0  0  0
    6.0430   -1.5950   22.9300 C   0  0  0  0  0  0  0  0  0  0  0  0
    6.3720   -0.8360   23.0460 N   0  0  0  0  0  0  0  0  0  0  0  0
    3.7680   -4.8260   27.2280 C   0  0  0  0  0  0  0  0  0  0  0  0
    5.5930   -0.6020   22.0360 C   0  0  0  0  0  0  0  0  0  0  0  0
    4.6930   -4.9800   28.0660 O   0  0  0  0  0  0  0  0  0  0  0  0
  1  2  1  0
  2  3  1  0
  3  4  2  0
  3  5  1  0
  5  6  2  0
  5  7  1  0
  6  8  1  0
  7  9  2  0
  8 10  2  0
  9 10  1  0
  9 11  1  0
 11 12  1  0
 11 13  1  0
 12 14  1  0
 13 15  2  0
 13 16  1  0
 14 17  1  0
 16 18  1  0
 17 19  1  0
 17 20  1  0
 18 21  2  0
 18 22  1  0
 19 23  1  0
 20 24  1  0
 21 25  1  0
 22 26  2  0
 23 27  1  0
 24 27  1  0
 25 28  2  0
 26 28  1  0
 27 29  1  0
M  END
