JOR-UNI-61e7b1d5-22-vinylsulfonamide
     RDKit          3D

 29 31  0  0  0  0  0  0  0  0999 V2000
    6.6390   -5.0260   20.1680 C   0  0  0  0  0  0  0  0  0  0  0  0
    6.8010   -4.6460   21.6020 C   0  0  0  0  0  0  0  0  0  0  0  0
    6.1580   -3.0320   21.7140 S   0  0  0  0  0  0  0  0  0  0  0  0
    4.6690   -3.3780   21.9820 O   0  0  0  0  0  0  0  0  0  0  0  0
    6.2360   -2.3530   20.4410 O   0  0  0  0  0  0  0  0  0  0  0  0
    7.5690   -2.1030   22.6550 C   0  0  0  0  0  0  0  0  0  0  0  0
    7.9220   -2.0270   24.0420 C   0  0  0  0  0  0  0  0  0  0  0  0
    8.4470   -1.3430   21.8910 C   0  0  0  0  0  0  0  0  0  0  0  0
    8.9690   -1.3060   24.6460 C   0  0  0  0  0  0  0  0  0  0  0  0
    9.0160   -1.0660   23.1430 C   0  0  0  0  0  0  0  0  0  0  0  0
    9.9450   -0.4550   23.9510 C   0  0  0  0  0  0  0  0  0  0  0  0
    9.7050   -0.4040   22.2790 N   0  0  0  0  0  0  0  0  0  0  0  0
   10.5730   -1.1910   21.6520 C   0  0  0  0  0  0  0  0  0  0  0  0
    8.8700    0.4470   21.4930 C   0  0  0  0  0  0  0  0  0  0  0  0
   11.8400   -1.1410   22.0620 N   0  0  0  0  0  0  0  0  0  0  0  0
    9.1520    1.6180   21.2310 O   0  0  0  0  0  0  0  0  0  0  0  0
    7.6720   -0.1260   21.0570 N   0  0  0  0  0  0  0  0  0  0  0  0
   12.2990   -0.1720   22.8460 C   0  0  0  0  0  0  0  0  0  0  0  0
   12.2210   -2.3990   22.5020 C   0  0  0  0  0  0  0  0  0  0  0  0
    6.7820    0.3640   20.0950 C   0  0  0  0  0  0  0  0  0  0  0  0
   12.9540   -0.6640   23.9390 C   0  0  0  0  0  0  0  0  0  0  0  0
   11.7620   -2.6310   23.7860 C   0  0  0  0  0  0  0  0  0  0  0  0
    5.6630    1.1650   20.3280 C   0  0  0  0  0  0  0  0  0  0  0  0
    6.9920    0.0570   18.7680 C   0  0  0  0  0  0  0  0  0  0  0  0
   12.4430   -1.7730   24.5780 C   0  0  0  0  0  0  0  0  0  0  0  0
    4.8320    1.6310   19.3260 C   0  0  0  0  0  0  0  0  0  0  0  0
    6.2150    0.4890   17.7500 N   0  0  0  0  0  0  0  0  0  0  0  0
   13.4900   -2.6280   25.2590 C   0  0  0  0  0  0  0  0  0  0  0  0
    5.1500    1.2700   18.0260 C   0  0  0  0  0  0  0  0  0  0  0  0
  1  2  1  0
  3  2  1  0
  3  4  2  0
  3  5  2  0
  3  6  1  0
  6  7  2  0
  6  8  1  0
  7  9  1  0
  8 10  2  0
  9 11  2  0
 10 11  1  0
 10 12  1  0
 12 13  1  0
 12 14  1  0
 13 15  1  0
 14 16  2  0
 14 17  1  0
 15 18  1  0
 15 19  1  0
 17 20  1  0
 18 21  1  0
 19 22  1  0
 20 23  2  0
 20 24  1  0
 21 25  1  0
 22 25  1  0
 23 26  1  0
 24 27  2  0
 25 28  1  0
 26 29  2  0
 27 29  1  0
M  END
