JOR-UNI-2fc98d0b-4
     RDKit          3D

 24 26  0  0  0  0  0  0  0  0999 V2000
    8.6680    1.0980   21.1470 O   0  0  0  0  0  0  0  0  0  0  0  0
    8.1430    0.0460   21.5360 C   0  0  0  0  0  0  0  0  0  0  0  0
    7.0970   -0.6020   20.9640 N   0  0  0  0  0  0  0  0  0  0  0  0
    8.6480   -0.5770   22.6780 N   0  0  0  0  0  0  0  0  0  0  0  0
    6.3560    0.0700   20.0170 C   0  0  0  0  0  0  0  0  0  0  0  0
    7.9820   -1.5880   23.2140 C   0  0  0  0  0  0  0  0  0  0  0  0
   10.0470   -0.4230   22.8670 C   0  0  0  0  0  0  0  0  0  0  0  0
    5.0430    0.7890   20.3330 C   0  0  0  0  0  0  0  0  0  0  0  0
    6.9060    0.0650   18.7400 C   0  0  0  0  0  0  0  0  0  0  0  0
    7.0560   -1.0270   24.2270 N   0  0  0  0  0  0  0  0  0  0  0  0
   10.5200    0.6210   23.8400 C   0  0  0  0  0  0  0  0  0  0  0  0
   10.9240   -1.2120   22.1360 C   0  0  0  0  0  0  0  0  0  0  0  0
    4.4640    1.4800   19.1130 C   0  0  0  0  0  0  0  0  0  0  0  0
    6.3680    0.6980   17.6500 N   0  0  0  0  0  0  0  0  0  0  0  0
    5.6910   -1.3180   24.1120 C   0  0  0  0  0  0  0  0  0  0  0  0
    7.7410   -0.4140   25.3630 C   0  0  0  0  0  0  0  0  0  0  0  0
   12.0110    0.7450   23.9460 C   0  0  0  0  0  0  0  0  0  0  0  0
   12.3070   -1.0690   22.2580 C   0  0  0  0  0  0  0  0  0  0  0  0
    5.1830    1.4050   17.7800 C   0  0  0  0  0  0  0  0  0  0  0  0
    5.0740   -1.0440   25.3080 C   0  0  0  0  0  0  0  0  0  0  0  0
    6.9440   -0.5330   26.6750 C   0  0  0  0  0  0  0  0  0  0  0  0
   12.9220   -0.1440   23.1100 C   0  0  0  0  0  0  0  0  0  0  0  0
   13.2220   -2.1020   21.2710 Cl  0  0  0  0  0  0  0  0  0  0  0  0
    5.8420   -1.3290   26.5220 N   0  0  0  0  0  0  0  0  0  0  0  0
  1  2  2  0
  2  3  1  0
  2  4  1  0
  3  5  1  0
  4  6  1  0
  4  7  1  0
  5  8  2  0
  5  9  1  0
  6 10  1  0
  7 11  2  0
  7 12  1  0
  8 13  1  0
  9 14  2  0
 10 15  1  0
 10 16  1  0
 11 17  1  0
 12 18  2  0
 13 19  2  0
 14 19  1  0
 15 20  1  0
 16 21  1  0
 17 22  2  0
 18 22  1  0
 18 23  1  0
 20 24  1  0
 21 24  1  0
M  END
