JOR-UNI-61e7b1d5-23-bromoalkyne
     RDKit          3D

 29 31  0  0  0  0  0  0  0  0999 V2000
    7.8080   -3.5320   20.1100 C   0  0  0  0  0  0  0  0  0  0  0  0
    6.3520   -3.9920   19.8550 C   0  0  0  0  0  0  0  0  0  0  0  0
    7.8740   -2.0280   20.0660 C   0  0  0  0  0  0  0  0  0  0  0  0
    8.1590   -0.8770   20.6310 C   0  0  0  0  0  0  0  0  0  0  0  0
    8.3450   -1.1470   21.1440 C   0  0  0  0  0  0  0  0  0  0  0  0
    8.4800   -2.0200   21.6070 N   0  0  0  0  0  0  0  0  0  0  0  0
    8.8590   -0.8870   22.4210 C   0  0  0  0  0  0  0  0  0  0  0  0
    9.0360   -1.9600   23.0170 C   0  0  0  0  0  0  0  0  0  0  0  0
    9.0420    0.4500   22.7340 N   0  0  0  0  0  0  0  0  0  0  0  0
    8.9970   -3.3120   23.1110 N   0  0  0  0  0  0  0  0  0  0  0  0
    9.6130    0.8030   23.9610 C   0  0  0  0  0  0  0  0  0  0  0  0
    8.5850    1.4400   21.8290 C   0  0  0  0  0  0  0  0  0  0  0  0
    8.8820   -3.9260   24.3730 C   0  0  0  0  0  0  0  0  0  0  0  0
    8.8730    1.8330   24.5800 N   0  0  0  0  0  0  0  0  0  0  0  0
    9.2880    2.3370   21.3990 O   0  0  0  0  0  0  0  0  0  0  0  0
    7.2620    1.3390   21.4350 N   0  0  0  0  0  0  0  0  0  0  0  0
    8.3900   -3.0570   25.5230 C   0  0  0  0  0  0  0  0  0  0  0  0
    8.8270    3.1800   24.2220 C   0  0  0  0  0  0  0  0  0  0  0  0
    7.6040    1.3580   25.1570 C   0  0  0  0  0  0  0  0  0  0  0  0
    7.1570    1.0840   20.1140 C   0  0  0  0  0  0  0  0  0  0  0  0
    8.0440    4.0850   24.9190 C   0  0  0  0  0  0  0  0  0  0  0  0
    7.0560    2.1230   26.2220 C   0  0  0  0  0  0  0  0  0  0  0  0
    5.7970    1.0390   20.5810 C   0  0  0  0  0  0  0  0  0  0  0  0
    6.4850    0.8080   18.9890 C   0  0  0  0  0  0  0  0  0  0  0  0
    7.1230    3.4900   25.9770 C   0  0  0  0  0  0  0  0  0  0  0  0
    4.6560    0.7710   19.7380 C   0  0  0  0  0  0  0  0  0  0  0  0
    6.0290    0.5410   17.7970 N   0  0  0  0  0  0  0  0  0  0  0  0
    5.6950    4.0000   25.7570 C   0  0  0  0  0  0  0  0  0  0  0  0
    4.8110    0.5060   18.2480 C   0  0  0  0  0  0  0  0  0  0  0  0
  1  2  2  3
  1  3  1  0
  3  4  2  0
  3  5  1  0
  4  6  1  0
  5  7  2  0
  6  8  2  0
  7  8  1  0
  7  9  1  0
  8 10  1  0
  9 11  1  0
  9 12  1  0
 10 13  1  0
 11 14  1  0
 12 15  2  0
 12 16  1  0
 13 17  1  0
 14 18  1  0
 14 19  1  0
 16 20  1  0
 18 21  1  0
 19 22  1  0
 20 23  2  0
 20 24  1  0
 21 25  1  0
 22 25  1  0
 23 26  1  0
 24 27  2  0
 25 28  1  0
 26 29  2  0
 27 29  1  0
M  END
