JOR-UNI-61e7b1d5-24-chloroacetamide
     RDKit          3D

 28 30  0  0  0  0  0  0  0  0999 V2000
    8.5220   -3.8810   20.1540 C   0  0  0  0  0  0  0  0  0  0  0  0
    7.8040   -2.7580   20.1160 C   0  0  0  0  0  0  0  0  0  0  0  0
    6.7090   -2.8530   19.2710 O   0  0  0  0  0  0  0  0  0  0  0  0
    8.7700   -1.8730   21.1830 C   0  0  0  0  0  0  0  0  0  0  0  0
   10.1840   -2.2130   21.4830 C   0  0  0  0  0  0  0  0  0  0  0  0
    8.4080   -0.7920   21.8790 C   0  0  0  0  0  0  0  0  0  0  0  0
   11.0690   -1.5530   22.3370 C   0  0  0  0  0  0  0  0  0  0  0  0
    9.2330   -0.0780   22.7480 C   0  0  0  0  0  0  0  0  0  0  0  0
   10.5640   -0.3590   23.0540 C   0  0  0  0  0  0  0  0  0  0  0  0
    8.4750    0.9260   23.1790 N   0  0  0  0  0  0  0  0  0  0  0  0
    7.4340    0.8400   24.1220 C   0  0  0  0  0  0  0  0  0  0  0  0
    8.0980    1.3090   21.8930 C   0  0  0  0  0  0  0  0  0  0  0  0
    6.9710   -0.4930   24.2210 C   0  0  0  0  0  0  0  0  0  0  0  0
    8.7140    2.1400   21.2290 O   0  0  0  0  0  0  0  0  0  0  0  0
    7.0140    0.5860   21.4350 N   0  0  0  0  0  0  0  0  0  0  0  0
    5.8900   -0.6850   25.0970 N   0  0  0  0  0  0  0  0  0  0  0  0
    6.3570    0.7980   20.2420 C   0  0  0  0  0  0  0  0  0  0  0  0
    5.9150   -1.2770   26.3820 C   0  0  0  0  0  0  0  0  0  0  0  0
    4.7140   -1.0050   24.3710 C   0  0  0  0  0  0  0  0  0  0  0  0
    5.2040    1.5590   20.1500 C   0  0  0  0  0  0  0  0  0  0  0  0
    6.8500    0.2460   19.0660 C   0  0  0  0  0  0  0  0  0  0  0  0
    5.7580   -2.6520   26.4210 C   0  0  0  0  0  0  0  0  0  0  0  0
    3.9870   -2.0720   24.9360 C   0  0  0  0  0  0  0  0  0  0  0  0
    4.6020    1.7560   18.9340 C   0  0  0  0  0  0  0  0  0  0  0  0
    6.2850    0.4220   17.8540 N   0  0  0  0  0  0  0  0  0  0  0  0
    4.8860   -3.0960   25.2610 C   0  0  0  0  0  0  0  0  0  0  0  0
    5.1770    1.1780   17.8310 C   0  0  0  0  0  0  0  0  0  0  0  0
    4.2270   -4.3470   25.5210 O   0  0  0  0  0  0  0  0  0  0  0  0
  1  2  1  0
  2  3  2  0
  2  4  1  0
  4  5  2  0
  4  6  1  0
  5  7  1  0
  6  8  2  0
  7  9  2  0
  8  9  1  0
  8 10  1  0
 10 11  1  0
 10 12  1  0
 11 13  1  0
 12 14  2  0
 12 15  1  0
 13 16  1  0
 15 17  1  0
 16 18  1  0
 16 19  1  0
 17 20  2  0
 17 21  1  0
 18 22  1  0
 19 23  1  0
 20 24  1  0
 21 25  2  0
 22 26  1  0
 23 26  1  0
 24 27  2  0
 25 27  1  0
 26 28  1  0
M  END
