JOR-UNI-61e7b1d5-5-chloroacetamide
     RDKit          3D

 27 29  0  0  0  0  0  0  0  0999 V2000
    8.8500   -4.7360   20.6270 C   0  0  0  0  0  0  0  0  0  0  0  0
    8.3780   -3.3030   20.4120 C   0  0  0  0  0  0  0  0  0  0  0  0
    7.2670   -3.9290   19.7800 O   0  0  0  0  0  0  0  0  0  0  0  0
    9.8460   -2.9980   21.2270 C   0  0  0  0  0  0  0  0  0  0  0  0
   11.0720   -2.5840   22.0280 C   0  0  0  0  0  0  0  0  0  0  0  0
    9.0970   -1.9110   21.7600 C   0  0  0  0  0  0  0  0  0  0  0  0
   11.4290   -1.5680   22.9440 C   0  0  0  0  0  0  0  0  0  0  0  0
    9.3100   -0.8270   22.6770 C   0  0  0  0  0  0  0  0  0  0  0  0
   10.4600   -0.5700   23.3240 C   0  0  0  0  0  0  0  0  0  0  0  0
    8.2360   -0.0160   22.8600 N   0  0  0  0  0  0  0  0  0  0  0  0
    7.1390   -0.2260   23.7170 C   0  0  0  0  0  0  0  0  0  0  0  0
    7.9330    0.4470   21.6050 C   0  0  0  0  0  0  0  0  0  0  0  0
    7.1860   -1.4070   24.3860 N   0  0  0  0  0  0  0  0  0  0  0  0
    8.4910    1.4200   21.0630 O   0  0  0  0  0  0  0  0  0  0  0  0
    6.9720   -0.3580   21.0830 N   0  0  0  0  0  0  0  0  0  0  0  0
    6.4610   -1.4910   25.5110 C   0  0  0  0  0  0  0  0  0  0  0  0
    7.0270   -2.5860   23.5000 C   0  0  0  0  0  0  0  0  0  0  0  0
    6.3590    0.2730   19.9620 C   0  0  0  0  0  0  0  0  0  0  0  0
    5.2160   -2.0880   25.3600 C   0  0  0  0  0  0  0  0  0  0  0  0
    6.4080   -3.6550   24.1680 C   0  0  0  0  0  0  0  0  0  0  0  0
    5.1430    1.1150   20.1130 C   0  0  0  0  0  0  0  0  0  0  0  0
    6.8690    0.1460   18.6210 C   0  0  0  0  0  0  0  0  0  0  0  0
    5.3780   -3.4390   25.0930 C   0  0  0  0  0  0  0  0  0  0  0  0
    4.5730    1.7320   19.0110 C   0  0  0  0  0  0  0  0  0  0  0  0
    6.2350    0.8090   17.5020 N   0  0  0  0  0  0  0  0  0  0  0  0
    5.6760   -4.1020   26.0820 O   0  0  0  0  0  0  0  0  0  0  0  0
    5.1350    1.5680   17.7390 C   0  0  0  0  0  0  0  0  0  0  0  0
  1  2  1  0
  2  3  2  0
  2  4  1  0
  4  5  2  0
  4  6  1  0
  5  7  1  0
  6  8  2  0
  7  9  2  0
  8  9  1  0
  8 10  1  0
 10 11  1  0
 10 12  1  0
 11 13  1  0
 12 14  2  0
 12 15  1  0
 13 16  1  0
 13 17  1  0
 15 18  1  0
 16 19  1  0
 17 20  1  0
 18 21  2  0
 18 22  1  0
 19 23  1  0
 20 23  1  0
 21 24  1  0
 22 25  2  0
 23 26  1  0
 24 27  2  0
 25 27  1  0
M  END
