JOR-UNI-61e7b1d5-17-acrylamide
     RDKit          3D

 31 33  0  0  0  0  0  0  0  0999 V2000
    6.1440   -4.0420   19.7440 C   0  0  0  0  0  0  0  0  0  0  0  0
    6.1240   -3.1920   21.0220 C   0  0  0  0  0  0  0  0  0  0  0  0
    5.1780   -3.7330   22.1060 C   0  0  0  0  0  0  0  0  0  0  0  0
    4.7790   -4.8990   22.0200 O   0  0  0  0  0  0  0  0  0  0  0  0
    4.7190   -2.8500   23.3050 C   0  0  0  0  0  0  0  0  0  0  0  0
    3.5140   -2.9160   23.8750 C   0  0  0  0  0  0  0  0  0  0  0  0
    5.4610   -1.7940   24.0590 C   0  0  0  0  0  0  0  0  0  0  0  0
    4.4490   -2.1100   24.2460 N   0  0  0  0  0  0  0  0  0  0  0  0
    6.6770   -1.6840   23.5570 C   0  0  0  0  0  0  0  0  0  0  0  0
    5.5300   -2.4600   23.3520 C   0  0  0  0  0  0  0  0  0  0  0  0
    7.4880   -2.1790   22.6270 N   0  0  0  0  0  0  0  0  0  0  0  0
    5.3880   -3.4750   22.4280 N   0  0  0  0  0  0  0  0  0  0  0  0
    8.2920   -3.2200   23.0360 C   0  0  0  0  0  0  0  0  0  0  0  0
    8.0750   -1.2810   21.6960 C   0  0  0  0  0  0  0  0  0  0  0  0
    5.1130   -4.6270   23.1520 C   0  0  0  0  0  0  0  0  0  0  0  0
    8.0570   -4.0550   24.1460 C   0  0  0  0  0  0  0  0  0  0  0  0
    8.8080   -0.3690   22.1010 O   0  0  0  0  0  0  0  0  0  0  0  0
    7.7970   -1.4720   20.3590 N   0  0  0  0  0  0  0  0  0  0  0  0
    3.7460   -5.0000   23.1250 C   0  0  0  0  0  0  0  0  0  0  0  0
    7.2110   -5.1130   24.0620 N   0  0  0  0  0  0  0  0  0  0  0  0
    6.8470   -0.6640   19.7820 C   0  0  0  0  0  0  0  0  0  0  0  0
    7.5870   -6.3110   23.6000 C   0  0  0  0  0  0  0  0  0  0  0  0
    6.4410   -5.4250   25.2580 C   0  0  0  0  0  0  0  0  0  0  0  0
    5.6030   -0.7280   20.4310 C   0  0  0  0  0  0  0  0  0  0  0  0
    7.2620    0.0880   18.6450 C   0  0  0  0  0  0  0  0  0  0  0  0
    6.5290   -7.4080   23.5310 C   0  0  0  0  0  0  0  0  0  0  0  0
    5.4720   -6.4450   25.0190 C   0  0  0  0  0  0  0  0  0  0  0  0
    4.5740    0.0140   19.9480 C   0  0  0  0  0  0  0  0  0  0  0  0
    6.1400    0.7830   18.2430 N   0  0  0  0  0  0  0  0  0  0  0  0
    5.9480   -7.5220   24.6160 O   0  0  0  0  0  0  0  0  0  0  0  0
    4.9130    0.8030   18.7710 C   0  0  0  0  0  0  0  0  0  0  0  0
  1  2  1  0
  2  3  1  0
  3  4  2  0
  3  5  1  0
  5  6  2  0
  5  7  1  0
  6  8  1  0
  7  9  2  0
  8 10  2  0
  9 10  1  0
  9 11  1  0
 10 12  1  0
 11 13  1  0
 11 14  1  0
 12 15  1  0
 13 16  1  0
 14 17  2  0
 14 18  1  0
 15 19  1  0
 16 20  1  0
 18 21  1  0
 20 22  1  0
 20 23  1  0
 21 24  2  0
 21 25  1  0
 22 26  1  0
 23 27  1  0
 24 28  1  0
 25 29  2  0
 26 30  1  0
 27 30  1  0
 28 31  2  0
 29 31  1  0
M  END
