JOR-UNI-61e7b1d5-31-chloroacetamide
     RDKit          3D

 30 32  0  0  0  0  0  0  0  0999 V2000
    8.6820   -4.6160   20.5370 C   0  0  0  0  0  0  0  0  0  0  0  0
    8.4550   -3.1770   20.2960 C   0  0  0  0  0  0  0  0  0  0  0  0
    7.4520   -3.1200   19.2460 O   0  0  0  0  0  0  0  0  0  0  0  0
    9.4360   -2.2430   21.3450 C   0  0  0  0  0  0  0  0  0  0  0  0
   10.8430   -1.9030   21.7340 C   0  0  0  0  0  0  0  0  0  0  0  0
    9.4050   -1.4080   22.3030 C   0  0  0  0  0  0  0  0  0  0  0  0
   11.0700   -0.9740   22.9120 N   0  0  0  0  0  0  0  0  0  0  0  0
    8.7130   -0.7050   23.0720 C   0  0  0  0  0  0  0  0  0  0  0  0
    9.8880   -0.3460   23.6710 C   0  0  0  0  0  0  0  0  0  0  0  0
    7.4130   -0.6230   22.9900 N   0  0  0  0  0  0  0  0  0  0  0  0
   10.0070    0.4680   24.7730 N   0  0  0  0  0  0  0  0  0  0  0  0
    6.4900   -1.3160   23.7850 C   0  0  0  0  0  0  0  0  0  0  0  0
    7.1600   -0.1390   21.7080 C   0  0  0  0  0  0  0  0  0  0  0  0
    9.2290    0.4450   25.9570 C   0  0  0  0  0  0  0  0  0  0  0  0
    6.6130   -2.7090   23.7380 C   0  0  0  0  0  0  0  0  0  0  0  0
    7.8100    0.8170   21.2510 O   0  0  0  0  0  0  0  0  0  0  0  0
    6.2300   -0.7840   20.9750 N   0  0  0  0  0  0  0  0  0  0  0  0
    8.0530   -0.4570   26.1860 C   0  0  0  0  0  0  0  0  0  0  0  0
    5.5240   -3.4460   24.1470 N   0  0  0  0  0  0  0  0  0  0  0  0
    5.9350   -0.0470   19.9090 C   0  0  0  0  0  0  0  0  0  0  0  0
    4.2750   -3.6800   23.5350 C   0  0  0  0  0  0  0  0  0  0  0  0
    5.8990   -4.4810   25.1130 C   0  0  0  0  0  0  0  0  0  0  0  0
    4.7990    0.7270   20.0730 C   0  0  0  0  0  0  0  0  0  0  0  0
    6.6690   -0.0290   18.7340 C   0  0  0  0  0  0  0  0  0  0  0  0
    3.9320   -5.1280   23.1810 C   0  0  0  0  0  0  0  0  0  0  0  0
    4.9300   -5.4790   25.3570 C   0  0  0  0  0  0  0  0  0  0  0  0
    4.4120    1.5310   19.0220 C   0  0  0  0  0  0  0  0  0  0  0  0
    6.3500    0.7290   17.6630 N   0  0  0  0  0  0  0  0  0  0  0  0
    4.3370   -6.1190   24.2750 C   0  0  0  0  0  0  0  0  0  0  0  0
    5.2520    1.5000   17.7850 C   0  0  0  0  0  0  0  0  0  0  0  0
  1  2  1  0
  2  3  2  0
  2  4  1  0
  4  5  2  0
  4  6  1  0
  5  7  1  0
  6  8  2  0
  7  9  2  0
  8  9  1  0
  8 10  1  0
  9 11  1  0
 10 12  1  0
 10 13  1  0
 11 14  1  0
 12 15  1  0
 13 16  2  0
 13 17  1  0
 14 18  1  0
 15 19  1  0
 17 20  1  0
 19 21  1  0
 19 22  1  0
 20 23  2  0
 20 24  1  0
 21 25  1  0
 22 26  1  0
 23 27  1  0
 24 28  2  0
 25 29  1  0
 26 29  1  0
 27 30  2  0
 28 30  1  0
M  END
