JOR-UNI-61e7b1d5-29-vinylsulfonamide
     RDKit          3D

 33 35  0  0  0  0  0  0  0  0999 V2000
    6.6510   -5.5420   20.4420 C   0  0  0  0  0  0  0  0  0  0  0  0
    6.2460   -4.8340   21.7120 C   0  0  0  0  0  0  0  0  0  0  0  0
    5.2850   -3.4080   21.3220 S   0  0  0  0  0  0  0  0  0  0  0  0
    4.1990   -3.3330   22.2880 O   0  0  0  0  0  0  0  0  0  0  0  0
    4.9150   -3.5400   19.9050 O   0  0  0  0  0  0  0  0  0  0  0  0
    6.4270   -1.9980   21.4700 C   0  0  0  0  0  0  0  0  0  0  0  0
    7.2850   -1.2280   22.5300 C   0  0  0  0  0  0  0  0  0  0  0  0
    6.7540   -1.2820   20.4210 C   0  0  0  0  0  0  0  0  0  0  0  0
    6.8670   -2.0150   23.4390 N   0  0  0  0  0  0  0  0  0  0  0  0
    7.0910   -1.2720   21.7670 C   0  0  0  0  0  0  0  0  0  0  0  0
    6.2540   -2.4600   22.3910 C   0  0  0  0  0  0  0  0  0  0  0  0
    8.0240   -0.2980   22.2390 N   0  0  0  0  0  0  0  0  0  0  0  0
    5.8700   -3.2440   23.4880 N   0  0  0  0  0  0  0  0  0  0  0  0
    9.2340   -0.8270   22.7480 C   0  0  0  0  0  0  0  0  0  0  0  0
    8.0460    1.0180   21.6890 C   0  0  0  0  0  0  0  0  0  0  0  0
    6.7110   -4.0050   24.3350 C   0  0  0  0  0  0  0  0  0  0  0  0
   10.0730    0.0150   23.4920 C   0  0  0  0  0  0  0  0  0  0  0  0
    9.0820    1.6030   21.3590 O   0  0  0  0  0  0  0  0  0  0  0  0
    6.7930    1.5700   21.5440 N   0  0  0  0  0  0  0  0  0  0  0  0
    7.9920   -4.6160   23.8120 C   0  0  0  0  0  0  0  0  0  0  0  0
   11.4110   -0.3230   23.4610 N   0  0  0  0  0  0  0  0  0  0  0  0
    6.1430    1.6200   20.3800 C   0  0  0  0  0  0  0  0  0  0  0  0
   12.1710   -0.8950   22.4300 C   0  0  0  0  0  0  0  0  0  0  0  0
   11.9610   -0.6600   24.7740 C   0  0  0  0  0  0  0  0  0  0  0  0
    5.0000    2.3810   20.1520 C   0  0  0  0  0  0  0  0  0  0  0  0
    6.6650    0.8460   19.3330 C   0  0  0  0  0  0  0  0  0  0  0  0
   12.8140   -2.2370   22.7110 C   0  0  0  0  0  0  0  0  0  0  0  0
   12.7490   -1.8320   24.7660 C   0  0  0  0  0  0  0  0  0  0  0  0
    4.4250    2.3460   18.8990 C   0  0  0  0  0  0  0  0  0  0  0  0
    6.1680    0.7510   18.0820 N   0  0  0  0  0  0  0  0  0  0  0  0
   12.2780   -2.6730   23.8370 N   0  0  0  0  0  0  0  0  0  0  0  0
    5.0730    1.4850   17.8650 C   0  0  0  0  0  0  0  0  0  0  0  0
   10.9620   -3.0130   24.0190 C   0  0  0  0  0  0  0  0  0  0  0  0
  1  2  1  0
  3  2  1  0
  3  4  2  0
  3  5  2  0
  3  6  1  0
  6  7  2  0
  6  8  1  0
  7  9  1  0
  8 10  2  0
  9 11  2  0
 10 11  1  0
 10 12  1  0
 11 13  1  0
 12 14  1  0
 12 15  1  0
 13 16  1  0
 14 17  1  0
 15 18  2  0
 15 19  1  0
 16 20  1  0
 17 21  1  0
 19 22  1  0
 21 23  1  0
 21 24  1  0
 22 25  2  0
 22 26  1  0
 23 27  1  0
 24 28  1  0
 25 29  1  0
 26 30  2  0
 27 31  1  0
 28 31  1  0
 29 32  2  0
 30 32  1  0
 31 33  1  0
M  END
