JOR-UNI-61e7b1d5-16-acrylamide
     RDKit          3D

 28 30  0  0  0  0  0  0  0  0999 V2000
    6.5780   -3.4890   19.5910 C   0  0  0  0  0  0  0  0  0  0  0  0
    6.6500   -2.4930   20.7430 C   0  0  0  0  0  0  0  0  0  0  0  0
    6.4120   -3.2130   22.0490 C   0  0  0  0  0  0  0  0  0  0  0  0
    5.1820   -3.6810   21.4120 O   0  0  0  0  0  0  0  0  0  0  0  0
    7.9230   -2.4640   22.4770 C   0  0  0  0  0  0  0  0  0  0  0  0
    9.2610   -2.9270   22.8660 C   0  0  0  0  0  0  0  0  0  0  0  0
    8.1900   -1.0130   22.5880 C   0  0  0  0  0  0  0  0  0  0  0  0
   10.5820   -2.2640   23.2730 C   0  0  0  0  0  0  0  0  0  0  0  0
    9.5200   -0.5320   22.9970 C   0  0  0  0  0  0  0  0  0  0  0  0
    9.2000   -1.9000   22.8730 C   0  0  0  0  0  0  0  0  0  0  0  0
    8.9110    0.6950   22.8460 N   0  0  0  0  0  0  0  0  0  0  0  0
    8.0850    0.9520   23.9870 C   0  0  0  0  0  0  0  0  0  0  0  0
    8.5180    0.9960   21.5550 C   0  0  0  0  0  0  0  0  0  0  0  0
    6.8680    1.5810   23.7040 C   0  0  0  0  0  0  0  0  0  0  0  0
    8.9500    1.9850   20.9980 O   0  0  0  0  0  0  0  0  0  0  0  0
    7.6350    0.1060   20.9770 N   0  0  0  0  0  0  0  0  0  0  0  0
    5.8030    1.3570   24.5030 N   0  0  0  0  0  0  0  0  0  0  0  0
    6.7180    0.4630   20.0140 C   0  0  0  0  0  0  0  0  0  0  0  0
    5.0370    2.4270   24.8280 C   0  0  0  0  0  0  0  0  0  0  0  0
    6.0490    0.5810   25.6480 C   0  0  0  0  0  0  0  0  0  0  0  0
    5.5810    1.1670   20.1860 C   0  0  0  0  0  0  0  0  0  0  0  0
    6.9040    0.1290   18.7400 C   0  0  0  0  0  0  0  0  0  0  0  0
    4.1220    2.3190   26.0400 C   0  0  0  0  0  0  0  0  0  0  0  0
    4.8330    0.2110   26.2210 C   0  0  0  0  0  0  0  0  0  0  0  0
    4.7580    1.4780   19.1170 C   0  0  0  0  0  0  0  0  0  0  0  0
    6.0660    0.4640   17.7470 N   0  0  0  0  0  0  0  0  0  0  0  0
    4.4270    1.1830   26.8650 O   0  0  0  0  0  0  0  0  0  0  0  0
    4.8810    1.1740   17.7360 C   0  0  0  0  0  0  0  0  0  0  0  0
  1  2  1  0
  2  3  1  0
  3  4  2  0
  3  5  1  0
  5  6  2  0
  5  7  1  0
  6  8  1  0
  7  9  2  0
  8 10  2  0
  9 10  1  0
  9 11  1  0
 11 12  1  0
 11 13  1  0
 12 14  1  0
 13 15  2  0
 13 16  1  0
 14 17  1  0
 16 18  1  0
 17 19  1  0
 17 20  1  0
 18 21  2  0
 18 22  1  0
 19 23  1  0
 20 24  1  0
 21 25  1  0
 22 26  2  0
 23 27  1  0
 24 27  1  0
 25 28  2  0
 26 28  1  0
M  END
