JOR-UNI-61e7b1d5-30-bromoalkyne
     RDKit          3D

 26 28  0  0  0  0  0  0  0  0999 V2000
    7.8140   -3.2660   19.8290 C   0  0  0  0  0  0  0  0  0  0  0  0
    7.1080   -2.4890   18.6740 C   0  0  0  0  0  0  0  0  0  0  0  0
    8.8800   -2.4460   20.9950 C   0  0  0  0  0  0  0  0  0  0  0  0
   10.3250   -2.4780   21.4320 C   0  0  0  0  0  0  0  0  0  0  0  0
    8.3480   -1.4670   21.7510 C   0  0  0  0  0  0  0  0  0  0  0  0
   10.9960   -1.6990   22.4200 C   0  0  0  0  0  0  0  0  0  0  0  0
    8.9540   -0.6530   22.7290 C   0  0  0  0  0  0  0  0  0  0  0  0
   10.2470   -0.6760   23.1590 C   0  0  0  0  0  0  0  0  0  0  0  0
    8.0370    0.1940   23.1610 N   0  0  0  0  0  0  0  0  0  0  0  0
    6.9210   -0.2450   23.8920 C   0  0  0  0  0  0  0  0  0  0  0  0
    7.8160    0.7860   21.9090 C   0  0  0  0  0  0  0  0  0  0  0  0
    7.2460   -1.4630   24.5360 C   0  0  0  0  0  0  0  0  0  0  0  0
    8.5040    1.7080   21.4080 O   0  0  0  0  0  0  0  0  0  0  0  0
    6.7820    0.1670   21.2480 N   0  0  0  0  0  0  0  0  0  0  0  0
    6.4260   -2.5590   24.2190 N   0  0  0  0  0  0  0  0  0  0  0  0
    6.1940    0.6080   20.0940 C   0  0  0  0  0  0  0  0  0  0  0  0
    5.0670   -2.5670   23.8370 C   0  0  0  0  0  0  0  0  0  0  0  0
    7.1500   -3.6240   23.6390 C   0  0  0  0  0  0  0  0  0  0  0  0
    5.0100    1.3210   20.0700 C   0  0  0  0  0  0  0  0  0  0  0  0
    6.8040    0.3480   18.8780 C   0  0  0  0  0  0  0  0  0  0  0  0
    4.6620   -3.5760   22.9650 C   0  0  0  0  0  0  0  0  0  0  0  0
    6.5440   -4.8480   23.9510 C   0  0  0  0  0  0  0  0  0  0  0  0
    4.4950    1.7520   18.8780 C   0  0  0  0  0  0  0  0  0  0  0  0
    6.3330    0.7560   17.6870 N   0  0  0  0  0  0  0  0  0  0  0  0
    5.3380   -4.9220   23.2390 C   0  0  0  0  0  0  0  0  0  0  0  0
    5.1860    1.4560   17.7240 C   0  0  0  0  0  0  0  0  0  0  0  0
  1  2  2  3
  1  3  1  0
  3  4  2  0
  3  5  1  0
  4  6  1  0
  5  7  2  0
  6  8  2  0
  7  8  1  0
  7  9  1  0
  9 10  1  0
  9 11  1  0
 10 12  1  0
 11 13  2  0
 11 14  1  0
 12 15  1  0
 14 16  1  0
 15 17  1  0
 15 18  1  0
 16 19  2  0
 16 20  1  0
 17 21  1  0
 18 22  1  0
 19 23  1  0
 20 24  2  0
 21 25  1  0
 22 25  1  0
 23 26  2  0
 24 26  1  0
M  END
