JOR-UNI-61e7b1d5-23-nitrile
     RDKit          3D

 29 31  0  0  0  0  0  0  0  0999 V2000
    8.3970   -3.5280   19.8570 C   0  0  0  0  0  0  0  0  0  0  0  0
    7.0560   -3.6870   19.8500 N   0  0  0  0  0  0  0  0  0  0  0  0
    9.5770   -2.9050   21.0230 C   0  0  0  0  0  0  0  0  0  0  0  0
   10.6080   -2.3570   22.0450 C   0  0  0  0  0  0  0  0  0  0  0  0
    8.5790   -2.1180   21.5890 C   0  0  0  0  0  0  0  0  0  0  0  0
   10.7690   -1.4760   23.1280 N   0  0  0  0  0  0  0  0  0  0  0  0
    8.6460   -1.2200   22.6700 C   0  0  0  0  0  0  0  0  0  0  0  0
    9.6980   -0.8750   23.4420 C   0  0  0  0  0  0  0  0  0  0  0  0
    7.5370   -0.6490   22.9250 N   0  0  0  0  0  0  0  0  0  0  0  0
    9.5220    0.0990   24.4760 N   0  0  0  0  0  0  0  0  0  0  0  0
    6.4200   -1.3040   23.5360 C   0  0  0  0  0  0  0  0  0  0  0  0
    7.4400    0.1140   21.7310 C   0  0  0  0  0  0  0  0  0  0  0  0
    9.4960    0.0360   25.8480 C   0  0  0  0  0  0  0  0  0  0  0  0
    6.6060   -2.7160   23.5880 N   0  0  0  0  0  0  0  0  0  0  0  0
    8.1360    1.0990   21.4560 O   0  0  0  0  0  0  0  0  0  0  0  0
    6.5230   -0.4090   20.9270 N   0  0  0  0  0  0  0  0  0  0  0  0
    8.0980   -0.2110   26.4110 C   0  0  0  0  0  0  0  0  0  0  0  0
    7.3640   -3.4010   24.4640 C   0  0  0  0  0  0  0  0  0  0  0  0
    5.5130   -3.4560   23.2330 C   0  0  0  0  0  0  0  0  0  0  0  0
    6.0270    0.2690   19.8630 C   0  0  0  0  0  0  0  0  0  0  0  0
    7.4650   -4.7800   24.3980 C   0  0  0  0  0  0  0  0  0  0  0  0
    5.6730   -4.8020   22.8230 C   0  0  0  0  0  0  0  0  0  0  0  0
    4.8820    1.0320   19.8970 C   0  0  0  0  0  0  0  0  0  0  0  0
    6.7000    0.2100   18.6700 C   0  0  0  0  0  0  0  0  0  0  0  0
    6.8670   -5.3610   23.2940 C   0  0  0  0  0  0  0  0  0  0  0  0
    4.4260    1.7170   18.8060 C   0  0  0  0  0  0  0  0  0  0  0  0
    6.3050    0.8590   17.5610 N   0  0  0  0  0  0  0  0  0  0  0  0
    6.6730   -6.8810   23.3680 C   0  0  0  0  0  0  0  0  0  0  0  0
    5.1750    1.6050   17.6520 C   0  0  0  0  0  0  0  0  0  0  0  0
  1  2  2  3
  1  3  1  0
  3  4  2  0
  3  5  1  0
  4  6  1  0
  5  7  2  0
  6  8  2  0
  7  8  1  0
  7  9  1  0
  8 10  1  0
  9 11  1  0
  9 12  1  0
 10 13  1  0
 11 14  1  0
 12 15  2  0
 12 16  1  0
 13 17  1  0
 14 18  1  0
 14 19  1  0
 16 20  1  0
 18 21  1  0
 19 22  1  0
 20 23  2  0
 20 24  1  0
 21 25  1  0
 22 25  1  0
 23 26  1  0
 24 27  2  0
 25 28  1  0
 26 29  2  0
 27 29  1  0
M  END
