JOR-UNI-61e7b1d5-10-bromoalkyne
     RDKit          3D

 27 29  0  0  0  0  0  0  0  0999 V2000
    7.5060   -3.0370   19.8560 C   0  0  0  0  0  0  0  0  0  0  0  0
    6.8960   -2.3100   18.5960 C   0  0  0  0  0  0  0  0  0  0  0  0
    8.5090   -2.2410   20.9350 C   0  0  0  0  0  0  0  0  0  0  0  0
    9.8480   -2.5430   21.2950 C   0  0  0  0  0  0  0  0  0  0  0  0
    8.1150   -1.1050   21.6400 C   0  0  0  0  0  0  0  0  0  0  0  0
   10.7060   -1.9040   22.1830 C   0  0  0  0  0  0  0  0  0  0  0  0
    8.9200   -0.3690   22.5630 C   0  0  0  0  0  0  0  0  0  0  0  0
   10.2210   -0.7010   22.8990 C   0  0  0  0  0  0  0  0  0  0  0  0
    8.3000    0.7300   23.0730 N   0  0  0  0  0  0  0  0  0  0  0  0
    7.3550    0.7580   24.0980 C   0  0  0  0  0  0  0  0  0  0  0  0
    7.9490    1.3780   21.9060 C   0  0  0  0  0  0  0  0  0  0  0  0
    7.3960    2.0170   24.7200 C   0  0  0  0  0  0  0  0  0  0  0  0
    8.6830    2.1890   21.3280 O   0  0  0  0  0  0  0  0  0  0  0  0
    6.7250    0.9290   21.4880 N   0  0  0  0  0  0  0  0  0  0  0  0
    6.1860    2.3920   25.2990 N   0  0  0  0  0  0  0  0  0  0  0  0
    6.1550    1.0990   20.2520 C   0  0  0  0  0  0  0  0  0  0  0  0
    5.6070    3.6810   25.3260 C   0  0  0  0  0  0  0  0  0  0  0  0
    5.8720    1.6040   26.4230 C   0  0  0  0  0  0  0  0  0  0  0  0
    5.0150    1.8530   20.0470 C   0  0  0  0  0  0  0  0  0  0  0  0
    6.7370    0.4990   19.1430 C   0  0  0  0  0  0  0  0  0  0  0  0
    6.1720    4.6320   26.1710 C   0  0  0  0  0  0  0  0  0  0  0  0
    6.2550    2.2610   27.5880 C   0  0  0  0  0  0  0  0  0  0  0  0
    4.5090    1.9930   18.7880 C   0  0  0  0  0  0  0  0  0  0  0  0
    6.2660    0.6140   17.8840 N   0  0  0  0  0  0  0  0  0  0  0  0
    5.7250    4.4760   27.6230 C   0  0  0  0  0  0  0  0  0  0  0  0
    5.4020    3.1080   27.8880 O   0  0  0  0  0  0  0  0  0  0  0  0
    5.1640    1.3680   17.7570 C   0  0  0  0  0  0  0  0  0  0  0  0
  1  2  2  3
  1  3  1  0
  3  4  2  0
  3  5  1  0
  4  6  1  0
  5  7  2  0
  6  8  2  0
  7  8  1  0
  7  9  1  0
  9 10  1  0
  9 11  1  0
 10 12  1  0
 11 13  2  0
 11 14  1  0
 12 15  1  0
 14 16  1  0
 15 17  1  0
 15 18  1  0
 16 19  2  0
 16 20  1  0
 17 21  1  0
 18 22  1  0
 19 23  1  0
 20 24  2  0
 21 25  1  0
 22 26  1  0
 25 26  1  0
 23 27  2  0
 24 27  1  0
M  END
