JOR-UNI-2fc98d0b-7
     RDKit          3D

 17 18  0  0  0  0  0  0  0  0999 V2000
    8.7840    0.6970   21.2530 O   0  0  0  0  0  0  0  0  0  0  0  0
    8.3880   -0.4230   21.4950 C   0  0  0  0  0  0  0  0  0  0  0  0
    7.1960   -0.9120   21.0490 N   0  0  0  0  0  0  0  0  0  0  0  0
    9.1940   -1.2850   22.2790 N   0  0  0  0  0  0  0  0  0  0  0  0
    6.4280   -0.1680   20.1330 C   0  0  0  0  0  0  0  0  0  0  0  0
   10.3020   -0.6460   22.5430 C   0  0  0  0  0  0  0  0  0  0  0  0
    5.1240    0.5580   20.4870 C   0  0  0  0  0  0  0  0  0  0  0  0
    6.9480   -0.1160   18.8350 C   0  0  0  0  0  0  0  0  0  0  0  0
   11.5280   -1.3990   22.4520 C   0  0  0  0  0  0  0  0  0  0  0  0
   10.2490    0.6980   22.8710 C   0  0  0  0  0  0  0  0  0  0  0  0
    4.5190    1.3070   19.3020 C   0  0  0  0  0  0  0  0  0  0  0  0
    6.3850    0.5690   17.7770 N   0  0  0  0  0  0  0  0  0  0  0  0
   12.7170   -0.7260   22.7070 C   0  0  0  0  0  0  0  0  0  0  0  0
   11.5270    1.4250   23.1250 C   0  0  0  0  0  0  0  0  0  0  0  0
    5.2050    1.2810   17.9470 C   0  0  0  0  0  0  0  0  0  0  0  0
   12.8180    0.6290   23.0340 C   0  0  0  0  0  0  0  0  0  0  0  0
   11.4120    3.1000   23.4700 Cl  0  0  0  0  0  0  0  0  0  0  0  0
  1  2  2  0
  2  3  1  0
  2  4  1  0
  3  5  1  0
  4  6  1  0
  5  7  2  0
  5  8  1  0
  6  9  2  0
  6 10  1  0
  7 11  1  0
  8 12  2  0
  9 13  1  0
 10 14  2  0
 11 15  2  0
 12 15  1  0
 13 16  2  0
 14 16  1  0
 14 17  1  0
M  END
