JOR-UNI-61e7b1d5-28-acrylamide
     RDKit          3D

 29 31  0  0  0  0  0  0  0  0999 V2000
    6.4510   -5.1320   20.1510 C   0  0  0  0  0  0  0  0  0  0  0  0
    6.8890   -4.8830   21.5660 C   0  0  0  0  0  0  0  0  0  0  0  0
    6.5420   -3.4680   21.7730 C   0  0  0  0  0  0  0  0  0  0  0  0
    5.0820   -3.3970   21.4150 O   0  0  0  0  0  0  0  0  0  0  0  0
    8.0690   -2.6930   22.3270 C   0  0  0  0  0  0  0  0  0  0  0  0
    9.3560   -3.2250   22.6040 C   0  0  0  0  0  0  0  0  0  0  0  0
    9.0100   -1.8280   22.7340 C   0  0  0  0  0  0  0  0  0  0  0  0
   10.1230   -1.7340   23.0840 C   0  0  0  0  0  0  0  0  0  0  0  0
    8.5710   -0.6920   22.8040 C   0  0  0  0  0  0  0  0  0  0  0  0
    9.7940   -0.1160   23.2680 C   0  0  0  0  0  0  0  0  0  0  0  0
    7.4860    0.0880   22.6160 N   0  0  0  0  0  0  0  0  0  0  0  0
    6.3760   -0.5410   23.2810 C   0  0  0  0  0  0  0  0  0  0  0  0
    7.4770    0.5610   21.3030 C   0  0  0  0  0  0  0  0  0  0  0  0
    6.7690   -1.1460   24.4890 C   0  0  0  0  0  0  0  0  0  0  0  0
    8.2930    1.4190   20.8970 O   0  0  0  0  0  0  0  0  0  0  0  0
    6.5070   -0.0590   20.5510 N   0  0  0  0  0  0  0  0  0  0  0  0
    5.8580   -1.6720   25.3420 N   0  0  0  0  0  0  0  0  0  0  0  0
    6.1220    0.4400   19.2590 C   0  0  0  0  0  0  0  0  0  0  0  0
    5.7400   -3.0290   25.2750 C   0  0  0  0  0  0  0  0  0  0  0  0
    6.2360   -1.2980   26.6560 C   0  0  0  0  0  0  0  0  0  0  0  0
    5.2300    0.9270   20.0710 C   0  0  0  0  0  0  0  0  0  0  0  0
    7.1250   -0.1760   18.7300 C   0  0  0  0  0  0  0  0  0  0  0  0
    5.5110   -3.8710   26.5340 C   0  0  0  0  0  0  0  0  0  0  0  0
    5.4550   -1.8810   27.6830 C   0  0  0  0  0  0  0  0  0  0  0  0
    4.3540    1.6790   19.3580 C   0  0  0  0  0  0  0  0  0  0  0  0
    6.3790    0.5220   17.8090 N   0  0  0  0  0  0  0  0  0  0  0  0
    5.6050   -3.2390   27.7150 N   0  0  0  0  0  0  0  0  0  0  0  0
    5.2170    1.3020   18.0760 C   0  0  0  0  0  0  0  0  0  0  0  0
    6.4920   -3.7110   28.6160 C   0  0  0  0  0  0  0  0  0  0  0  0
  1  2  1  0
  2  3  1  0
  3  4  2  0
  3  5  1  0
  5  6  2  0
  5  7  1  0
  6  8  1  0
  7  9  2  0
  8 10  2  0
  9 10  1  0
  9 11  1  0
 11 12  1  0
 11 13  1  0
 12 14  1  0
 13 15  2  0
 13 16  1  0
 14 17  1  0
 16 18  1  0
 17 19  1  0
 17 20  1  0
 18 21  2  0
 18 22  1  0
 19 23  1  0
 20 24  1  0
 21 25  1  0
 22 26  2  0
 23 27  1  0
 24 27  1  0
 25 28  2  0
 26 28  1  0
 27 29  1  0
M  END
