JOR-UNI-61e7b1d5-14-nitrile
     RDKit          3D

 26 28  0  0  0  0  0  0  0  0999 V2000
    8.1510   -3.6300   19.4260 C   0  0  0  0  0  0  0  0  0  0  0  0
    6.9610   -3.6890   18.9630 N   0  0  0  0  0  0  0  0  0  0  0  0
    8.7020   -3.1040   20.0340 C   0  0  0  0  0  0  0  0  0  0  0  0
    9.5410   -2.3030   20.9590 C   0  0  0  0  0  0  0  0  0  0  0  0
    7.8560   -2.3600   20.7330 C   0  0  0  0  0  0  0  0  0  0  0  0
   10.2850   -1.5980   21.7720 C   0  0  0  0  0  0  0  0  0  0  0  0
    8.3580   -1.3610   21.9300 C   0  0  0  0  0  0  0  0  0  0  0  0
    9.4650   -0.9610   22.7820 C   0  0  0  0  0  0  0  0  0  0  0  0
    7.4220   -0.6650   22.3820 N   0  0  0  0  0  0  0  0  0  0  0  0
    6.5610   -1.7900   22.8380 C   0  0  0  0  0  0  0  0  0  0  0  0
    6.8900    0.6760   22.0080 C   0  0  0  0  0  0  0  0  0  0  0  0
    6.0360   -1.7800   24.2160 N   0  0  0  0  0  0  0  0  0  0  0  0
    7.2080    1.8690   22.9820 O   0  0  0  0  0  0  0  0  0  0  0  0
    5.7530    0.7050   20.7600 N   0  0  0  0  0  0  0  0  0  0  0  0
    5.4070   -3.0510   24.9250 C   0  0  0  0  0  0  0  0  0  0  0  0
    6.3010   -0.8540   25.3730 C   0  0  0  0  0  0  0  0  0  0  0  0
    5.1070    1.9300   20.9340 C   0  0  0  0  0  0  0  0  0  0  0  0
    5.9090   -3.1790   26.3570 C   0  0  0  0  0  0  0  0  0  0  0  0
    5.6700   -0.9780   26.6650 C   0  0  0  0  0  0  0  0  0  0  0  0
    3.8330    2.4040   20.5770 C   0  0  0  0  0  0  0  0  0  0  0  0
    6.0420    2.9330   21.4990 C   0  0  0  0  0  0  0  0  0  0  0  0
    5.2840   -2.2070   27.1080 N   0  0  0  0  0  0  0  0  0  0  0  0
    3.7480    3.8040   20.8510 C   0  0  0  0  0  0  0  0  0  0  0  0
    5.9500    4.1710   21.5110 N   0  0  0  0  0  0  0  0  0  0  0  0
    4.9550   -2.0470   28.4870 C   0  0  0  0  0  0  0  0  0  0  0  0
    4.6090    4.5690   21.1430 C   0  0  0  0  0  0  0  0  0  0  0  0
  1  2  2  3
  1  3  1  0
  3  4  2  0
  3  5  1  0
  4  6  1  0
  5  7  2  0
  6  8  2  0
  7  8  1  0
  7  9  1  0
  9 10  1  0
  9 11  1  0
 10 12  1  0
 11 13  2  0
 11 14  1  0
 12 15  1  0
 12 16  1  0
 14 17  1  0
 15 18  1  0
 16 19  1  0
 17 20  2  0
 17 21  1  0
 18 22  1  0
 19 22  1  0
 20 23  1  0
 21 24  2  0
 22 25  1  0
 23 26  2  0
 24 26  1  0
M  END
