JOR-UNI-61e7b1d5-19-chloroacetamide
     RDKit          3D

 30 32  0  0  0  0  0  0  0  0999 V2000
    8.6290   -4.0220   20.2770 C   0  0  0  0  0  0  0  0  0  0  0  0
    8.2010   -2.7450   20.1050 C   0  0  0  0  0  0  0  0  0  0  0  0
    7.2310   -2.7150   19.0660 O   0  0  0  0  0  0  0  0  0  0  0  0
    9.0140   -1.9170   21.2650 C   0  0  0  0  0  0  0  0  0  0  0  0
   10.3900   -2.0910   21.7940 C   0  0  0  0  0  0  0  0  0  0  0  0
    8.3820   -0.9660   21.8950 C   0  0  0  0  0  0  0  0  0  0  0  0
   10.9690   -1.3850   22.8880 N   0  0  0  0  0  0  0  0  0  0  0  0
    8.8680   -0.2440   22.9510 C   0  0  0  0  0  0  0  0  0  0  0  0
   10.0940   -0.4290   23.5010 C   0  0  0  0  0  0  0  0  0  0  0  0
    7.8840    0.5410   23.1980 N   0  0  0  0  0  0  0  0  0  0  0  0
   10.4240    0.2770   24.6420 N   0  0  0  0  0  0  0  0  0  0  0  0
    6.8180    0.0310   23.9570 C   0  0  0  0  0  0  0  0  0  0  0  0
    7.6400    0.8930   21.9270 C   0  0  0  0  0  0  0  0  0  0  0  0
    9.8180   -0.1970   25.8380 C   0  0  0  0  0  0  0  0  0  0  0  0
    7.1440   -1.1320   24.6830 C   0  0  0  0  0  0  0  0  0  0  0  0
    8.3530    1.7560   21.3640 O   0  0  0  0  0  0  0  0  0  0  0  0
    6.6650    0.2180   21.2770 N   0  0  0  0  0  0  0  0  0  0  0  0
    8.7660    0.5470   26.6340 C   0  0  0  0  0  0  0  0  0  0  0  0
    6.4610   -2.3360   24.4520 C   0  0  0  0  0  0  0  0  0  0  0  0
    6.1220    0.6340   20.1610 C   0  0  0  0  0  0  0  0  0  0  0  0
    5.7480   -2.8950   25.6890 C   0  0  0  0  0  0  0  0  0  0  0  0
    7.3140   -3.2200   23.7660 C   0  0  0  0  0  0  0  0  0  0  0  0
    4.9530    1.3440   20.1520 C   0  0  0  0  0  0  0  0  0  0  0  0
    6.7510    0.3580   18.9510 C   0  0  0  0  0  0  0  0  0  0  0  0
    5.5330   -4.4180   25.7130 C   0  0  0  0  0  0  0  0  0  0  0  0
    6.8540   -4.5470   23.5740 C   0  0  0  0  0  0  0  0  0  0  0  0
    4.4380    1.7930   18.8440 C   0  0  0  0  0  0  0  0  0  0  0  0
    6.3100    0.7530   17.7440 N   0  0  0  0  0  0  0  0  0  0  0  0
    5.6640   -4.8710   24.2550 C   0  0  0  0  0  0  0  0  0  0  0  0
    5.1690    1.4650   17.7220 C   0  0  0  0  0  0  0  0  0  0  0  0
  1  2  1  0
  2  3  2  0
  2  4  1  0
  4  5  2  0
  4  6  1  0
  5  7  1  0
  6  8  2  0
  7  9  2  0
  8  9  1  0
  8 10  1  0
  9 11  1  0
 10 12  1  0
 10 13  1  0
 11 14  1  0
 12 15  1  0
 13 16  2  0
 13 17  1  0
 14 18  1  0
 15 19  1  0
 17 20  1  0
 19 21  1  0
 19 22  1  0
 20 23  2  0
 20 24  1  0
 21 25  1  0
 22 26  1  0
 23 27  1  0
 24 28  2  0
 25 29  1  0
 26 29  1  0
 27 30  2  0
 28 30  1  0
M  END
