JOR-UNI-61e7b1d5-31-vinylsulfonamide
     RDKit          3D

 32 34  0  0  0  0  0  0  0  0999 V2000
    6.5040   -3.5480   19.3290 C   0  0  0  0  0  0  0  0  0  0  0  0
    6.8390   -2.5120   20.3570 C   0  0  0  0  0  0  0  0  0  0  0  0
    5.7490   -2.6630   21.7320 S   0  0  0  0  0  0  0  0  0  0  0  0
    5.0490   -3.9590   21.7220 O   0  0  0  0  0  0  0  0  0  0  0  0
    4.9220   -1.4770   21.7410 O   0  0  0  0  0  0  0  0  0  0  0  0
    6.9390   -2.4720   23.0640 C   0  0  0  0  0  0  0  0  0  0  0  0
    7.2260   -1.2360   22.8980 C   0  0  0  0  0  0  0  0  0  0  0  0
    7.7350   -1.4370   23.5960 C   0  0  0  0  0  0  0  0  0  0  0  0
    8.0620   -1.7460   24.1130 N   0  0  0  0  0  0  0  0  0  0  0  0
    8.3110   -0.0730   23.7370 C   0  0  0  0  0  0  0  0  0  0  0  0
    8.8630   -0.6690   24.6580 C   0  0  0  0  0  0  0  0  0  0  0  0
    8.1340    1.1210   23.0470 N   0  0  0  0  0  0  0  0  0  0  0  0
    9.7520   -0.4730   25.6890 N   0  0  0  0  0  0  0  0  0  0  0  0
    7.6730    2.2020   23.8050 C   0  0  0  0  0  0  0  0  0  0  0  0
    8.1570    1.2390   21.6370 C   0  0  0  0  0  0  0  0  0  0  0  0
    9.3440   -0.2560   27.0180 C   0  0  0  0  0  0  0  0  0  0  0  0
    6.2830    2.3580   23.8630 C   0  0  0  0  0  0  0  0  0  0  0  0
    8.8260    2.1260   21.1030 O   0  0  0  0  0  0  0  0  0  0  0  0
    7.4000    0.3190   20.9410 N   0  0  0  0  0  0  0  0  0  0  0  0
    8.2490    0.7330   27.3300 C   0  0  0  0  0  0  0  0  0  0  0  0
    5.8030    3.4140   24.6110 N   0  0  0  0  0  0  0  0  0  0  0  0
    7.0010    0.6760   19.6940 C   0  0  0  0  0  0  0  0  0  0  0  0
    4.4890    3.8650   24.8400 C   0  0  0  0  0  0  0  0  0  0  0  0
    6.7870    3.9310   25.5630 C   0  0  0  0  0  0  0  0  0  0  0  0
    5.6930    0.4830   20.4730 C   0  0  0  0  0  0  0  0  0  0  0  0
    6.0430    0.9560   18.7440 C   0  0  0  0  0  0  0  0  0  0  0  0
    3.9870    3.8020   26.2820 C   0  0  0  0  0  0  0  0  0  0  0  0
    6.2780    4.4470   26.7800 C   0  0  0  0  0  0  0  0  0  0  0  0
    4.4810    0.7140   19.7210 C   0  0  0  0  0  0  0  0  0  0  0  0
    5.6110    1.3190   17.4700 N   0  0  0  0  0  0  0  0  0  0  0  0
    5.1120    3.9080   27.3140 C   0  0  0  0  0  0  0  0  0  0  0  0
    5.2470    1.0100   18.6050 C   0  0  0  0  0  0  0  0  0  0  0  0
  1  2  1  0
  3  2  1  0
  3  4  2  0
  3  5  2  0
  3  6  1  0
  6  7  2  0
  6  8  1  0
  7  9  1  0
  8 10  2  0
  9 11  2  0
 10 11  1  0
 10 12  1  0
 11 13  1  0
 12 14  1  0
 12 15  1  0
 13 16  1  0
 14 17  1  0
 15 18  2  0
 15 19  1  0
 16 20  1  0
 17 21  1  0
 19 22  1  0
 21 23  1  0
 21 24  1  0
 22 25  2  0
 22 26  1  0
 23 27  1  0
 24 28  1  0
 25 29  1  0
 26 30  2  0
 27 31  1  0
 28 31  1  0
 29 32  2  0
 30 32  1  0
M  END
