JOR-UNI-61e7b1d5-12-bromoalkyne
     RDKit          3D

 25 27  0  0  0  0  0  0  0  0999 V2000
    8.7940   -3.3410   19.7890 C   0  0  0  0  0  0  0  0  0  0  0  0
    7.1660   -3.7140   19.8410 C   0  0  0  0  0  0  0  0  0  0  0  0
   10.2570   -2.7880   20.8570 C   0  0  0  0  0  0  0  0  0  0  0  0
   11.5280   -2.3080   21.7850 C   0  0  0  0  0  0  0  0  0  0  0  0
    9.7850   -1.9660   21.7730 C   0  0  0  0  0  0  0  0  0  0  0  0
   11.2390   -1.3710   22.9410 C   0  0  0  0  0  0  0  0  0  0  0  0
    9.1290   -1.1770   22.5910 C   0  0  0  0  0  0  0  0  0  0  0  0
    9.9460   -0.7560   23.4180 C   0  0  0  0  0  0  0  0  0  0  0  0
    7.8730   -0.8890   22.5290 N   0  0  0  0  0  0  0  0  0  0  0  0
    6.7990   -1.3960   23.2640 C   0  0  0  0  0  0  0  0  0  0  0  0
    7.6620   -0.2600   21.3870 C   0  0  0  0  0  0  0  0  0  0  0  0
    6.6030   -2.7160   23.0250 N   0  0  0  0  0  0  0  0  0  0  0  0
    8.3350    0.7250   21.0050 O   0  0  0  0  0  0  0  0  0  0  0  0
    6.6800   -0.8690   20.7330 N   0  0  0  0  0  0  0  0  0  0  0  0
    5.3470   -3.1730   23.0930 C   0  0  0  0  0  0  0  0  0  0  0  0
    7.4070   -3.5070   23.7860 C   0  0  0  0  0  0  0  0  0  0  0  0
    6.2820   -0.0940   19.7340 C   0  0  0  0  0  0  0  0  0  0  0  0
    5.0510   -3.8680   24.2680 C   0  0  0  0  0  0  0  0  0  0  0  0
    7.0460   -4.8380   24.0210 C   0  0  0  0  0  0  0  0  0  0  0  0
    5.0940    0.5870   19.9530 C   0  0  0  0  0  0  0  0  0  0  0  0
    6.9730    0.0890   18.4660 C   0  0  0  0  0  0  0  0  0  0  0  0
    5.8230   -4.9690   24.5020 N   0  0  0  0  0  0  0  0  0  0  0  0
    4.5960    1.4700   18.8520 C   0  0  0  0  0  0  0  0  0  0  0  0
    6.4590    0.9610   17.4180 N   0  0  0  0  0  0  0  0  0  0  0  0
    5.2970    1.6070   17.6600 C   0  0  0  0  0  0  0  0  0  0  0  0
  1  2  2  3
  1  3  1  0
  3  4  2  0
  3  5  1  0
  4  6  1  0
  5  7  2  0
  6  8  2  0
  7  8  1  0
  7  9  1  0
  9 10  1  0
  9 11  1  0
 10 12  1  0
 11 13  2  0
 11 14  1  0
 12 15  1  0
 12 16  1  0
 14 17  1  0
 15 18  1  0
 16 19  1  0
 17 20  2  0
 17 21  1  0
 18 22  1  0
 19 22  1  0
 20 23  1  0
 21 24  2  0
 23 25  2  0
 24 25  1  0
M  END
