JOR-UNI-61e7b1d5-21-acrylamide
     RDKit          3D

 30 32  0  0  0  0  0  0  0  0999 V2000
    7.2450   -3.1540   18.8650 C   0  0  0  0  0  0  0  0  0  0  0  0
    7.3400   -2.2510   20.0310 C   0  0  0  0  0  0  0  0  0  0  0  0
    6.7410   -2.9960   21.2110 C   0  0  0  0  0  0  0  0  0  0  0  0
    5.2740   -3.6280   21.1710 O   0  0  0  0  0  0  0  0  0  0  0  0
    8.0520   -2.8470   22.2380 C   0  0  0  0  0  0  0  0  0  0  0  0
    9.1040   -2.2900   23.1400 C   0  0  0  0  0  0  0  0  0  0  0  0
    7.6720   -1.4360   22.1730 C   0  0  0  0  0  0  0  0  0  0  0  0
   10.1840   -1.9980   24.0110 N   0  0  0  0  0  0  0  0  0  0  0  0
    8.7100   -1.2500   23.0560 C   0  0  0  0  0  0  0  0  0  0  0  0
    9.7010   -0.8470   23.9520 C   0  0  0  0  0  0  0  0  0  0  0  0
    8.3360    0.0370   23.0110 N   0  0  0  0  0  0  0  0  0  0  0  0
   10.0400    0.3110   24.5890 N   0  0  0  0  0  0  0  0  0  0  0  0
    7.4260    0.3990   23.9700 C   0  0  0  0  0  0  0  0  0  0  0  0
    8.2280    0.4910   21.7390 C   0  0  0  0  0  0  0  0  0  0  0  0
    9.6560   -0.1380   25.8350 C   0  0  0  0  0  0  0  0  0  0  0  0
    7.2160    1.7150   24.4060 C   0  0  0  0  0  0  0  0  0  0  0  0
    8.9580    1.3940   21.2880 O   0  0  0  0  0  0  0  0  0  0  0  0
    7.2760   -0.1060   20.9870 N   0  0  0  0  0  0  0  0  0  0  0  0
    8.8230    0.6980   26.5870 C   0  0  0  0  0  0  0  0  0  0  0  0
    6.3820    1.8760   25.6780 C   0  0  0  0  0  0  0  0  0  0  0  0
    6.7920    2.5170   23.3470 C   0  0  0  0  0  0  0  0  0  0  0  0
    6.5140    0.4360   20.0460 C   0  0  0  0  0  0  0  0  0  0  0  0
    6.3700    3.3100   26.2290 C   0  0  0  0  0  0  0  0  0  0  0  0
    6.0770    3.6770   23.7360 C   0  0  0  0  0  0  0  0  0  0  0  0
    5.3740    1.1750   20.2940 C   0  0  0  0  0  0  0  0  0  0  0  0
    6.8930    0.2460   18.7310 C   0  0  0  0  0  0  0  0  0  0  0  0
    6.4590    4.2150   24.9890 C   0  0  0  0  0  0  0  0  0  0  0  0
    4.6380    1.7270   19.1170 C   0  0  0  0  0  0  0  0  0  0  0  0
    6.2520    0.7310   17.6560 N   0  0  0  0  0  0  0  0  0  0  0  0
    5.1470    1.4620   17.8600 C   0  0  0  0  0  0  0  0  0  0  0  0
  1  2  1  0
  2  3  1  0
  3  4  2  0
  3  5  1  0
  5  6  2  0
  5  7  1  0
  6  8  1  0
  7  9  2  0
  8 10  2  0
  9 10  1  0
  9 11  1  0
 10 12  1  0
 11 13  1  0
 11 14  1  0
 12 15  1  0
 13 16  1  0
 14 17  2  0
 14 18  1  0
 15 19  1  0
 16 20  1  0
 16 21  1  0
 18 22  1  0
 20 23  1  0
 21 24  1  0
 22 25  2  0
 22 26  1  0
 23 27  1  0
 24 27  1  0
 25 28  1  0
 26 29  2  0
 28 30  2  0
 29 30  1  0
M  END
