JOR-UNI-61e7b1d5-31-bromoalkyne
     RDKit          3D

 29 31  0  0  0  0  0  0  0  0999 V2000
    8.5870   -3.6220   20.0150 C   0  0  0  0  0  0  0  0  0  0  0  0
    6.9980   -3.6830   19.9060 C   0  0  0  0  0  0  0  0  0  0  0  0
    9.3370   -2.6190   21.1760 C   0  0  0  0  0  0  0  0  0  0  0  0
   10.7430   -2.4550   21.6410 C   0  0  0  0  0  0  0  0  0  0  0  0
    8.3060   -1.8840   21.7070 C   0  0  0  0  0  0  0  0  0  0  0  0
   11.2180   -1.6210   22.6550 N   0  0  0  0  0  0  0  0  0  0  0  0
    8.8910   -1.0760   22.7260 C   0  0  0  0  0  0  0  0  0  0  0  0
   10.1570   -0.9190   23.2300 C   0  0  0  0  0  0  0  0  0  0  0  0
    7.8290   -0.4360   23.1130 N   0  0  0  0  0  0  0  0  0  0  0  0
   10.3120   -0.0610   24.3280 N   0  0  0  0  0  0  0  0  0  0  0  0
    6.9590   -1.1250   23.9780 C   0  0  0  0  0  0  0  0  0  0  0  0
    7.3820    0.2420   21.9690 C   0  0  0  0  0  0  0  0  0  0  0  0
    9.7520   -0.4120   25.6070 C   0  0  0  0  0  0  0  0  0  0  0  0
    6.4220   -2.3070   23.4270 C   0  0  0  0  0  0  0  0  0  0  0  0
    7.8670    1.3000   21.5580 O   0  0  0  0  0  0  0  0  0  0  0  0
    6.3950   -0.4240   21.2920 N   0  0  0  0  0  0  0  0  0  0  0  0
    8.5130    0.2530   26.1630 C   0  0  0  0  0  0  0  0  0  0  0  0
    6.7330   -3.5340   24.0010 N   0  0  0  0  0  0  0  0  0  0  0  0
    6.0670    0.1520   20.1290 C   0  0  0  0  0  0  0  0  0  0  0  0
    6.1660   -4.8030   23.7600 C   0  0  0  0  0  0  0  0  0  0  0  0
    8.1430   -3.6350   24.4170 C   0  0  0  0  0  0  0  0  0  0  0  0
    4.9190    0.9220   20.2230 C   0  0  0  0  0  0  0  0  0  0  0  0
    6.7610    0.0270   18.9280 C   0  0  0  0  0  0  0  0  0  0  0  0
    6.9520   -5.7360   22.8350 C   0  0  0  0  0  0  0  0  0  0  0  0
    8.7510   -4.9130   24.2490 C   0  0  0  0  0  0  0  0  0  0  0  0
    4.4750    1.5720   19.0920 C   0  0  0  0  0  0  0  0  0  0  0  0
    6.3800    0.6380   17.7790 N   0  0  0  0  0  0  0  0  0  0  0  0
    8.4560   -5.6680   23.1180 C   0  0  0  0  0  0  0  0  0  0  0  0
    5.2710    1.3970   17.8380 C   0  0  0  0  0  0  0  0  0  0  0  0
  1  2  2  3
  1  3  1  0
  3  4  2  0
  3  5  1  0
  4  6  1  0
  5  7  2  0
  6  8  2  0
  7  8  1  0
  7  9  1  0
  8 10  1  0
  9 11  1  0
  9 12  1  0
 10 13  1  0
 11 14  1  0
 12 15  2  0
 12 16  1  0
 13 17  1  0
 14 18  1  0
 16 19  1  0
 18 20  1  0
 18 21  1  0
 19 22  2  0
 19 23  1  0
 20 24  1  0
 21 25  1  0
 22 26  1  0
 23 27  2  0
 24 28  1  0
 25 28  1  0
 26 29  2  0
 27 29  1  0
M  END
