JOR-UNI-61e7b1d5-10-acrylamide
     RDKit          3D

 29 31  0  0  0  0  0  0  0  0999 V2000
    6.3070   -4.8140   20.0250 C   0  0  0  0  0  0  0  0  0  0  0  0
    6.6990   -3.3700   19.9070 C   0  0  0  0  0  0  0  0  0  0  0  0
    6.4000   -3.0010   21.2730 C   0  0  0  0  0  0  0  0  0  0  0  0
    5.0170   -3.3870   21.5190 O   0  0  0  0  0  0  0  0  0  0  0  0
    7.8780   -2.3590   21.9280 C   0  0  0  0  0  0  0  0  0  0  0  0
    9.0510   -3.0840   22.0140 C   0  0  0  0  0  0  0  0  0  0  0  0
    8.3470   -1.1200   22.4660 C   0  0  0  0  0  0  0  0  0  0  0  0
   10.3290   -2.4680   22.5680 C   0  0  0  0  0  0  0  0  0  0  0  0
    9.2020   -0.0870   23.0470 C   0  0  0  0  0  0  0  0  0  0  0  0
   10.3500   -1.0770   23.0400 C   0  0  0  0  0  0  0  0  0  0  0  0
    7.9420    0.3480   22.8250 N   0  0  0  0  0  0  0  0  0  0  0  0
    6.9830   -0.2260   23.7240 C   0  0  0  0  0  0  0  0  0  0  0  0
    7.8020    0.5810   21.4710 C   0  0  0  0  0  0  0  0  0  0  0  0
    7.1740    0.2110   25.0430 C   0  0  0  0  0  0  0  0  0  0  0  0
    8.4890    1.4540   20.9120 O   0  0  0  0  0  0  0  0  0  0  0  0
    6.9030   -0.2120   20.8180 N   0  0  0  0  0  0  0  0  0  0  0  0
    6.2320   -0.0310   25.9750 N   0  0  0  0  0  0  0  0  0  0  0  0
    6.2900    0.3190   19.7960 C   0  0  0  0  0  0  0  0  0  0  0  0
    6.2980   -1.2550   26.5650 C   0  0  0  0  0  0  0  0  0  0  0  0
    6.3430    0.9460   26.9860 C   0  0  0  0  0  0  0  0  0  0  0  0
    4.9550    1.0090   19.9730 C   0  0  0  0  0  0  0  0  0  0  0  0
    7.0160    0.1920   18.5430 C   0  0  0  0  0  0  0  0  0  0  0  0
    6.0320   -1.4360   28.0630 C   0  0  0  0  0  0  0  0  0  0  0  0
    7.4740    0.6960   27.7930 C   0  0  0  0  0  0  0  0  0  0  0  0
    4.2080    1.6660   18.9170 C   0  0  0  0  0  0  0  0  0  0  0  0
    5.8660    0.8560   18.4750 N   0  0  0  0  0  0  0  0  0  0  0  0
    7.1290   -0.8960   28.9990 C   0  0  0  0  0  0  0  0  0  0  0  0
    7.1100    0.3280   28.9110 O   0  0  0  0  0  0  0  0  0  0  0  0
    5.0460    1.4840   17.7930 C   0  0  0  0  0  0  0  0  0  0  0  0
  1  2  1  0
  2  3  1  0
  3  4  2  0
  3  5  1  0
  5  6  2  0
  5  7  1  0
  6  8  1  0
  7  9  2  0
  8 10  2  0
  9 10  1  0
  9 11  1  0
 11 12  1  0
 11 13  1  0
 12 14  1  0
 13 15  2  0
 13 16  1  0
 14 17  1  0
 16 18  1  0
 17 19  1  0
 17 20  1  0
 18 21  2  0
 18 22  1  0
 19 23  1  0
 20 24  1  0
 21 25  1  0
 22 26  2  0
 23 27  1  0
 24 28  1  0
 27 28  1  0
 25 29  2  0
 26 29  1  0
M  END
