JOR-UNI-61e7b1d5-24-nitrile
     RDKit          3D

 27 29  0  0  0  0  0  0  0  0999 V2000
    7.6660   -3.4200   19.9390 C   0  0  0  0  0  0  0  0  0  0  0  0
    7.0240   -2.8070   18.9470 N   0  0  0  0  0  0  0  0  0  0  0  0
    8.8600   -2.6500   20.9750 C   0  0  0  0  0  0  0  0  0  0  0  0
   10.2690   -2.6070   21.3650 C   0  0  0  0  0  0  0  0  0  0  0  0
    9.0050   -1.7000   21.8490 C   0  0  0  0  0  0  0  0  0  0  0  0
   10.6300   -1.6210   22.3250 C   0  0  0  0  0  0  0  0  0  0  0  0
    8.3000   -0.8590   22.3710 C   0  0  0  0  0  0  0  0  0  0  0  0
    9.6210   -0.7520   22.8180 C   0  0  0  0  0  0  0  0  0  0  0  0
    8.2290    0.1610   23.1570 N   0  0  0  0  0  0  0  0  0  0  0  0
    7.2670   -0.0490   24.1050 C   0  0  0  0  0  0  0  0  0  0  0  0
    7.9320    0.9950   22.0940 C   0  0  0  0  0  0  0  0  0  0  0  0
    7.7270   -1.0610   24.9750 C   0  0  0  0  0  0  0  0  0  0  0  0
    8.6710    1.8800   21.6160 O   0  0  0  0  0  0  0  0  0  0  0  0
    6.7420    0.5920   21.6160 N   0  0  0  0  0  0  0  0  0  0  0  0
    7.4270   -0.8820   26.3180 N   0  0  0  0  0  0  0  0  0  0  0  0
    6.3060    0.7650   20.2670 C   0  0  0  0  0  0  0  0  0  0  0  0
    8.3040   -1.3460   27.2940 C   0  0  0  0  0  0  0  0  0  0  0  0
    6.0930   -0.9880   26.5050 C   0  0  0  0  0  0  0  0  0  0  0  0
    5.1020    1.6280   20.1470 C   0  0  0  0  0  0  0  0  0  0  0  0
    6.8490    0.2400   19.0000 C   0  0  0  0  0  0  0  0  0  0  0  0
    8.0280   -0.7570   28.5240 C   0  0  0  0  0  0  0  0  0  0  0  0
    5.8240   -1.2590   27.8560 C   0  0  0  0  0  0  0  0  0  0  0  0
    4.5920    1.8850   18.8990 C   0  0  0  0  0  0  0  0  0  0  0  0
    6.3010    0.5360   17.7960 N   0  0  0  0  0  0  0  0  0  0  0  0
    6.6810   -0.7770   28.8520 C   0  0  0  0  0  0  0  0  0  0  0  0
    5.1920    1.3500   17.7750 C   0  0  0  0  0  0  0  0  0  0  0  0
    6.3090    0.3540   29.1550 O   0  0  0  0  0  0  0  0  0  0  0  0
  1  2  2  3
  1  3  1  0
  3  4  2  0
  3  5  1  0
  4  6  1  0
  5  7  2  0
  6  8  2  0
  7  8  1  0
  7  9  1  0
  9 10  1  0
  9 11  1  0
 10 12  1  0
 11 13  2  0
 11 14  1  0
 12 15  1  0
 14 16  1  0
 15 17  1  0
 15 18  1  0
 16 19  2  0
 16 20  1  0
 17 21  1  0
 18 22  1  0
 19 23  1  0
 20 24  2  0
 21 25  1  0
 22 25  1  0
 23 26  2  0
 24 26  1  0
 25 27  1  0
M  END
