JOR-UNI-61e7b1d5-31-acrylamide
     RDKit          3D

 31 33  0  0  0  0  0  0  0  0999 V2000
    9.1240   -3.7110   20.2890 C   0  0  0  0  0  0  0  0  0  0  0  0
    8.4640   -2.4460   20.5410 C   0  0  0  0  0  0  0  0  0  0  0  0
    6.9600   -2.8960   20.8220 C   0  0  0  0  0  0  0  0  0  0  0  0
    5.2660   -3.4030   21.1400 O   0  0  0  0  0  0  0  0  0  0  0  0
    8.2650   -1.9460   21.7780 C   0  0  0  0  0  0  0  0  0  0  0  0
    9.2890   -1.0490   22.6530 C   0  0  0  0  0  0  0  0  0  0  0  0
    7.3110   -1.0380   22.4890 C   0  0  0  0  0  0  0  0  0  0  0  0
   10.3130   -0.2700   23.4250 N   0  0  0  0  0  0  0  0  0  0  0  0
    8.5380   -0.6440   22.9240 C   0  0  0  0  0  0  0  0  0  0  0  0
    9.1710    0.2140   23.7330 C   0  0  0  0  0  0  0  0  0  0  0  0
    9.3370   -1.3070   22.2930 N   0  0  0  0  0  0  0  0  0  0  0  0
    8.6530    1.1890   24.5300 N   0  0  0  0  0  0  0  0  0  0  0  0
    9.4070   -2.6520   22.7420 C   0  0  0  0  0  0  0  0  0  0  0  0
    8.8690   -0.6340   21.1680 C   0  0  0  0  0  0  0  0  0  0  0  0
    7.3460    0.8730   24.9780 C   0  0  0  0  0  0  0  0  0  0  0  0
    8.3130   -3.4740   23.1230 C   0  0  0  0  0  0  0  0  0  0  0  0
    9.4060    0.4050   20.8620 O   0  0  0  0  0  0  0  0  0  0  0  0
    7.6630   -1.0360   20.5860 N   0  0  0  0  0  0  0  0  0  0  0  0
    7.1650   -0.4810   25.4450 C   0  0  0  0  0  0  0  0  0  0  0  0
    8.0460   -3.7520   24.4420 N   0  0  0  0  0  0  0  0  0  0  0  0
    6.8730   -0.3230   19.7510 C   0  0  0  0  0  0  0  0  0  0  0  0
    6.7240   -3.5710   24.8890 C   0  0  0  0  0  0  0  0  0  0  0  0
    8.5590   -4.9560   24.8330 C   0  0  0  0  0  0  0  0  0  0  0  0
    5.6320   -0.8700   19.2690 C   0  0  0  0  0  0  0  0  0  0  0  0
    6.9880    0.8990   19.1930 C   0  0  0  0  0  0  0  0  0  0  0  0
    6.0380   -4.5560   25.8250 C   0  0  0  0  0  0  0  0  0  0  0  0
    8.2780   -5.6230   26.0550 C   0  0  0  0  0  0  0  0  0  0  0  0
    4.8460    0.0070   18.2810 C   0  0  0  0  0  0  0  0  0  0  0  0
    6.4980    1.8050   18.4040 N   0  0  0  0  0  0  0  0  0  0  0  0
    7.0670   -5.3320   26.6810 C   0  0  0  0  0  0  0  0  0  0  0  0
    5.3290    1.3260   17.8780 C   0  0  0  0  0  0  0  0  0  0  0  0
  1  2  1  0
  2  3  1  0
  3  4  2  0
  3  5  1  0
  5  6  2  0
  5  7  1  0
  6  8  1  0
  7  9  2  0
  8 10  2  0
  9 10  1  0
  9 11  1  0
 10 12  1  0
 11 13  1  0
 11 14  1  0
 12 15  1  0
 13 16  1  0
 14 17  2  0
 14 18  1  0
 15 19  1  0
 16 20  1  0
 18 21  1  0
 20 22  1  0
 20 23  1  0
 21 24  2  0
 21 25  1  0
 22 26  1  0
 23 27  1  0
 24 28  1  0
 25 29  2  0
 26 30  1  0
 27 30  1  0
 28 31  2  0
 29 31  1  0
M  END
