JOR-UNI-61e7b1d5-12-chloroacetamide
     RDKit          3D

 26 28  0  0  0  0  0  0  0  0999 V2000
    7.4230   -3.8750   20.7320 C   0  0  0  0  0  0  0  0  0  0  0  0
    7.7270   -2.6540   19.7990 C   0  0  0  0  0  0  0  0  0  0  0  0
    6.9360   -3.2260   18.9630 O   0  0  0  0  0  0  0  0  0  0  0  0
    8.6390   -2.1830   21.0400 C   0  0  0  0  0  0  0  0  0  0  0  0
    9.9570   -2.5390   21.4090 C   0  0  0  0  0  0  0  0  0  0  0  0
    8.0790   -1.2590   21.8690 C   0  0  0  0  0  0  0  0  0  0  0  0
   10.6530   -2.0570   22.5050 C   0  0  0  0  0  0  0  0  0  0  0  0
    8.6990   -0.7090   22.9770 C   0  0  0  0  0  0  0  0  0  0  0  0
    9.9830   -1.0540   23.3920 C   0  0  0  0  0  0  0  0  0  0  0  0
    7.8620    0.2040   23.5390 N   0  0  0  0  0  0  0  0  0  0  0  0
    6.8420   -0.1010   24.4440 C   0  0  0  0  0  0  0  0  0  0  0  0
    7.4010    0.9690   22.4970 C   0  0  0  0  0  0  0  0  0  0  0  0
    7.2980   -0.3530   25.6870 N   0  0  0  0  0  0  0  0  0  0  0  0
    8.0430    1.8740   21.9540 O   0  0  0  0  0  0  0  0  0  0  0  0
    6.1490    0.5770   22.0780 N   0  0  0  0  0  0  0  0  0  0  0  0
    7.2700    0.6580   26.5610 C   0  0  0  0  0  0  0  0  0  0  0  0
    6.6370   -1.4020   26.2420 C   0  0  0  0  0  0  0  0  0  0  0  0
    5.9290    0.7880   20.7390 C   0  0  0  0  0  0  0  0  0  0  0  0
    6.1470    0.6910   27.3870 C   0  0  0  0  0  0  0  0  0  0  0  0
    6.5300   -1.4770   27.6360 C   0  0  0  0  0  0  0  0  0  0  0  0
    4.7370    1.4540   20.4540 C   0  0  0  0  0  0  0  0  0  0  0  0
    6.7710    0.4080   19.5820 C   0  0  0  0  0  0  0  0  0  0  0  0
    5.9680   -0.4160   28.1650 N   0  0  0  0  0  0  0  0  0  0  0  0
    4.4040    1.7350   19.0210 C   0  0  0  0  0  0  0  0  0  0  0  0
    6.4120    0.7050   18.1880 N   0  0  0  0  0  0  0  0  0  0  0  0
    5.2470    1.3530   17.9860 C   0  0  0  0  0  0  0  0  0  0  0  0
  1  2  1  0
  2  3  2  0
  2  4  1  0
  4  5  2  0
  4  6  1  0
  5  7  1  0
  6  8  2  0
  7  9  2  0
  8  9  1  0
  8 10  1  0
 10 11  1  0
 10 12  1  0
 11 13  1  0
 12 14  2  0
 12 15  1  0
 13 16  1  0
 13 17  1  0
 15 18  1  0
 16 19  1  0
 17 20  1  0
 18 21  2  0
 18 22  1  0
 19 23  1  0
 20 23  1  0
 21 24  1  0
 22 25  2  0
 24 26  2  0
 25 26  1  0
M  END
