JOR-UNI-61e7b1d5-5-bromoalkyne
     RDKit          3D

 26 28  0  0  0  0  0  0  0  0999 V2000
    6.8650   -3.5270   19.9480 C   0  0  0  0  0  0  0  0  0  0  0  0
    5.7430   -4.5810   20.0040 C   0  0  0  0  0  0  0  0  0  0  0  0
    6.4580   -2.1760   19.2670 C   0  0  0  0  0  0  0  0  0  0  0  0
    5.6840   -3.2120   18.9780 C   0  0  0  0  0  0  0  0  0  0  0  0
    7.2940   -1.7070   20.2430 C   0  0  0  0  0  0  0  0  0  0  0  0
    5.6940   -4.1390   20.1160 C   0  0  0  0  0  0  0  0  0  0  0  0
    7.3910   -2.5240   21.4110 C   0  0  0  0  0  0  0  0  0  0  0  0
    6.5950   -3.7740   21.4300 C   0  0  0  0  0  0  0  0  0  0  0  0
    8.2060   -1.9980   22.4140 N   0  0  0  0  0  0  0  0  0  0  0  0
    8.5390   -2.6080   23.6200 C   0  0  0  0  0  0  0  0  0  0  0  0
    8.3780   -0.5950   22.2310 C   0  0  0  0  0  0  0  0  0  0  0  0
    7.8010   -2.1240   24.6450 N   0  0  0  0  0  0  0  0  0  0  0  0
    9.4790   -0.0710   22.0260 O   0  0  0  0  0  0  0  0  0  0  0  0
    7.1860    0.1260   22.2880 N   0  0  0  0  0  0  0  0  0  0  0  0
    6.5360   -2.5160   24.8360 C   0  0  0  0  0  0  0  0  0  0  0  0
    8.1510   -0.7560   25.0910 C   0  0  0  0  0  0  0  0  0  0  0  0
    6.5040    0.3900   20.9820 C   0  0  0  0  0  0  0  0  0  0  0  0
    6.0540   -2.3030   26.1240 C   0  0  0  0  0  0  0  0  0  0  0  0
    7.4180   -0.4050   26.2330 C   0  0  0  0  0  0  0  0  0  0  0  0
    5.1820    1.1100   20.9230 C   0  0  0  0  0  0  0  0  0  0  0  0
    6.9920    0.0050   19.6360 C   0  0  0  0  0  0  0  0  0  0  0  0
    6.1480   -0.9520   26.4620 C   0  0  0  0  0  0  0  0  0  0  0  0
    4.5280    1.3670   19.7080 C   0  0  0  0  0  0  0  0  0  0  0  0
    6.2690    0.3020   18.3790 N   0  0  0  0  0  0  0  0  0  0  0  0
    5.9690   -0.8650   27.6740 O   0  0  0  0  0  0  0  0  0  0  0  0
    5.0790    0.9630   18.4740 C   0  0  0  0  0  0  0  0  0  0  0  0
  1  2  2  3
  1  3  1  0
  3  4  2  0
  3  5  1  0
  4  6  1  0
  5  7  2  0
  6  8  2  0
  7  8  1  0
  7  9  1  0
  9 10  1  0
  9 11  1  0
 10 12  1  0
 11 13  2  0
 11 14  1  0
 12 15  1  0
 12 16  1  0
 14 17  1  0
 15 18  1  0
 16 19  1  0
 17 20  2  0
 17 21  1  0
 18 22  1  0
 19 22  1  0
 20 23  1  0
 21 24  2  0
 22 25  1  0
 23 26  2  0
 24 26  1  0
M  END
