JOR-UNI-61e7b1d5-8-acrylamide
     RDKit          3D

 28 29  0  0  0  0  0  0  0  0999 V2000
    7.0700   -3.3340   19.4670 C   0  0  0  0  0  0  0  0  0  0  0  0
    5.7630   -2.8460   20.0800 C   0  0  0  0  0  0  0  0  0  0  0  0
    5.7110   -3.1900   21.5600 C   0  0  0  0  0  0  0  0  0  0  0  0
    4.7200   -3.7210   22.0620 O   0  0  0  0  0  0  0  0  0  0  0  0
    6.9330   -2.9040   22.3820 C   0  0  0  0  0  0  0  0  0  0  0  0
    7.8150   -2.1920   22.8840 C   0  0  0  0  0  0  0  0  0  0  0  0
    6.7870   -1.5320   22.0460 C   0  0  0  0  0  0  0  0  0  0  0  0
    8.7420   -2.5530   23.6040 N   0  0  0  0  0  0  0  0  0  0  0  0
    8.0150   -0.9210   22.8000 C   0  0  0  0  0  0  0  0  0  0  0  0
    9.2050   -1.3870   23.7110 C   0  0  0  0  0  0  0  0  0  0  0  0
    8.0530    0.4460   22.5930 N   0  0  0  0  0  0  0  0  0  0  0  0
    9.4360   -0.0460   23.6250 N   0  0  0  0  0  0  0  0  0  0  0  0
    7.6710    1.2430   23.6320 C   0  0  0  0  0  0  0  0  0  0  0  0
    8.0610    0.9300   21.3270 C   0  0  0  0  0  0  0  0  0  0  0  0
   10.1250    0.2870   24.7490 C   0  0  0  0  0  0  0  0  0  0  0  0
    8.2430    2.4940   23.9140 C   0  0  0  0  0  0  0  0  0  0  0  0
    8.8500    1.8200   21.0180 O   0  0  0  0  0  0  0  0  0  0  0  0
    7.1490    0.3810   20.4570 N   0  0  0  0  0  0  0  0  0  0  0  0
    9.3120    0.0480   25.8690 C   0  0  0  0  0  0  0  0  0  0  0  0
    8.8770    3.3200   22.7730 C   0  0  0  0  0  0  0  0  0  0  0  0
    6.2210    1.0000   19.5480 C   0  0  0  0  0  0  0  0  0  0  0  0
   10.1950    3.6380   22.7150 N   0  0  0  0  0  0  0  0  0  0  0  0
    7.9930    3.6880   21.8570 N   0  0  0  0  0  0  0  0  0  0  0  0
    5.3450    1.7380   18.9930 C   0  0  0  0  0  0  0  0  0  0  0  0
    6.0550    1.7560   20.6560 C   0  0  0  0  0  0  0  0  0  0  0  0
    5.4680    0.9900   17.8110 C   0  0  0  0  0  0  0  0  0  0  0  0
    6.7960    0.6960   20.2780 N   0  0  0  0  0  0  0  0  0  0  0  0
    6.4560    0.3620   18.8430 C   0  0  0  0  0  0  0  0  0  0  0  0
  1  2  1  0
  2  3  1  0
  3  4  2  0
  3  5  1  0
  5  6  2  0
  5  7  1  0
  6  8  1  0
  7  9  2  0
  8 10  2  0
  9 10  1  0
  9 11  1  0
 10 12  1  0
 11 13  1  0
 11 14  1  0
 12 15  1  0
 13 16  1  0
 14 17  2  0
 14 18  1  0
 15 19  1  0
 16 20  1  0
 18 21  1  0
 20 22  2  3
 20 23  1  0
 21 24  2  0
 21 25  1  0
 24 26  1  0
 25 27  2  0
 26 28  2  0
 27 28  1  0
M  END
