JOR-UNI-61e7b1d5-3-bromoalkyne
     RDKit          3D

 25 27  0  0  0  0  0  0  0  0999 V2000
    8.1480   -3.4490   19.8100 C   0  0  0  0  0  0  0  0  0  0  0  0
    6.5330   -3.5910   19.8120 C   0  0  0  0  0  0  0  0  0  0  0  0
    9.0500   -2.6160   21.0380 C   0  0  0  0  0  0  0  0  0  0  0  0
   10.4620   -2.5910   21.5220 C   0  0  0  0  0  0  0  0  0  0  0  0
    8.3640   -1.7290   21.7740 C   0  0  0  0  0  0  0  0  0  0  0  0
   10.9830   -1.8680   22.5950 C   0  0  0  0  0  0  0  0  0  0  0  0
    8.8350   -0.9570   22.8310 C   0  0  0  0  0  0  0  0  0  0  0  0
   10.0890   -0.9870   23.3420 C   0  0  0  0  0  0  0  0  0  0  0  0
    7.8540   -0.1520   23.2430 N   0  0  0  0  0  0  0  0  0  0  0  0
    6.8150   -0.4140   24.1350 C   0  0  0  0  0  0  0  0  0  0  0  0
    7.4910    0.4360   22.0580 C   0  0  0  0  0  0  0  0  0  0  0  0
    7.2440   -1.1300   25.1900 N   0  0  0  0  0  0  0  0  0  0  0  0
    8.0430    1.4350   21.5820 O   0  0  0  0  0  0  0  0  0  0  0  0
    6.5220   -0.2510   21.4150 N   0  0  0  0  0  0  0  0  0  0  0  0
    6.5670   -2.2480   25.5040 C   0  0  0  0  0  0  0  0  0  0  0  0
    7.5660   -0.3510   26.2670 C   0  0  0  0  0  0  0  0  0  0  0  0
    6.1180    0.2730   20.2650 C   0  0  0  0  0  0  0  0  0  0  0  0
    6.0330   -2.3040   26.7820 C   0  0  0  0  0  0  0  0  0  0  0  0
    7.0230   -0.5340   27.5470 C   0  0  0  0  0  0  0  0  0  0  0  0
    4.9850    1.0620   20.2530 C   0  0  0  0  0  0  0  0  0  0  0  0
    6.7940    0.0800   18.9630 C   0  0  0  0  0  0  0  0  0  0  0  0
    5.9120   -1.0470   27.4580 O   0  0  0  0  0  0  0  0  0  0  0  0
    4.5140    1.6710   18.9770 C   0  0  0  0  0  0  0  0  0  0  0  0
    6.3890    0.6230   17.7890 N   0  0  0  0  0  0  0  0  0  0  0  0
    5.1970    1.4590   17.7940 C   0  0  0  0  0  0  0  0  0  0  0  0
  1  2  2  3
  1  3  1  0
  3  4  2  0
  3  5  1  0
  4  6  1  0
  5  7  2  0
  6  8  2  0
  7  8  1  0
  7  9  1  0
  9 10  1  0
  9 11  1  0
 10 12  1  0
 11 13  2  0
 11 14  1  0
 12 15  1  0
 12 16  1  0
 14 17  1  0
 15 18  1  0
 16 19  1  0
 17 20  2  0
 17 21  1  0
 18 22  1  0
 19 22  1  0
 20 23  1  0
 21 24  2  0
 23 25  2  0
 24 25  1  0
M  END
