JOR-UNI-61e7b1d5-14-bromoalkyne
     RDKit          3D

 26 28  0  0  0  0  0  0  0  0999 V2000
    7.6970   -3.2650   19.6670 C   0  0  0  0  0  0  0  0  0  0  0  0
    6.2200   -3.2460   19.1660 C   0  0  0  0  0  0  0  0  0  0  0  0
    7.9350   -2.8640   21.1320 C   0  0  0  0  0  0  0  0  0  0  0  0
    6.8320   -2.5310   21.9980 C   0  0  0  0  0  0  0  0  0  0  0  0
    9.1580   -2.7290   21.8260 C   0  0  0  0  0  0  0  0  0  0  0  0
    6.9750   -2.1120   23.3910 C   0  0  0  0  0  0  0  0  0  0  0  0
    8.1440   -2.4050   22.6860 C   0  0  0  0  0  0  0  0  0  0  0  0
    8.3870   -2.0290   23.9520 C   0  0  0  0  0  0  0  0  0  0  0  0
    6.7630   -2.4430   22.2920 N   0  0  0  0  0  0  0  0  0  0  0  0
    5.9450   -3.6000   22.3330 C   0  0  0  0  0  0  0  0  0  0  0  0
    6.1510   -1.1900   21.9410 C   0  0  0  0  0  0  0  0  0  0  0  0
    5.3450   -3.7830   23.5370 N   0  0  0  0  0  0  0  0  0  0  0  0
    6.4590    0.0420   22.6110 O   0  0  0  0  0  0  0  0  0  0  0  0
    5.2650   -1.2680   20.9240 N   0  0  0  0  0  0  0  0  0  0  0  0
    4.3430   -4.6530   23.5590 C   0  0  0  0  0  0  0  0  0  0  0  0
    6.3090   -4.1270   24.6020 C   0  0  0  0  0  0  0  0  0  0  0  0
    5.2650   -0.3170   19.8280 C   0  0  0  0  0  0  0  0  0  0  0  0
    4.7680   -5.9750   23.7130 C   0  0  0  0  0  0  0  0  0  0  0  0
    6.9410   -5.3180   24.2530 C   0  0  0  0  0  0  0  0  0  0  0  0
    4.2350    0.7780   19.8580 C   0  0  0  0  0  0  0  0  0  0  0  0
    6.1660   -0.2900   18.6620 C   0  0  0  0  0  0  0  0  0  0  0  0
    6.1200   -6.1910   23.6150 N   0  0  0  0  0  0  0  0  0  0  0  0
    4.2010    1.7080   18.8200 C   0  0  0  0  0  0  0  0  0  0  0  0
    6.0810    0.6480   17.6790 N   0  0  0  0  0  0  0  0  0  0  0  0
    6.5490   -6.5460   22.3460 C   0  0  0  0  0  0  0  0  0  0  0  0
    5.1110    1.6240   17.7690 C   0  0  0  0  0  0  0  0  0  0  0  0
  1  2  2  3
  1  3  1  0
  3  4  2  0
  3  5  1  0
  4  6  1  0
  5  7  2  0
  6  8  2  0
  7  8  1  0
  7  9  1  0
  9 10  1  0
  9 11  1  0
 10 12  1  0
 11 13  2  0
 11 14  1  0
 12 15  1  0
 12 16  1  0
 14 17  1  0
 15 18  1  0
 16 19  1  0
 17 20  2  0
 17 21  1  0
 18 22  1  0
 19 22  1  0
 20 23  1  0
 21 24  2  0
 22 25  1  0
 23 26  2  0
 24 26  1  0
M  END
