JOR-UNI-61e7b1d5-14-chloroacetamide
     RDKit          3D

 27 29  0  0  0  0  0  0  0  0999 V2000
    7.5060   -4.4110   20.9660 C   0  0  0  0  0  0  0  0  0  0  0  0
    8.1390   -3.2490   20.2610 C   0  0  0  0  0  0  0  0  0  0  0  0
    7.5770   -3.1630   19.0130 O   0  0  0  0  0  0  0  0  0  0  0  0
    9.2320   -2.3410   21.2230 C   0  0  0  0  0  0  0  0  0  0  0  0
   10.6870   -2.2970   21.5640 C   0  0  0  0  0  0  0  0  0  0  0  0
    8.6280   -1.3640   21.8910 C   0  0  0  0  0  0  0  0  0  0  0  0
   11.3070   -1.3800   22.4610 C   0  0  0  0  0  0  0  0  0  0  0  0
    9.1580   -0.4310   22.7680 C   0  0  0  0  0  0  0  0  0  0  0  0
   10.4800   -0.3430   23.1390 C   0  0  0  0  0  0  0  0  0  0  0  0
    8.1560    0.3700   23.1490 N   0  0  0  0  0  0  0  0  0  0  0  0
    6.9970   -0.0550   23.8400 C   0  0  0  0  0  0  0  0  0  0  0  0
    7.8960    0.8790   21.8800 C   0  0  0  0  0  0  0  0  0  0  0  0
    6.7350   -1.3850   23.6690 N   0  0  0  0  0  0  0  0  0  0  0  0
    8.5890    1.7550   21.3240 O   0  0  0  0  0  0  0  0  0  0  0  0
    6.8480    0.2460   21.3420 N   0  0  0  0  0  0  0  0  0  0  0  0
    5.4450   -1.7720   23.6830 C   0  0  0  0  0  0  0  0  0  0  0  0
    7.6310   -2.2770   24.4410 C   0  0  0  0  0  0  0  0  0  0  0  0
    6.3370    0.6130   20.0700 C   0  0  0  0  0  0  0  0  0  0  0  0
    5.2190   -3.1410   23.4850 C   0  0  0  0  0  0  0  0  0  0  0  0
    7.1800   -3.6050   24.4320 C   0  0  0  0  0  0  0  0  0  0  0  0
    5.1220    1.4730   20.1150 C   0  0  0  0  0  0  0  0  0  0  0  0
    6.8420    0.2720   18.7400 C   0  0  0  0  0  0  0  0  0  0  0  0
    6.3450   -3.9010   23.4240 N   0  0  0  0  0  0  0  0  0  0  0  0
    4.5720    1.8950   18.9250 C   0  0  0  0  0  0  0  0  0  0  0  0
    6.2570    0.7210   17.6130 N   0  0  0  0  0  0  0  0  0  0  0  0
    6.0690   -5.2690   23.3790 C   0  0  0  0  0  0  0  0  0  0  0  0
    5.1500    1.5200   17.7230 C   0  0  0  0  0  0  0  0  0  0  0  0
  1  2  1  0
  2  3  2  0
  2  4  1  0
  4  5  2  0
  4  6  1  0
  5  7  1  0
  6  8  2  0
  7  9  2  0
  8  9  1  0
  8 10  1  0
 10 11  1  0
 10 12  1  0
 11 13  1  0
 12 14  2  0
 12 15  1  0
 13 16  1  0
 13 17  1  0
 15 18  1  0
 16 19  1  0
 17 20  1  0
 18 21  2  0
 18 22  1  0
 19 23  1  0
 20 23  1  0
 21 24  1  0
 22 25  2  0
 23 26  1  0
 24 27  2  0
 25 27  1  0
M  END
