JOR-UNI-61e7b1d5-10-vinylsulfonamide
     RDKit          3D

 30 32  0  0  0  0  0  0  0  0999 V2000
    6.6550   -3.3170   19.3040 C   0  0  0  0  0  0  0  0  0  0  0  0
    6.7020   -2.4460   20.5600 C   0  0  0  0  0  0  0  0  0  0  0  0
    6.7300   -3.5220   21.9640 S   0  0  0  0  0  0  0  0  0  0  0  0
    5.2270   -3.7510   21.3050 O   0  0  0  0  0  0  0  0  0  0  0  0
    6.2930   -3.0710   23.2710 O   0  0  0  0  0  0  0  0  0  0  0  0
    8.2560   -2.2890   22.2750 C   0  0  0  0  0  0  0  0  0  0  0  0
    9.6990   -2.4590   22.5420 C   0  0  0  0  0  0  0  0  0  0  0  0
    7.9950   -1.0080   22.2780 C   0  0  0  0  0  0  0  0  0  0  0  0
   10.9100   -1.6850   22.7950 C   0  0  0  0  0  0  0  0  0  0  0  0
    8.9480   -0.0760   22.5000 C   0  0  0  0  0  0  0  0  0  0  0  0
   10.2520   -0.3400   22.7320 C   0  0  0  0  0  0  0  0  0  0  0  0
    8.5020    1.1740   22.4630 N   0  0  0  0  0  0  0  0  0  0  0  0
    8.2640    2.0250   23.5420 C   0  0  0  0  0  0  0  0  0  0  0  0
    8.2770    1.5860   21.1640 C   0  0  0  0  0  0  0  0  0  0  0  0
    7.1650    1.6060   24.3150 C   0  0  0  0  0  0  0  0  0  0  0  0
    9.2250    2.2960   21.3400 O   0  0  0  0  0  0  0  0  0  0  0  0
    7.2640    0.6830   21.2740 N   0  0  0  0  0  0  0  0  0  0  0  0
    7.5210    0.8750   25.4440 N   0  0  0  0  0  0  0  0  0  0  0  0
    6.4140    0.6820   20.2010 C   0  0  0  0  0  0  0  0  0  0  0  0
    8.7570    0.2190   25.6550 C   0  0  0  0  0  0  0  0  0  0  0  0
    6.4170    0.1520   25.9390 C   0  0  0  0  0  0  0  0  0  0  0  0
    5.1560    1.2410   20.1860 C   0  0  0  0  0  0  0  0  0  0  0  0
    6.8400    0.1060   19.0240 C   0  0  0  0  0  0  0  0  0  0  0  0
    8.9190   -0.9120   26.4410 C   0  0  0  0  0  0  0  0  0  0  0  0
    6.3710    0.1130   27.3290 C   0  0  0  0  0  0  0  0  0  0  0  0
    4.3670    1.2430   19.0720 C   0  0  0  0  0  0  0  0  0  0  0  0
    6.1160    0.0830   17.9040 N   0  0  0  0  0  0  0  0  0  0  0  0
    8.2040   -1.0030   27.7940 C   0  0  0  0  0  0  0  0  0  0  0  0
    6.8330   -0.9000   27.8470 O   0  0  0  0  0  0  0  0  0  0  0  0
    4.9030    0.6490   17.9450 C   0  0  0  0  0  0  0  0  0  0  0  0
  1  2  1  0
  3  2  1  0
  3  4  2  0
  3  5  2  0
  3  6  1  0
  6  7  2  0
  6  8  1  0
  7  9  1  0
  8 10  2  0
  9 11  2  0
 10 11  1  0
 10 12  1  0
 12 13  1  0
 12 14  1  0
 13 15  1  0
 14 16  2  0
 14 17  1  0
 15 18  1  0
 17 19  1  0
 18 20  1  0
 18 21  1  0
 19 22  2  0
 19 23  1  0
 20 24  1  0
 21 25  1  0
 22 26  1  0
 23 27  2  0
 24 28  1  0
 25 29  1  0
 28 29  1  0
 26 30  2  0
 27 30  1  0
M  END
