JOR-UNI-61e7b1d5-6-vinylsulfonamide
     RDKit          3D

 32 34  0  0  0  0  0  0  0  0999 V2000
    8.2910   -4.0810   19.8910 C   0  0  0  0  0  0  0  0  0  0  0  0
    7.1480   -3.0630   19.8770 C   0  0  0  0  0  0  0  0  0  0  0  0
    6.4640   -3.0490   21.4950 S   0  0  0  0  0  0  0  0  0  0  0  0
    5.1950   -3.9470   21.4520 O   0  0  0  0  0  0  0  0  0  0  0  0
    6.2270   -1.6590   21.8070 O   0  0  0  0  0  0  0  0  0  0  0  0
    7.9790   -3.5670   22.4740 C   0  0  0  0  0  0  0  0  0  0  0  0
    9.1740   -3.5400   23.2610 C   0  0  0  0  0  0  0  0  0  0  0  0
    8.3070   -2.2290   22.7080 C   0  0  0  0  0  0  0  0  0  0  0  0
    9.8450   -2.4400   23.7490 N   0  0  0  0  0  0  0  0  0  0  0  0
    8.2240   -0.8530   22.6650 C   0  0  0  0  0  0  0  0  0  0  0  0
    9.3520   -1.1190   23.4620 C   0  0  0  0  0  0  0  0  0  0  0  0
    8.3900    0.4850   22.7930 N   0  0  0  0  0  0  0  0  0  0  0  0
   10.1010   -0.1740   24.0740 N   0  0  0  0  0  0  0  0  0  0  0  0
    7.9620    1.2110   23.9180 C   0  0  0  0  0  0  0  0  0  0  0  0
    8.3070    1.1070   21.4780 C   0  0  0  0  0  0  0  0  0  0  0  0
   10.3930   -0.4400   25.4100 C   0  0  0  0  0  0  0  0  0  0  0  0
    6.7140    0.7820   24.4280 N   0  0  0  0  0  0  0  0  0  0  0  0
    8.8330    2.1740   21.1820 O   0  0  0  0  0  0  0  0  0  0  0  0
    7.5930    0.3240   20.6230 N   0  0  0  0  0  0  0  0  0  0  0  0
    9.4970    0.0540   26.5480 C   0  0  0  0  0  0  0  0  0  0  0  0
    6.5440   -0.3850   25.1700 C   0  0  0  0  0  0  0  0  0  0  0  0
    5.5020    1.4310   24.5150 C   0  0  0  0  0  0  0  0  0  0  0  0
    6.4950    0.6590   19.7090 C   0  0  0  0  0  0  0  0  0  0  0  0
    5.9410   -0.3730   26.4240 C   0  0  0  0  0  0  0  0  0  0  0  0
    5.3680    1.8840   25.8290 C   0  0  0  0  0  0  0  0  0  0  0  0
    5.1270    0.7810   20.2880 C   0  0  0  0  0  0  0  0  0  0  0  0
    6.6890    0.8660   18.3040 C   0  0  0  0  0  0  0  0  0  0  0  0
    5.2350    0.9180   26.8370 C   0  0  0  0  0  0  0  0  0  0  0  0
    4.0000    1.1060   19.4640 C   0  0  0  0  0  0  0  0  0  0  0  0
    5.5820    1.1580   17.6590 N   0  0  0  0  0  0  0  0  0  0  0  0
    3.9430    0.8320   27.3140 O   0  0  0  0  0  0  0  0  0  0  0  0
    5.1330    1.0280   18.8350 C   0  0  0  0  0  0  0  0  0  0  0  0
  1  2  1  0
  3  2  1  0
  3  4  2  0
  3  5  2  0
  3  6  1  0
  6  7  2  0
  6  8  1  0
  7  9  1  0
  8 10  2  0
  9 11  2  0
 10 11  1  0
 10 12  1  0
 11 13  1  0
 12 14  1  0
 12 15  1  0
 13 16  1  0
 14 17  1  0
 15 18  2  0
 15 19  1  0
 16 20  1  0
 17 21  1  0
 17 22  1  0
 19 23  1  0
 21 24  1  0
 22 25  1  0
 23 26  2  0
 23 27  1  0
 24 28  1  0
 25 28  1  0
 26 29  1  0
 27 30  2  0
 28 31  1  0
 29 32  2  0
 30 32  1  0
M  END
