JOR-UNI-61e7b1d5-8-chloroacetamide
     RDKit          3D

 27 28  0  0  0  0  0  0  0  0999 V2000
    7.8060   -3.0320   18.7120 C   0  0  0  0  0  0  0  0  0  0  0  0
    7.1880   -3.2630   20.0040 C   0  0  0  0  0  0  0  0  0  0  0  0
    6.1800   -4.0780   19.9350 O   0  0  0  0  0  0  0  0  0  0  0  0
    7.9010   -2.4900   21.1900 C   0  0  0  0  0  0  0  0  0  0  0  0
    9.3430   -2.7080   21.3670 C   0  0  0  0  0  0  0  0  0  0  0  0
    7.1310   -1.6440   21.9720 C   0  0  0  0  0  0  0  0  0  0  0  0
    9.7100   -1.8980   22.4710 N   0  0  0  0  0  0  0  0  0  0  0  0
    7.6060   -0.8800   23.0350 C   0  0  0  0  0  0  0  0  0  0  0  0
    8.9270   -1.0250   23.2830 C   0  0  0  0  0  0  0  0  0  0  0  0
    6.7070   -0.0910   23.6620 N   0  0  0  0  0  0  0  0  0  0  0  0
    9.5470   -0.3250   24.3210 N   0  0  0  0  0  0  0  0  0  0  0  0
    5.8300   -0.5580   24.6450 C   0  0  0  0  0  0  0  0  0  0  0  0
    6.3490    0.8190   22.6730 C   0  0  0  0  0  0  0  0  0  0  0  0
    9.5820   -0.6210   25.7050 C   0  0  0  0  0  0  0  0  0  0  0  0
    5.4880   -1.9070   24.5060 C   0  0  0  0  0  0  0  0  0  0  0  0
    6.6870    2.2140   22.7110 O   0  0  0  0  0  0  0  0  0  0  0  0
    5.6700    0.2210   21.6300 N   0  0  0  0  0  0  0  0  0  0  0  0
    8.7100    0.1450   26.6760 C   0  0  0  0  0  0  0  0  0  0  0  0
    5.9340   -2.8220   25.4640 C   0  0  0  0  0  0  0  0  0  0  0  0
    5.4530    0.7220   20.3430 C   0  0  0  0  0  0  0  0  0  0  0  0
    5.0400   -3.5720   26.1600 N   0  0  0  0  0  0  0  0  0  0  0  0
    7.2640   -2.9750   25.7170 N   0  0  0  0  0  0  0  0  0  0  0  0
    4.3340    1.7310   20.0620 C   0  0  0  0  0  0  0  0  0  0  0  0
    6.2840    0.2860   19.2790 C   0  0  0  0  0  0  0  0  0  0  0  0
    4.2880    2.1050   18.7390 C   0  0  0  0  0  0  0  0  0  0  0  0
    6.2030    0.6820   17.9740 N   0  0  0  0  0  0  0  0  0  0  0  0
    5.2340    1.5670   17.7220 C   0  0  0  0  0  0  0  0  0  0  0  0
  1  2  1  0
  2  3  2  0
  2  4  1  0
  4  5  2  0
  4  6  1  0
  5  7  1  0
  6  8  2  0
  7  9  2  0
  8  9  1  0
  8 10  1  0
  9 11  1  0
 10 12  1  0
 10 13  1  0
 11 14  1  0
 12 15  1  0
 13 16  2  0
 13 17  1  0
 14 18  1  0
 15 19  1  0
 17 20  1  0
 19 21  2  3
 19 22  1  0
 20 23  2  0
 20 24  1  0
 23 25  1  0
 24 26  2  0
 25 27  2  0
 26 27  1  0
M  END
