JOR-UNI-61e7b1d5-26-acrylamide
     RDKit          3D

 28 30  0  0  0  0  0  0  0  0999 V2000
    7.2640   -3.5530   19.8680 C   0  0  0  0  0  0  0  0  0  0  0  0
    6.8100   -4.4710   21.0080 C   0  0  0  0  0  0  0  0  0  0  0  0
    6.2130   -3.6440   22.1190 C   0  0  0  0  0  0  0  0  0  0  0  0
    5.1220   -3.9900   21.5900 O   0  0  0  0  0  0  0  0  0  0  0  0
    7.7040   -3.5040   22.3890 C   0  0  0  0  0  0  0  0  0  0  0  0
    8.5960   -2.5910   22.6100 C   0  0  0  0  0  0  0  0  0  0  0  0
    7.8080   -2.0750   22.5060 C   0  0  0  0  0  0  0  0  0  0  0  0
    9.9330   -2.2310   22.8710 C   0  0  0  0  0  0  0  0  0  0  0  0
    8.6850   -0.8720   22.7440 C   0  0  0  0  0  0  0  0  0  0  0  0
   10.3230   -0.8480   23.0370 C   0  0  0  0  0  0  0  0  0  0  0  0
    8.2230    0.4880   22.7560 N   0  0  0  0  0  0  0  0  0  0  0  0
    7.4320    0.7400   23.9290 C   0  0  0  0  0  0  0  0  0  0  0  0
    8.0200    1.1950   21.5400 C   0  0  0  0  0  0  0  0  0  0  0  0
    6.7550   -0.3820   24.4160 C   0  0  0  0  0  0  0  0  0  0  0  0
    8.8880    1.9520   21.1020 O   0  0  0  0  0  0  0  0  0  0  0  0
    6.7980    0.9910   20.9420 N   0  0  0  0  0  0  0  0  0  0  0  0
    5.8880   -0.2370   25.4480 N   0  0  0  0  0  0  0  0  0  0  0  0
    6.5690    0.4800   19.6840 C   0  0  0  0  0  0  0  0  0  0  0  0
    6.2860   -0.7890   26.6210 C   0  0  0  0  0  0  0  0  0  0  0  0
    4.5800   -0.6760   25.1450 C   0  0  0  0  0  0  0  0  0  0  0  0
    5.5190    1.0890   18.7840 C   0  0  0  0  0  0  0  0  0  0  0  0
    7.1350   -0.5300   19.0510 C   0  0  0  0  0  0  0  0  0  0  0  0
    5.3030   -1.6500   27.4090 C   0  0  0  0  0  0  0  0  0  0  0  0
    3.6890   -0.5640   26.2150 C   0  0  0  0  0  0  0  0  0  0  0  0
    4.8490    2.1370   19.3060 C   0  0  0  0  0  0  0  0  0  0  0  0
    6.1750    0.2750   18.6280 N   0  0  0  0  0  0  0  0  0  0  0  0
    4.0200   -1.6190   27.0010 N   0  0  0  0  0  0  0  0  0  0  0  0
    5.8230    1.3100   19.7090 C   0  0  0  0  0  0  0  0  0  0  0  0
  1  2  1  0
  2  3  1  0
  3  4  2  0
  3  5  1  0
  5  6  2  0
  5  7  1  0
  6  8  1  0
  7  9  2  0
  8 10  2  0
  9 10  1  0
  9 11  1  0
 11 12  1  0
 11 13  1  0
 12 14  1  0
 13 15  2  0
 13 16  1  0
 14 17  1  0
 16 18  1  0
 17 19  1  0
 17 20  1  0
 18 21  2  0
 18 22  1  0
 19 23  1  0
 20 24  1  0
 21 25  1  0
 22 26  2  0
 23 27  1  0
 24 27  1  0
 25 28  2  0
 26 28  1  0
M  END
