JOR-UNI-61e7b1d5-22-nitrile
     RDKit          3D

 26 28  0  0  0  0  0  0  0  0999 V2000
    8.1740   -3.4840   19.8830 C   0  0  0  0  0  0  0  0  0  0  0  0
    6.8010   -3.5940   19.6810 N   0  0  0  0  0  0  0  0  0  0  0  0
    9.2150   -2.7340   21.0410 C   0  0  0  0  0  0  0  0  0  0  0  0
    9.6250   -1.8110   22.0080 C   0  0  0  0  0  0  0  0  0  0  0  0
    8.2830   -1.7820   21.3380 C   0  0  0  0  0  0  0  0  0  0  0  0
   10.8930   -2.3670   22.1900 C   0  0  0  0  0  0  0  0  0  0  0  0
    9.1500   -1.0940   22.3740 C   0  0  0  0  0  0  0  0  0  0  0  0
   10.4610   -1.3390   22.8540 C   0  0  0  0  0  0  0  0  0  0  0  0
    8.5780   -0.0440   22.9460 N   0  0  0  0  0  0  0  0  0  0  0  0
    7.6460   -0.6080   23.8000 C   0  0  0  0  0  0  0  0  0  0  0  0
    8.0810    0.7090   21.8940 C   0  0  0  0  0  0  0  0  0  0  0  0
    7.2100    0.1160   24.8800 N   0  0  0  0  0  0  0  0  0  0  0  0
    8.7850    1.8240   21.3200 O   0  0  0  0  0  0  0  0  0  0  0  0
    6.9090    0.2220   21.4510 N   0  0  0  0  0  0  0  0  0  0  0  0
    7.7980    0.1280   26.1590 C   0  0  0  0  0  0  0  0  0  0  0  0
    5.8680   -0.0180   25.0380 C   0  0  0  0  0  0  0  0  0  0  0  0
    6.3930    0.5600   20.1580 C   0  0  0  0  0  0  0  0  0  0  0  0
    7.0930   -0.6160   27.0950 C   0  0  0  0  0  0  0  0  0  0  0  0
    5.5600   -1.3070   25.5200 C   0  0  0  0  0  0  0  0  0  0  0  0
    5.1810    1.4260   20.1810 C   0  0  0  0  0  0  0  0  0  0  0  0
    6.8860    0.1840   18.8300 C   0  0  0  0  0  0  0  0  0  0  0  0
    6.5180   -1.7110   26.4680 C   0  0  0  0  0  0  0  0  0  0  0  0
    4.6220    1.8210   18.9810 C   0  0  0  0  0  0  0  0  0  0  0  0
    6.2910    0.6080   17.6910 N   0  0  0  0  0  0  0  0  0  0  0  0
    5.9910   -2.5880   27.4160 C   0  0  0  0  0  0  0  0  0  0  0  0
    5.1870    1.4130   17.7840 C   0  0  0  0  0  0  0  0  0  0  0  0
  1  2  2  3
  1  3  1  0
  3  4  2  0
  3  5  1  0
  4  6  1  0
  5  7  2  0
  6  8  2  0
  7  8  1  0
  7  9  1  0
  9 10  1  0
  9 11  1  0
 10 12  1  0
 11 13  2  0
 11 14  1  0
 12 15  1  0
 12 16  1  0
 14 17  1  0
 15 18  1  0
 16 19  1  0
 17 20  2  0
 17 21  1  0
 18 22  1  0
 19 22  1  0
 20 23  1  0
 21 24  2  0
 22 25  1  0
 23 26  2  0
 24 26  1  0
M  END
