JOR-UNI-61e7b1d5-27-acrylamide
     RDKit          3D

 31 33  0  0  0  0  0  0  0  0999 V2000
    7.3700   -3.2020   19.0750 C   0  0  0  0  0  0  0  0  0  0  0  0
    7.6260   -2.4460   20.3350 C   0  0  0  0  0  0  0  0  0  0  0  0
    6.7230   -2.9780   21.4630 C   0  0  0  0  0  0  0  0  0  0  0  0
    5.2440   -3.5990   21.2730 O   0  0  0  0  0  0  0  0  0  0  0  0
    7.8000   -2.6450   22.7060 C   0  0  0  0  0  0  0  0  0  0  0  0
    8.5910   -3.3230   23.6810 C   0  0  0  0  0  0  0  0  0  0  0  0
    8.4360   -1.5790   23.3610 C   0  0  0  0  0  0  0  0  0  0  0  0
    8.6270   -1.9620   23.6430 N   0  0  0  0  0  0  0  0  0  0  0  0
    8.0880   -0.4040   22.7970 C   0  0  0  0  0  0  0  0  0  0  0  0
    8.9030   -0.6860   23.9290 C   0  0  0  0  0  0  0  0  0  0  0  0
    8.1940    0.8670   22.8000 N   0  0  0  0  0  0  0  0  0  0  0  0
    9.6240   -0.0120   24.9230 N   0  0  0  0  0  0  0  0  0  0  0  0
    7.0650    1.5060   23.2580 C   0  0  0  0  0  0  0  0  0  0  0  0
    8.3870    1.1900   21.4880 C   0  0  0  0  0  0  0  0  0  0  0  0
    8.6900   -0.1190   25.9350 C   0  0  0  0  0  0  0  0  0  0  0  0
    6.7510    1.8490   24.5780 C   0  0  0  0  0  0  0  0  0  0  0  0
    9.0670    2.1180   21.1050 O   0  0  0  0  0  0  0  0  0  0  0  0
    7.6960    0.3010   20.6780 N   0  0  0  0  0  0  0  0  0  0  0  0
    9.1850    0.1230   27.2170 C   0  0  0  0  0  0  0  0  0  0  0  0
    5.4780    1.6150   25.0040 N   0  0  0  0  0  0  0  0  0  0  0  0
    6.6310    0.5960   19.9380 C   0  0  0  0  0  0  0  0  0  0  0  0
    5.2520    0.8260   26.0820 C   0  0  0  0  0  0  0  0  0  0  0  0
    4.5820    2.7760   24.9880 C   0  0  0  0  0  0  0  0  0  0  0  0
    5.3390    0.8290   20.4030 C   0  0  0  0  0  0  0  0  0  0  0  0
    6.7740    0.7030   18.5110 C   0  0  0  0  0  0  0  0  0  0  0  0
    4.7260    1.4280   27.3940 C   0  0  0  0  0  0  0  0  0  0  0  0
    4.5100    3.5240   26.1890 C   0  0  0  0  0  0  0  0  0  0  0  0
    5.5190    0.9250   19.0910 C   0  0  0  0  0  0  0  0  0  0  0  0
    5.7910    1.0180   17.5700 N   0  0  0  0  0  0  0  0  0  0  0  0
    4.3620    2.7500   27.2910 N   0  0  0  0  0  0  0  0  0  0  0  0
    4.5680    1.2420   18.0730 C   0  0  0  0  0  0  0  0  0  0  0  0
  1  2  1  0
  2  3  1  0
  3  4  2  0
  3  5  1  0
  5  6  2  0
  5  7  1  0
  6  8  1  0
  7  9  2  0
  8 10  2  0
  9 10  1  0
  9 11  1  0
 10 12  1  0
 11 13  1  0
 11 14  1  0
 12 15  1  0
 13 16  1  0
 14 17  2  0
 14 18  1  0
 15 19  1  0
 16 20  1  0
 18 21  1  0
 20 22  1  0
 20 23  1  0
 21 24  2  0
 21 25  1  0
 22 26  1  0
 23 27  1  0
 24 28  1  0
 25 29  2  0
 26 30  1  0
 27 30  1  0
 28 31  2  0
 29 31  1  0
M  END
