JOR-UNI-61e7b1d5-9-nitrile
     RDKit          3D

 23 25  0  0  0  0  0  0  0  0999 V2000
    7.7070   -3.2570   19.8540 C   0  0  0  0  0  0  0  0  0  0  0  0
    7.1010   -2.7140   18.8010 N   0  0  0  0  0  0  0  0  0  0  0  0
    8.7430   -2.3820   20.9890 C   0  0  0  0  0  0  0  0  0  0  0  0
   10.1870   -2.4940   21.3780 C   0  0  0  0  0  0  0  0  0  0  0  0
    8.2630   -1.3290   21.7010 C   0  0  0  0  0  0  0  0  0  0  0  0
   10.9530   -1.7200   22.2830 C   0  0  0  0  0  0  0  0  0  0  0  0
    9.0190   -0.5610   22.5780 C   0  0  0  0  0  0  0  0  0  0  0  0
   10.3400   -0.7070   22.9090 C   0  0  0  0  0  0  0  0  0  0  0  0
    8.3490    0.4190   23.0880 N   0  0  0  0  0  0  0  0  0  0  0  0
    7.5040   -0.1270   24.0390 C   0  0  0  0  0  0  0  0  0  0  0  0
    7.9060    0.9290   21.9210 C   0  0  0  0  0  0  0  0  0  0  0  0
    6.2620   -0.5740   23.5440 C   0  0  0  0  0  0  0  0  0  0  0  0
    8.5870    1.9890   21.2330 O   0  0  0  0  0  0  0  0  0  0  0  0
    6.8290    0.2790   21.4320 N   0  0  0  0  0  0  0  0  0  0  0  0
    5.6930   -1.4940   24.4340 C   0  0  0  0  0  0  0  0  0  0  0  0
    6.3090    0.6220   20.2590 C   0  0  0  0  0  0  0  0  0  0  0  0
    5.9650   -2.7640   24.2700 C   0  0  0  0  0  0  0  0  0  0  0  0
    4.7410   -2.6920   23.8250 C   0  0  0  0  0  0  0  0  0  0  0  0
    5.0450    1.4620   20.2560 C   0  0  0  0  0  0  0  0  0  0  0  0
    6.8470    0.2620   19.0210 C   0  0  0  0  0  0  0  0  0  0  0  0
    4.5190    1.8220   19.0370 C   0  0  0  0  0  0  0  0  0  0  0  0
    6.3410    0.6150   17.8080 N   0  0  0  0  0  0  0  0  0  0  0  0
    5.2260    1.3650   17.8040 C   0  0  0  0  0  0  0  0  0  0  0  0
  1  2  2  3
  1  3  1  0
  3  4  2  0
  3  5  1  0
  4  6  1  0
  5  7  2  0
  6  8  2  0
  7  8  1  0
  7  9  1  0
  9 10  1  0
  9 11  1  0
 10 12  1  0
 11 13  2  0
 11 14  1  0
 12 15  1  0
 14 16  1  0
 15 17  1  0
 15 18  1  0
 17 18  1  0
 16 19  2  0
 16 20  1  0
 19 21  1  0
 20 22  2  0
 21 23  2  0
 22 23  1  0
M  END
