JOR-UNI-61e7b1d5-13-nitrile
     RDKit          3D

 28 30  0  0  0  0  0  0  0  0999 V2000
    6.5620   -4.1230   19.9510 C   0  0  0  0  0  0  0  0  0  0  0  0
    5.2970   -4.1440   19.8460 N   0  0  0  0  0  0  0  0  0  0  0  0
    7.2010   -2.8560   19.4420 C   0  0  0  0  0  0  0  0  0  0  0  0
    7.7850   -1.7770   19.8170 C   0  0  0  0  0  0  0  0  0  0  0  0
    7.7540   -1.9050   20.4350 C   0  0  0  0  0  0  0  0  0  0  0  0
    7.3710   -2.6950   20.9520 N   0  0  0  0  0  0  0  0  0  0  0  0
    7.9500   -1.6810   21.7800 C   0  0  0  0  0  0  0  0  0  0  0  0
    7.4730   -2.6720   22.3720 C   0  0  0  0  0  0  0  0  0  0  0  0
    8.5580   -0.5540   22.2980 N   0  0  0  0  0  0  0  0  0  0  0  0
    7.8690   -2.0600   23.5950 N   0  0  0  0  0  0  0  0  0  0  0  0
    9.7960   -0.5130   22.9960 C   0  0  0  0  0  0  0  0  0  0  0  0
    8.1410    0.5690   21.6800 C   0  0  0  0  0  0  0  0  0  0  0  0
    7.1540   -1.9720   24.7830 C   0  0  0  0  0  0  0  0  0  0  0  0
   10.1670    0.8240   23.2340 N   0  0  0  0  0  0  0  0  0  0  0  0
    8.9330    1.4510   21.2850 O   0  0  0  0  0  0  0  0  0  0  0  0
    6.7750    0.6670   21.5110 N   0  0  0  0  0  0  0  0  0  0  0  0
    7.6790   -0.7940   25.6120 C   0  0  0  0  0  0  0  0  0  0  0  0
    9.5050    1.7570   23.9340 C   0  0  0  0  0  0  0  0  0  0  0  0
   11.4640    0.9990   23.3590 C   0  0  0  0  0  0  0  0  0  0  0  0
    6.1320    1.0710   20.3300 C   0  0  0  0  0  0  0  0  0  0  0  0
    9.7990    3.0960   23.7490 C   0  0  0  0  0  0  0  0  0  0  0  0
   11.9080    2.3190   23.1130 C   0  0  0  0  0  0  0  0  0  0  0  0
    5.0330    1.9230   20.2630 C   0  0  0  0  0  0  0  0  0  0  0  0
    6.6600    0.5570   19.0400 C   0  0  0  0  0  0  0  0  0  0  0  0
   11.1100    3.4290   23.6950 N   0  0  0  0  0  0  0  0  0  0  0  0
    4.5290    2.2200   18.8880 C   0  0  0  0  0  0  0  0  0  0  0  0
    6.1830    0.8400   17.8040 N   0  0  0  0  0  0  0  0  0  0  0  0
    5.1300    1.6700   17.7660 C   0  0  0  0  0  0  0  0  0  0  0  0
  1  2  2  3
  1  3  1  0
  3  4  2  0
  3  5  1  0
  4  6  1  0
  5  7  2  0
  6  8  2  0
  7  8  1  0
  7  9  1  0
  8 10  1  0
  9 11  1  0
  9 12  1  0
 10 13  1  0
 11 14  1  0
 12 15  2  0
 12 16  1  0
 13 17  1  0
 14 18  1  0
 14 19  1  0
 16 20  1  0
 18 21  1  0
 19 22  1  0
 20 23  2  0
 20 24  1  0
 21 25  1  0
 22 25  1  0
 23 26  1  0
 24 27  2  0
 26 28  2  0
 27 28  1  0
M  END
