JOR-UNI-61e7b1d5-30-acrylamide
     RDKit          3D

 28 30  0  0  0  0  0  0  0  0999 V2000
    7.5310   -4.9140   20.8730 C   0  0  0  0  0  0  0  0  0  0  0  0
    7.1250   -3.5450   20.5620 C   0  0  0  0  0  0  0  0  0  0  0  0
    6.7450   -2.9390   21.8390 C   0  0  0  0  0  0  0  0  0  0  0  0
    5.2060   -3.4610   21.3040 O   0  0  0  0  0  0  0  0  0  0  0  0
    8.7060   -2.7490   21.8980 C   0  0  0  0  0  0  0  0  0  0  0  0
   10.1500   -2.6090   21.9410 C   0  0  0  0  0  0  0  0  0  0  0  0
    9.6470   -1.3800   22.3530 C   0  0  0  0  0  0  0  0  0  0  0  0
    9.2860   -1.6150   22.3180 C   0  0  0  0  0  0  0  0  0  0  0  0
    8.6860   -0.3910   22.6870 C   0  0  0  0  0  0  0  0  0  0  0  0
    7.8590   -1.2300   22.5120 C   0  0  0  0  0  0  0  0  0  0  0  0
    8.5200    0.8450   22.9910 N   0  0  0  0  0  0  0  0  0  0  0  0
    7.4480    1.0090   23.9540 C   0  0  0  0  0  0  0  0  0  0  0  0
    8.3480    1.0930   21.6130 C   0  0  0  0  0  0  0  0  0  0  0  0
    6.9120   -0.1730   24.4950 C   0  0  0  0  0  0  0  0  0  0  0  0
    9.0150    1.8980   20.9890 O   0  0  0  0  0  0  0  0  0  0  0  0
    7.3920    0.2360   21.0300 N   0  0  0  0  0  0  0  0  0  0  0  0
    6.8940   -0.3440   25.8420 N   0  0  0  0  0  0  0  0  0  0  0  0
    6.5380    0.5450   20.0500 C   0  0  0  0  0  0  0  0  0  0  0  0
    8.1050   -0.3730   26.4370 C   0  0  0  0  0  0  0  0  0  0  0  0
    6.1580   -1.5160   26.1660 C   0  0  0  0  0  0  0  0  0  0  0  0
    5.2360    1.0250   20.2170 C   0  0  0  0  0  0  0  0  0  0  0  0
    6.9580    0.3900   18.6890 C   0  0  0  0  0  0  0  0  0  0  0  0
    8.7400   -1.7000   26.8510 C   0  0  0  0  0  0  0  0  0  0  0  0
    6.5440   -2.0600   27.4120 C   0  0  0  0  0  0  0  0  0  0  0  0
    5.6160    0.8940   18.9460 C   0  0  0  0  0  0  0  0  0  0  0  0
    6.1590    0.6950   17.4530 N   0  0  0  0  0  0  0  0  0  0  0  0
    7.7430   -2.7520   27.3560 C   0  0  0  0  0  0  0  0  0  0  0  0
    4.9200    1.1650   17.7040 C   0  0  0  0  0  0  0  0  0  0  0  0
  1  2  1  0
  2  3  1  0
  3  4  2  0
  3  5  1  0
  5  6  2  0
  5  7  1  0
  6  8  1  0
  7  9  2  0
  8 10  2  0
  9 10  1  0
  9 11  1  0
 11 12  1  0
 11 13  1  0
 12 14  1  0
 13 15  2  0
 13 16  1  0
 14 17  1  0
 16 18  1  0
 17 19  1  0
 17 20  1  0
 18 21  2  0
 18 22  1  0
 19 23  1  0
 20 24  1  0
 21 25  1  0
 22 26  2  0
 23 27  1  0
 24 27  1  0
 25 28  2  0
 26 28  1  0
M  END
