JOR-UNI-61e7b1d5-9-vinylsulfonamide
     RDKit          3D

 26 28  0  0  0  0  0  0  0  0999 V2000
    7.7530   -4.0890   20.6760 C   0  0  0  0  0  0  0  0  0  0  0  0
    6.7370   -2.9790   20.5070 C   0  0  0  0  0  0  0  0  0  0  0  0
    5.8660   -2.8510   22.0290 S   0  0  0  0  0  0  0  0  0  0  0  0
    4.4240   -2.9640   21.7670 O   0  0  0  0  0  0  0  0  0  0  0  0
    6.4020   -1.7100   22.7510 O   0  0  0  0  0  0  0  0  0  0  0  0
    6.3210   -4.3330   22.8980 C   0  0  0  0  0  0  0  0  0  0  0  0
    6.1680   -4.5150   24.2510 C   0  0  0  0  0  0  0  0  0  0  0  0
    6.1220   -4.4210   24.3030 C   0  0  0  0  0  0  0  0  0  0  0  0
    6.5410   -5.5960   24.5460 C   0  0  0  0  0  0  0  0  0  0  0  0
    5.6610   -3.4010   24.7000 C   0  0  0  0  0  0  0  0  0  0  0  0
    5.9390   -4.5520   25.7320 C   0  0  0  0  0  0  0  0  0  0  0  0
    5.1650   -2.5430   25.7050 N   0  0  0  0  0  0  0  0  0  0  0  0
    3.8050   -2.3330   25.9290 C   0  0  0  0  0  0  0  0  0  0  0  0
    5.9580   -1.5410   26.2040 C   0  0  0  0  0  0  0  0  0  0  0  0
    3.2560   -3.2200   26.8420 C   0  0  0  0  0  0  0  0  0  0  0  0
    6.1660   -1.3880   27.4220 O   0  0  0  0  0  0  0  0  0  0  0  0
    6.4790   -0.7300   25.2410 N   0  0  0  0  0  0  0  0  0  0  0  0
    1.8930   -3.5150   26.6520 C   0  0  0  0  0  0  0  0  0  0  0  0
    5.8250    0.0880   24.3020 C   0  0  0  0  0  0  0  0  0  0  0  0
    1.3810   -3.7200   25.4690 C   0  0  0  0  0  0  0  0  0  0  0  0
    0.8100   -2.4900   25.8650 C   0  0  0  0  0  0  0  0  0  0  0  0
    5.5060    0.9800   23.4880 C   0  0  0  0  0  0  0  0  0  0  0  0
    7.1610    1.0000   24.3670 C   0  0  0  0  0  0  0  0  0  0  0  0
    5.1530    1.9630   22.5920 C   0  0  0  0  0  0  0  0  0  0  0  0
    7.0810    2.1680   23.4800 N   0  0  0  0  0  0  0  0  0  0  0  0
    6.1290    2.7310   22.5630 C   0  0  0  0  0  0  0  0  0  0  0  0
  1  2  1  0
  3  2  1  0
  3  4  2  0
  3  5  2  0
  3  6  1  0
  6  7  2  0
  6  8  1  0
  7  9  1  0
  8 10  2  0
  9 11  2  0
 10 11  1  0
 10 12  1  0
 12 13  1  0
 12 14  1  0
 13 15  1  0
 14 16  2  0
 14 17  1  0
 15 18  1  0
 17 19  1  0
 18 20  1  0
 18 21  1  0
 20 21  1  0
 19 22  2  0
 19 23  1  0
 22 24  1  0
 23 25  2  0
 24 26  2  0
 25 26  1  0
M  END
