JOR-UNI-61e7b1d5-17-bromoalkyne
     RDKit          3D

 29 31  0  0  0  0  0  0  0  0999 V2000
    8.0450   -3.2410   19.9980 C   0  0  0  0  0  0  0  0  0  0  0  0
    7.6100   -2.5330   18.6970 C   0  0  0  0  0  0  0  0  0  0  0  0
    8.8390   -2.3340   21.3210 C   0  0  0  0  0  0  0  0  0  0  0  0
   10.3200   -2.0310   21.9740 C   0  0  0  0  0  0  0  0  0  0  0  0
   10.0740   -2.4800   21.3920 C   0  0  0  0  0  0  0  0  0  0  0  0
   11.0760   -1.3000   23.0040 N   0  0  0  0  0  0  0  0  0  0  0  0
    9.3310   -1.5430   22.4200 C   0  0  0  0  0  0  0  0  0  0  0  0
   10.0000   -0.8510   23.4140 C   0  0  0  0  0  0  0  0  0  0  0  0
    8.0190   -1.4520   22.2780 N   0  0  0  0  0  0  0  0  0  0  0  0
    9.7140    0.0180   24.4830 N   0  0  0  0  0  0  0  0  0  0  0  0
    7.1580   -1.7730   23.3290 C   0  0  0  0  0  0  0  0  0  0  0  0
    7.6380   -0.3990   21.3930 C   0  0  0  0  0  0  0  0  0  0  0  0
    8.6930   -0.0910   25.4700 C   0  0  0  0  0  0  0  0  0  0  0  0
    6.1020   -2.6070   22.9560 C   0  0  0  0  0  0  0  0  0  0  0  0
    8.2870    0.6450   21.2220 O   0  0  0  0  0  0  0  0  0  0  0  0
    6.5140   -0.6820   20.7680 N   0  0  0  0  0  0  0  0  0  0  0  0
    9.0180   -0.4480   26.9060 C   0  0  0  0  0  0  0  0  0  0  0  0
    6.0750   -3.8660   23.5100 N   0  0  0  0  0  0  0  0  0  0  0  0
    6.0120    0.1420   19.7310 C   0  0  0  0  0  0  0  0  0  0  0  0
    5.1950   -4.9550   23.2960 C   0  0  0  0  0  0  0  0  0  0  0  0
    7.3690   -4.2450   23.8140 C   0  0  0  0  0  0  0  0  0  0  0  0
    4.7950    0.7680   19.9170 C   0  0  0  0  0  0  0  0  0  0  0  0
    6.6550    0.3720   18.5440 C   0  0  0  0  0  0  0  0  0  0  0  0
    5.7710   -6.3120   22.8740 C   0  0  0  0  0  0  0  0  0  0  0  0
    7.3700   -5.5900   24.1170 C   0  0  0  0  0  0  0  0  0  0  0  0
    4.2390    1.5920   18.9720 C   0  0  0  0  0  0  0  0  0  0  0  0
    6.1560    1.1710   17.5870 N   0  0  0  0  0  0  0  0  0  0  0  0
    7.1660   -6.3470   23.1670 O   0  0  0  0  0  0  0  0  0  0  0  0
    4.9750    1.7620   17.8120 C   0  0  0  0  0  0  0  0  0  0  0  0
  1  2  2  3
  1  3  1  0
  3  4  2  0
  3  5  1  0
  4  6  1  0
  5  7  2  0
  6  8  2  0
  7  8  1  0
  7  9  1  0
  8 10  1  0
  9 11  1  0
  9 12  1  0
 10 13  1  0
 11 14  1  0
 12 15  2  0
 12 16  1  0
 13 17  1  0
 14 18  1  0
 16 19  1  0
 18 20  1  0
 18 21  1  0
 19 22  2  0
 19 23  1  0
 20 24  1  0
 21 25  1  0
 22 26  1  0
 23 27  2  0
 24 28  1  0
 25 28  1  0
 26 29  2  0
 27 29  1  0
M  END
