JOR-UNI-2fc98d0b-14
     RDKit          3D

 25 27  0  0  0  0  0  0  0  0999 V2000
    7.6180   -1.1590   28.7420 C   0  0  0  0  0  0  0  0  0  0  0  0
    6.8880   -0.4780   27.6510 C   0  0  0  0  0  0  0  0  0  0  0  0
    7.9150    0.1900   26.7220 C   0  0  0  0  0  0  0  0  0  0  0  0
    5.9520   -1.4130   26.8740 C   0  0  0  0  0  0  0  0  0  0  0  0
    7.3250    0.4800   25.3370 C   0  0  0  0  0  0  0  0  0  0  0  0
    6.5560   -1.9130   25.5500 C   0  0  0  0  0  0  0  0  0  0  0  0
    7.1140   -0.8360   24.7160 N   0  0  0  0  0  0  0  0  0  0  0  0
    7.7390   -1.3260   23.4540 C   0  0  0  0  0  0  0  0  0  0  0  0
    8.5700   -0.2780   22.8360 N   0  0  0  0  0  0  0  0  0  0  0  0
    8.1720    0.3220   21.6450 C   0  0  0  0  0  0  0  0  0  0  0  0
    9.9580   -0.6170   22.9950 C   0  0  0  0  0  0  0  0  0  0  0  0
    8.8100    1.4200   21.1250 O   0  0  0  0  0  0  0  0  0  0  0  0
    7.0830   -0.2990   21.0640 N   0  0  0  0  0  0  0  0  0  0  0  0
   10.6190   -1.1270   21.7540 C   0  0  0  0  0  0  0  0  0  0  0  0
   10.7130   -0.5190   24.1460 C   0  0  0  0  0  0  0  0  0  0  0  0
    6.4240    0.1800   20.0450 C   0  0  0  0  0  0  0  0  0  0  0  0
   12.0880   -1.5170   21.7740 C   0  0  0  0  0  0  0  0  0  0  0  0
   12.0650   -0.8980   24.1250 C   0  0  0  0  0  0  0  0  0  0  0  0
    5.1730    0.8640   20.4320 C   0  0  0  0  0  0  0  0  0  0  0  0
    6.8810    0.0610   18.6960 C   0  0  0  0  0  0  0  0  0  0  0  0
   12.8090   -1.3690   23.0670 C   0  0  0  0  0  0  0  0  0  0  0  0
   12.9530   -0.8270   25.4860 Cl  0  0  0  0  0  0  0  0  0  0  0  0
    4.5110    1.3730   19.3590 C   0  0  0  0  0  0  0  0  0  0  0  0
    6.2220    0.5830   17.5250 N   0  0  0  0  0  0  0  0  0  0  0  0
    5.1540    1.1280   18.2260 C   0  0  0  0  0  0  0  0  0  0  0  0
  1  2  1  0
  2  3  1  0
  2  4  1  0
  3  5  1  0
  4  6  1  0
  5  7  1  0
  6  7  1  0
  7  8  1  0
  8  9  1  0
  9 10  1  0
  9 11  1  0
 10 12  2  0
 10 13  1  0
 11 14  2  0
 11 15  1  0
 13 16  1  0
 14 17  1  0
 15 18  2  0
 16 19  2  0
 16 20  1  0
 17 21  2  0
 18 21  1  0
 18 22  1  0
 19 23  1  0
 20 24  2  0
 23 25  2  0
 24 25  1  0
M  END
