JOR-UNI-61e7b1d5-17-vinylsulfonamide
     RDKit          3D

 32 34  0  0  0  0  0  0  0  0999 V2000
    7.4910   -3.4720   19.5430 C   0  0  0  0  0  0  0  0  0  0  0  0
    7.1000   -4.2220   20.7850 C   0  0  0  0  0  0  0  0  0  0  0  0
    6.2420   -2.9670   21.5420 S   0  0  0  0  0  0  0  0  0  0  0  0
    4.8260   -3.5330   21.9070 O   0  0  0  0  0  0  0  0  0  0  0  0
    6.0400   -2.0860   20.4140 O   0  0  0  0  0  0  0  0  0  0  0  0
    7.6310   -1.8960   22.3570 C   0  0  0  0  0  0  0  0  0  0  0  0
    8.3540   -1.2760   23.3440 C   0  0  0  0  0  0  0  0  0  0  0  0
    8.6570   -1.1820   21.8230 C   0  0  0  0  0  0  0  0  0  0  0  0
    7.9110   -1.5240   24.5040 N   0  0  0  0  0  0  0  0  0  0  0  0
    9.3320   -0.4320   22.9180 C   0  0  0  0  0  0  0  0  0  0  0  0
    8.9790   -0.5690   24.3780 C   0  0  0  0  0  0  0  0  0  0  0  0
   10.1430    0.3130   22.2480 N   0  0  0  0  0  0  0  0  0  0  0  0
    9.5060    0.1040   25.4740 N   0  0  0  0  0  0  0  0  0  0  0  0
   11.1610    1.0770   22.8430 C   0  0  0  0  0  0  0  0  0  0  0  0
    9.0910    1.0310   21.4420 C   0  0  0  0  0  0  0  0  0  0  0  0
    8.9560   -0.0540   26.7510 C   0  0  0  0  0  0  0  0  0  0  0  0
   11.9170    0.4980   23.8350 C   0  0  0  0  0  0  0  0  0  0  0  0
    9.2110    2.1910   21.1260 O   0  0  0  0  0  0  0  0  0  0  0  0
    7.9410    0.3090   21.1100 N   0  0  0  0  0  0  0  0  0  0  0  0
    8.1600    1.0050   27.4470 C   0  0  0  0  0  0  0  0  0  0  0  0
   12.4490   -0.7260   23.5800 N   0  0  0  0  0  0  0  0  0  0  0  0
    7.0060    0.4480   19.9520 C   0  0  0  0  0  0  0  0  0  0  0  0
   11.9490   -1.7230   22.7350 C   0  0  0  0  0  0  0  0  0  0  0  0
   12.6160   -1.2790   24.8360 C   0  0  0  0  0  0  0  0  0  0  0  0
    5.8930    1.4720   20.1160 C   0  0  0  0  0  0  0  0  0  0  0  0
    7.1060   -0.3240   18.7220 C   0  0  0  0  0  0  0  0  0  0  0  0
   11.3130   -2.8330   23.5360 C   0  0  0  0  0  0  0  0  0  0  0  0
   13.0450   -2.6000   24.7300 C   0  0  0  0  0  0  0  0  0  0  0  0
    4.8850    1.7650   19.0960 C   0  0  0  0  0  0  0  0  0  0  0  0
    6.1720    0.4950   18.7580 N   0  0  0  0  0  0  0  0  0  0  0  0
   12.1290   -3.3720   24.4840 O   0  0  0  0  0  0  0  0  0  0  0  0
    5.2020    0.9660   18.1130 C   0  0  0  0  0  0  0  0  0  0  0  0
  1  2  1  0
  3  2  1  0
  3  4  2  0
  3  5  2  0
  3  6  1  0
  6  7  2  0
  6  8  1  0
  7  9  1  0
  8 10  2  0
  9 11  2  0
 10 11  1  0
 10 12  1  0
 11 13  1  0
 12 14  1  0
 12 15  1  0
 13 16  1  0
 14 17  1  0
 15 18  2  0
 15 19  1  0
 16 20  1  0
 17 21  1  0
 19 22  1  0
 21 23  1  0
 21 24  1  0
 22 25  2  0
 22 26  1  0
 23 27  1  0
 24 28  1  0
 25 29  1  0
 26 30  2  0
 27 31  1  0
 28 31  1  0
 29 32  2  0
 30 32  1  0
M  END
