JOR-UNI-61e7b1d5-19-bromoalkyne
     RDKit          3D

 29 31  0  0  0  0  0  0  0  0999 V2000
    7.8750   -3.2720   20.0590 C   0  0  0  0  0  0  0  0  0  0  0  0
    7.5330   -2.6150   18.6940 C   0  0  0  0  0  0  0  0  0  0  0  0
    9.3100   -2.9530   20.8790 C   0  0  0  0  0  0  0  0  0  0  0  0
    9.5920   -2.0510   22.0170 C   0  0  0  0  0  0  0  0  0  0  0  0
    9.8130   -2.1880   21.9250 C   0  0  0  0  0  0  0  0  0  0  0  0
   10.7930   -1.5910   22.8980 N   0  0  0  0  0  0  0  0  0  0  0  0
    9.2050   -1.1990   22.9130 C   0  0  0  0  0  0  0  0  0  0  0  0
   10.1100   -0.8100   23.7060 C   0  0  0  0  0  0  0  0  0  0  0  0
    7.9090   -0.9250   22.8100 N   0  0  0  0  0  0  0  0  0  0  0  0
   10.2340    0.0060   24.8250 N   0  0  0  0  0  0  0  0  0  0  0  0
    6.9780   -1.8600   23.2680 C   0  0  0  0  0  0  0  0  0  0  0  0
    7.6610   -0.2830   21.6740 C   0  0  0  0  0  0  0  0  0  0  0  0
    9.6490   -0.3910   26.0650 C   0  0  0  0  0  0  0  0  0  0  0  0
    7.2030   -2.2370   24.5990 C   0  0  0  0  0  0  0  0  0  0  0  0
    8.3480    0.6930   21.3410 O   0  0  0  0  0  0  0  0  0  0  0  0
    6.6760   -0.7290   20.8900 N   0  0  0  0  0  0  0  0  0  0  0  0
    8.2900    0.1000   26.5000 C   0  0  0  0  0  0  0  0  0  0  0  0
    7.2910   -3.5940   24.9370 C   0  0  0  0  0  0  0  0  0  0  0  0
    6.1140    0.0010   19.9490 C   0  0  0  0  0  0  0  0  0  0  0  0
    6.5390   -4.0100   26.2040 C   0  0  0  0  0  0  0  0  0  0  0  0
    8.6250   -3.9990   24.9060 C   0  0  0  0  0  0  0  0  0  0  0  0
    4.9430    0.7120   20.1140 C   0  0  0  0  0  0  0  0  0  0  0  0
    6.7470    0.0610   18.7210 C   0  0  0  0  0  0  0  0  0  0  0  0
    7.4530   -4.3500   27.3930 C   0  0  0  0  0  0  0  0  0  0  0  0
    8.8960   -5.2480   25.5130 C   0  0  0  0  0  0  0  0  0  0  0  0
    4.4440    1.5020   18.9550 C   0  0  0  0  0  0  0  0  0  0  0  0
    6.3220    0.7640   17.6550 N   0  0  0  0  0  0  0  0  0  0  0  0
    8.4500   -5.3880   26.8520 C   0  0  0  0  0  0  0  0  0  0  0  0
    5.1850    1.4730   17.7860 C   0  0  0  0  0  0  0  0  0  0  0  0
  1  2  2  3
  1  3  1  0
  3  4  2  0
  3  5  1  0
  4  6  1  0
  5  7  2  0
  6  8  2  0
  7  8  1  0
  7  9  1  0
  8 10  1  0
  9 11  1  0
  9 12  1  0
 10 13  1  0
 11 14  1  0
 12 15  2  0
 12 16  1  0
 13 17  1  0
 14 18  1  0
 16 19  1  0
 18 20  1  0
 18 21  1  0
 19 22  2  0
 19 23  1  0
 20 24  1  0
 21 25  1  0
 22 26  1  0
 23 27  2  0
 24 28  1  0
 25 28  1  0
 26 29  2  0
 27 29  1  0
M  END
