JOR-UNI-61e7b1d5-18-bromoalkyne
     RDKit          3D

 26 28  0  0  0  0  0  0  0  0999 V2000
    7.5400   -3.1650   19.7280 C   0  0  0  0  0  0  0  0  0  0  0  0
    6.0600   -3.2050   19.2280 C   0  0  0  0  0  0  0  0  0  0  0  0
    7.7300   -2.6440   21.2320 C   0  0  0  0  0  0  0  0  0  0  0  0
    9.1650   -2.6740   21.4270 C   0  0  0  0  0  0  0  0  0  0  0  0
    8.2480   -2.2480   22.4590 C   0  0  0  0  0  0  0  0  0  0  0  0
    9.7560   -2.2930   22.6670 C   0  0  0  0  0  0  0  0  0  0  0  0
    7.5760   -1.7840   23.5820 C   0  0  0  0  0  0  0  0  0  0  0  0
    8.9250   -1.8200   23.8680 C   0  0  0  0  0  0  0  0  0  0  0  0
    6.4080   -1.9130   22.8320 N   0  0  0  0  0  0  0  0  0  0  0  0
    5.4560   -2.9170   22.9120 C   0  0  0  0  0  0  0  0  0  0  0  0
    6.1730   -0.7920   22.0060 C   0  0  0  0  0  0  0  0  0  0  0  0
    5.0900   -3.0910   24.2520 C   0  0  0  0  0  0  0  0  0  0  0  0
    6.5610    0.3440   22.2890 O   0  0  0  0  0  0  0  0  0  0  0  0
    5.4940   -1.0660   20.8460 N   0  0  0  0  0  0  0  0  0  0  0  0
    4.6520   -4.3710   24.5970 C   0  0  0  0  0  0  0  0  0  0  0  0
    5.2870   -0.1290   19.8310 C   0  0  0  0  0  0  0  0  0  0  0  0
    5.6930   -5.2020   25.0080 C   0  0  0  0  0  0  0  0  0  0  0  0
    4.0130   -5.0310   23.3620 C   0  0  0  0  0  0  0  0  0  0  0  0
    4.2680    0.8290   19.8590 C   0  0  0  0  0  0  0  0  0  0  0  0
    6.1590   -0.1530   18.7300 C   0  0  0  0  0  0  0  0  0  0  0  0
    6.6560   -5.4930   23.8510 C   0  0  0  0  0  0  0  0  0  0  0  0
    4.5430   -6.3240   23.1480 C   0  0  0  0  0  0  0  0  0  0  0  0
    4.1550    1.7130   18.8160 C   0  0  0  0  0  0  0  0  0  0  0  0
    6.1110    0.6830   17.6650 N   0  0  0  0  0  0  0  0  0  0  0  0
    5.8720   -6.2090   22.7500 C   0  0  0  0  0  0  0  0  0  0  0  0
    5.1320    1.6000   17.7020 C   0  0  0  0  0  0  0  0  0  0  0  0
  1  2  2  3
  1  3  1  0
  3  4  2  0
  3  5  1  0
  4  6  1  0
  5  7  2  0
  6  8  2  0
  7  8  1  0
  7  9  1  0
  9 10  1  0
  9 11  1  0
 10 12  1  0
 11 13  2  0
 11 14  1  0
 12 15  1  0
 14 16  1  0
 15 17  1  0
 15 18  1  0
 16 19  2  0
 16 20  1  0
 17 21  1  0
 18 22  1  0
 19 23  1  0
 20 24  2  0
 21 25  1  0
 22 25  1  0
 23 26  2  0
 24 26  1  0
M  END
