JOR-UNI-61e7b1d5-13-bromoalkyne
     RDKit          3D

 28 30  0  0  0  0  0  0  0  0999 V2000
    7.4960   -3.7040   20.0340 C   0  0  0  0  0  0  0  0  0  0  0  0
    5.9900   -4.1090   19.9180 C   0  0  0  0  0  0  0  0  0  0  0  0
    7.9930   -2.4620   20.9000 C   0  0  0  0  0  0  0  0  0  0  0  0
    7.9840   -1.0640   21.2490 C   0  0  0  0  0  0  0  0  0  0  0  0
    7.2220   -1.4070   20.3280 C   0  0  0  0  0  0  0  0  0  0  0  0
    7.3820   -1.8440   20.4270 N   0  0  0  0  0  0  0  0  0  0  0  0
    8.1590   -1.1650   21.3750 C   0  0  0  0  0  0  0  0  0  0  0  0
    8.3560   -2.5540   21.3370 C   0  0  0  0  0  0  0  0  0  0  0  0
    8.5520    0.0660   22.0170 N   0  0  0  0  0  0  0  0  0  0  0  0
    9.2790   -2.4090   22.3590 N   0  0  0  0  0  0  0  0  0  0  0  0
    9.7970    0.2380   22.7020 C   0  0  0  0  0  0  0  0  0  0  0  0
    8.0140    1.1920   21.5870 C   0  0  0  0  0  0  0  0  0  0  0  0
    9.0730   -2.6980   23.7130 C   0  0  0  0  0  0  0  0  0  0  0  0
   10.3160    1.5950   22.7470 N   0  0  0  0  0  0  0  0  0  0  0  0
    8.7520    2.3520   21.2050 O   0  0  0  0  0  0  0  0  0  0  0  0
    6.6600    1.1430   21.4690 N   0  0  0  0  0  0  0  0  0  0  0  0
    8.1430   -1.8160   24.5080 C   0  0  0  0  0  0  0  0  0  0  0  0
   11.6580    2.0450   22.7750 C   0  0  0  0  0  0  0  0  0  0  0  0
    9.4380    2.5660   23.1190 C   0  0  0  0  0  0  0  0  0  0  0  0
    6.1160    1.3550   20.2250 C   0  0  0  0  0  0  0  0  0  0  0  0
   11.9700    3.3700   22.5100 C   0  0  0  0  0  0  0  0  0  0  0  0
   10.0860    3.7600   23.5320 C   0  0  0  0  0  0  0  0  0  0  0  0
    4.9820    2.2990   20.0360 C   0  0  0  0  0  0  0  0  0  0  0  0
    6.5740    0.7190   18.9660 C   0  0  0  0  0  0  0  0  0  0  0  0
   10.9770    4.2710   22.6720 N   0  0  0  0  0  0  0  0  0  0  0  0
    4.4920    2.5020   18.7740 C   0  0  0  0  0  0  0  0  0  0  0  0
    6.0370    0.9670   17.7470 N   0  0  0  0  0  0  0  0  0  0  0  0
    5.0150    1.8550   17.6630 C   0  0  0  0  0  0  0  0  0  0  0  0
  1  2  2  3
  1  3  1  0
  3  4  2  0
  3  5  1  0
  4  6  1  0
  5  7  2  0
  6  8  2  0
  7  8  1  0
  7  9  1  0
  8 10  1  0
  9 11  1  0
  9 12  1  0
 10 13  1  0
 11 14  1  0
 12 15  2  0
 12 16  1  0
 13 17  1  0
 14 18  1  0
 14 19  1  0
 16 20  1  0
 18 21  1  0
 19 22  1  0
 20 23  2  0
 20 24  1  0
 21 25  1  0
 22 25  1  0
 23 26  1  0
 24 27  2  0
 26 28  2  0
 27 28  1  0
M  END
