JOR-UNI-2fc98d0b-11
     RDKit          3D

 26 28  0  0  0  0  0  0  0  0999 V2000
    9.2690   -5.8300   24.7100 C   0  0  0  0  0  0  0  0  0  0  0  0
    7.9510   -5.5830   24.4080 N   0  0  0  0  0  0  0  0  0  0  0  0
    6.9940   -5.0220   25.2590 C   0  0  0  0  0  0  0  0  0  0  0  0
    7.9150   -5.1340   23.0450 C   0  0  0  0  0  0  0  0  0  0  0  0
    6.4510   -3.6010   24.9990 C   0  0  0  0  0  0  0  0  0  0  0  0
    7.9440   -3.6140   23.1210 C   0  0  0  0  0  0  0  0  0  0  0  0
    6.7250   -3.0700   23.7380 N   0  0  0  0  0  0  0  0  0  0  0  0
    6.5420   -1.6710   23.3370 C   0  0  0  0  0  0  0  0  0  0  0  0
    7.6790   -0.7430   23.8040 C   0  0  0  0  0  0  0  0  0  0  0  0
    8.5980   -0.2950   22.8500 N   0  0  0  0  0  0  0  0  0  0  0  0
    8.1280    0.2610   21.5970 C   0  0  0  0  0  0  0  0  0  0  0  0
    9.9880   -0.6100   23.0080 C   0  0  0  0  0  0  0  0  0  0  0  0
    8.7060    1.3940   21.0820 O   0  0  0  0  0  0  0  0  0  0  0  0
    7.0410   -0.4850   20.9670 N   0  0  0  0  0  0  0  0  0  0  0  0
   10.6490   -1.0710   21.7630 C   0  0  0  0  0  0  0  0  0  0  0  0
   10.6890   -0.5130   24.1920 C   0  0  0  0  0  0  0  0  0  0  0  0
    6.4130    0.1270   20.0140 C   0  0  0  0  0  0  0  0  0  0  0  0
   12.1190   -1.4290   21.7980 C   0  0  0  0  0  0  0  0  0  0  0  0
   12.0530   -0.8670   24.1750 C   0  0  0  0  0  0  0  0  0  0  0  0
    5.2120    0.8640   20.2730 C   0  0  0  0  0  0  0  0  0  0  0  0
    6.9180    0.0700   18.7300 C   0  0  0  0  0  0  0  0  0  0  0  0
   12.8170   -1.2980   23.1080 C   0  0  0  0  0  0  0  0  0  0  0  0
   12.9420   -0.8240   25.5360 Cl  0  0  0  0  0  0  0  0  0  0  0  0
    4.6460    1.4810   19.1930 C   0  0  0  0  0  0  0  0  0  0  0  0
    6.3860    0.6680   17.6470 N   0  0  0  0  0  0  0  0  0  0  0  0
    5.1700    1.4200   17.9250 C   0  0  0  0  0  0  0  0  0  0  0  0
  1  2  1  0
  2  3  1  0
  2  4  1  0
  3  5  1  0
  4  6  1  0
  5  7  1  0
  6  7  1  0
  7  8  1  0
  8  9  1  0
  9 10  1  0
 10 11  1  0
 10 12  1  0
 11 13  2  0
 11 14  1  0
 12 15  2  0
 12 16  1  0
 14 17  1  0
 15 18  1  0
 16 19  2  0
 17 20  2  0
 17 21  1  0
 18 22  2  0
 19 22  1  0
 19 23  1  0
 20 24  1  0
 21 25  2  0
 24 26  2  0
 25 26  1  0
M  END
