JOR-UNI-61e7b1d5-12-acrylamide
     RDKit          3D

 27 29  0  0  0  0  0  0  0  0999 V2000
    8.1600   -3.7220   20.1070 C   0  0  0  0  0  0  0  0  0  0  0  0
    6.8730   -4.4050   20.6180 C   0  0  0  0  0  0  0  0  0  0  0  0
    6.1560   -3.6590   21.7190 C   0  0  0  0  0  0  0  0  0  0  0  0
    4.9090   -3.7140   21.8220 O   0  0  0  0  0  0  0  0  0  0  0  0
    6.9950   -2.8550   22.6970 C   0  0  0  0  0  0  0  0  0  0  0  0
    8.2430   -2.5410   23.7660 C   0  0  0  0  0  0  0  0  0  0  0  0
    7.6840   -3.9830   22.7300 C   0  0  0  0  0  0  0  0  0  0  0  0
    8.5230   -1.0950   24.6020 C   0  0  0  0  0  0  0  0  0  0  0  0
    8.2240   -3.2030   23.4690 C   0  0  0  0  0  0  0  0  0  0  0  0
    7.8380   -1.7980   23.7910 C   0  0  0  0  0  0  0  0  0  0  0  0
    7.0810   -2.4480   22.9610 N   0  0  0  0  0  0  0  0  0  0  0  0
    6.0090   -2.4550   23.9550 C   0  0  0  0  0  0  0  0  0  0  0  0
    7.2670   -1.2640   22.1540 C   0  0  0  0  0  0  0  0  0  0  0  0
    6.1860   -3.4080   24.9730 N   0  0  0  0  0  0  0  0  0  0  0  0
    8.3800   -0.8350   21.8290 O   0  0  0  0  0  0  0  0  0  0  0  0
    6.1060   -0.6530   21.7930 N   0  0  0  0  0  0  0  0  0  0  0  0
    5.8090   -4.7780   24.9370 C   0  0  0  0  0  0  0  0  0  0  0  0
    5.9690   -2.8610   26.3370 C   0  0  0  0  0  0  0  0  0  0  0  0
    5.8700   -0.0440   20.4790 C   0  0  0  0  0  0  0  0  0  0  0  0
    5.3490   -5.3740   26.1120 C   0  0  0  0  0  0  0  0  0  0  0  0
    4.7260   -3.2630   26.8400 C   0  0  0  0  0  0  0  0  0  0  0  0
    4.6900    0.8900   20.3750 C   0  0  0  0  0  0  0  0  0  0  0  0
    6.6270   -0.2060   19.2100 C   0  0  0  0  0  0  0  0  0  0  0  0
    4.6070   -4.6050   26.8740 N   0  0  0  0  0  0  0  0  0  0  0  0
    4.4070    1.5080   19.1580 C   0  0  0  0  0  0  0  0  0  0  0  0
    6.2920    0.4340   18.0440 N   0  0  0  0  0  0  0  0  0  0  0  0
    5.1980    1.2750   18.0340 C   0  0  0  0  0  0  0  0  0  0  0  0
  1  2  1  0
  2  3  1  0
  3  4  2  0
  3  5  1  0
  5  6  2  0
  5  7  1  0
  6  8  1  0
  7  9  2  0
  8 10  2  0
  9 10  1  0
  9 11  1  0
 11 12  1  0
 11 13  1  0
 12 14  1  0
 13 15  2  0
 13 16  1  0
 14 17  1  0
 14 18  1  0
 16 19  1  0
 17 20  1  0
 18 21  1  0
 19 22  2  0
 19 23  1  0
 20 24  1  0
 21 24  1  0
 22 25  1  0
 23 26  2  0
 25 27  2  0
 26 27  1  0
M  END
