JOR-UNI-61e7b1d5-26-chloroacetamide
     RDKit          3D

 27 29  0  0  0  0  0  0  0  0999 V2000
    6.5220   -5.7700   19.8950 C   0  0  0  0  0  0  0  0  0  0  0  0
    6.2950   -4.2940   19.6460 C   0  0  0  0  0  0  0  0  0  0  0  0
    5.4820   -3.7990   18.8640 O   0  0  0  0  0  0  0  0  0  0  0  0
    7.1710   -3.4280   20.4600 C   0  0  0  0  0  0  0  0  0  0  0  0
    8.5000   -3.3100   20.2880 C   0  0  0  0  0  0  0  0  0  0  0  0
    6.6850   -2.6890   21.4710 C   0  0  0  0  0  0  0  0  0  0  0  0
    9.2590   -2.4830   21.1090 C   0  0  0  0  0  0  0  0  0  0  0  0
    7.4520   -1.8510   22.2980 C   0  0  0  0  0  0  0  0  0  0  0  0
    8.8750   -1.5590   22.3120 C   0  0  0  0  0  0  0  0  0  0  0  0
    6.6610   -1.2120   23.2690 N   0  0  0  0  0  0  0  0  0  0  0  0
    6.1710   -1.9080   24.3770 C   0  0  0  0  0  0  0  0  0  0  0  0
    6.2130    0.1050   22.9910 C   0  0  0  0  0  0  0  0  0  0  0  0
    7.1430   -2.8580   24.7490 C   0  0  0  0  0  0  0  0  0  0  0  0
    5.3180    0.6610   23.6280 O   0  0  0  0  0  0  0  0  0  0  0  0
    6.8810    0.6980   21.9600 N   0  0  0  0  0  0  0  0  0  0  0  0
    6.6830   -4.1930   24.8350 N   0  0  0  0  0  0  0  0  0  0  0  0
    6.2820    1.0170   20.6520 C   0  0  0  0  0  0  0  0  0  0  0  0
    7.3920   -5.2960   25.3780 C   0  0  0  0  0  0  0  0  0  0  0  0
    5.8210   -4.6520   23.6970 C   0  0  0  0  0  0  0  0  0  0  0  0
    5.2790    2.1490   20.6120 C   0  0  0  0  0  0  0  0  0  0  0  0
    6.5220    0.3810   19.3350 C   0  0  0  0  0  0  0  0  0  0  0  0
    7.1070   -6.5760   24.9000 C   0  0  0  0  0  0  0  0  0  0  0  0
    6.4770   -5.6090   22.9050 C   0  0  0  0  0  0  0  0  0  0  0  0
    4.6860    2.4950   19.3890 C   0  0  0  0  0  0  0  0  0  0  0  0
    5.8990    0.7740   18.1830 N   0  0  0  0  0  0  0  0  0  0  0  0
    6.8740   -6.6690   23.6180 N   0  0  0  0  0  0  0  0  0  0  0  0
    4.9960    1.8070   18.2130 C   0  0  0  0  0  0  0  0  0  0  0  0
  1  2  1  0
  2  3  2  0
  2  4  1  0
  4  5  2  0
  4  6  1  0
  5  7  1  0
  6  8  2  0
  7  9  2  0
  8  9  1  0
  8 10  1  0
 10 11  1  0
 10 12  1  0
 11 13  1  0
 12 14  2  0
 12 15  1  0
 13 16  1  0
 15 17  1  0
 16 18  1  0
 16 19  1  0
 17 20  2  0
 17 21  1  0
 18 22  1  0
 19 23  1  0
 20 24  1  0
 21 25  2  0
 22 26  1  0
 23 26  1  0
 24 27  2  0
 25 27  1  0
M  END
