JOR-UNI-61e7b1d5-6-acrylamide
     RDKit          3D

 31 33  0  0  0  0  0  0  0  0999 V2000
    6.1310   -4.3620   19.8940 C   0  0  0  0  0  0  0  0  0  0  0  0
    6.4990   -3.4750   21.0680 C   0  0  0  0  0  0  0  0  0  0  0  0
    5.7600   -3.9020   22.3470 C   0  0  0  0  0  0  0  0  0  0  0  0
    4.5180   -4.0200   22.3510 O   0  0  0  0  0  0  0  0  0  0  0  0
    6.6340   -4.3000   23.5400 C   0  0  0  0  0  0  0  0  0  0  0  0
    7.2810   -5.2610   24.2860 C   0  0  0  0  0  0  0  0  0  0  0  0
    6.2330   -5.1930   22.8340 C   0  0  0  0  0  0  0  0  0  0  0  0
    7.4310   -4.0800   24.7120 N   0  0  0  0  0  0  0  0  0  0  0  0
    5.8490   -3.7760   22.6050 C   0  0  0  0  0  0  0  0  0  0  0  0
    6.6810   -3.3230   23.8260 C   0  0  0  0  0  0  0  0  0  0  0  0
    5.7180   -2.3870   22.7170 N   0  0  0  0  0  0  0  0  0  0  0  0
    6.6890   -1.9640   24.0990 N   0  0  0  0  0  0  0  0  0  0  0  0
    4.5450   -1.9440   23.3040 C   0  0  0  0  0  0  0  0  0  0  0  0
    6.3910   -1.3830   21.9330 C   0  0  0  0  0  0  0  0  0  0  0  0
    7.9780   -1.5170   24.1690 C   0  0  0  0  0  0  0  0  0  0  0  0
    4.2690   -2.1340   24.6430 N   0  0  0  0  0  0  0  0  0  0  0  0
    7.5650   -1.5270   21.5670 O   0  0  0  0  0  0  0  0  0  0  0  0
    5.6650   -0.2440   21.6260 N   0  0  0  0  0  0  0  0  0  0  0  0
    8.0800   -0.6090   25.2280 C   0  0  0  0  0  0  0  0  0  0  0  0
    3.6310   -3.2100   25.2970 C   0  0  0  0  0  0  0  0  0  0  0  0
    4.0500   -0.8510   25.3260 C   0  0  0  0  0  0  0  0  0  0  0  0
    5.7730    0.1960   20.3520 C   0  0  0  0  0  0  0  0  0  0  0  0
    2.4300   -2.8850   26.1880 C   0  0  0  0  0  0  0  0  0  0  0  0
    3.7670   -0.9390   26.7090 C   0  0  0  0  0  0  0  0  0  0  0  0
    4.8620    0.7040   19.5410 C   0  0  0  0  0  0  0  0  0  0  0  0
    6.6030    0.3380   19.4340 C   0  0  0  0  0  0  0  0  0  0  0  0
    2.6880   -1.7060   27.1310 C   0  0  0  0  0  0  0  0  0  0  0  0
    6.1780    0.7150   18.6900 C   0  0  0  0  0  0  0  0  0  0  0  0
    5.2270    0.7980   19.0620 N   0  0  0  0  0  0  0  0  0  0  0  0
    1.6640   -1.0300   27.2320 O   0  0  0  0  0  0  0  0  0  0  0  0
    5.1870    1.2550   17.8410 C   0  0  0  0  0  0  0  0  0  0  0  0
  1  2  1  0
  2  3  1  0
  3  4  2  0
  3  5  1  0
  5  6  2  0
  5  7  1  0
  6  8  1  0
  7  9  2  0
  8 10  2  0
  9 10  1  0
  9 11  1  0
 10 12  1  0
 11 13  1  0
 11 14  1  0
 12 15  1  0
 13 16  1  0
 14 17  2  0
 14 18  1  0
 15 19  1  0
 16 20  1  0
 16 21  1  0
 18 22  1  0
 20 23  1  0
 21 24  1  0
 22 25  2  0
 22 26  1  0
 23 27  1  0
 24 27  1  0
 25 28  1  0
 26 29  2  0
 27 30  1  0
 28 31  2  0
 29 31  1  0
M  END
