JOR-UNI-61e7b1d5-3-chloroacetamide
     RDKit          3D

 26 28  0  0  0  0  0  0  0  0999 V2000
    7.4660   -2.9980   18.6340 C   0  0  0  0  0  0  0  0  0  0  0  0
    6.5120   -3.2280   19.7940 C   0  0  0  0  0  0  0  0  0  0  0  0
    5.8240   -4.2700   19.8870 O   0  0  0  0  0  0  0  0  0  0  0  0
    6.4440   -2.0200   20.7400 C   0  0  0  0  0  0  0  0  0  0  0  0
    7.4100   -1.3400   21.6890 C   0  0  0  0  0  0  0  0  0  0  0  0
    5.3680   -1.1900   20.9230 C   0  0  0  0  0  0  0  0  0  0  0  0
    8.3330   -2.2280   21.4320 C   0  0  0  0  0  0  0  0  0  0  0  0
    6.6470   -1.2120   21.4330 C   0  0  0  0  0  0  0  0  0  0  0  0
    7.0720   -2.4580   20.7330 C   0  0  0  0  0  0  0  0  0  0  0  0
    7.2930   -0.2830   22.3370 N   0  0  0  0  0  0  0  0  0  0  0  0
    7.8410   -0.5510   23.6080 C   0  0  0  0  0  0  0  0  0  0  0  0
    7.7050    0.9430   21.8020 C   0  0  0  0  0  0  0  0  0  0  0  0
    6.9290   -1.0340   24.4740 N   0  0  0  0  0  0  0  0  0  0  0  0
    8.8630    1.2020   21.4370 O   0  0  0  0  0  0  0  0  0  0  0  0
    6.6940    1.8140   21.6810 N   0  0  0  0  0  0  0  0  0  0  0  0
    6.7950   -2.3620   24.5730 C   0  0  0  0  0  0  0  0  0  0  0  0
    7.1490   -0.5340   25.7170 C   0  0  0  0  0  0  0  0  0  0  0  0
    6.1540    1.7580   20.4710 C   0  0  0  0  0  0  0  0  0  0  0  0
    6.0330   -2.7810   25.6580 C   0  0  0  0  0  0  0  0  0  0  0  0
    6.5590   -1.1200   26.8430 C   0  0  0  0  0  0  0  0  0  0  0  0
    5.0400    2.5100   20.1330 C   0  0  0  0  0  0  0  0  0  0  0  0
    6.7150    0.8860   19.4070 C   0  0  0  0  0  0  0  0  0  0  0  0
    6.4690   -2.3420   26.7220 O   0  0  0  0  0  0  0  0  0  0  0  0
    4.4930    2.3970   18.7530 C   0  0  0  0  0  0  0  0  0  0  0  0
    6.2440    0.7620   18.1430 N   0  0  0  0  0  0  0  0  0  0  0  0
    5.0810    1.5590   17.8160 C   0  0  0  0  0  0  0  0  0  0  0  0
  1  2  1  0
  2  3  2  0
  2  4  1  0
  4  5  2  0
  4  6  1  0
  5  7  1  0
  6  8  2  0
  7  9  2  0
  8  9  1  0
  8 10  1  0
 10 11  1  0
 10 12  1  0
 11 13  1  0
 12 14  2  0
 12 15  1  0
 13 16  1  0
 13 17  1  0
 15 18  1  0
 16 19  1  0
 17 20  1  0
 18 21  2  0
 18 22  1  0
 19 23  1  0
 20 23  1  0
 21 24  1  0
 22 25  2  0
 24 26  2  0
 25 26  1  0
M  END
