JOR-UNI-61e7b1d5-13-vinylsulfonamide
     RDKit          3D

 31 33  0  0  0  0  0  0  0  0999 V2000
    7.3950   -5.1770   20.7040 C   0  0  0  0  0  0  0  0  0  0  0  0
    7.6960   -3.9680   20.0590 C   0  0  0  0  0  0  0  0  0  0  0  0
    7.2500   -3.0030   21.2970 S   0  0  0  0  0  0  0  0  0  0  0  0
    5.3360   -3.6250   21.1720 O   0  0  0  0  0  0  0  0  0  0  0  0
    8.0350   -1.9140   20.5970 O   0  0  0  0  0  0  0  0  0  0  0  0
    8.9740   -3.1960   22.3980 C   0  0  0  0  0  0  0  0  0  0  0  0
   10.1070   -2.8840   23.2410 C   0  0  0  0  0  0  0  0  0  0  0  0
    8.8850   -1.8190   22.6170 C   0  0  0  0  0  0  0  0  0  0  0  0
    9.5140   -1.7400   23.1050 N   0  0  0  0  0  0  0  0  0  0  0  0
    8.8530   -0.4540   22.8780 C   0  0  0  0  0  0  0  0  0  0  0  0
    9.9470   -0.7600   23.8530 C   0  0  0  0  0  0  0  0  0  0  0  0
    8.8240    0.7910   23.1170 N   0  0  0  0  0  0  0  0  0  0  0  0
   10.0150    0.4450   24.3920 N   0  0  0  0  0  0  0  0  0  0  0  0
    7.9860    1.3700   24.0940 C   0  0  0  0  0  0  0  0  0  0  0  0
    8.5690    1.0560   21.8480 C   0  0  0  0  0  0  0  0  0  0  0  0
    9.7950    0.5080   25.8330 C   0  0  0  0  0  0  0  0  0  0  0  0
    6.6360    0.9090   24.0860 N   0  0  0  0  0  0  0  0  0  0  0  0
    9.2230    1.8490   21.1500 O   0  0  0  0  0  0  0  0  0  0  0  0
    7.5210    0.2800   21.3240 N   0  0  0  0  0  0  0  0  0  0  0  0
    8.6730   -0.1060   26.6830 C   0  0  0  0  0  0  0  0  0  0  0  0
    5.4960    1.7000   24.0420 C   0  0  0  0  0  0  0  0  0  0  0  0
    6.4540    0.0090   25.0690 C   0  0  0  0  0  0  0  0  0  0  0  0
    6.7540    0.5600   20.1870 C   0  0  0  0  0  0  0  0  0  0  0  0
    4.6860    1.8420   25.1670 C   0  0  0  0  0  0  0  0  0  0  0  0
    5.0760   -0.2620   25.2320 C   0  0  0  0  0  0  0  0  0  0  0  0
    5.8130    1.7520   20.1720 C   0  0  0  0  0  0  0  0  0  0  0  0
    6.7550   -0.1590   18.9320 C   0  0  0  0  0  0  0  0  0  0  0  0
    4.3980    0.7010   25.8270 N   0  0  0  0  0  0  0  0  0  0  0  0
    5.0620    2.0660   19.0490 C   0  0  0  0  0  0  0  0  0  0  0  0
    6.0170    0.1840   17.8730 N   0  0  0  0  0  0  0  0  0  0  0  0
    5.1810    1.2580   17.8900 C   0  0  0  0  0  0  0  0  0  0  0  0
  1  2  1  0
  3  2  1  0
  3  4  2  0
  3  5  2  0
  3  6  1  0
  6  7  2  0
  6  8  1  0
  7  9  1  0
  8 10  2  0
  9 11  2  0
 10 11  1  0
 10 12  1  0
 11 13  1  0
 12 14  1  0
 12 15  1  0
 13 16  1  0
 14 17  1  0
 15 18  2  0
 15 19  1  0
 16 20  1  0
 17 21  1  0
 17 22  1  0
 19 23  1  0
 21 24  1  0
 22 25  1  0
 23 26  2  0
 23 27  1  0
 24 28  1  0
 25 28  1  0
 26 29  1  0
 27 30  2  0
 29 31  2  0
 30 31  1  0
M  END
