JOR-UNI-61e7b1d5-14-vinylsulfonamide
     RDKit          3D

 29 31  0  0  0  0  0  0  0  0999 V2000
    5.8310   -5.7160   20.5690 C   0  0  0  0  0  0  0  0  0  0  0  0
    5.2060   -4.2890   20.7860 C   0  0  0  0  0  0  0  0  0  0  0  0
    4.2300   -4.2330   22.2960 S   0  0  0  0  0  0  0  0  0  0  0  0
    3.7040   -5.5480   22.4080 O   0  0  0  0  0  0  0  0  0  0  0  0
    4.6520   -3.2950   23.3540 O   0  0  0  0  0  0  0  0  0  0  0  0
    2.7000   -3.6690   21.8840 C   0  0  0  0  0  0  0  0  0  0  0  0
    1.5180   -3.1610   21.3680 C   0  0  0  0  0  0  0  0  0  0  0  0
    3.7210   -3.5730   20.9070 C   0  0  0  0  0  0  0  0  0  0  0  0
    1.6900   -3.7240   22.6610 C   0  0  0  0  0  0  0  0  0  0  0  0
    3.9700   -4.0690   22.2240 C   0  0  0  0  0  0  0  0  0  0  0  0
    2.7850   -3.5910   21.6020 C   0  0  0  0  0  0  0  0  0  0  0  0
    5.4120   -4.3350   22.1450 N   0  0  0  0  0  0  0  0  0  0  0  0
    6.0880   -5.2710   22.9540 C   0  0  0  0  0  0  0  0  0  0  0  0
    6.2430   -3.2440   21.6990 C   0  0  0  0  0  0  0  0  0  0  0  0
    6.2610   -4.7920   24.2310 N   0  0  0  0  0  0  0  0  0  0  0  0
    7.5110   -3.2990   21.7160 O   0  0  0  0  0  0  0  0  0  0  0  0
    5.4570   -2.1530   21.3300 N   0  0  0  0  0  0  0  0  0  0  0  0
    6.1860   -3.4600   24.5350 C   0  0  0  0  0  0  0  0  0  0  0  0
    5.9230   -5.7230   25.3430 C   0  0  0  0  0  0  0  0  0  0  0  0
    5.5330   -1.3180   20.0790 C   0  0  0  0  0  0  0  0  0  0  0  0
    5.1130   -3.1430   25.3470 C   0  0  0  0  0  0  0  0  0  0  0  0
    4.9680   -5.2250   26.2110 C   0  0  0  0  0  0  0  0  0  0  0  0
    4.4170   -0.3190   19.8170 C   0  0  0  0  0  0  0  0  0  0  0  0
    6.5630   -1.2550   19.0140 C   0  0  0  0  0  0  0  0  0  0  0  0
    4.3240   -4.1730   25.6550 N   0  0  0  0  0  0  0  0  0  0  0  0
    4.4140    0.5070   18.6920 C   0  0  0  0  0  0  0  0  0  0  0  0
    6.4780   -0.3830   17.9230 N   0  0  0  0  0  0  0  0  0  0  0  0
    3.1830   -3.7750   26.2550 C   0  0  0  0  0  0  0  0  0  0  0  0
    5.4100    0.4500   17.7360 C   0  0  0  0  0  0  0  0  0  0  0  0
  1  2  1  0
  3  2  1  0
  3  4  2  0
  3  5  2  0
  3  6  1  0
  6  7  2  0
  6  8  1  0
  7  9  1  0
  8 10  2  0
  9 11  2  0
 10 11  1  0
 10 12  1  0
 12 13  1  0
 12 14  1  0
 13 15  1  0
 14 16  2  0
 14 17  1  0
 15 18  1  0
 15 19  1  0
 17 20  1  0
 18 21  1  0
 19 22  1  0
 20 23  2  0
 20 24  1  0
 21 25  1  0
 22 25  1  0
 23 26  1  0
 24 27  2  0
 25 28  1  0
 26 29  2  0
 27 29  1  0
M  END
