JOR-UNI-61e7b1d5-5-acrylamide
     RDKit          3D

 28 30  0  0  0  0  0  0  0  0999 V2000
    7.6000   -4.7830   20.5610 C   0  0  0  0  0  0  0  0  0  0  0  0
    6.4710   -3.7610   20.6070 C   0  0  0  0  0  0  0  0  0  0  0  0
    6.1110   -3.4060   22.0430 C   0  0  0  0  0  0  0  0  0  0  0  0
    4.9460   -3.5100   21.6120 O   0  0  0  0  0  0  0  0  0  0  0  0
    7.6180   -3.4060   22.1230 C   0  0  0  0  0  0  0  0  0  0  0  0
    7.8540   -1.9930   22.0140 C   0  0  0  0  0  0  0  0  0  0  0  0
    8.7230   -2.7850   22.1300 C   0  0  0  0  0  0  0  0  0  0  0  0
    9.4860   -2.3630   22.1310 C   0  0  0  0  0  0  0  0  0  0  0  0
    8.5160   -1.3850   22.0030 C   0  0  0  0  0  0  0  0  0  0  0  0
    9.7730   -0.8170   22.0160 C   0  0  0  0  0  0  0  0  0  0  0  0
    7.4400   -0.4060   21.8700 N   0  0  0  0  0  0  0  0  0  0  0  0
    6.9260   -0.0820   23.1760 C   0  0  0  0  0  0  0  0  0  0  0  0
    7.5530    0.6060   20.8610 C   0  0  0  0  0  0  0  0  0  0  0  0
    7.9420    0.2370   24.0850 N   0  0  0  0  0  0  0  0  0  0  0  0
    8.3190    1.5860   20.9590 O   0  0  0  0  0  0  0  0  0  0  0  0
    6.7370    0.3900   19.7460 N   0  0  0  0  0  0  0  0  0  0  0  0
    8.8250   -0.6650   24.7180 C   0  0  0  0  0  0  0  0  0  0  0  0
    7.4810    1.1750   25.0200 C   0  0  0  0  0  0  0  0  0  0  0  0
    5.4730    0.9650   19.3960 C   0  0  0  0  0  0  0  0  0  0  0  0
    8.9350   -0.5870   26.1050 C   0  0  0  0  0  0  0  0  0  0  0  0
    6.7370    0.5140   25.9940 C   0  0  0  0  0  0  0  0  0  0  0  0
    4.4880    1.1890   20.3440 C   0  0  0  0  0  0  0  0  0  0  0  0
    5.2590    1.3180   17.9150 C   0  0  0  0  0  0  0  0  0  0  0  0
    7.6410   -0.1770   26.8190 C   0  0  0  0  0  0  0  0  0  0  0  0
    3.6700    1.6620   19.5560 C   0  0  0  0  0  0  0  0  0  0  0  0
    6.1700    0.8510   18.4610 N   0  0  0  0  0  0  0  0  0  0  0  0
    7.0240   -1.3020   27.4640 O   0  0  0  0  0  0  0  0  0  0  0  0
    5.0570    1.1540   19.2690 C   0  0  0  0  0  0  0  0  0  0  0  0
  1  2  1  0
  2  3  1  0
  3  4  2  0
  3  5  1  0
  5  6  2  0
  5  7  1  0
  6  8  1  0
  7  9  2  0
  8 10  2  0
  9 10  1  0
  9 11  1  0
 11 12  1  0
 11 13  1  0
 12 14  1  0
 13 15  2  0
 13 16  1  0
 14 17  1  0
 14 18  1  0
 16 19  1  0
 17 20  1  0
 18 21  1  0
 19 22  2  0
 19 23  1  0
 20 24  1  0
 21 24  1  0
 22 25  1  0
 23 26  2  0
 24 27  1  0
 25 28  2  0
 26 28  1  0
M  END
