JOR-UNI-61e7b1d5-13-chloroacetamide
     RDKit          3D

 29 31  0  0  0  0  0  0  0  0999 V2000
    8.3970   -4.1270   20.3190 C   0  0  0  0  0  0  0  0  0  0  0  0
    7.8390   -2.8810   20.0780 C   0  0  0  0  0  0  0  0  0  0  0  0
    6.9420   -2.8080   19.0700 O   0  0  0  0  0  0  0  0  0  0  0  0
    8.5300   -2.0600   21.2340 C   0  0  0  0  0  0  0  0  0  0  0  0
    9.8940   -2.2420   21.7080 C   0  0  0  0  0  0  0  0  0  0  0  0
    7.8280   -1.1340   21.9140 C   0  0  0  0  0  0  0  0  0  0  0  0
   10.4890   -1.5800   22.7960 N   0  0  0  0  0  0  0  0  0  0  0  0
    8.3390   -0.4260   23.0090 C   0  0  0  0  0  0  0  0  0  0  0  0
    9.6290   -0.6480   23.4700 C   0  0  0  0  0  0  0  0  0  0  0  0
    7.4170    0.4130   23.4510 N   0  0  0  0  0  0  0  0  0  0  0  0
   10.0170    0.0550   24.6030 N   0  0  0  0  0  0  0  0  0  0  0  0
    6.3440    0.0180   24.2730 C   0  0  0  0  0  0  0  0  0  0  0  0
    7.0620    1.1700   22.4370 C   0  0  0  0  0  0  0  0  0  0  0  0
    9.0370    0.3830   25.5880 C   0  0  0  0  0  0  0  0  0  0  0  0
    6.4870   -1.2600   24.8680 N   0  0  0  0  0  0  0  0  0  0  0  0
    7.5870    2.2550   22.1980 O   0  0  0  0  0  0  0  0  0  0  0  0
    6.1070    0.5740   21.6680 N   0  0  0  0  0  0  0  0  0  0  0  0
    9.2370    0.1990   27.0780 C   0  0  0  0  0  0  0  0  0  0  0  0
    6.8420   -2.4650   24.2640 C   0  0  0  0  0  0  0  0  0  0  0  0
    5.4730   -1.4760   25.7170 C   0  0  0  0  0  0  0  0  0  0  0  0
    5.8610    0.8450   20.3440 C   0  0  0  0  0  0  0  0  0  0  0  0
    6.2780   -3.6820   24.6400 C   0  0  0  0  0  0  0  0  0  0  0  0
    5.7830   -2.6040   26.4870 C   0  0  0  0  0  0  0  0  0  0  0  0
    4.7170    1.7320   20.0440 C   0  0  0  0  0  0  0  0  0  0  0  0
    6.5850    0.3840   19.1290 C   0  0  0  0  0  0  0  0  0  0  0  0
    5.6310   -3.7600   25.8330 N   0  0  0  0  0  0  0  0  0  0  0  0
    4.4250    2.0590   18.7590 C   0  0  0  0  0  0  0  0  0  0  0  0
    6.2310    0.7560   17.8610 N   0  0  0  0  0  0  0  0  0  0  0  0
    5.1630    1.5890   17.6890 C   0  0  0  0  0  0  0  0  0  0  0  0
  1  2  1  0
  2  3  2  0
  2  4  1  0
  4  5  2  0
  4  6  1  0
  5  7  1  0
  6  8  2  0
  7  9  2  0
  8  9  1  0
  8 10  1  0
  9 11  1  0
 10 12  1  0
 10 13  1  0
 11 14  1  0
 12 15  1  0
 13 16  2  0
 13 17  1  0
 14 18  1  0
 15 19  1  0
 15 20  1  0
 17 21  1  0
 19 22  1  0
 20 23  1  0
 21 24  2  0
 21 25  1  0
 22 26  1  0
 23 26  1  0
 24 27  1  0
 25 28  2  0
 27 29  2  0
 28 29  1  0
M  END
