JOR-UNI-61e7b1d5-4-acrylamide
     RDKit          3D

 30 32  0  0  0  0  0  0  0  0999 V2000
    6.5720   -4.6110   20.0950 C   0  0  0  0  0  0  0  0  0  0  0  0
    6.6940   -4.4850   21.6070 C   0  0  0  0  0  0  0  0  0  0  0  0
    5.6600   -3.5820   22.2370 C   0  0  0  0  0  0  0  0  0  0  0  0
    4.4770   -3.8850   22.3410 O   0  0  0  0  0  0  0  0  0  0  0  0
    6.1530   -2.2520   22.7240 C   0  0  0  0  0  0  0  0  0  0  0  0
    6.9360   -2.2490   24.0350 C   0  0  0  0  0  0  0  0  0  0  0  0
    5.7940   -1.1770   21.8360 C   0  0  0  0  0  0  0  0  0  0  0  0
    6.4660   -3.2890   23.5430 N   0  0  0  0  0  0  0  0  0  0  0  0
    6.4590   -0.6850   22.8260 C   0  0  0  0  0  0  0  0  0  0  0  0
    6.2750   -2.1410   22.9100 C   0  0  0  0  0  0  0  0  0  0  0  0
    6.2870    0.5180   22.2000 N   0  0  0  0  0  0  0  0  0  0  0  0
    6.9960   -1.8050   24.0680 N   0  0  0  0  0  0  0  0  0  0  0  0
    6.3080    1.6110   23.0170 C   0  0  0  0  0  0  0  0  0  0  0  0
    6.4360    0.6050   20.7020 C   0  0  0  0  0  0  0  0  0  0  0  0
    6.2620   -2.1250   25.1990 C   0  0  0  0  0  0  0  0  0  0  0  0
    7.4700    2.3350   23.2020 N   0  0  0  0  0  0  0  0  0  0  0  0
    7.4230    0.1270   20.1390 O   0  0  0  0  0  0  0  0  0  0  0  0
    5.4220    1.2530   19.9750 N   0  0  0  0  0  0  0  0  0  0  0  0
    6.4480   -1.1300   26.1690 C   0  0  0  0  0  0  0  0  0  0  0  0
    8.5550    2.6230   22.3510 C   0  0  0  0  0  0  0  0  0  0  0  0
    7.9170    2.2070   24.4930 C   0  0  0  0  0  0  0  0  0  0  0  0
    3.9670    0.9300   19.9860 C   0  0  0  0  0  0  0  0  0  0  0  0
    9.7750    3.2910   22.9850 C   0  0  0  0  0  0  0  0  0  0  0  0
    8.5050    3.4240   24.8430 C   0  0  0  0  0  0  0  0  0  0  0  0
    4.7630    1.3010   20.7300 C   0  0  0  0  0  0  0  0  0  0  0  0
    4.5080    0.8060   18.8910 C   0  0  0  0  0  0  0  0  0  0  0  0
    9.6420    3.5680   24.3910 O   0  0  0  0  0  0  0  0  0  0  0  0
    4.7790    0.9240   19.1130 C   0  0  0  0  0  0  0  0  0  0  0  0
    5.9070    1.1950   19.0590 N   0  0  0  0  0  0  0  0  0  0  0  0
    5.8250    0.9240   18.0010 C   0  0  0  0  0  0  0  0  0  0  0  0
  1  2  1  0
  2  3  1  0
  3  4  2  0
  3  5  1  0
  5  6  2  0
  5  7  1  0
  6  8  1  0
  7  9  2  0
  8 10  2  0
  9 10  1  0
  9 11  1  0
 10 12  1  0
 11 13  1  0
 11 14  1  0
 12 15  1  0
 13 16  1  0
 14 17  2  0
 14 18  1  0
 15 19  1  0
 16 20  1  0
 16 21  1  0
 18 22  1  0
 20 23  1  0
 21 24  1  0
 22 25  2  0
 22 26  1  0
 23 27  1  0
 24 27  1  0
 25 28  1  0
 26 29  2  0
 28 30  2  0
 29 30  1  0
M  END
