JOR-UNI-2fc98d0b-6
     RDKit          3D

 25 27  0  0  0  0  0  0  0  0999 V2000
    8.6990    1.0740   21.1720 O   0  0  0  0  0  0  0  0  0  0  0  0
    8.1370    0.0550   21.5920 C   0  0  0  0  0  0  0  0  0  0  0  0
    7.0840   -0.5860   21.0260 N   0  0  0  0  0  0  0  0  0  0  0  0
    8.6010   -0.5310   22.7750 N   0  0  0  0  0  0  0  0  0  0  0  0
    6.3400    0.0760   20.0650 C   0  0  0  0  0  0  0  0  0  0  0  0
    7.9290   -1.5230   23.3320 C   0  0  0  0  0  0  0  0  0  0  0  0
    9.9230   -0.4050   22.9230 C   0  0  0  0  0  0  0  0  0  0  0  0
    5.0290    0.8000   20.3650 C   0  0  0  0  0  0  0  0  0  0  0  0
    6.8890    0.0490   18.7880 C   0  0  0  0  0  0  0  0  0  0  0  0
    6.8130   -0.9350   24.0080 C   0  0  0  0  0  0  0  0  0  0  0  0
   10.5510    0.6190   23.8460 C   0  0  0  0  0  0  0  0  0  0  0  0
   10.8360   -1.3040   22.1210 C   0  0  0  0  0  0  0  0  0  0  0  0
    4.4440    1.4720   19.1370 C   0  0  0  0  0  0  0  0  0  0  0  0
    6.3460    0.6660   17.6900 N   0  0  0  0  0  0  0  0  0  0  0  0
    6.9050   -1.4180   25.3090 N   0  0  0  0  0  0  0  0  0  0  0  0
   12.0520    0.7400   23.9470 C   0  0  0  0  0  0  0  0  0  0  0  0
   12.3110   -1.1430   22.2590 C   0  0  0  0  0  0  0  0  0  0  0  0
    5.1630    1.3740   17.8070 C   0  0  0  0  0  0  0  0  0  0  0  0
    5.6000   -1.8910   25.7730 C   0  0  0  0  0  0  0  0  0  0  0  0
    7.4480   -0.4900   26.1730 C   0  0  0  0  0  0  0  0  0  0  0  0
   12.9020   -0.1910   23.1080 C   0  0  0  0  0  0  0  0  0  0  0  0
   13.2110   -2.1990   21.2980 Cl  0  0  0  0  0  0  0  0  0  0  0  0
    5.7710   -2.6980   26.8980 C   0  0  0  0  0  0  0  0  0  0  0  0
    6.9840   -0.8270   27.6050 C   0  0  0  0  0  0  0  0  0  0  0  0
    6.2290   -2.0030   27.9720 O   0  0  0  0  0  0  0  0  0  0  0  0
  1  2  2  0
  2  3  1  0
  2  4  1  0
  3  5  1  0
  4  6  1  0
  4  7  1  0
  5  8  2  0
  5  9  1  0
  6 10  1  0
  7 11  2  0
  7 12  1  0
  8 13  1  0
  9 14  2  0
 10 15  1  0
 11 16  1  0
 12 17  2  0
 13 18  2  0
 14 18  1  0
 15 19  1  0
 15 20  1  0
 16 21  2  0
 17 21  1  0
 17 22  1  0
 19 23  1  0
 20 24  1  0
 23 25  1  0
 24 25  1  0
M  END
