JOR-UNI-61e7b1d5-3-vinylsulfonamide
     RDKit          3D

 28 30  0  0  0  0  0  0  0  0999 V2000
    8.0030   -5.5110   20.2810 C   0  0  0  0  0  0  0  0  0  0  0  0
    7.1540   -4.2330   20.3360 C   0  0  0  0  0  0  0  0  0  0  0  0
    6.4420   -4.1580   21.9280 S   0  0  0  0  0  0  0  0  0  0  0  0
    4.9980   -4.4440   21.8620 O   0  0  0  0  0  0  0  0  0  0  0  0
    6.9380   -2.9250   22.4460 O   0  0  0  0  0  0  0  0  0  0  0  0
    7.3330   -5.5010   22.6680 C   0  0  0  0  0  0  0  0  0  0  0  0
    8.2800   -6.2490   23.3940 C   0  0  0  0  0  0  0  0  0  0  0  0
    7.7020   -4.4910   23.6130 C   0  0  0  0  0  0  0  0  0  0  0  0
    8.9600   -4.9340   23.5460 C   0  0  0  0  0  0  0  0  0  0  0  0
    7.1530   -3.2610   23.2440 C   0  0  0  0  0  0  0  0  0  0  0  0
    8.4520   -3.4910   23.2670 C   0  0  0  0  0  0  0  0  0  0  0  0
    6.4370   -1.9950   23.2560 N   0  0  0  0  0  0  0  0  0  0  0  0
    5.3590   -1.7060   24.1030 C   0  0  0  0  0  0  0  0  0  0  0  0
    6.7850   -0.9330   22.4230 C   0  0  0  0  0  0  0  0  0  0  0  0
    5.7770   -1.3740   25.3500 N   0  0  0  0  0  0  0  0  0  0  0  0
    7.0850    0.1850   22.8470 O   0  0  0  0  0  0  0  0  0  0  0  0
    6.7680   -1.2420   21.0970 N   0  0  0  0  0  0  0  0  0  0  0  0
    5.9110   -2.3480   26.2650 C   0  0  0  0  0  0  0  0  0  0  0  0
    5.0840   -0.3250   25.8640 C   0  0  0  0  0  0  0  0  0  0  0  0
    6.1550   -0.3670   20.2810 C   0  0  0  0  0  0  0  0  0  0  0  0
    6.1170   -1.9260   27.5830 C   0  0  0  0  0  0  0  0  0  0  0  0
    5.5550    0.2660   27.0390 C   0  0  0  0  0  0  0  0  0  0  0  0
    4.9510    0.2310   20.6230 C   0  0  0  0  0  0  0  0  0  0  0  0
    6.6900    0.0380   18.9620 C   0  0  0  0  0  0  0  0  0  0  0  0
    6.4800   -0.5420   27.6820 O   0  0  0  0  0  0  0  0  0  0  0  0
    4.2410    1.2100   19.7310 C   0  0  0  0  0  0  0  0  0  0  0  0
    6.1000    0.9210   18.1160 N   0  0  0  0  0  0  0  0  0  0  0  0
    4.8340    1.5260   18.5080 C   0  0  0  0  0  0  0  0  0  0  0  0
  1  2  1  0
  3  2  1  0
  3  4  2  0
  3  5  2  0
  3  6  1  0
  6  7  2  0
  6  8  1  0
  7  9  1  0
  8 10  2  0
  9 11  2  0
 10 11  1  0
 10 12  1  0
 12 13  1  0
 12 14  1  0
 13 15  1  0
 14 16  2  0
 14 17  1  0
 15 18  1  0
 15 19  1  0
 17 20  1  0
 18 21  1  0
 19 22  1  0
 20 23  2  0
 20 24  1  0
 21 25  1  0
 22 25  1  0
 23 26  1  0
 24 27  2  0
 26 28  2  0
 27 28  1  0
M  END
