JOR-UNI-61e7b1d5-15-bromoalkyne
     RDKit          3D

 29 31  0  0  0  0  0  0  0  0999 V2000
    8.4450   -3.4870   19.8810 C   0  0  0  0  0  0  0  0  0  0  0  0
    6.8760   -3.6230   19.8590 C   0  0  0  0  0  0  0  0  0  0  0  0
    9.0230   -2.5040   21.1690 C   0  0  0  0  0  0  0  0  0  0  0  0
   10.5580   -2.4430   21.4890 C   0  0  0  0  0  0  0  0  0  0  0  0
    9.6870   -1.8490   22.0790 C   0  0  0  0  0  0  0  0  0  0  0  0
   11.2220   -1.6360   22.6380 N   0  0  0  0  0  0  0  0  0  0  0  0
    9.1910   -1.0380   22.9890 C   0  0  0  0  0  0  0  0  0  0  0  0
   10.3360   -0.8240   23.5300 C   0  0  0  0  0  0  0  0  0  0  0  0
    7.9030   -0.7580   23.0440 N   0  0  0  0  0  0  0  0  0  0  0  0
   10.5400   -0.0260   24.6470 N   0  0  0  0  0  0  0  0  0  0  0  0
    7.0320   -1.7870   23.4400 C   0  0  0  0  0  0  0  0  0  0  0  0
    7.6040   -0.0800   21.7900 C   0  0  0  0  0  0  0  0  0  0  0  0
    9.4430    0.5650   25.3390 C   0  0  0  0  0  0  0  0  0  0  0  0
    6.2520   -1.4650   24.5730 N   0  0  0  0  0  0  0  0  0  0  0  0
    8.2380    0.9280   21.4380 O   0  0  0  0  0  0  0  0  0  0  0  0
    6.6550   -0.6270   21.0310 N   0  0  0  0  0  0  0  0  0  0  0  0
    8.8740   -0.0270   26.6130 C   0  0  0  0  0  0  0  0  0  0  0  0
    5.2050   -0.5470   24.5300 C   0  0  0  0  0  0  0  0  0  0  0  0
    6.0830   -2.1580   25.7550 C   0  0  0  0  0  0  0  0  0  0  0  0
    6.1170    0.0760   19.9760 C   0  0  0  0  0  0  0  0  0  0  0  0
    4.2660   -0.4370   25.5520 C   0  0  0  0  0  0  0  0  0  0  0  0
    5.8540   -1.2500   26.7840 C   0  0  0  0  0  0  0  0  0  0  0  0
    4.9500    0.8180   20.0340 C   0  0  0  0  0  0  0  0  0  0  0  0
    6.7680    0.0720   18.7630 C   0  0  0  0  0  0  0  0  0  0  0  0
    4.7050   -0.4880   26.8360 N   0  0  0  0  0  0  0  0  0  0  0  0
    4.4590    1.5180   18.9590 C   0  0  0  0  0  0  0  0  0  0  0  0
    6.3420    0.7390   17.6710 N   0  0  0  0  0  0  0  0  0  0  0  0
    5.0900    0.7080   27.2150 C   0  0  0  0  0  0  0  0  0  0  0  0
    5.1950    1.4530   17.7900 C   0  0  0  0  0  0  0  0  0  0  0  0
  1  2  2  3
  1  3  1  0
  3  4  2  0
  3  5  1  0
  4  6  1  0
  5  7  2  0
  6  8  2  0
  7  8  1  0
  7  9  1  0
  8 10  1  0
  9 11  1  0
  9 12  1  0
 10 13  1  0
 11 14  1  0
 12 15  2  0
 12 16  1  0
 13 17  1  0
 14 18  1  0
 14 19  1  0
 16 20  1  0
 18 21  1  0
 19 22  1  0
 20 23  2  0
 20 24  1  0
 21 25  1  0
 22 25  1  0
 23 26  1  0
 24 27  2  0
 25 28  1  0
 26 29  2  0
 27 29  1  0
M  END
