JOR-UNI-61e7b1d5-6-bromoalkyne
     RDKit          3D

 29 31  0  0  0  0  0  0  0  0999 V2000
    8.2830   -3.3400   19.7470 C   0  0  0  0  0  0  0  0  0  0  0  0
    6.6940   -3.3300   19.5450 C   0  0  0  0  0  0  0  0  0  0  0  0
    9.0270   -2.5770   21.0790 C   0  0  0  0  0  0  0  0  0  0  0  0
   10.5340   -2.5770   21.4570 C   0  0  0  0  0  0  0  0  0  0  0  0
    8.1220   -1.8700   21.8390 C   0  0  0  0  0  0  0  0  0  0  0  0
   10.6370   -1.7610   22.6130 N   0  0  0  0  0  0  0  0  0  0  0  0
    8.3900   -1.1200   22.9550 C   0  0  0  0  0  0  0  0  0  0  0  0
    9.6610   -1.0600   23.3560 C   0  0  0  0  0  0  0  0  0  0  0  0
    7.3060   -0.5420   23.4510 N   0  0  0  0  0  0  0  0  0  0  0  0
   10.0240   -0.3180   24.4820 N   0  0  0  0  0  0  0  0  0  0  0  0
    6.3620   -1.3210   24.1390 C   0  0  0  0  0  0  0  0  0  0  0  0
    6.8210    0.4010   22.4580 C   0  0  0  0  0  0  0  0  0  0  0  0
    9.6170   -0.5450   25.8180 C   0  0  0  0  0  0  0  0  0  0  0  0
    6.9080   -2.5670   24.5330 N   0  0  0  0  0  0  0  0  0  0  0  0
    7.1050    1.6010   22.4490 O   0  0  0  0  0  0  0  0  0  0  0  0
    6.0760   -0.1780   21.4990 N   0  0  0  0  0  0  0  0  0  0  0  0
    8.3740    0.1150   26.3620 C   0  0  0  0  0  0  0  0  0  0  0  0
    6.8680   -3.7080   23.7230 C   0  0  0  0  0  0  0  0  0  0  0  0
    7.6540   -2.9250   25.6410 C   0  0  0  0  0  0  0  0  0  0  0  0
    5.8340    0.3530   20.1730 C   0  0  0  0  0  0  0  0  0  0  0  0
    6.7420   -4.9890   24.2510 C   0  0  0  0  0  0  0  0  0  0  0  0
    6.9430   -3.8710   26.3770 C   0  0  0  0  0  0  0  0  0  0  0  0
    4.7420    1.1940   20.0320 C   0  0  0  0  0  0  0  0  0  0  0  0
    6.5790    0.1230   19.0210 C   0  0  0  0  0  0  0  0  0  0  0  0
    6.7120   -5.1080   25.7680 C   0  0  0  0  0  0  0  0  0  0  0  0
    4.3900    1.7860   18.8470 C   0  0  0  0  0  0  0  0  0  0  0  0
    6.2730    0.6830   17.8200 N   0  0  0  0  0  0  0  0  0  0  0  0
    5.4540   -5.6780   26.1530 O   0  0  0  0  0  0  0  0  0  0  0  0
    5.1940    1.5010   17.7590 C   0  0  0  0  0  0  0  0  0  0  0  0
  1  2  2  3
  1  3  1  0
  3  4  2  0
  3  5  1  0
  4  6  1  0
  5  7  2  0
  6  8  2  0
  7  8  1  0
  7  9  1  0
  8 10  1  0
  9 11  1  0
  9 12  1  0
 10 13  1  0
 11 14  1  0
 12 15  2  0
 12 16  1  0
 13 17  1  0
 14 18  1  0
 14 19  1  0
 16 20  1  0
 18 21  1  0
 19 22  1  0
 20 23  2  0
 20 24  1  0
 21 25  1  0
 22 25  1  0
 23 26  1  0
 24 27  2  0
 25 28  1  0
 26 29  2  0
 27 29  1  0
M  END
