JOR-UNI-61e7b1d5-7-nitrile
     RDKit          3D

 23 24  0  0  0  0  0  0  0  0999 V2000
    8.3070   -3.1490   19.7590 C   0  0  0  0  0  0  0  0  0  0  0  0
    8.0490   -2.8320   18.4040 N   0  0  0  0  0  0  0  0  0  0  0  0
    9.8610   -2.8050   20.7670 C   0  0  0  0  0  0  0  0  0  0  0  0
   11.1410   -2.5210   21.5990 C   0  0  0  0  0  0  0  0  0  0  0  0
    9.3690   -1.5320   21.2820 C   0  0  0  0  0  0  0  0  0  0  0  0
   11.7390   -1.5660   22.4380 C   0  0  0  0  0  0  0  0  0  0  0  0
    9.9190   -0.5420   22.1350 C   0  0  0  0  0  0  0  0  0  0  0  0
   11.1080   -0.5060   22.7180 C   0  0  0  0  0  0  0  0  0  0  0  0
    9.1790    0.4870   22.3850 N   0  0  0  0  0  0  0  0  0  0  0  0
    9.8380    1.4790   23.0910 C   0  0  0  0  0  0  0  0  0  0  0  0
    8.1490    0.7960   21.5050 C   0  0  0  0  0  0  0  0  0  0  0  0
    8.9680    2.5720   23.3390 C   0  0  0  0  0  0  0  0  0  0  0  0
    7.8250    2.2200   21.3000 O   0  0  0  0  0  0  0  0  0  0  0  0
    7.4370   -0.1820   20.8140 N   0  0  0  0  0  0  0  0  0  0  0  0
    9.6380    3.5130   24.1360 C   0  0  0  0  0  0  0  0  0  0  0  0
    6.5940    0.2670   19.9190 C   0  0  0  0  0  0  0  0  0  0  0  0
    9.2170    4.0480   25.2740 N   0  0  0  0  0  0  0  0  0  0  0  0
   10.9330    3.9780   23.7690 N   0  0  0  0  0  0  0  0  0  0  0  0
    5.1070    0.5560   20.1640 C   0  0  0  0  0  0  0  0  0  0  0  0
    7.0970    0.5160   18.6210 C   0  0  0  0  0  0  0  0  0  0  0  0
    4.3440    1.0860   18.9510 C   0  0  0  0  0  0  0  0  0  0  0  0
    6.4420    0.9800   17.5230 N   0  0  0  0  0  0  0  0  0  0  0  0
    5.0790    1.2750   17.6650 C   0  0  0  0  0  0  0  0  0  0  0  0
  1  2  2  3
  1  3  1  0
  3  4  2  0
  3  5  1  0
  4  6  1  0
  5  7  2  0
  6  8  2  0
  7  8  1  0
  7  9  1  0
  9 10  1  0
  9 11  1  0
 10 12  1  0
 11 13  2  0
 11 14  1  0
 12 15  1  0
 14 16  1  0
 15 17  2  3
 15 18  1  0
 16 19  2  0
 16 20  1  0
 19 21  1  0
 20 22  2  0
 21 23  2  0
 22 23  1  0
M  END
