JOR-UNI-61e7b1d5-2-chloroacetamide
     RDKit          3D

 19 20  0  0  0  0  0  0  0  0999 V2000
    8.3700   -3.9180   20.2290 C   0  0  0  0  0  0  0  0  0  0  0  0
    7.6670   -2.7660   19.9760 C   0  0  0  0  0  0  0  0  0  0  0  0
    6.6710   -2.8010   19.0890 O   0  0  0  0  0  0  0  0  0  0  0  0
    8.4910   -1.8350   21.0170 C   0  0  0  0  0  0  0  0  0  0  0  0
    9.8330   -2.2130   21.4700 C   0  0  0  0  0  0  0  0  0  0  0  0
    8.1340   -0.6570   21.6290 C   0  0  0  0  0  0  0  0  0  0  0  0
   10.6630   -1.5410   22.3730 C   0  0  0  0  0  0  0  0  0  0  0  0
    8.9400    0.0610   22.5460 C   0  0  0  0  0  0  0  0  0  0  0  0
   10.1960   -0.2770   22.9880 C   0  0  0  0  0  0  0  0  0  0  0  0
    8.2990    1.1760   22.9320 N   0  0  0  0  0  0  0  0  0  0  0  0
    7.7920    1.7850   21.8460 C   0  0  0  0  0  0  0  0  0  0  0  0
    8.4020    2.5800   21.1570 O   0  0  0  0  0  0  0  0  0  0  0  0
    6.5600    1.3120   21.6580 N   0  0  0  0  0  0  0  0  0  0  0  0
    6.1190    1.1980   20.4200 C   0  0  0  0  0  0  0  0  0  0  0  0
    4.9050    1.8000   20.1840 C   0  0  0  0  0  0  0  0  0  0  0  0
    6.7560    0.5400   19.3640 C   0  0  0  0  0  0  0  0  0  0  0  0
    4.2960    1.7870   18.9640 C   0  0  0  0  0  0  0  0  0  0  0  0
    6.2690    0.4540   18.1110 N   0  0  0  0  0  0  0  0  0  0  0  0
    5.0420    1.0640   17.8680 C   0  0  0  0  0  0  0  0  0  0  0  0
  1  2  1  0
  2  3  2  0
  2  4  1  0
  4  5  2  0
  4  6  1  0
  5  7  1  0
  6  8  2  0
  7  9  2  0
  8  9  1  0
  8 10  1  0
 10 11  1  0
 11 12  2  0
 11 13  1  0
 13 14  1  0
 14 15  2  0
 14 16  1  0
 15 17  1  0
 16 18  2  0
 17 19  2  0
 18 19  1  0
M  END
