JOR-UNI-61e7b1d5-10-chloroacetamide
     RDKit          3D

 28 30  0  0  0  0  0  0  0  0999 V2000
    7.9250   -3.0450   19.2700 C   0  0  0  0  0  0  0  0  0  0  0  0
    7.7110   -3.3790   20.7160 C   0  0  0  0  0  0  0  0  0  0  0  0
    6.7310   -3.9590   19.8870 O   0  0  0  0  0  0  0  0  0  0  0  0
    9.0890   -2.5070   21.3660 C   0  0  0  0  0  0  0  0  0  0  0  0
   10.5420   -2.6770   21.3730 C   0  0  0  0  0  0  0  0  0  0  0  0
    9.2910   -1.4730   22.0590 C   0  0  0  0  0  0  0  0  0  0  0  0
   11.0800   -1.5030   22.1880 C   0  0  0  0  0  0  0  0  0  0  0  0
    9.3630   -0.4490   22.7340 C   0  0  0  0  0  0  0  0  0  0  0  0
   10.6580   -0.1680   23.0300 C   0  0  0  0  0  0  0  0  0  0  0  0
    8.2200    0.1940   23.0230 N   0  0  0  0  0  0  0  0  0  0  0  0
    7.1100   -0.3540   23.7070 C   0  0  0  0  0  0  0  0  0  0  0  0
    7.9670    0.7090   21.7570 C   0  0  0  0  0  0  0  0  0  0  0  0
    7.4300   -1.6110   24.2820 C   0  0  0  0  0  0  0  0  0  0  0  0
    8.5840    1.6740   21.2670 O   0  0  0  0  0  0  0  0  0  0  0  0
    7.0090   -0.0080   21.0960 N   0  0  0  0  0  0  0  0  0  0  0  0
    6.6000   -2.7050   23.9580 N   0  0  0  0  0  0  0  0  0  0  0  0
    6.3270    0.4840   20.0240 C   0  0  0  0  0  0  0  0  0  0  0  0
    7.0660   -4.0050   23.6310 C   0  0  0  0  0  0  0  0  0  0  0  0
    5.4110   -2.3410   23.2710 C   0  0  0  0  0  0  0  0  0  0  0  0
    5.1470    1.2100   20.1100 C   0  0  0  0  0  0  0  0  0  0  0  0
    6.8470    0.2600   18.7720 C   0  0  0  0  0  0  0  0  0  0  0  0
    6.2640   -5.1080   23.9110 C   0  0  0  0  0  0  0  0  0  0  0  0
    4.4190   -3.3200   23.4210 C   0  0  0  0  0  0  0  0  0  0  0  0
    4.5570    1.6880   18.9660 C   0  0  0  0  0  0  0  0  0  0  0  0
    6.3030    0.7110   17.6360 N   0  0  0  0  0  0  0  0  0  0  0  0
    5.1610   -5.3210   22.8680 C   0  0  0  0  0  0  0  0  0  0  0  0
    4.5050   -4.1060   22.4650 O   0  0  0  0  0  0  0  0  0  0  0  0
    5.1710    1.4220   17.7620 C   0  0  0  0  0  0  0  0  0  0  0  0
  1  2  1  0
  2  3  2  0
  2  4  1  0
  4  5  2  0
  4  6  1  0
  5  7  1  0
  6  8  2  0
  7  9  2  0
  8  9  1  0
  8 10  1  0
 10 11  1  0
 10 12  1  0
 11 13  1  0
 12 14  2  0
 12 15  1  0
 13 16  1  0
 15 17  1  0
 16 18  1  0
 16 19  1  0
 17 20  2  0
 17 21  1  0
 18 22  1  0
 19 23  1  0
 20 24  1  0
 21 25  2  0
 22 26  1  0
 23 27  1  0
 26 27  1  0
 24 28  2  0
 25 28  1  0
M  END
