JOR-UNI-61e7b1d5-19-nitrile
     RDKit          3D

 29 31  0  0  0  0  0  0  0  0999 V2000
    7.9350   -3.4950   19.8390 C   0  0  0  0  0  0  0  0  0  0  0  0
    6.6420   -3.8720   19.7980 N   0  0  0  0  0  0  0  0  0  0  0  0
    9.0990   -3.1730   20.9170 C   0  0  0  0  0  0  0  0  0  0  0  0
    9.0250   -2.3050   22.0710 C   0  0  0  0  0  0  0  0  0  0  0  0
    9.7660   -2.6750   21.9640 C   0  0  0  0  0  0  0  0  0  0  0  0
    9.6620   -1.6790   23.2660 N   0  0  0  0  0  0  0  0  0  0  0  0
    8.4070   -1.9730   22.2420 C   0  0  0  0  0  0  0  0  0  0  0  0
    8.5910   -1.2190   23.3660 C   0  0  0  0  0  0  0  0  0  0  0  0
    7.2350   -2.0050   21.6160 N   0  0  0  0  0  0  0  0  0  0  0  0
    7.9120   -0.3390   24.2450 N   0  0  0  0  0  0  0  0  0  0  0  0
    6.1630   -2.8560   21.9910 C   0  0  0  0  0  0  0  0  0  0  0  0
    6.9400   -0.7780   21.1770 C   0  0  0  0  0  0  0  0  0  0  0  0
    7.9220   -0.4570   25.6250 C   0  0  0  0  0  0  0  0  0  0  0  0
    6.5070   -4.1450   22.4250 C   0  0  0  0  0  0  0  0  0  0  0  0
    7.7950    0.0930   20.9910 O   0  0  0  0  0  0  0  0  0  0  0  0
    5.6110   -0.5870   20.9680 N   0  0  0  0  0  0  0  0  0  0  0  0
    7.4340    0.8270   26.2810 C   0  0  0  0  0  0  0  0  0  0  0  0
    5.8540   -4.6850   23.5350 C   0  0  0  0  0  0  0  0  0  0  0  0
    5.4460    0.1490   19.8790 C   0  0  0  0  0  0  0  0  0  0  0  0
    6.5570   -4.7700   24.7280 C   0  0  0  0  0  0  0  0  0  0  0  0
    5.3140   -6.0810   23.2260 C   0  0  0  0  0  0  0  0  0  0  0  0
    4.3900    1.0420   19.9470 C   0  0  0  0  0  0  0  0  0  0  0  0
    6.2580    0.0460   18.7600 C   0  0  0  0  0  0  0  0  0  0  0  0
    5.8320   -5.3790   25.9240 C   0  0  0  0  0  0  0  0  0  0  0  0
    4.4340   -6.5600   24.2280 C   0  0  0  0  0  0  0  0  0  0  0  0
    4.1670    1.8440   18.8520 C   0  0  0  0  0  0  0  0  0  0  0  0
    6.1030    0.7930   17.6520 N   0  0  0  0  0  0  0  0  0  0  0  0
    4.5200   -6.1050   25.5520 C   0  0  0  0  0  0  0  0  0  0  0  0
    5.0880    1.6770   17.6810 C   0  0  0  0  0  0  0  0  0  0  0  0
  1  2  2  3
  1  3  1  0
  3  4  2  0
  3  5  1  0
  4  6  1  0
  5  7  2  0
  6  8  2  0
  7  8  1  0
  7  9  1  0
  8 10  1  0
  9 11  1  0
  9 12  1  0
 10 13  1  0
 11 14  1  0
 12 15  2  0
 12 16  1  0
 13 17  1  0
 14 18  1  0
 16 19  1  0
 18 20  1  0
 18 21  1  0
 19 22  2  0
 19 23  1  0
 20 24  1  0
 21 25  1  0
 22 26  1  0
 23 27  2  0
 24 28  1  0
 25 28  1  0
 26 29  2  0
 27 29  1  0
M  END
