JOR-UNI-61e7b1d5-21-vinylsulfonamide
     RDKit          3D

 31 33  0  0  0  0  0  0  0  0999 V2000
    6.2960   -3.5550   19.3880 C   0  0  0  0  0  0  0  0  0  0  0  0
    6.1690   -2.2490   20.1330 C   0  0  0  0  0  0  0  0  0  0  0  0
    5.4800   -2.5390   21.7240 S   0  0  0  0  0  0  0  0  0  0  0  0
    4.9990   -3.9240   21.7900 O   0  0  0  0  0  0  0  0  0  0  0  0
    4.5480   -1.4750   21.9570 O   0  0  0  0  0  0  0  0  0  0  0  0
    6.8600   -2.1330   22.7850 C   0  0  0  0  0  0  0  0  0  0  0  0
    7.3530   -1.3340   23.6840 C   0  0  0  0  0  0  0  0  0  0  0  0
    8.0240   -2.4190   23.1590 C   0  0  0  0  0  0  0  0  0  0  0  0
    8.5490   -1.1690   24.4280 N   0  0  0  0  0  0  0  0  0  0  0  0
    7.3300   -1.0940   23.8790 C   0  0  0  0  0  0  0  0  0  0  0  0
    7.9460   -0.1840   24.9150 C   0  0  0  0  0  0  0  0  0  0  0  0
    6.0250   -0.7760   23.4900 N   0  0  0  0  0  0  0  0  0  0  0  0
    9.0570    0.0780   25.6750 N   0  0  0  0  0  0  0  0  0  0  0  0
    4.9840   -1.3530   24.2540 C   0  0  0  0  0  0  0  0  0  0  0  0
    5.7670    0.4750   22.8690 C   0  0  0  0  0  0  0  0  0  0  0  0
    9.3340   -0.5060   26.9080 C   0  0  0  0  0  0  0  0  0  0  0  0
    5.2230   -1.4870   25.6310 C   0  0  0  0  0  0  0  0  0  0  0  0
    6.2630    1.5160   23.3180 O   0  0  0  0  0  0  0  0  0  0  0  0
    4.9550    0.4670   21.7470 N   0  0  0  0  0  0  0  0  0  0  0  0
    8.3110   -0.6020   28.0110 C   0  0  0  0  0  0  0  0  0  0  0  0
    5.9370   -2.6130   26.0620 C   0  0  0  0  0  0  0  0  0  0  0  0
    3.9000   -1.4300   26.4140 C   0  0  0  0  0  0  0  0  0  0  0  0
    5.5080    0.3100   20.4170 C   0  0  0  0  0  0  0  0  0  0  0  0
    5.6240   -3.2060   27.4410 C   0  0  0  0  0  0  0  0  0  0  0  0
    4.1140   -1.3420   27.8090 C   0  0  0  0  0  0  0  0  0  0  0  0
    4.5880    1.3970   20.2440 C   0  0  0  0  0  0  0  0  0  0  0  0
    5.6740    0.5790   19.1070 C   0  0  0  0  0  0  0  0  0  0  0  0
    5.0030   -2.2100   28.4310 C   0  0  0  0  0  0  0  0  0  0  0  0
    4.3780    2.0700   18.9860 C   0  0  0  0  0  0  0  0  0  0  0  0
    5.9680    0.6910   17.8360 N   0  0  0  0  0  0  0  0  0  0  0  0
    5.1220    1.6830   17.7130 C   0  0  0  0  0  0  0  0  0  0  0  0
  1  2  1  0
  3  2  1  0
  3  4  2  0
  3  5  2  0
  3  6  1  0
  6  7  2  0
  6  8  1  0
  7  9  1  0
  8 10  2  0
  9 11  2  0
 10 11  1  0
 10 12  1  0
 11 13  1  0
 12 14  1  0
 12 15  1  0
 13 16  1  0
 14 17  1  0
 15 18  2  0
 15 19  1  0
 16 20  1  0
 17 21  1  0
 17 22  1  0
 19 23  1  0
 21 24  1  0
 22 25  1  0
 23 26  2  0
 23 27  1  0
 24 28  1  0
 25 28  1  0
 26 29  1  0
 27 30  2  0
 29 31  2  0
 30 31  1  0
M  END
