JOR-UNI-61e7b1d5-2-acrylamide
     RDKit          3D

 20 21  0  0  0  0  0  0  0  0999 V2000
    7.2440   -3.5780   19.9070 C   0  0  0  0  0  0  0  0  0  0  0  0
    7.4580   -3.6890   21.4150 C   0  0  0  0  0  0  0  0  0  0  0  0
    6.2530   -4.3150   22.1460 C   0  0  0  0  0  0  0  0  0  0  0  0
    5.1090   -4.4700   21.6600 O   0  0  0  0  0  0  0  0  0  0  0  0
    6.5880   -4.7860   23.5170 C   0  0  0  0  0  0  0  0  0  0  0  0
    5.9210   -3.5950   23.6920 C   0  0  0  0  0  0  0  0  0  0  0  0
    6.9130   -5.4810   22.4960 C   0  0  0  0  0  0  0  0  0  0  0  0
    5.3330   -2.7400   22.4420 C   0  0  0  0  0  0  0  0  0  0  0  0
    6.2240   -4.2080   22.7710 C   0  0  0  0  0  0  0  0  0  0  0  0
    5.8900   -3.8260   21.4330 C   0  0  0  0  0  0  0  0  0  0  0  0
    5.5030   -2.9320   22.5720 N   0  0  0  0  0  0  0  0  0  0  0  0
    6.4220   -1.7900   22.5500 C   0  0  0  0  0  0  0  0  0  0  0  0
    7.0420   -1.3890   23.5300 O   0  0  0  0  0  0  0  0  0  0  0  0
    6.5050   -1.2010   21.2750 N   0  0  0  0  0  0  0  0  0  0  0  0
    5.5530   -0.3440   20.6770 C   0  0  0  0  0  0  0  0  0  0  0  0
    4.9600    0.4400   19.7410 C   0  0  0  0  0  0  0  0  0  0  0  0
    6.3830   -0.3570   19.5400 C   0  0  0  0  0  0  0  0  0  0  0  0
    3.9270    1.3430   19.1550 C   0  0  0  0  0  0  0  0  0  0  0  0
    6.1550    0.3200   18.3280 N   0  0  0  0  0  0  0  0  0  0  0  0
    5.0430    1.1110   18.1140 C   0  0  0  0  0  0  0  0  0  0  0  0
  1  2  1  0
  2  3  1  0
  3  4  2  0
  3  5  1  0
  5  6  2  0
  5  7  1  0
  6  8  1  0
  7  9  2  0
  8 10  2  0
  9 10  1  0
  9 11  1  0
 11 12  1  0
 12 13  2  0
 12 14  1  0
 14 15  1  0
 15 16  2  0
 15 17  1  0
 16 18  1  0
 17 19  2  0
 18 20  2  0
 19 20  1  0
M  END
