JOR-UNI-61e7b1d5-18-chloroacetamide
     RDKit          3D

 27 29  0  0  0  0  0  0  0  0999 V2000
    7.4900   -3.8270   20.7090 C   0  0  0  0  0  0  0  0  0  0  0  0
    7.7290   -2.5650   19.8160 C   0  0  0  0  0  0  0  0  0  0  0  0
    6.9290   -3.1680   18.9900 O   0  0  0  0  0  0  0  0  0  0  0  0
    8.6910   -2.0230   21.0210 C   0  0  0  0  0  0  0  0  0  0  0  0
    9.9630   -2.4610   21.4770 C   0  0  0  0  0  0  0  0  0  0  0  0
    8.2770   -0.9270   21.7290 C   0  0  0  0  0  0  0  0  0  0  0  0
   10.7180   -1.9000   22.5220 C   0  0  0  0  0  0  0  0  0  0  0  0
    8.9780   -0.2890   22.7820 C   0  0  0  0  0  0  0  0  0  0  0  0
   10.2030   -0.7080   23.2590 C   0  0  0  0  0  0  0  0  0  0  0  0
    8.3240    0.8010   23.2550 N   0  0  0  0  0  0  0  0  0  0  0  0
    7.7490    0.9920   24.5100 C   0  0  0  0  0  0  0  0  0  0  0  0
    7.8800    1.4810   22.1080 C   0  0  0  0  0  0  0  0  0  0  0  0
    6.8490   -0.0540   24.7710 C   0  0  0  0  0  0  0  0  0  0  0  0
    8.6140    2.2200   21.4310 O   0  0  0  0  0  0  0  0  0  0  0  0
    6.5730    1.1830   21.8080 N   0  0  0  0  0  0  0  0  0  0  0  0
    7.0850   -0.7280   25.9690 C   0  0  0  0  0  0  0  0  0  0  0  0
    5.9890    1.1710   20.5390 C   0  0  0  0  0  0  0  0  0  0  0  0
    6.6400   -0.0300   27.0870 C   0  0  0  0  0  0  0  0  0  0  0  0
    6.2910   -2.0530   25.9340 C   0  0  0  0  0  0  0  0  0  0  0  0
    4.7090    1.6530   20.2880 C   0  0  0  0  0  0  0  0  0  0  0  0
    6.7380    0.6490   19.4730 C   0  0  0  0  0  0  0  0  0  0  0  0
    6.9620   -0.8170   28.3560 C   0  0  0  0  0  0  0  0  0  0  0  0
    5.5030   -2.2210   27.1050 C   0  0  0  0  0  0  0  0  0  0  0  0
    4.2290    1.6070   19.0070 C   0  0  0  0  0  0  0  0  0  0  0  0
    6.3350    0.5730   18.1860 N   0  0  0  0  0  0  0  0  0  0  0  0
    6.3200   -2.1980   28.2320 C   0  0  0  0  0  0  0  0  0  0  0  0
    5.1130    1.0420   17.9590 C   0  0  0  0  0  0  0  0  0  0  0  0
  1  2  1  0
  2  3  2  0
  2  4  1  0
  4  5  2  0
  4  6  1  0
  5  7  1  0
  6  8  2  0
  7  9  2  0
  8  9  1  0
  8 10  1  0
 10 11  1  0
 10 12  1  0
 11 13  1  0
 12 14  2  0
 12 15  1  0
 13 16  1  0
 15 17  1  0
 16 18  1  0
 16 19  1  0
 17 20  2  0
 17 21  1  0
 18 22  1  0
 19 23  1  0
 20 24  1  0
 21 25  2  0
 22 26  1  0
 23 26  1  0
 24 27  2  0
 25 27  1  0
M  END
