JUA-UNI-a9dfaed1-7-bromoalkyne
     RDKit          3D

 26 28  0  0  0  0  0  0  0  0999 V2000
    6.5230   -4.1150   19.5840 C   0  0  0  0  0  0  0  0  0  0  0  0
    5.9500   -5.1900   20.0840 C   0  0  0  0  0  0  0  0  0  0  0  0
    5.7680   -3.1310   18.9200 N   0  0  0  0  0  0  0  0  0  0  0  0
    6.1470   -1.7410   19.1230 C   0  0  0  0  0  0  0  0  0  0  0  0
    5.6380   -0.5600   18.2780 C   0  0  0  0  0  0  0  0  0  0  0  0
    7.0130   -1.5070   20.1410 C   0  0  0  0  0  0  0  0  0  0  0  0
    6.0950    0.7230   18.5960 C   0  0  0  0  0  0  0  0  0  0  0  0
    7.4600   -0.2720   20.4490 C   0  0  0  0  0  0  0  0  0  0  0  0
    7.0730    0.8710   19.7650 C   0  0  0  0  0  0  0  0  0  0  0  0
    8.2870   -0.3060   21.4870 C   0  0  0  0  0  0  0  0  0  0  0  0
    7.5600    2.0920   20.1420 O   0  0  0  0  0  0  0  0  0  0  0  0
    9.2330    0.4590   21.5920 O   0  0  0  0  0  0  0  0  0  0  0  0
    7.8750   -1.2760   22.3440 N   0  0  0  0  0  0  0  0  0  0  0  0
    8.4400   -2.5960   22.3280 C   0  0  0  0  0  0  0  0  0  0  0  0
    9.3530   -2.5180   23.4930 C   0  0  2  0  0  0  0  0  0  0  0  0
    8.5190   -1.9880   24.5190 O   0  0  0  0  0  0  0  0  0  0  0  0
   10.3870   -1.6420   23.2930 C   0  0  0  0  0  0  0  0  0  0  0  0
   11.6920   -2.0550   23.0850 C   0  0  0  0  0  0  0  0  0  0  0  0
   10.0600   -0.2970   23.2950 C   0  0  0  0  0  0  0  0  0  0  0  0
   12.7040   -1.0180   22.8840 C   0  0  0  0  0  0  0  0  0  0  0  0
   11.0020    0.6870   23.0970 C   0  0  0  0  0  0  0  0  0  0  0  0
   12.3300    0.3360   22.9060 C   0  0  0  0  0  0  0  0  0  0  0  0
   10.5890    2.1670   23.0840 C   0  0  0  0  0  0  0  0  0  0  0  0
   13.2300    1.3670   22.7410 C   0  0  0  0  0  0  0  0  0  0  0  0
   11.5590    3.1330   22.9000 C   0  0  0  0  0  0  0  0  0  0  0  0
   12.8670    2.7270   22.7350 C   0  0  0  0  0  0  0  0  0  0  0  0
  1  2  2  3
  1  3  1  0
  3  4  1  0
  4  5  2  0
  4  6  1  0
  5  7  1  0
  6  8  2  0
  7  9  2  0
  8  9  1  0
  8 10  1  0
  9 11  1  0
 10 12  2  0
 10 13  1  0
 13 14  1  0
 14 15  1  0
 15 16  1  1
 15 17  1  0
 17 18  2  0
 17 19  1  0
 18 20  1  0
 19 21  2  0
 20 22  2  0
 21 22  1  0
 21 23  1  0
 22 24  1  0
 23 25  2  0
 24 26  2  0
 25 26  1  0
M  END
