JUA-UNI-a9dfaed1-5-nitrile
     RDKit          3D

 27 29  0  0  0  0  0  0  0  0999 V2000
    6.4590   -3.8130   19.6030 C   0  0  0  0  0  0  0  0  0  0  0  0
    5.7790   -3.1570   18.7330 N   0  0  0  0  0  0  0  0  0  0  0  0
    6.0200   -4.1390   20.8710 N   0  0  0  0  0  0  0  0  0  0  0  0
    6.1640   -3.1350   21.8540 C   0  0  0  0  0  0  0  0  0  0  0  0
    6.9910   -2.0290   21.5620 C   0  0  0  0  0  0  0  0  0  0  0  0
    6.6870   -0.7720   22.0340 C   0  0  0  0  0  0  0  0  0  0  0  0
    6.0070    0.0280   21.3920 O   0  0  0  0  0  0  0  0  0  0  0  0
    7.2620   -0.4310   23.3610 N   0  0  0  0  0  0  0  0  0  0  0  0
    7.9280   -1.5100   24.0510 C   0  0  0  0  0  0  0  0  0  0  0  0
    7.8110    0.8340   23.4390 C   0  0  0  0  0  0  0  0  0  0  0  0
    9.4380   -1.5060   24.1290 C   0  0  0  0  0  0  0  0  0  0  0  0
    9.1310    0.7790   23.1630 C   0  0  0  0  0  0  0  0  0  0  0  0
   10.1900   -0.5220   25.0070 C   0  0  0  0  0  0  0  0  0  0  0  0
   10.2260   -2.4080   23.4040 C   0  0  0  0  0  0  0  0  0  0  0  0
    9.4290   -0.2520   22.4990 N   0  0  0  0  0  0  0  0  0  0  0  0
   10.0250    1.7040   23.6080 N   0  0  0  0  0  0  0  0  0  0  0  0
   11.6910   -0.6700   24.9640 C   0  0  0  0  0  0  0  0  0  0  0  0
   11.7720   -2.5200   23.3860 C   0  0  0  0  0  0  0  0  0  0  0  0
   10.6930   -0.4750   22.2880 C   0  0  0  0  0  0  0  0  0  0  0  0
   11.3350    1.6300   23.2460 C   0  0  0  0  0  0  0  0  0  0  0  0
   12.3790   -1.5930   24.2130 C   0  0  0  0  0  0  0  0  0  0  0  0
   11.0410   -1.7950   21.6230 C   0  0  0  0  0  0  0  0  0  0  0  0
   11.6900    0.4200   22.6580 C   0  0  0  0  0  0  0  0  0  0  0  0
   12.1300    2.5450   23.3820 O   0  0  0  0  0  0  0  0  0  0  0  0
   12.3700   -2.0820   21.3970 C   0  0  0  0  0  0  0  0  0  0  0  0
   12.9800    0.0590   22.4110 C   0  0  0  0  0  0  0  0  0  0  0  0
   13.3020   -1.1600   21.7930 C   0  0  0  0  0  0  0  0  0  0  0  0
  1  2  2  3
  1  3  1  0
  3  4  1  0
  4  5  1  0
  5  6  1  0
  6  7  2  0
  6  8  1  0
  8  9  1  0
  8 10  1  0
  9 11  1  0
 10 12  1  0
 11 13  2  0
 11 14  1  0
 12 15  2  0
 12 16  1  0
 13 17  1  0
 14 18  2  0
 15 19  1  0
 16 20  1  0
 17 21  2  0
 18 21  1  0
 19 22  2  0
 19 23  1  0
 20 23  1  0
 20 24  2  0
 22 25  1  0
 23 26  2  0
 25 27  2  0
 26 27  1  0
M  END
