JUA-UNI-a9dfaed1-4-nitrile
     RDKit          3D

 24 26  0  0  0  0  0  0  0  0999 V2000
    7.7590   -3.2870   18.8290 C   0  0  0  0  0  0  0  0  0  0  0  0
    6.5940   -3.7250   19.1760 N   0  0  0  0  0  0  0  0  0  0  0  0
    7.9060   -1.9810   18.7980 N   0  0  0  0  0  0  0  0  0  0  0  0
    7.2080   -1.3160   19.8580 C   0  0  0  0  0  0  0  0  0  0  0  0
    8.1630   -1.1790   21.0540 C   0  0  0  0  0  0  0  0  0  0  0  0
    8.7310   -0.0890   21.1090 O   0  0  0  0  0  0  0  0  0  0  0  0
    8.3830   -2.0930   22.1050 N   0  0  0  0  0  0  0  0  0  0  0  0
    8.9200   -1.3830   23.2310 C   0  0  0  0  0  0  0  0  0  0  0  0
    8.9240   -3.4710   22.1270 C   0  0  0  0  0  0  0  0  0  0  0  0
   10.2610   -0.9900   23.0110 C   0  0  0  0  0  0  0  0  0  0  0  0
    8.0090   -4.4890   22.4110 C   0  0  1  0  0  0  0  0  0  0  0  0
   10.5160    0.3570   23.3420 C   0  0  0  0  0  0  0  0  0  0  0  0
   11.2390   -1.8990   22.4950 C   0  0  0  0  0  0  0  0  0  0  0  0
    8.3990   -5.6830   21.7060 O   0  0  0  0  0  0  0  0  0  0  0  0
    7.9130   -4.8960   23.7170 C   0  0  0  0  0  0  0  0  0  0  0  0
    6.5320   -4.1590   22.0210 C   0  0  0  0  0  0  0  0  0  0  0  0
   11.9490    0.8420   23.1370 C   0  0  0  0  0  0  0  0  0  0  0  0
   12.5630   -1.5200   22.2770 C   0  0  0  0  0  0  0  0  0  0  0  0
    6.6430   -5.5040   24.1860 N   0  0  0  0  0  0  0  0  0  0  0  0
    5.8020   -5.4650   21.8560 C   0  0  0  0  0  0  0  0  0  0  0  0
    5.8100   -3.4330   23.1780 C   0  0  0  0  0  0  0  0  0  0  0  0
   12.9550   -0.1090   22.6080 C   0  0  0  0  0  0  0  0  0  0  0  0
    6.1320   -6.3380   23.0690 C   0  0  0  0  0  0  0  0  0  0  0  0
    5.7100   -4.3830   24.3790 C   0  0  0  0  0  0  0  0  0  0  0  0
  1  2  2  3
  1  3  1  0
  3  4  1  0
  4  5  1  0
  5  6  2  0
  5  7  1  0
  7  8  1  0
  7  9  1  0
  8 10  1  0
  9 11  1  0
 10 12  2  0
 10 13  1  0
 11 14  1  6
 11 15  1  0
 11 16  1  0
 12 17  1  0
 13 18  2  0
 15 19  1  0
 16 20  1  0
 16 21  1  0
 17 22  2  0
 18 22  1  0
 19 23  1  0
 20 23  1  0
 19 24  1  0
 21 24  1  0
M  END
