KAT-FAI-78913094-1
     RDKit          3D

 26 28  0  0  0  0  0  0  0  0999 V2000
    0.6430   -8.7670   22.5690 C   0  0  0  0  0  0  0  0  0  0  0  0
    1.7360   -8.1570   23.4620 C   0  0  0  0  0  0  0  0  0  0  0  0
    2.0480   -8.7040   24.8380 C   0  0  0  0  0  0  0  0  0  0  0  0
    2.4960   -7.0670   23.0450 C   0  0  0  0  0  0  0  0  0  0  0  0
    3.1190   -8.0810   25.6690 C   0  0  0  0  0  0  0  0  0  0  0  0
    3.5230   -6.4740   23.8310 C   0  0  0  0  0  0  0  0  0  0  0  0
    3.9010   -6.8930   25.1090 C   0  0  0  0  0  0  0  0  0  0  0  0
    4.3710   -5.2720   23.3890 C   0  0  2  0  0  0  0  0  0  0  0  0
    5.3320   -5.9220   22.3630 C   0  0  0  0  0  0  0  0  0  0  0  0
    5.1060   -4.7120   24.3390 N   0  0  0  0  0  0  0  0  0  0  0  0
    6.3620   -4.9590   21.9190 N   0  0  0  0  0  0  0  0  0  0  0  0
    6.5040   -4.8550   24.1600 C   0  0  0  0  0  0  0  0  0  0  0  0
    4.5500   -3.5640   24.9640 C   0  0  0  0  0  0  0  0  0  0  0  0
    6.1260   -4.2460   20.6910 C   0  0  0  0  0  0  0  0  0  0  0  0
    6.9640   -4.2430   23.0250 C   0  0  0  0  0  0  0  0  0  0  0  0
    5.4360   -2.4910   25.2130 C   0  0  0  0  0  0  0  0  0  0  0  0
    3.1920   -3.3630   25.3610 C   0  0  0  0  0  0  0  0  0  0  0  0
    5.4280   -4.7550   19.8240 O   0  0  0  0  0  0  0  0  0  0  0  0
    6.6940   -2.9950   20.4390 C   0  0  0  0  0  0  0  0  0  0  0  0
    5.0230   -1.3090   25.8050 C   0  0  0  0  0  0  0  0  0  0  0  0
    2.7350   -2.1920   25.9610 C   0  0  0  0  0  0  0  0  0  0  0  0
    2.1400   -4.2260   25.2330 N   0  0  0  0  0  0  0  0  0  0  0  0
    8.2860   -2.8410   21.0210 S   0  0  0  0  0  0  0  0  0  0  0  0
    3.5850   -1.1610   26.1970 C   0  0  0  0  0  0  0  0  0  0  0  0
    2.1740   -5.4060   26.0330 O   0  0  0  0  0  0  0  0  0  0  0  0
    0.8580   -3.6340   25.0510 O   0  0  0  0  0  0  0  0  0  0  0  0
  1  2  1  0
  2  3  2  0
  2  4  1  0
  3  5  1  0
  4  6  2  0
  5  7  2  0
  6  7  1  0
  8  6  1  1
  8  9  1  0
  8 10  1  0
  9 11  1  0
 10 12  1  0
 10 13  1  0
 11 14  1  0
 11 15  1  0
 12 15  1  0
 13 16  2  0
 13 17  1  0
 14 18  2  0
 14 19  1  0
 16 20  1  0
 17 21  2  0
 17 22  1  0
 19 23  1  0
 20 24  2  0
 21 24  1  0
 22 25  2  0
 22 26  1  0
M  CHG  1  22   1
M  END
