KAY-MCD-d0fe5261-1-chloroacetamide
     RDKit          3D

 19 20  0  0  0  0  0  0  0  0999 V2000
    7.3080   -3.5690   20.2580 C   0  0  0  0  0  0  0  0  0  0  0  0
    6.3590   -4.4500   20.5870 C   0  0  0  0  0  0  0  0  0  0  0  0
    5.3520   -4.6290   19.9210 O   0  0  0  0  0  0  0  0  0  0  0  0
    6.5300   -5.1900   21.7750 N   0  0  0  0  0  0  0  0  0  0  0  0
    7.2670   -4.6420   22.9330 C   0  0  0  0  0  0  0  0  0  0  0  0
    5.6400   -6.3050   22.1400 C   0  0  0  0  0  0  0  0  0  0  0  0
    6.3090   -4.3030   24.0700 C   0  0  0  0  0  0  0  0  0  0  0  0
    4.7100   -5.8880   23.1110 C   0  0  0  0  0  0  0  0  0  0  0  0
    5.4480   -5.4460   24.3040 N   0  0  0  0  0  0  0  0  0  0  0  0
    4.6790   -5.5840   25.7970 S   0  0  0  0  0  0  0  0  0  0  0  0
    5.6600   -5.2860   26.8130 O   0  0  0  0  0  0  0  0  0  0  0  0
    3.9630   -6.8380   25.7630 O   0  0  0  0  0  0  0  0  0  0  0  0
    3.4670   -4.2910   25.8170 C   0  0  0  0  0  0  0  0  0  0  0  0
    3.8620   -2.8330   25.8520 C   0  0  0  0  0  0  0  0  0  0  0  0
    2.0960   -4.5970   25.8090 C   0  0  0  0  0  0  0  0  0  0  0  0
    2.7970   -1.7840   25.8860 C   0  0  0  0  0  0  0  0  0  0  0  0
    1.1240   -3.5810   25.8420 C   0  0  0  0  0  0  0  0  0  0  0  0
    1.4630   -2.2160   25.8840 C   0  0  0  0  0  0  0  0  0  0  0  0
    0.4780   -1.3060   25.9270 F   0  0  0  0  0  0  0  0  0  0  0  0
  1  2  1  0
  2  3  2  0
  2  4  1  0
  4  5  1  0
  4  6  1  0
  5  7  1  0
  6  8  1  0
  7  9  1  0
  8  9  1  0
  9 10  1  0
 10 11  2  0
 10 12  2  0
 10 13  1  0
 13 14  2  0
 13 15  1  0
 14 16  1  0
 15 17  2  0
 16 18  2  0
 17 18  1  0
 18 19  1  0
M  END
