KAY-MCD-d0fe5261-1-bromoalkyne
     RDKit          3D

 18 19  0  0  0  0  0  0  0  0999 V2000
    6.6560   -4.5960   20.3030 C   0  0  0  0  0  0  0  0  0  0  0  0
    6.0980   -3.6160   19.5790 C   0  0  0  0  0  0  0  0  0  0  0  0
    6.2740   -4.9060   21.6190 N   0  0  0  0  0  0  0  0  0  0  0  0
    5.6290   -6.1970   21.9740 C   0  0  0  0  0  0  0  0  0  0  0  0
    6.9550   -4.2610   22.7580 C   0  0  0  0  0  0  0  0  0  0  0  0
    4.6560   -6.0480   23.1260 C   0  0  0  0  0  0  0  0  0  0  0  0
    6.6470   -4.8670   23.9870 C   0  0  0  0  0  0  0  0  0  0  0  0
    5.2090   -5.1670   24.1350 N   0  0  0  0  0  0  0  0  0  0  0  0
    4.6730   -5.4510   25.7060 S   0  0  0  0  0  0  0  0  0  0  0  0
    5.7200   -5.0780   26.6290 O   0  0  0  0  0  0  0  0  0  0  0  0
    4.0320   -6.7450   25.7450 O   0  0  0  0  0  0  0  0  0  0  0  0
    3.4200   -4.2030   25.7990 C   0  0  0  0  0  0  0  0  0  0  0  0
    3.7930   -2.7430   25.8680 C   0  0  0  0  0  0  0  0  0  0  0  0
    2.0580   -4.5380   25.8050 C   0  0  0  0  0  0  0  0  0  0  0  0
    2.7140   -1.7170   25.9440 C   0  0  0  0  0  0  0  0  0  0  0  0
    1.0690   -3.5390   25.8800 C   0  0  0  0  0  0  0  0  0  0  0  0
    1.3860   -2.1670   25.9500 C   0  0  0  0  0  0  0  0  0  0  0  0
    0.3900   -1.2740   26.0270 F   0  0  0  0  0  0  0  0  0  0  0  0
  1  2  2  3
  1  3  1  0
  3  4  1  0
  3  5  1  0
  4  6  1  0
  5  7  1  0
  6  8  1  0
  7  8  1  0
  8  9  1  0
  9 10  2  0
  9 11  2  0
  9 12  1  0
 12 13  2  0
 12 14  1  0
 13 15  1  0
 14 16  2  0
 15 17  2  0
 16 17  1  0
 17 18  1  0
M  END
