KAY-MCD-d0fe5261-1-nitrile
     RDKit          3D

 18 19  0  0  0  0  0  0  0  0999 V2000
    6.6500   -4.6720   20.3330 C   0  0  0  0  0  0  0  0  0  0  0  0
    6.1000   -3.7420   19.6480 N   0  0  0  0  0  0  0  0  0  0  0  0
    6.3160   -4.9400   21.6710 N   0  0  0  0  0  0  0  0  0  0  0  0
    5.5600   -6.1750   21.9490 C   0  0  0  0  0  0  0  0  0  0  0  0
    7.1750   -4.5920   22.7610 C   0  0  0  0  0  0  0  0  0  0  0  0
    4.6940   -5.9620   23.1700 C   0  0  0  0  0  0  0  0  0  0  0  0
    6.3050   -4.2220   23.8140 C   0  0  0  0  0  0  0  0  0  0  0  0
    5.4800   -5.3680   24.2490 N   0  0  0  0  0  0  0  0  0  0  0  0
    4.7970   -5.4530   25.8180 S   0  0  0  0  0  0  0  0  0  0  0  0
    4.2400   -6.7740   25.9860 O   0  0  0  0  0  0  0  0  0  0  0  0
    5.7750   -4.9040   26.7220 O   0  0  0  0  0  0  0  0  0  0  0  0
    3.4440   -4.2930   25.8260 C   0  0  0  0  0  0  0  0  0  0  0  0
    1.9380   -4.6500   25.7460 C   0  0  0  0  0  0  0  0  0  0  0  0
    3.8250   -2.9280   25.9190 C   0  0  0  0  0  0  0  0  0  0  0  0
    0.9870   -3.4680   25.7920 C   0  0  0  0  0  0  0  0  0  0  0  0
    2.8780   -1.8890   25.9540 C   0  0  0  0  0  0  0  0  0  0  0  0
    1.5020   -2.0710   25.9020 C   0  0  0  0  0  0  0  0  0  0  0  0
    0.6640   -1.0300   25.9540 F   0  0  0  0  0  0  0  0  0  0  0  0
  1  2  2  3
  1  3  1  0
  3  4  1  0
  3  5  1  0
  4  6  1  0
  5  7  1  0
  6  8  1  0
  7  8  1  0
  8  9  1  0
  9 10  2  0
  9 11  2  0
  9 12  1  0
 12 13  2  0
 12 14  1  0
 13 15  1  0
 14 16  2  0
 15 17  2  0
 16 17  1  0
 17 18  1  0
M  END
