KAY-MCD-d0fe5261-1-acrylamide
     RDKit          3D

 20 21  0  0  0  0  0  0  0  0999 V2000
    8.0200   -3.7180   20.3440 C   0  0  0  0  0  0  0  0  0  0  0  0
    6.8790   -3.0960   20.2940 C   0  0  0  0  0  0  0  0  0  0  0  0
    5.9490   -4.2120   20.6130 C   0  0  0  0  0  0  0  0  0  0  0  0
    5.1170   -4.5500   19.7920 O   0  0  0  0  0  0  0  0  0  0  0  0
    6.1200   -4.8870   21.8250 N   0  0  0  0  0  0  0  0  0  0  0  0
    5.5710   -6.2120   22.0230 C   0  0  0  0  0  0  0  0  0  0  0  0
    6.8770   -4.3590   22.9640 C   0  0  0  0  0  0  0  0  0  0  0  0
    4.7190   -6.1430   23.2880 C   0  0  0  0  0  0  0  0  0  0  0  0
    6.0490   -4.2080   24.0710 C   0  0  0  0  0  0  0  0  0  0  0  0
    5.4090   -5.4800   24.3940 N   0  0  0  0  0  0  0  0  0  0  0  0
    4.6650   -5.5680   25.8950 S   0  0  0  0  0  0  0  0  0  0  0  0
    3.9520   -6.8190   25.9580 O   0  0  0  0  0  0  0  0  0  0  0  0
    5.6910   -5.2090   26.8460 O   0  0  0  0  0  0  0  0  0  0  0  0
    3.4480   -4.2740   25.8750 C   0  0  0  0  0  0  0  0  0  0  0  0
    3.8350   -2.8260   25.9010 C   0  0  0  0  0  0  0  0  0  0  0  0
    2.0850   -4.5910   25.8440 C   0  0  0  0  0  0  0  0  0  0  0  0
    2.8470   -1.8530   25.9030 C   0  0  0  0  0  0  0  0  0  0  0  0
    1.1300   -3.5610   25.8490 C   0  0  0  0  0  0  0  0  0  0  0  0
    1.4970   -2.2070   25.8840 C   0  0  0  0  0  0  0  0  0  0  0  0
    0.5510   -1.2630   25.9000 F   0  0  0  0  0  0  0  0  0  0  0  0
  1  2  1  0
  2  3  1  0
  3  4  2  0
  3  5  1  0
  5  6  1  0
  5  7  1  0
  6  8  1  0
  7  9  1  0
  8 10  1  0
  9 10  1  0
 10 11  1  0
 11 12  2  0
 11 13  2  0
 11 14  1  0
 14 15  2  0
 14 16  1  0
 15 17  1  0
 16 18  2  0
 17 19  2  0
 18 19  1  0
 19 20  1  0
M  END
