KEI-TRE-d5e2018a-52
     RDKit          3D

 23 25  0  0  0  0  0  0  0  0999 V2000
    9.1550    1.6170   21.2690 O   0  0  0  0  0  0  0  0  0  0  0  0
    8.7910    0.5240   21.7020 C   0  0  0  0  0  0  0  0  0  0  0  0
    7.6900   -0.1660   21.2190 N   0  0  0  0  0  0  0  0  0  0  0  0
    9.5010   -0.1700   22.7730 C   0  0  0  0  0  0  0  0  0  0  0  0
    6.8340    0.2770   20.1990 C   0  0  0  0  0  0  0  0  0  0  0  0
    9.4330   -1.4850   23.1900 C   0  0  0  0  0  0  0  0  0  0  0  0
   10.6270    0.7150   23.7210 S   0  0  0  0  0  0  0  0  0  0  0  0
    5.7340    1.1100   20.3840 C   0  0  0  0  0  0  0  0  0  0  0  0
    7.0910   -0.1330   18.9030 C   0  0  0  0  0  0  0  0  0  0  0  0
   10.3050   -1.7530   24.2900 C   0  0  0  0  0  0  0  0  0  0  0  0
   11.0100   -0.6360   24.6800 C   0  0  0  0  0  0  0  0  0  0  0  0
    4.9640    1.4910   19.2820 C   0  0  0  0  0  0  0  0  0  0  0  0
    6.3670    0.2240   17.8300 N   0  0  0  0  0  0  0  0  0  0  0  0
   10.4940   -3.2900   25.0740 S   0  0  0  0  0  0  0  0  0  0  0  0
    5.3190    1.0300   18.0420 C   0  0  0  0  0  0  0  0  0  0  0  0
   11.9120   -3.5200   24.9680 O   0  0  0  0  0  0  0  0  0  0  0  0
    9.8470   -3.1690   26.3360 O   0  0  0  0  0  0  0  0  0  0  0  0
    9.6340   -4.4970   24.3130 N   0  0  0  0  0  0  0  0  0  0  0  0
    9.2940   -5.5970   25.2390 C   0  0  0  0  0  0  0  0  0  0  0  0
    8.4960   -4.1350   23.4190 C   0  0  0  0  0  0  0  0  0  0  0  0
    7.8720   -5.4030   25.7700 C   0  0  0  0  0  0  0  0  0  0  0  0
    7.4440   -5.2480   23.4230 C   0  0  0  0  0  0  0  0  0  0  0  0
    6.8890   -5.4770   24.7250 O   0  0  0  0  0  0  0  0  0  0  0  0
  1  2  2  0
  2  3  1  0
  2  4  1  0
  3  5  1  0
  4  6  2  0
  4  7  1  0
  5  8  2  0
  5  9  1  0
  6 10  1  0
  7 11  1  0
 10 11  2  0
  8 12  1  0
  9 13  2  0
 14 10  1  0
 12 15  2  0
 13 15  1  0
 14 16  2  0
 14 17  2  0
 14 18  1  0
 18 19  1  0
 18 20  1  0
 19 21  1  0
 20 22  1  0
 21 23  1  0
 22 23  1  0
M  END
