KEI-UNI-85a52787-3
     RDKit          3D

 32 35  0  0  0  0  0  0  0  0999 V2000
    6.3160   -2.2690   19.0150 C   0  0  0  0  0  0  0  0  0  0  0  0
    6.0460   -3.2450   20.1450 C   0  0  0  0  0  0  0  0  0  0  0  0
    5.3150   -4.4290   19.7340 O   0  0  0  0  0  0  0  0  0  0  0  0
    6.5130   -3.0500   21.4370 N   0  0  0  0  0  0  0  0  0  0  0  0
    7.2810   -4.1080   22.0710 C   0  0  0  0  0  0  0  0  0  0  0  0
    6.4190   -1.7830   22.1640 C   0  0  0  0  0  0  0  0  0  0  0  0
    8.0160   -3.4430   23.2770 C   0  0  0  0  0  0  0  0  0  0  0  0
    7.3640   -0.8070   21.8610 C   0  0  1  0  0  0  0  0  0  0  0  0
    8.9560   -2.3990   22.7400 N   0  0  0  0  0  0  0  0  0  0  0  0
    8.5610   -1.5400   21.6100 C   0  0  0  0  0  0  0  0  0  0  0  0
    6.8220    0.0140   20.8630 C   0  0  0  0  0  0  0  0  0  0  0  0
   10.4290   -2.4970   23.2070 C   0  0  0  0  0  0  0  0  0  0  0  0
    7.1440   -0.0810   19.5120 C   0  0  0  0  0  0  0  0  0  0  0  0
    5.8740    0.9800   21.2500 C   0  0  0  0  0  0  0  0  0  0  0  0
   10.8570   -1.0290   23.3510 C   0  0  0  0  0  0  0  0  0  0  0  0
    6.5100    0.7760   18.6030 C   0  0  0  0  0  0  0  0  0  0  0  0
    5.2290    1.8390   20.4140 N   0  0  0  0  0  0  0  0  0  0  0  0
   12.3580   -0.8230   23.2340 C   0  0  0  0  0  0  0  0  0  0  0  0
    9.7640   -0.2440   23.5310 C   0  0  0  0  0  0  0  0  0  0  0  0
    5.5710    1.7220   18.9860 C   0  0  0  0  0  0  0  0  0  0  0  0
   12.6070    0.6260   23.3250 C   0  0  0  0  0  0  0  0  0  0  0  0
   10.1990    1.0920   23.5930 C   0  0  0  0  0  0  0  0  0  0  0  0
    9.6410   -1.7140   23.4260 C   0  0  0  0  0  0  0  0  0  0  0  0
   11.5020    1.5800   23.4970 C   0  0  0  0  0  0  0  0  0  0  0  0
    9.1900    1.9720   23.7600 C   0  0  0  0  0  0  0  0  0  0  0  0
   11.6980    2.9750   23.5610 C   0  0  0  0  0  0  0  0  0  0  0  0
    9.3450    3.3110   23.8330 C   0  0  0  0  0  0  0  0  0  0  0  0
   10.6030    3.8120   23.7280 C   0  0  0  0  0  0  0  0  0  0  0  0
   10.8210    5.5630   23.8060 S   0  0  0  0  0  0  0  0  0  0  0  0
    9.5330    6.0000   22.8230 N   0  0  0  0  0  0  0  0  0  0  0  0
   10.4880    6.0030   25.1430 O   0  0  0  0  0  0  0  0  0  0  0  0
   12.0340    5.9810   23.1510 O   0  0  0  0  0  0  0  0  0  0  0  0
  1  2  1  0
  2  3  2  0
  2  4  1  0
  4  5  1  0
  4  6  1  0
  5  7  1  0
  6  8  1  0
  7  9  1  0
  8 10  1  0
  9 10  1  0
  8 11  1  6
  9 12  1  0
 11 13  2  0
 11 14  1  0
 12 15  1  0
 13 16  1  0
 14 17  2  0
 15 18  2  0
 15 19  1  0
 16 20  2  0
 17 20  1  0
 18 21  1  0
 19 22  2  0
 19 23  1  0
 21 24  2  0
 22 24  1  0
 22 25  1  0
 24 26  1  0
 25 27  2  0
 26 28  2  0
 27 28  1  0
 28 29  1  0
 29 30  1  0
 29 31  2  0
 29 32  2  0
M  END
