KEI-UNI-85a52787-4
     RDKit          3D

 31 34  0  0  0  0  0  0  0  0999 V2000
    5.8740   -5.1490   20.6700 C   0  0  0  0  0  0  0  0  0  0  0  0
    5.8040   -3.6830   20.3950 C   0  0  0  0  0  0  0  0  0  0  0  0
    5.2270   -3.4360   19.1130 O   0  0  0  0  0  0  0  0  0  0  0  0
    6.3110   -2.7910   21.3150 N   0  0  0  0  0  0  0  0  0  0  0  0
    7.2230   -3.3680   22.3340 C   0  0  0  0  0  0  0  0  0  0  0  0
    6.5730   -1.3890   20.8820 C   0  0  0  0  0  0  0  0  0  0  0  0
    6.6370   -3.0220   23.7500 C   0  0  0  0  0  0  0  0  0  0  0  0
    6.5820   -0.4440   21.9100 C   0  0  1  0  0  0  0  0  0  0  0  0
    6.7560   -1.5500   23.8720 N   0  0  0  0  0  0  0  0  0  0  0  0
    7.4750   -0.9880   22.7830 C   0  0  0  0  0  0  0  0  0  0  0  0
    6.9410    0.8870   21.7740 C   0  0  0  0  0  0  0  0  0  0  0  0
    7.2070   -1.0130   25.2030 C   0  0  0  0  0  0  0  0  0  0  0  0
    5.9960    1.9020   21.9380 C   0  0  0  0  0  0  0  0  0  0  0  0
    8.2600    1.2460   21.4960 C   0  0  0  0  0  0  0  0  0  0  0  0
    8.5290   -0.5080   24.7590 C   0  0  0  0  0  0  0  0  0  0  0  0
    6.3850    3.2400   21.8340 C   0  0  0  0  0  0  0  0  0  0  0  0
    8.7320    2.5060   21.3750 N   0  0  0  0  0  0  0  0  0  0  0  0
    9.0080    0.9200   25.1050 C   0  0  0  0  0  0  0  0  0  0  0  0
    9.1600   -1.3880   24.0630 C   0  0  0  0  0  0  0  0  0  0  0  0
    7.7120    3.5560   21.5670 C   0  0  0  0  0  0  0  0  0  0  0  0
   10.3810    1.1030   24.4610 C   0  0  0  0  0  0  0  0  0  0  0  0
   10.2920   -1.2020   23.5320 C   0  0  0  0  0  0  0  0  0  0  0  0
    8.6380   -2.6160   23.8430 F   0  0  0  0  0  0  0  0  0  0  0  0
   11.0160   -0.0110   23.6580 C   0  0  0  0  0  0  0  0  0  0  0  0
   10.6060   -2.2920   22.8850 C   0  0  0  0  0  0  0  0  0  0  0  0
   12.2170   -0.0410   23.0210 C   0  0  0  0  0  0  0  0  0  0  0  0
   11.7280   -2.3410   22.2750 C   0  0  0  0  0  0  0  0  0  0  0  0
   12.4700   -1.2450   22.3780 C   0  0  0  0  0  0  0  0  0  0  0  0
   13.5160   -1.5160   21.7920 C   0  0  0  0  0  0  0  0  0  0  0  0
   13.9380   -2.3730   22.9610 N   0  0  0  0  0  0  0  0  0  0  0  0
   13.9680   -1.1630   20.5630 O   0  0  0  0  0  0  0  0  0  0  0  0
  1  2  1  0
  2  3  2  0
  2  4  1  0
  4  5  1  0
  4  6  1  0
  5  7  1  0
  6  8  1  0
  7  9  1  0
  8 10  1  0
  9 10  1  0
  8 11  1  6
  9 12  1  0
 11 13  2  0
 11 14  1  0
 12 15  1  0
 13 16  1  0
 14 17  2  0
 15 18  2  0
 15 19  1  0
 16 20  2  0
 17 20  1  0
 18 21  1  0
 19 22  2  0
 19 23  1  0
 21 24  2  0
 22 24  1  0
 22 25  1  0
 24 26  1  0
 25 27  2  0
 26 28  2  0
 27 28  1  0
 28 29  1  0
 29 30  1  0
 29 31  2  0
M  END
