KEI-TRE-d5e2018a-76
     RDKit          3D

 24 25  0  0  0  0  0  0  0  0999 V2000
   12.9810   -0.1620   23.6630 C   0  0  0  0  0  0  0  0  0  0  0  0
   12.3740   -1.3640   24.3690 C   0  0  0  0  0  0  0  0  0  0  0  0
   13.2330   -2.3200   25.1570 C   0  0  0  0  0  0  0  0  0  0  0  0
   11.0360   -1.5830   24.2650 C   0  0  0  0  0  0  0  0  0  0  0  0
   12.5720   -3.5290   25.8400 C   0  0  0  0  0  0  0  0  0  0  0  0
   10.3790   -2.6410   24.8680 C   0  0  0  0  0  0  0  0  0  0  0  0
   10.4520   -0.6260   23.4240 N   0  0  0  0  0  0  0  0  0  0  0  0
   11.0250   -3.6120   25.6360 C   0  0  0  0  0  0  0  0  0  0  0  0
    9.0490   -0.0750   23.4550 C   0  0  2  0  0  0  0  0  0  0  0  0
   10.6300   -1.5070   22.0060 S   0  0  0  0  0  0  0  0  0  0  0  0
   10.0790   -4.8750   26.3240 Cl  0  0  0  0  0  0  0  0  0  0  0  0
    8.1470   -1.0060   23.9630 C   0  0  0  0  0  0  0  0  0  0  0  0
    8.5830    0.4810   22.0690 C   0  0  0  0  0  0  0  0  0  0  0  0
   12.4060   -1.8040   21.9110 C   0  0  0  0  0  0  0  0  0  0  0  0
   10.0150   -2.7960   22.2380 O   0  0  0  0  0  0  0  0  0  0  0  0
   10.1010   -0.6360   21.0470 O   0  0  0  0  0  0  0  0  0  0  0  0
    9.1670    1.4340   21.5130 O   0  0  0  0  0  0  0  0  0  0  0  0
    7.4870   -0.1710   21.5190 N   0  0  0  0  0  0  0  0  0  0  0  0
    6.7550    0.2550   20.3930 C   0  0  0  0  0  0  0  0  0  0  0  0
    5.6700    1.1080   20.6090 C   0  0  0  0  0  0  0  0  0  0  0  0
    7.0220   -0.0990   19.0850 C   0  0  0  0  0  0  0  0  0  0  0  0
    4.9120    1.5650   19.5100 C   0  0  0  0  0  0  0  0  0  0  0  0
    6.3020    0.3380   18.0350 N   0  0  0  0  0  0  0  0  0  0  0  0
    5.2750    1.1510   18.2410 C   0  0  0  0  0  0  0  0  0  0  0  0
  1  2  1  0
  2  3  2  0
  2  4  1  0
  3  5  1  0
  4  6  2  0
  4  7  1  0
  5  8  2  0
  6  8  1  0
  7  9  1  0
 10  7  1  0
  8 11  1  0
  9 12  1  6
  9 13  1  0
 10 14  1  0
 10 15  2  0
 10 16  2  0
 13 17  2  0
 13 18  1  0
 18 19  1  0
 19 20  2  0
 19 21  1  0
 20 22  1  0
 21 23  2  0
 22 24  2  0
 23 24  1  0
M  END
