KEI-TRE-d5e2018a-70
     RDKit          3D

 27 29  0  0  0  0  0  0  0  0999 V2000
   11.9720    1.5870   23.5190 C   0  0  0  0  0  0  0  0  0  0  0  0
   12.2370    0.1360   23.5710 C   0  0  0  0  0  0  0  0  0  0  0  0
   12.9310   -0.3600   22.4880 C   0  0  0  0  0  0  0  0  0  0  0  0
   11.8320   -0.7370   24.6000 C   0  0  0  0  0  0  0  0  0  0  0  0
   13.2370   -1.6810   22.3750 C   0  0  0  0  0  0  0  0  0  0  0  0
   12.1620   -2.0790   24.4710 C   0  0  0  0  0  0  0  0  0  0  0  0
   11.1150   -0.3760   25.7930 N   0  0  0  0  0  0  0  0  0  0  0  0
   12.8560   -2.5340   23.3700 C   0  0  0  0  0  0  0  0  0  0  0  0
    9.5060    0.0730   26.2290 S   0  0  0  0  0  0  0  0  0  0  0  0
    9.1030   -0.3830   27.5340 O   0  0  0  0  0  0  0  0  0  0  0  0
    9.3290    1.4690   26.0010 O   0  0  0  0  0  0  0  0  0  0  0  0
    8.4830   -0.4520   24.9910 C   0  0  0  0  0  0  0  0  0  0  0  0
    8.9060    0.0860   23.7960 C   0  0  0  0  0  0  0  0  0  0  0  0
    7.3480   -1.2800   25.1060 C   0  0  0  0  0  0  0  0  0  0  0  0
    8.1820   -0.2090   22.7020 C   0  0  0  0  0  0  0  0  0  0  0  0
    6.6430   -1.5740   23.9530 C   0  0  0  0  0  0  0  0  0  0  0  0
    6.6750   -1.9900   26.5260 Cl  0  0  0  0  0  0  0  0  0  0  0  0
    8.4840    0.3100   21.4130 C   0  0  0  0  0  0  0  0  0  0  0  0
    7.0590   -1.0380   22.7510 C   0  0  0  0  0  0  0  0  0  0  0  0
    9.2080    1.2890   21.2530 O   0  0  0  0  0  0  0  0  0  0  0  0
    7.7940   -0.4040   20.5160 N   0  0  0  0  0  0  0  0  0  0  0  0
    6.8110    0.1800   19.7690 C   0  0  0  0  0  0  0  0  0  0  0  0
    5.6040    0.5490   20.3530 C   0  0  0  0  0  0  0  0  0  0  0  0
    6.9840    0.4270   18.4600 C   0  0  0  0  0  0  0  0  0  0  0  0
    4.6460    1.1610   19.5640 C   0  0  0  0  0  0  0  0  0  0  0  0
    6.0860    1.0110   17.6740 N   0  0  0  0  0  0  0  0  0  0  0  0
    4.9450    1.3680   18.2400 C   0  0  0  0  0  0  0  0  0  0  0  0
  1  2  1  0
  2  3  2  0
  2  4  1  0
  3  5  1  0
  4  6  2  0
  4  7  1  0
  5  8  2  0
  6  8  1  0
  9  7  1  0
  9 10  2  0
  9 11  2  0
  9 12  1  0
 12 13  2  0
 12 14  1  0
 13 15  1  0
 14 16  2  0
 14 17  1  0
 15 18  1  0
 15 19  2  0
 16 19  1  0
 18 20  2  0
 18 21  1  0
 21 22  1  0
 22 23  2  0
 22 24  1  0
 23 25  1  0
 24 26  2  0
 25 27  2  0
 26 27  1  0
M  END
