KEI-TRE-d5e2018a-85
     RDKit          3D

 25 27  0  0  0  0  0  0  0  0999 V2000
    9.2010    1.5530   21.4370 O   0  0  0  0  0  0  0  0  0  0  0  0
    8.9760    0.3600   21.6640 C   0  0  0  0  0  0  0  0  0  0  0  0
    9.9660   -0.5840   22.3470 C   0  0  0  0  0  0  0  0  0  0  0  0
    7.7900   -0.2730   21.3220 N   0  0  0  0  0  0  0  0  0  0  0  0
   11.2910   -0.1540   22.3940 N   0  0  0  0  0  0  0  0  0  0  0  0
    6.9200    0.1760   20.2430 C   0  0  0  0  0  0  0  0  0  0  0  0
   12.4420   -1.0590   22.1990 C   0  0  0  0  0  0  0  0  0  0  0  0
   11.8460    0.7110   23.4020 C   0  0  0  0  0  0  0  0  0  0  0  0
    5.8050    1.1530   20.6070 C   0  0  0  0  0  0  0  0  0  0  0  0
    7.0450   -0.2240   18.9250 C   0  0  0  0  0  0  0  0  0  0  0  0
   12.9550   -1.4810   21.1790 O   0  0  0  0  0  0  0  0  0  0  0  0
   12.9490   -1.4770   23.5510 C   0  0  0  0  0  0  0  0  0  0  0  0
   12.3930   -0.3660   24.7240 S   0  0  0  0  0  0  0  0  0  0  0  0
   11.9830    2.3560   23.2430 S   0  0  0  0  0  0  0  0  0  0  0  0
    4.9220    1.6150   19.4830 C   0  0  0  0  0  0  0  0  0  0  0  0
    6.2620    0.1820   17.9040 N   0  0  0  0  0  0  0  0  0  0  0  0
   13.6670   -2.6320   23.5790 C   0  0  0  0  0  0  0  0  0  0  0  0
    5.2350    1.0590   18.1050 C   0  0  0  0  0  0  0  0  0  0  0  0
   14.1640   -3.4080   24.5840 C   0  0  0  0  0  0  0  0  0  0  0  0
   13.4800   -3.5190   25.7330 C   0  0  0  0  0  0  0  0  0  0  0  0
   15.4350   -4.2750   24.4480 C   0  0  0  0  0  0  0  0  0  0  0  0
   13.8990   -4.4100   26.6530 C   0  0  0  0  0  0  0  0  0  0  0  0
   15.7510   -5.1560   25.4110 C   0  0  0  0  0  0  0  0  0  0  0  0
   14.9720   -5.2210   26.4750 C   0  0  0  0  0  0  0  0  0  0  0  0
   17.2030   -6.3050   25.3210 Br  0  0  0  0  0  0  0  0  0  0  0  0
  1  2  2  0
  2  3  1  0
  2  4  1  0
  3  5  1  0
  4  6  1  0
  5  7  1  0
  5  8  1  0
  6  9  2  0
  6 10  1  0
  7 11  2  0
  7 12  1  0
  8 13  1  0
 12 13  1  0
  8 14  2  0
  9 15  1  0
 10 16  2  0
 12 17  2  3
 15 18  2  0
 16 18  1  0
 17 19  1  0
 19 20  2  0
 19 21  1  0
 20 22  1  0
 21 23  2  0
 22 24  2  0
 23 24  1  0
 23 25  1  0
M  END
