KEI-TRE-d5e2018a-68
     RDKit          3D

 23 25  0  0  0  0  0  0  0  0999 V2000
   13.5690   -2.1900   25.2190 C   0  0  0  0  0  0  0  0  0  0  0  0
   13.4650   -1.9600   23.7380 C   0  0  0  0  0  0  0  0  0  0  0  0
   13.9950   -2.6120   22.8940 O   0  0  0  0  0  0  0  0  0  0  0  0
   12.4740   -0.8900   23.4540 C   0  0  0  0  0  0  0  0  0  0  0  0
   11.3200   -1.5420   23.5880 C   0  0  0  0  0  0  0  0  0  0  0  0
   12.3580    0.4770   23.1180 C   0  0  0  0  0  0  0  0  0  0  0  0
   10.4730   -0.4240   23.3210 N   0  0  0  0  0  0  0  0  0  0  0  0
   10.9950    0.7810   23.0490 C   0  0  0  0  0  0  0  0  0  0  0  0
   13.2600    1.4760   22.8730 C   0  0  0  0  0  0  0  0  0  0  0  0
    9.2540   -1.0480   23.4590 C   0  0  0  0  0  0  0  0  0  0  0  0
   10.4840    2.0600   22.7640 C   0  0  0  0  0  0  0  0  0  0  0  0
   12.8620    2.7920   22.5850 C   0  0  0  0  0  0  0  0  0  0  0  0
    8.9350   -1.4570   22.1790 C   0  0  0  0  0  0  0  0  0  0  0  0
   11.3960    3.0780   22.5360 C   0  0  0  0  0  0  0  0  0  0  0  0
    8.4180   -0.1390   21.6700 C   0  0  0  0  0  0  0  0  0  0  0  0
    9.0780    0.8620   21.4210 O   0  0  0  0  0  0  0  0  0  0  0  0
    6.9590   -0.3730   21.5550 N   0  0  0  0  0  0  0  0  0  0  0  0
    6.4380    0.1620   20.3080 C   0  0  0  0  0  0  0  0  0  0  0  0
    5.2150    1.0650   20.4180 C   0  0  0  0  0  0  0  0  0  0  0  0
    7.0110   -0.1230   19.0750 C   0  0  0  0  0  0  0  0  0  0  0  0
    4.6990    1.6120   19.0970 C   0  0  0  0  0  0  0  0  0  0  0  0
    6.5180    0.4040   17.8130 N   0  0  0  0  0  0  0  0  0  0  0  0
    5.3470    1.2710   17.9280 C   0  0  0  0  0  0  0  0  0  0  0  0
  1  2  1  0
  2  3  2  0
  2  4  1  0
  4  5  2  0
  4  6  1  0
  5  7  1  0
  6  8  2  0
  7  8  1  0
  6  9  1  0
  7 10  1  0
  8 11  1  0
  9 12  2  0
 10 13  1  0
 11 14  2  0
 12 14  1  0
 13 15  1  0
 15 16  2  0
 15 17  1  0
 17 18  1  0
 18 19  2  0
 18 20  1  0
 19 21  1  0
 20 22  2  0
 21 23  2  0
 22 23  1  0
M  END
