KEI-TRE-d5e2018a-47
     RDKit          3D

 24 25  0  0  0  0  0  0  0  0999 V2000
    8.5340   -2.1730   22.9700 C   0  0  0  0  0  0  0  0  0  0  0  0
    8.8710   -0.7130   23.3040 C   0  0  2  0  0  0  0  0  0  0  0  0
    8.4760    0.1200   22.0650 C   0  0  0  0  0  0  0  0  0  0  0  0
   10.3020   -0.6160   23.6750 N   0  0  0  0  0  0  0  0  0  0  0  0
    9.0760    1.0960   21.6290 O   0  0  0  0  0  0  0  0  0  0  0  0
    7.3330   -0.3740   21.4640 N   0  0  0  0  0  0  0  0  0  0  0  0
   10.8350   -1.6750   24.4360 C   0  0  0  0  0  0  0  0  0  0  0  0
   11.2680   -0.4550   22.3570 S   0  0  0  0  0  0  0  0  0  0  0  0
    6.6610    0.1420   20.3920 C   0  0  0  0  0  0  0  0  0  0  0  0
    9.9630   -2.7630   25.0540 C   0  0  0  0  0  0  0  0  0  0  0  0
   12.1980   -1.7300   24.6010 C   0  0  0  0  0  0  0  0  0  0  0  0
   12.5460   -1.7240   22.3760 C   0  0  0  0  0  0  0  0  0  0  0  0
   11.9130    0.8390   22.4730 O   0  0  0  0  0  0  0  0  0  0  0  0
   10.3870   -0.8060   21.2860 O   0  0  0  0  0  0  0  0  0  0  0  0
    5.4450    1.0610   20.4890 C   0  0  0  0  0  0  0  0  0  0  0  0
    7.0810   -0.1700   19.1090 C   0  0  0  0  0  0  0  0  0  0  0  0
   10.6240   -3.8590   25.8070 C   0  0  0  0  0  0  0  0  0  0  0  0
   12.8410   -2.8780   25.3750 C   0  0  0  0  0  0  0  0  0  0  0  0
   13.1600   -0.5080   23.9200 Cl  0  0  0  0  0  0  0  0  0  0  0  0
    4.8550    1.5220   19.1930 C   0  0  0  0  0  0  0  0  0  0  0  0
    6.5120    0.2800   17.9650 N   0  0  0  0  0  0  0  0  0  0  0  0
    9.6470   -5.0930   26.5090 Cl  0  0  0  0  0  0  0  0  0  0  0  0
   12.0230   -3.8880   25.9420 C   0  0  0  0  0  0  0  0  0  0  0  0
    5.4450    1.0910   18.0140 C   0  0  0  0  0  0  0  0  0  0  0  0
  2  1  1  6
  2  3  1  0
  2  4  1  0
  3  5  2  0
  3  6  1  0
  4  7  1  0
  8  4  1  0
  6  9  1  0
  7 10  2  0
  7 11  1  0
  8 12  1  0
  8 13  2  0
  8 14  2  0
  9 15  2  0
  9 16  1  0
 10 17  1  0
 11 18  2  0
 11 19  1  0
 15 20  1  0
 16 21  2  0
 17 22  1  0
 17 23  2  0
 18 23  1  0
 20 24  2  0
 21 24  1  0
M  END
