KEI-TRE-d5e2018a-92
     RDKit          3D

 25 26  0  0  0  0  0  0  0  0999 V2000
    4.4150   -1.2100   30.6200 C   0  0  0  0  0  0  0  0  0  0  0  0
    5.5240   -1.9490   30.1120 O   0  0  0  0  0  0  0  0  0  0  0  0
    6.2190   -1.3150   29.1190 C   0  0  0  0  0  0  0  0  0  0  0  0
    5.6990   -0.9200   27.8870 C   0  0  0  0  0  0  0  0  0  0  0  0
    7.5620   -1.0510   29.4000 C   0  0  0  0  0  0  0  0  0  0  0  0
    6.5080   -0.2630   26.9580 C   0  0  0  0  0  0  0  0  0  0  0  0
    8.3690   -0.3990   28.4730 C   0  0  0  0  0  0  0  0  0  0  0  0
    7.8460    0.0070   27.2470 C   0  0  0  0  0  0  0  0  0  0  0  0
    8.6000    0.7090   26.2350 N   0  0  0  0  0  0  0  0  0  0  0  0
    9.4660   -0.1180   25.3360 C   0  0  0  0  0  0  0  0  0  0  0  0
    7.7390    1.9790   25.4770 S   0  0  0  0  0  0  0  0  0  0  0  0
    9.7400    0.6160   24.0280 C   0  0  0  0  0  0  0  0  0  0  0  0
    6.6060    2.4680   26.7600 C   0  0  0  0  0  0  0  0  0  0  0  0
    8.6500    3.0830   25.2590 O   0  0  0  0  0  0  0  0  0  0  0  0
    6.9720    1.4470   24.3730 O   0  0  0  0  0  0  0  0  0  0  0  0
    9.4570   -0.3010   22.8480 C   0  0  0  0  0  0  0  0  0  0  0  0
    8.7830    0.4370   21.6970 C   0  0  0  0  0  0  0  0  0  0  0  0
    9.1920    1.5270   21.2880 O   0  0  0  0  0  0  0  0  0  0  0  0
    7.6860   -0.2500   21.2040 N   0  0  0  0  0  0  0  0  0  0  0  0
    6.8330    0.2220   20.1930 C   0  0  0  0  0  0  0  0  0  0  0  0
    5.7410    1.0560   20.3970 C   0  0  0  0  0  0  0  0  0  0  0  0
    7.0860   -0.1570   18.8890 C   0  0  0  0  0  0  0  0  0  0  0  0
    4.9680    1.4740   19.3120 C   0  0  0  0  0  0  0  0  0  0  0  0
    6.3570    0.2350   17.8290 N   0  0  0  0  0  0  0  0  0  0  0  0
    5.3180    1.0400   18.0580 C   0  0  0  0  0  0  0  0  0  0  0  0
  1  2  1  0
  2  3  1  0
  3  4  2  0
  3  5  1  0
  4  6  1  0
  5  7  2  0
  6  8  2  0
  7  8  1  0
  8  9  1  0
  9 10  1  0
 11  9  1  0
 10 12  1  0
 11 13  1  0
 11 14  2  0
 11 15  2  0
 12 16  1  0
 16 17  1  0
 17 18  2  0
 17 19  1  0
 19 20  1  0
 20 21  2  0
 20 22  1  0
 21 23  1  0
 22 24  2  0
 23 25  2  0
 24 25  1  0
M  END
