KUS-THE-322b9b63-24
     RDKit          3D

 29 32  0  0  0  0  0  0  0  0999 V2000
    4.8500   -3.9590   21.4430 O   0  0  0  0  0  0  0  0  0  0  0  0
    5.6520   -4.4780   22.2040 C   0  0  0  0  0  0  0  0  0  0  0  0
    5.4020   -5.8920   22.6610 C   0  0  0  0  0  0  0  0  0  0  0  0
    6.7740   -3.8900   22.7060 N   0  0  0  0  0  0  0  0  0  0  0  0
    4.6980   -6.0750   24.0170 C   0  0  0  0  0  0  0  0  0  0  0  0
    7.1410   -4.2130   23.9560 C   0  0  0  0  0  0  0  0  0  0  0  0
    6.9070   -2.4570   22.4480 C   0  0  0  0  0  0  0  0  0  0  0  0
    5.4320   -5.3060   25.0950 C   0  0  0  0  0  0  0  0  0  0  0  0
    6.0260   -4.0690   24.7770 C   0  0  0  0  0  0  0  0  0  0  0  0
    8.3550   -1.9960   22.5050 C   0  0  0  0  0  0  0  0  0  0  0  0
    8.8430   -0.8370   21.8160 C   0  0  0  0  0  0  0  0  0  0  0  0
    9.5400    0.0750   22.5780 N   0  0  0  0  0  0  0  0  0  0  0  0
   10.8560    0.0930   23.1300 C   0  0  0  0  0  0  0  0  0  0  0  0
    9.0060    1.3690   23.0290 C   0  0  0  0  0  0  0  0  0  0  0  0
   11.8480   -1.0460   22.9680 C   0  0  0  0  0  0  0  0  0  0  0  0
   11.2050    1.1890   23.8280 N   0  0  0  0  0  0  0  0  0  0  0  0
   10.0530    1.9870   23.7670 N   0  0  0  0  0  0  0  0  0  0  0  0
    7.6570    1.8500   22.7380 N   0  0  0  0  0  0  0  0  0  0  0  0
   12.1170   -1.8300   21.8970 C   0  0  0  0  0  0  0  0  0  0  0  0
   12.5850   -1.3370   24.0810 N   0  0  0  0  0  0  0  0  0  0  0  0
    6.7480    0.8840   22.9680 C   0  0  0  0  0  0  0  0  0  0  0  0
    7.3740    3.0020   23.3770 C   0  0  0  0  0  0  0  0  0  0  0  0
   13.1620   -2.7330   22.3900 C   0  0  0  0  0  0  0  0  0  0  0  0
   13.4230   -2.4020   23.7360 C   0  0  0  0  0  0  0  0  0  0  0  0
    5.9880    1.1270   24.0920 C   0  0  0  0  0  0  0  0  0  0  0  0
    7.4740    2.8230   24.7520 C   0  0  0  0  0  0  0  0  0  0  0  0
    6.7180    1.5650   25.2100 C   0  0  0  0  0  0  0  0  0  0  0  0
    7.5990    0.6590   25.8260 C   0  0  0  0  0  0  0  0  0  0  0  0
    7.3190    0.5270   27.2260 O   0  0  0  0  0  0  0  0  0  0  0  0
  1  2  2  0
  2  3  1  0
  2  4  1  0
  3  5  1  0
  4  6  1  0
  4  7  1  0
  5  8  1  0
  6  9  1  0
  8  9  1  0
  7 10  1  0
 10 11  1  0
 11 12  1  0
 12 13  1  0
 12 14  1  0
 13 15  1  0
 13 16  2  0
 14 17  2  0
 16 17  1  0
 14 18  1  0
 15 19  2  0
 15 20  1  0
 18 21  1  0
 18 22  1  0
 19 23  1  0
 20 24  1  0
 23 24  2  0
 21 25  1  0
 22 26  1  0
 25 27  1  0
 26 27  1  0
 27 28  1  0
 28 29  1  0
M  END
