KUS-THE-322b9b63-18
     RDKit          3D

 24 27  0  0  0  0  0  0  0  0999 V2000
    4.2150    0.2920   20.3500 C   0  0  0  0  0  0  0  0  0  0  0  0
    5.4890    0.1170   19.8150 C   0  0  1  0  0  0  0  0  0  0  0  0
    6.2550    1.4050   19.4960 C   0  0  0  0  0  0  0  0  0  0  0  0
    6.5650   -0.4040   20.7380 C   0  0  2  0  0  0  0  0  0  0  0  0
    7.6210    1.0160   20.0080 N   0  0  0  0  0  0  0  0  0  0  0  0
    7.5350   -0.3900   19.8410 C   0  0  0  0  0  0  0  0  0  0  0  0
    6.6800   -1.6010   21.4720 N   0  0  0  0  0  0  0  0  0  0  0  0
    8.1940    1.3520   21.3340 C   0  0  0  0  0  0  0  0  0  0  0  0
    7.7240   -1.5420   22.4270 C   0  0  0  0  0  0  0  0  0  0  0  0
    7.4810    2.0990   22.0090 O   0  0  0  0  0  0  0  0  0  0  0  0
    9.6030    0.9650   22.0510 C   0  0  0  0  0  0  0  0  0  0  0  0
    7.3590   -1.6300   23.9060 C   0  0  0  0  0  0  0  0  0  0  0  0
   10.3810    2.0260   22.5840 N   0  0  0  0  0  0  0  0  0  0  0  0
   10.4130   -0.2330   22.3630 C   0  0  0  0  0  0  0  0  0  0  0  0
    6.7220   -2.6460   24.5300 N   0  0  0  0  0  0  0  0  0  0  0  0
    7.7110   -0.5140   24.7990 C   0  0  0  0  0  0  0  0  0  0  0  0
   11.5110    1.4920   23.1240 N   0  0  0  0  0  0  0  0  0  0  0  0
   11.5470    0.1960   23.0060 C   0  0  0  0  0  0  0  0  0  0  0  0
   10.5490   -1.6380   22.2890 C   0  0  0  0  0  0  0  0  0  0  0  0
    6.5450   -2.4100   25.8270 N   0  0  0  0  0  0  0  0  0  0  0  0
    7.1590   -0.9290   26.3470 S   0  0  0  0  0  0  0  0  0  0  0  0
    8.5090    0.9720   24.5210 Cl  0  0  0  0  0  0  0  0  0  0  0  0
   11.8230   -1.9630   22.7810 C   0  0  0  0  0  0  0  0  0  0  0  0
   12.4000   -0.8420   23.3380 C   0  0  0  0  0  0  0  0  0  0  0  0
  2  1  1  1
  2  3  1  0
  2  4  1  0
  3  5  1  0
  4  6  1  0
  5  6  1  0
  4  7  1  6
  5  8  1  0
  7  9  1  0
  8 10  2  0
  8 11  1  0
  9 12  1  0
 11 13  2  0
 11 14  1  0
 12 15  1  0
 12 16  2  0
 13 17  1  0
 14 18  2  0
 17 18  1  0
 14 19  1  0
 15 20  2  0
 16 21  1  0
 20 21  1  0
 16 22  1  0
 19 23  1  0
 18 24  1  0
 23 24  1  0
M  END
