KUS-THE-322b9b63-22
     RDKit          3D

 25 28  0  0  0  0  0  0  0  0999 V2000
    5.9310    1.0340   18.5220 C   0  0  0  0  0  0  0  0  0  0  0  0
    6.8090    0.3750   19.5610 C   0  0  0  0  0  0  0  0  0  0  0  0
    7.2850    1.0750   20.7430 N   0  0  0  0  0  0  0  0  0  0  0  0
    7.3530   -1.2860   19.4650 S   0  0  0  0  0  0  0  0  0  0  0  0
    8.0590    0.2060   21.4980 N   0  0  0  0  0  0  0  0  0  0  0  0
    8.1950   -1.0760   20.9720 C   0  0  0  0  0  0  0  0  0  0  0  0
    8.9790   -2.2500   21.5800 C   0  0  0  0  0  0  0  0  0  0  0  0
    8.9280   -1.9830   23.0370 N   0  0  0  0  0  0  0  0  0  0  0  0
    7.9540   -2.5750   23.9270 C   0  0  0  0  0  0  0  0  0  0  0  0
    9.7640   -1.1610   23.8400 C   0  0  0  0  0  0  0  0  0  0  0  0
    6.9880   -3.4990   23.4910 C   0  0  1  0  0  0  0  0  0  0  0  0
    8.1720   -2.0830   25.1220 N   0  0  0  0  0  0  0  0  0  0  0  0
    9.2680   -1.2230   25.1010 N   0  0  0  0  0  0  0  0  0  0  0  0
   10.8240   -0.5280   23.2850 N   0  0  0  0  0  0  0  0  0  0  0  0
    5.8250   -3.2680   24.1630 C   0  0  0  0  0  0  0  0  0  0  0  0
    6.8060   -3.7340   22.1650 N   0  0  0  0  0  0  0  0  0  0  0  0
   11.3900    0.6990   23.9190 C   0  0  0  0  0  0  0  0  0  0  0  0
   11.8760   -1.5760   23.1430 C   0  0  0  0  0  0  0  0  0  0  0  0
    4.9160   -3.3960   23.0450 C   0  0  0  0  0  0  0  0  0  0  0  0
    5.5420   -3.7370   21.8450 C   0  0  0  0  0  0  0  0  0  0  0  0
   12.3950    1.1770   23.0680 C   0  0  0  0  0  0  0  0  0  0  0  0
   12.8910   -1.1120   22.3560 C   0  0  0  0  0  0  0  0  0  0  0  0
    5.0250   -3.9920   20.7800 O   0  0  0  0  0  0  0  0  0  0  0  0
   13.3280    0.1330   22.6840 N   0  0  0  0  0  0  0  0  0  0  0  0
   13.3760   -1.7370   21.4140 O   0  0  0  0  0  0  0  0  0  0  0  0
  1  2  1  0
  2  3  2  0
  2  4  1  0
  3  5  1  0
  4  6  1  0
  5  6  2  0
  6  7  1  0
  7  8  1  0
  8  9  1  0
  8 10  1  0
 11  9  1  6
  9 12  2  0
 10 13  2  0
 12 13  1  0
 10 14  1  0
 11 15  1  0
 11 16  1  0
 14 17  1  0
 14 18  1  0
 15 19  1  0
 16 20  1  0
 19 20  1  0
 17 21  1  0
 18 22  1  0
 20 23  2  0
 21 24  1  0
 22 24  1  0
 22 25  2  0
M  END
