LAU-FAC-e2c8b4ad-1
     RDKit          3D

 23 24  0  0  0  0  0  0  0  0999 V2000
    9.6270   -2.1560   22.3570 C   0  0  0  0  0  0  0  0  0  0  0  0
    8.5090   -2.2590   23.3980 C   0  0  0  0  0  0  0  0  0  0  0  0
    8.0360   -3.3360   23.7670 O   0  0  0  0  0  0  0  0  0  0  0  0
    8.0680   -1.0520   23.9000 N   0  0  0  0  0  0  0  0  0  0  0  0
    8.5050    0.2090   23.4290 C   0  0  2  0  0  0  0  0  0  0  0  0
    8.3990    0.4660   21.9230 C   0  0  0  0  0  0  0  0  0  0  0  0
    9.9300    0.5270   23.8950 C   0  0  1  0  0  0  0  0  0  0  0  0
    8.9770    1.4280   21.3740 O   0  0  0  0  0  0  0  0  0  0  0  0
    7.6390   -0.4090   21.2970 N   0  0  0  0  0  0  0  0  0  0  0  0
   10.4380   -0.3970   24.7980 C   0  0  0  0  0  0  0  0  0  0  0  0
   10.7060    0.3520   22.7350 O   0  0  0  0  0  0  0  0  0  0  0  0
    6.7910    0.1780   20.2500 C   0  0  0  0  0  0  0  0  0  0  0  0
   12.0450    0.3480   23.0780 C   0  0  0  0  0  0  0  0  0  0  0  0
    5.6300    1.1060   20.5290 C   0  0  0  0  0  0  0  0  0  0  0  0
    6.9550   -0.0440   18.8830 C   0  0  0  0  0  0  0  0  0  0  0  0
   12.4390   -0.8690   22.7530 C   0  0  0  0  0  0  0  0  0  0  0  0
    5.0320    1.4890   19.2150 C   0  0  0  0  0  0  0  0  0  0  0  0
    5.7960    0.8000   17.8790 S   0  0  0  0  0  0  0  0  0  0  0  0
   13.3800   -1.4640   23.5290 C   0  0  0  0  0  0  0  0  0  0  0  0
   11.9040   -1.5050   21.6430 C   0  0  0  0  0  0  0  0  0  0  0  0
   13.8000   -2.6720   23.1180 C   0  0  0  0  0  0  0  0  0  0  0  0
   12.3650   -2.6740   21.2570 C   0  0  0  0  0  0  0  0  0  0  0  0
   13.3120   -3.2280   21.9810 C   0  0  0  0  0  0  0  0  0  0  0  0
  1  2  1  0
  2  3  2  0
  2  4  1  0
  5  4  1  6
  5  6  1  0
  5  7  1  0
  6  8  2  0
  6  9  1  0
  7 10  1  1
  7 11  1  0
  9 12  1  0
 11 13  1  0
 12 14  1  0
 12 15  2  0
 13 16  1  0
 14 17  2  0
 15 18  1  0
 17 18  1  0
 16 19  2  0
 16 20  1  0
 19 21  1  0
 20 22  2  0
 21 23  2  0
 22 23  1  0
M  END
