LAU-FAC-8471e121-1
     RDKit          3D

 20 20  0  0  0  0  0  0  0  0999 V2000
   13.3230    5.1960   23.0370 C   0  0  0  0  0  0  0  0  0  0  0  0
   12.1160    4.5710   21.8620 S   0  0  0  0  0  0  0  0  0  0  0  0
   11.1140    3.5710   22.9300 C   0  0  0  0  0  0  0  0  0  0  0  0
   11.5940    2.5920   23.4920 O   0  0  0  0  0  0  0  0  0  0  0  0
    9.6230    3.9390   23.1580 C   0  0  2  0  0  0  0  0  0  0  0  0
    8.7790    3.3630   22.0690 N   0  0  0  0  0  0  0  0  0  0  0  0
    9.3740    5.4630   23.3510 C   0  0  1  0  0  0  0  0  0  0  0  0
    9.1630    1.9740   21.7770 C   0  0  0  0  0  0  0  0  0  0  0  0
   10.6180    6.3390   23.4190 C   0  0  0  0  0  0  0  0  0  0  0  0
    8.5340    5.9750   22.3220 O   0  0  0  0  0  0  0  0  0  0  0  0
    8.1410    0.9640   22.1360 C   0  0  0  0  0  0  0  0  0  0  0  0
    7.0180    1.2500   22.5700 O   0  0  0  0  0  0  0  0  0  0  0  0
    8.5920   -0.4290   21.9250 C   0  0  0  0  0  0  0  0  0  0  0  0
    8.9840   -0.9540   23.2790 C   0  0  0  0  0  0  0  0  0  0  0  0
   10.4690   -1.0850   23.4180 C   0  0  0  0  0  0  0  0  0  0  0  0
   11.0790   -0.6880   24.6180 C   0  0  0  0  0  0  0  0  0  0  0  0
   11.2460   -1.6060   22.3750 C   0  0  0  0  0  0  0  0  0  0  0  0
   12.4460   -0.8210   24.7700 C   0  0  0  0  0  0  0  0  0  0  0  0
   12.6160   -1.7370   22.5380 C   0  0  0  0  0  0  0  0  0  0  0  0
   13.1920   -1.3470   23.7360 C   0  0  0  0  0  0  0  0  0  0  0  0
  1  2  1  0
  2  3  1  0
  3  4  2  0
  3  5  1  0
  5  6  1  6
  5  7  1  0
  6  8  1  0
  7  9  1  6
  7 10  1  0
  8 11  1  0
 11 12  2  0
 11 13  1  0
 13 14  1  0
 14 15  1  0
 15 16  2  0
 15 17  1  0
 16 18  1  0
 17 19  2  0
 18 20  2  0
 19 20  1  0
M  END
