LEO-EVO-0d2ed6fc-5
     RDKit          3D

 29 32  0  0  0  0  0  0  0  0999 V2000
    5.4060    4.0070   21.2110 C   0  0  0  0  0  0  0  0  0  0  0  0
    5.9090    3.3140   22.4640 C   0  0  0  0  0  0  0  0  0  0  0  0
    4.9800    3.0310   23.5480 O   0  0  0  0  0  0  0  0  0  0  0  0
    7.4070    2.9500   22.6860 C   0  0  0  0  0  0  0  0  0  0  0  0
    8.0290    4.3640   22.9250 C   0  0  0  0  0  0  0  0  0  0  0  0
    8.0930    1.6770   22.6910 C   0  0  0  0  0  0  0  0  0  0  0  0
    9.5090    4.2590   23.1840 C   0  0  0  0  0  0  0  0  0  0  0  0
    9.4970    1.7610   22.9720 C   0  0  0  0  0  0  0  0  0  0  0  0
    7.3850    0.3980   22.4290 N   0  0  0  0  0  0  0  0  0  0  0  0
   10.1720    3.0410   23.2060 N   0  0  0  0  0  0  0  0  0  0  0  0
   10.5900    0.6800   23.1160 C   0  0  0  0  0  0  0  0  0  0  0  0
    7.7340   -0.8400   23.1360 C   0  0  0  0  0  0  0  0  0  0  0  0
    6.8520    0.3360   21.0950 C   0  0  0  0  0  0  0  0  0  0  0  0
   11.9150    1.3120   22.7540 C   0  0  0  0  0  0  0  0  0  0  0  0
   10.5370   -0.6450   23.5190 C   0  0  0  0  0  0  0  0  0  0  0  0
    8.4900   -1.8270   22.2820 C   0  0  0  0  0  0  0  0  0  0  0  0
    7.4360   -1.0750   24.3060 O   0  0  0  0  0  0  0  0  0  0  0  0
    7.5090   -0.3850   19.9600 C   0  0  0  0  0  0  0  0  0  0  0  0
    5.6760    0.9070   20.5830 C   0  0  0  0  0  0  0  0  0  0  0  0
   13.1210    0.4000   22.8600 C   0  0  0  0  0  0  0  0  0  0  0  0
   11.6830   -1.4280   23.6030 C   0  0  0  0  0  0  0  0  0  0  0  0
    6.7320   -0.1810   18.8560 N   0  0  0  0  0  0  0  0  0  0  0  0
    5.5650    0.6270   19.2070 C   0  0  0  0  0  0  0  0  0  0  0  0
    4.7080    1.6510   21.2300 C   0  0  0  0  0  0  0  0  0  0  0  0
   12.9440   -0.9280   23.2800 C   0  0  0  0  0  0  0  0  0  0  0  0
   11.5390   -3.0340   24.1220 Cl  0  0  0  0  0  0  0  0  0  0  0  0
    4.4990    1.0630   18.3250 N   0  0  0  0  0  0  0  0  0  0  0  0
    3.6460    2.1160   20.4980 N   0  0  0  0  0  0  0  0  0  0  0  0
    3.5940    1.8020   19.0680 C   0  0  0  0  0  0  0  0  0  0  0  0
  1  2  1  0
  2  3  2  0
  2  4  1  0
  4  5  2  0
  4  6  1  0
  5  7  1  0
  6  8  2  0
  6  9  1  0
  7 10  2  0
  8 10  1  0
  8 11  1  0
  9 12  1  0
  9 13  1  0
 11 14  2  0
 11 15  1  0
 12 16  1  0
 12 17  2  0
 13 18  2  0
 13 19  1  0
 14 20  1  0
 15 21  2  0
 18 22  1  0
 19 23  2  0
 22 23  1  0
 19 24  1  0
 20 25  2  0
 21 25  1  0
 21 26  1  0
 23 27  1  0
 24 28  2  0
 27 29  2  0
 28 29  1  0
M  END
