LIZ-THE-60d741c6-1
     RDKit          3D

 16 17  0  0  0  0  0  0  0  0999 V2000
   11.4560    0.4750   24.1310 C   0  0  0  0  0  0  0  0  0  0  0  0
   10.1490    0.1020   24.8050 C   0  0  0  0  0  0  0  0  0  0  0  0
   10.0470   -0.0560   26.0180 O   0  0  0  0  0  0  0  0  0  0  0  0
    9.0300   -0.0890   23.9940 C   0  0  2  0  0  0  0  0  0  0  0  0
    7.7960   -0.8360   24.5660 C   0  0  0  0  0  0  0  0  0  0  0  0
    9.4760   -0.8750   22.7840 C   0  0  0  0  0  0  0  0  0  0  0  0
    7.8440   -2.3250   24.4080 N   0  0  0  0  0  0  0  0  0  0  0  0
    8.2820   -1.3720   22.2630 C   0  0  2  0  0  0  0  0  0  0  0  0
    7.9390   -2.6580   23.0060 C   0  0  2  0  0  0  0  0  0  0  0  0
    8.0290   -1.7530   20.9900 C   0  0  0  0  0  0  0  0  0  0  0  0
    6.8100   -3.2240   22.3510 C   0  0  0  0  0  0  0  0  0  0  0  0
    6.6730   -2.2820   21.2190 N   0  0  0  0  0  0  0  0  0  0  0  0
    5.9350   -2.7810   20.0380 C   0  0  0  0  0  0  0  0  0  0  0  0
    6.2130   -1.9360   18.8280 C   0  0  0  0  0  0  0  0  0  0  0  0
    6.2060   -0.5860   19.0690 N   0  0  0  0  0  0  0  0  0  0  0  0
    6.4220   -2.3780   17.7130 O   0  0  0  0  0  0  0  0  0  0  0  0
  1  2  1  0
  2  3  2  0
  4  2  1  1
  4  5  1  0
  4  6  1  0
  5  7  1  0
  8  6  1  6
  7  9  1  0
  8  9  1  0
  8 10  1  0
  9 11  1  6
 10 12  1  0
 11 12  1  0
 12 13  1  0
 13 14  1  0
 14 15  1  0
 14 16  2  0
M  END
