LIZ-THE-8e85e675-1
     RDKit          3D

 19 21  0  0  0  0  0  0  0  0999 V2000
    8.8960    3.1800   22.0630 N   0  0  0  0  0  0  0  0  0  0  0  0
    9.6030    2.0600   22.3590 C   0  0  0  0  0  0  0  0  0  0  0  0
   10.9940    2.1270   22.4580 O   0  0  0  0  0  0  0  0  0  0  0  0
    8.8550    0.7840   22.5330 C   0  0  1  0  0  0  0  0  0  0  0  0
    9.6190   -0.2910   23.2750 C   0  0  0  0  0  0  0  0  0  0  0  0
    7.6560    0.8890   23.5120 C   0  0  0  0  0  0  0  0  0  0  0  0
    8.6220   -1.3410   23.6940 C   0  0  0  0  0  0  0  0  0  0  0  0
    7.2980   -0.5770   23.9310 C   0  0  1  0  0  0  0  0  0  0  0  0
    6.7390   -0.7140   25.3360 C   0  0  0  0  0  0  0  0  0  0  0  0
    5.4820   -0.1280   25.6050 N   0  0  0  0  0  0  0  0  0  0  0  0
    5.0560    0.4080   26.8080 C   0  0  0  0  0  0  0  0  0  0  0  0
    4.3920   -0.7500   24.8210 C   0  0  0  0  0  0  0  0  0  0  0  0
    6.0870    1.0510   27.4850 C   0  0  0  0  0  0  0  0  0  0  0  0
    3.7220   -0.0250   23.8100 C   0  0  0  0  0  0  0  0  0  0  0  0
    2.8120   -0.1570   24.8790 C   0  0  0  0  0  0  0  0  0  0  0  0
    6.2450    2.4310   27.6480 C   0  0  0  0  0  0  0  0  0  0  0  0
    7.2190    0.5800   28.1740 C   0  0  0  0  0  0  0  0  0  0  0  0
    7.4030    2.6680   28.3890 C   0  0  0  0  0  0  0  0  0  0  0  0
    7.9810    1.6240   28.7030 O   0  0  0  0  0  0  0  0  0  0  0  0
  1  2  1  0
  2  3  2  0
  4  2  1  1
  4  5  1  0
  4  6  1  0
  5  7  1  0
  6  8  1  0
  7  8  1  0
  8  9  1  1
  9 10  1  0
 10 11  1  0
 10 12  1  0
 11 13  1  0
 12 14  1  0
 12 15  1  0
 14 15  1  0
 13 16  1  0
 13 17  2  0
 16 18  2  0
 17 19  1  0
 18 19  1  0
M  END
