LUI-IND-2c46affe-2-bromoalkyne
     RDKit          3D

 27 30  0  0  0  0  0  0  0  0999 V2000
    7.5050   -3.7720   20.2080 C   0  0  0  0  0  0  0  0  0  0  0  0
    6.1510   -3.9800   19.9330 C   0  0  0  0  0  0  0  0  0  0  0  0
    8.1310   -2.9060   21.4130 C   0  0  0  0  0  0  0  0  0  0  0  0
    8.1800   -1.3720   21.1480 C   0  0  0  0  0  0  0  0  0  0  0  0
    8.6830   -3.3020   22.7400 C   0  0  0  0  0  0  0  0  0  0  0  0
    8.7530   -0.4820   22.2680 C   0  0  0  0  0  0  0  0  0  0  0  0
    9.1700   -2.3580   23.6670 C   0  0  0  0  0  0  0  0  0  0  0  0
    8.8040   -4.5660   23.2530 N   0  0  0  0  0  0  0  0  0  0  0  0
    8.8620    1.2630   22.0880 S   0  0  0  0  0  0  0  0  0  0  0  0
    9.1900   -1.0190   23.4220 C   0  0  0  0  0  0  0  0  0  0  0  0
    8.6490   -4.4470   24.6180 C   0  0  0  0  0  0  0  0  0  0  0  0
    8.0200   -5.6740   22.8490 C   0  0  2  0  0  0  0  0  0  0  0  0
    8.6330    1.5730   20.7130 O   0  0  0  0  0  0  0  0  0  0  0  0
    8.1550    1.9120   23.1240 O   0  0  0  0  0  0  0  0  0  0  0  0
   10.5560    1.1890   22.5500 C   0  0  0  0  0  0  0  0  0  0  0  0
    7.4130   -3.9890   24.9060 C   0  0  0  0  0  0  0  0  0  0  0  0
    6.5860   -5.3410   23.2410 C   0  0  2  0  0  0  0  0  0  0  0  0
    8.1850   -6.9610   23.6750 C   0  0  0  0  0  0  0  0  0  0  0  0
   11.2540    2.3750   22.7670 C   0  0  0  0  0  0  0  0  0  0  0  0
   11.2480   -0.0330   22.6940 C   0  0  0  0  0  0  0  0  0  0  0  0
    6.5340   -5.0650   24.6440 O   0  0  0  0  0  0  0  0  0  0  0  0
    5.9180   -6.6580   22.9260 C   0  0  0  0  0  0  0  0  0  0  0  0
    6.8520   -7.6500   23.4990 C   0  0  0  0  0  0  0  0  0  0  0  0
   12.6130    2.3850   22.9520 C   0  0  0  0  0  0  0  0  0  0  0  0
   12.5970    0.0270   23.0450 C   0  0  0  0  0  0  0  0  0  0  0  0
   13.2920    1.1930   22.9370 O   0  0  0  0  0  0  0  0  0  0  0  0
   13.1950   -1.1550   23.4960 O   0  0  0  0  0  0  0  0  0  0  0  0
  1  2  2  3
  1  3  1  0
  3  4  2  0
  3  5  1  0
  4  6  1  0
  5  7  2  0
  5  8  1  0
  9  6  1  0
  6 10  2  0
  7 10  1  0
  8 11  1  0
  8 12  1  0
  9 13  2  0
  9 14  2  0
  9 15  1  0
 11 16  1  0
 12 17  1  0
 12 18  1  1
 15 19  1  0
 15 20  2  0
 16 21  1  0
 17 21  1  0
 17 22  1  1
 18 23  1  0
 22 23  1  0
 19 24  2  0
 20 25  1  0
 24 26  1  0
 25 26  1  0
 25 27  2  0
M  END
