LYN-UNI-b265e4fd-6
     RDKit          3D

 23 25  0  0  0  0  0  0  0  0999 V2000
   19.7430    9.5670   13.3880 C   0  0  0  0  0  0  0  0  0  0  0  0
   20.7760   10.5570   13.4020 O   0  0  0  0  0  0  0  0  0  0  0  0
   21.5400   10.4660   12.2840 C   0  0  0  0  0  0  0  0  0  0  0  0
   22.7440    9.7450   12.2240 C   0  0  0  0  0  0  0  0  0  0  0  0
   21.1070   11.1030   11.1430 C   0  0  0  0  0  0  0  0  0  0  0  0
   23.5130    9.6070   11.0570 C   0  0  0  0  0  0  0  0  0  0  0  0
   21.8640   11.0100    9.8690 C   0  0  0  0  0  0  0  0  0  0  0  0
   23.0390   10.2710    9.8080 C   0  0  0  0  0  0  0  0  0  0  0  0
   21.3880   11.6110    8.9160 O   0  0  0  0  0  0  0  0  0  0  0  0
   23.7950   10.1720    8.5200 C   0  0  0  0  0  0  0  0  0  0  0  0
   22.3320   12.0080    8.0230 C   0  0  0  0  0  0  0  0  0  0  0  0
   24.5330    9.2570    8.1560 O   0  0  0  0  0  0  0  0  0  0  0  0
   23.5980   11.2670    7.7770 C   0  0  0  0  0  0  0  0  0  0  0  0
   22.2070   13.1780    7.3790 C   0  0  0  0  0  0  0  0  0  0  0  0
   21.3780   14.2280    7.8080 C   0  0  0  0  0  0  0  0  0  0  0  0
   23.0200   13.2850    6.2710 C   0  0  0  0  0  0  0  0  0  0  0  0
   21.4210   15.5350    7.0620 C   0  0  0  0  0  0  0  0  0  0  0  0
   23.1020   14.5640    5.4890 C   0  0  0  0  0  0  0  0  0  0  0  0
   22.3560   15.6540    5.8780 C   0  0  0  0  0  0  0  0  0  0  0  0
   22.5620   16.9200    5.0920 C   0  0  0  0  0  0  0  0  0  0  0  0
   22.0280   17.1340    3.8840 F   0  0  0  0  0  0  0  0  0  0  0  0
   22.2490   17.9890    5.8590 F   0  0  0  0  0  0  0  0  0  0  0  0
   23.8940   17.1040    4.8660 F   0  0  0  0  0  0  0  0  0  0  0  0
  1  2  1  0
  2  3  1  0
  3  4  2  0
  3  5  1  0
  4  6  1  0
  5  7  2  0
  6  8  2  0
  7  8  1  0
  7  9  1  0
  8 10  1  0
  9 11  1  0
 10 12  2  0
 10 13  1  0
 11 13  2  0
 11 14  1  0
 14 15  2  0
 14 16  1  0
 15 17  1  0
 16 18  2  0
 17 19  2  0
 18 19  1  0
 19 20  1  0
 20 21  1  0
 20 22  1  0
 20 23  1  0
M  END
