LYN-UNI-0d9431a4-6
     RDKit          3D

 17 19  0  0  0  0  0  0  0  0999 V2000
   22.4770   19.5360    2.9910 O   0  0  0  0  0  0  0  0  0  0  0  0
   22.2280   18.9770    4.0480 C   0  0  0  0  0  0  0  0  0  0  0  0
   23.0040   17.8060    4.6230 C   0  0  0  0  0  0  0  0  0  0  0  0
   21.1770   19.2990    4.9900 C   0  0  0  0  0  0  0  0  0  0  0  0
   22.2530   16.8160    5.2280 C   0  0  0  0  0  0  0  0  0  0  0  0
   20.5640   18.2130    5.5590 C   0  0  0  0  0  0  0  0  0  0  0  0
   20.8080   20.5740    5.3400 C   0  0  0  0  0  0  0  0  0  0  0  0
   22.5810   15.4900    5.9840 C   0  0  0  0  0  0  0  0  0  0  0  0
   20.9180   16.9690    5.2320 O   0  0  0  0  0  0  0  0  0  0  0  0
   19.5720   18.3520    6.5010 C   0  0  0  0  0  0  0  0  0  0  0  0
   19.8150   20.7180    6.2910 C   0  0  0  0  0  0  0  0  0  0  0  0
   21.8140   15.3780    7.3310 C   0  0  0  0  0  0  0  0  0  0  0  0
   22.3150   14.2160    5.1480 C   0  0  0  0  0  0  0  0  0  0  0  0
   19.2100   19.6160    6.8580 C   0  0  0  0  0  0  0  0  0  0  0  0
   20.9080   14.1420    7.4830 C   0  0  0  0  0  0  0  0  0  0  0  0
   22.4670   12.8950    5.9210 C   0  0  0  0  0  0  0  0  0  0  0  0
   21.5530   12.8180    7.1230 C   0  0  0  0  0  0  0  0  0  0  0  0
  1  2  2  0
  2  3  1  0
  2  4  1  0
  3  5  2  0
  4  6  2  0
  4  7  1  0
  5  8  1  0
  5  9  1  0
  6  9  1  0
  6 10  1  0
  7 11  2  0
  8 12  1  0
  8 13  1  0
 10 14  2  0
 11 14  1  0
 12 15  1  0
 13 16  1  0
 15 17  1  0
 16 17  1  0
M  END
