LYN-UNI-7bb260d6-8
     RDKit          3D

 19 21  0  0  0  0  0  0  0  0999 V2000
   10.6290   -0.6760   23.1000 C   0  0  0  0  0  0  0  0  0  0  0  0
   11.8030   -1.4330   23.6650 C   0  0  0  0  0  0  0  0  0  0  0  0
   12.5430   -2.2590   22.6080 C   0  0  0  0  0  0  0  0  0  0  0  0
   12.2420   -1.4650   24.9670 C   0  0  0  0  0  0  0  0  0  0  0  0
   13.6650   -3.0000   23.0260 C   0  0  0  0  0  0  0  0  0  0  0  0
   13.4540   -2.3350   25.1800 C   0  0  0  0  0  0  0  0  0  0  0  0
   14.1430   -3.0060   24.3720 C   0  0  0  0  0  0  0  0  0  0  0  0
   14.2510   -2.7620   26.2980 C   0  0  0  0  0  0  0  0  0  0  0  0
   15.3520   -3.6510   25.0870 O   0  0  0  0  0  0  0  0  0  0  0  0
   15.4370   -2.2310   26.6100 C   0  0  0  0  0  0  0  0  0  0  0  0
   13.9740   -3.8520   26.7490 O   0  0  0  0  0  0  0  0  0  0  0  0
   16.3540   -2.8230   25.9220 C   0  0  0  0  0  0  0  0  0  0  0  0
   18.2960   -2.4620   25.7010 C   0  0  0  0  0  0  0  0  0  0  0  0
   19.0450   -2.3680   24.3360 C   0  0  0  0  0  0  0  0  0  0  0  0
   19.4390   -2.1850   26.6500 C   0  0  0  0  0  0  0  0  0  0  0  0
   20.5120   -2.0680   24.0280 C   0  0  0  0  0  0  0  0  0  0  0  0
   20.9240   -1.8830   26.3930 C   0  0  0  0  0  0  0  0  0  0  0  0
   21.4400   -1.8220   25.1430 C   0  0  0  0  0  0  0  0  0  0  0  0
   23.1010   -1.4780   24.8630 Cl  0  0  0  0  0  0  0  0  0  0  0  0
  1  2  1  0
  2  3  2  0
  2  4  1  0
  3  5  1  0
  4  6  2  0
  5  7  2  0
  6  7  1  0
  6  8  1  0
  7  9  1  0
  8 10  1  0
  8 11  2  0
  9 12  1  0
 10 12  2  0
 12 13  1  0
 13 14  2  0
 13 15  1  0
 14 16  1  0
 15 17  2  0
 16 18  2  0
 17 18  1  0
 18 19  1  0
M  END
