LYN-UNI-b265e4fd-9
     RDKit          3D

 22 24  0  0  0  0  0  0  0  0999 V2000
   15.5470   -4.4670   25.4240 O   0  0  0  0  0  0  0  0  0  0  0  0
   15.4190   -4.1970   24.2480 C   0  0  0  0  0  0  0  0  0  0  0  0
   14.3430   -3.3270   23.8310 C   0  0  0  0  0  0  0  0  0  0  0  0
   16.2940   -4.7280   23.1430 C   0  0  0  0  0  0  0  0  0  0  0  0
   13.7680   -3.4400   22.3500 C   0  0  0  0  0  0  0  0  0  0  0  0
   15.7160   -5.0040   21.6860 C   0  0  0  0  0  0  0  0  0  0  0  0
   17.5840   -4.8720   23.4350 C   0  0  0  0  0  0  0  0  0  0  0  0
   12.6140   -2.4100   22.1940 C   0  0  0  0  0  0  0  0  0  0  0  0
   14.4000   -4.5670   21.3730 O   0  0  0  0  0  0  0  0  0  0  0  0
   16.5760   -5.5220   20.7380 C   0  0  0  0  0  0  0  0  0  0  0  0
   18.5160   -5.3450   22.3640 C   0  0  0  0  0  0  0  0  0  0  0  0
   11.3010   -2.4210   21.4720 C   0  0  0  0  0  0  0  0  0  0  0  0
   12.8660   -1.2260   22.9450 C   0  0  0  0  0  0  0  0  0  0  0  0
   17.8560   -5.6600   21.0890 C   0  0  0  0  0  0  0  0  0  0  0  0
   20.3660   -5.6030   22.3950 Br  0  0  0  0  0  0  0  0  0  0  0  0
   10.3550   -1.2530   21.6000 C   0  0  0  0  0  0  0  0  0  0  0  0
   12.0000   -0.1220   23.0640 C   0  0  0  0  0  0  0  0  0  0  0  0
   10.7510   -0.0740   22.4360 C   0  0  0  0  0  0  0  0  0  0  0  0
    9.8230    1.0890   22.5680 C   0  0  0  0  0  0  0  0  0  0  0  0
   10.4690    2.2560   22.8300 F   0  0  0  0  0  0  0  0  0  0  0  0
    9.0610    1.3210   21.4640 F   0  0  0  0  0  0  0  0  0  0  0  0
    8.9140    0.9360   23.5630 F   0  0  0  0  0  0  0  0  0  0  0  0
  1  2  2  0
  2  3  1  0
  2  4  1  0
  3  5  2  0
  4  6  2  0
  4  7  1  0
  5  8  1  0
  5  9  1  0
  6  9  1  0
  6 10  1  0
  7 11  2  0
  8 12  2  0
  8 13  1  0
 10 14  2  0
 11 14  1  0
 11 15  1  0
 12 16  1  0
 13 17  2  0
 16 18  2  0
 17 18  1  0
 18 19  1  0
 19 20  1  0
 19 21  1  0
 19 22  1  0
M  END
