LYN-UNI-c2dd631d-6
     RDKit          3D

 28 31  0  0  0  0  0  0  0  0999 V2000
   25.7950    2.7980    7.6810 C   0  0  0  0  0  0  0  0  0  0  0  0
   25.5070    4.1470    8.1680 N   0  0  0  0  0  0  0  0  0  0  0  0
   25.4860    4.2490    9.6380 C   0  0  0  0  0  0  0  0  0  0  0  0
   26.3920    5.1630    7.5680 C   0  0  0  0  0  0  0  0  0  0  0  0
   25.6000    5.6850   10.2040 C   0  0  0  0  0  0  0  0  0  0  0  0
   26.0090    6.6250    7.9060 C   0  0  0  0  0  0  0  0  0  0  0  0
   25.2820    6.7130    9.1900 N   0  0  0  0  0  0  0  0  0  0  0  0
   24.4000    7.7470    9.4820 C   0  0  0  0  0  0  0  0  0  0  0  0
   23.7190    7.8340   10.8240 C   0  0  0  0  0  0  0  0  0  0  0  0
   24.0760    8.7730    8.5700 C   0  0  0  0  0  0  0  0  0  0  0  0
   22.8230    8.8770   11.1400 C   0  0  0  0  0  0  0  0  0  0  0  0
   23.0810    9.8890    8.9670 C   0  0  0  0  0  0  0  0  0  0  0  0
   22.5170    9.8770   10.2330 C   0  0  0  0  0  0  0  0  0  0  0  0
   22.7900   10.8650    8.0480 O   0  0  0  0  0  0  0  0  0  0  0  0
   21.6320   10.8810   10.6220 C   0  0  0  0  0  0  0  0  0  0  0  0
   22.0570   11.9310    8.5430 C   0  0  0  0  0  0  0  0  0  0  0  0
   21.0130   10.8290   11.6780 O   0  0  0  0  0  0  0  0  0  0  0  0
   21.4920   11.9300    9.8040 C   0  0  0  0  0  0  0  0  0  0  0  0
   21.9870   13.0240    7.6910 C   0  0  0  0  0  0  0  0  0  0  0  0
   22.6830   12.9890    6.4960 C   0  0  0  0  0  0  0  0  0  0  0  0
   21.2590   14.1720    8.0280 C   0  0  0  0  0  0  0  0  0  0  0  0
   22.6740   14.1930    5.6110 C   0  0  0  0  0  0  0  0  0  0  0  0
   21.2420   15.3030    7.2050 C   0  0  0  0  0  0  0  0  0  0  0  0
   21.9640   15.3320    5.9990 C   0  0  0  0  0  0  0  0  0  0  0  0
   22.0040   16.4690    5.1950 C   0  0  0  0  0  0  0  0  0  0  0  0
   21.2530   16.4270    4.0780 F   0  0  0  0  0  0  0  0  0  0  0  0
   21.6600   17.5950    5.8780 F   0  0  0  0  0  0  0  0  0  0  0  0
   23.2650   16.7190    4.7410 F   0  0  0  0  0  0  0  0  0  0  0  0
  1  2  1  0
  2  3  1  0
  2  4  1  0
  3  5  1  0
  4  6  1  0
  5  7  1  0
  6  7  1  0
  7  8  1  0
  8  9  2  0
  8 10  1  0
  9 11  1  0
 10 12  2  0
 11 13  2  0
 12 13  1  0
 12 14  1  0
 13 15  1  0
 14 16  1  0
 15 17  2  0
 15 18  1  0
 16 18  2  0
 16 19  1  0
 19 20  2  0
 19 21  1  0
 20 22  1  0
 21 23  2  0
 22 24  2  0
 23 24  1  0
 24 25  1  0
 25 26  1  0
 25 27  1  0
 25 28  1  0
M  END
