LYN-UNI-b265e4fd-7
     RDKit          3D

 18 19  0  0  0  0  0  0  0  0999 V2000
   24.4370   14.5180    4.4330 O   0  0  0  0  0  0  0  0  0  0  0  0
   23.6880   15.0670    5.2290 C   0  0  0  0  0  0  0  0  0  0  0  0
   23.7520   16.4440    5.4810 C   0  0  0  0  0  0  0  0  0  0  0  0
   22.6320   14.4410    6.0310 C   0  0  0  0  0  0  0  0  0  0  0  0
   22.3830   17.0950    5.7910 C   0  0  0  0  0  0  0  0  0  0  0  0
   21.4680   15.1560    6.2150 C   0  0  0  0  0  0  0  0  0  0  0  0
   22.6380   13.0850    6.7310 C   0  0  0  0  0  0  0  0  0  0  0  0
   22.0610   18.5540    6.1690 C   0  0  0  0  0  0  0  0  0  0  0  0
   21.2750   16.2790    5.7500 O   0  0  0  0  0  0  0  0  0  0  0  0
   20.4060   14.6650    6.9620 C   0  0  0  0  0  0  0  0  0  0  0  0
   21.5810   12.6050    7.4900 C   0  0  0  0  0  0  0  0  0  0  0  0
   20.6310   18.9300    6.5190 C   0  0  0  0  0  0  0  0  0  0  0  0
   20.4500   13.4160    7.5940 C   0  0  0  0  0  0  0  0  0  0  0  0
   21.6310   11.5130    8.0630 O   0  0  0  0  0  0  0  0  0  0  0  0
   19.8590   19.4160    5.3240 C   0  0  0  0  0  0  0  0  0  0  0  0
   20.5540   19.0510    4.0210 C   0  0  0  0  0  0  0  0  0  0  0  0
   21.4390   20.1230    3.4870 C   0  0  0  0  0  0  0  0  0  0  0  0
   21.8360   21.5430    4.7560 Br  0  0  0  0  0  0  0  0  0  0  0  0
  1  2  2  0
  2  3  1  0
  2  4  1  0
  3  5  2  0
  4  6  2  0
  4  7  1  0
  5  8  1  0
  5  9  1  0
  6  9  1  0
  6 10  1  0
  7 11  2  0
  8 12  1  0
 10 13  2  0
 11 13  1  0
 11 14  1  0
 12 15  1  0
 15 16  1  0
 16 17  1  0
 17 18  1  0
M  END
