LYN-UNI-7bb260d6-13
     RDKit          3D

 16 17  0  0  0  0  0  0  0  0999 V2000
   21.1050   11.6890    9.6900 O   0  0  0  0  0  0  0  0  0  0  0  0
   21.7660   11.6970    8.6590 C   0  0  0  0  0  0  0  0  0  0  0  0
   22.5950   10.5530    8.2330 C   0  0  0  0  0  0  0  0  0  0  0  0
   21.8500   12.8720    7.7810 C   0  0  0  0  0  0  0  0  0  0  0  0
   23.3010   10.5650    6.8870 C   0  0  0  0  0  0  0  0  0  0  0  0
   22.5430   12.7870    6.5530 C   0  0  0  0  0  0  0  0  0  0  0  0
   21.2590   14.0510    8.1990 C   0  0  0  0  0  0  0  0  0  0  0  0
   24.1080    9.5430    6.4150 C   0  0  0  0  0  0  0  0  0  0  0  0
   23.1590   11.6530    6.0530 O   0  0  0  0  0  0  0  0  0  0  0  0
   22.6790   14.0110    5.6580 C   0  0  0  0  0  0  0  0  0  0  0  0
   21.3240   15.2260    7.4630 C   0  0  0  0  0  0  0  0  0  0  0  0
   24.9820   10.0010    5.4820 F   0  0  0  0  0  0  0  0  0  0  0  0
   23.4000    8.5540    5.8180 F   0  0  0  0  0  0  0  0  0  0  0  0
   24.8700    8.9680    7.3830 F   0  0  0  0  0  0  0  0  0  0  0  0
   21.9980   15.2820    6.2460 C   0  0  0  0  0  0  0  0  0  0  0  0
   22.0810   16.4240    5.5620 F   0  0  0  0  0  0  0  0  0  0  0  0
  1  2  2  0
  2  3  1  0
  2  4  1  0
  3  5  2  0
  4  6  2  0
  4  7  1  0
  5  8  1  0
  5  9  1  0
  6  9  1  0
  6 10  1  0
  7 11  2  0
  8 12  1  0
  8 13  1  0
  8 14  1  0
 10 15  2  0
 11 15  1  0
 15 16  1  0
M  END
