MAC-MCD-76766525-1-bromoalkyne
     RDKit          3D

 37 40  0  0  0  0  0  0  0  0999 V2000
    6.8340   -4.7030   20.3560 C   0  0  0  0  0  0  0  0  0  0  0  0
    6.0620   -3.6240   19.6160 C   0  0  0  0  0  0  0  0  0  0  0  0
    6.5690   -5.1560   21.6600 N   0  0  0  0  0  0  0  0  0  0  0  0
    7.5510   -5.2240   22.7680 C   0  0  0  0  0  0  0  0  0  0  0  0
    5.2180   -5.3500   22.0830 C   0  0  0  0  0  0  0  0  0  0  0  0
    7.0360   -5.1370   24.2340 C   0  0  0  0  0  0  0  0  0  0  0  0
    5.0260   -4.4000   23.2460 C   0  0  1  0  0  0  0  0  0  0  0  0
    5.5970   -5.2540   24.2970 N   0  0  0  0  0  0  0  0  0  0  0  0
    5.8490   -3.2340   23.0820 C   0  0  0  0  0  0  0  0  0  0  0  0
    4.7880   -5.3880   25.7840 S   0  0  0  0  0  0  0  0  0  0  0  0
    6.7200   -2.5360   22.6310 N   0  0  0  0  0  0  0  0  0  0  0  0
    5.6630   -4.9220   26.8270 O   0  0  0  0  0  0  0  0  0  0  0  0
    4.1890   -6.7030   25.8410 O   0  0  0  0  0  0  0  0  0  0  0  0
    3.5040   -4.2410   25.7950 C   0  0  0  0  0  0  0  0  0  0  0  0
    7.9890   -2.0770   23.2790 C   0  0  0  0  0  0  0  0  0  0  0  0
    2.0810   -4.6120   25.6930 C   0  0  0  0  0  0  0  0  0  0  0  0
    3.8170   -2.8800   25.9120 C   0  0  0  0  0  0  0  0  0  0  0  0
    8.7700   -1.2100   22.4540 N   0  0  0  0  0  0  0  0  0  0  0  0
    1.0090   -3.5000   25.7240 C   0  0  0  0  0  0  0  0  0  0  0  0
    2.7940   -1.9200   25.9350 C   0  0  0  0  0  0  0  0  0  0  0  0
    8.0830   -0.3110   21.5410 C   0  0  0  0  0  0  0  0  0  0  0  0
   10.1350   -0.7790   22.7630 C   0  0  0  0  0  0  0  0  0  0  0  0
    1.4230   -2.1750   25.8490 C   0  0  0  0  0  0  0  0  0  0  0  0
    3.1610   -0.6360   26.0510 F   0  0  0  0  0  0  0  0  0  0  0  0
    8.5490    0.7860   21.2180 O   0  0  0  0  0  0  0  0  0  0  0  0
    6.8710   -0.7410   21.0420 N   0  0  0  0  0  0  0  0  0  0  0  0
   11.3390   -1.4600   22.2210 C   0  0  0  0  0  0  0  0  0  0  0  0
   10.3080    0.3490   23.5830 C   0  0  0  0  0  0  0  0  0  0  0  0
    6.3040   -0.0050   19.9380 C   0  0  0  0  0  0  0  0  0  0  0  0
   12.6270   -1.1400   22.4010 C   0  0  0  0  0  0  0  0  0  0  0  0
   11.7110    0.8610   23.8900 C   0  0  0  0  0  0  0  0  0  0  0  0
    5.1210    0.6470   20.2350 C   0  0  0  0  0  0  0  0  0  0  0  0
    6.8330    0.1000   18.6570 C   0  0  0  0  0  0  0  0  0  0  0  0
   12.8750    0.0900   23.2760 C   0  0  0  0  0  0  0  0  0  0  0  0
    4.3880    1.4720   19.2200 C   0  0  0  0  0  0  0  0  0  0  0  0
    6.4180    0.6910   17.7290 N   0  0  0  0  0  0  0  0  0  0  0  0
    5.1720    1.4220   17.9390 C   0  0  0  0  0  0  0  0  0  0  0  0
  1  2  2  3
  1  3  1  0
  3  4  1  0
  3  5  1  0
  4  6  1  0
  5  7  1  0
  6  8  1  0
  7  8  1  0
  7  9  1  6
  8 10  1  0
  9 11  1  0
 10 12  2  0
 10 13  2  0
 10 14  1  0
 11 15  1  0
 14 16  2  0
 14 17  1  0
 15 18  1  0
 16 19  1  0
 17 20  2  0
 18 21  1  0
 18 22  1  0
 19 23  2  0
 20 23  1  0
 20 24  1  0
 21 25  2  0
 21 26  1  0
 22 27  2  0
 22 28  1  0
 26 29  1  0
 27 30  1  0
 28 31  2  0
 29 32  2  0
 29 33  1  0
 30 34  2  0
 31 34  1  0
 32 35  1  0
 33 36  2  0
 35 37  2  0
 36 37  1  0
M  END
