MAC-MCD-76766525-1-nitrile
     RDKit          3D

 37 40  0  0  0  0  0  0  0  0999 V2000
    6.6690   -4.4630   20.3240 C   0  0  0  0  0  0  0  0  0  0  0  0
    5.5700   -4.1040   19.8350 N   0  0  0  0  0  0  0  0  0  0  0  0
    6.7180   -5.2750   21.4710 N   0  0  0  0  0  0  0  0  0  0  0  0
    7.7310   -5.2030   22.5740 C   0  0  0  0  0  0  0  0  0  0  0  0
    5.4140   -5.5390   22.0140 C   0  0  0  0  0  0  0  0  0  0  0  0
    7.1900   -5.0620   24.0420 C   0  0  0  0  0  0  0  0  0  0  0  0
    5.2200   -4.5350   23.1510 C   0  0  1  0  0  0  0  0  0  0  0  0
    5.7310   -5.2200   24.1660 N   0  0  0  0  0  0  0  0  0  0  0  0
    5.9050   -3.2740   22.9250 C   0  0  0  0  0  0  0  0  0  0  0  0
    4.9160   -5.3240   25.6820 S   0  0  0  0  0  0  0  0  0  0  0  0
    6.7920   -2.4370   22.9990 N   0  0  0  0  0  0  0  0  0  0  0  0
    5.8270   -4.8890   26.7110 O   0  0  0  0  0  0  0  0  0  0  0  0
    4.2560   -6.6120   25.7430 O   0  0  0  0  0  0  0  0  0  0  0  0
    3.5890   -4.2010   25.7270 C   0  0  0  0  0  0  0  0  0  0  0  0
    8.1540   -2.3920   22.5430 C   0  0  0  0  0  0  0  0  0  0  0  0
    2.1250   -4.7090   25.6340 C   0  0  0  0  0  0  0  0  0  0  0  0
    3.9200   -2.8300   25.8580 C   0  0  0  0  0  0  0  0  0  0  0  0
    8.6990   -1.0730   22.5060 N   0  0  0  0  0  0  0  0  0  0  0  0
    1.0540   -3.7130   25.6890 C   0  0  0  0  0  0  0  0  0  0  0  0
    2.9060   -1.8470   25.9140 C   0  0  0  0  0  0  0  0  0  0  0  0
    8.0800   -0.1870   21.5610 C   0  0  0  0  0  0  0  0  0  0  0  0
   10.1220   -0.7570   22.6560 C   0  0  0  0  0  0  0  0  0  0  0  0
    1.4300   -2.2410   25.8350 C   0  0  0  0  0  0  0  0  0  0  0  0
    3.2360   -0.5560   26.0390 F   0  0  0  0  0  0  0  0  0  0  0  0
    8.5920    0.9020   21.2990 O   0  0  0  0  0  0  0  0  0  0  0  0
    6.9270   -0.6340   20.9950 N   0  0  0  0  0  0  0  0  0  0  0  0
   11.2610   -1.6420   22.3740 C   0  0  0  0  0  0  0  0  0  0  0  0
   10.4660    0.5270   23.0900 C   0  0  0  0  0  0  0  0  0  0  0  0
    6.2560    0.0730   20.0090 C   0  0  0  0  0  0  0  0  0  0  0  0
   12.6590   -1.2090   22.5350 C   0  0  0  0  0  0  0  0  0  0  0  0
   11.9290    0.9710   23.2500 C   0  0  0  0  0  0  0  0  0  0  0  0
    5.0380    0.7890   20.1790 C   0  0  0  0  0  0  0  0  0  0  0  0
    6.8310    0.0930   18.7390 C   0  0  0  0  0  0  0  0  0  0  0  0
   13.0510   -0.0040   22.9370 C   0  0  0  0  0  0  0  0  0  0  0  0
    4.5030    1.4580   19.1150 C   0  0  0  0  0  0  0  0  0  0  0  0
    6.3510    0.7380   17.6420 N   0  0  0  0  0  0  0  0  0  0  0  0
    5.2030    1.4280   17.7890 C   0  0  0  0  0  0  0  0  0  0  0  0
  1  2  2  3
  1  3  1  0
  3  4  1  0
  3  5  1  0
  4  6  1  0
  5  7  1  0
  6  8  1  0
  7  8  1  0
  7  9  1  6
  8 10  1  0
  9 11  1  0
 10 12  2  0
 10 13  2  0
 10 14  1  0
 11 15  1  0
 14 16  2  0
 14 17  1  0
 15 18  1  0
 16 19  1  0
 17 20  2  0
 18 21  1  0
 18 22  1  0
 19 23  2  0
 20 23  1  0
 20 24  1  0
 21 25  2  0
 21 26  1  0
 22 27  2  0
 22 28  1  0
 26 29  1  0
 27 30  1  0
 28 31  2  0
 29 32  2  0
 29 33  1  0
 30 34  2  0
 31 34  1  0
 32 35  1  0
 33 36  2  0
 35 37  2  0
 36 37  1  0
M  END
