MAC-MCD-76766525-1-vinylsulfonamide
     RDKit          3D

 40 43  0  0  0  0  0  0  0  0999 V2000
    7.3490   -3.1040   19.1140 C   0  0  0  0  0  0  0  0  0  0  0  0
    7.0410   -3.0730   20.5920 C   0  0  0  0  0  0  0  0  0  0  0  0
    5.7110   -4.1760   20.9530 S   0  0  0  0  0  0  0  0  0  0  0  0
    5.0990   -4.6510   19.7520 O   0  0  0  0  0  0  0  0  0  0  0  0
    4.7880   -3.6210   21.8980 O   0  0  0  0  0  0  0  0  0  0  0  0
    6.5050   -5.4850   21.6950 N   0  0  0  0  0  0  0  0  0  0  0  0
    5.5810   -6.4650   22.1590 C   0  0  0  0  0  0  0  0  0  0  0  0
    7.4930   -5.1770   22.7160 C   0  0  0  0  0  0  0  0  0  0  0  0
    4.6870   -5.8870   23.2410 C   0  0  0  0  0  0  0  0  0  0  0  0
    6.9250   -4.7840   24.0970 C   0  0  2  0  0  0  0  0  0  0  0  0
    5.4120   -5.0710   24.2290 N   0  0  0  0  0  0  0  0  0  0  0  0
    7.3140   -3.4490   24.3220 C   0  0  0  0  0  0  0  0  0  0  0  0
    4.7790   -5.2520   25.7900 S   0  0  0  0  0  0  0  0  0  0  0  0
    8.1120   -2.5720   24.3650 N   0  0  0  0  0  0  0  0  0  0  0  0
    5.6950   -4.7560   26.7800 O   0  0  0  0  0  0  0  0  0  0  0  0
    4.1530   -6.5550   25.8920 O   0  0  0  0  0  0  0  0  0  0  0  0
    3.4480   -4.1400   25.8190 C   0  0  0  0  0  0  0  0  0  0  0  0
    7.9860   -1.2300   23.7810 C   0  0  0  0  0  0  0  0  0  0  0  0
    2.0320   -4.5670   25.7320 C   0  0  0  0  0  0  0  0  0  0  0  0
    3.7660   -2.7690   25.9220 C   0  0  0  0  0  0  0  0  0  0  0  0
    8.8030   -0.9960   22.6520 N   0  0  0  0  0  0  0  0  0  0  0  0
    0.9350   -3.4840   25.7600 C   0  0  0  0  0  0  0  0  0  0  0  0
    2.7080   -1.8470   25.9410 C   0  0  0  0  0  0  0  0  0  0  0  0
    8.1670   -0.1640   21.6360 C   0  0  0  0  0  0  0  0  0  0  0  0
   10.1830   -0.6020   22.8450 C   0  0  0  0  0  0  0  0  0  0  0  0
    1.3590   -2.1730   25.8650 C   0  0  0  0  0  0  0  0  0  0  0  0
    3.0240   -0.5500   26.0390 F   0  0  0  0  0  0  0  0  0  0  0  0
    8.7220    0.8450   21.2020 O   0  0  0  0  0  0  0  0  0  0  0  0
    6.9150   -0.5540   21.2030 N   0  0  0  0  0  0  0  0  0  0  0  0
   11.3460   -1.3230   22.2810 C   0  0  0  0  0  0  0  0  0  0  0  0
   10.4290    0.5490   23.5900 C   0  0  0  0  0  0  0  0  0  0  0  0
    6.3360    0.0960   20.0460 C   0  0  0  0  0  0  0  0  0  0  0  0
   12.6400   -1.0070   22.3860 C   0  0  0  0  0  0  0  0  0  0  0  0
   11.8400    1.0600   23.8050 C   0  0  0  0  0  0  0  0  0  0  0  0
    5.1500    0.7570   20.3330 C   0  0  0  0  0  0  0  0  0  0  0  0
    6.8530    0.1100   18.7480 C   0  0  0  0  0  0  0  0  0  0  0  0
   12.9770    0.2600   23.1810 C   0  0  0  0  0  0  0  0  0  0  0  0
    4.4310    1.4910   19.2430 C   0  0  0  0  0  0  0  0  0  0  0  0
    6.4220    0.6340   17.7820 N   0  0  0  0  0  0  0  0  0  0  0  0
    5.1770    1.3680   17.9560 C   0  0  0  0  0  0  0  0  0  0  0  0
  1  2  1  0
  3  2  1  0
  3  4  2  0
  3  5  2  0
  3  6  1  0
  6  7  1  0
  6  8  1  0
  7  9  1  0
  8 10  1  0
  9 11  1  0
 10 11  1  0
 10 12  1  6
 11 13  1  0
 12 14  1  0
 13 15  2  0
 13 16  2  0
 13 17  1  0
 14 18  1  0
 17 19  2  0
 17 20  1  0
 18 21  1  0
 19 22  1  0
 20 23  2  0
 21 24  1  0
 21 25  1  0
 22 26  2  0
 23 26  1  0
 23 27  1  0
 24 28  2  0
 24 29  1  0
 25 30  2  0
 25 31  1  0
 29 32  1  0
 30 33  1  0
 31 34  2  0
 32 35  2  0
 32 36  1  0
 33 37  2  0
 34 37  1  0
 35 38  1  0
 36 39  2  0
 38 40  2  0
 39 40  1  0
M  END
