MAC-MCD-4707377b-1-vinylsulfonamide
     RDKit          3D

 22 23  0  0  0  0  0  0  0  0999 V2000
    8.1470   -3.7010   20.2060 C   0  0  0  0  0  0  0  0  0  0  0  0
    6.9520   -2.8690   19.9650 C   0  0  0  0  0  0  0  0  0  0  0  0
    5.6920   -3.8770   20.6440 S   0  0  0  0  0  0  0  0  0  0  0  0
    4.7710   -3.0790   21.3800 O   0  0  0  0  0  0  0  0  0  0  0  0
    5.2280   -4.7600   19.6260 O   0  0  0  0  0  0  0  0  0  0  0  0
    6.4340   -4.8900   21.7910 N   0  0  0  0  0  0  0  0  0  0  0  0
    6.9120   -4.1260   22.9460 C   0  0  0  0  0  0  0  0  0  0  0  0
    5.5650   -6.0290   22.1020 C   0  0  2  0  0  0  0  0  0  0  0  0
    6.7490   -4.8200   24.3010 C   0  0  0  0  0  0  0  0  0  0  0  0
    4.6970   -5.6950   23.1450 C   0  0  0  0  0  0  0  0  0  0  0  0
    6.3430   -7.1050   22.5730 O   0  0  0  0  0  0  0  0  0  0  0  0
    5.5150   -5.5840   24.3980 N   0  0  0  0  0  0  0  0  0  0  0  0
    4.6620   -5.5440   25.8580 S   0  0  0  0  0  0  0  0  0  0  0  0
    5.5660   -5.1040   26.8910 O   0  0  0  0  0  0  0  0  0  0  0  0
    3.9110   -6.7730   25.9690 O   0  0  0  0  0  0  0  0  0  0  0  0
    3.4360   -4.3070   25.8080 C   0  0  0  0  0  0  0  0  0  0  0  0
    1.9970   -4.6250   25.6700 C   0  0  0  0  0  0  0  0  0  0  0  0
    3.8480   -2.9530   25.9070 C   0  0  0  0  0  0  0  0  0  0  0  0
    0.9760   -3.4700   25.6440 C   0  0  0  0  0  0  0  0  0  0  0  0
    2.8500   -1.9580   25.8730 C   0  0  0  0  0  0  0  0  0  0  0  0
    1.4880   -2.1900   25.7520 C   0  0  0  0  0  0  0  0  0  0  0  0
    3.2460   -0.6790   25.9700 F   0  0  0  0  0  0  0  0  0  0  0  0
  1  2  1  0
  3  2  1  0
  3  4  2  0
  3  5  2  0
  3  6  1  0
  6  7  1  0
  6  8  1  0
  7  9  1  0
  8 10  1  0
  8 11  1  1
  9 12  1  0
 10 12  1  0
 12 13  1  0
 13 14  2  0
 13 15  2  0
 13 16  1  0
 16 17  2  0
 16 18  1  0
 17 19  1  0
 18 20  2  0
 19 21  2  0
 20 21  1  0
 20 22  1  0
M  END
