MAC-MCD-4707377b-1-nitrile
     RDKit          3D

 19 20  0  0  0  0  0  0  0  0999 V2000
    6.6940   -4.6440   20.3490 C   0  0  0  0  0  0  0  0  0  0  0  0
    6.1790   -3.7270   19.6190 N   0  0  0  0  0  0  0  0  0  0  0  0
    6.3100   -4.9610   21.6620 N   0  0  0  0  0  0  0  0  0  0  0  0
    5.5830   -6.1930   21.9630 C   0  0  0  0  0  0  0  0  0  0  0  0
    7.0780   -4.4590   22.8190 C   0  0  2  0  0  0  0  0  0  0  0  0
    4.7610   -6.0220   23.2170 C   0  0  0  0  0  0  0  0  0  0  0  0
    6.1710   -4.2490   23.8910 C   0  0  0  0  0  0  0  0  0  0  0  0
    7.9440   -3.5960   22.7110 O   0  0  0  0  0  0  0  0  0  0  0  0
    5.5550   -5.4140   24.2920 N   0  0  0  0  0  0  0  0  0  0  0  0
    4.7720   -5.4080   25.8120 S   0  0  0  0  0  0  0  0  0  0  0  0
    4.0990   -6.6760   25.9480 O   0  0  0  0  0  0  0  0  0  0  0  0
    5.7040   -4.9240   26.8010 O   0  0  0  0  0  0  0  0  0  0  0  0
    3.4950   -4.2330   25.7970 C   0  0  0  0  0  0  0  0  0  0  0  0
    2.0230   -4.6820   25.6370 C   0  0  0  0  0  0  0  0  0  0  0  0
    3.8750   -2.8710   25.9400 C   0  0  0  0  0  0  0  0  0  0  0  0
    0.9860   -3.6490   25.6400 C   0  0  0  0  0  0  0  0  0  0  0  0
    2.8950   -1.8540   25.9460 C   0  0  0  0  0  0  0  0  0  0  0  0
    1.4100   -2.1890   25.7990 C   0  0  0  0  0  0  0  0  0  0  0  0
    3.2690   -0.5750   26.0820 F   0  0  0  0  0  0  0  0  0  0  0  0
  1  2  2  3
  1  3  1  0
  3  4  1  0
  3  5  1  0
  4  6  1  0
  5  7  1  0
  5  8  1  6
  6  9  1  0
  7  9  1  0
  9 10  1  0
 10 11  2  0
 10 12  2  0
 10 13  1  0
 13 14  2  0
 13 15  1  0
 14 16  1  0
 15 17  2  0
 16 18  2  0
 17 18  1  0
 17 19  1  0
M  END
