MAC-MCD-4707377b-1-chloroacetamide
     RDKit          3D

 20 21  0  0  0  0  0  0  0  0999 V2000
    7.7290   -3.6840   20.4390 C   0  0  0  0  0  0  0  0  0  0  0  0
    6.4820   -4.5060   20.6850 C   0  0  0  0  0  0  0  0  0  0  0  0
    5.4970   -4.5100   19.9320 O   0  0  0  0  0  0  0  0  0  0  0  0
    6.5100   -5.2890   21.8510 N   0  0  0  0  0  0  0  0  0  0  0  0
    5.5770   -6.3740   22.1110 C   0  0  0  0  0  0  0  0  0  0  0  0
    7.2260   -4.8170   23.0540 C   0  0  2  0  0  0  0  0  0  0  0  0
    4.6200   -6.0530   23.2580 C   0  0  0  0  0  0  0  0  0  0  0  0
    6.3210   -4.4130   24.0350 C   0  0  0  0  0  0  0  0  0  0  0  0
    8.0640   -4.0200   22.6530 O   0  0  0  0  0  0  0  0  0  0  0  0
    5.4100   -5.5570   24.3760 N   0  0  0  0  0  0  0  0  0  0  0  0
    4.6610   -5.5080   25.8840 S   0  0  0  0  0  0  0  0  0  0  0  0
    5.6580   -5.0780   26.8330 O   0  0  0  0  0  0  0  0  0  0  0  0
    3.9890   -6.7740   26.0410 O   0  0  0  0  0  0  0  0  0  0  0  0
    3.4320   -4.3010   25.8320 C   0  0  0  0  0  0  0  0  0  0  0  0
    2.0000   -4.6080   25.6680 C   0  0  0  0  0  0  0  0  0  0  0  0
    3.7990   -2.9500   25.9540 C   0  0  0  0  0  0  0  0  0  0  0  0
    0.9740   -3.4500   25.6430 C   0  0  0  0  0  0  0  0  0  0  0  0
    2.8160   -1.9500   25.9250 C   0  0  0  0  0  0  0  0  0  0  0  0
    1.4420   -2.1410   25.7790 C   0  0  0  0  0  0  0  0  0  0  0  0
    3.2340   -0.6800   26.0490 F   0  0  0  0  0  0  0  0  0  0  0  0
  1  2  1  0
  2  3  2  0
  2  4  1  0
  4  5  1  0
  4  6  1  0
  5  7  1  0
  6  8  1  0
  6  9  1  6
  7 10  1  0
  8 10  1  0
 10 11  1  0
 11 12  2  0
 11 13  2  0
 11 14  1  0
 14 15  2  0
 14 16  1  0
 15 17  1  0
 16 18  2  0
 17 19  2  0
 18 19  1  0
 18 20  1  0
M  END
