MAC-MCD-76766525-1-chloroacetamide
     RDKit          3D

 38 41  0  0  0  0  0  0  0  0999 V2000
    7.8320   -3.6730   20.2460 C   0  0  0  0  0  0  0  0  0  0  0  0
    6.5970   -4.4840   20.5680 C   0  0  0  0  0  0  0  0  0  0  0  0
    5.5680   -4.4170   19.8890 O   0  0  0  0  0  0  0  0  0  0  0  0
    6.5810   -5.3170   21.7060 N   0  0  0  0  0  0  0  0  0  0  0  0
    7.6300   -5.3320   22.7780 C   0  0  0  0  0  0  0  0  0  0  0  0
    5.2780   -5.5400   22.2500 C   0  0  0  0  0  0  0  0  0  0  0  0
    7.1660   -5.1330   24.2710 C   0  0  0  0  0  0  0  0  0  0  0  0
    5.1030   -4.4880   23.3330 C   0  0  1  0  0  0  0  0  0  0  0  0
    5.7210   -5.2730   24.3930 N   0  0  0  0  0  0  0  0  0  0  0  0
    5.8880   -3.2870   23.1600 C   0  0  0  0  0  0  0  0  0  0  0  0
    4.9070   -5.3730   25.8770 S   0  0  0  0  0  0  0  0  0  0  0  0
    6.7760   -2.4720   23.3120 N   0  0  0  0  0  0  0  0  0  0  0  0
    5.8260   -4.9560   26.9050 O   0  0  0  0  0  0  0  0  0  0  0  0
    4.2920   -6.6810   25.9220 O   0  0  0  0  0  0  0  0  0  0  0  0
    3.5960   -4.2460   25.8460 C   0  0  0  0  0  0  0  0  0  0  0  0
    8.1270   -2.4190   22.6570 C   0  0  0  0  0  0  0  0  0  0  0  0
    2.1800   -4.6500   25.7180 C   0  0  0  0  0  0  0  0  0  0  0  0
    3.8710   -2.8760   25.9500 C   0  0  0  0  0  0  0  0  0  0  0  0
    8.7000   -1.1180   22.5370 N   0  0  0  0  0  0  0  0  0  0  0  0
    1.0810   -3.5610   25.7110 C   0  0  0  0  0  0  0  0  0  0  0  0
    2.8250   -1.9390   25.9370 C   0  0  0  0  0  0  0  0  0  0  0  0
    8.0580   -0.2370   21.5940 C   0  0  0  0  0  0  0  0  0  0  0  0
   10.1240   -0.8080   22.7400 C   0  0  0  0  0  0  0  0  0  0  0  0
    1.4630   -2.2270   25.8260 C   0  0  0  0  0  0  0  0  0  0  0  0
    3.1610   -0.6450   26.0420 F   0  0  0  0  0  0  0  0  0  0  0  0
    8.6260    0.9520   21.2250 O   0  0  0  0  0  0  0  0  0  0  0  0
    6.8500   -0.6790   21.0970 N   0  0  0  0  0  0  0  0  0  0  0  0
   10.4670    0.3800   23.5540 C   0  0  0  0  0  0  0  0  0  0  0  0
   11.1760   -1.5690   22.1790 C   0  0  0  0  0  0  0  0  0  0  0  0
    6.2930    0.0280   19.9750 C   0  0  0  0  0  0  0  0  0  0  0  0
   11.6690    0.8700   23.8480 C   0  0  0  0  0  0  0  0  0  0  0  0
   12.6410   -1.1490   22.4160 C   0  0  0  0  0  0  0  0  0  0  0  0
    5.1150    0.6940   20.2510 C   0  0  0  0  0  0  0  0  0  0  0  0
    6.8280    0.0940   18.6940 C   0  0  0  0  0  0  0  0  0  0  0  0
   12.8560    0.0990   23.2660 C   0  0  0  0  0  0  0  0  0  0  0  0
    4.3890    1.4960   19.2150 C   0  0  0  0  0  0  0  0  0  0  0  0
    6.4190    0.6630   17.7510 N   0  0  0  0  0  0  0  0  0  0  0  0
    5.1770    1.4070   17.9380 C   0  0  0  0  0  0  0  0  0  0  0  0
  1  2  1  0
  2  3  2  0
  2  4  1  0
  4  5  1  0
  4  6  1  0
  5  7  1  0
  6  8  1  0
  7  9  1  0
  8  9  1  0
  8 10  1  6
  9 11  1  0
 10 12  1  0
 11 13  2  0
 11 14  2  0
 11 15  1  0
 12 16  1  0
 15 17  2  0
 15 18  1  0
 16 19  1  0
 17 20  1  0
 18 21  2  0
 19 22  1  0
 19 23  1  0
 20 24  2  0
 21 24  1  0
 21 25  1  0
 22 26  2  0
 22 27  1  0
 23 28  2  0
 23 29  1  0
 27 30  1  0
 28 31  1  0
 29 32  2  0
 30 33  2  0
 30 34  1  0
 31 35  2  0
 32 35  1  0
 33 36  1  0
 34 37  2  0
 36 38  2  0
 37 38  1  0
M  END
