MAK-UNK-8fdbca50-1-acrylamide
     RDKit          3D

 40 43  0  0  0  0  0  0  0  0999 V2000
    7.9720   -3.9860   20.5020 C   0  0  0  0  0  0  0  0  0  0  0  0
    6.5920   -3.3880   20.3960 C   0  0  0  0  0  0  0  0  0  0  0  0
    5.9800   -3.3970   21.7770 C   0  0  0  0  0  0  0  0  0  0  0  0
    4.8070   -3.7300   21.9630 O   0  0  0  0  0  0  0  0  0  0  0  0
    6.7800   -3.0220   22.8570 N   0  0  0  0  0  0  0  0  0  0  0  0
    6.3860   -3.2030   24.2490 C   0  0  0  0  0  0  0  0  0  0  0  0
    8.2310   -3.0130   22.6840 C   0  0  0  0  0  0  0  0  0  0  0  0
    7.3980   -3.8090   25.0140 C   0  0  0  0  0  0  0  0  0  0  0  0
    8.9910   -2.4440   23.8870 C   0  0  0  0  0  0  0  0  0  0  0  0
    8.5340   -3.0340   25.2390 C   0  0  0  0  0  0  0  0  0  0  0  0
    9.6360   -3.7650   25.7010 C   0  0  0  0  0  0  0  0  0  0  0  0
   10.7680   -3.3080   25.5320 O   0  0  0  0  0  0  0  0  0  0  0  0
    9.3060   -5.0710   26.3840 N   0  0  0  0  0  0  0  0  0  0  0  0
    9.2170   -5.0100   27.8780 C   0  0  0  0  0  0  0  0  0  0  0  0
    9.0110   -6.3060   25.6520 C   0  0  1  0  0  0  0  0  0  0  0  0
    9.4730   -6.1890   24.2520 C   0  0  0  0  0  0  0  0  0  0  0  0
    9.6310   -7.4230   26.5880 C   0  0  0  0  0  0  0  0  0  0  0  0
    9.9580   -9.2890   26.7080 N   0  0  0  0  0  0  0  0  0  0  0  0
    9.6310  -10.7280   28.0540 C   0  0  0  0  0  0  0  0  0  0  0  0
   10.3110  -11.9630   28.8690 C   0  0  0  0  0  0  0  0  0  0  0  0
   10.5170  -12.2320   30.1990 C   0  0  0  0  0  0  0  0  0  0  0  0
   10.8330  -13.1780   28.4520 C   0  0  0  0  0  0  0  0  0  0  0  0
   11.1080  -13.4690   30.4910 C   0  0  0  0  0  0  0  0  0  0  0  0
   11.3490  -14.0880   29.2610 N   0  0  0  0  0  0  0  0  0  0  0  0
   11.3310  -13.8800   31.7970 C   0  0  0  0  0  0  0  0  0  0  0  0
   12.0490  -15.5890   28.5110 S   0  0  0  0  0  0  0  0  0  0  0  0
   10.9820  -15.1890   32.1420 C   0  0  0  0  0  0  0  0  0  0  0  0
   11.8820  -13.0050   32.7780 C   0  0  0  0  0  0  0  0  0  0  0  0
   12.8010  -16.1390   29.5060 O   0  0  0  0  0  0  0  0  0  0  0  0
   10.8490  -16.3610   28.3210 O   0  0  0  0  0  0  0  0  0  0  0  0
   13.1650  -15.2950   26.8820 C   0  0  0  0  0  0  0  0  0  0  0  0
   11.1580  -15.6810   33.4440 C   0  0  0  0  0  0  0  0  0  0  0  0
   12.0640  -13.4720   34.0780 C   0  0  0  0  0  0  0  0  0  0  0  0
   12.2260  -11.7510   32.4790 F   0  0  0  0  0  0  0  0  0  0  0  0
   14.4150  -15.6670   26.7250 C   0  0  0  0  0  0  0  0  0  0  0  0
   12.9900  -14.5890   25.6620 C   0  0  0  0  0  0  0  0  0  0  0  0
   11.6820  -14.8960   34.4430 C   0  0  0  0  0  0  0  0  0  0  0  0
   15.2420  -15.3270   25.6900 C   0  0  0  0  0  0  0  0  0  0  0  0
   13.6890  -14.3060   24.5000 N   0  0  0  0  0  0  0  0  0  0  0  0
   14.8590  -14.6450   24.5350 C   0  0  0  0  0  0  0  0  0  0  0  0
  1  2  1  0
  2  3  1  0
  3  4  2  0
  3  5  1  0
  5  6  1  0
  5  7  1  0
  6  8  1  0
  7  9  1  0
  8 10  1  0
  9 10  1  0
 10 11  1  0
 11 12  2  0
 11 13  1  0
 13 14  1  0
 13 15  1  0
 15 16  1  6
 15 17  1  0
 17 18  1  0
 18 19  1  0
 19 20  1  0
 20 21  1  0
 20 22  2  0
 21 23  2  0
 22 24  1  0
 23 24  1  0
 23 25  1  0
 24 26  1  0
 25 27  2  0
 25 28  1  0
 26 29  2  0
 26 30  2  0
 26 31  1  0
 27 32  1  0
 28 33  2  0
 28 34  1  0
 31 35  2  0
 31 36  1  0
 32 37  2  0
 33 37  1  0
 35 38  1  0
 36 39  2  0
 38 40  2  0
 39 40  1  0
M  END
