MAK-UNK-af83ef51-16-vinylsulfonamide
     RDKit          3D

 38 40  0  0  0  0  0  0  0  0999 V2000
    7.1550   -2.9110   18.9840 C   0  0  0  0  0  0  0  0  0  0  0  0
    5.9440   -3.2710   19.8250 C   0  0  0  0  0  0  0  0  0  0  0  0
    6.0810   -3.0570   21.5990 S   0  0  0  0  0  0  0  0  0  0  0  0
    4.7030   -3.4550   21.9490 O   0  0  0  0  0  0  0  0  0  0  0  0
    7.1880   -3.8730   22.1010 O   0  0  0  0  0  0  0  0  0  0  0  0
    6.3860   -1.3910   22.0690 N   0  0  0  0  0  0  0  0  0  0  0  0
    7.2170   -0.4450   21.2470 C   0  0  0  0  0  0  0  0  0  0  0  0
    6.7480   -1.1820   23.5360 C   0  0  0  0  0  0  0  0  0  0  0  0
    8.3260    0.0580   21.9890 C   0  0  0  0  0  0  0  0  0  0  0  0
    7.0100    0.1760   23.9290 C   0  0  0  0  0  0  0  0  0  0  0  0
    8.0310    0.9370   23.1360 N   0  0  0  0  0  0  0  0  0  0  0  0
    9.2320    1.4320   23.9980 C   0  0  0  0  0  0  0  0  0  0  0  0
   10.5290    1.9070   23.4790 C   0  0  0  0  0  0  0  0  0  0  0  0
   11.6360    1.0560   23.5920 C   0  0  0  0  0  0  0  0  0  0  0  0
   10.7940    3.1840   22.8700 C   0  0  0  0  0  0  0  0  0  0  0  0
   12.9270    1.3890   23.1220 C   0  0  0  0  0  0  0  0  0  0  0  0
   12.1040    3.6020   22.3740 C   0  0  0  0  0  0  0  0  0  0  0  0
   13.2380    2.7370   22.4560 C   0  0  0  0  0  0  0  0  0  0  0  0
   12.2270    4.9680   21.7670 C   0  0  0  0  0  0  0  0  0  0  0  0
   14.7730    2.9120   21.9580 C   0  0  2  0  0  0  0  0  0  0  0  0
   15.8100    3.8080   22.7460 O   0  0  0  0  0  0  0  0  0  0  0  0
   14.9090    3.0230   20.4240 C   0  0  0  0  0  0  0  0  0  0  0  0
   17.3410    3.5460   23.2000 C   0  0  1  0  0  0  0  0  0  0  0  0
   14.8490    4.0770   19.8250 O   0  0  0  0  0  0  0  0  0  0  0  0
   15.0830    1.7780   19.7880 N   0  0  0  0  0  0  0  0  0  0  0  0
   18.3160    4.5140   22.5670 C   0  0  2  0  0  0  0  0  0  0  0  0
   17.6830    4.0180   24.5020 C   0  0  1  0  0  0  0  0  0  0  0  0
   15.7220    1.6480   18.3130 S   0  0  0  0  0  0  0  0  0  0  0  0
   18.7450    4.0300   21.3740 O   0  0  0  0  0  0  0  0  0  0  0  0
   19.4000    5.1510   23.1980 C   0  0  0  0  0  0  0  0  0  0  0  0
   19.1940    3.6410   24.8440 C   0  0  1  0  0  0  0  0  0  0  0  0
   17.1250    5.3090   24.0830 N   0  0  0  0  0  0  0  0  0  0  0  0
   14.6260    0.6060   17.6370 N   0  0  0  0  0  0  0  0  0  0  0  0
   15.4610    2.9260   17.7710 O   0  0  0  0  0  0  0  0  0  0  0  0
   16.9700    0.9490   18.2810 O   0  0  0  0  0  0  0  0  0  0  0  0
   20.1120    4.3060   24.0410 O   0  0  0  0  0  0  0  0  0  0  0  0
   19.6000    3.9190   26.1680 O   0  0  0  0  0  0  0  0  0  0  0  0
   15.9700    4.9490   23.2050 C   0  0  0  0  0  0  0  0  0  0  0  0
  1  2  1  0
  3  2  1  0
  3  4  2  0
  3  5  2  0
  3  6  1  0
  6  7  1  0
  6  8  1  0
  7  9  1  0
  8 10  1  0
  9 11  1  0
 10 11  1  0
 11 12  1  0
 12 13  1  0
 13 14  2  0
 13 15  1  0
 14 16  1  0
 15 17  2  0
 16 18  2  0
 17 18  1  0
 17 19  1  0
 18 20  1  0
 20 21  1  1
 20 22  1  0
 23 21  1  6
 22 24  2  0
 22 25  1  0
 23 26  1  0
 23 27  1  0
 28 25  1  0
 26 29  1  6
 26 30  1  0
 27 31  1  0
 27 32  1  6
 28 33  1  0
 28 34  2  0
 28 35  2  0
 30 36  1  0
 31 36  1  0
 31 37  1  1
 32 38  1  0
M  END
