MAK-UNK-69bf97dd-9-nitrile
     RDKit          3D

 27 29  0  0  0  0  0  0  0  0999 V2000
    6.6970   -4.3240   20.1130 C   0  0  0  0  0  0  0  0  0  0  0  0
    5.6220   -3.8880   19.5800 N   0  0  0  0  0  0  0  0  0  0  0  0
    6.8780   -4.2640   21.4230 N   0  0  0  0  0  0  0  0  0  0  0  0
    6.3920   -5.3410   22.3260 C   0  0  0  0  0  0  0  0  0  0  0  0
    7.7540   -3.2040   21.9180 C   0  0  0  0  0  0  0  0  0  0  0  0
    5.4820   -4.5480   23.2790 C   0  0  0  0  0  0  0  0  0  0  0  0
    7.2010   -2.6660   23.2070 C   0  0  0  0  0  0  0  0  0  0  0  0
    6.6200   -3.8250   24.0120 C   0  0  0  0  0  0  0  0  0  0  0  0
    5.8580   -3.2660   25.1990 C   0  0  0  0  0  0  0  0  0  0  0  0
    4.6990   -3.5700   25.4640 O   0  0  0  0  0  0  0  0  0  0  0  0
    6.5870   -2.4030   25.9160 N   0  0  0  0  0  0  0  0  0  0  0  0
    6.0780   -1.9610   27.1680 C   0  0  0  0  0  0  0  0  0  0  0  0
    6.3590   -0.4910   27.2220 C   0  0  0  0  0  0  0  0  0  0  0  0
    6.4240   -0.1960   28.7000 C   0  0  0  0  0  0  0  0  0  0  0  0
    6.5510    0.4850   26.2540 C   0  0  0  0  0  0  0  0  0  0  0  0
    6.7180    1.1710   29.1980 C   0  0  0  0  0  0  0  0  0  0  0  0
    6.8600    1.8990   26.7480 C   0  0  0  0  0  0  0  0  0  0  0  0
    6.9440    2.2200   28.1330 C   0  0  0  0  0  0  0  0  0  0  0  0
    7.3200    3.8850   28.6440 S   0  0  0  0  0  0  0  0  0  0  0  0
    7.7890    4.6060   27.4790 O   0  0  0  0  0  0  0  0  0  0  0  0
    6.1830    4.3590   29.4130 O   0  0  0  0  0  0  0  0  0  0  0  0
    8.6270    3.6710   29.7200 N   0  0  0  0  0  0  0  0  0  0  0  0
    8.5540    2.6020   30.7420 C   0  0  0  0  0  0  0  0  0  0  0  0
    9.4300    4.8640   30.0820 C   0  0  0  0  0  0  0  0  0  0  0  0
    9.6440    2.7690   31.5880 C   0  0  0  0  0  0  0  0  0  0  0  0
   10.7170    4.4450   30.4530 C   0  0  0  0  0  0  0  0  0  0  0  0
   10.7590    3.1020   30.8330 C   0  0  0  0  0  0  0  0  0  0  0  0
  1  2  2  3
  1  3  1  0
  3  4  1  0
  3  5  1  0
  4  6  1  0
  5  7  1  0
  6  8  1  0
  7  8  1  0
  8  9  1  0
  9 10  2  0
  9 11  1  0
 11 12  1  0
 12 13  1  0
 13 14  2  0
 13 15  1  0
 14 16  1  0
 15 17  2  0
 16 18  2  0
 17 18  1  0
 19 18  1  0
 19 20  2  0
 19 21  2  0
 19 22  1  0
 22 23  1  0
 22 24  1  0
 23 25  1  0
 24 26  1  0
 25 27  1  0
 26 27  1  0
M  END
