MAK-UNK-3e0761f8-2-bromoalkyne
     RDKit          3D

 19 22  0  0  0  0  0  0  0  0999 V2000
    7.4820   -2.8830   19.5130 C   0  0  0  0  0  0  0  0  0  0  0  0
    6.0670   -2.9410   18.9190 C   0  0  0  0  0  0  0  0  0  0  0  0
    7.7810   -2.4880   20.8800 N   0  0  0  0  0  0  0  0  0  0  0  0
    8.0010   -1.1970   21.6970 C   0  0  1  0  0  0  0  0  0  0  0  0
    7.1170   -3.0660   21.9420 C   0  0  2  0  0  0  0  0  0  0  0  0
    7.5540   -1.6800   23.1570 C   0  0  0  0  0  0  0  0  0  0  0  0
    8.2490   -3.0570   23.0460 C   0  0  2  0  0  0  0  0  0  0  0  0
    9.4190   -1.0710   22.2150 C   0  0  0  0  0  0  0  0  0  0  0  0
    6.5560   -4.2080   21.6070 C   0  0  0  0  0  0  0  0  0  0  0  0
    9.5720   -2.2050   22.9550 C   0  0  0  0  0  0  0  0  0  0  0  0
   10.4470   -0.1620   22.1090 C   0  0  0  0  0  0  0  0  0  0  0  0
    5.7020   -4.5400   20.6540 N   0  0  0  0  0  0  0  0  0  0  0  0
    6.9410   -5.1570   22.4050 O   0  0  0  0  0  0  0  0  0  0  0  0
   10.8550   -2.6760   23.7060 C   0  0  0  0  0  0  0  0  0  0  0  0
   11.7040   -0.4010   22.7150 C   0  0  0  0  0  0  0  0  0  0  0  0
    5.4790   -5.8870   20.8540 N   0  0  0  0  0  0  0  0  0  0  0  0
    6.2590   -6.1510   21.9200 C   0  0  0  0  0  0  0  0  0  0  0  0
   11.9470   -1.5710   23.4600 C   0  0  0  0  0  0  0  0  0  0  0  0
    6.5200   -7.3770   22.7070 C   0  0  0  0  0  0  0  0  0  0  0  0
  1  2  2  3
  1  3  1  0
  4  3  1  6
  3  5  1  0
  4  6  1  0
  5  7  1  0
  6  7  1  0
  4  8  1  0
  5  9  1  6
  7 10  1  6
  8 10  2  0
  8 11  1  0
  9 12  2  0
  9 13  1  0
 10 14  1  0
 11 15  2  0
 12 16  1  0
 13 17  1  0
 16 17  2  0
 14 18  2  0
 15 18  1  0
 17 19  1  0
M  END
