MAK-UNK-212f693e-33
     RDKit          3D

 16 17  0  0  0  0  0  0  0  0999 V2000
    5.4600   -4.1830   19.7830 O   0  0  0  0  0  0  0  0  0  0  0  0
    6.2420   -3.9530   20.7090 C   0  0  0  0  0  0  0  0  0  0  0  0
    7.2700   -2.8140   20.5940 C   0  0  0  0  0  0  0  0  0  0  0  0
    6.2570   -4.7190   21.8660 N   0  0  0  0  0  0  0  0  0  0  0  0
    8.5890   -3.3280   20.7200 O   0  0  0  0  0  0  0  0  0  0  0  0
    5.5400   -5.9810   22.0260 C   0  0  0  0  0  0  0  0  0  0  0  0
    6.9470   -4.3310   23.0030 C   0  0  0  0  0  0  0  0  0  0  0  0
    4.5850   -5.8630   23.2070 C   0  0  0  0  0  0  0  0  0  0  0  0
    6.1080   -4.1380   24.1120 C   0  0  0  0  0  0  0  0  0  0  0  0
    5.3120   -5.2590   24.3690 C   0  0  0  0  0  0  0  0  0  0  0  0
    4.4400   -5.0670   25.5860 N   0  0  0  0  0  0  0  0  0  0  0  0
    3.4880   -4.0210   25.5970 C   0  0  0  0  0  0  0  0  0  0  0  0
    3.8550   -2.6890   25.7860 C   0  0  0  0  0  0  0  0  0  0  0  0
    2.0950   -4.1550   25.4400 C   0  0  0  0  0  0  0  0  0  0  0  0
    2.6340   -1.7570   25.7730 C   0  0  0  0  0  0  0  0  0  0  0  0
    1.1750   -2.6870   25.5220 S   0  0  0  0  0  0  0  0  0  0  0  0
  1  2  2  0
  2  3  1  0
  2  4  1  0
  3  5  1  0
  4  6  1  0
  4  7  1  0
  6  8  1  0
  7  9  1  0
  8 10  1  0
  9 10  1  0
 10 11  1  0
 11 12  1  0
 12 13  1  0
 12 14  2  0
 13 15  2  0
 14 16  1  0
 15 16  1  0
M  END
