MAK-UNK-3e0761f8-8-chloroacetamide
     RDKit          3D

 20 22  0  0  0  0  0  0  0  0999 V2000
    7.2110   -3.0050   18.7390 C   0  0  0  0  0  0  0  0  0  0  0  0
    6.3130   -3.3790   19.8980 C   0  0  0  0  0  0  0  0  0  0  0  0
    5.4220   -4.2280   19.7640 O   0  0  0  0  0  0  0  0  0  0  0  0
    6.5220   -2.7550   21.0940 N   0  0  0  0  0  0  0  0  0  0  0  0
    6.7820   -1.3310   21.3050 C   0  0  0  0  0  0  0  0  0  0  0  0
    7.3140   -3.4000   22.1260 C   0  0  1  0  0  0  0  0  0  0  0  0
    8.1010   -1.3390   22.1440 C   0  0  2  0  0  0  0  0  0  0  0  0
    8.6800   -2.7390   21.8850 C   0  0  0  0  0  0  0  0  0  0  0  0
    6.8860   -2.8380   23.5070 C   0  0  0  0  0  0  0  0  0  0  0  0
    7.8790   -1.6570   23.6210 C   0  0  1  0  0  0  0  0  0  0  0  0
    9.2730   -1.9490   24.0960 C   0  0  0  0  0  0  0  0  0  0  0  0
    9.5290   -3.1140   24.3850 O   0  0  0  0  0  0  0  0  0  0  0  0
   10.2340   -0.9260   24.1050 N   0  0  0  0  0  0  0  0  0  0  0  0
   10.0640    0.3250   23.4080 C   0  0  0  0  0  0  0  0  0  0  0  0
   11.4860   -1.4820   23.8510 C   0  0  0  0  0  0  0  0  0  0  0  0
   12.2280   -1.0830   22.7610 C   0  0  0  0  0  0  0  0  0  0  0  0
   11.9500   -2.4350   24.6960 C   0  0  0  0  0  0  0  0  0  0  0  0
   13.4190   -1.6870   22.5170 C   0  0  0  0  0  0  0  0  0  0  0  0
   13.1110   -3.0200   24.4950 C   0  0  0  0  0  0  0  0  0  0  0  0
   13.8470   -2.6820   23.4180 C   0  0  0  0  0  0  0  0  0  0  0  0
  1  2  1  0
  2  3  2  0
  2  4  1  0
  4  5  1  0
  4  6  1  0
  7  5  1  6
  6  8  1  0
  7  8  1  0
  6  9  1  1
  7 10  1  0
  9 10  1  0
 10 11  1  6
 11 12  2  0
 11 13  1  0
 13 14  1  0
 13 15  1  0
 15 16  2  0
 15 17  1  0
 16 18  1  0
 17 19  2  0
 18 20  2  0
 19 20  1  0
M  END
