MAK-UNK-7c9d1431-21-chloroacetamide
     RDKit          3D

 18 19  0  0  0  0  0  0  0  0999 V2000
    7.1150   -3.2650   19.5680 C   0  0  0  0  0  0  0  0  0  0  0  0
    6.1540   -4.1450   20.3640 C   0  0  0  0  0  0  0  0  0  0  0  0
    5.1180   -4.4960   19.8360 O   0  0  0  0  0  0  0  0  0  0  0  0
    6.4510   -4.5970   21.6370 N   0  0  0  0  0  0  0  0  0  0  0  0
    6.5710   -6.0390   21.6770 C   0  0  0  0  0  0  0  0  0  0  0  0
    7.1080   -3.7950   22.6960 C   0  0  0  0  0  0  0  0  0  0  0  0
    6.3810   -6.6040   22.9050 C   0  0  0  0  0  0  0  0  0  0  0  0
    6.2830   -3.7040   23.9980 C   0  0  0  0  0  0  0  0  0  0  0  0
    5.3720   -5.9760   23.6140 C   0  0  0  0  0  0  0  0  0  0  0  0
    5.9080   -5.0020   24.5530 N   0  0  0  0  0  0  0  0  0  0  0  0
    5.2110   -4.9290   25.8420 C   0  0  0  0  0  0  0  0  0  0  0  0
    4.0680   -3.9140   25.9070 C   0  0  0  0  0  0  0  0  0  0  0  0
    4.3410   -2.5350   26.0080 C   0  0  0  0  0  0  0  0  0  0  0  0
    2.7280   -4.3540   25.8710 C   0  0  0  0  0  0  0  0  0  0  0  0
    3.1760   -1.5440   26.0860 C   0  0  0  0  0  0  0  0  0  0  0  0
    1.6270   -3.4980   25.9410 C   0  0  0  0  0  0  0  0  0  0  0  0
    1.7740   -2.1200   26.0540 C   0  0  0  0  0  0  0  0  0  0  0  0
    0.6120   -1.1120   26.1590 C   0  0  0  0  0  0  0  0  0  0  0  0
  1  2  1  0
  2  3  2  0
  2  4  1  0
  4  5  1  0
  4  6  1  0
  5  7  1  0
  6  8  1  0
  7  9  1  0
  8 10  1  0
  9 10  1  0
 10 11  1  0
 11 12  1  0
 12 13  2  0
 12 14  1  0
 13 15  1  0
 14 16  2  0
 15 17  2  0
 16 17  1  0
 17 18  1  0
M  END
