MAK-UNK-52a1ef4b-1-bromoalkyne
     RDKit          3D

 15 16  0  0  0  0  0  0  0  0999 V2000
    7.3750   -4.3940   20.4050 C   0  0  0  0  0  0  0  0  0  0  0  0
    6.0690   -5.1770   20.1650 C   0  0  0  0  0  0  0  0  0  0  0  0
    7.5200   -3.5510   21.5270 N   0  0  0  0  0  0  0  0  0  0  0  0
    8.0380   -2.1830   21.4420 C   0  0  0  0  0  0  0  0  0  0  0  0
    6.4070   -3.5270   22.4570 C   0  0  0  0  0  0  0  0  0  0  0  0
    7.0920   -1.3690   20.6600 C   0  0  0  0  0  0  0  0  0  0  0  0
    5.3190   -2.6290   21.8550 C   0  0  0  0  0  0  0  0  0  0  0  0
    5.7550   -2.0080   20.5760 N   0  0  0  0  0  0  0  0  0  0  0  0
    5.3480   -2.4340   19.2870 C   0  0  0  0  0  0  0  0  0  0  0  0
    5.2620   -3.5670   19.7400 O   0  0  0  0  0  0  0  0  0  0  0  0
    5.5610   -1.0540   19.1280 N   0  0  0  0  0  0  0  0  0  0  0  0
    6.6520   -0.4630   18.5600 C   0  0  0  0  0  0  0  0  0  0  0  0
    4.7110   -0.0210   19.5010 C   0  0  0  0  0  0  0  0  0  0  0  0
    6.4970    0.8870   18.5680 C   0  0  0  0  0  0  0  0  0  0  0  0
    5.2840    1.1800   19.1550 C   0  0  0  0  0  0  0  0  0  0  0  0
  1  2  2  3
  1  3  1  0
  3  4  1  0
  3  5  1  0
  4  6  1  0
  5  7  1  0
  6  8  1  0
  7  8  1  0
  8  9  1  0
  9 10  2  0
  9 11  1  0
 11 12  1  0
 11 13  1  0
 12 14  2  0
 13 15  2  0
 14 15  1  0
M  END
