MAK-UNK-72659d64-9-nitrile
     RDKit          3D

 16 16  0  0  0  0  0  0  0  0999 V2000
    6.1560   -4.9760   19.9670 C   0  0  0  0  0  0  0  0  0  0  0  0
    6.1260   -3.7600   19.5330 N   0  0  0  0  0  0  0  0  0  0  0  0
    5.4270   -5.4800   21.0010 N   0  0  0  0  0  0  0  0  0  0  0  0
    5.5770   -4.8810   22.2810 C   0  0  0  0  0  0  0  0  0  0  0  0
    6.8870   -4.1100   22.4070 C   0  0  0  0  0  0  0  0  0  0  0  0
    4.7010   -4.9160   23.3740 C   0  0  0  0  0  0  0  0  0  0  0  0
    7.0800   -3.4740   23.6820 N   0  0  0  0  0  0  0  0  0  0  0  0
    4.9660   -4.2890   24.5390 N   0  0  0  0  0  0  0  0  0  0  0  0
    3.4810   -5.6130   23.3100 N   0  0  0  0  0  0  0  0  0  0  0  0
    6.1140   -3.5960   24.6640 C   0  0  0  0  0  0  0  0  0  0  0  0
    2.5200   -5.6210   24.2570 C   0  0  0  0  0  0  0  0  0  0  0  0
    6.4260   -2.8650   25.9320 C   0  0  0  0  0  0  0  0  0  0  0  0
    2.8610   -5.4380   25.4280 O   0  0  0  0  0  0  0  0  0  0  0  0
    1.0780   -5.8300   23.9360 C   0  0  0  0  0  0  0  0  0  0  0  0
    6.9130   -1.5960   25.8030 N   0  0  0  0  0  0  0  0  0  0  0  0
    0.5690   -6.7750   22.5970 Cl  0  0  0  0  0  0  0  0  0  0  0  0
  1  2  2  3
  1  3  1  0
  3  4  1  0
  4  5  2  0
  4  6  1  0
  5  7  1  0
  6  8  2  0
  6  9  1  0
  7 10  2  0
  8 10  1  0
  9 11  1  0
 10 12  1  0
 11 13  2  0
 11 14  1  0
 12 15  3  0
 14 16  1  0
M  END
