MAK-UNK-6ca90168-11-acrylamide
     RDKit          3D

 23 25  0  0  0  0  0  0  0  0999 V2000
    7.4070   -2.8160   18.2030 C   0  0  0  0  0  0  0  0  0  0  0  0
    6.4080   -2.1270   19.0740 C   0  0  0  0  0  0  0  0  0  0  0  0
    5.8550   -3.0050   20.1420 C   0  0  0  0  0  0  0  0  0  0  0  0
    5.1780   -4.0450   19.9400 O   0  0  0  0  0  0  0  0  0  0  0  0
    6.1950   -2.5260   21.3660 N   0  0  0  0  0  0  0  0  0  0  0  0
    6.9820   -1.2840   21.5220 C   0  0  0  0  0  0  0  0  0  0  0  0
    5.9270   -3.2420   22.5880 C   0  0  0  0  0  0  0  0  0  0  0  0
    8.4090   -1.7540   21.9720 C   0  0  0  0  0  0  0  0  0  0  0  0
    7.2140   -3.5070   23.3380 C   0  0  0  0  0  0  0  0  0  0  0  0
    8.1200   -2.2580   23.3890 C   0  0  0  0  0  0  0  0  0  0  0  0
    9.5280   -2.6870   23.8300 C   0  0  0  0  0  0  0  0  0  0  0  0
    9.1310   -3.2080   25.2380 C   0  0  0  0  0  0  0  0  0  0  0  0
   10.5740   -1.5830   23.6700 C   0  0  0  0  0  0  0  0  0  0  0  0
    7.8920   -2.8130   26.0950 C   0  0  0  0  0  0  0  0  0  0  0  0
    9.9360   -4.2930   26.0740 C   0  0  0  0  0  0  0  0  0  0  0  0
   10.3880   -0.1250   24.1470 C   0  0  0  0  0  0  0  0  0  0  0  0
   11.7680   -1.9250   23.0340 C   0  0  0  0  0  0  0  0  0  0  0  0
    7.6350   -3.4420   27.4730 C   0  0  0  0  0  0  0  0  0  0  0  0
    9.5770   -4.7800   27.3330 C   0  0  0  0  0  0  0  0  0  0  0  0
   11.5080    0.9110   23.9050 C   0  0  0  0  0  0  0  0  0  0  0  0
   12.8600   -0.9120   22.8020 C   0  0  0  0  0  0  0  0  0  0  0  0
    8.4560   -4.3810   28.0410 C   0  0  0  0  0  0  0  0  0  0  0  0
   12.6820    0.5200   23.2610 C   0  0  0  0  0  0  0  0  0  0  0  0
  1  2  1  0
  2  3  1  0
  3  4  2  0
  3  5  1  0
  5  6  1  0
  5  7  1  0
  6  8  1  0
  7  9  1  0
  8 10  1  0
  9 10  1  0
 10 11  1  0
 11 12  1  0
 11 13  1  0
 12 14  2  0
 12 15  1  0
 13 16  2  0
 13 17  1  0
 14 18  1  0
 15 19  2  0
 16 20  1  0
 17 21  2  0
 18 22  2  0
 19 22  1  0
 20 23  2  0
 21 23  1  0
M  END
