MAK-UNK-198e6d85-10
     RDKit          3D

 22 24  0  0  0  0  0  0  0  0999 V2000
   10.6600   -2.7620   25.3490 N   0  0  0  0  0  0  0  0  0  0  0  0
   10.1630   -1.7220   24.6600 C   0  0  0  0  0  0  0  0  0  0  0  0
    9.7100   -0.7450   23.5510 C   0  0  2  0  0  0  0  0  0  0  0  0
    8.5830   -0.8250   22.9540 O   0  0  0  0  0  0  0  0  0  0  0  0
   10.7920    0.1500   22.8370 C   0  0  0  0  0  0  0  0  0  0  0  0
    8.2360   -2.0940   22.6970 C   0  0  2  0  0  0  0  0  0  0  0  0
   10.3900   -1.2730   22.5180 C   0  0  0  0  0  0  0  0  0  0  0  0
   12.3210    0.1030   23.0830 C   0  0  0  0  0  0  0  0  0  0  0  0
    7.3040   -2.7860   23.7210 C   0  0  2  0  0  0  0  0  0  0  0  0
    9.6430   -2.4620   22.6650 C   0  0  0  0  0  0  0  0  0  0  0  0
   12.8970   -1.0030   23.8070 C   0  0  0  0  0  0  0  0  0  0  0  0
   10.8700   -2.2660   23.4730 C   0  0  0  0  0  0  0  0  0  0  0  0
    7.8080   -4.0670   24.4230 C   0  0  0  0  0  0  0  0  0  0  0  0
    5.9850   -2.8020   23.1810 C   0  0  0  0  0  0  0  0  0  0  0  0
   12.0980   -2.1790   24.1560 C   0  0  0  0  0  0  0  0  0  0  0  0
   10.2040   -3.4580   23.6450 O   0  0  0  0  0  0  0  0  0  0  0  0
    7.7400   -4.4430   22.9670 C   0  0  0  0  0  0  0  0  0  0  0  0
    5.5920   -3.8450   22.3540 C   0  0  2  0  0  0  0  0  0  0  0  0
   12.7060   -3.1260   25.0290 O   0  0  0  0  0  0  0  0  0  0  0  0
    6.5020   -4.8690   22.5080 C   0  0  0  0  0  0  0  0  0  0  0  0
    5.3600   -3.4630   20.9110 C   0  0  0  0  0  0  0  0  0  0  0  0
    5.2270   -4.4710   19.8980 O   0  0  0  0  0  0  0  0  0  0  0  0
  1  2  1  0
  3  2  1  6
  3  4  1  0
  3  5  1  0
  4  6  1  0
  5  7  2  0
  5  8  1  0
  6  9  1  0
  6 10  1  1
  7 10  1  0
  8 11  2  0
  7 12  1  0
  9 13  1  6
  9 14  1  0
 11 15  1  0
 12 15  2  0
 12 16  1  0
 13 17  1  0
 14 18  1  0
 15 19  1  0
 17 20  1  0
 18 20  1  0
 18 21  1  6
 21 22  2  0
M  END
