MAK-UNK-6ca90168-12-vinylsulfonamide
     RDKit          3D

 24 26  0  0  0  0  0  0  0  0999 V2000
    7.9460   -3.3730   19.5560 C   0  0  0  0  0  0  0  0  0  0  0  0
    6.8020   -2.7270   18.8430 C   0  0  0  0  0  0  0  0  0  0  0  0
    5.6240   -3.3420   19.9450 S   0  0  0  0  0  0  0  0  0  0  0  0
    4.3480   -3.0100   19.5030 O   0  0  0  0  0  0  0  0  0  0  0  0
    5.8380   -4.7460   20.0860 O   0  0  0  0  0  0  0  0  0  0  0  0
    6.0660   -2.4940   21.3030 N   0  0  0  0  0  0  0  0  0  0  0  0
    5.9240   -3.0610   22.6400 C   0  0  0  0  0  0  0  0  0  0  0  0
    7.0690   -1.4040   21.1430 C   0  0  0  0  0  0  0  0  0  0  0  0
    7.3830   -3.4980   22.9540 C   0  0  0  0  0  0  0  0  0  0  0  0
    8.3860   -1.6270   21.9190 C   0  0  0  0  0  0  0  0  0  0  0  0
    8.1210   -2.2460   23.2350 N   0  0  0  0  0  0  0  0  0  0  0  0
    9.3270   -2.3710   24.0700 C   0  0  0  0  0  0  0  0  0  0  0  0
    8.8690   -2.1660   25.5190 C   0  0  0  0  0  0  0  0  0  0  0  0
   10.4370   -1.3600   23.7440 C   0  0  0  0  0  0  0  0  0  0  0  0
    8.1570   -3.4990   25.9310 C   0  0  0  0  0  0  0  0  0  0  0  0
    9.0580   -1.0100   26.3080 C   0  0  0  0  0  0  0  0  0  0  0  0
   11.6160   -1.8080   22.9470 C   0  0  0  0  0  0  0  0  0  0  0  0
   10.3370   -0.0260   24.2020 C   0  0  0  0  0  0  0  0  0  0  0  0
    7.6560   -3.3840   27.3960 C   0  0  0  0  0  0  0  0  0  0  0  0
    8.5480   -0.9360   27.7500 C   0  0  0  0  0  0  0  0  0  0  0  0
   12.7280   -0.8300   22.6280 C   0  0  0  0  0  0  0  0  0  0  0  0
   11.4030    1.0280   23.9300 C   0  0  0  0  0  0  0  0  0  0  0  0
    7.8310   -2.1550   28.3010 C   0  0  0  0  0  0  0  0  0  0  0  0
   12.6270    0.6050   23.1230 C   0  0  0  0  0  0  0  0  0  0  0  0
  1  2  1  0
  3  2  1  0
  3  4  2  0
  3  5  2  0
  3  6  1  0
  6  7  1  0
  6  8  1  0
  7  9  1  0
  8 10  1  0
  9 11  1  0
 10 11  1  0
 11 12  1  0
 12 13  1  0
 12 14  1  0
 13 15  2  0
 13 16  1  0
 14 17  2  0
 14 18  1  0
 15 19  1  0
 16 20  2  0
 17 21  1  0
 18 22  2  0
 19 23  2  0
 20 23  1  0
 21 24  2  0
 22 24  1  0
M  END
