MAK-UNK-8fdbca50-30-vinylsulfonamide
     RDKit          3D

 41 44  0  0  0  0  0  0  0  0999 V2000
    9.0560   -5.5490   20.5030 C   0  0  0  0  0  0  0  0  0  0  0  0
    8.1400   -4.3600   20.8680 C   0  0  0  0  0  0  0  0  0  0  0  0
    6.4740   -5.0830   20.8260 S   0  0  0  0  0  0  0  0  0  0  0  0
    5.3300   -4.1460   20.9540 O   0  0  0  0  0  0  0  0  0  0  0  0
    6.4550   -6.0270   19.7470 O   0  0  0  0  0  0  0  0  0  0  0  0
    6.5770   -5.9250   22.2760 N   0  0  0  0  0  0  0  0  0  0  0  0
    5.3650   -6.4960   22.8370 C   0  0  0  0  0  0  0  0  0  0  0  0
    7.4180   -5.3530   23.3270 C   0  0  0  0  0  0  0  0  0  0  0  0
    4.9810   -5.6830   24.0430 C   0  0  0  0  0  0  0  0  0  0  0  0
    6.7950   -4.2040   23.8320 C   0  0  0  0  0  0  0  0  0  0  0  0
    5.4020   -4.3420   24.0290 C   0  0  0  0  0  0  0  0  0  0  0  0
    4.6430   -3.5280   23.1970 C   0  0  0  0  0  0  0  0  0  0  0  0
    3.8840   -4.0170   22.3650 O   0  0  0  0  0  0  0  0  0  0  0  0
    4.8530   -2.0660   23.4280 N   0  0  0  0  0  0  0  0  0  0  0  0
    6.1650   -1.6510   22.8770 C   0  0  0  0  0  0  0  0  0  0  0  0
    4.6070   -1.4770   24.7730 C   0  0  0  0  0  0  0  0  0  0  0  0
    6.5550   -1.5920   21.4390 C   0  0  0  0  0  0  0  0  0  0  0  0
    7.1450   -1.2810   23.7230 C   0  0  0  0  0  0  0  0  0  0  0  0
    5.0210   -0.0140   24.9400 C   0  0  0  0  0  0  0  0  0  0  0  0
    3.2130   -1.7670   25.3310 C   0  0  0  0  0  0  0  0  0  0  0  0
    7.8270   -1.1900   20.9650 C   0  0  0  0  0  0  0  0  0  0  0  0
    8.4030   -0.8770   23.3260 C   0  0  0  0  0  0  0  0  0  0  0  0
    8.8520   -0.7920   21.9870 C   0  0  0  0  0  0  0  0  0  0  0  0
    9.0880   -0.5920   24.4360 C   0  0  0  0  0  0  0  0  0  0  0  0
   10.0780   -0.3930   21.6450 F   0  0  0  0  0  0  0  0  0  0  0  0
    8.4520   -0.3060   25.7380 C   0  0  0  0  0  0  0  0  0  0  0  0
   10.4850   -0.5000   24.5910 N   0  0  0  0  0  0  0  0  0  0  0  0
    9.4220   -0.0600   26.6430 C   0  0  0  0  0  0  0  0  0  0  0  0
   10.6500   -0.2170   25.8870 C   0  0  0  0  0  0  0  0  0  0  0  0
   11.7610   -0.6470   23.4940 S   0  0  0  0  0  0  0  0  0  0  0  0
    9.1780    0.2670   27.9770 C   0  0  0  0  0  0  0  0  0  0  0  0
   12.9660   -0.8350   24.2710 O   0  0  0  0  0  0  0  0  0  0  0  0
   11.3630   -1.5310   22.4260 O   0  0  0  0  0  0  0  0  0  0  0  0
   11.6140    1.0310   23.0840 C   0  0  0  0  0  0  0  0  0  0  0  0
    8.1400   -0.4460   28.5430 N   0  0  0  0  0  0  0  0  0  0  0  0
   10.3420    1.6080   22.9510 C   0  0  0  0  0  0  0  0  0  0  0  0
   12.7210    1.8170   22.8990 C   0  0  0  0  0  0  0  0  0  0  0  0
    8.4390   -0.7820   29.8110 C   0  0  0  0  0  0  0  0  0  0  0  0
   10.2600    2.9610   22.6360 C   0  0  0  0  0  0  0  0  0  0  0  0
   12.6530    3.1450   22.5930 N   0  0  0  0  0  0  0  0  0  0  0  0
   11.4320    3.6890   22.4670 C   0  0  0  0  0  0  0  0  0  0  0  0
  1  2  1  0
  3  2  1  0
  3  4  2  0
  3  5  2  0
  3  6  1  0
  6  7  1  0
  6  8  1  0
  7  9  1  0
  8 10  1  0
  9 11  1  0
 10 11  1  0
 11 12  1  0
 12 13  2  0
 12 14  1  0
 14 15  1  0
 14 16  1  0
 15 17  2  0
 15 18  1  0
 16 19  1  0
 16 20  1  0
 17 21  1  0
 18 22  2  0
 21 23  2  0
 22 23  1  0
 22 24  1  0
 23 25  1  0
 24 26  2  0
 24 27  1  0
 26 28  1  0
 27 29  1  0
 28 29  2  0
 27 30  1  0
 28 31  1  0
 30 32  2  0
 30 33  2  0
 30 34  1  0
 31 35  1  0
 34 36  2  0
 34 37  1  0
 35 38  1  0
 36 39  1  0
 37 40  2  0
 39 41  2  0
 40 41  1  0
M  END
