MAK-UNK-10799360-24
     RDKit          3D

 27 30  0  0  0  0  0  0  0  0999 V2000
   10.7020   -3.9770   24.1020 O   0  0  0  0  0  0  0  0  0  0  0  0
   10.1010   -3.4380   23.2020 C   0  0  0  0  0  0  0  0  0  0  0  0
   10.6400   -2.8420   22.1370 N   0  0  0  0  0  0  0  0  0  0  0  0
    8.6190   -3.4070   23.3270 C   0  0  2  0  0  0  0  0  0  0  0  0
   11.3120   -1.8560   22.6440 C   0  0  0  0  0  0  0  0  0  0  0  0
    7.6600   -4.3690   22.6240 C   0  0  0  0  0  0  0  0  0  0  0  0
    7.9810   -2.0710   22.8750 C   0  0  2  0  0  0  0  0  0  0  0  0
   12.2390   -2.2790   23.7560 C   0  0  0  0  0  0  0  0  0  0  0  0
   11.1190   -0.6160   22.1590 C   0  0  0  0  0  0  0  0  0  0  0  0
    6.5100   -3.5990   22.5310 C   0  0  1  0  0  0  0  0  0  0  0  0
    6.7680   -2.5170   23.3590 C   0  0  0  0  0  0  0  0  0  0  0  0
    7.9090   -2.1260   21.4930 C   0  0  0  0  0  0  0  0  0  0  0  0
   12.9800   -1.0920   24.3140 C   0  0  0  0  0  0  0  0  0  0  0  0
   11.7900    0.6250   22.6410 C   0  0  0  0  0  0  0  0  0  0  0  0
    6.6670   -2.8520   21.2720 N   0  0  0  0  0  0  0  0  0  0  0  0
   12.7450    0.3270   23.7500 C   0  0  0  0  0  0  0  0  0  0  0  0
    6.0390   -2.9940   19.9610 C   0  0  0  0  0  0  0  0  0  0  0  0
    5.3950   -3.9930   19.6340 O   0  0  0  0  0  0  0  0  0  0  0  0
    6.2080   -1.7980   19.0690 C   0  0  1  0  0  0  0  0  0  0  0  0
    4.8900   -0.7140   19.5760 Cl  0  0  0  0  0  0  0  0  0  0  0  0
    7.3990   -0.9340   19.2730 C   0  0  0  0  0  0  0  0  0  0  0  0
    7.1060    0.3890   20.0180 C   0  0  0  0  0  0  0  0  0  0  0  0
    7.9270    0.7960   21.0940 C   0  0  0  0  0  0  0  0  0  0  0  0
    6.0410    1.2240   19.6760 C   0  0  0  0  0  0  0  0  0  0  0  0
    7.6720    1.9870   21.7790 C   0  0  0  0  0  0  0  0  0  0  0  0
    5.7480    2.4210   20.3430 N   0  0  0  0  0  0  0  0  0  0  0  0
    6.5930    2.7720   21.3950 C   0  0  0  0  0  0  0  0  0  0  0  0
  1  2  2  0
  2  3  1  0
  4  2  1  6
  3  5  1  0
  4  6  1  0
  4  7  1  0
  5  8  2  0
  5  9  1  0
 10  6  1  6
  7 11  1  0
 10 11  1  0
  7 12  1  6
  8 13  1  0
  9 14  2  0
 10 15  1  0
 12 15  1  0
 13 16  2  0
 14 16  1  0
 15 17  1  0
 17 18  2  0
 17 19  1  0
 19 20  1  0
 19 21  1  1
 21 22  1  0
 22 23  2  0
 22 24  1  0
 23 25  1  0
 24 26  2  0
 25 27  2  0
 26 27  1  0
M  END
