MAK-UNK-6ca90168-13-vinylsulfonamide
     RDKit          3D

 19 20  0  0  0  0  0  0  0  0999 V2000
    7.8770   -2.7640   18.6590 C   0  0  0  0  0  0  0  0  0  0  0  0
    6.4590   -2.9870   18.9350 C   0  0  0  0  0  0  0  0  0  0  0  0
    6.3100   -3.7570   20.4890 S   0  0  0  0  0  0  0  0  0  0  0  0
    5.2450   -4.6610   20.2070 O   0  0  0  0  0  0  0  0  0  0  0  0
    7.5490   -4.2750   20.9970 O   0  0  0  0  0  0  0  0  0  0  0  0
    6.0240   -2.4670   21.4660 N   0  0  0  0  0  0  0  0  0  0  0  0
    6.8820   -1.2820   21.2790 C   0  0  0  0  0  0  0  0  0  0  0  0
    5.8800   -2.8570   22.8550 C   0  0  0  0  0  0  0  0  0  0  0  0
    8.3040   -1.7850   21.7260 C   0  0  0  0  0  0  0  0  0  0  0  0
    7.1150   -3.2170   23.4020 C   0  0  0  0  0  0  0  0  0  0  0  0
    8.1920   -2.2550   23.1350 N   0  0  0  0  0  0  0  0  0  0  0  0
    9.4760   -2.5750   23.8000 C   0  0  0  0  0  0  0  0  0  0  0  0
   10.4710   -1.4320   23.6110 C   0  0  0  0  0  0  0  0  0  0  0  0
   11.8270   -2.0870   23.2190 C   0  0  0  0  0  0  0  0  0  0  0  0
   10.1890   -0.0700   23.7630 C   0  0  0  0  0  0  0  0  0  0  0  0
   12.8820   -0.9870   23.0030 C   0  0  0  0  0  0  0  0  0  0  0  0
   11.2580    1.0000   23.5370 C   0  0  0  0  0  0  0  0  0  0  0  0
   12.6440    0.5190   23.1480 C   0  0  0  0  0  0  0  0  0  0  0  0
   10.8980    2.6590   23.7040 Cl  0  0  0  0  0  0  0  0  0  0  0  0
  1  2  1  0
  3  2  1  0
  3  4  2  0
  3  5  2  0
  3  6  1  0
  6  7  1  0
  6  8  1  0
  7  9  1  0
  8 10  1  0
  9 11  1  0
 10 11  1  0
 11 12  1  0
 12 13  1  0
 13 14  2  0
 13 15  1  0
 14 16  1  0
 15 17  2  0
 16 18  2  0
 17 18  1  0
 17 19  1  0
M  END
