MAK-UNK-148caf23-19-bromoalkyne
     RDKit          3D

 34 37  0  0  0  0  0  0  0  0999 V2000
    8.3910   -3.3670   19.7720 C   0  0  0  0  0  0  0  0  0  0  0  0
    6.8920   -3.0900   19.5100 C   0  0  0  0  0  0  0  0  0  0  0  0
    9.1700   -2.6000   21.1810 C   0  0  0  0  0  0  0  0  0  0  0  0
    8.1860   -2.2810   22.3260 C   0  0  0  0  0  0  0  0  0  0  0  0
   10.6510   -2.1160   21.5780 C   0  0  0  0  0  0  0  0  0  0  0  0
    9.4180   -1.8930   22.5960 C   0  0  0  0  0  0  0  0  0  0  0  0
   11.1790   -1.4290   22.7990 N   0  0  0  0  0  0  0  0  0  0  0  0
   10.1270   -1.2880   23.5270 C   0  0  0  0  0  0  0  0  0  0  0  0
    9.9100   -0.6950   24.8100 N   0  0  0  0  0  0  0  0  0  0  0  0
    8.4760   -0.6630   25.1540 C   0  0  0  0  0  0  0  0  0  0  0  0
    8.0900    0.4640   26.1100 C   0  0  0  0  0  0  0  0  0  0  0  0
    8.4570    0.2870   27.5120 N   0  0  0  0  0  0  0  0  0  0  0  0
    7.3580    1.6340   25.4890 C   0  0  0  0  0  0  0  0  0  0  0  0
    8.0030    1.4120   28.2080 C   0  0  0  0  0  0  0  0  0  0  0  0
    6.8870    2.8110   26.1970 C   0  0  0  0  0  0  0  0  0  0  0  0
    7.0350    1.5700   23.7280 S   0  0  0  0  0  0  0  0  0  0  0  0
    7.4680    2.0070   27.0360 C   0  0  0  0  0  0  0  0  0  0  0  0
    8.2010    2.0800   23.0470 O   0  0  0  0  0  0  0  0  0  0  0  0
    6.5410    0.2440   23.4360 O   0  0  0  0  0  0  0  0  0  0  0  0
    5.7770    2.6110   23.2460 N   0  0  0  0  0  0  0  0  0  0  0  0
    4.4870    2.1560   23.0050 C   0  0  0  0  0  0  0  0  0  0  0  0
    5.7320    3.9340   23.0060 C   0  0  0  0  0  0  0  0  0  0  0  0
    3.6490    3.2200   22.6120 C   0  0  0  0  0  0  0  0  0  0  0  0
    4.4710    4.3740   22.6200 C   0  0  0  0  0  0  0  0  0  0  0  0
    6.7450    4.8910   23.0890 C   0  0  0  0  0  0  0  0  0  0  0  0
    2.2940    3.1300   22.2890 C   0  0  0  0  0  0  0  0  0  0  0  0
    6.3440    5.2690   21.9790 C   0  0  0  0  0  0  0  0  0  0  0  0
    7.5140    6.0460   22.5610 C   0  0  0  0  0  0  0  0  0  0  0  0
    1.9030    2.1520   21.3930 N   0  0  0  0  0  0  0  0  0  0  0  0
    7.1260    6.3020   21.6490 C   0  0  0  0  0  0  0  0  0  0  0  0
    7.5100    6.9470   21.2980 C   0  0  0  0  0  0  0  0  0  0  0  0
    8.4890    6.4290   23.4150 F   0  0  0  0  0  0  0  0  0  0  0  0
    2.5680    2.3090   20.2050 C   0  0  0  0  0  0  0  0  0  0  0  0
    8.2460    6.9790   22.3050 C   0  0  0  0  0  0  0  0  0  0  0  0
  1  2  2  3
  1  3  1  0
  3  4  2  0
  3  5  1  0
  4  6  1  0
  5  7  2  0
  6  8  2  0
  7  8  1  0
  8  9  1  0
  9 10  1  0
 10 11  1  0
 11 12  2  0
 11 13  1  0
 12 14  1  0
 13 15  2  0
 16 13  1  0
 14 17  2  0
 15 17  1  0
 16 18  2  0
 16 19  2  0
 16 20  1  0
 20 21  1  0
 20 22  1  0
 21 23  2  0
 22 24  2  0
 23 24  1  0
 22 25  1  0
 23 26  1  0
 25 27  2  0
 25 28  1  0
 26 29  1  0
 27 30  1  0
 28 31  2  0
 28 32  1  0
 29 33  1  0
 30 34  2  0
 31 34  1  0
M  END
