MAK-UNK-ec98eaf6-18-bromoalkyne
     RDKit          3D

 20 22  0  0  0  0  0  0  0  0999 V2000
    6.9570   -3.4110   19.6980 C   0  0  0  0  0  0  0  0  0  0  0  0
    5.8330   -2.9580   18.8390 C   0  0  0  0  0  0  0  0  0  0  0  0
    6.9950   -3.0520   21.0390 N   0  0  0  0  0  0  0  0  0  0  0  0
    7.0460   -1.5980   21.4280 C   0  0  0  0  0  0  0  0  0  0  0  0
    7.8350   -3.6690   22.0870 C   0  0  1  0  0  0  0  0  0  0  0  0
    8.3270   -1.6540   22.3150 C   0  0  2  0  0  0  0  0  0  0  0  0
    9.1280   -2.8540   21.9510 C   0  0  0  0  0  0  0  0  0  0  0  0
    7.2500   -3.4370   23.3220 C   0  0  1  0  0  0  0  0  0  0  0  0
    7.3940   -4.4200   24.3020 C   0  0  0  0  0  0  0  0  0  0  0  0
    8.0650   -2.2020   23.6660 N   0  0  0  0  0  0  0  0  0  0  0  0
    9.3090   -2.4470   24.2830 C   0  0  0  0  0  0  0  0  0  0  0  0
    9.0850   -2.3210   25.6040 F   0  0  0  0  0  0  0  0  0  0  0  0
    9.6260   -3.7650   24.1670 F   0  0  0  0  0  0  0  0  0  0  0  0
   10.4050   -1.5860   23.8770 C   0  0  0  0  0  0  0  0  0  0  0  0
   10.4890   -0.2590   24.5770 C   0  0  0  0  0  0  0  0  0  0  0  0
   11.3180   -1.9360   22.9030 C   0  0  0  0  0  0  0  0  0  0  0  0
   11.6500    0.6210   24.1030 C   0  0  0  0  0  0  0  0  0  0  0  0
   12.3360   -1.1050   22.5240 C   0  0  0  0  0  0  0  0  0  0  0  0
   12.6070    0.1540   23.0290 C   0  0  0  0  0  0  0  0  0  0  0  0
   13.3400   -1.7010   21.3020 Cl  0  0  0  0  0  0  0  0  0  0  0  0
  1  2  2  3
  1  3  1  0
  3  4  1  0
  5  3  1  6
  6  4  1  6
  5  7  1  0
  6  7  1  0
  5  8  1  0
  8  9  1  1
  6 10  1  0
  8 10  1  0
 10 11  1  0
 11 12  1  0
 11 13  1  0
 11 14  1  0
 14 15  2  0
 14 16  1  0
 15 17  1  0
 16 18  2  0
 17 19  2  0
 18 19  1  0
 18 20  1  0
M  END
