MAK-UNK-bae89c02-3-bromoalkyne
     RDKit          3D

 24 27  0  0  0  0  0  0  0  0999 V2000
    6.9390   -3.6310   19.8600 C   0  0  0  0  0  0  0  0  0  0  0  0
    6.0080   -2.9640   18.8550 C   0  0  0  0  0  0  0  0  0  0  0  0
    6.9690   -3.1510   21.1500 N   0  0  0  0  0  0  0  0  0  0  0  0
    7.8140   -1.9670   21.3030 C   0  0  0  0  0  0  0  0  0  0  0  0
    5.8040   -2.8040   22.0640 C   0  0  2  0  0  0  0  0  0  0  0  0
    7.0690   -1.0750   22.2280 C   0  0  1  0  0  0  0  0  0  0  0  0
    5.6070   -1.3080   21.8140 C   0  0  0  0  0  0  0  0  0  0  0  0
    6.3180   -2.7260   23.4880 C   0  0  0  0  0  0  0  0  0  0  0  0
    7.2810   -1.7070   23.5740 N   0  0  0  0  0  0  0  0  0  0  0  0
    8.6800   -2.1590   23.6550 C   0  0  0  0  0  0  0  0  0  0  0  0
    9.7860   -1.1470   23.6110 C   0  0  0  0  0  0  0  0  0  0  0  0
    9.6040    0.0390   24.3370 C   0  0  0  0  0  0  0  0  0  0  0  0
   10.9890   -1.3620   22.8660 C   0  0  0  0  0  0  0  0  0  0  0  0
   10.5850    1.0090   24.3390 C   0  0  0  0  0  0  0  0  0  0  0  0
   11.9670   -0.3730   22.8910 C   0  0  0  0  0  0  0  0  0  0  0  0
   11.2490   -2.5300   22.0900 C   0  0  0  0  0  0  0  0  0  0  0  0
   11.7340    0.7760   23.6270 C   0  0  0  0  0  0  0  0  0  0  0  0
   13.1820   -0.6310   22.1130 C   0  0  0  0  0  0  0  0  0  0  0  0
   12.4630   -2.7080   21.3560 C   0  0  0  0  0  0  0  0  0  0  0  0
   13.4210   -1.7170   21.3810 C   0  0  0  0  0  0  0  0  0  0  0  0
   13.0380   -4.0840   20.2550 S   0  0  0  0  0  0  0  0  0  0  0  0
   13.9450   -5.4250   20.5470 N   0  0  0  0  0  0  0  0  0  0  0  0
   14.3380   -3.6440   19.8530 O   0  0  0  0  0  0  0  0  0  0  0  0
   12.0120   -4.5790   19.3800 O   0  0  0  0  0  0  0  0  0  0  0  0
  1  2  2  3
  1  3  1  0
  3  4  1  0
  3  5  1  0
  6  4  1  6
  5  7  1  0
  6  7  1  0
  5  8  1  1
  6  9  1  0
  8  9  1  0
  9 10  1  0
 10 11  1  0
 11 12  2  0
 11 13  1  0
 12 14  1  0
 13 15  2  0
 13 16  1  0
 14 17  2  0
 15 17  1  0
 15 18  1  0
 16 19  2  0
 18 20  2  0
 19 20  1  0
 19 21  1  0
 21 22  1  0
 21 23  2  0
 21 24  2  0
M  END
