MAK-UNK-8fdbca50-12-vinylsulfonamide
     RDKit          3D

 41 44  0  0  0  0  0  0  0  0999 V2000
    7.2320   -4.2910   20.6460 C   0  0  0  0  0  0  0  0  0  0  0  0
    6.9720   -4.5830   22.1240 C   0  0  0  0  0  0  0  0  0  0  0  0
    5.2160   -4.5760   22.3010 S   0  0  0  0  0  0  0  0  0  0  0  0
    4.8040   -3.3560   21.6810 O   0  0  0  0  0  0  0  0  0  0  0  0
    4.6950   -5.8490   21.8930 O   0  0  0  0  0  0  0  0  0  0  0  0
    4.7970   -4.3770   23.9020 N   0  0  0  0  0  0  0  0  0  0  0  0
    4.0040   -3.1830   24.2440 C   0  0  0  0  0  0  0  0  0  0  0  0
    5.4830   -5.0830   24.9890 C   0  0  0  0  0  0  0  0  0  0  0  0
    4.8400   -2.2940   25.1150 C   0  0  0  0  0  0  0  0  0  0  0  0
    5.6440   -4.2030   26.0630 C   0  0  0  0  0  0  0  0  0  0  0  0
    5.9840   -2.9240   25.5970 C   0  0  0  0  0  0  0  0  0  0  0  0
    7.0640   -2.9380   24.7140 C   0  0  0  0  0  0  0  0  0  0  0  0
    7.5970   -3.9810   24.3300 O   0  0  0  0  0  0  0  0  0  0  0  0
    7.5040   -1.5790   24.2710 N   0  0  0  0  0  0  0  0  0  0  0  0
    7.1930   -0.4580   25.2280 C   0  0  0  0  0  0  0  0  0  0  0  0
    7.5130   -1.2260   22.8180 C   0  0  2  0  0  0  0  0  0  0  0  0
    8.3900   -2.0830   22.0650 C   0  0  0  0  0  0  0  0  0  0  0  0
    8.0190    0.2020   22.7550 C   0  0  0  0  0  0  0  0  0  0  0  0
    6.9410    1.2610   22.7860 C   0  0  0  0  0  0  0  0  0  0  0  0
    9.3610    0.5730   22.6860 C   0  0  0  0  0  0  0  0  0  0  0  0
    7.3340    2.5830   22.7460 C   0  0  0  0  0  0  0  0  0  0  0  0
    9.7540    1.9030   22.6580 C   0  0  0  0  0  0  0  0  0  0  0  0
   10.3080   -0.3540   22.6480 F   0  0  0  0  0  0  0  0  0  0  0  0
    8.7980    2.9400   22.6810 C   0  0  0  0  0  0  0  0  0  0  0  0
   11.0900    2.2960   22.5980 C   0  0  0  0  0  0  0  0  0  0  0  0
   11.3500    3.6410   22.5070 C   0  0  0  0  0  0  0  0  0  0  0  0
   12.3610    1.6070   22.5970 N   0  0  0  0  0  0  0  0  0  0  0  0
   12.6090    4.0520   22.4380 C   0  0  0  0  0  0  0  0  0  0  0  0
   13.3210    2.7130   22.4920 C   0  0  0  0  0  0  0  0  0  0  0  0
   12.9090   -0.0790   22.6910 S   0  0  0  0  0  0  0  0  0  0  0  0
   12.9800    5.3900   22.3450 C   0  0  0  0  0  0  0  0  0  0  0  0
   13.7830   -0.1410   23.7640 O   0  0  0  0  0  0  0  0  0  0  0  0
   13.2400   -0.7920   21.4800 O   0  0  0  0  0  0  0  0  0  0  0  0
   11.5910   -0.7430   23.4710 C   0  0  0  0  0  0  0  0  0  0  0  0
   12.6510    5.7810   23.6110 N   0  0  0  0  0  0  0  0  0  0  0  0
   11.1200   -2.0550   23.1590 C   0  0  0  0  0  0  0  0  0  0  0  0
   11.2180    0.2450   24.3470 C   0  0  0  0  0  0  0  0  0  0  0  0
   11.8760    6.8910   23.5210 C   0  0  0  0  0  0  0  0  0  0  0  0
   10.0830   -1.9650   24.1130 C   0  0  0  0  0  0  0  0  0  0  0  0
   10.2320    0.1740   25.1650 N   0  0  0  0  0  0  0  0  0  0  0  0
    9.6950   -0.9740   24.9980 C   0  0  0  0  0  0  0  0  0  0  0  0
  1  2  1  0
  3  2  1  0
  3  4  2  0
  3  5  2  0
  3  6  1  0
  6  7  1  0
  6  8  1  0
  7  9  1  0
  8 10  1  0
  9 11  1  0
 10 11  1  0
 11 12  1  0
 12 13  2  0
 12 14  1  0
 14 15  1  0
 14 16  1  0
 16 17  1  6
 16 18  1  0
 18 19  2  0
 18 20  1  0
 19 21  1  0
 20 22  2  0
 20 23  1  0
 21 24  2  0
 22 24  1  0
 22 25  1  0
 25 26  2  0
 25 27  1  0
 26 28  1  0
 27 29  1  0
 28 29  2  0
 27 30  1  0
 28 31  1  0
 30 32  2  0
 30 33  2  0
 30 34  1  0
 31 35  1  0
 34 36  2  0
 34 37  1  0
 35 38  1  0
 36 39  1  0
 37 40  2  0
 39 41  2  0
 40 41  1  0
M  END
