MAK-UNK-e0fdfe28-1-nitrile
     RDKit          3D

 12 12  0  0  0  0  0  0  0  0999 V2000
    6.2770   -4.5470   20.3670 C   0  0  0  0  0  0  0  0  0  0  0  0
    5.7930   -3.7110   19.5210 N   0  0  0  0  0  0  0  0  0  0  0  0
    6.1050   -4.3290   21.7480 N   0  0  0  0  0  0  0  0  0  0  0  0
    5.3880   -5.3100   22.5870 C   0  0  0  0  0  0  0  0  0  0  0  0
    7.2630   -3.9800   22.4130 C   0  0  0  0  0  0  0  0  0  0  0  0
    3.9440   -5.5260   22.6480 N   0  0  0  0  0  0  0  0  0  0  0  0
    7.8180   -2.7200   22.4360 C   0  0  0  0  0  0  0  0  0  0  0  0
    7.8910   -5.0060   23.0790 C   0  0  0  0  0  0  0  0  0  0  0  0
    9.0200   -2.4930   23.1170 C   0  0  0  0  0  0  0  0  0  0  0  0
    9.0400   -4.7890   23.7280 C   0  0  0  0  0  0  0  0  0  0  0  0
    9.6380   -3.5450   23.7600 C   0  0  0  0  0  0  0  0  0  0  0  0
   10.7980   -3.3580   24.3970 F   0  0  0  0  0  0  0  0  0  0  0  0
  1  2  2  3
  1  3  1  0
  3  4  1  0
  3  5  1  0
  4  6  1  0
  5  7  2  0
  5  8  1  0
  7  9  1  0
  8 10  2  0
  9 11  2  0
 10 11  1  0
 11 12  1  0
M  END
