MAK-UNK-acefcb18-7
     RDKit          3D

 22 24  0  0  0  0  0  0  0  0999 V2000
    4.8460   -0.6670   20.1080 C   0  0  0  0  0  0  0  0  0  0  0  0
    5.6240   -1.2900   21.2520 C   0  0  0  0  0  0  0  0  0  0  0  0
    5.5750   -2.8700   21.2930 C   0  0  0  0  0  0  0  0  0  0  0  0
    6.3150   -0.4840   22.1580 C   0  0  0  0  0  0  0  0  0  0  0  0
    6.3970   -3.5670   22.4420 C   0  0  0  0  0  0  0  0  0  0  0  0
    7.0540   -1.0320   23.1840 C   0  0  0  0  0  0  0  0  0  0  0  0
    7.1090   -2.5560   23.3260 C   0  0  0  0  0  0  0  0  0  0  0  0
    7.9970   -3.1880   24.4280 C   0  0  1  0  0  0  0  0  0  0  0  0
    8.8430   -2.2040   24.9410 O   0  0  0  0  0  0  0  0  0  0  0  0
    7.3890   -4.0440   25.5970 C   0  0  1  0  0  0  0  0  0  0  0  0
   10.0260   -2.8820   24.8020 C   0  0  1  0  0  0  0  0  0  0  0  0
    8.5230   -4.2790   26.4340 C   0  0  2  0  0  0  0  0  0  0  0  0
    6.4350   -3.2880   26.3610 O   0  0  0  0  0  0  0  0  0  0  0  0
   11.0130   -2.0710   25.3980 O   0  0  0  0  0  0  0  0  0  0  0  0
    9.7420   -4.2460   25.4570 C   0  0  2  0  0  0  0  0  0  0  0  0
    8.5950   -5.2900   27.1130 O   0  0  0  0  0  0  0  0  0  0  0  0
   11.0170   -4.5310   26.0730 N   0  0  0  0  0  0  0  0  0  0  0  0
   11.9970   -3.7310   25.6140 C   0  0  0  0  0  0  0  0  0  0  0  0
   13.2340   -3.6430   26.2020 C   0  0  0  0  0  0  0  0  0  0  0  0
   11.8990   -2.8910   24.4890 C   0  0  0  0  0  0  0  0  0  0  0  0
   14.0890   -2.7540   25.6110 C   0  0  0  0  0  0  0  0  0  0  0  0
   13.3810   -1.9480   24.1840 S   0  0  0  0  0  0  0  0  0  0  0  0
  1  2  1  0
  2  3  2  0
  2  4  1  0
  3  5  1  0
  4  6  2  0
  5  7  2  0
  6  7  1  0
  8  7  1  1
  8  9  1  0
  8 10  1  0
  9 11  1  0
 10 12  1  0
 10 13  1  1
 11 14  1  1
 11 15  1  0
 12 15  1  0
 12 16  1  6
 15 17  1  1
 17 18  1  0
 18 19  1  0
 18 20  2  0
 19 21  2  0
 20 22  1  0
 21 22  1  0
M  END
