MAK-UNK-ec98eaf6-19-acrylamide
     RDKit          3D

 26 29  0  0  0  0  0  0  0  0999 V2000
    7.3430   -2.8020   18.3650 C   0  0  0  0  0  0  0  0  0  0  0  0
    6.1190   -2.3640   19.1170 C   0  0  0  0  0  0  0  0  0  0  0  0
    5.6810   -3.2730   20.2230 C   0  0  0  0  0  0  0  0  0  0  0  0
    5.2240   -4.4060   20.0190 O   0  0  0  0  0  0  0  0  0  0  0  0
    5.8340   -2.6910   21.4420 N   0  0  0  0  0  0  0  0  0  0  0  0
    6.7030   -1.5080   21.5670 C   0  0  0  0  0  0  0  0  0  0  0  0
    5.8470   -3.3670   22.7600 C   0  0  2  0  0  0  0  0  0  0  0  0
    6.8870   -1.5920   23.0310 C   0  0  1  0  0  0  0  0  0  0  0  0
    5.7390   -2.1400   23.6620 C   0  0  0  0  0  0  0  0  0  0  0  0
    7.1040   -3.8820   22.8910 C   0  0  0  0  0  0  0  0  0  0  0  0
    7.8960   -2.6970   23.1590 N   0  0  0  0  0  0  0  0  0  0  0  0
    8.7150   -2.5460   24.2560 C   0  0  0  0  0  0  0  0  0  0  0  0
    9.6740   -1.4970   24.1410 C   0  0  0  0  0  0  0  0  0  0  0  0
    9.2070   -0.2230   24.6790 N   0  0  0  0  0  0  0  0  0  0  0  0
    9.6260    0.9760   24.1860 C   0  0  0  0  0  0  0  0  0  0  0  0
    8.9100    2.1390   24.2930 O   0  0  0  0  0  0  0  0  0  0  0  0
   10.9470    0.9060   23.5260 C   0  0  0  0  0  0  0  0  0  0  0  0
   11.5710    2.2160   23.7170 C   0  0  0  0  0  0  0  0  0  0  0  0
   11.4520   -0.2100   22.8680 C   0  0  0  0  0  0  0  0  0  0  0  0
   12.8930    2.0500   23.0860 C   0  0  0  0  0  0  0  0  0  0  0  0
   12.7300   -0.1970   22.3290 C   0  0  0  0  0  0  0  0  0  0  0  0
   10.6890   -1.3250   22.7350 C   0  0  0  0  0  0  0  0  0  0  0  0
   13.4440    0.9580   22.4720 C   0  0  0  0  0  0  0  0  0  0  0  0
   13.2400   -1.3040   21.6610 C   0  0  0  0  0  0  0  0  0  0  0  0
   11.1410   -2.4290   22.0780 C   0  0  0  0  0  0  0  0  0  0  0  0
   12.3850   -2.5060   21.5220 C   0  0  0  0  0  0  0  0  0  0  0  0
  1  2  1  0
  2  3  1  0
  3  4  2  0
  3  5  1  0
  5  6  1  0
  5  7  1  0
  8  6  1  6
  7  9  1  0
  8  9  1  0
  7 10  1  1
  8 11  1  0
 10 11  1  0
 11 12  1  0
 12 13  1  0
 13 14  1  0
 14 15  1  0
 15 16  2  0
 15 17  1  0
 17 18  2  0
 17 19  1  0
 18 20  1  0
 19 21  2  0
 19 22  1  0
 20 23  2  0
 21 23  1  0
 21 24  1  0
 22 25  2  0
 24 26  2  0
 25 26  1  0
M  END
