MAK-UNK-acefcb18-8
     RDKit          3D

 19 20  0  0  0  0  0  0  0  0999 V2000
    2.5610   -5.7830   23.6180 C   0  0  0  0  0  0  0  0  0  0  0  0
    4.0660   -5.6320   23.6020 C   0  0  0  0  0  0  0  0  0  0  0  0
    4.6580   -4.7200   24.7480 C   0  0  0  0  0  0  0  0  0  0  0  0
    4.8170   -6.2790   22.6220 C   0  0  0  0  0  0  0  0  0  0  0  0
    6.2250   -4.5570   24.7550 C   0  0  0  0  0  0  0  0  0  0  0  0
    6.1800   -6.1790   22.5710 C   0  0  0  0  0  0  0  0  0  0  0  0
    6.8820   -5.3320   23.6260 C   0  0  0  0  0  0  0  0  0  0  0  0
    8.4090   -5.2410   23.5790 C   0  0  0  0  0  0  0  0  0  0  0  0
    8.8070   -3.7630   23.7710 C   0  0  0  0  0  0  0  0  0  0  0  0
   10.1220   -3.4190   24.2950 O   0  0  0  0  0  0  0  0  0  0  0  0
    7.8820   -2.8140   23.4080 N   0  0  0  0  0  0  0  0  0  0  0  0
    8.2910   -1.6920   22.5880 C   0  0  0  0  0  0  0  0  0  0  0  0
    8.6900   -0.5230   23.5040 C   0  0  0  0  0  0  0  0  0  0  0  0
    9.7860   -0.8490   24.3380 C   0  0  0  0  0  0  0  0  0  0  0  0
   11.0080   -0.8590   23.6410 C   0  0  0  0  0  0  0  0  0  0  0  0
   11.9140    0.1860   23.7730 C   0  0  0  0  0  0  0  0  0  0  0  0
   11.5060   -1.8330   22.7520 C   0  0  0  0  0  0  0  0  0  0  0  0
   13.0350    0.0220   23.0250 C   0  0  0  0  0  0  0  0  0  0  0  0
   13.0700   -1.4590   22.0890 S   0  0  0  0  0  0  0  0  0  0  0  0
  1  2  1  0
  2  3  2  0
  2  4  1  0
  3  5  1  0
  4  6  2  0
  5  7  2  0
  6  7  1  0
  7  8  1  0
  8  9  1  0
  9 10  2  0
  9 11  1  0
 11 12  1  0
 12 13  1  0
 13 14  1  0
 14 15  1  0
 15 16  1  0
 15 17  2  0
 16 18  2  0
 17 19  1  0
 18 19  1  0
M  END
