MAK-UNK-902cc841-3
     RDKit          3D

 30 33  0  0  0  0  0  0  0  0999 V2000
    5.4310   -2.0620   20.1380 C   0  0  0  0  0  0  0  0  0  0  0  0
    5.6610   -2.7390   21.3900 C   0  0  0  0  0  0  0  0  0  0  0  0
    4.9050   -3.6600   21.7400 O   0  0  0  0  0  0  0  0  0  0  0  0
    6.7540   -2.3130   22.1620 N   0  0  0  0  0  0  0  0  0  0  0  0
    7.2330   -0.9290   22.2130 C   0  0  0  0  0  0  0  0  0  0  0  0
    7.5890   -3.2180   22.9800 C   0  0  0  0  0  0  0  0  0  0  0  0
    8.6210   -1.0030   21.4910 C   0  0  0  0  0  0  0  0  0  0  0  0
    8.9240   -2.5750   23.4560 C   0  0  0  0  0  0  0  0  0  0  0  0
    9.5520   -1.7040   22.4310 N   0  0  0  0  0  0  0  0  0  0  0  0
   11.0150   -1.3130   22.3730 C   0  0  2  0  0  0  0  0  0  0  0  0
   11.8660   -2.2370   23.2490 C   0  0  0  0  0  0  0  0  0  0  0  0
   11.3220    0.0420   22.6170 C   0  0  0  0  0  0  0  0  0  0  0  0
   11.2110   -2.9340   24.0180 O   0  0  0  0  0  0  0  0  0  0  0  0
   13.3800   -2.1970   23.0990 N   0  0  0  0  0  0  0  0  0  0  0  0
   12.5650    0.6410   22.7740 C   0  0  0  0  0  0  0  0  0  0  0  0
   10.0760    1.2750   22.7580 S   0  0  0  0  0  0  0  0  0  0  0  0
   13.8800   -3.0670   24.1850 C   0  0  0  0  0  0  0  0  0  0  0  0
   12.4880    2.0600   22.9860 C   0  0  0  0  0  0  0  0  0  0  0  0
   11.1900    2.5560   23.0030 C   0  0  0  0  0  0  0  0  0  0  0  0
   12.9780   -3.0720   25.3360 C   0  0  0  0  0  0  0  0  0  0  0  0
   15.2000   -4.0150   24.3010 C   0  0  0  0  0  0  0  0  0  0  0  0
   13.3080   -3.9320   26.4620 C   0  0  0  0  0  0  0  0  0  0  0  0
   15.4720   -4.8290   25.4080 C   0  0  0  0  0  0  0  0  0  0  0  0
   14.4780   -4.7600   26.4720 C   0  0  0  0  0  0  0  0  0  0  0  0
   16.4960   -5.6510   25.6250 N   0  0  0  0  0  0  0  0  0  0  0  0
   16.4510   -6.5240   26.6980 C   0  0  0  0  0  0  0  0  0  0  0  0
   17.3500   -6.3080   24.7960 C   0  0  0  0  0  0  0  0  0  0  0  0
   16.4130   -7.8940   26.3020 C   0  0  0  0  0  0  0  0  0  0  0  0
   17.0710   -7.8130   24.9890 C   0  0  0  0  0  0  0  0  0  0  0  0
   18.3650   -5.8160   23.9890 O   0  0  0  0  0  0  0  0  0  0  0  0
  1  2  1  0
  2  3  2  0
  2  4  1  0
  4  5  1  0
  4  6  1  0
  5  7  1  0
  6  8  1  0
  7  9  1  0
  8  9  1  0
  9 10  1  0
 10 11  1  1
 10 12  1  0
 11 13  2  0
 11 14  1  0
 12 15  2  0
 12 16  1  0
 14 17  1  0
 15 18  1  0
 16 19  1  0
 18 19  2  0
 17 20  2  0
 17 21  1  0
 20 22  1  0
 21 23  2  0
 22 24  2  0
 23 24  1  0
 23 25  1  0
 25 26  1  0
 25 27  1  0
 26 28  1  0
 27 29  1  0
 28 29  1  0
 27 30  2  0
M  END
