MAK-UNK-ec98eaf6-21-acrylamide
     RDKit          3D

 23 25  0  0  0  0  0  0  0  0999 V2000
    7.4230   -2.8610   18.3720 C   0  0  0  0  0  0  0  0  0  0  0  0
    6.5650   -2.1790   19.3710 C   0  0  0  0  0  0  0  0  0  0  0  0
    5.9160   -3.1190   20.3330 C   0  0  0  0  0  0  0  0  0  0  0  0
    5.2080   -4.1030   19.9990 O   0  0  0  0  0  0  0  0  0  0  0  0
    6.1880   -2.7900   21.6300 N   0  0  0  0  0  0  0  0  0  0  0  0
    6.6350   -3.7800   22.6110 C   0  0  0  0  0  0  0  0  0  0  0  0
    6.7980   -1.5010   22.0640 C   0  0  1  0  0  0  0  0  0  0  0  0
    7.1800   -2.8160   23.6130 C   0  0  2  0  0  0  0  0  0  0  0  0
    6.4720   -1.5900   23.5550 C   0  0  0  0  0  0  0  0  0  0  0  0
    8.1680   -1.6060   21.9230 C   0  0  0  0  0  0  0  0  0  0  0  0
    8.5340   -2.4130   23.0730 N   0  0  0  0  0  0  0  0  0  0  0  0
    9.4440   -2.0120   24.0540 C   0  0  0  0  0  0  0  0  0  0  0  0
   10.4490   -1.0360   23.7340 C   0  0  0  0  0  0  0  0  0  0  0  0
   10.0580    0.4090   23.9100 C   0  0  0  0  0  0  0  0  0  0  0  0
   11.7070   -1.3920   23.2880 C   0  0  0  0  0  0  0  0  0  0  0  0
   11.2460    1.2670   23.5080 C   0  0  0  0  0  0  0  0  0  0  0  0
   12.7150   -0.4970   22.9500 C   0  0  0  0  0  0  0  0  0  0  0  0
   12.0770   -2.6860   23.1390 N   0  0  0  0  0  0  0  0  0  0  0  0
   10.7920    2.7000   23.6740 C   0  0  0  0  0  0  0  0  0  0  0  0
   12.4910    0.8470   23.0620 C   0  0  0  0  0  0  0  0  0  0  0  0
   13.3290   -2.6970   22.4640 C   0  0  0  0  0  0  0  0  0  0  0  0
   10.4400    3.8040   23.7460 N   0  0  0  0  0  0  0  0  0  0  0  0
   13.0370   -2.7310   20.9870 C   0  0  0  0  0  0  0  0  0  0  0  0
  1  2  1  0
  2  3  1  0
  3  4  2  0
  3  5  1  0
  5  6  1  0
  5  7  1  0
  8  6  1  6
  7  9  1  0
  8  9  1  0
  7 10  1  1
  8 11  1  0
 10 11  1  0
 11 12  1  0
 12 13  1  0
 13 14  2  0
 13 15  1  0
 14 16  1  0
 15 17  2  0
 15 18  1  0
 16 19  1  0
 16 20  2  0
 17 20  1  0
 18 21  1  0
 19 22  3  0
 21 23  1  0
M  END
