MAK-UNK-ec98eaf6-13-nitrile
     RDKit          3D

 19 21  0  0  0  0  0  0  0  0999 V2000
    6.8850   -3.4370   19.7300 C   0  0  0  0  0  0  0  0  0  0  0  0
    5.8740   -3.2300   18.9900 N   0  0  0  0  0  0  0  0  0  0  0  0
    7.0360   -2.7750   20.9320 N   0  0  0  0  0  0  0  0  0  0  0  0
    6.1280   -2.9360   22.1090 C   0  0  0  0  0  0  0  0  0  0  0  0
    8.3280   -2.4530   21.5750 C   0  0  2  0  0  0  0  0  0  0  0  0
    7.2340   -3.2190   23.1900 C   0  0  1  0  0  0  0  0  0  0  0  0
    8.4510   -3.7390   22.4070 C   0  0  0  0  0  0  0  0  0  0  0  0
    8.1370   -1.3120   22.3470 C   0  0  0  0  0  0  0  0  0  0  0  0
    7.9630   -2.0080   23.6530 N   0  0  0  0  0  0  0  0  0  0  0  0
    9.2510   -2.3360   24.3040 C   0  0  0  0  0  0  0  0  0  0  0  0
    9.5190   -3.6510   24.0810 F   0  0  0  0  0  0  0  0  0  0  0  0
    9.0510   -2.3130   25.6250 F   0  0  0  0  0  0  0  0  0  0  0  0
   10.3280   -1.5360   23.8970 C   0  0  0  0  0  0  0  0  0  0  0  0
   10.5520   -0.2810   24.4740 C   0  0  0  0  0  0  0  0  0  0  0  0
   11.1880   -1.9610   22.9180 C   0  0  0  0  0  0  0  0  0  0  0  0
   11.6440    0.6030   24.0950 C   0  0  0  0  0  0  0  0  0  0  0  0
   12.3560   -1.1100   22.4590 C   0  0  0  0  0  0  0  0  0  0  0  0
   12.6600    0.2590   23.0410 C   0  0  0  0  0  0  0  0  0  0  0  0
   13.3410   -1.7320   21.2380 Cl  0  0  0  0  0  0  0  0  0  0  0  0
  1  2  2  3
  1  3  1  0
  3  4  1  0
  3  5  1  0
  6  4  1  6
  5  7  1  0
  6  7  1  0
  5  8  1  1
  6  9  1  0
  8  9  1  0
  9 10  1  0
 10 11  1  0
 10 12  1  0
 10 13  1  0
 13 14  2  0
 13 15  1  0
 14 16  1  0
 15 17  2  0
 16 18  2  0
 17 18  1  0
 17 19  1  0
M  END
