MAK-UNK-90d0606b-5-acrylamide
     RDKit          3D

 22 25  0  0  0  0  0  0  0  0999 V2000
    7.3480   -2.8290   18.2970 C   0  0  0  0  0  0  0  0  0  0  0  0
    6.2590   -2.2690   19.1740 C   0  0  0  0  0  0  0  0  0  0  0  0
    5.8400   -3.2050   20.2530 C   0  0  0  0  0  0  0  0  0  0  0  0
    5.2220   -4.2590   20.0020 O   0  0  0  0  0  0  0  0  0  0  0  0
    6.2170   -2.8040   21.4990 N   0  0  0  0  0  0  0  0  0  0  0  0
    6.3950   -3.6770   22.6480 C   0  0  0  0  0  0  0  0  0  0  0  0
    7.2280   -1.7170   21.6010 C   0  0  1  0  0  0  0  0  0  0  0  0
    7.3910   -2.8650   23.4860 C   0  0  1  0  0  0  0  0  0  0  0  0
    6.8110   -0.6540   22.6320 C   0  0  1  0  0  0  0  0  0  0  0  0
    8.3520   -2.3780   22.3990 C   0  0  0  0  0  0  0  0  0  0  0  0
    6.7110   -1.5320   23.9130 C   0  0  0  0  0  0  0  0  0  0  0  0
    7.9300    0.3330   22.6890 C   0  0  0  0  0  0  0  0  0  0  0  0
    9.1160    0.0340   23.1680 N   0  0  0  0  0  0  0  0  0  0  0  0
    7.7570    1.9500   22.1030 S   0  0  0  0  0  0  0  0  0  0  0  0
    9.9410    1.1090   23.0630 C   0  0  0  0  0  0  0  0  0  0  0  0
    9.3830    2.2300   22.5170 C   0  0  0  0  0  0  0  0  0  0  0  0
   10.1100    3.4990   22.3130 C   0  0  0  0  0  0  0  0  0  0  0  0
   11.3470    1.0440   23.5160 C   0  0  0  0  0  0  0  0  0  0  0  0
   11.3650    3.5700   23.1920 C   0  0  1  0  0  0  0  0  0  0  0  0
   12.1390    2.2470   23.0210 C   0  0  0  0  0  0  0  0  0  0  0  0
   12.2650    4.7690   22.8420 C   0  0  0  0  0  0  0  0  0  0  0  0
   12.1330    5.8590   23.8070 N   0  0  0  0  0  0  0  0  0  0  0  0
  1  2  1  0
  2  3  1  0
  3  4  2  0
  3  5  1  0
  5  6  1  0
  7  5  1  1
  8  6  1  6
  7  9  1  0
  7 10  1  0
  8 10  1  0
  8 11  1  0
  9 11  1  0
  9 12  1  1
 12 13  2  0
 12 14  1  0
 13 15  1  0
 14 16  1  0
 15 16  2  0
 16 17  1  0
 15 18  1  0
 17 19  1  0
 18 20  1  0
 19 20  1  0
 19 21  1  6
 21 22  1  0
M  END
