MAK-UNK-e4a48a85-7-nitrile
     RDKit          3D

 28 30  0  0  0  0  0  0  0  0999 V2000
    7.0030   -3.3850   19.5220 C   0  0  0  0  0  0  0  0  0  0  0  0
    6.2650   -3.0910   18.5230 N   0  0  0  0  0  0  0  0  0  0  0  0
    6.8990   -2.7140   20.7210 N   0  0  0  0  0  0  0  0  0  0  0  0
    6.4490   -3.3580   21.9580 C   0  0  0  0  0  0  0  0  0  0  0  0
    7.5630   -1.4400   20.9490 C   0  0  0  0  0  0  0  0  0  0  0  0
    7.5240   -3.5630   22.8250 C   0  0  0  0  0  0  0  0  0  0  0  0
    8.6510   -1.6250   21.8000 C   0  0  0  0  0  0  0  0  0  0  0  0
    8.3810   -2.3700   22.9490 N   0  0  0  0  0  0  0  0  0  0  0  0
    9.3370   -2.2920   23.9420 C   0  0  0  0  0  0  0  0  0  0  0  0
   10.4630   -1.3160   23.6940 C   0  0  0  0  0  0  0  0  0  0  0  0
   11.8260   -1.7800   23.2810 C   0  0  0  0  0  0  0  0  0  0  0  0
   10.2860    0.0620   23.8260 C   0  0  0  0  0  0  0  0  0  0  0  0
   12.8060   -0.8320   23.0600 C   0  0  0  0  0  0  0  0  0  0  0  0
   11.3150    0.9690   23.5870 C   0  0  0  0  0  0  0  0  0  0  0  0
   12.5380    0.5340   23.2160 C   0  0  0  0  0  0  0  0  0  0  0  0
   11.0530    2.3450   23.7290 C   0  0  0  0  0  0  0  0  0  0  0  0
    9.5690    2.7540   22.9930 S   0  0  0  0  0  0  0  0  0  0  0  0
    8.6220    3.0850   24.5150 C   0  0  0  0  0  0  0  0  0  0  0  0
    7.1620    3.2410   24.1560 C   0  0  0  0  0  0  0  0  0  0  0  0
    6.9710    3.9210   23.1510 O   0  0  0  0  0  0  0  0  0  0  0  0
    6.0130    2.6400   24.9320 C   0  0  0  0  0  0  0  0  0  0  0  0
    6.2170    2.2760   26.2390 N   0  0  0  0  0  0  0  0  0  0  0  0
    6.7710    1.1500   26.8570 C   0  0  0  0  0  0  0  0  0  0  0  0
    6.3700    3.3110   27.0790 C   0  0  0  0  0  0  0  0  0  0  0  0
    7.5600    1.3180   28.1300 C   0  0  0  0  0  0  0  0  0  0  0  0
    7.3790    3.0060   27.9940 C   0  0  0  0  0  0  0  0  0  0  0  0
    7.0200    2.2090   29.2350 C   0  0  0  0  0  0  0  0  0  0  0  0
    7.6940    2.5260   30.2300 O   0  0  0  0  0  0  0  0  0  0  0  0
  1  2  2  3
  1  3  1  0
  3  4  1  0
  3  5  1  0
  4  6  1  0
  5  7  1  0
  6  8  1  0
  7  8  1  0
  8  9  1  0
  9 10  1  0
 10 11  2  0
 10 12  1  0
 11 13  1  0
 12 14  2  0
 13 15  2  0
 14 15  1  0
 14 16  1  0
 16 17  1  0
 17 18  1  0
 18 19  1  0
 19 20  2  0
 19 21  1  0
 21 22  1  0
 22 23  1  0
 22 24  1  0
 23 25  1  0
 24 26  1  0
 25 27  1  0
 26 27  1  0
 27 28  1  0
M  END
