MAK-UNK-7c9d1431-28-vinylsulfonamide
     RDKit          3D

 17 18  0  0  0  0  0  0  0  0999 V2000
    7.3980   -2.9520   18.8410 C   0  0  0  0  0  0  0  0  0  0  0  0
    5.9420   -2.6520   19.2370 C   0  0  0  0  0  0  0  0  0  0  0  0
    5.5010   -3.4950   20.7380 S   0  0  0  0  0  0  0  0  0  0  0  0
    4.5150   -2.8840   21.5350 O   0  0  0  0  0  0  0  0  0  0  0  0
    5.3250   -4.8900   20.4070 O   0  0  0  0  0  0  0  0  0  0  0  0
    6.8050   -3.1160   21.6790 N   0  0  0  0  0  0  0  0  0  0  0  0
    7.4400   -1.8250   21.3850 C   0  0  0  0  0  0  0  0  0  0  0  0
    6.5790   -3.3550   23.0830 C   0  0  0  0  0  0  0  0  0  0  0  0
    8.8280   -1.8230   22.0280 C   0  0  0  0  0  0  0  0  0  0  0  0
    7.8940   -3.2200   23.8360 C   0  0  0  0  0  0  0  0  0  0  0  0
    8.6700   -2.0070   23.4630 N   0  0  0  0  0  0  0  0  0  0  0  0
    9.8640   -1.8980   24.2970 C   0  0  0  0  0  0  0  0  0  0  0  0
   10.8900   -0.8540   23.8820 C   0  0  0  0  0  0  0  0  0  0  0  0
   10.3200    0.5740   24.3180 C   0  0  0  0  0  0  0  0  0  0  0  0
   12.0920   -1.0920   23.2550 O   0  0  0  0  0  0  0  0  0  0  0  0
   11.6380    1.1040   23.7140 C   0  0  0  0  0  0  0  0  0  0  0  0
   12.5810    0.1020   23.1380 C   0  0  0  0  0  0  0  0  0  0  0  0
  1  2  1  0
  3  2  1  0
  3  4  2  0
  3  5  2  0
  3  6  1  0
  6  7  1  0
  6  8  1  0
  7  9  1  0
  8 10  1  0
  9 11  1  0
 10 11  1  0
 11 12  1  0
 12 13  1  0
 13 14  2  0
 13 15  1  0
 14 16  1  0
 15 17  1  0
 16 17  2  0
M  END
