MAK-UNK-ec98eaf6-44-vinylsulfonamide
     RDKit          3D

 23 25  0  0  0  0  0  0  0  0999 V2000
    7.4630   -3.0320   18.3210 C   0  0  0  0  0  0  0  0  0  0  0  0
    7.0230   -1.9000   19.1680 C   0  0  0  0  0  0  0  0  0  0  0  0
    5.6190   -2.3230   20.1760 S   0  0  0  0  0  0  0  0  0  0  0  0
    5.0740   -3.6780   19.9320 O   0  0  0  0  0  0  0  0  0  0  0  0
    4.7600   -1.1620   20.1680 O   0  0  0  0  0  0  0  0  0  0  0  0
    6.4940   -2.2180   21.6170 N   0  0  0  0  0  0  0  0  0  0  0  0
    6.1880   -2.7970   22.8990 C   0  0  0  0  0  0  0  0  0  0  0  0
    7.9710   -2.1540   21.5680 C   0  0  2  0  0  0  0  0  0  0  0  0
    7.5680   -3.0210   23.5110 C   0  0  1  0  0  0  0  0  0  0  0  0
    8.3870   -3.4360   22.3440 C   0  0  0  0  0  0  0  0  0  0  0  0
    8.3110   -1.0640   22.5310 C   0  0  1  0  0  0  0  0  0  0  0  0
    7.7500    0.3420   22.3660 C   0  0  0  0  0  0  0  0  0  0  0  0
    8.0680   -1.6550   23.8720 N   0  0  0  0  0  0  0  0  0  0  0  0
    7.3950    0.9880   23.6300 N   0  0  0  0  0  0  0  0  0  0  0  0
    7.6100    0.8990   21.2770 O   0  0  0  0  0  0  0  0  0  0  0  0
    9.3020   -1.7890   24.5150 C   0  0  0  0  0  0  0  0  0  0  0  0
   10.4260   -1.1670   23.9980 C   0  0  0  0  0  0  0  0  0  0  0  0
   10.7380    0.0980   24.4960 C   0  0  0  0  0  0  0  0  0  0  0  0
   11.2530   -1.7440   22.9970 C   0  0  0  0  0  0  0  0  0  0  0  0
   11.8410    0.7760   24.0130 C   0  0  0  0  0  0  0  0  0  0  0  0
   12.3710   -1.0890   22.4880 C   0  0  0  0  0  0  0  0  0  0  0  0
   12.6860    0.1570   22.9760 C   0  0  0  0  0  0  0  0  0  0  0  0
   13.3000   -1.8270   21.2840 Cl  0  0  0  0  0  0  0  0  0  0  0  0
  1  2  1  0
  3  2  1  0
  3  4  2  0
  3  5  2  0
  3  6  1  0
  6  7  1  0
  8  6  1  1
  9  7  1  6
  8 10  1  0
  9 10  1  0
  8 11  1  0
 11 12  1  6
  9 13  1  0
 11 13  1  0
 12 14  1  0
 12 15  2  0
 13 16  1  0
 16 17  1  0
 17 18  2  0
 17 19  1  0
 18 20  1  0
 19 21  2  0
 20 22  2  0
 21 22  1  0
 21 23  1  0
M  END
