MAK-UNK-8fdbca50-39-chloroacetamide
     RDKit          3D

 39 42  0  0  0  0  0  0  0  0999 V2000
    6.4330   -5.3570   21.0540 C   0  0  0  0  0  0  0  0  0  0  0  0
    5.7300   -4.0890   20.6860 C   0  0  0  0  0  0  0  0  0  0  0  0
    4.9890   -4.0500   19.7030 O   0  0  0  0  0  0  0  0  0  0  0  0
    5.9500   -2.9330   21.4120 N   0  0  0  0  0  0  0  0  0  0  0  0
    6.5500   -2.8980   22.7540 C   0  0  0  0  0  0  0  0  0  0  0  0
    6.4810   -1.8570   20.6090 C   0  0  0  0  0  0  0  0  0  0  0  0
    7.7860   -2.0340   22.6490 C   0  0  0  0  0  0  0  0  0  0  0  0
    7.9700   -2.0720   20.3450 C   0  0  0  0  0  0  0  0  0  0  0  0
    8.7260   -2.4780   21.6650 C   0  0  0  0  0  0  0  0  0  0  0  0
   10.2160   -2.4920   21.7580 C   0  0  0  0  0  0  0  0  0  0  0  0
   10.9970   -1.9840   22.8370 C   0  0  0  0  0  0  0  0  0  0  0  0
   11.1720   -3.0860   20.8320 N   0  0  0  0  0  0  0  0  0  0  0  0
   10.4970   -1.3210   24.0930 N   0  0  0  0  0  0  0  0  0  0  0  0
   10.9300   -4.2770   20.2290 C   0  0  0  0  0  0  0  0  0  0  0  0
   12.4710   -3.1300   21.2010 C   0  0  0  0  0  0  0  0  0  0  0  0
   11.6770   -0.8150   24.8640 C   0  0  0  0  0  0  0  0  0  0  0  0
   13.1690   -1.8030   21.2770 C   0  0  0  0  0  0  0  0  0  0  0  0
   13.1560   -4.2230   20.3920 C   0  0  0  0  0  0  0  0  0  0  0  0
   12.2420    0.2740   24.1090 C   0  0  0  0  0  0  0  0  0  0  0  0
   13.3540    0.2870   23.1300 C   0  0  0  0  0  0  0  0  0  0  0  0
   11.8360    1.6220   24.1030 C   0  0  0  0  0  0  0  0  0  0  0  0
   13.5710    1.6580   22.5710 C   0  0  0  0  0  0  0  0  0  0  0  0
   12.5860    2.4630   23.2480 N   0  0  0  0  0  0  0  0  0  0  0  0
   14.3870    2.2720   21.5410 C   0  0  0  0  0  0  0  0  0  0  0  0
   12.2320    4.2260   23.0980 S   0  0  0  0  0  0  0  0  0  0  0  0
   14.7830    1.5390   20.2650 C   0  0  0  0  0  0  0  0  0  0  0  0
   14.6630    3.6090   21.6800 C   0  0  0  0  0  0  0  0  0  0  0  0
   12.5180    4.6940   21.7610 O   0  0  0  0  0  0  0  0  0  0  0  0
   12.8900    4.9680   24.1400 O   0  0  0  0  0  0  0  0  0  0  0  0
   10.5260    4.6040   23.4110 C   0  0  0  0  0  0  0  0  0  0  0  0
   15.4080    2.2890   19.2890 C   0  0  0  0  0  0  0  0  0  0  0  0
   15.2680    4.2480   20.6350 C   0  0  0  0  0  0  0  0  0  0  0  0
   14.3480    4.3560   22.7350 F   0  0  0  0  0  0  0  0  0  0  0  0
    9.6380    3.7220   24.0370 C   0  0  0  0  0  0  0  0  0  0  0  0
   10.0460    5.8420   23.0070 C   0  0  0  0  0  0  0  0  0  0  0  0
   15.6280    3.6270   19.4890 C   0  0  0  0  0  0  0  0  0  0  0  0
    8.3180    4.1060   24.2300 C   0  0  0  0  0  0  0  0  0  0  0  0
    8.7560    6.2410   23.1890 N   0  0  0  0  0  0  0  0  0  0  0  0
    7.9240    5.3660   23.7920 C   0  0  0  0  0  0  0  0  0  0  0  0
  1  2  1  0
  2  3  2  0
  2  4  1  0
  4  5  1  0
  4  6  1  0
  5  7  1  0
  6  8  1  0
  7  9  1  0
  8  9  1  0
  9 10  1  0
 10 11  2  3
 10 12  1  0
 11 13  1  0
 12 14  1  0
 12 15  1  0
 13 16  1  0
 15 17  1  0
 15 18  1  0
 16 19  1  0
 19 20  1  0
 19 21  2  0
 20 22  2  0
 21 23  1  0
 22 23  1  0
 22 24  1  0
 23 25  1  0
 24 26  2  0
 24 27  1  0
 25 28  2  0
 25 29  2  0
 25 30  1  0
 26 31  1  0
 27 32  2  0
 27 33  1  0
 30 34  2  0
 30 35  1  0
 31 36  2  0
 32 36  1  0
 34 37  1  0
 35 38  2  0
 37 39  2  0
 38 39  1  0
M  END
