MAK-UNK-9955b1f3-5-bromoalkyne
     RDKit          3D

 15 15  0  0  0  0  0  0  0  0999 V2000
    7.9290   -2.9750   19.6960 C   0  0  0  0  0  0  0  0  0  0  0  0
    6.6450   -2.5010   18.9930 C   0  0  0  0  0  0  0  0  0  0  0  0
    8.2180   -2.8310   21.2070 C   0  0  0  0  0  0  0  0  0  0  0  0
    7.2770   -2.2920   22.3850 C   0  0  0  0  0  0  0  0  0  0  0  0
    9.5520   -3.3250   21.6720 N   0  0  0  0  0  0  0  0  0  0  0  0
    7.6920   -2.3930   23.8870 C   0  0  0  0  0  0  0  0  0  0  0  0
    9.8860   -3.4090   23.0550 C   0  0  0  0  0  0  0  0  0  0  0  0
    9.0660   -3.0410   24.0410 C   0  0  0  0  0  0  0  0  0  0  0  0
    9.3620   -3.2670   25.5170 C   0  0  0  0  0  0  0  0  0  0  0  0
    9.5310   -4.6540   25.6410 N   0  0  0  0  0  0  0  0  0  0  0  0
    9.6030   -5.2610   26.9610 C   0  0  0  0  0  0  0  0  0  0  0  0
    9.1220   -5.3650   24.5340 C   0  0  0  0  0  0  0  0  0  0  0  0
    7.7290   -5.5320   24.4450 C   0  0  0  0  0  0  0  0  0  0  0  0
    7.3050   -5.8970   23.0900 N   0  0  0  0  0  0  0  0  0  0  0  0
    6.8630   -5.3980   25.4240 N   0  0  0  0  0  0  0  0  0  0  0  0
  1  2  2  3
  1  3  1  0
  3  4  2  0
  3  5  1  0
  4  6  1  0
  5  7  2  0
  6  8  2  0
  7  8  1  0
  8  9  1  0
  9 10  1  0
 10 11  1  0
 10 12  1  0
 12 13  1  0
 13 14  2  3
 13 15  1  0
M  END
