MAK-UNK-9e4a73aa-4
     RDKit          3D

 26 29  0  0  0  0  0  0  0  0999 V2000
    5.4860   -2.8410   20.6160 O   0  0  0  0  0  0  0  0  0  0  0  0
    6.2830   -2.4520   21.4750 C   0  0  0  0  0  0  0  0  0  0  0  0
    6.6810   -1.0220   21.5830 C   0  0  0  0  0  0  0  0  0  0  0  0
    6.9170   -3.3460   22.4900 C   0  0  1  0  0  0  0  0  0  0  0  0
    5.7400   -0.0260   21.0020 C   0  0  0  0  0  0  0  0  0  0  0  0
    7.8580   -0.6450   22.2090 C   0  0  0  0  0  0  0  0  0  0  0  0
    8.2210   -2.9690   22.9260 C   0  0  0  0  0  0  0  0  0  0  0  0
    5.8940   -3.6580   23.5060 C   0  0  0  0  0  0  0  0  0  0  0  0
    6.0770    1.3060   21.1130 C   0  0  0  0  0  0  0  0  0  0  0  0
    8.1430    0.7160   22.2910 C   0  0  0  0  0  0  0  0  0  0  0  0
    8.7000   -1.6300   22.7400 N   0  0  0  0  0  0  0  0  0  0  0  0
    8.8800   -3.8420   23.4850 O   0  0  0  0  0  0  0  0  0  0  0  0
    4.6620   -4.0720   23.0040 C   0  0  0  0  0  0  0  0  0  0  0  0
    6.1060   -3.5580   24.8920 C   0  0  0  0  0  0  0  0  0  0  0  0
    5.2810    2.2660   20.6200 F   0  0  0  0  0  0  0  0  0  0  0  0
    7.2740    1.6790   21.7570 C   0  0  0  0  0  0  0  0  0  0  0  0
   10.0220   -1.2920   23.0370 C   0  0  0  0  0  0  0  0  0  0  0  0
    3.6220   -4.3910   23.8710 C   0  0  0  0  0  0  0  0  0  0  0  0
    5.0820   -3.8710   25.7990 C   0  0  0  0  0  0  0  0  0  0  0  0
    7.7070    3.3340   21.9180 Cl  0  0  0  0  0  0  0  0  0  0  0  0
   11.0400   -2.1170   23.8270 C   0  0  0  0  0  0  0  0  0  0  0  0
   10.5220   -0.0690   22.5910 C   0  0  0  0  0  0  0  0  0  0  0  0
    3.8160   -4.2920   25.3700 C   0  0  0  0  0  0  0  0  0  0  0  0
   12.4490   -1.6290   24.0620 C   0  0  0  0  0  0  0  0  0  0  0  0
   11.8350    0.4130   22.8130 C   0  0  0  0  0  0  0  0  0  0  0  0
   12.7980   -0.2750   23.4940 C   0  0  0  0  0  0  0  0  0  0  0  0
  1  2  2  0
  2  3  1  0
  2  4  1  0
  3  5  1  0
  3  6  2  0
  4  7  1  0
  4  8  1  1
  5  9  2  0
  6 10  1  0
  6 11  1  0
  7 11  1  0
  7 12  2  0
  8 13  2  0
  8 14  1  0
  9 15  1  0
  9 16  1  0
 10 16  2  0
 11 17  1  0
 13 18  1  0
 14 19  2  0
 16 20  1  0
 17 21  2  0
 17 22  1  0
 18 23  2  0
 19 23  1  0
 21 24  1  0
 22 25  2  0
 24 26  2  0
 25 26  1  0
M  END
