MAK-UNK-8fdbca50-8-nitrile
     RDKit          3D

 38 41  0  0  0  0  0  0  0  0999 V2000
    6.2570   -5.2900   20.5100 C   0  0  0  0  0  0  0  0  0  0  0  0
    5.5880   -6.1250   19.8460 N   0  0  0  0  0  0  0  0  0  0  0  0
    5.9440   -4.9070   21.8010 N   0  0  0  0  0  0  0  0  0  0  0  0
    5.5030   -3.5350   22.0940 C   0  0  0  0  0  0  0  0  0  0  0  0
    5.4420   -5.9230   22.7430 C   0  0  0  0  0  0  0  0  0  0  0  0
    4.4410   -3.5360   23.2050 C   0  0  0  0  0  0  0  0  0  0  0  0
    5.6350   -5.5280   24.0780 C   0  0  0  0  0  0  0  0  0  0  0  0
    4.9840   -4.1800   24.4540 C   0  0  0  0  0  0  0  0  0  0  0  0
    5.9520   -3.4450   25.1750 C   0  0  0  0  0  0  0  0  0  0  0  0
    7.0660   -3.2700   24.7230 O   0  0  0  0  0  0  0  0  0  0  0  0
    5.4790   -2.9190   26.5100 N   0  0  0  0  0  0  0  0  0  0  0  0
    5.6180   -3.8840   27.6230 C   0  0  0  0  0  0  0  0  0  0  0  0
    5.6400   -1.4610   26.7410 C   0  0  1  0  0  0  0  0  0  0  0  0
    6.0140   -1.3340   28.2100 C   0  0  0  0  0  0  0  0  0  0  0  0
    6.8620   -0.9830   25.9090 C   0  0  0  0  0  0  0  0  0  0  0  0
    6.7990   -1.1360   24.4230 C   0  0  0  0  0  0  0  0  0  0  0  0
    7.9330   -0.4640   26.5630 N   0  0  0  0  0  0  0  0  0  0  0  0
    8.0590   -0.6770   23.6990 C   0  0  0  0  0  0  0  0  0  0  0  0
    9.0150   -0.0790   25.8410 C   0  0  0  0  0  0  0  0  0  0  0  0
    9.1180   -0.1730   24.4450 C   0  0  0  0  0  0  0  0  0  0  0  0
   10.5970    0.3300   23.6080 S   0  0  0  0  0  0  0  0  0  0  0  0
   10.3300    0.2100   22.1980 O   0  0  0  0  0  0  0  0  0  0  0  0
   11.0090    1.6060   24.1520 O   0  0  0  0  0  0  0  0  0  0  0  0
   11.7340   -0.8730   23.9120 N   0  0  0  0  0  0  0  0  0  0  0  0
   12.5150   -0.9460   25.0630 C   0  0  0  0  0  0  0  0  0  0  0  0
   12.1080   -1.9340   23.2110 C   0  0  0  0  0  0  0  0  0  0  0  0
   13.3560   -2.0460   25.0750 C   0  0  0  0  0  0  0  0  0  0  0  0
   13.0640   -2.5980   23.9120 C   0  0  0  0  0  0  0  0  0  0  0  0
   11.9480   -2.6520   22.0940 C   0  0  0  0  0  0  0  0  0  0  0  0
   14.2730   -2.5480   25.9500 C   0  0  0  0  0  0  0  0  0  0  0  0
   13.1640   -3.1130   21.7600 C   0  0  0  0  0  0  0  0  0  0  0  0
   10.8570   -2.9840   21.3590 C   0  0  0  0  0  0  0  0  0  0  0  0
   14.4160   -3.8850   26.0340 N   0  0  0  0  0  0  0  0  0  0  0  0
   13.3710   -3.9290   20.6750 C   0  0  0  0  0  0  0  0  0  0  0  0
   11.0670   -3.8410   20.2580 C   0  0  0  0  0  0  0  0  0  0  0  0
    9.6310   -2.5340   21.6770 F   0  0  0  0  0  0  0  0  0  0  0  0
   15.4250   -4.2930   25.2580 C   0  0  0  0  0  0  0  0  0  0  0  0
   12.3090   -4.2910   19.9270 C   0  0  0  0  0  0  0  0  0  0  0  0
  1  2  2  3
  1  3  1  0
  3  4  1  0
  3  5  1  0
  4  6  1  0
  5  7  1  0
  6  8  1  0
  7  8  1  0
  8  9  1  0
  9 10  2  0
  9 11  1  0
 11 12  1  0
 11 13  1  0
 13 14  1  1
 13 15  1  0
 15 16  2  0
 15 17  1  0
 16 18  1  0
 17 19  2  0
 18 20  2  0
 19 20  1  0
 21 20  1  0
 21 22  2  0
 21 23  2  0
 21 24  1  0
 24 25  1  0
 24 26  1  0
 25 27  2  0
 26 28  2  0
 27 28  1  0
 26 29  1  0
 27 30  1  0
 29 31  2  0
 29 32  1  0
 30 33  1  0
 31 34  1  0
 32 35  2  0
 32 36  1  0
 33 37  1  0
 34 38  2  0
 35 38  1  0
M  END
