MAK-UNK-4b073b5c-3
     RDKit          3D

  6  6  0  0  0  0  0  0  0  0999 V2000
    8.0520   -4.2200   23.3300 O   0  0  0  0  0  0  0  0  0  0  0  0
    6.9980   -4.7460   22.9850 C   0  0  0  0  0  0  0  0  0  0  0  0
    6.0300   -5.4330   23.6310 N   0  0  0  0  0  0  0  0  0  0  0  0
    6.3320   -4.8840   21.8110 N   0  0  0  0  0  0  0  0  0  0  0  0
    5.3470   -5.5280   22.4750 C   0  0  0  0  0  0  0  0  0  0  0  0
    4.2920   -5.9920   22.1730 O   0  0  0  0  0  0  0  0  0  0  0  0
  1  2  2  0
  2  3  1  0
  2  4  1  0
  3  5  1  0
  4  5  1  0
  5  6  2  0
M  END
