MAK-UNK-10572812-7
     RDKit          3D

 34 38  0  0  0  0  0  0  0  0999 V2000
   11.6230   -3.1710   24.7420 C   0  0  0  0  0  0  0  0  0  0  0  0
   10.6020   -2.1760   24.4300 N   0  0  0  0  0  0  0  0  0  0  0  0
    9.3920   -2.8300   24.1190 C   0  0  0  0  0  0  0  0  0  0  0  0
   11.0200   -1.2580   23.5150 C   0  0  2  0  0  0  0  0  0  0  0  0
    8.7810   -2.6130   22.7060 C   0  0  0  0  0  0  0  0  0  0  0  0
    9.8730   -0.5480   23.1750 C   0  0  0  0  0  0  0  0  0  0  0  0
   11.8220   -2.0000   22.4660 C   0  0  0  0  0  0  0  0  0  0  0  0
    9.0270   -1.3480   22.2800 N   0  0  0  0  0  0  0  0  0  0  0  0
   11.1910   -2.5450   21.4150 O   0  0  0  0  0  0  0  0  0  0  0  0
   13.1480   -2.0050   22.7160 N   0  0  0  0  0  0  0  0  0  0  0  0
    7.9960   -0.6380   21.7970 C   0  0  0  0  0  0  0  0  0  0  0  0
   13.5410   -0.9540   21.8400 C   0  0  0  0  0  0  0  0  0  0  0  0
    8.1910    0.5280   21.4580 O   0  0  0  0  0  0  0  0  0  0  0  0
    6.5660   -1.2340   21.6720 C   0  0  0  0  0  0  0  0  0  0  0  0
   13.9520   -1.4430   20.4000 C   0  0  0  0  0  0  0  0  0  0  0  0
    6.1510   -0.3590   20.4880 C   0  0  0  0  0  0  0  0  0  0  0  0
   14.8920   -0.6680   19.2150 C   0  0  0  0  0  0  0  0  0  0  0  0
    6.9600   -0.6560   19.2620 C   0  0  0  0  0  0  0  0  0  0  0  0
    5.2250    0.6870   20.1350 C   0  0  0  0  0  0  0  0  0  0  0  0
   14.2320    0.1160   18.2770 C   0  0  0  0  0  0  0  0  0  0  0  0
   16.1800   -0.4060   18.5950 C   0  0  0  0  0  0  0  0  0  0  0  0
    6.5310    0.1850   18.1960 N   0  0  0  0  0  0  0  0  0  0  0  0
    5.4420    1.0260   18.7610 C   0  0  0  0  0  0  0  0  0  0  0  0
    4.2290    1.4030   20.7840 C   0  0  0  0  0  0  0  0  0  0  0  0
   14.7810    0.7870   17.4000 N   0  0  0  0  0  0  0  0  0  0  0  0
   15.9670    0.5130   17.5560 C   0  0  0  0  0  0  0  0  0  0  0  0
   17.4840   -0.7440   18.6770 C   0  0  0  0  0  0  0  0  0  0  0  0
    4.7140    2.0500   17.9950 N   0  0  0  0  0  0  0  0  0  0  0  0
    3.4970    2.3860   20.1160 C   0  0  0  0  0  0  0  0  0  0  0  0
   16.9220    0.9960   16.8480 C   0  0  0  0  0  0  0  0  0  0  0  0
   18.4290   -0.2940   18.0160 C   0  0  0  0  0  0  0  0  0  0  0  0
    3.6740    2.7500   18.7820 C   0  0  0  0  0  0  0  0  0  0  0  0
   18.1300    0.6050   17.1120 C   0  0  0  0  0  0  0  0  0  0  0  0
   19.5800   -0.7960   18.3500 F   0  0  0  0  0  0  0  0  0  0  0  0
  1  2  1  0
  2  3  1  0
  2  4  1  0
  3  5  1  0
  4  6  1  0
  4  7  1  6
  5  8  1  0
  6  8  1  0
  7  9  2  0
  7 10  1  0
  8 11  1  0
 10 12  1  0
 11 13  2  0
 11 14  1  0
 12 15  1  0
 14 16  1  0
 15 17  1  0
 16 18  2  0
 16 19  1  0
 17 20  2  0
 17 21  1  0
 18 22  1  0
 19 23  2  0
 22 23  1  0
 19 24  1  0
 20 25  1  0
 21 26  2  0
 25 26  1  0
 21 27  1  0
 23 28  1  0
 24 29  2  0
 26 30  1  0
 27 31  2  0
 28 32  2  0
 29 32  1  0
 30 33  2  0
 31 33  1  0
 31 34  1  0
M  END
