MAK-UNK-3e0761f8-7-acrylamide
     RDKit          3D

 27 30  0  0  0  0  0  0  0  0999 V2000
    7.4300   -2.9330   18.8330 C   0  0  0  0  0  0  0  0  0  0  0  0
    6.1200   -3.2560   19.5270 C   0  0  0  0  0  0  0  0  0  0  0  0
    5.9940   -2.8570   20.9780 C   0  0  0  0  0  0  0  0  0  0  0  0
    4.8690   -3.2310   21.4830 O   0  0  0  0  0  0  0  0  0  0  0  0
    7.0800   -2.1560   21.6700 N   0  0  0  0  0  0  0  0  0  0  0  0
    7.0720   -1.9060   23.1380 C   0  0  0  0  0  0  0  0  0  0  0  0
    8.3300   -1.4090   21.2070 C   0  0  1  0  0  0  0  0  0  0  0  0
    8.4340   -1.1870   23.4520 C   0  0  2  0  0  0  0  0  0  0  0  0
    8.4400   -0.2570   22.2170 C   0  0  0  0  0  0  0  0  0  0  0  0
    9.6240   -2.0540   21.7230 C   0  0  0  0  0  0  0  0  0  0  0  0
    9.6590   -2.1410   23.2030 C   0  0  2  0  0  0  0  0  0  0  0  0
    9.5130   -3.5490   23.7640 C   0  0  0  0  0  0  0  0  0  0  0  0
   10.5180   -4.1050   24.2020 O   0  0  0  0  0  0  0  0  0  0  0  0
    8.2370   -4.1310   23.7120 N   0  0  0  0  0  0  0  0  0  0  0  0
    7.8550   -4.7760   22.4610 C   0  0  0  0  0  0  0  0  0  0  0  0
    7.4140   -4.5150   24.8650 C   0  0  0  0  0  0  0  0  0  0  0  0
    6.5050   -4.9470   22.1360 C   0  0  0  0  0  0  0  0  0  0  0  0
    5.9950   -4.9060   24.4260 C   0  0  2  0  0  0  0  0  0  0  0  0
    5.6960   -4.3320   23.1410 O   0  0  0  0  0  0  0  0  0  0  0  0
    5.0750   -4.4080   25.3640 C   0  0  0  0  0  0  0  0  0  0  0  0
    3.8450   -5.0200   25.8500 N   0  0  0  0  0  0  0  0  0  0  0  0
    5.2000   -3.1780   26.0230 N   0  0  0  0  0  0  0  0  0  0  0  0
    3.3510   -4.0680   26.7700 C   0  0  0  0  0  0  0  0  0  0  0  0
    4.3490   -4.0530   26.0850 N   0  0  0  0  0  0  0  0  0  0  0  0
    2.0690   -4.8330   27.2010 C   0  0  0  0  0  0  0  0  0  0  0  0
    0.7540   -4.2000   26.6800 C   0  0  0  0  0  0  0  0  0  0  0  0
    0.8990   -3.7020   25.2470 C   0  0  0  0  0  0  0  0  0  0  0  0
  1  2  1  0
  2  3  1  0
  3  4  2  0
  3  5  1  0
  5  6  1  0
  5  7  1  0
  8  6  1  6
  7  9  1  0
  8  9  1  0
  7 10  1  1
  8 11  1  0
 10 11  1  0
 11 12  1  6
 12 13  2  0
 12 14  1  0
 14 15  1  0
 14 16  1  0
 15 17  1  0
 16 18  1  0
 17 19  1  0
 18 19  1  0
 18 20  1  1
 20 21  2  0
 20 22  1  0
 21 23  1  0
 22 24  1  0
 23 24  2  0
 23 25  1  0
 25 26  1  0
 26 27  1  0
M  END
