MAK-UNK-af83ef51-25-vinylsulfonamide
     RDKit          3D

 32 34  0  0  0  0  0  0  0  0999 V2000
    7.2870   -3.2720   19.3710 C   0  0  0  0  0  0  0  0  0  0  0  0
    6.9990   -3.7080   20.7890 C   0  0  0  0  0  0  0  0  0  0  0  0
    5.3130   -3.2990   21.0600 S   0  0  0  0  0  0  0  0  0  0  0  0
    4.7210   -3.1950   19.7550 O   0  0  0  0  0  0  0  0  0  0  0  0
    4.6780   -4.2090   21.9730 O   0  0  0  0  0  0  0  0  0  0  0  0
    5.3750   -1.7650   21.7940 N   0  0  0  0  0  0  0  0  0  0  0  0
    6.6410   -1.0540   21.6420 C   0  0  0  0  0  0  0  0  0  0  0  0
    4.8430   -1.7960   23.1540 C   0  0  0  0  0  0  0  0  0  0  0  0
    7.6910   -1.5380   22.6410 C   0  0  0  0  0  0  0  0  0  0  0  0
    5.9090   -2.3190   24.1100 C   0  0  0  0  0  0  0  0  0  0  0  0
    7.1130   -2.7190   23.3560 N   0  0  0  0  0  0  0  0  0  0  0  0
    7.9020   -3.5840   24.0340 C   0  0  0  0  0  0  0  0  0  0  0  0
    8.4820   -2.8830   25.2660 C   0  0  2  0  0  0  0  0  0  0  0  0
    8.7790   -1.6920   25.0980 O   0  0  0  0  0  0  0  0  0  0  0  0
    9.7740   -3.5860   25.6940 C   0  0  2  0  0  0  0  0  0  0  0  0
   10.0900   -1.5800   24.5050 C   0  0  2  0  0  0  0  0  0  0  0  0
   10.7840   -2.9400   24.7590 C   0  0  1  0  0  0  0  0  0  0  0  0
    9.6800   -4.9290   25.5280 O   0  0  0  0  0  0  0  0  0  0  0  0
   10.7470   -0.3520   25.0940 C   0  0  0  0  0  0  0  0  0  0  0  0
   12.0860   -2.8700   25.3570 O   0  0  0  0  0  0  0  0  0  0  0  0
   13.1140   -2.2540   24.5800 C   0  0  0  0  0  0  0  0  0  0  0  0
   12.8900   -2.3300   23.2020 C   0  0  0  0  0  0  0  0  0  0  0  0
   12.7340   -1.1600   22.4780 C   0  0  0  0  0  0  0  0  0  0  0  0
   11.5750   -0.4050   22.7710 N   0  0  0  0  0  0  0  0  0  0  0  0
   11.4400    0.9760   22.7560 C   0  0  0  0  0  0  0  0  0  0  0  0
   12.7410    1.6890   22.8420 C   0  0  0  0  0  0  0  0  0  0  0  0
   10.2670    1.6550   22.6600 N   0  0  0  0  0  0  0  0  0  0  0  0
   12.8210    3.0140   22.8180 C   0  0  0  0  0  0  0  0  0  0  0  0
   10.3330    3.0830   22.6360 C   0  0  0  0  0  0  0  0  0  0  0  0
   11.5480    3.8080   22.7060 C   0  0  0  0  0  0  0  0  0  0  0  0
   11.5940    5.3470   22.6680 C   0  0  0  0  0  0  0  0  0  0  0  0
   12.8360    6.1100   22.3090 N   0  0  0  0  0  0  0  0  0  0  0  0
  1  2  1  0
  3  2  1  0
  3  4  2  0
  3  5  2  0
  3  6  1  0
  6  7  1  0
  6  8  1  0
  7  9  1  0
  8 10  1  0
  9 11  1  0
 10 11  1  0
 11 12  1  0
 13 12  1  6
 13 14  1  0
 13 15  1  0
 14 16  1  0
 15 17  1  0
 16 17  1  0
 15 18  1  6
 16 19  1  1
 17 20  1  1
 20 21  1  0
 21 22  1  0
 22 23  1  0
 23 24  1  0
 24 25  1  0
 25 26  2  0
 25 27  1  0
 26 28  1  0
 27 29  2  0
 28 30  2  0
 29 30  1  0
 30 31  1  0
 31 32  3  0
M  END
