MAK-UNK-e05327b2-5-acrylamide
     RDKit          3D

 58 65  0  0  0  0  0  0  0  0999 V2000
    7.2910   -3.0780   19.0290 C   0  0  0  0  0  0  0  0  0  0  0  0
    6.9240   -3.1320   20.5050 C   0  0  0  0  0  0  0  0  0  0  0  0
    6.1190   -4.3860   20.7080 C   0  0  0  0  0  0  0  0  0  0  0  0
    5.1820   -4.6520   19.9620 O   0  0  0  0  0  0  0  0  0  0  0  0
    6.4920   -5.2020   21.7400 N   0  0  0  0  0  0  0  0  0  0  0  0
    5.6890   -6.3640   22.1460 C   0  0  0  0  0  0  0  0  0  0  0  0
    7.3720   -4.6810   22.7810 C   0  0  0  0  0  0  0  0  0  0  0  0
    4.7360   -5.7870   23.2050 C   0  0  0  0  0  0  0  0  0  0  0  0
    6.5350   -4.2570   23.9710 C   0  0  0  0  0  0  0  0  0  0  0  0
    5.6160   -5.3660   24.3220 N   0  0  0  0  0  0  0  0  0  0  0  0
    4.9080   -5.3290   25.8510 S   0  0  0  0  0  0  0  0  0  0  0  0
    5.9520   -5.1760   26.8350 O   0  0  0  0  0  0  0  0  0  0  0  0
    3.9720   -6.4280   25.9170 O   0  0  0  0  0  0  0  0  0  0  0  0
    4.0150   -3.8700   25.9570 C   0  0  0  0  0  0  0  0  0  0  0  0
    4.6230   -2.4610   26.1330 C   0  0  0  0  0  0  0  0  0  0  0  0
    2.2880   -3.9040   25.8640 S   0  0  0  0  0  0  0  0  0  0  0  0
    3.4420   -1.5180   26.1740 C   0  0  0  0  0  0  0  0  0  0  0  0
    2.0930   -2.2060   26.0380 C   0  0  0  0  0  0  0  0  0  0  0  0
    0.8360   -1.5820   26.0490 C   0  0  0  0  0  0  0  0  0  0  0  0
    0.0200   -1.7840   27.0610 N   0  0  0  0  0  0  0  0  0  0  0  0
   -1.2820   -1.5340   26.6840 C   0  0  0  0  0  0  0  0  0  0  0  0
    0.3560   -1.1730   28.3510 C   0  0  0  0  0  0  0  0  0  0  0  0
   -2.1750   -1.9220   27.6760 C   0  0  0  0  0  0  0  0  0  0  0  0
   -0.8160   -0.5860   29.1710 C   0  0  0  0  0  0  0  0  0  0  0  0
   -2.1030   -1.3290   28.9550 N   0  0  0  0  0  0  0  0  0  0  0  0
   -2.6030   -2.3460   30.2400 S   0  0  0  0  0  0  0  0  0  0  0  0
   -2.2190   -1.6670   31.4570 O   0  0  0  0  0  0  0  0  0  0  0  0
   -2.1770   -3.6950   29.9460 O   0  0  0  0  0  0  0  0  0  0  0  0
   -4.3850   -2.3080   30.0760 C   0  0  0  0  0  0  0  0  0  0  0  0
   -5.0730   -3.4980   29.4720 C   0  0  0  0  0  0  0  0  0  0  0  0
   -5.1680   -1.1800   30.5000 C   0  0  0  0  0  0  0  0  0  0  0  0
   -6.5410   -3.5010   29.3180 C   0  0  0  0  0  0  0  0  0  0  0  0
   -6.5930   -1.2000   30.3410 C   0  0  0  0  0  0  0  0  0  0  0  0
   -4.6270   -0.0090   31.0840 C   0  0  0  0  0  0  0  0  0  0  0  0
   -7.2780   -2.2920   29.7810 C   0  0  0  0  0  0  0  0  0  0  0  0
   -7.3700   -0.0960   30.7500 C   0  0  0  0  0  0  0  0  0  0  0  0
   -5.4090    1.0910   31.4960 C   0  0  0  0  0  0  0  0  0  0  0  0
   -6.8050    1.0480   31.3230 C   0  0  0  0  0  0  0  0  0  0  0  0
   -4.7320    2.1730   32.0600 C   0  0  0  0  0  0  0  0  0  0  0  0
   -7.6320    2.1080   31.7060 C   0  0  0  0  0  0  0  0  0  0  0  0
   -4.6230    2.0380   33.4470 C   0  0  0  0  0  0  0  0  0  0  0  0
   -8.8600    2.0270   31.0880 N   0  0  0  0  0  0  0  0  0  0  0  0
   -4.9070    0.6220   33.8890 C   0  0  0  0  0  0  0  0  0  0  0  0
   -9.2110    3.2810   30.3940 C   0  0  0  0  0  0  0  0  0  0  0  0
   -9.9320    1.6650   32.0510 C   0  0  0  0  0  0  0  0  0  0  0  0
   -6.1970    0.0150   33.9500 C   0  0  0  0  0  0  0  0  0  0  0  0
   -3.9520   -0.2900   34.3010 C   0  0  0  0  0  0  0  0  0  0  0  0
   -9.9160    4.1700   31.2120 C   0  0  0  0  0  0  0  0  0  0  0  0
  -11.2010    2.0780   31.6380 C   0  0  0  0  0  0  0  0  0  0  0  0
   -6.2090   -1.2870   34.3840 C   0  0  0  0  0  0  0  0  0  0  0  0
   -4.6210   -1.8120   34.7370 S   0  0  0  0  0  0  0  0  0  0  0  0
  -11.2390    3.5690   31.5730 N   0  0  0  0  0  0  0  0  0  0  0  0
  -12.4030    4.1670   31.1280 C   0  0  0  0  0  0  0  0  0  0  0  0
  -12.9900    5.3510   31.5860 C   0  0  0  0  0  0  0  0  0  0  0  0
  -13.4330    3.5430   29.8430 S   0  0  0  0  0  0  0  0  0  0  0  0
  -14.1360    5.6810   30.9490 C   0  0  0  0  0  0  0  0  0  0  0  0
  -14.5470    4.8160   29.9590 C   0  0  0  0  0  0  0  0  0  0  0  0
  -15.9320    4.9120   28.9540 Cl  0  0  0  0  0  0  0  0  0  0  0  0
  1  2  1  0
  2  3  1  0
  3  4  2  0
  3  5  1  0
  5  6  1  0
  5  7  1  0
  6  8  1  0
  7  9  1  0
  8 10  1  0
  9 10  1  0
 10 11  1  0
 11 12  2  0
 11 13  2  0
 11 14  1  0
 14 15  2  0
 14 16  1  0
 15 17  1  0
 16 18  1  0
 17 18  2  0
 18 19  1  0
 19 20  1  0
 20 21  1  0
 20 22  1  0
 21 23  1  0
 22 24  1  0
 23 25  1  0
 24 25  1  0
 25 26  1  0
 26 27  2  0
 26 28  2  0
 26 29  1  0
 29 30  2  0
 29 31  1  0
 30 32  1  0
 31 33  2  0
 31 34  1  0
 32 35  2  0
 33 35  1  0
 33 36  1  0
 34 37  2  0
 36 38  2  0
 37 38  1  0
 37 39  1  0
 38 40  1  0
 39 41  1  0
 40 42  1  0
 41 43  1  0
 42 44  1  0
 42 45  1  0
 43 46  1  0
 43 47  2  0
 44 48  1  0
 45 49  1  0
 46 50  2  0
 47 51  1  0
 50 51  1  0
 48 52  1  0
 49 52  1  0
 52 53  1  0
 53 54  2  0
 53 55  1  0
 54 56  1  0
 55 57  1  0
 56 57  2  0
 57 58  1  0
M  END
