MAK-UNK-5d2caa6f-12-acrylamide
     RDKit          3D

 23 26  0  0  0  0  0  0  0  0999 V2000
    7.7610   -2.8870   18.5160 C   0  0  0  0  0  0  0  0  0  0  0  0
    6.2770   -2.8210   18.8570 C   0  0  0  0  0  0  0  0  0  0  0  0
    5.8540   -3.4270   20.1530 C   0  0  0  0  0  0  0  0  0  0  0  0
    5.2580   -4.5020   20.1340 O   0  0  0  0  0  0  0  0  0  0  0  0
    6.1670   -2.6640   21.2740 N   0  0  0  0  0  0  0  0  0  0  0  0
    7.0680   -1.6380   21.0110 C   0  0  0  0  0  0  0  0  0  0  0  0
    6.5150   -3.1920   22.6300 C   0  0  1  0  0  0  0  0  0  0  0  0
    8.0940   -2.4130   21.8190 C   0  0  2  0  0  0  0  0  0  0  0  0
    7.6130   -3.8410   22.1710 C   0  0  0  0  0  0  0  0  0  0  0  0
    7.1250   -2.2610   23.5050 C   0  0  0  0  0  0  0  0  0  0  0  0
    8.2230   -1.7570   22.9590 N   0  0  0  0  0  0  0  0  0  0  0  0
    9.4090   -1.8690   23.5620 C   0  0  0  0  0  0  0  0  0  0  0  0
   10.5810   -1.1870   23.2630 C   0  0  0  0  0  0  0  0  0  0  0  0
    9.8200   -3.3300   23.8540 C   0  0  0  0  0  0  0  0  0  0  0  0
    9.1500   -1.2750   24.9400 C   0  0  0  0  0  0  0  0  0  0  0  0
   10.7180    0.1140   23.8370 C   0  0  0  0  0  0  0  0  0  0  0  0
   11.6450   -1.7090   22.4540 C   0  0  0  0  0  0  0  0  0  0  0  0
   11.0900   -3.2290   24.3820 C   0  0  0  0  0  0  0  0  0  0  0  0
   10.4910   -1.0070   25.2890 C   0  0  0  0  0  0  0  0  0  0  0  0
   11.9640    0.9360   23.6180 C   0  0  0  0  0  0  0  0  0  0  0  0
   12.7910   -0.9230   22.2720 C   0  0  0  0  0  0  0  0  0  0  0  0
   11.4760   -1.9810   24.8600 C   0  0  0  0  0  0  0  0  0  0  0  0
   13.0120    0.4660   22.8600 C   0  0  0  0  0  0  0  0  0  0  0  0
  1  2  1  0
  2  3  1  0
  3  4  2  0
  3  5  1  0
  5  6  1  0
  5  7  1  0
  8  6  1  6
  7  9  1  0
  8  9  1  0
  7 10  1  1
  8 11  1  0
 10 11  1  0
 11 12  1  0
 12 13  1  0
 12 14  1  0
 12 15  1  0
 13 16  2  0
 13 17  1  0
 14 18  1  0
 15 19  1  0
 16 20  1  0
 17 21  2  0
 18 22  1  0
 19 22  1  0
 20 23  2  0
 21 23  1  0
M  END
