MAK-UNK-c74072e5-1-bromoalkyne
     RDKit          3D

 28 31  0  0  0  0  0  0  0  0999 V2000
    6.9970   -3.3390   19.6610 C   0  0  0  0  0  0  0  0  0  0  0  0
    5.9590   -2.9030   18.6660 C   0  0  0  0  0  0  0  0  0  0  0  0
    6.8850   -2.9490   20.9950 N   0  0  0  0  0  0  0  0  0  0  0  0
    7.9950   -2.4680   21.6160 C   0  0  0  0  0  0  0  0  0  0  0  0
    5.7490   -2.0610   21.3550 C   0  0  0  0  0  0  0  0  0  0  0  0
    8.1340   -1.1920   20.8360 C   0  0  0  0  0  0  0  0  0  0  0  0
    6.1450   -0.8100   21.9540 C   0  0  0  0  0  0  0  0  0  0  0  0
    7.3620   -0.1930   21.3680 N   0  0  0  0  0  0  0  0  0  0  0  0
    7.9320    0.8510   22.1330 C   0  0  0  0  0  0  0  0  0  0  0  0
    9.2170    0.4220   22.7550 C   0  0  0  0  0  0  0  0  0  0  0  0
   10.4740    1.0370   22.8540 C   0  0  0  0  0  0  0  0  0  0  0  0
    9.2160   -1.1260   23.5030 S   0  0  0  0  0  0  0  0  0  0  0  0
   11.4460    0.2630   23.5280 C   0  0  0  0  0  0  0  0  0  0  0  0
   10.8440   -1.0460   23.9670 C   0  0  0  0  0  0  0  0  0  0  0  0
   11.4730   -2.0490   24.6420 C   0  0  0  0  0  0  0  0  0  0  0  0
   12.8460   -2.2550   24.7270 C   0  0  0  0  0  0  0  0  0  0  0  0
   10.8560   -3.0750   25.3890 N   0  0  0  0  0  0  0  0  0  0  0  0
   13.0370   -3.4480   25.5610 C   0  0  0  0  0  0  0  0  0  0  0  0
   11.7850   -3.9330   25.9470 C   0  0  0  0  0  0  0  0  0  0  0  0
    9.2140   -3.4150   25.7300 S   0  0  0  0  0  0  0  0  0  0  0  0
    9.2090   -4.1760   26.9560 O   0  0  0  0  0  0  0  0  0  0  0  0
    8.5100   -2.1640   25.6370 O   0  0  0  0  0  0  0  0  0  0  0  0
    8.4000   -4.3850   24.5060 C   0  0  0  0  0  0  0  0  0  0  0  0
    7.1960   -3.8060   23.7370 C   0  0  0  0  0  0  0  0  0  0  0  0
    8.8010   -5.6840   24.2100 C   0  0  0  0  0  0  0  0  0  0  0  0
    6.4500   -4.6190   22.6710 C   0  0  0  0  0  0  0  0  0  0  0  0
    8.1180   -6.4190   23.2360 C   0  0  0  0  0  0  0  0  0  0  0  0
    6.9370   -5.8920   22.4590 C   0  0  0  0  0  0  0  0  0  0  0  0
  1  2  2  3
  1  3  1  0
  3  4  1  0
  3  5  1  0
  4  6  1  0
  5  7  1  0
  6  8  1  0
  7  8  1  0
  8  9  1  0
  9 10  1  0
 10 11  2  0
 10 12  1  0
 11 13  1  0
 12 14  1  0
 13 14  2  0
 14 15  1  0
 15 16  2  0
 15 17  1  0
 16 18  1  0
 17 19  1  0
 18 19  2  0
 17 20  1  0
 20 21  2  0
 20 22  2  0
 20 23  1  0
 23 24  2  0
 23 25  1  0
 24 26  1  0
 25 27  2  0
 26 28  2  0
 27 28  1  0
M  END
