MAK-UNK-af83ef51-7-vinylsulfonamide
     RDKit          3D

 24 25  0  0  0  0  0  0  0  0999 V2000
    7.9220   -3.1730   18.9850 C   0  0  0  0  0  0  0  0  0  0  0  0
    6.7130   -2.3370   18.5870 C   0  0  0  0  0  0  0  0  0  0  0  0
    5.5410   -2.3670   19.8800 S   0  0  0  0  0  0  0  0  0  0  0  0
    4.9660   -3.6750   19.7500 O   0  0  0  0  0  0  0  0  0  0  0  0
    4.7850   -1.1380   19.7750 O   0  0  0  0  0  0  0  0  0  0  0  0
    6.5850   -2.1870   21.1750 N   0  0  0  0  0  0  0  0  0  0  0  0
    7.5090   -1.0730   21.0720 C   0  0  0  0  0  0  0  0  0  0  0  0
    6.2860   -2.6670   22.5690 C   0  0  2  0  0  0  0  0  0  0  0  0
    8.6350   -1.1820   22.0840 C   0  0  0  0  0  0  0  0  0  0  0  0
    7.4220   -3.2020   23.1840 C   0  0  0  0  0  0  0  0  0  0  0  0
    5.1630   -3.6860   22.6630 C   0  0  0  0  0  0  0  0  0  0  0  0
    8.7520   -2.5630   22.7490 C   0  0  2  0  0  0  0  0  0  0  0  0
    4.1940   -3.7120   21.9470 O   0  0  0  0  0  0  0  0  0  0  0  0
    5.3980   -4.5840   23.6690 O   0  0  0  0  0  0  0  0  0  0  0  0
    9.7090   -2.4080   23.8920 C   0  0  0  0  0  0  0  0  0  0  0  0
    5.0910   -5.9320   23.2930 C   0  0  0  0  0  0  0  0  0  0  0  0
   10.6970   -1.4610   23.6780 C   0  0  0  0  0  0  0  0  0  0  0  0
    5.6410   -6.1500   22.0290 C   0  0  0  0  0  0  0  0  0  0  0  0
   11.9760   -1.8350   23.2980 C   0  0  0  0  0  0  0  0  0  0  0  0
   10.3920   -0.1070   23.8320 C   0  0  0  0  0  0  0  0  0  0  0  0
   12.9320   -0.8600   23.0720 C   0  0  0  0  0  0  0  0  0  0  0  0
   11.3320    0.8910   23.6030 C   0  0  0  0  0  0  0  0  0  0  0  0
   12.6170    0.5000   23.2220 C   0  0  0  0  0  0  0  0  0  0  0  0
   10.8320    2.3090   23.7900 C   0  0  0  0  0  0  0  0  0  0  0  0
  1  2  1  0
  3  2  1  0
  3  4  2  0
  3  5  2  0
  3  6  1  0
  6  7  1  0
  6  8  1  0
  7  9  1  0
  8 10  1  0
  8 11  1  6
  9 12  1  0
 10 12  1  0
 11 13  2  0
 11 14  1  0
 12 15  1  1
 14 16  1  0
 15 17  1  0
 16 18  1  0
 17 19  2  0
 17 20  1  0
 19 21  1  0
 20 22  2  0
 21 23  2  0
 22 23  1  0
 22 24  1  0
M  END
