MAK-UNK-8fdbca50-2-bromoalkyne
     RDKit          3D

 38 41  0  0  0  0  0  0  0  0999 V2000
    8.0480   -3.3730   20.0870 C   0  0  0  0  0  0  0  0  0  0  0  0
    6.4870   -3.4370   19.7270 C   0  0  0  0  0  0  0  0  0  0  0  0
    8.9140   -2.5680   21.3200 N   0  0  0  0  0  0  0  0  0  0  0  0
    8.4700   -1.7510   22.5470 C   0  0  0  0  0  0  0  0  0  0  0  0
   10.4660   -2.2740   21.3800 C   0  0  0  0  0  0  0  0  0  0  0  0
    9.6410   -1.1320   23.2490 C   0  0  0  0  0  0  0  0  0  0  0  0
   11.4090   -2.1460   22.5730 C   0  0  0  0  0  0  0  0  0  0  0  0
   10.5660   -2.0380   23.7740 C   0  0  0  0  0  0  0  0  0  0  0  0
   10.2340   -3.3710   24.0870 C   0  0  0  0  0  0  0  0  0  0  0  0
   11.0030   -4.0300   24.7570 O   0  0  0  0  0  0  0  0  0  0  0  0
    8.9540   -3.8650   23.4570 N   0  0  0  0  0  0  0  0  0  0  0  0
    9.2290   -3.9470   22.0390 C   0  0  0  0  0  0  0  0  0  0  0  0
    8.2590   -5.1410   23.7600 C   0  0  2  0  0  0  0  0  0  0  0  0
    9.2890   -6.1140   23.8050 C   0  0  0  0  0  0  0  0  0  0  0  0
    7.3900   -5.4190   22.5060 C   0  0  1  0  0  0  0  0  0  0  0  0
    6.6520   -6.7400   22.6070 C   0  0  0  0  0  0  0  0  0  0  0  0
    6.3010   -4.3640   22.2950 C   0  0  0  0  0  0  0  0  0  0  0  0
    5.0750   -4.7730   23.0530 C   0  0  0  0  0  0  0  0  0  0  0  0
    4.3340   -3.8530   23.7310 C   0  0  0  0  0  0  0  0  0  0  0  0
    4.3930   -5.9870   23.2920 C   0  0  0  0  0  0  0  0  0  0  0  0
    3.2740   -4.3760   24.3670 C   0  0  0  0  0  0  0  0  0  0  0  0
    3.2770   -5.7350   24.1150 N   0  0  0  0  0  0  0  0  0  0  0  0
    2.3400   -3.6920   25.1410 C   0  0  0  0  0  0  0  0  0  0  0  0
    2.2500   -7.0090   24.6000 S   0  0  0  0  0  0  0  0  0  0  0  0
    1.0190   -4.1310   25.2050 C   0  0  0  0  0  0  0  0  0  0  0  0
    2.7440   -2.5320   25.8690 C   0  0  0  0  0  0  0  0  0  0  0  0
    3.0430   -8.2280   24.6960 O   0  0  0  0  0  0  0  0  0  0  0  0
    1.4890   -6.5340   25.7350 O   0  0  0  0  0  0  0  0  0  0  0  0
    1.1350   -7.1540   23.2480 C   0  0  0  0  0  0  0  0  0  0  0  0
    0.0470   -3.4640   25.9700 C   0  0  0  0  0  0  0  0  0  0  0  0
    1.8020   -1.8520   26.6340 C   0  0  0  0  0  0  0  0  0  0  0  0
    4.0090   -2.0810   25.8310 F   0  0  0  0  0  0  0  0  0  0  0  0
    1.3630   -8.1310   22.2810 C   0  0  0  0  0  0  0  0  0  0  0  0
    0.0420   -6.2990   23.1580 C   0  0  0  0  0  0  0  0  0  0  0  0
    0.3670   -2.3430   26.6910 C   0  0  0  0  0  0  0  0  0  0  0  0
    0.5120   -8.2850   21.2020 C   0  0  0  0  0  0  0  0  0  0  0  0
   -0.8560   -6.3670   22.1360 N   0  0  0  0  0  0  0  0  0  0  0  0
   -0.6550   -7.3050   21.1890 C   0  0  0  0  0  0  0  0  0  0  0  0
  1  2  2  3
  1  3  1  0
  3  4  1  0
  3  5  1  0
  4  6  1  0
  5  7  1  0
  6  8  1  0
  7  8  1  0
  8  9  1  0
  9 10  2  0
  9 11  1  0
 11 12  1  0
 11 13  1  0
 13 14  1  6
 13 15  1  0
 15 16  1  1
 15 17  1  0
 17 18  1  0
 18 19  1  0
 18 20  2  0
 19 21  2  0
 20 22  1  0
 21 22  1  0
 21 23  1  0
 22 24  1  0
 23 25  2  0
 23 26  1  0
 24 27  2  0
 24 28  2  0
 24 29  1  0
 25 30  1  0
 26 31  2  0
 26 32  1  0
 29 33  2  0
 29 34  1  0
 30 35  2  0
 31 35  1  0
 33 36  1  0
 34 37  2  0
 36 38  2  0
 37 38  1  0
M  END
