MAK-UNK-ed378e62-2
     RDKit          3D

  9  9  0  0  0  0  0  0  0  0999 V2000
    7.1360   -5.2500   26.0490 C   0  0  0  0  0  0  0  0  0  0  0  0
    6.7960   -5.1490   24.7200 C   0  0  0  0  0  0  0  0  0  0  0  0
    7.5840   -4.8120   23.6060 C   0  0  0  0  0  0  0  0  0  0  0  0
    5.3670   -5.4130   24.1860 C   0  0  0  0  0  0  0  0  0  0  0  0
    7.2360   -4.7150   22.3410 N   0  0  0  0  0  0  0  0  0  0  0  0
    4.9650   -5.3580   23.1340 N   0  0  0  0  0  0  0  0  0  0  0  0
    5.8580   -5.0090   22.1720 C   0  0  0  0  0  0  0  0  0  0  0  0
    5.4080   -4.8950   20.7940 C   0  0  0  0  0  0  0  0  0  0  0  0
    5.6270   -6.1620   20.1220 N   0  0  0  0  0  0  0  0  0  0  0  0
  1  2  1  0
  2  3  2  0
  2  4  1  0
  3  5  1  0
  4  6  2  0
  5  7  2  0
  6  7  1  0
  7  8  1  0
  8  9  3  0
M  END
