MAK-UNK-ec98eaf6-38-bromoalkyne
     RDKit          3D

 18 20  0  0  0  0  0  0  0  0999 V2000
    6.6310   -3.7740   19.9330 C   0  0  0  0  0  0  0  0  0  0  0  0
    6.3350   -2.8750   18.7540 C   0  0  0  0  0  0  0  0  0  0  0  0
    7.0210   -3.1460   21.0810 N   0  0  0  0  0  0  0  0  0  0  0  0
    8.0730   -2.0720   21.0820 C   0  0  0  0  0  0  0  0  0  0  0  0
    6.1980   -2.9250   22.3000 C   0  0  2  0  0  0  0  0  0  0  0  0
    7.6330   -1.3960   22.3930 C   0  0  1  0  0  0  0  0  0  0  0  0
    6.1190   -1.4040   22.3610 C   0  0  0  0  0  0  0  0  0  0  0  0
    6.9820   -3.3680   23.3250 C   0  0  0  0  0  0  0  0  0  0  0  0
    8.0010   -2.4490   23.5090 C   0  0  1  0  0  0  0  0  0  0  0  0
    9.2320   -3.0210   23.3570 C   0  0  0  0  0  0  0  0  0  0  0  0
   10.4320   -2.2860   23.2850 C   0  0  0  0  0  0  0  0  0  0  0  0
   10.7410   -1.4860   24.4750 C   0  0  0  0  0  0  0  0  0  0  0  0
   11.2800   -2.3180   22.1810 C   0  0  0  0  0  0  0  0  0  0  0  0
   12.0320   -0.8440   24.2100 C   0  0  0  0  0  0  0  0  0  0  0  0
   12.4660   -1.6170   22.1530 C   0  0  0  0  0  0  0  0  0  0  0  0
   12.2720   -0.1370   25.3560 C   0  0  0  0  0  0  0  0  0  0  0  0
   12.8520   -0.8690   23.1680 C   0  0  0  0  0  0  0  0  0  0  0  0
   13.4840   -1.6840   20.8490 Cl  0  0  0  0  0  0  0  0  0  0  0  0
  1  2  2  3
  1  3  1  0
  3  4  1  0
  3  5  1  0
  6  4  1  6
  5  7  1  0
  6  7  1  0
  5  8  1  1
  6  9  1  0
  8  9  1  0
  9 10  1  6
 10 11  1  0
 11 12  2  0
 11 13  1  0
 12 14  1  0
 13 15  2  0
 14 16  1  0
 14 17  2  0
 15 17  1  0
 15 18  1  0
M  END
