MAK-UNK-ec98eaf6-51-vinylsulfonamide
     RDKit          3D

 29 32  0  0  0  0  0  0  0  0999 V2000
    7.7320   -2.9560   18.2440 C   0  0  0  0  0  0  0  0  0  0  0  0
    7.1520   -2.3070   19.4250 C   0  0  0  0  0  0  0  0  0  0  0  0
    6.1520   -3.4200   20.3770 S   0  0  0  0  0  0  0  0  0  0  0  0
    4.9830   -3.8480   19.6380 O   0  0  0  0  0  0  0  0  0  0  0  0
    6.9350   -4.4330   21.0420 O   0  0  0  0  0  0  0  0  0  0  0  0
    5.8470   -2.2380   21.5380 N   0  0  0  0  0  0  0  0  0  0  0  0
    6.9070   -1.2170   21.5330 C   0  0  0  0  0  0  0  0  0  0  0  0
    5.9400   -2.7590   22.9320 C   0  0  2  0  0  0  0  0  0  0  0  0
    7.4640   -1.1880   22.9310 C   0  0  1  0  0  0  0  0  0  0  0  0
    6.1950   -1.4810   23.7430 C   0  0  0  0  0  0  0  0  0  0  0  0
    7.2980   -3.4080   23.0350 C   0  0  0  0  0  0  0  0  0  0  0  0
    8.2850   -2.4370   23.0920 N   0  0  0  0  0  0  0  0  0  0  0  0
    9.2690   -2.4910   24.1660 C   0  0  1  0  0  0  0  0  0  0  0  0
    9.6740   -3.9430   24.3520 C   0  0  0  0  0  0  0  0  0  0  0  0
   10.2410   -1.5480   23.8750 C   0  0  0  0  0  0  0  0  0  0  0  0
    8.9300   -4.8230   25.1560 C   0  0  0  0  0  0  0  0  0  0  0  0
   10.3720   -0.1580   24.5330 C   0  0  0  0  0  0  0  0  0  0  0  0
   11.1990   -1.8680   22.9020 C   0  0  0  0  0  0  0  0  0  0  0  0
    7.7360   -5.3350   24.6160 C   0  0  0  0  0  0  0  0  0  0  0  0
   11.4980    0.8020   24.1250 C   0  0  0  0  0  0  0  0  0  0  0  0
   12.2180   -0.9830   22.5520 C   0  0  0  0  0  0  0  0  0  0  0  0
    7.6790   -5.9530   23.3480 C   0  0  0  0  0  0  0  0  0  0  0  0
    6.5110   -5.2320   25.3730 C   0  0  0  0  0  0  0  0  0  0  0  0
   12.3920    0.3950   23.1710 C   0  0  0  0  0  0  0  0  0  0  0  0
   13.1560   -1.4040   21.5200 C   0  0  0  0  0  0  0  0  0  0  0  0
    6.3810   -6.4730   22.8200 C   0  0  0  0  0  0  0  0  0  0  0  0
    5.2610   -5.7150   24.9070 C   0  0  0  0  0  0  0  0  0  0  0  0
   13.7920   -1.6770   20.6450 N   0  0  0  0  0  0  0  0  0  0  0  0
    5.1630   -6.3290   23.6570 C   0  0  0  0  0  0  0  0  0  0  0  0
  1  2  1  0
  3  2  1  0
  3  4  2  0
  3  5  2  0
  3  6  1  0
  6  7  1  0
  6  8  1  0
  9  7  1  6
  8 10  1  0
  9 10  1  0
  8 11  1  6
  9 12  1  0
 11 12  1  0
 12 13  1  0
 13 14  1  6
 13 15  1  0
 14 16  1  0
 15 17  2  0
 15 18  1  0
 16 19  1  0
 17 20  1  0
 18 21  2  0
 19 22  2  0
 19 23  1  0
 20 24  2  0
 21 24  1  0
 21 25  1  0
 22 26  1  0
 23 27  2  0
 25 28  3  0
 26 29  2  0
 27 29  1  0
M  END
