MAK-UNK-9e4a73aa-35
     RDKit          3D

 27 30  0  0  0  0  0  0  0  0999 V2000
    6.7920    0.8510   25.0650 C   0  0  0  0  0  0  0  0  0  0  0  0
    8.2580    0.7080   24.7120 C   0  0  0  0  0  0  0  0  0  0  0  0
    8.9490    1.9590   24.3780 C   0  0  0  0  0  0  0  0  0  0  0  0
    8.9730   -0.4680   24.6680 C   0  0  0  0  0  0  0  0  0  0  0  0
    8.2070    3.1070   24.4210 F   0  0  0  0  0  0  0  0  0  0  0  0
   10.2580    2.0130   24.0350 C   0  0  0  0  0  0  0  0  0  0  0  0
   10.3020   -0.4290   24.3390 C   0  0  0  0  0  0  0  0  0  0  0  0
    8.3580   -1.6650   24.9250 C   0  0  0  0  0  0  0  0  0  0  0  0
   10.9490    3.5350   23.6500 Cl  0  0  0  0  0  0  0  0  0  0  0  0
   10.9650    0.8000   24.0170 C   0  0  0  0  0  0  0  0  0  0  0  0
    7.5630   -1.6990   25.8580 O   0  0  0  0  0  0  0  0  0  0  0  0
    8.7310   -2.6170   24.0190 N   0  0  0  0  0  0  0  0  0  0  0  0
   10.9370   -1.5880   24.3150 N   0  0  0  0  0  0  0  0  0  0  0  0
    7.9740   -2.3120   22.7990 C   0  0  0  0  0  0  0  0  0  0  0  0
   10.1840   -2.8140   24.1950 C   0  0  0  0  0  0  0  0  0  0  0  0
   11.8260   -1.4260   23.2880 C   0  0  0  0  0  0  0  0  0  0  0  0
    8.4920   -1.2520   21.8550 C   0  0  0  0  0  0  0  0  0  0  0  0
    6.7580   -2.9400   22.4620 C   0  0  0  0  0  0  0  0  0  0  0  0
   10.7290   -3.9080   24.2410 O   0  0  0  0  0  0  0  0  0  0  0  0
   11.8100   -2.3670   22.2060 C   0  0  0  0  0  0  0  0  0  0  0  0
   12.7340   -0.2690   23.3470 C   0  0  0  0  0  0  0  0  0  0  0  0
    7.6100   -0.9860   20.6500 C   0  0  0  0  0  0  0  0  0  0  0  0
    5.9890   -2.6770   21.3650 N   0  0  0  0  0  0  0  0  0  0  0  0
   12.7120   -2.1250   21.2050 C   0  0  0  0  0  0  0  0  0  0  0  0
   13.5730   -0.1250   22.2940 C   0  0  0  0  0  0  0  0  0  0  0  0
    6.4350   -1.7220   20.5180 C   0  0  0  0  0  0  0  0  0  0  0  0
   13.5530   -1.0510   21.2500 C   0  0  0  0  0  0  0  0  0  0  0  0
  1  2  1  0
  2  3  2  0
  2  4  1  0
  3  5  1  0
  3  6  1  0
  4  7  2  0
  4  8  1  0
  6  9  1  0
  6 10  2  0
  7 10  1  0
  8 11  2  0
  8 12  1  0
  7 13  1  0
 12 14  1  0
 12 15  1  0
 13 15  1  0
 13 16  1  0
 14 17  2  0
 14 18  1  0
 15 19  2  0
 16 20  2  0
 16 21  1  0
 17 22  1  0
 18 23  2  0
 20 24  1  0
 21 25  2  0
 22 26  2  0
 23 26  1  0
 24 27  2  0
 25 27  1  0
M  END
