MAK-UNK-0d6072ac-19
     RDKit          3D

 20 22  0  0  0  0  0  0  0  0999 V2000
    5.7380   -5.2350   22.2390 C   0  0  0  0  0  0  0  0  0  0  0  0
    6.1230   -5.6900   23.5450 C   0  0  2  0  0  0  0  0  0  0  0  0
    5.1590   -5.7180   24.5500 C   0  0  0  0  0  0  0  0  0  0  0  0
    7.4580   -5.0920   23.9840 C   0  0  0  0  0  0  0  0  0  0  0  0
    5.0910   -4.9630   25.5040 O   0  0  0  0  0  0  0  0  0  0  0  0
    4.2340   -6.6890   24.3880 O   0  0  0  0  0  0  0  0  0  0  0  0
    8.2460   -5.6020   25.0400 C   0  0  0  0  0  0  0  0  0  0  0  0
    7.8790   -3.9730   23.2510 C   0  0  0  0  0  0  0  0  0  0  0  0
    9.4720   -5.0380   25.3620 C   0  0  0  0  0  0  0  0  0  0  0  0
    9.0870   -3.3750   23.5490 C   0  0  0  0  0  0  0  0  0  0  0  0
    9.8500   -3.8800   24.5300 C   0  0  0  0  0  0  0  0  0  0  0  0
    9.7650   -2.2930   23.0370 N   0  0  0  0  0  0  0  0  0  0  0  0
   11.0940   -3.1160   24.6230 C   0  0  0  0  0  0  0  0  0  0  0  0
   10.9780   -2.1180   23.6670 C   0  0  0  0  0  0  0  0  0  0  0  0
    9.2810   -1.4550   21.9640 C   0  0  0  0  0  0  0  0  0  0  0  0
   12.2030   -3.2140   25.3850 C   0  0  0  0  0  0  0  0  0  0  0  0
   11.9720   -1.1740   23.4650 C   0  0  0  0  0  0  0  0  0  0  0  0
   13.1710   -2.3110   25.1700 C   0  0  0  0  0  0  0  0  0  0  0  0
   13.0800   -1.2900   24.2370 C   0  0  0  0  0  0  0  0  0  0  0  0
   14.4820   -2.5790   26.1460 Cl  0  0  0  0  0  0  0  0  0  0  0  0
  2  1  1  6
  2  3  1  0
  2  4  1  0
  3  5  2  0
  3  6  1  0
  4  7  2  0
  4  8  1  0
  7  9  1  0
  8 10  2  0
  9 11  2  0
 10 11  1  0
 10 12  1  0
 11 13  1  0
 12 14  1  0
 13 14  2  0
 12 15  1  0
 13 16  1  0
 14 17  1  0
 16 18  2  0
 17 19  2  0
 18 19  1  0
 18 20  1  0
M  END
