MAK-UNK-987948f6-10
     RDKit          3D

 24 27  0  0  0  0  0  0  0  0999 V2000
    2.3980   -9.5630   19.2720 C   0  0  0  0  0  0  0  0  0  0  0  0
    2.8910   -8.6720   20.1660 C   0  0  0  0  0  0  0  0  0  0  0  0
    4.4770   -7.5440   20.2040 C   0  0  0  0  0  0  0  0  0  0  0  0
    2.1720   -8.2650   21.5130 C   0  0  0  0  0  0  0  0  0  0  0  0
    5.2060   -7.2080   19.2690 O   0  0  0  0  0  0  0  0  0  0  0  0
    4.4480   -7.0000   21.7420 N   0  0  0  0  0  0  0  0  0  0  0  0
    3.0380   -7.3350   22.3650 C   0  0  0  0  0  0  0  0  0  0  0  0
    0.9210   -8.6370   21.9480 C   0  0  0  0  0  0  0  0  0  0  0  0
    5.0770   -5.7650   22.0710 C   0  0  0  0  0  0  0  0  0  0  0  0
    2.4750   -6.9280   23.5520 C   0  0  0  0  0  0  0  0  0  0  0  0
    0.5060   -8.1380   23.1680 C   0  0  0  0  0  0  0  0  0  0  0  0
    6.3630   -5.4820   21.6110 C   0  0  0  0  0  0  0  0  0  0  0  0
    4.4320   -4.7790   22.8560 C   0  0  0  0  0  0  0  0  0  0  0  0
    1.2360   -7.3120   23.9610 N   0  0  0  0  0  0  0  0  0  0  0  0
    6.9860   -4.2680   21.9140 C   0  0  0  0  0  0  0  0  0  0  0  0
    5.0540   -3.5530   23.1650 C   0  0  0  0  0  0  0  0  0  0  0  0
    6.3420   -3.3140   22.6800 C   0  0  0  0  0  0  0  0  0  0  0  0
    4.3540   -2.4970   24.0000 C   0  0  0  0  0  0  0  0  0  0  0  0
    4.5380   -2.6150   25.4560 N   0  0  0  0  0  0  0  0  0  0  0  0
    3.3460   -3.1710   26.1210 C   0  0  0  0  0  0  0  0  0  0  0  0
    5.7630   -3.3440   25.8450 C   0  0  0  0  0  0  0  0  0  0  0  0
    3.5640   -3.4370   27.6140 C   0  0  0  0  0  0  0  0  0  0  0  0
    5.9600   -3.3580   27.3720 C   0  0  0  0  0  0  0  0  0  0  0  0
    4.8000   -2.9000   28.0980 O   0  0  0  0  0  0  0  0  0  0  0  0
  1  2  2  3
  2  3  1  0
  2  4  1  0
  3  5  2  0
  3  6  1  0
  4  7  2  0
  6  7  1  0
  4  8  1  0
  6  9  1  0
  7 10  1  0
  8 11  2  0
  9 12  2  0
  9 13  1  0
 10 14  2  0
 11 14  1  0
 12 15  1  0
 13 16  2  0
 15 17  2  0
 16 17  1  0
 16 18  1  0
 18 19  1  0
 19 20  1  0
 19 21  1  0
 20 22  1  0
 21 23  1  0
 22 24  1  0
 23 24  1  0
M  END
