MAK-UNK-69bf97dd-6-acrylamide
     RDKit          3D

 29 31  0  0  0  0  0  0  0  0999 V2000
    7.3380   -2.8670   18.4960 C   0  0  0  0  0  0  0  0  0  0  0  0
    6.4380   -2.5600   19.6620 C   0  0  0  0  0  0  0  0  0  0  0  0
    5.9700   -3.7980   20.3680 C   0  0  0  0  0  0  0  0  0  0  0  0
    5.1590   -4.5850   19.8780 O   0  0  0  0  0  0  0  0  0  0  0  0
    6.5530   -3.9990   21.5800 N   0  0  0  0  0  0  0  0  0  0  0  0
    6.4190   -5.2070   22.3970 C   0  0  0  0  0  0  0  0  0  0  0  0
    7.5960   -3.0800   22.0410 C   0  0  0  0  0  0  0  0  0  0  0  0
    5.6370   -4.7580   23.6830 C   0  0  0  0  0  0  0  0  0  0  0  0
    7.4240   -2.9070   23.5130 C   0  0  0  0  0  0  0  0  0  0  0  0
    5.9670   -3.2490   23.7960 C   0  0  0  0  0  0  0  0  0  0  0  0
    5.6560   -3.0020   25.2810 C   0  0  0  0  0  0  0  0  0  0  0  0
    4.5920   -3.2050   25.8480 O   0  0  0  0  0  0  0  0  0  0  0  0
    6.9070   -2.4800   25.8690 N   0  0  0  0  0  0  0  0  0  0  0  0
    7.2440   -1.0610   26.0710 C   0  0  0  0  0  0  0  0  0  0  0  0
    6.2520   -0.4110   26.9930 C   0  0  0  0  0  0  0  0  0  0  0  0
    4.7830   -0.5910   26.7320 C   0  0  0  0  0  0  0  0  0  0  0  0
    6.5970    0.3700   28.1140 C   0  0  0  0  0  0  0  0  0  0  0  0
    3.8480   -0.0180   27.5850 C   0  0  0  0  0  0  0  0  0  0  0  0
    5.6470    0.9160   28.9260 C   0  0  0  0  0  0  0  0  0  0  0  0
    8.2350    0.7730   28.6640 S   0  0  0  0  0  0  0  0  0  0  0  0
    4.3070    0.7260   28.6780 C   0  0  0  0  0  0  0  0  0  0  0  0
    9.0330   -0.4280   28.7060 O   0  0  0  0  0  0  0  0  0  0  0  0
    8.6060    1.9440   27.9070 O   0  0  0  0  0  0  0  0  0  0  0  0
    8.0360    1.3010   30.2850 N   0  0  0  0  0  0  0  0  0  0  0  0
    8.4660    0.3430   31.3430 C   0  0  0  0  0  0  0  0  0  0  0  0
    8.7050    2.6010   30.5700 C   0  0  0  0  0  0  0  0  0  0  0  0
    8.3850    1.0890   32.6860 C   0  0  0  0  0  0  0  0  0  0  0  0
    7.9510    3.2090   31.7560 C   0  0  0  0  0  0  0  0  0  0  0  0
    7.4670    2.1910   32.6440 O   0  0  0  0  0  0  0  0  0  0  0  0
  1  2  1  0
  2  3  1  0
  3  4  2  0
  3  5  1  0
  5  6  1  0
  5  7  1  0
  6  8  1  0
  7  9  1  0
  8 10  1  0
  9 10  1  0
 10 11  1  0
 11 12  2  0
 11 13  1  0
 13 14  1  0
 14 15  1  0
 15 16  2  0
 15 17  1  0
 16 18  1  0
 17 19  2  0
 20 17  1  0
 18 21  2  0
 19 21  1  0
 20 22  2  0
 20 23  2  0
 20 24  1  0
 24 25  1  0
 24 26  1  0
 25 27  1  0
 26 28  1  0
 27 29  1  0
 28 29  1  0
M  END
