MAK-UNK-516d8086-19-vinylsulfonamide
     RDKit          3D

 25 27  0  0  0  0  0  0  0  0999 V2000
    7.4450   -4.0950   20.4730 C   0  0  0  0  0  0  0  0  0  0  0  0
    6.9500   -2.9300   19.6410 C   0  0  0  0  0  0  0  0  0  0  0  0
    5.7710   -2.1010   20.6560 S   0  0  0  0  0  0  0  0  0  0  0  0
    4.8960   -3.1460   21.2110 O   0  0  0  0  0  0  0  0  0  0  0  0
    5.2130   -1.0150   19.8860 O   0  0  0  0  0  0  0  0  0  0  0  0
    6.6680   -1.3260   21.9910 C   0  0  0  0  0  0  0  0  0  0  0  0
    5.9710   -1.0890   23.1560 C   0  0  0  0  0  0  0  0  0  0  0  0
    8.0470   -0.9130   21.9860 C   0  0  0  0  0  0  0  0  0  0  0  0
    6.5030   -0.5090   24.2500 N   0  0  0  0  0  0  0  0  0  0  0  0
    8.6370   -0.2850   23.1570 C   0  0  0  0  0  0  0  0  0  0  0  0
    7.8010   -0.1050   24.2870 C   0  0  0  0  0  0  0  0  0  0  0  0
   10.0280    0.1410   23.1730 C   0  0  0  0  0  0  0  0  0  0  0  0
    8.3410    0.5210   25.4900 N   0  0  0  0  0  0  0  0  0  0  0  0
   11.0200   -0.8530   23.1970 C   0  0  0  0  0  0  0  0  0  0  0  0
    7.5320    1.3500   26.2540 C   0  0  0  0  0  0  0  0  0  0  0  0
   11.7520   -0.1900   24.0700 C   0  0  0  0  0  0  0  0  0  0  0  0
   12.0750   -1.8200   23.5500 N   0  0  0  0  0  0  0  0  0  0  0  0
    6.1930    0.7590   26.6090 C   0  0  0  0  0  0  0  0  0  0  0  0
   12.2290   -1.4050   24.2200 C   0  0  0  0  0  0  0  0  0  0  0  0
   12.4040   -2.7430   24.7390 C   0  0  0  0  0  0  0  0  0  0  0  0
   11.0890   -2.2900   24.2360 C   0  0  0  0  0  0  0  0  0  0  0  0
   11.7520   -3.6120   25.7980 C   0  0  0  0  0  0  0  0  0  0  0  0
   12.3330   -4.3750   26.5180 O   0  0  0  0  0  0  0  0  0  0  0  0
   10.4520   -3.4060   25.8040 N   0  0  0  0  0  0  0  0  0  0  0  0
   10.2970   -3.4940   24.4830 C   0  0  0  0  0  0  0  0  0  0  0  0
  1  2  1  0
  3  2  1  0
  3  4  2  0
  3  5  2  0
  3  6  1  0
  6  7  2  0
  6  8  1  0
  7  9  1  0
  8 10  2  0
  9 11  2  0
 10 11  1  0
 10 12  1  0
 11 13  1  0
 12 14  1  0
 13 15  1  0
 14 16  2  0
 14 17  1  0
 15 18  1  0
 16 19  1  0
 17 20  2  0
 19 21  2  0
 20 21  1  0
 20 22  1  0
 22 23  2  0
 22 24  1  0
 21 25  1  0
 24 25  1  0
M  END
