MAK-UNK-148caf23-12-nitrile
     RDKit          3D

 34 37  0  0  0  0  0  0  0  0999 V2000
    8.1190   -3.3320   19.7660 C   0  0  0  0  0  0  0  0  0  0  0  0
    7.7570   -2.7320   18.6720 N   0  0  0  0  0  0  0  0  0  0  0  0
    8.7890   -2.5850   21.1270 C   0  0  0  0  0  0  0  0  0  0  0  0
    7.8070   -2.3760   22.1950 C   0  0  0  0  0  0  0  0  0  0  0  0
   10.1250   -2.0370   21.6320 C   0  0  0  0  0  0  0  0  0  0  0  0
    8.0860   -1.7560   23.4670 C   0  0  0  0  0  0  0  0  0  0  0  0
   10.4220   -1.4080   22.9080 N   0  0  0  0  0  0  0  0  0  0  0  0
    9.4140   -1.2590   23.8370 C   0  0  0  0  0  0  0  0  0  0  0  0
    9.3110   -0.6850   25.2110 N   0  0  0  0  0  0  0  0  0  0  0  0
    8.0770    0.0030   25.4970 C   0  0  0  0  0  0  0  0  0  0  0  0
    7.4810   -0.4220   26.6860 C   0  0  0  0  0  0  0  0  0  0  0  0
    6.9040   -1.6930   26.6830 C   0  0  0  0  0  0  0  0  0  0  0  0
    7.3090    0.2070   27.9430 N   0  0  0  0  0  0  0  0  0  0  0  0
    6.8940   -2.5250   25.5380 C   0  0  0  0  0  0  0  0  0  0  0  0
    6.3380   -1.9690   28.0460 C   0  0  0  0  0  0  0  0  0  0  0  0
    6.6090   -0.7370   28.8500 C   0  0  0  0  0  0  0  0  0  0  0  0
    7.7890    1.7980   28.3910 S   0  0  0  0  0  0  0  0  0  0  0  0
    6.0450   -3.7260   25.6390 N   0  0  0  0  0  0  0  0  0  0  0  0
    6.3180   -0.3980   30.1710 C   0  0  0  0  0  0  0  0  0  0  0  0
    8.3850    2.4040   27.2360 O   0  0  0  0  0  0  0  0  0  0  0  0
    6.5930    2.3960   28.9400 O   0  0  0  0  0  0  0  0  0  0  0  0
    8.9530    1.7300   29.7340 C   0  0  0  0  0  0  0  0  0  0  0  0
    6.1970   -4.6760   24.6300 C   0  0  0  0  0  0  0  0  0  0  0  0
    7.3340   -0.2350   31.0720 C   0  0  0  0  0  0  0  0  0  0  0  0
    5.0490   -0.2160   30.6210 C   0  0  0  0  0  0  0  0  0  0  0  0
    9.6970    0.5800   29.9960 C   0  0  0  0  0  0  0  0  0  0  0  0
    9.1610    2.8220   30.5730 C   0  0  0  0  0  0  0  0  0  0  0  0
    7.2680    0.1090   32.4440 C   0  0  0  0  0  0  0  0  0  0  0  0
    4.8250    0.1250   31.9550 C   0  0  0  0  0  0  0  0  0  0  0  0
    3.9920   -0.3590   29.8050 F   0  0  0  0  0  0  0  0  0  0  0  0
   10.5980    0.5400   31.0560 C   0  0  0  0  0  0  0  0  0  0  0  0
   10.0290    2.8230   31.6140 N   0  0  0  0  0  0  0  0  0  0  0  0
    5.7840    0.3210   32.9650 C   0  0  0  0  0  0  0  0  0  0  0  0
   10.7270    1.6870   31.8390 C   0  0  0  0  0  0  0  0  0  0  0  0
  1  2  2  3
  1  3  1  0
  3  4  2  0
  3  5  1  0
  4  6  1  0
  5  7  2  0
  6  8  2  0
  7  8  1  0
  8  9  1  0
  9 10  1  0
 10 11  1  0
 11 12  2  0
 11 13  1  0
 12 14  1  0
 12 15  1  0
 13 16  1  0
 15 16  2  0
 13 17  1  0
 14 18  1  0
 16 19  1  0
 17 20  2  0
 17 21  2  0
 17 22  1  0
 18 23  1  0
 19 24  2  0
 19 25  1  0
 22 26  2  0
 22 27  1  0
 24 28  1  0
 25 29  2  0
 25 30  1  0
 26 31  1  0
 27 32  2  0
 28 33  2  0
 29 33  1  0
 31 34  2  0
 32 34  1  0
M  END
