MAK-UNK-198e6d85-16
     RDKit          3D

 21 23  0  0  0  0  0  0  0  0999 V2000
   12.4480   -4.3740   26.6500 N   0  0  0  0  0  0  0  0  0  0  0  0
   11.3100   -4.3980   25.9920 C   0  0  0  0  0  0  0  0  0  0  0  0
   10.4730   -4.0870   24.8500 C   0  0  1  0  0  0  0  0  0  0  0  0
    9.2870   -4.0450   24.8600 O   0  0  0  0  0  0  0  0  0  0  0  0
   11.1500   -2.8440   24.4500 C   0  0  0  0  0  0  0  0  0  0  0  0
    8.9960   -3.6510   23.6180 C   0  0  1  0  0  0  0  0  0  0  0  0
   10.4360   -1.8240   23.8510 C   0  0  0  0  0  0  0  0  0  0  0  0
   12.6410   -2.7270   24.7260 C   0  0  0  0  0  0  0  0  0  0  0  0
    7.7970   -4.2910   22.9560 C   0  0  2  0  0  0  0  0  0  0  0  0
    9.1120   -2.1450   23.6580 C   0  0  0  0  0  0  0  0  0  0  0  0
   13.2110   -1.4010   24.2790 C   0  0  0  0  0  0  0  0  0  0  0  0
   11.0070   -0.5950   23.4660 C   0  0  0  0  0  0  0  0  0  0  0  0
    7.0680   -3.2290   22.1510 C   0  0  0  0  0  0  0  0  0  0  0  0
    7.1310   -5.2270   23.7510 C   0  0  2  0  0  0  0  0  0  0  0  0
   12.3640   -0.3500   23.6610 C   0  0  0  0  0  0  0  0  0  0  0  0
   10.2960    0.4210   22.8800 O   0  0  0  0  0  0  0  0  0  0  0  0
    6.2010   -4.4160   21.6840 C   0  0  0  0  0  0  0  0  0  0  0  0
    6.7560   -6.2600   22.9580 C   0  0  0  0  0  0  0  0  0  0  0  0
    6.0000   -4.6060   24.3740 O   0  0  0  0  0  0  0  0  0  0  0  0
   12.8970    0.8420   23.2720 O   0  0  0  0  0  0  0  0  0  0  0  0
    6.6070   -5.7500   21.7120 C   0  0  0  0  0  0  0  0  0  0  0  0
  1  2  1  0
  3  2  1  1
  3  4  1  0
  3  5  1  0
  4  6  1  0
  5  7  2  0
  5  8  1  0
  6  9  1  0
  6 10  1  1
  7 10  1  0
  8 11  2  0
  7 12  1  0
  9 13  1  1
  9 14  1  0
 11 15  1  0
 12 15  2  0
 12 16  1  0
 13 17  1  0
 14 18  1  0
 14 19  1  6
 15 20  1  0
 17 21  1  0
 18 21  1  0
M  END
