MAK-UNK-bdda130a-5
     RDKit          3D

 23 26  0  0  0  0  0  0  0  0999 V2000
    4.0730   -6.5800   26.0370 C   0  0  0  0  0  0  0  0  0  0  0  0
    4.1510   -4.9380   25.3550 S   0  0  0  0  0  0  0  0  0  0  0  0
    4.9810   -3.9220   24.2980 C   0  0  0  0  0  0  0  0  0  0  0  0
    3.1450   -3.6170   25.6540 C   0  0  0  0  0  0  0  0  0  0  0  0
    5.4640   -5.4360   24.4230 N   0  0  0  0  0  0  0  0  0  0  0  0
    1.7990   -3.6280   25.4310 C   0  0  0  0  0  0  0  0  0  0  0  0
    3.5810   -2.3990   26.1320 C   0  0  0  0  0  0  0  0  0  0  0  0
    5.1920   -6.4890   23.4100 C   0  0  0  0  0  0  0  0  0  0  0  0
    6.6070   -4.5680   23.8770 C   0  0  1  0  0  0  0  0  0  0  0  0
    1.1760   -2.4540   25.7240 C   0  0  0  0  0  0  0  0  0  0  0  0
    2.2820   -1.2840   26.2920 S   0  0  0  0  0  0  0  0  0  0  0  0
    5.0100   -6.0280   22.1350 C   0  0  0  0  0  0  0  0  0  0  0  0
    7.0610   -4.9890   22.6250 C   0  0  0  0  0  0  0  0  0  0  0  0
    6.3910   -3.0270   23.8180 C   0  0  0  0  0  0  0  0  0  0  0  0
    6.0690   -5.1400   21.6810 N   0  0  0  0  0  0  0  0  0  0  0  0
    6.6010   -2.1860   25.0960 C   0  0  0  0  0  0  0  0  0  0  0  0
    6.0130   -2.3660   22.6190 C   0  0  0  0  0  0  0  0  0  0  0  0
    6.3830   -0.6910   24.9580 C   0  0  0  0  0  0  0  0  0  0  0  0
    5.8700   -0.9500   22.7510 C   0  0  0  0  0  0  0  0  0  0  0  0
    5.7760   -2.8740   21.3860 N   0  0  0  0  0  0  0  0  0  0  0  0
    5.6870   -4.1250   20.8840 C   0  0  0  0  0  0  0  0  0  0  0  0
    6.0290   -0.1010   23.8150 N   0  0  0  0  0  0  0  0  0  0  0  0
    5.2670   -4.3140   19.7420 O   0  0  0  0  0  0  0  0  0  0  0  0
  1  2  2  0
  2  3  2  0
  2  4  1  0
  2  5  1  0
  4  6  1  0
  4  7  2  0
  5  8  1  0
  9  5  1  6
  6 10  2  0
  7 11  1  0
 10 11  1  0
  8 12  1  0
  9 13  1  0
  9 14  1  0
 12 15  1  0
 13 15  1  0
 14 16  1  0
 14 17  2  0
 16 18  2  0
 17 19  1  0
 17 20  1  0
 15 21  1  0
 20 21  1  0
 18 22  1  0
 19 22  2  0
 21 23  2  0
M  END
