MAK-UNK-cd94b63c-1-nitrile
     RDKit          3D

 22 23  0  0  0  0  0  0  0  0999 V2000
    7.0370   -3.3070   19.4680 C   0  0  0  0  0  0  0  0  0  0  0  0
    6.2760   -3.0570   18.4800 N   0  0  0  0  0  0  0  0  0  0  0  0
    6.8530   -2.7050   20.6880 N   0  0  0  0  0  0  0  0  0  0  0  0
    7.4040   -1.3810   20.9210 C   0  0  0  0  0  0  0  0  0  0  0  0
    6.5620   -3.3990   21.9500 C   0  0  0  0  0  0  0  0  0  0  0  0
    8.5680   -1.5190   21.8890 C   0  0  0  0  0  0  0  0  0  0  0  0
    7.7080   -3.5780   22.7310 C   0  0  0  0  0  0  0  0  0  0  0  0
    8.3190   -2.3930   23.0520 N   0  0  0  0  0  0  0  0  0  0  0  0
    9.5600   -2.6150   23.7800 C   0  0  0  0  0  0  0  0  0  0  0  0
   10.5340   -1.4500   23.6150 C   0  0  0  0  0  0  0  0  0  0  0  0
   11.9560   -1.7180   23.1690 C   0  0  0  0  0  0  0  0  0  0  0  0
   10.1800   -0.0840   23.8530 C   0  0  0  0  0  0  0  0  0  0  0  0
   12.8440   -0.6500   23.0090 C   0  0  0  0  0  0  0  0  0  0  0  0
   11.1270    0.9470   23.6660 C   0  0  0  0  0  0  0  0  0  0  0  0
   12.4360    0.6700   23.2540 C   0  0  0  0  0  0  0  0  0  0  0  0
   10.7050    2.2540   23.8970 C   0  0  0  0  0  0  0  0  0  0  0  0
   11.5590    3.2810   23.6480 O   0  0  0  0  0  0  0  0  0  0  0  0
    9.1100    2.6300   24.4450 S   0  0  0  0  0  0  0  0  0  0  0  0
    8.4720    3.5980   23.0390 C   0  0  0  0  0  0  0  0  0  0  0  0
    7.1340    4.3640   23.2120 C   0  0  0  0  0  0  0  0  0  0  0  0
    6.0770    3.4690   23.0950 N   0  0  0  0  0  0  0  0  0  0  0  0
    6.0820    2.0850   23.5880 C   0  0  0  0  0  0  0  0  0  0  0  0
  1  2  2  3
  1  3  1  0
  3  4  1  0
  3  5  1  0
  4  6  1  0
  5  7  1  0
  6  8  1  0
  7  8  1  0
  8  9  1  0
  9 10  1  0
 10 11  2  0
 10 12  1  0
 11 13  1  0
 12 14  2  0
 13 15  2  0
 14 15  1  0
 14 16  1  0
 16 17  2  0
 16 18  1  0
 18 19  1  0
 19 20  1  0
 20 21  1  0
 21 22  1  0
M  END
