MAK-UNK-e4a48a85-23-vinylsulfonamide
     RDKit          3D

 25 27  0  0  0  0  0  0  0  0999 V2000
    7.7790   -4.2730   20.3950 C   0  0  0  0  0  0  0  0  0  0  0  0
    7.0150   -3.2320   19.6850 C   0  0  0  0  0  0  0  0  0  0  0  0
    5.4970   -3.2670   20.5380 S   0  0  0  0  0  0  0  0  0  0  0  0
    4.4860   -3.1030   19.5510 O   0  0  0  0  0  0  0  0  0  0  0  0
    5.4370   -4.4040   21.4300 O   0  0  0  0  0  0  0  0  0  0  0  0
    5.7380   -1.9350   21.4820 N   0  0  0  0  0  0  0  0  0  0  0  0
    6.8880   -1.0750   21.1090 C   0  0  0  0  0  0  0  0  0  0  0  0
    5.7110   -2.2440   22.9250 C   0  0  0  0  0  0  0  0  0  0  0  0
    8.1690   -1.5010   21.8530 C   0  0  0  0  0  0  0  0  0  0  0  0
    6.9320   -3.0900   23.3250 C   0  0  0  0  0  0  0  0  0  0  0  0
    8.1570   -2.8080   22.5670 N   0  0  0  0  0  0  0  0  0  0  0  0
    9.3390   -2.9300   23.4380 C   0  0  0  0  0  0  0  0  0  0  0  0
   10.1360   -1.6560   23.4850 C   0  0  0  0  0  0  0  0  0  0  0  0
    9.6080   -0.6150   22.8570 N   0  0  0  0  0  0  0  0  0  0  0  0
   11.2890   -1.6530   24.1330 N   0  0  0  0  0  0  0  0  0  0  0  0
   10.2910    0.5050   22.8880 C   0  0  0  0  0  0  0  0  0  0  0  0
   11.9720   -0.5120   24.1650 C   0  0  0  0  0  0  0  0  0  0  0  0
   11.4730    0.6470   23.5160 C   0  0  0  0  0  0  0  0  0  0  0  0
   13.1290   -0.6640   24.8750 N   0  0  0  0  0  0  0  0  0  0  0  0
   11.8300    1.9990   23.2960 C   0  0  0  0  0  0  0  0  0  0  0  0
   13.4530   -2.0790   25.0570 C   0  0  0  0  0  0  0  0  0  0  0  0
   13.0340    2.2860   22.7920 C   0  0  0  0  0  0  0  0  0  0  0  0
   11.0390    3.1030   23.5260 C   0  0  0  0  0  0  0  0  0  0  0  0
   13.2070    3.6480   22.6100 C   0  0  0  0  0  0  0  0  0  0  0  0
   11.8360    4.5460   23.0920 S   0  0  0  0  0  0  0  0  0  0  0  0
  1  2  1  0
  3  2  1  0
  3  4  2  0
  3  5  2  0
  3  6  1  0
  6  7  1  0
  6  8  1  0
  7  9  1  0
  8 10  1  0
  9 11  1  0
 10 11  1  0
 11 12  1  0
 12 13  1  0
 13 14  2  0
 13 15  1  0
 14 16  1  0
 15 17  2  0
 16 18  2  0
 17 18  1  0
 17 19  1  0
 18 20  1  0
 19 21  1  0
 20 22  1  0
 20 23  2  0
 22 24  2  0
 23 25  1  0
 24 25  1  0
M  END
