MAK-UNK-8fdbca50-25-nitrile
     RDKit          3D

 38 41  0  0  0  0  0  0  0  0999 V2000
    8.3120   -3.4440   19.4800 C   0  0  0  0  0  0  0  0  0  0  0  0
    7.4680   -3.0480   18.5490 N   0  0  0  0  0  0  0  0  0  0  0  0
    8.0780   -3.1220   20.7850 N   0  0  0  0  0  0  0  0  0  0  0  0
    6.7080   -2.6720   21.1720 C   0  0  0  0  0  0  0  0  0  0  0  0
    9.1940   -2.5920   21.5800 C   0  0  0  0  0  0  0  0  0  0  0  0
    6.6440   -1.2110   21.6930 C   0  0  0  0  0  0  0  0  0  0  0  0
    9.0380   -1.2290   21.6520 C   0  0  0  0  0  0  0  0  0  0  0  0
    7.8520   -0.9380   22.5410 C   0  0  0  0  0  0  0  0  0  0  0  0
    8.0860    0.3020   23.1530 C   0  0  0  0  0  0  0  0  0  0  0  0
    7.5470    1.3440   22.7890 O   0  0  0  0  0  0  0  0  0  0  0  0
    9.0730    0.1250   24.2830 N   0  0  0  0  0  0  0  0  0  0  0  0
   10.3920   -0.4230   23.8620 C   0  0  0  0  0  0  0  0  0  0  0  0
    8.6690   -0.1230   25.6610 C   0  0  0  0  0  0  0  0  0  0  0  0
   11.1900    0.4370   23.2150 N   0  0  0  0  0  0  0  0  0  0  0  0
   10.7730   -1.8080   24.1410 C   0  0  0  0  0  0  0  0  0  0  0  0
    8.3900    1.0340   26.3700 C   0  0  0  0  0  0  0  0  0  0  0  0
    7.3860   -0.9560   25.6500 C   0  0  0  0  0  0  0  0  0  0  0  0
   12.4050    0.0480   22.7790 C   0  0  0  0  0  0  0  0  0  0  0  0
   12.0170   -2.2520   23.6980 C   0  0  0  0  0  0  0  0  0  0  0  0
    9.8200   -3.1460   25.0720 S   0  0  0  0  0  0  0  0  0  0  0  0
   12.8170   -1.3530   23.0310 C   0  0  0  0  0  0  0  0  0  0  0  0
   10.7940   -4.1240   25.5180 O   0  0  0  0  0  0  0  0  0  0  0  0
    9.1280   -2.3990   26.0230 O   0  0  0  0  0  0  0  0  0  0  0  0
    8.4670   -3.9250   24.4790 N   0  0  0  0  0  0  0  0  0  0  0  0
    8.3430   -4.4440   23.2610 C   0  0  0  0  0  0  0  0  0  0  0  0
    7.3140   -4.1570   25.1460 C   0  0  0  0  0  0  0  0  0  0  0  0
    7.1000   -5.0320   23.1090 C   0  0  0  0  0  0  0  0  0  0  0  0
    6.4480   -4.8380   24.3110 C   0  0  0  0  0  0  0  0  0  0  0  0
    6.8420   -3.8950   26.4000 C   0  0  0  0  0  0  0  0  0  0  0  0
    6.6390   -5.7180   21.9030 C   0  0  0  0  0  0  0  0  0  0  0  0
    7.3550   -4.6890   27.4300 C   0  0  0  0  0  0  0  0  0  0  0  0
    5.8790   -2.9110   26.6820 C   0  0  0  0  0  0  0  0  0  0  0  0
    7.3610   -6.8600   22.0500 N   0  0  0  0  0  0  0  0  0  0  0  0
    6.9050   -4.4960   28.7270 C   0  0  0  0  0  0  0  0  0  0  0  0
    5.4430   -2.7260   27.9860 C   0  0  0  0  0  0  0  0  0  0  0  0
    5.3550   -2.1380   25.7160 F   0  0  0  0  0  0  0  0  0  0  0  0
    8.6270   -6.8400   22.7950 C   0  0  0  0  0  0  0  0  0  0  0  0
    5.9550   -3.5180   29.0080 C   0  0  0  0  0  0  0  0  0  0  0  0
  1  2  2  3
  1  3  1  0
  3  4  1  0
  3  5  1  0
  4  6  1  0
  5  7  1  0
  6  8  1  0
  7  8  1  0
  8  9  1  0
  9 10  2  0
  9 11  1  0
 11 12  1  0
 11 13  1  0
 12 14  2  0
 12 15  1  0
 13 16  1  0
 13 17  1  0
 14 18  1  0
 15 19  2  0
 20 15  1  0
 18 21  2  0
 19 21  1  0
 20 22  2  0
 20 23  2  0
 20 24  1  0
 24 25  1  0
 24 26  1  0
 25 27  2  0
 26 28  2  0
 27 28  1  0
 26 29  1  0
 27 30  1  0
 29 31  2  0
 29 32  1  0
 30 33  1  0
 31 34  1  0
 32 35  2  0
 32 36  1  0
 33 37  1  0
 34 38  2  0
 35 38  1  0
M  END
