MAK-UNK-849bee6c-3-chloroacetamide
     RDKit          3D

 25 27  0  0  0  0  0  0  0  0999 V2000
    7.2160   -2.9940   18.8100 C   0  0  0  0  0  0  0  0  0  0  0  0
    6.2050   -3.2710   19.8880 C   0  0  0  0  0  0  0  0  0  0  0  0
    5.3660   -4.1710   19.7640 O   0  0  0  0  0  0  0  0  0  0  0  0
    6.2850   -2.4590   21.0390 N   0  0  0  0  0  0  0  0  0  0  0  0
    7.1670   -1.3070   20.9560 C   0  0  0  0  0  0  0  0  0  0  0  0
    6.1380   -3.0550   22.3690 C   0  0  0  0  0  0  0  0  0  0  0  0
    8.4970   -1.5640   21.6750 C   0  0  0  0  0  0  0  0  0  0  0  0
    7.3880   -3.2860   22.9760 C   0  0  0  0  0  0  0  0  0  0  0  0
    8.2670   -2.0930   23.0120 N   0  0  0  0  0  0  0  0  0  0  0  0
    9.3270   -2.2190   23.9780 C   0  0  0  0  0  0  0  0  0  0  0  0
   10.5020   -1.3070   23.6680 C   0  0  0  0  0  0  0  0  0  0  0  0
   11.7170   -1.8640   22.9980 C   0  0  0  0  0  0  0  0  0  0  0  0
   10.4650    0.0660   23.9950 C   0  0  0  0  0  0  0  0  0  0  0  0
   12.7690   -0.8870   22.7480 C   0  0  0  0  0  0  0  0  0  0  0  0
   11.4820    1.0480   23.7570 C   0  0  0  0  0  0  0  0  0  0  0  0
   12.6040    0.4530   23.1220 C   0  0  0  0  0  0  0  0  0  0  0  0
   10.9060    1.9510   24.2180 N   0  0  0  0  0  0  0  0  0  0  0  0
    9.7860    2.5050   23.4370 C   0  0  0  0  0  0  0  0  0  0  0  0
    9.1240    1.7610   22.3730 C   0  0  0  0  0  0  0  0  0  0  0  0
    9.3320    3.7510   23.7000 N   0  0  0  0  0  0  0  0  0  0  0  0
    8.0700    2.2860   21.6610 C   0  0  0  0  0  0  0  0  0  0  0  0
    8.2920    4.2530   22.9830 C   0  0  0  0  0  0  0  0  0  0  0  0
    7.6020    3.6350   21.9840 N   0  0  0  0  0  0  0  0  0  0  0  0
    7.8700    5.5860   23.3190 C   0  0  0  0  0  0  0  0  0  0  0  0
    7.4840    6.8700   23.6550 N   0  0  0  0  0  0  0  0  0  0  0  0
  1  2  1  0
  2  3  2  0
  2  4  1  0
  4  5  1  0
  4  6  1  0
  5  7  1  0
  6  8  1  0
  7  9  1  0
  8  9  1  0
  9 10  1  0
 10 11  1  0
 11 12  2  0
 11 13  1  0
 12 14  1  0
 13 15  2  0
 14 16  2  0
 15 16  1  0
 15 17  1  0
 17 18  1  0
 18 19  2  0
 18 20  1  0
 19 21  1  0
 20 22  2  0
 21 23  2  0
 22 23  1  0
 22 24  1  0
 24 25  3  0
M  END
