MAK-UNK-0955449e-32
     RDKit          3D

 30 33  0  0  0  0  0  0  0  0999 V2000
    5.5360   -0.1630   18.4620 C   0  0  0  0  0  0  0  0  0  0  0  0
    6.2290   -1.2480   18.9870 N   0  0  0  0  0  0  0  0  0  0  0  0
    5.8610   -2.5430   18.6760 C   0  0  0  0  0  0  0  0  0  0  0  0
    6.1210   -3.3990   19.8840 C   0  0  0  0  0  0  0  0  0  0  0  0
    7.1620   -3.1050   20.7900 C   0  0  0  0  0  0  0  0  0  0  0  0
    5.4470   -4.6030   20.3670 C   0  0  0  0  0  0  0  0  0  0  0  0
    7.0180   -4.1170   21.7710 C   0  0  0  0  0  0  0  0  0  0  0  0
    5.9810   -5.0400   21.5930 N   0  0  0  0  0  0  0  0  0  0  0  0
    8.1100   -3.5350   22.3980 C   0  0  0  0  0  0  0  0  0  0  0  0
    5.6300   -6.2950   22.6800 S   0  0  0  0  0  0  0  0  0  0  0  0
    8.4850   -2.2460   22.0990 C   0  0  0  0  0  0  0  0  0  0  0  0
    8.7480   -4.4010   23.2870 C   0  0  0  0  0  0  0  0  0  0  0  0
    6.7070   -7.2540   22.6580 O   0  0  0  0  0  0  0  0  0  0  0  0
    4.2750   -6.6470   22.3380 O   0  0  0  0  0  0  0  0  0  0  0  0
    5.4880   -5.5560   24.2810 C   0  0  0  0  0  0  0  0  0  0  0  0
    9.7110   -1.7230   22.7570 C   0  0  0  0  0  0  0  0  0  0  0  0
    9.8760   -3.9410   23.9000 C   0  0  0  0  0  0  0  0  0  0  0  0
    8.3170   -5.6930   23.5610 C   0  0  0  0  0  0  0  0  0  0  0  0
    4.9110   -6.2660   25.3360 C   0  0  0  0  0  0  0  0  0  0  0  0
    5.9290   -4.2830   24.5240 C   0  0  0  0  0  0  0  0  0  0  0  0
   10.3600   -2.6770   23.6470 C   0  0  0  0  0  0  0  0  0  0  0  0
    4.6640   -5.8740   26.8130 C   0  0  0  0  0  0  0  0  0  0  0  0
    5.8290   -3.7080   25.7120 N   0  0  0  0  0  0  0  0  0  0  0  0
   11.4710   -2.4700   24.2620 C   0  0  0  0  0  0  0  0  0  0  0  0
    5.2780   -4.3940   26.7220 C   0  0  0  0  0  0  0  0  0  0  0  0
   12.1150   -1.3270   24.0110 C   0  0  0  0  0  0  0  0  0  0  0  0
   11.9480   -3.4500   25.0970 C   0  0  0  0  0  0  0  0  0  0  0  0
   13.2820   -1.1540   24.6020 C   0  0  0  0  0  0  0  0  0  0  0  0
   13.1440   -3.3590   25.7390 C   0  0  0  0  0  0  0  0  0  0  0  0
   13.8810   -2.2570   25.5590 C   0  0  0  0  0  0  0  0  0  0  0  0
  1  2  1  0
  2  3  1  0
  3  4  1  0
  4  5  1  0
  4  6  2  0
  5  7  2  0
  6  8  1  0
  7  8  1  0
  7  9  1  0
  8 10  1  0
  9 11  2  0
  9 12  1  0
 10 13  2  0
 10 14  2  0
 10 15  1  0
 11 16  1  0
 12 17  2  0
 12 18  1  0
 15 19  2  0
 15 20  1  0
 16 21  2  0
 17 21  1  0
 19 22  1  0
 20 23  2  0
 21 24  1  0
 22 25  2  0
 23 25  1  0
 24 26  2  0
 24 27  1  0
 26 28  1  0
 27 29  2  0
 28 30  2  0
 29 30  1  0
M  END
