MAK-UNK-10799360-32-acrylamide
     RDKit          3D

 33 37  0  0  0  0  0  0  0  0999 V2000
    7.2650   -3.3440   19.4180 C   0  0  0  0  0  0  0  0  0  0  0  0
    6.3330   -4.1350   20.3850 C   0  0  0  0  0  0  0  0  0  0  0  0
    5.8090   -3.3050   21.5470 C   0  0  0  0  0  0  0  0  0  0  0  0
    4.6330   -3.2940   21.8630 O   0  0  0  0  0  0  0  0  0  0  0  0
    6.6980   -2.5950   22.2740 N   0  0  0  0  0  0  0  0  0  0  0  0
    7.6760   -1.7580   21.6000 C   0  0  0  0  0  0  0  0  0  0  0  0
    7.4820   -3.1460   23.3740 C   0  0  1  0  0  0  0  0  0  0  0  0
    8.9130   -2.6190   21.8460 C   0  0  2  0  0  0  0  0  0  0  0  0
    8.4150   -3.9400   22.4950 C   0  0  0  0  0  0  0  0  0  0  0  0
    8.4330   -2.0950   23.9760 C   0  0  0  0  0  0  0  0  0  0  0  0
    9.5380   -2.0780   23.0030 N   0  0  0  0  0  0  0  0  0  0  0  0
   10.7780   -2.7840   23.2350 C   0  0  0  0  0  0  0  0  0  0  0  0
   11.7640   -1.8810   22.8890 C   0  0  0  0  0  0  0  0  0  0  0  0
   12.0540   -1.0130   23.8870 C   0  0  0  0  0  0  0  0  0  0  0  0
   12.4410   -1.7990   21.6130 C   0  0  0  0  0  0  0  0  0  0  0  0
   12.9810   -0.0910   23.6190 C   0  0  0  0  0  0  0  0  0  0  0  0
   13.4330   -0.8030   21.3600 C   0  0  0  0  0  0  0  0  0  0  0  0
   13.6350    0.0130   22.4400 C   0  0  0  0  0  0  0  0  0  0  0  0
   14.1020   -0.7090   20.0460 N   0  0  0  0  0  0  0  0  0  0  0  0
   14.9650    0.3210   19.3230 C   0  0  0  0  0  0  0  0  0  0  0  0
   14.8230    1.5370   19.3020 O   0  0  0  0  0  0  0  0  0  0  0  0
   16.1560   -0.2460   18.6170 C   0  0  0  0  0  0  0  0  0  0  0  0
   17.5340    0.2660   18.4730 C   0  0  0  0  0  0  0  0  0  0  0  0
   16.1970   -1.6630   17.7930 S   0  0  0  0  0  0  0  0  0  0  0  0
   18.4670   -0.5040   17.8330 N   0  0  0  0  0  0  0  0  0  0  0  0
   17.8020   -1.5360   17.4060 C   0  0  0  0  0  0  0  0  0  0  0  0
   17.9880   -2.5700   16.5770 C   0  0  0  0  0  0  0  0  0  0  0  0
   17.1770   -1.4620   16.4880 C   0  0  0  0  0  0  0  0  0  0  0  0
   16.3050   -1.3920   17.5410 C   0  0  0  0  0  0  0  0  0  0  0  0
   17.1700   -0.4230   15.6330 C   0  0  0  0  0  0  0  0  0  0  0  0
   15.4770   -0.3010   17.7500 C   0  0  0  0  0  0  0  0  0  0  0  0
   16.3930    0.6390   15.8170 C   0  0  0  0  0  0  0  0  0  0  0  0
   15.5270    0.7290   16.8860 C   0  0  0  0  0  0  0  0  0  0  0  0
  1  2  1  0
  2  3  1  0
  3  4  2  0
  3  5  1  0
  5  6  1  0
  5  7  1  0
  8  6  1  1
  7  9  1  0
  8  9  1  0
  7 10  1  6
  8 11  1  0
 10 11  1  0
 11 12  1  0
 12 13  1  0
 13 14  2  0
 13 15  1  0
 14 16  1  0
 15 17  2  0
 16 18  2  0
 17 18  1  0
 17 19  1  0
 19 20  1  0
 20 21  2  0
 20 22  1  0
 22 23  2  0
 22 24  1  0
 23 25  1  0
 24 26  1  0
 25 26  2  0
 26 27  1  0
 27 28  1  0
 28 29  2  0
 28 30  1  0
 29 31  1  0
 30 32  2  0
 31 33  2  0
 32 33  1  0
M  END
