MAK-UNK-942dcb71-1-bromoalkyne
     RDKit          3D

 18 19  0  0  0  0  0  0  0  0999 V2000
    6.5120   -4.5890   20.5240 C   0  0  0  0  0  0  0  0  0  0  0  0
    5.9350   -3.5190   19.6230 C   0  0  0  0  0  0  0  0  0  0  0  0
    6.4010   -4.5540   21.9690 N   0  0  0  0  0  0  0  0  0  0  0  0
    7.5620   -4.2930   22.7880 C   0  0  0  0  0  0  0  0  0  0  0  0
    5.5430   -5.2810   22.9690 C   0  0  2  0  0  0  0  0  0  0  0  0
    7.9400   -5.3870   23.5710 C   0  0  0  0  0  0  0  0  0  0  0  0
    8.2620   -3.1010   22.8160 C   0  0  0  0  0  0  0  0  0  0  0  0
    4.5080   -6.0480   22.4810 C   0  0  0  0  0  0  0  0  0  0  0  0
    5.0620   -4.4650   24.1430 N   0  0  0  0  0  0  0  0  0  0  0  0
    9.0710   -5.2520   24.3740 C   0  0  0  0  0  0  0  0  0  0  0  0
    9.3890   -2.9760   23.6130 C   0  0  0  0  0  0  0  0  0  0  0  0
    3.7410   -6.7070   23.9430 S   0  0  0  0  0  0  0  0  0  0  0  0
    4.0720   -5.1930   24.7520 C   0  0  0  0  0  0  0  0  0  0  0  0
    9.8110   -4.0480   24.3800 C   0  0  0  0  0  0  0  0  0  0  0  0
   10.0980   -1.7830   23.6230 C   0  0  0  0  0  0  0  0  0  0  0  0
    2.3100   -6.7830   23.7850 O   0  0  0  0  0  0  0  0  0  0  0  0
    4.5090   -7.7450   24.5810 O   0  0  0  0  0  0  0  0  0  0  0  0
   11.0640   -3.8730   25.1690 C   0  0  0  0  0  0  0  0  0  0  0  0
  1  2  2  3
  1  3  1  0
  3  4  1  0
  5  3  1  6
  4  6  2  0
  4  7  1  0
  5  8  1  0
  5  9  1  0
  6 10  1  0
  7 11  2  0
  8 12  1  0
  9 13  2  0
 12 13  1  0
 10 14  2  0
 11 14  1  0
 11 15  1  0
 12 16  2  0
 12 17  2  0
 14 18  1  0
M  END
