MAK-UNK-3e0761f8-4-bromoalkyne
     RDKit          3D

 23 25  0  0  0  0  0  0  0  0999 V2000
    6.9520   -3.6080   19.8330 C   0  0  0  0  0  0  0  0  0  0  0  0
    6.2170   -2.8810   18.7260 C   0  0  0  0  0  0  0  0  0  0  0  0
    6.7170   -3.2050   21.1270 N   0  0  0  0  0  0  0  0  0  0  0  0
    6.8290   -1.7620   21.4370 C   0  0  0  0  0  0  0  0  0  0  0  0
    7.4520   -3.7270   22.2510 C   0  0  1  0  0  0  0  0  0  0  0  0
    8.2250   -1.6900   22.1680 C   0  0  2  0  0  0  0  0  0  0  0  0
    8.7860   -3.0830   21.8540 C   0  0  0  0  0  0  0  0  0  0  0  0
    7.0250   -2.9860   23.5380 C   0  0  0  0  0  0  0  0  0  0  0  0
    8.0740   -1.9570   23.5990 N   0  0  0  0  0  0  0  0  0  0  0  0
    9.3260   -2.4740   24.1640 C   0  0  2  0  0  0  0  0  0  0  0  0
    9.2560   -2.8570   25.6230 C   0  0  0  0  0  0  0  0  0  0  0  0
   10.4970   -1.5560   23.8210 C   0  0  0  0  0  0  0  0  0  0  0  0
    9.0180   -4.0910   26.0050 N   0  0  0  0  0  0  0  0  0  0  0  0
   10.7900   -0.3420   24.4510 C   0  0  0  0  0  0  0  0  0  0  0  0
   11.3410   -1.9290   22.7980 C   0  0  0  0  0  0  0  0  0  0  0  0
    7.9660   -4.4710   27.2380 S   0  0  0  0  0  0  0  0  0  0  0  0
   11.8810    0.4510   24.0600 C   0  0  0  0  0  0  0  0  0  0  0  0
   12.4090   -1.1770   22.3950 C   0  0  0  0  0  0  0  0  0  0  0  0
    8.8010   -5.8690   27.9080 C   0  0  0  0  0  0  0  0  0  0  0  0
    6.7360   -4.9150   26.6180 O   0  0  0  0  0  0  0  0  0  0  0  0
    8.0030   -3.4190   28.2260 O   0  0  0  0  0  0  0  0  0  0  0  0
   12.7120    0.0300   23.0150 C   0  0  0  0  0  0  0  0  0  0  0  0
   13.2410   -1.7130   21.2370 C   0  0  0  0  0  0  0  0  0  0  0  0
  1  2  2  3
  1  3  1  0
  3  4  1  0
  3  5  1  0
  6  4  1  6
  5  7  1  0
  6  7  1  0
  5  8  1  1
  6  9  1  0
  8  9  1  0
  9 10  1  0
 10 11  1  1
 10 12  1  0
 11 13  1  0
 12 14  2  0
 12 15  1  0
 16 13  1  0
 14 17  1  0
 15 18  2  0
 16 19  1  0
 16 20  2  0
 16 21  2  0
 17 22  2  0
 18 22  1  0
 18 23  1  0
M  END
