MAK-UNK-f983951f-23-chloroacetamide
     RDKit          3D

 13 13  0  0  0  0  0  0  0  0999 V2000
    7.6860   -3.7780   20.5760 C   0  0  0  0  0  0  0  0  0  0  0  0
    6.2850   -4.3290   20.7530 C   0  0  0  0  0  0  0  0  0  0  0  0
    5.4570   -4.5120   19.8800 O   0  0  0  0  0  0  0  0  0  0  0  0
    5.9980   -4.5990   22.0480 N   0  0  0  0  0  0  0  0  0  0  0  0
    5.9340   -3.4770   22.9810 C   0  0  0  0  0  0  0  0  0  0  0  0
    4.9050   -3.7630   24.0820 C   0  0  0  0  0  0  0  0  0  0  0  0
    3.8980   -2.6060   24.4770 C   0  0  0  0  0  0  0  0  0  0  0  0
    4.8980   -5.0190   24.6790 C   0  0  0  0  0  0  0  0  0  0  0  0
    2.9250   -2.9580   25.5620 C   0  0  0  0  0  0  0  0  0  0  0  0
    3.9940   -5.3210   25.6850 C   0  0  0  0  0  0  0  0  0  0  0  0
    3.0660   -4.3630   26.0970 C   0  0  0  0  0  0  0  0  0  0  0  0
    1.9850   -4.4940   27.1510 C   0  0  0  0  0  0  0  0  0  0  0  0
    1.1620   -4.5950   27.9640 N   0  0  0  0  0  0  0  0  0  0  0  0
  1  2  1  0
  2  3  2  0
  2  4  1  0
  4  5  1  0
  5  6  1  0
  6  7  2  0
  6  8  1  0
  7  9  1  0
  8 10  2  0
  9 11  2  0
 10 11  1  0
 11 12  1  0
 12 13  3  0
M  END
