MAK-UNK-212f693e-24-chloroacetamide
     RDKit          3D

 15 16  0  0  0  0  0  0  0  0999 V2000
    7.3170   -3.4150   19.9400 C   0  0  0  0  0  0  0  0  0  0  0  0
    6.3070   -4.4250   20.4980 C   0  0  0  0  0  0  0  0  0  0  0  0
    5.2650   -4.6550   19.9170 O   0  0  0  0  0  0  0  0  0  0  0  0
    6.5300   -5.1320   21.6930 N   0  0  0  0  0  0  0  0  0  0  0  0
    7.3660   -4.5520   22.7380 C   0  0  0  0  0  0  0  0  0  0  0  0
    5.7070   -6.1570   22.1160 C   0  0  0  0  0  0  0  0  0  0  0  0
    6.5450   -4.3270   24.0200 C   0  0  0  0  0  0  0  0  0  0  0  0
    4.7540   -5.7510   23.0610 C   0  0  0  0  0  0  0  0  0  0  0  0
    5.0940   -4.6510   23.8470 C   0  0  0  0  0  0  0  0  0  0  0  0
    4.4940   -4.7980   25.1630 O   0  0  0  0  0  0  0  0  0  0  0  0
    3.5100   -3.8660   25.3920 C   0  0  0  0  0  0  0  0  0  0  0  0
    3.7540   -2.5560   25.7420 C   0  0  0  0  0  0  0  0  0  0  0  0
    2.1240   -4.1160   25.3000 C   0  0  0  0  0  0  0  0  0  0  0  0
    2.4880   -1.7370   25.9360 C   0  0  0  0  0  0  0  0  0  0  0  0
    1.0850   -2.7450   25.6450 S   0  0  0  0  0  0  0  0  0  0  0  0
  1  2  1  0
  2  3  2  0
  2  4  1  0
  4  5  1  0
  4  6  1  0
  5  7  1  0
  6  8  1  0
  7  9  1  0
  8  9  1  0
  9 10  1  0
 10 11  1  0
 11 12  1  0
 11 13  2  0
 12 14  2  0
 13 15  1  0
 14 15  1  0
M  END
