MAK-UNK-10dfa458-34
     RDKit          3D

 21 23  0  0  0  0  0  0  0  0999 V2000
    0.8740   -9.4260   24.5350 C   0  0  0  0  0  0  0  0  0  0  0  0
    0.7100   -8.4150   23.6710 C   0  0  2  0  0  0  0  0  0  0  0  0
    0.3520   -8.6360   22.2070 C   0  0  0  0  0  0  0  0  0  0  0  0
    1.8660   -7.4420   23.8240 C   0  0  0  0  0  0  0  0  0  0  0  0
    1.0770   -8.2750   21.2850 O   0  0  0  0  0  0  0  0  0  0  0  0
   -0.8230   -9.2590   22.0010 O   0  0  0  0  0  0  0  0  0  0  0  0
    1.8950   -6.7720   25.1950 C   0  0  0  0  0  0  0  0  0  0  0  0
    2.8510   -7.1530   22.8080 C   0  0  0  0  0  0  0  0  0  0  0  0
    2.9630   -5.8380   25.4070 C   0  0  0  0  0  0  0  0  0  0  0  0
    3.9970   -6.1220   23.0890 C   0  0  0  0  0  0  0  0  0  0  0  0
    3.9680   -5.5750   24.3050 C   0  0  0  0  0  0  0  0  0  0  0  0
    5.1500   -5.4930   22.4870 N   0  0  0  0  0  0  0  0  0  0  0  0
    4.9630   -4.7280   24.4510 C   0  0  0  0  0  0  0  0  0  0  0  0
    5.7710   -4.6020   23.3770 C   0  0  0  0  0  0  0  0  0  0  0  0
    5.6110   -5.7070   21.1690 C   0  0  0  0  0  0  0  0  0  0  0  0
    5.1370   -4.0400   25.6010 C   0  0  0  0  0  0  0  0  0  0  0  0
    6.8580   -3.7390   23.4120 C   0  0  0  0  0  0  0  0  0  0  0  0
    5.9290   -5.8700   19.8150 N   0  0  0  0  0  0  0  0  0  0  0  0
    6.1910   -3.1560   25.6920 C   0  0  0  0  0  0  0  0  0  0  0  0
    7.0700   -2.9980   24.5920 C   0  0  0  0  0  0  0  0  0  0  0  0
    6.3920   -2.2650   27.1520 Cl  0  0  0  0  0  0  0  0  0  0  0  0
  2  1  1  6
  2  3  1  0
  2  4  1  0
  3  5  2  0
  3  6  1  0
  4  7  2  0
  4  8  1  0
  7  9  1  0
  8 10  2  0
  9 11  2  0
 10 11  1  0
 10 12  1  0
 11 13  1  0
 12 14  1  0
 13 14  2  0
 12 15  1  0
 13 16  1  0
 14 17  1  0
 15 18  3  0
 16 19  2  0
 17 20  2  0
 19 20  1  0
 19 21  1  0
M  END
