MAK-UNK-8fdbca50-21-bromoalkyne
     RDKit          3D

 38 41  0  0  0  0  0  0  0  0999 V2000
    8.5140   -6.3810   20.3870 C   0  0  0  0  0  0  0  0  0  0  0  0
    7.0330   -6.3160   20.0740 C   0  0  0  0  0  0  0  0  0  0  0  0
    9.0380   -5.6440   21.4270 N   0  0  0  0  0  0  0  0  0  0  0  0
    9.5430   -4.2980   21.1040 C   0  0  0  0  0  0  0  0  0  0  0  0
    8.7670   -5.9350   22.8600 C   0  0  0  0  0  0  0  0  0  0  0  0
    9.4240   -3.3790   22.2720 C   0  0  0  0  0  0  0  0  0  0  0  0
    9.4680   -5.1280   23.8110 C   0  0  0  0  0  0  0  0  0  0  0  0
    9.9300   -3.8300   23.4560 C   0  0  0  0  0  0  0  0  0  0  0  0
    9.9540   -2.8720   24.4610 C   0  0  0  0  0  0  0  0  0  0  0  0
   10.9590   -2.8300   25.1600 O   0  0  0  0  0  0  0  0  0  0  0  0
    8.7840   -1.8870   24.6110 N   0  0  0  0  0  0  0  0  0  0  0  0
    7.3260   -2.3620   24.5700 C   0  0  0  0  0  0  0  0  0  0  0  0
    8.9590   -0.6200   25.3560 C   0  0  0  0  0  0  0  0  0  0  0  0
    6.7430   -2.8890   25.8410 C   0  0  0  0  0  0  0  0  0  0  0  0
    6.4140   -2.3800   23.4850 C   0  0  0  0  0  0  0  0  0  0  0  0
    8.0910   -0.5130   26.6140 C   0  0  0  0  0  0  0  0  0  0  0  0
    8.7210    0.5850   24.4320 C   0  0  0  0  0  0  0  0  0  0  0  0
    5.4310   -3.3600   25.9960 C   0  0  0  0  0  0  0  0  0  0  0  0
    5.1200   -2.8690   23.7550 C   0  0  0  0  0  0  0  0  0  0  0  0
    6.7570   -1.8350   21.8310 S   0  0  0  0  0  0  0  0  0  0  0  0
    4.5750   -3.3510   24.9490 N   0  0  0  0  0  0  0  0  0  0  0  0
    7.5060   -0.5990   21.9100 O   0  0  0  0  0  0  0  0  0  0  0  0
    5.5120   -1.8780   21.0700 O   0  0  0  0  0  0  0  0  0  0  0  0
    7.8720   -2.9680   21.3070 N   0  0  0  0  0  0  0  0  0  0  0  0
    8.7440   -2.7820   20.3600 C   0  0  0  0  0  0  0  0  0  0  0  0
    8.0330   -4.2530   21.8010 C   0  0  0  0  0  0  0  0  0  0  0  0
    9.6240   -4.0350   20.1620 C   0  0  0  0  0  0  0  0  0  0  0  0
    9.0870   -4.9000   21.1530 C   0  0  0  0  0  0  0  0  0  0  0  0
    7.3010   -4.8950   22.7870 C   0  0  0  0  0  0  0  0  0  0  0  0
   10.6780   -4.0550   19.1230 C   0  0  0  0  0  0  0  0  0  0  0  0
    7.7260   -4.9800   24.1190 C   0  0  0  0  0  0  0  0  0  0  0  0
    6.0760   -5.4820   22.4370 C   0  0  0  0  0  0  0  0  0  0  0  0
   11.2690   -5.1280   18.2890 N   0  0  0  0  0  0  0  0  0  0  0  0
    6.9350   -5.6250   25.0750 C   0  0  0  0  0  0  0  0  0  0  0  0
    5.2840   -6.1280   23.3860 C   0  0  0  0  0  0  0  0  0  0  0  0
    5.6350   -5.4250   21.1730 F   0  0  0  0  0  0  0  0  0  0  0  0
   12.4330   -4.9800   17.6020 C   0  0  0  0  0  0  0  0  0  0  0  0
    5.7090   -6.1900   24.6970 C   0  0  0  0  0  0  0  0  0  0  0  0
  1  2  2  3
  1  3  1  0
  3  4  1  0
  3  5  1  0
  4  6  1  0
  5  7  1  0
  6  8  1  0
  7  8  1  0
  8  9  1  0
  9 10  2  0
  9 11  1  0
 11 12  1  0
 11 13  1  0
 12 14  2  0
 12 15  1  0
 13 16  1  0
 13 17  1  0
 14 18  1  0
 15 19  2  0
 20 15  1  0
 18 21  2  0
 19 21  1  0
 20 22  2  0
 20 23  2  0
 20 24  1  0
 24 25  1  0
 24 26  1  0
 25 27  2  0
 26 28  2  0
 27 28  1  0
 26 29  1  0
 27 30  1  0
 29 31  2  0
 29 32  1  0
 30 33  1  0
 31 34  1  0
 32 35  2  0
 32 36  1  0
 33 37  1  0
 34 38  2  0
 35 38  1  0
M  END
