MAK-UNK-8145c7a0-5
     RDKit          3D

 26 28  0  0  0  0  0  0  0  0999 V2000
    9.3760   -5.4990   27.5580 C   0  0  0  0  0  0  0  0  0  0  0  0
    8.8210   -4.4150   26.6270 C   0  0  0  0  0  0  0  0  0  0  0  0
    7.4760   -4.1300   26.7170 N   0  0  0  0  0  0  0  0  0  0  0  0
    9.7580   -3.5330   25.4790 S   0  0  0  0  0  0  0  0  0  0  0  0
    7.2360   -3.1640   25.8130 N   0  0  0  0  0  0  0  0  0  0  0  0
    8.2960   -2.7280   25.0800 C   0  0  0  0  0  0  0  0  0  0  0  0
    8.1880   -1.6380   24.0170 C   0  0  0  0  0  0  0  0  0  0  0  0
    9.3000   -1.1940   23.4040 N   0  0  0  0  0  0  0  0  0  0  0  0
   10.3970   -0.6990   24.2500 C   0  0  0  0  0  0  0  0  0  0  0  0
    9.6950   -2.0370   22.2530 C   0  0  0  0  0  0  0  0  0  0  0  0
   11.3030    0.2250   23.4450 C   0  0  0  0  0  0  0  0  0  0  0  0
   11.0320   -1.8410   21.8980 C   0  0  0  0  0  0  0  0  0  0  0  0
   11.8850   -0.7380   22.4340 C   0  0  0  0  0  0  0  0  0  0  0  0
   11.6570   -2.6380   21.0480 F   0  0  0  0  0  0  0  0  0  0  0  0
   13.5030   -0.8540   21.8000 S   0  0  0  0  0  0  0  0  0  0  0  0
   14.0950    0.2140   22.5330 O   0  0  0  0  0  0  0  0  0  0  0  0
   13.6370   -2.2390   22.1040 O   0  0  0  0  0  0  0  0  0  0  0  0
   13.8940   -0.6400   20.0430 N   0  0  0  0  0  0  0  0  0  0  0  0
   15.0820   -0.2230   19.0400 C   0  0  0  0  0  0  0  0  0  0  0  0
   14.9390    0.9340   18.0010 C   0  0  0  0  0  0  0  0  0  0  0  0
   14.8820    2.2160   18.5380 C   0  0  0  0  0  0  0  0  0  0  0  0
   13.8420    3.2150   18.5140 C   0  0  0  0  0  0  0  0  0  0  0  0
   15.9780    2.5520   19.2040 C   0  0  0  0  0  0  0  0  0  0  0  0
   14.0430    4.3660   19.1970 C   0  0  0  0  0  0  0  0  0  0  0  0
   16.1420    3.7640   19.8650 C   0  0  0  0  0  0  0  0  0  0  0  0
   15.1640    4.6740   19.8710 C   0  0  0  0  0  0  0  0  0  0  0  0
  1  2  1  0
  2  3  2  0
  2  4  1  0
  3  5  1  0
  4  6  1  0
  5  6  2  0
  6  7  1  0
  7  8  1  0
  8  9  1  0
  8 10  1  0
  9 11  1  0
 10 12  1  0
 11 13  1  0
 12 13  2  0
 12 14  1  0
 13 15  1  0
 15 16  2  0
 15 17  2  0
 15 18  1  0
 18 19  1  0
 19 20  1  0
 20 21  1  0
 21 22  2  0
 21 23  1  0
 22 24  1  0
 23 25  2  0
 24 26  2  0
 25 26  1  0
M  END
