MAK-UNK-e4a48a85-27-chloroacetamide
     RDKit          3D

 27 29  0  0  0  0  0  0  0  0999 V2000
    6.8830   -3.1160   19.1320 C   0  0  0  0  0  0  0  0  0  0  0  0
    5.8160   -3.6290   20.0800 C   0  0  0  0  0  0  0  0  0  0  0  0
    5.3360   -4.7450   19.9350 O   0  0  0  0  0  0  0  0  0  0  0  0
    5.4110   -2.8070   21.1110 N   0  0  0  0  0  0  0  0  0  0  0  0
    4.9530   -3.3600   22.3770 C   0  0  0  0  0  0  0  0  0  0  0  0
    6.2240   -1.6150   21.3490 C   0  0  0  0  0  0  0  0  0  0  0  0
    6.0120   -3.7320   23.1500 C   0  0  0  0  0  0  0  0  0  0  0  0
    7.3320   -1.9270   22.1480 C   0  0  0  0  0  0  0  0  0  0  0  0
    6.8640   -2.5460   23.4180 N   0  0  0  0  0  0  0  0  0  0  0  0
    7.8820   -2.5230   24.3810 C   0  0  0  0  0  0  0  0  0  0  0  0
    8.7400   -1.4360   24.5240 C   0  0  0  0  0  0  0  0  0  0  0  0
    8.0650   -0.1470   24.4740 N   0  0  0  0  0  0  0  0  0  0  0  0
   10.1170   -1.5770   24.7020 C   0  0  0  0  0  0  0  0  0  0  0  0
    8.8390    0.9140   24.4040 C   0  0  0  0  0  0  0  0  0  0  0  0
   10.8290   -0.4070   24.8500 C   0  0  0  0  0  0  0  0  0  0  0  0
   10.8970   -2.7400   24.7620 N   0  0  0  0  0  0  0  0  0  0  0  0
    8.2380    2.1770   24.3500 C   0  0  0  0  0  0  0  0  0  0  0  0
   10.1850    0.8360   24.3860 N   0  0  0  0  0  0  0  0  0  0  0  0
   11.9340   -0.4400   25.3560 O   0  0  0  0  0  0  0  0  0  0  0  0
   12.3350   -2.6610   24.9090 C   0  0  0  0  0  0  0  0  0  0  0  0
   12.7770   -1.8770   23.7320 C   0  0  0  0  0  0  0  0  0  0  0  0
   13.0260   -2.6420   22.4920 C   0  0  0  0  0  0  0  0  0  0  0  0
   12.9370   -0.4990   23.7790 C   0  0  0  0  0  0  0  0  0  0  0  0
   13.4380   -1.9650   21.3330 C   0  0  0  0  0  0  0  0  0  0  0  0
   13.3380    0.1770   22.6570 C   0  0  0  0  0  0  0  0  0  0  0  0
   13.6030   -0.6400   21.3890 C   0  0  0  0  0  0  0  0  0  0  0  0
   13.4720    1.5290   22.7510 O   0  0  0  0  0  0  0  0  0  0  0  0
  1  2  1  0
  2  3  2  0
  2  4  1  0
  4  5  1  0
  4  6  1  0
  5  7  1  0
  6  8  1  0
  7  9  1  0
  8  9  1  0
  9 10  1  0
 10 11  1  0
 11 12  1  0
 11 13  2  0
 12 14  2  0
 13 15  1  0
 13 16  1  0
 14 17  1  0
 14 18  1  0
 15 18  1  0
 15 19  2  0
 16 20  1  0
 20 21  1  0
 21 22  2  0
 21 23  1  0
 22 24  1  0
 23 25  2  0
 24 26  2  0
 25 26  1  0
 25 27  1  0
M  END
