MAK-UNK-10799360-31-nitrile
     RDKit          3D

 29 33  0  0  0  0  0  0  0  0999 V2000
    6.9910   -3.4150   19.6380 C   0  0  0  0  0  0  0  0  0  0  0  0
    6.0020   -3.1300   18.8890 N   0  0  0  0  0  0  0  0  0  0  0  0
    7.1480   -3.0440   20.9330 N   0  0  0  0  0  0  0  0  0  0  0  0
    7.7700   -1.7780   21.4540 C   0  0  0  0  0  0  0  0  0  0  0  0
    7.1120   -3.9830   22.0070 C   0  0  1  0  0  0  0  0  0  0  0  0
    8.1730   -2.3170   22.8420 C   0  0  1  0  0  0  0  0  0  0  0  0
    8.4340   -3.7690   22.4090 C   0  0  0  0  0  0  0  0  0  0  0  0
    6.3100   -3.5810   23.0160 C   0  0  0  0  0  0  0  0  0  0  0  0
    9.4130   -1.6100   23.4130 C   0  0  0  0  0  0  0  0  0  0  0  0
    5.0910   -4.1560   23.3770 C   0  0  0  0  0  0  0  0  0  0  0  0
    6.8540   -2.5090   23.6450 C   0  0  0  0  0  0  0  0  0  0  0  0
   10.6680   -1.6190   22.5960 C   0  0  0  0  0  0  0  0  0  0  0  0
    9.3010   -1.0530   24.6020 C   0  0  0  0  0  0  0  0  0  0  0  0
    4.3760   -3.6100   24.4420 C   0  0  0  0  0  0  0  0  0  0  0  0
    6.1240   -1.9480   24.7300 C   0  0  0  0  0  0  0  0  0  0  0  0
   11.8510   -0.8920   23.3110 C   0  0  0  0  0  0  0  0  0  0  0  0
   10.2720   -0.4170   25.3180 C   0  0  0  0  0  0  0  0  0  0  0  0
    8.0840   -1.0890   25.2650 N   0  0  0  0  0  0  0  0  0  0  0  0
    4.8990   -2.4980   25.1190 C   0  0  0  0  0  0  0  0  0  0  0  0
   13.3280   -0.8330   22.4570 Cl  0  0  0  0  0  0  0  0  0  0  0  0
   11.6210   -0.2580   24.7830 C   0  0  0  0  0  0  0  0  0  0  0  0
    9.3990   -0.0820   26.6230 C   0  0  0  0  0  0  0  0  0  0  0  0
    8.1260   -0.5200   26.4460 C   0  0  0  0  0  0  0  0  0  0  0  0
    9.5640    0.5090   27.8730 C   0  0  0  0  0  0  0  0  0  0  0  0
    8.7330    0.0210   28.9150 C   0  0  0  0  0  0  0  0  0  0  0  0
    9.2380    0.1940   30.2700 N   0  0  0  0  0  0  0  0  0  0  0  0
    9.7730    1.3870   30.6830 C   0  0  0  0  0  0  0  0  0  0  0  0
   11.1300    1.3160   30.9160 C   0  0  0  0  0  0  0  0  0  0  0  0
    9.1300    2.4240   30.8310 O   0  0  0  0  0  0  0  0  0  0  0  0
  1  2  2  3
  1  3  1  0
  3  4  1  0
  5  3  1  6
  4  6  1  0
  5  7  1  0
  6  7  1  0
  5  8  1  0
  6  9  1  1
  8 10  2  0
  6 11  1  0
  8 11  1  0
  9 12  2  0
  9 13  1  0
 10 14  1  0
 11 15  2  0
 12 16  1  0
 13 17  2  0
 13 18  1  0
 14 19  2  0
 15 19  1  0
 16 20  1  0
 16 21  2  0
 17 21  1  0
 17 22  1  0
 18 23  1  0
 22 23  2  0
 22 24  1  0
 24 25  1  0
 25 26  1  0
 26 27  1  0
 27 28  1  0
 27 29  2  0
M  END
