MAK-UNK-7c9d1431-21-bromoalkyne
     RDKit          3D

 17 18  0  0  0  0  0  0  0  0999 V2000
    6.4890   -3.9200   19.7880 C   0  0  0  0  0  0  0  0  0  0  0  0
    5.6980   -5.1760   20.0620 C   0  0  0  0  0  0  0  0  0  0  0  0
    6.2960   -2.8520   20.6570 N   0  0  0  0  0  0  0  0  0  0  0  0
    6.6080   -1.5150   20.3740 C   0  0  0  0  0  0  0  0  0  0  0  0
    5.9720   -3.0790   22.0230 C   0  0  0  0  0  0  0  0  0  0  0  0
    7.3390   -0.7810   21.2970 C   0  0  0  0  0  0  0  0  0  0  0  0
    7.0070   -3.3140   22.9150 C   0  0  0  0  0  0  0  0  0  0  0  0
    8.3460   -1.4890   21.8580 C   0  0  0  0  0  0  0  0  0  0  0  0
    7.8920   -2.1790   23.0910 N   0  0  0  0  0  0  0  0  0  0  0  0
    8.7910   -2.3290   24.1090 C   0  0  0  0  0  0  0  0  0  0  0  0
    9.8940   -1.3820   23.9080 C   0  0  0  0  0  0  0  0  0  0  0  0
   11.0230   -1.9130   23.0710 C   0  0  0  0  0  0  0  0  0  0  0  0
   10.1900   -0.0430   24.2740 C   0  0  0  0  0  0  0  0  0  0  0  0
   12.1090   -1.1380   22.7590 C   0  0  0  0  0  0  0  0  0  0  0  0
   11.2860    0.7390   23.9580 C   0  0  0  0  0  0  0  0  0  0  0  0
   12.2590    0.1580   23.1690 C   0  0  0  0  0  0  0  0  0  0  0  0
   13.3490    0.7590   22.7700 C   0  0  0  0  0  0  0  0  0  0  0  0
  1  2  2  3
  1  3  1  0
  3  4  1  0
  3  5  1  0
  4  6  1  0
  5  7  1  0
  6  8  1  0
  7  9  1  0
  8  9  1  0
  9 10  1  0
 10 11  1  0
 11 12  2  0
 11 13  1  0
 12 14  1  0
 13 15  2  0
 14 16  2  0
 15 16  1  0
 16 17  1  0
M  END
