MAK-UNK-acefcb18-3
     RDKit          3D

 17 18  0  0  0  0  0  0  0  0999 V2000
    7.4240    0.3410   32.5390 C   0  0  0  0  0  0  0  0  0  0  0  0
    7.1470   -0.1180   31.1200 C   0  0  0  0  0  0  0  0  0  0  0  0
    5.6800   -0.2920   30.7690 C   0  0  0  0  0  0  0  0  0  0  0  0
    8.1360   -0.3640   30.2010 C   0  0  0  0  0  0  0  0  0  0  0  0
    5.4530   -0.7540   29.3120 C   0  0  0  0  0  0  0  0  0  0  0  0
    7.9630   -0.7870   28.8700 C   0  0  0  0  0  0  0  0  0  0  0  0
    6.6450   -1.0030   28.3480 C   0  0  0  0  0  0  0  0  0  0  0  0
    6.4390   -1.4120   27.0570 O   0  0  0  0  0  0  0  0  0  0  0  0
    7.4840   -1.1680   26.1130 C   0  0  0  0  0  0  0  0  0  0  0  0
    8.4390   -2.3790   26.1250 C   0  0  0  0  0  0  0  0  0  0  0  0
    9.4380   -2.4740   24.9580 C   0  0  0  0  0  0  0  0  0  0  0  0
    9.4970   -1.4390   23.8370 C   0  0  0  0  0  0  0  0  0  0  0  0
   10.8060   -1.0900   23.4080 C   0  0  0  0  0  0  0  0  0  0  0  0
   11.5260    0.0360   23.8090 C   0  0  0  0  0  0  0  0  0  0  0  0
   11.4940   -1.9240   22.4900 C   0  0  0  0  0  0  0  0  0  0  0  0
   12.7670    0.0830   23.2090 C   0  0  0  0  0  0  0  0  0  0  0  0
   13.1130   -1.2800   22.1110 S   0  0  0  0  0  0  0  0  0  0  0  0
  1  2  1  0
  2  3  2  0
  2  4  1  0
  3  5  1  0
  4  6  2  0
  5  7  2  0
  6  7  1  0
  7  8  1  0
  8  9  1  0
  9 10  1  0
 10 11  2  3
 11 12  1  0
 12 13  1  0
 13 14  1  0
 13 15  2  0
 14 16  2  0
 15 17  1  0
 16 17  1  0
M  END
