MAK-UNK-5d2caa6f-20-chloroacetamide
     RDKit          3D

 19 21  0  0  0  0  0  0  0  0999 V2000
    7.1760   -2.9970   18.8000 C   0  0  0  0  0  0  0  0  0  0  0  0
    6.2050   -3.2880   19.9170 C   0  0  0  0  0  0  0  0  0  0  0  0
    5.3930   -4.2120   19.7840 O   0  0  0  0  0  0  0  0  0  0  0  0
    6.2940   -2.4790   21.0450 N   0  0  0  0  0  0  0  0  0  0  0  0
    7.1410   -1.3820   20.9450 C   0  0  0  0  0  0  0  0  0  0  0  0
    6.2640   -2.9580   22.3870 C   0  0  2  0  0  0  0  0  0  0  0  0
    7.4650   -1.3140   22.3590 C   0  0  1  0  0  0  0  0  0  0  0  0
    6.1740   -1.7300   23.0430 C   0  0  0  0  0  0  0  0  0  0  0  0
    7.4890   -3.5550   22.5660 C   0  0  0  0  0  0  0  0  0  0  0  0
    8.4540   -2.4890   22.6000 C   0  0  2  0  0  0  0  0  0  0  0  0
    9.0560   -2.2330   23.9610 C   0  0  0  0  0  0  0  0  0  0  0  0
    8.0610   -1.9290   24.9450 O   0  0  0  0  0  0  0  0  0  0  0  0
   10.3990   -2.2830   24.1790 N   0  0  0  0  0  0  0  0  0  0  0  0
   11.3230   -1.3870   23.7260 C   0  0  0  0  0  0  0  0  0  0  0  0
   11.4560   -0.0540   24.1530 C   0  0  0  0  0  0  0  0  0  0  0  0
   12.1960   -1.9370   22.7360 C   0  0  0  0  0  0  0  0  0  0  0  0
   12.5380    0.7880   23.5600 C   0  0  0  0  0  0  0  0  0  0  0  0
   13.1820   -1.1430   22.2090 C   0  0  0  0  0  0  0  0  0  0  0  0
   13.4000    0.2890   22.6210 C   0  0  0  0  0  0  0  0  0  0  0  0
  1  2  1  0
  2  3  2  0
  2  4  1  0
  4  5  1  0
  4  6  1  0
  7  5  1  6
  6  8  1  0
  7  8  1  0
  6  9  1  1
  7 10  1  0
  9 10  1  0
 10 11  1  1
 11 12  2  0
 11 13  1  0
 13 14  1  0
 14 15  2  0
 14 16  1  0
 15 17  1  0
 16 18  2  0
 17 19  2  0
 18 19  1  0
M  END
