MAK-UNK-8145c7a0-9
     RDKit          3D

 26 28  0  0  0  0  0  0  0  0999 V2000
    4.4190   -6.9680   26.7780 C   0  0  0  0  0  0  0  0  0  0  0  0
    3.7960   -6.8200   25.1120 S   0  0  0  0  0  0  0  0  0  0  0  0
    3.5980   -8.1270   24.5440 O   0  0  0  0  0  0  0  0  0  0  0  0
    2.7720   -5.8080   25.1250 O   0  0  0  0  0  0  0  0  0  0  0  0
    5.0860   -6.1400   24.2950 N   0  0  0  0  0  0  0  0  0  0  0  0
    5.7580   -5.0420   24.7980 C   0  0  0  0  0  0  0  0  0  0  0  0
    7.2830   -5.1140   24.6160 C   0  0  2  0  0  0  0  0  0  0  0  0
    8.1180   -5.1790   25.7630 C   0  0  0  0  0  0  0  0  0  0  0  0
    7.7870   -3.7700   24.2680 C   0  0  0  0  0  0  0  0  0  0  0  0
    7.4960   -5.5470   27.0840 C   0  0  0  0  0  0  0  0  0  0  0  0
    9.4310   -4.8570   25.5200 C   0  0  0  0  0  0  0  0  0  0  0  0
    7.6880   -2.6750   25.1400 N   0  0  0  0  0  0  0  0  0  0  0  0
    8.5360   -3.5080   22.7570 S   0  0  0  0  0  0  0  0  0  0  0  0
    8.4120   -5.5460   28.2540 C   0  0  0  0  0  0  0  0  0  0  0  0
   10.3820   -4.8390   26.6380 C   0  0  0  0  0  0  0  0  0  0  0  0
    8.1900   -1.5410   24.6190 N   0  0  0  0  0  0  0  0  0  0  0  0
    8.6280   -1.9740   23.3540 C   0  0  0  0  0  0  0  0  0  0  0  0
    9.8720   -5.1820   28.0110 C   0  0  0  0  0  0  0  0  0  0  0  0
    9.0150   -0.6660   23.1120 C   0  0  0  0  0  0  0  0  0  0  0  0
   10.3720   -0.4330   22.9910 N   0  0  0  0  0  0  0  0  0  0  0  0
   10.9310    0.4280   24.0040 C   0  0  0  0  0  0  0  0  0  0  0  0
   11.1420   -1.4470   22.5160 C   0  0  0  0  0  0  0  0  0  0  0  0
   11.9990    1.0620   23.3890 C   0  0  0  0  0  0  0  0  0  0  0  0
   12.4470   -1.0260   22.2870 C   0  0  0  0  0  0  0  0  0  0  0  0
   12.8660    0.2140   22.7210 C   0  0  0  0  0  0  0  0  0  0  0  0
   13.3230   -1.8040   21.6370 F   0  0  0  0  0  0  0  0  0  0  0  0
  1  2  1  0
  2  3  2  0
  2  4  2  0
  2  5  1  0
  5  6  1  0
  7  6  1  1
  7  8  1  0
  7  9  1  0
  8 10  2  0
  8 11  1  0
  9 12  2  0
  9 13  1  0
 10 14  1  0
 11 15  2  0
 12 16  1  0
 13 17  1  0
 16 17  2  0
 14 18  2  0
 15 18  1  0
 17 19  1  0
 19 20  1  0
 20 21  1  0
 20 22  1  0
 21 23  1  0
 22 24  1  0
 23 25  1  0
 24 25  2  0
 24 26  1  0
M  END
