MAK-UNK-9a6be56d-29
     RDKit          3D

 38 42  0  0  0  0  0  0  0  0999 V2000
   10.0740   -3.2310   24.0690 C   0  0  0  0  0  0  0  0  0  0  0  0
   11.5000   -3.0980   23.8100 N   0  0  0  0  0  0  0  0  0  0  0  0
   12.2650   -3.2700   25.0170 C   0  0  0  0  0  0  0  0  0  0  0  0
   11.8580   -1.9010   23.3890 C   0  0  0  0  0  0  0  0  0  0  0  0
   13.6630   -3.2050   24.8370 C   0  0  0  0  0  0  0  0  0  0  0  0
   13.2400   -1.6920   23.1730 C   0  0  0  0  0  0  0  0  0  0  0  0
   10.7830   -0.8640   23.2000 C   0  0  0  0  0  0  0  0  0  0  0  0
   14.0950   -3.1130   23.5090 C   0  0  1  0  0  0  0  0  0  0  0  0
   13.5100   -0.3590   22.7520 C   0  0  0  0  0  0  0  0  0  0  0  0
   11.1250    0.3700   22.8060 C   0  0  0  0  0  0  0  0  0  0  0  0
   15.6560   -3.9140   23.4410 N   0  0  0  0  0  0  0  0  0  0  0  0
   12.4720    0.5920   22.6000 C   0  0  0  0  0  0  0  0  0  0  0  0
    9.8630    1.6390   22.5760 S   0  0  0  0  0  0  0  0  0  0  0  0
   16.6190   -5.0790   22.7550 C   0  0  0  0  0  0  0  0  0  0  0  0
   10.6970    3.1060   22.4460 N   0  0  0  0  0  0  0  0  0  0  0  0
    9.2180    1.4890   21.2830 O   0  0  0  0  0  0  0  0  0  0  0  0
    9.0360    1.7060   23.7630 O   0  0  0  0  0  0  0  0  0  0  0  0
   18.2320   -5.0950   22.4510 C   0  0  0  0  0  0  0  0  0  0  0  0
   19.2320   -3.8880   22.2700 C   0  0  0  0  0  0  0  0  0  0  0  0
   19.2120   -6.2030   22.2850 C   0  0  0  0  0  0  0  0  0  0  0  0
   20.4420   -4.2600   22.0470 C   0  0  0  0  0  0  0  0  0  0  0  0
   20.5760   -5.6360   22.0480 N   0  0  0  0  0  0  0  0  0  0  0  0
   21.6130   -3.3260   21.8010 C   0  0  0  0  0  0  0  0  0  0  0  0
   22.0990   -6.3290   21.7930 S   0  0  0  0  0  0  0  0  0  0  0  0
   21.2930   -2.2290   20.7830 C   0  0  0  0  0  0  0  0  0  0  0  0
   22.8970   -3.3730   22.3850 C   0  0  0  0  0  0  0  0  0  0  0  0
   21.9300   -7.7020   22.0570 O   0  0  0  0  0  0  0  0  0  0  0  0
   22.5200   -5.8200   20.5100 O   0  0  0  0  0  0  0  0  0  0  0  0
   23.4350   -5.8400   22.8790 C   0  0  0  0  0  0  0  0  0  0  0  0
   22.3760   -1.2340   20.4310 C   0  0  0  0  0  0  0  0  0  0  0  0
   23.8600   -2.4800   22.0730 C   0  0  0  0  0  0  0  0  0  0  0  0
   23.1920   -4.3160   23.2720 F   0  0  0  0  0  0  0  0  0  0  0  0
   23.5570   -4.6180   23.5500 C   0  0  0  0  0  0  0  0  0  0  0  0
   24.4440   -6.7600   23.0600 C   0  0  0  0  0  0  0  0  0  0  0  0
   23.7280   -1.3940   21.1360 C   0  0  0  0  0  0  0  0  0  0  0  0
   24.6540   -4.3390   24.3780 C   0  0  0  0  0  0  0  0  0  0  0  0
   25.5470   -6.5950   23.8310 N   0  0  0  0  0  0  0  0  0  0  0  0
   25.6350   -5.3150   24.5160 C   0  0  0  0  0  0  0  0  0  0  0  0
  1  2  1  0
  2  3  1  0
  2  4  1  0
  3  5  1  0
  4  6  2  0
  4  7  1  0
  5  8  1  0
  6  8  1  0
  6  9  1  0
  7 10  2  0
  8 11  1  1
  9 12  2  0
 10 12  1  0
 10 13  1  0
 11 14  1  0
 13 15  1  0
 13 16  2  0
 13 17  2  0
 14 18  1  0
 18 19  1  0
 18 20  2  0
 19 21  2  0
 20 22  1  0
 21 22  1  0
 21 23  1  0
 22 24  1  0
 23 25  2  0
 23 26  1  0
 24 27  2  0
 24 28  2  0
 24 29  1  0
 25 30  1  0
 26 31  2  0
 26 32  1  0
 29 33  2  0
 29 34  1  0
 30 35  2  0
 31 35  1  0
 33 36  1  0
 34 37  2  0
 36 38  2  0
 37 38  1  0
M  END
