MAK-UNK-ed378e62-31
     RDKit          3D

 14 15  0  0  0  0  0  0  0  0999 V2000
    9.1140   -2.4810   21.9110 N   0  0  0  0  0  0  0  0  0  0  0  0
    8.3190   -3.2370   22.2810 C   0  0  0  0  0  0  0  0  0  0  0  0
    7.3610   -4.1320   22.7800 C   0  0  0  0  0  0  0  0  0  0  0  0
    6.9190   -5.1710   22.0840 N   0  0  0  0  0  0  0  0  0  0  0  0
    7.0140   -3.7530   24.0050 N   0  0  0  0  0  0  0  0  0  0  0  0
    6.0080   -5.9450   22.7380 C   0  0  0  0  0  0  0  0  0  0  0  0
    6.1450   -4.5050   24.6140 C   0  0  0  0  0  0  0  0  0  0  0  0
    5.6160   -5.5990   24.0490 C   0  0  0  0  0  0  0  0  0  0  0  0
    4.8560   -6.1600   24.7860 O   0  0  0  0  0  0  0  0  0  0  0  0
    5.2000   -5.7640   26.0520 C   0  0  0  0  0  0  0  0  0  0  0  0
    5.5050   -4.3360   26.3960 C   0  0  0  0  0  0  0  0  0  0  0  0
    5.3410   -6.5530   27.1830 C   0  0  0  0  0  0  0  0  0  0  0  0
    5.8460   -4.1540   27.7220 C   0  0  0  0  0  0  0  0  0  0  0  0
    5.8140   -5.6470   28.5650 S   0  0  0  0  0  0  0  0  0  0  0  0
  1  2  3  0
  2  3  1  0
  3  4  2  0
  3  5  1  0
  4  6  1  0
  5  7  2  0
  6  8  2  0
  7  8  1  0
  8  9  1  0
  9 10  1  0
 10 11  1  0
 10 12  2  0
 11 13  2  0
 12 14  1  0
 13 14  1  0
M  END
