MAK-UNK-752736de-2
     RDKit          3D

 19 20  0  0  0  0  0  0  0  0999 V2000
    8.7230   -0.3030   21.3400 O   0  0  0  0  0  0  0  0  0  0  0  0
    8.4950   -1.3800   21.8840 C   0  0  0  0  0  0  0  0  0  0  0  0
    9.5700   -2.4220   22.1730 C   0  0  0  0  0  0  0  0  0  0  0  0
    7.2370   -1.7500   22.2920 N   0  0  0  0  0  0  0  0  0  0  0  0
   10.9470   -1.8100   22.4090 C   0  0  2  0  0  0  0  0  0  0  0  0
    6.9840   -2.1100   23.6660 C   0  0  0  0  0  0  0  0  0  0  0  0
   11.6790   -2.3760   23.6120 C   0  0  0  0  0  0  0  0  0  0  0  0
   10.8500   -0.3330   22.7650 C   0  0  0  0  0  0  0  0  0  0  0  0
    7.7340   -3.3640   23.9990 C   0  0  0  0  0  0  0  0  0  0  0  0
   12.5390   -1.5150   24.1920 C   0  0  0  0  0  0  0  0  0  0  0  0
   12.5050   -0.0180   23.3260 S   0  0  0  0  0  0  0  0  0  0  0  0
    7.4180   -4.5610   23.3370 C   0  0  0  0  0  0  0  0  0  0  0  0
    8.7520   -3.3570   24.9660 C   0  0  0  0  0  0  0  0  0  0  0  0
   12.4170    1.1100   24.2050 O   0  0  0  0  0  0  0  0  0  0  0  0
   13.4170   -0.0960   22.2150 O   0  0  0  0  0  0  0  0  0  0  0  0
    8.1060   -5.7280   23.6430 C   0  0  0  0  0  0  0  0  0  0  0  0
    9.4310   -4.5310   25.2570 C   0  0  0  0  0  0  0  0  0  0  0  0
    9.1150   -5.7070   24.6070 C   0  0  0  0  0  0  0  0  0  0  0  0
   10.4030   -4.5330   26.1740 F   0  0  0  0  0  0  0  0  0  0  0  0
  1  2  2  0
  2  3  1  0
  2  4  1  0
  5  3  1  1
  4  6  1  0
  5  7  1  0
  5  8  1  0
  6  9  1  0
  7 10  2  0
  8 11  1  0
 11 10  1  0
  9 12  2  0
  9 13  1  0
 11 14  2  0
 11 15  2  0
 12 16  1  0
 13 17  2  0
 16 18  2  0
 17 18  1  0
 17 19  1  0
M  END
