MAK-UNK-ec98eaf6-44-nitrile
     RDKit          3D

 20 22  0  0  0  0  0  0  0  0999 V2000
    6.8380   -3.4490   19.7360 C   0  0  0  0  0  0  0  0  0  0  0  0
    5.8450   -3.2360   18.9760 N   0  0  0  0  0  0  0  0  0  0  0  0
    6.9510   -2.7400   20.9410 N   0  0  0  0  0  0  0  0  0  0  0  0
    6.2300   -3.0810   22.1780 C   0  0  0  0  0  0  0  0  0  0  0  0
    8.1210   -2.2600   21.4500 C   0  0  2  0  0  0  0  0  0  0  0  0
    7.3520   -3.1810   23.2000 C   0  0  1  0  0  0  0  0  0  0  0  0
    8.5260   -3.4610   22.3340 C   0  0  0  0  0  0  0  0  0  0  0  0
    7.7590   -1.0840   22.3460 C   0  0  2  0  0  0  0  0  0  0  0  0
    8.7390    0.0950   22.1640 C   0  0  0  0  0  0  0  0  0  0  0  0
    7.7880   -1.8360   23.6600 N   0  0  0  0  0  0  0  0  0  0  0  0
    8.1270    1.4560   22.0900 N   0  0  0  0  0  0  0  0  0  0  0  0
    9.9540    0.0050   22.0610 O   0  0  0  0  0  0  0  0  0  0  0  0
    9.0450   -1.9080   24.3350 C   0  0  0  0  0  0  0  0  0  0  0  0
   10.3020   -1.2150   23.8730 C   0  0  0  0  0  0  0  0  0  0  0  0
   10.6220    0.0330   24.4360 C   0  0  0  0  0  0  0  0  0  0  0  0
   11.1590   -1.7670   22.9050 C   0  0  0  0  0  0  0  0  0  0  0  0
   11.7700    0.7150   24.0330 C   0  0  0  0  0  0  0  0  0  0  0  0
   12.2990   -1.0810   22.5100 C   0  0  0  0  0  0  0  0  0  0  0  0
   12.5790    0.1430   23.0860 C   0  0  0  0  0  0  0  0  0  0  0  0
   13.3090   -1.7520   21.3310 Cl  0  0  0  0  0  0  0  0  0  0  0  0
  1  2  2  3
  1  3  1  0
  3  4  1  0
  5  3  1  1
  6  4  1  6
  5  7  1  0
  6  7  1  0
  5  8  1  0
  8  9  1  1
  6 10  1  0
  8 10  1  0
  9 11  1  0
  9 12  2  0
 10 13  1  0
 13 14  1  0
 14 15  2  0
 14 16  1  0
 15 17  1  0
 16 18  2  0
 17 19  2  0
 18 19  1  0
 18 20  1  0
M  END
