MAK-UNK-8fdbca50-38-vinylsulfonamide
     RDKit          3D

 41 44  0  0  0  0  0  0  0  0999 V2000
    6.6750   -3.3350   19.2580 C   0  0  0  0  0  0  0  0  0  0  0  0
    6.8050   -2.0540   20.0510 C   0  0  0  0  0  0  0  0  0  0  0  0
    6.2100   -2.3520   21.6930 S   0  0  0  0  0  0  0  0  0  0  0  0
    5.0860   -3.5390   21.4960 O   0  0  0  0  0  0  0  0  0  0  0  0
    5.6470   -1.0910   22.1040 O   0  0  0  0  0  0  0  0  0  0  0  0
    7.8490   -2.3220   22.6090 N   0  0  0  0  0  0  0  0  0  0  0  0
    9.2030   -2.2960   21.9010 C   0  0  0  0  0  0  0  0  0  0  0  0
    8.1080   -1.3640   23.7490 C   0  0  0  0  0  0  0  0  0  0  0  0
   10.3770   -2.0620   22.8430 C   0  0  0  0  0  0  0  0  0  0  0  0
    8.9640   -0.3650   23.2970 C   0  0  0  0  0  0  0  0  0  0  0  0
   10.2590   -0.8160   23.3990 C   0  0  0  0  0  0  0  0  0  0  0  0
   10.5550   -0.7150   24.8620 N   0  0  0  0  0  0  0  0  0  0  0  0
   11.1610    0.2480   22.7640 C   0  0  0  0  0  0  0  0  0  0  0  0
    9.4660   -0.1950   25.7050 C   0  0  0  0  0  0  0  0  0  0  0  0
   10.7730    1.3970   22.5350 O   0  0  0  0  0  0  0  0  0  0  0  0
   12.3900   -0.1540   22.4960 N   0  0  0  0  0  0  0  0  0  0  0  0
    8.8470    0.9940   25.2980 C   0  0  0  0  0  0  0  0  0  0  0  0
   13.3490    0.6110   22.9780 C   0  0  0  0  0  0  0  0  0  0  0  0
   12.4980   -1.5140   22.4530 C   0  0  0  0  0  0  0  0  0  0  0  0
    9.4440    2.1270   24.5330 C   0  0  0  0  0  0  0  0  0  0  0  0
    7.5240    1.4600   25.4890 C   0  0  0  0  0  0  0  0  0  0  0  0
   13.0640   -2.0460   21.1460 C   0  0  0  0  0  0  0  0  0  0  0  0
   13.1960   -2.1420   23.6710 C   0  0  0  0  0  0  0  0  0  0  0  0
    8.5490    3.1630   24.3060 C   0  0  0  0  0  0  0  0  0  0  0  0
    7.3550    2.8220   24.8630 N   0  0  0  0  0  0  0  0  0  0  0  0
    8.6890    4.4970   23.6070 C   0  0  0  0  0  0  0  0  0  0  0  0
    5.8820    3.6910   24.9070 S   0  0  0  0  0  0  0  0  0  0  0  0
    7.4900    5.2840   23.0980 C   0  0  0  0  0  0  0  0  0  0  0  0
    9.9830    4.9750   23.4540 C   0  0  0  0  0  0  0  0  0  0  0  0
    6.1750    5.0560   25.2870 O   0  0  0  0  0  0  0  0  0  0  0  0
    5.0040    2.8720   25.7150 O   0  0  0  0  0  0  0  0  0  0  0  0
    5.2910    3.6490   23.2870 C   0  0  0  0  0  0  0  0  0  0  0  0
    7.6900    6.5050   22.4750 C   0  0  0  0  0  0  0  0  0  0  0  0
   10.1680    6.2100   22.8270 C   0  0  0  0  0  0  0  0  0  0  0  0
   11.0580    4.3070   23.8810 F   0  0  0  0  0  0  0  0  0  0  0  0
    5.9700    3.0240   22.2780 C   0  0  0  0  0  0  0  0  0  0  0  0
    4.1000    4.2550   22.9560 C   0  0  0  0  0  0  0  0  0  0  0  0
    9.1100    6.9760   22.3460 C   0  0  0  0  0  0  0  0  0  0  0  0
    5.3930    3.0580   20.9950 C   0  0  0  0  0  0  0  0  0  0  0  0
    3.5360    4.2930   21.7310 N   0  0  0  0  0  0  0  0  0  0  0  0
    4.1680    3.7000   20.7310 C   0  0  0  0  0  0  0  0  0  0  0  0
  1  2  1  0
  3  2  1  0
  3  4  2  0
  3  5  2  0
  3  6  1  0
  6  7  1  0
  6  8  1  0
  7  9  1  0
  8 10  1  0
  9 11  1  0
 10 11  1  0
 11 12  1  0
 11 13  1  0
 12 14  1  0
 13 15  2  0
 13 16  1  0
 14 17  1  0
 16 18  1  0
 16 19  1  0
 17 20  1  0
 17 21  2  0
 19 22  1  0
 19 23  1  0
 20 24  2  0
 21 25  1  0
 24 25  1  0
 24 26  1  0
 25 27  1  0
 26 28  2  0
 26 29  1  0
 27 30  2  0
 27 31  2  0
 27 32  1  0
 28 33  1  0
 29 34  2  0
 29 35  1  0
 32 36  2  0
 32 37  1  0
 33 38  2  0
 34 38  1  0
 36 39  1  0
 37 40  2  0
 39 41  2  0
 40 41  1  0
M  END
