MAK-UNK-849bee6c-1-chloroacetamide
     RDKit          3D

 26 28  0  0  0  0  0  0  0  0999 V2000
    6.9920   -2.9900   18.8070 C   0  0  0  0  0  0  0  0  0  0  0  0
    5.9610   -3.3670   19.8550 C   0  0  0  0  0  0  0  0  0  0  0  0
    5.2860   -4.3840   19.7890 O   0  0  0  0  0  0  0  0  0  0  0  0
    5.7700   -2.5310   20.9440 N   0  0  0  0  0  0  0  0  0  0  0  0
    6.7330   -1.4530   21.1090 C   0  0  0  0  0  0  0  0  0  0  0  0
    5.1800   -3.0320   22.1820 C   0  0  0  0  0  0  0  0  0  0  0  0
    7.6840   -1.7440   22.2690 C   0  0  0  0  0  0  0  0  0  0  0  0
    6.2320   -3.2880   23.2530 C   0  0  0  0  0  0  0  0  0  0  0  0
    6.9370   -2.1560   23.4680 N   0  0  0  0  0  0  0  0  0  0  0  0
    7.4950   -2.0710   24.7640 C   0  0  0  0  0  0  0  0  0  0  0  0
    8.8390   -1.5480   24.5080 C   0  0  0  0  0  0  0  0  0  0  0  0
    9.0280   -0.0460   24.4160 C   0  0  0  0  0  0  0  0  0  0  0  0
    9.8550   -2.4750   24.3420 C   0  0  0  0  0  0  0  0  0  0  0  0
   10.3790    0.3860   24.1280 C   0  0  0  0  0  0  0  0  0  0  0  0
   11.1160   -2.0810   24.0890 C   0  0  0  0  0  0  0  0  0  0  0  0
   10.7160    1.7440   23.9850 C   0  0  0  0  0  0  0  0  0  0  0  0
   11.4270   -0.7020   23.9730 C   0  0  0  0  0  0  0  0  0  0  0  0
   12.1890   -2.9040   23.8950 N   0  0  0  0  0  0  0  0  0  0  0  0
   12.6790   -1.8380   23.2970 C   0  0  0  0  0  0  0  0  0  0  0  0
   12.5090   -0.7800   24.1590 C   0  0  0  0  0  0  0  0  0  0  0  0
   13.2170   -1.6880   22.0460 C   0  0  0  0  0  0  0  0  0  0  0  0
   12.8350    0.4500   23.8580 C   0  0  0  0  0  0  0  0  0  0  0  0
   13.6090   -0.4630   21.6430 N   0  0  0  0  0  0  0  0  0  0  0  0
   13.3610   -2.8750   21.1220 C   0  0  0  0  0  0  0  0  0  0  0  0
   13.3860    0.6080   22.6220 C   0  0  0  0  0  0  0  0  0  0  0  0
   13.6560   -3.9740   20.2780 N   0  0  0  0  0  0  0  0  0  0  0  0
  1  2  1  0
  2  3  2  0
  2  4  1  0
  4  5  1  0
  4  6  1  0
  5  7  1  0
  6  8  1  0
  7  9  1  0
  8  9  1  0
  9 10  1  0
 10 11  1  0
 11 12  2  0
 11 13  1  0
 12 14  1  0
 13 15  2  0
 14 16  1  0
 14 17  2  0
 15 17  1  0
 15 18  1  0
 18 19  1  0
 19 20  2  0
 19 21  1  0
 20 22  1  0
 21 23  2  0
 21 24  1  0
 22 25  2  0
 23 25  1  0
 24 26  3  0
M  END
