MAK-UNK-1cb0e944-1
     RDKit          3D

 20 21  0  0  0  0  0  0  0  0999 V2000
   13.2660   -2.9510   20.7320 N   0  0  0  0  0  0  0  0  0  0  0  0
   12.3910   -2.2470   21.9390 S   0  0  0  0  0  0  0  0  0  0  0  0
   12.5200   -3.0810   23.0750 O   0  0  0  0  0  0  0  0  0  0  0  0
   11.1050   -1.9300   21.3940 O   0  0  0  0  0  0  0  0  0  0  0  0
   13.1960   -0.7490   22.3360 C   0  0  0  0  0  0  0  0  0  0  0  0
   12.2170    0.1160   22.9860 C   0  0  0  0  0  0  0  0  0  0  0  0
   10.9900   -0.5140   23.4790 C   0  0  0  0  0  0  0  0  0  0  0  0
   12.1170    1.4640   23.2870 N   0  0  0  0  0  0  0  0  0  0  0  0
   10.2310    0.5010   24.0480 N   0  0  0  0  0  0  0  0  0  0  0  0
   10.9110    1.6850   23.9270 N   0  0  0  0  0  0  0  0  0  0  0  0
    9.0130    0.1740   24.5930 C   0  0  0  0  0  0  0  0  0  0  0  0
    8.9420   -1.0670   25.5120 C   0  0  0  0  0  0  0  0  0  0  0  0
    9.3900   -0.9480   26.6550 O   0  0  0  0  0  0  0  0  0  0  0  0
    8.3520   -2.1680   24.9160 N   0  0  0  0  0  0  0  0  0  0  0  0
    9.2470   -3.1840   24.6680 C   0  0  0  0  0  0  0  0  0  0  0  0
    7.0290   -2.4310   25.0940 C   0  0  0  0  0  0  0  0  0  0  0  0
    8.9050   -4.3450   25.4160 C   0  0  0  0  0  0  0  0  0  0  0  0
    6.8600   -3.4560   26.0320 C   0  0  0  0  0  0  0  0  0  0  0  0
    8.0340   -4.0570   26.4540 C   0  0  0  0  0  0  0  0  0  0  0  0
    7.6790   -5.3250   26.9860 O   0  0  0  0  0  0  0  0  0  0  0  0
  2  1  1  0
  2  3  2  0
  2  4  2  0
  2  5  1  0
  5  6  1  0
  6  7  2  0
  6  8  1  0
  7  9  1  0
  8 10  2  0
  9 10  1  0
  9 11  1  0
 11 12  1  0
 12 13  2  0
 12 14  1  0
 14 15  1  0
 14 16  1  0
 15 17  1  0
 16 18  1  0
 17 19  1  0
 18 19  1  0
 19 20  1  0
M  END
