MAK-UNK-5e88aa6a-6
     RDKit          3D

 20 21  0  0  0  0  0  0  0  0999 V2000
   11.3610   -2.2290   21.6200 N   0  0  0  0  0  0  0  0  0  0  0  0
   12.9850   -1.9130   21.9640 S   0  0  0  0  0  0  0  0  0  0  0  0
   13.4520   -2.9230   22.8970 O   0  0  0  0  0  0  0  0  0  0  0  0
   13.6170   -1.6450   20.6910 O   0  0  0  0  0  0  0  0  0  0  0  0
   12.8890   -0.3790   22.8360 C   0  0  0  0  0  0  0  0  0  0  0  0
   11.5160    0.0770   23.1610 C   0  0  0  0  0  0  0  0  0  0  0  0
   10.5660   -0.6680   24.0350 C   0  0  0  0  0  0  0  0  0  0  0  0
   10.8370    1.2140   22.7520 N   0  0  0  0  0  0  0  0  0  0  0  0
    9.3760    0.1220   24.0510 N   0  0  0  0  0  0  0  0  0  0  0  0
    9.5700    1.2280   23.2800 N   0  0  0  0  0  0  0  0  0  0  0  0
    8.2380   -0.2320   24.7560 C   0  0  0  0  0  0  0  0  0  0  0  0
    7.6660   -1.6550   24.5950 C   0  0  0  0  0  0  0  0  0  0  0  0
    7.1010   -1.9200   23.5340 O   0  0  0  0  0  0  0  0  0  0  0  0
    7.8580   -2.4740   25.6780 N   0  0  0  0  0  0  0  0  0  0  0  0
    9.0590   -3.0960   25.4810 C   0  0  0  0  0  0  0  0  0  0  0  0
    6.8080   -3.2260   26.1030 C   0  0  0  0  0  0  0  0  0  0  0  0
    9.1800   -4.2290   26.3390 C   0  0  0  0  0  0  0  0  0  0  0  0
    6.9760   -4.5670   25.6990 C   0  0  0  0  0  0  0  0  0  0  0  0
    8.1730   -5.1450   26.1010 C   0  0  0  0  0  0  0  0  0  0  0  0
    7.9030   -5.7260   27.3810 O   0  0  0  0  0  0  0  0  0  0  0  0
  2  1  1  0
  2  3  2  0
  2  4  2  0
  2  5  1  0
  5  6  1  0
  6  7  2  0
  6  8  1  0
  7  9  1  0
  8 10  2  0
  9 10  1  0
  9 11  1  0
 11 12  1  0
 12 13  2  0
 12 14  1  0
 14 15  1  0
 14 16  1  0
 15 17  1  0
 16 18  1  0
 17 19  1  0
 18 19  1  0
 19 20  1  0
M  END
