MAK-UNK-c74072e5-9-vinylsulfonamide
     RDKit          3D

 27 29  0  0  0  0  0  0  0  0999 V2000
    7.3680   -3.0630   19.0170 C   0  0  0  0  0  0  0  0  0  0  0  0
    6.9690   -2.8190   20.4600 C   0  0  0  0  0  0  0  0  0  0  0  0
    5.7200   -3.9730   20.9760 S   0  0  0  0  0  0  0  0  0  0  0  0
    5.1450   -4.6770   19.8580 O   0  0  0  0  0  0  0  0  0  0  0  0
    4.7500   -3.3350   21.8110 O   0  0  0  0  0  0  0  0  0  0  0  0
    6.6020   -5.0740   21.9290 N   0  0  0  0  0  0  0  0  0  0  0  0
    7.3900   -4.5240   22.9150 C   0  0  0  0  0  0  0  0  0  0  0  0
    5.8550   -6.2940   22.2620 C   0  0  0  0  0  0  0  0  0  0  0  0
    6.4310   -4.2190   24.0260 C   0  0  0  0  0  0  0  0  0  0  0  0
    4.9900   -6.0290   23.3380 C   0  0  0  0  0  0  0  0  0  0  0  0
    5.7610   -5.3560   24.4330 N   0  0  0  0  0  0  0  0  0  0  0  0
    5.0080   -5.3640   25.9750 S   0  0  0  0  0  0  0  0  0  0  0  0
    4.1820   -6.5460   26.0560 O   0  0  0  0  0  0  0  0  0  0  0  0
    6.0360   -5.1080   26.9570 O   0  0  0  0  0  0  0  0  0  0  0  0
    3.8950   -3.9750   25.9800 C   0  0  0  0  0  0  0  0  0  0  0  0
    2.4290   -4.2070   25.8150 C   0  0  0  0  0  0  0  0  0  0  0  0
    4.3570   -2.6650   26.1450 C   0  0  0  0  0  0  0  0  0  0  0  0
    1.5190   -3.1680   25.8250 C   0  0  0  0  0  0  0  0  0  0  0  0
    3.4270   -1.6090   26.1570 C   0  0  0  0  0  0  0  0  0  0  0  0
    2.0470   -1.8420   26.0060 C   0  0  0  0  0  0  0  0  0  0  0  0
    3.8000   -0.2740   26.3210 C   0  0  0  0  0  0  0  0  0  0  0  0
    1.1670   -0.8330   26.0230 F   0  0  0  0  0  0  0  0  0  0  0  0
    4.3710    0.1790   27.5220 C   0  0  0  0  0  0  0  0  0  0  0  0
    3.6960    0.8110   25.4050 C   0  0  0  0  0  0  0  0  0  0  0  0
    4.7900    1.8500   27.5940 S   0  0  0  0  0  0  0  0  0  0  0  0
    4.2390    2.1390   26.0060 C   0  0  0  0  0  0  0  0  0  0  0  0
    4.2960    3.3530   25.4250 N   0  0  0  0  0  0  0  0  0  0  0  0
  1  2  1  0
  3  2  1  0
  3  4  2  0
  3  5  2  0
  3  6  1  0
  6  7  1  0
  6  8  1  0
  7  9  1  0
  8 10  1  0
  9 11  1  0
 10 11  1  0
 11 12  1  0
 12 13  2  0
 12 14  2  0
 12 15  1  0
 15 16  2  0
 15 17  1  0
 16 18  1  0
 17 19  2  0
 18 20  2  0
 19 20  1  0
 19 21  1  0
 20 22  1  0
 21 23  2  0
 21 24  1  0
 23 25  1  0
 24 26  2  0
 25 26  1  0
 26 27  1  0
M  END
