MAK-UNK-10572812-14
     RDKit          3D

 34 38  0  0  0  0  0  0  0  0999 V2000
   11.3300   -1.4450   23.6330 C   0  0  0  0  0  0  0  0  0  0  0  0
    9.9140   -1.6110   23.2570 N   0  0  0  0  0  0  0  0  0  0  0  0
    9.1810   -0.5260   23.7740 C   0  0  0  0  0  0  0  0  0  0  0  0
    9.7450   -1.7260   21.8240 C   0  0  0  0  0  0  0  0  0  0  0  0
    8.1840    0.3460   22.9260 C   0  0  0  0  0  0  0  0  0  0  0  0
    8.4350   -1.5240   21.4460 C   0  0  0  0  0  0  0  0  0  0  0  0
    7.9440   -0.1740   21.6960 N   0  0  0  0  0  0  0  0  0  0  0  0
    7.7230    0.6380   20.6400 C   0  0  0  0  0  0  0  0  0  0  0  0
    7.9830    1.8380   20.7740 O   0  0  0  0  0  0  0  0  0  0  0  0
    7.1770    0.0620   19.2800 C   0  0  0  0  0  0  0  0  0  0  0  0
    5.8420    0.7440   19.2320 C   0  0  0  0  0  0  0  0  0  0  0  0
    5.4080    1.6460   18.0970 C   0  0  0  0  0  0  0  0  0  0  0  0
    4.7980    0.6860   20.1980 C   0  0  0  0  0  0  0  0  0  0  0  0
    6.1480    2.1150   16.7650 C   0  0  0  0  0  0  0  0  0  0  0  0
    4.0630    2.0790   18.4790 N   0  0  0  0  0  0  0  0  0  0  0  0
    3.7360    1.5080   19.7120 C   0  0  0  0  0  0  0  0  0  0  0  0
    4.6170    0.0450   21.4250 C   0  0  0  0  0  0  0  0  0  0  0  0
    5.4280    2.8250   16.0750 O   0  0  0  0  0  0  0  0  0  0  0  0
    7.6020    2.0810   16.4110 N   0  0  0  0  0  0  0  0  0  0  0  0
    2.5530    1.7410   20.3220 N   0  0  0  0  0  0  0  0  0  0  0  0
    3.4510    0.1960   22.1700 C   0  0  0  0  0  0  0  0  0  0  0  0
    8.5990    3.1780   15.7280 C   0  0  0  0  0  0  0  0  0  0  0  0
    2.4170    1.1090   21.5100 C   0  0  0  0  0  0  0  0  0  0  0  0
   11.0020    4.3520   16.4780 C   0  0  0  0  0  0  0  0  0  0  0  0
   12.0950    4.1800   17.5370 C   0  0  0  0  0  0  0  0  0  0  0  0
   12.8460    3.8410   18.6770 C   0  0  0  0  0  0  0  0  0  0  0  0
   12.8800    4.8360   16.9620 C   0  0  0  0  0  0  0  0  0  0  0  0
   14.1340    4.0880   18.7630 N   0  0  0  0  0  0  0  0  0  0  0  0
   14.1360    4.7740   17.5730 C   0  0  0  0  0  0  0  0  0  0  0  0
   12.4530    5.5700   15.7830 C   0  0  0  0  0  0  0  0  0  0  0  0
   15.2430    5.4380   16.9570 C   0  0  0  0  0  0  0  0  0  0  0  0
   13.3880    6.3830   15.0710 C   0  0  0  0  0  0  0  0  0  0  0  0
   14.8300    6.3930   15.5640 C   0  0  0  0  0  0  0  0  0  0  0  0
   12.9260    6.9790   14.1330 F   0  0  0  0  0  0  0  0  0  0  0  0
  1  2  1  0
  2  3  1  0
  2  4  1  0
  3  5  1  0
  4  6  1  0
  5  7  1  0
  6  7  1  0
  7  8  1  0
  8  9  2  0
  8 10  1  0
 10 11  1  0
 11 12  2  0
 11 13  1  0
 12 14  1  0
 12 15  1  0
 13 16  2  0
 15 16  1  0
 13 17  1  0
 14 18  2  0
 14 19  1  0
 16 20  1  0
 17 21  2  0
 19 22  1  0
 20 23  2  0
 21 23  1  0
 22 24  1  0
 24 25  1  0
 25 26  2  0
 25 27  1  0
 26 28  1  0
 27 29  2  0
 28 29  1  0
 27 30  1  0
 29 31  1  0
 30 32  2  0
 31 33  2  0
 32 33  1  0
 32 34  1  0
M  END
