MAK-UNK-9a6be56d-15
     RDKit          3D

 38 42  0  0  0  0  0  0  0  0999 V2000
    8.9880    1.6380   32.2470 C   0  0  0  0  0  0  0  0  0  0  0  0
    8.3790    1.7460   30.9250 N   0  0  0  0  0  0  0  0  0  0  0  0
    9.1200    0.8900   29.9870 C   0  0  0  0  0  0  0  0  0  0  0  0
    8.4920    0.7710   28.7550 C   0  0  0  0  0  0  0  0  0  0  0  0
    8.0450    1.8550   28.0490 C   0  0  0  0  0  0  0  0  0  0  0  0
    8.1690   -0.3420   27.9690 C   0  0  0  0  0  0  0  0  0  0  0  0
    7.4850    1.4680   26.8850 C   0  0  0  0  0  0  0  0  0  0  0  0
    7.5440    0.0860   26.7860 N   0  0  0  0  0  0  0  0  0  0  0  0
    6.9160    2.2890   25.8960 C   0  0  0  0  0  0  0  0  0  0  0  0
    6.9930   -0.9710   25.5710 S   0  0  0  0  0  0  0  0  0  0  0  0
    7.1500    2.0210   24.4170 C   0  0  0  0  0  0  0  0  0  0  0  0
    6.1040    3.4030   26.2190 C   0  0  0  0  0  0  0  0  0  0  0  0
    7.1310   -2.2980   26.1110 O   0  0  0  0  0  0  0  0  0  0  0  0
    5.6510   -0.5110   25.2950 O   0  0  0  0  0  0  0  0  0  0  0  0
    7.8010   -0.9040   23.9460 C   0  0  0  0  0  0  0  0  0  0  0  0
    6.6040    2.8160   23.4210 C   0  0  0  0  0  0  0  0  0  0  0  0
    5.5050    4.2760   25.0990 C   0  0  0  0  0  0  0  0  0  0  0  0
    5.8470    3.7120   27.5030 F   0  0  0  0  0  0  0  0  0  0  0  0
    6.7480   -1.2030   22.8340 C   0  0  0  0  0  0  0  0  0  0  0  0
    9.2610   -0.6330   23.3650 C   0  0  0  0  0  0  0  0  0  0  0  0
    5.7400    4.0010   23.7560 C   0  0  0  0  0  0  0  0  0  0  0  0
    6.9110   -1.2570   21.5210 N   0  0  0  0  0  0  0  0  0  0  0  0
    9.2700   -0.7370   21.8380 C   0  0  0  0  0  0  0  0  0  0  0  0
   10.4220   -0.3400   23.9600 N   0  0  0  0  0  0  0  0  0  0  0  0
    8.1740   -1.0230   21.0380 C   0  0  0  0  0  0  0  0  0  0  0  0
   11.1410   -1.5140   23.9610 C   0  0  0  0  0  0  0  0  0  0  0  0
   11.2440    0.7630   23.4840 C   0  0  0  0  0  0  0  0  0  0  0  0
   12.0370   -1.5690   22.8710 C   0  0  0  0  0  0  0  0  0  0  0  0
   12.5520    0.5770   23.0540 C   0  0  0  0  0  0  0  0  0  0  0  0
   10.7790    2.0530   23.4300 C   0  0  0  0  0  0  0  0  0  0  0  0
   13.0580   -0.6500   23.0630 C   0  0  0  0  0  0  0  0  0  0  0  0
   13.3710    1.7150   22.5930 C   0  0  0  0  0  0  0  0  0  0  0  0
   11.5680    3.1320   23.0070 C   0  0  0  0  0  0  0  0  0  0  0  0
   12.8770    3.0000   22.5750 C   0  0  0  0  0  0  0  0  0  0  0  0
   10.9230    4.7950   23.0170 S   0  0  0  0  0  0  0  0  0  0  0  0
   11.7110    5.5540   21.7780 N   0  0  0  0  0  0  0  0  0  0  0  0
    9.5020    4.8300   22.7580 O   0  0  0  0  0  0  0  0  0  0  0  0
   11.4980    5.4820   24.1190 O   0  0  0  0  0  0  0  0  0  0  0  0
  1  2  1  0
  2  3  1  0
  3  4  1  0
  4  5  1  0
  4  6  2  0
  5  7  2  0
  6  8  1  0
  7  8  1  0
  7  9  1  0
  8 10  1  0
  9 11  2  0
  9 12  1  0
 10 13  2  0
 10 14  2  0
 10 15  1  0
 11 16  1  0
 12 17  2  0
 12 18  1  0
 15 19  2  0
 15 20  1  0
 16 21  2  0
 17 21  1  0
 19 22  1  0
 20 23  2  0
 20 24  1  0
 22 25  2  0
 23 25  1  0
 24 26  1  0
 24 27  1  0
 26 28  1  0
 27 29  2  0
 27 30  1  0
 28 31  1  0
 29 31  1  0
 29 32  1  0
 30 33  2  0
 32 34  2  0
 33 34  1  0
 33 35  1  0
 35 36  1  0
 35 37  2  0
 35 38  2  0
M  END
