MAK-UNK-212f693e-11-acrylamide
     RDKit          3D

 16 17  0  0  0  0  0  0  0  0999 V2000
    7.3660   -3.1040   19.1550 C   0  0  0  0  0  0  0  0  0  0  0  0
    6.9490   -3.1490   20.6070 C   0  0  0  0  0  0  0  0  0  0  0  0
    6.0750   -4.3530   20.7900 C   0  0  0  0  0  0  0  0  0  0  0  0
    5.1910   -4.6010   19.9670 O   0  0  0  0  0  0  0  0  0  0  0  0
    6.3090   -5.1660   21.8930 N   0  0  0  0  0  0  0  0  0  0  0  0
    6.7730   -4.5670   23.1570 C   0  0  0  0  0  0  0  0  0  0  0  0
    5.4000   -6.0330   22.3690 C   0  0  0  0  0  0  0  0  0  0  0  0
    5.6910   -3.6950   23.8060 C   0  0  0  0  0  0  0  0  0  0  0  0
    4.7050   -5.7570   23.4360 N   0  0  0  0  0  0  0  0  0  0  0  0
    5.4920   -5.0790   24.3920 C   0  0  2  0  0  0  0  0  0  0  0  0
    4.7740   -4.9330   25.3960 O   0  0  0  0  0  0  0  0  0  0  0  0
    3.7830   -3.9630   25.4790 C   0  0  0  0  0  0  0  0  0  0  0  0
    3.8650   -2.4410   25.7470 C   0  0  0  0  0  0  0  0  0  0  0  0
    2.4190   -4.2580   25.3230 C   0  0  0  0  0  0  0  0  0  0  0  0
    2.5700   -1.7250   25.7750 C   0  0  0  0  0  0  0  0  0  0  0  0
    1.3020   -2.8340   25.4910 S   0  0  0  0  0  0  0  0  0  0  0  0
  1  2  1  0
  2  3  1  0
  3  4  2  0
  3  5  1  0
  5  6  1  0
  5  7  1  0
  6  8  1  0
  7  9  1  0
  8 10  1  0
  9 10  1  0
 10 11  1  1
 11 12  1  0
 12 13  1  0
 12 14  2  0
 13 15  2  0
 14 16  1  0
 15 16  1  0
M  END
