MAK-UNK-ec98eaf6-47-chloroacetamide
     RDKit          3D

 26 29  0  0  0  0  0  0  0  0999 V2000
    7.1480   -3.0720   19.0180 C   0  0  0  0  0  0  0  0  0  0  0  0
    6.0820   -3.4290   20.0330 C   0  0  0  0  0  0  0  0  0  0  0  0
    5.2950   -4.3450   19.8060 O   0  0  0  0  0  0  0  0  0  0  0  0
    5.9960   -2.7250   21.2200 N   0  0  0  0  0  0  0  0  0  0  0  0
    6.2020   -3.4520   22.4610 C   0  0  0  0  0  0  0  0  0  0  0  0
    6.5580   -1.3940   21.5900 C   0  0  1  0  0  0  0  0  0  0  0  0
    6.4230   -2.3700   23.4950 C   0  0  2  0  0  0  0  0  0  0  0  0
    5.7570   -1.1360   22.8720 C   0  0  0  0  0  0  0  0  0  0  0  0
    7.9630   -1.6140   22.1380 C   0  0  0  0  0  0  0  0  0  0  0  0
    7.8690   -1.9760   23.4930 N   0  0  0  0  0  0  0  0  0  0  0  0
    8.1790   -0.9770   24.5350 C   0  0  0  0  0  0  0  0  0  0  0  0
    9.4220   -0.2030   24.1970 C   0  0  0  0  0  0  0  0  0  0  0  0
    9.6950    1.1250   24.5530 C   0  0  0  0  0  0  0  0  0  0  0  0
   10.3480   -0.8770   23.4690 C   0  0  0  0  0  0  0  0  0  0  0  0
   10.9090    1.7220   24.1560 C   0  0  0  0  0  0  0  0  0  0  0  0
   11.5340   -0.3020   23.0940 C   0  0  0  0  0  0  0  0  0  0  0  0
   10.3470   -2.1660   22.9660 N   0  0  0  0  0  0  0  0  0  0  0  0
   11.8100    0.9850   23.4400 C   0  0  0  0  0  0  0  0  0  0  0  0
   12.2630   -1.2570   22.3720 C   0  0  0  0  0  0  0  0  0  0  0  0
   11.5560   -2.3930   22.2680 C   0  0  0  0  0  0  0  0  0  0  0  0
   13.3820   -1.1880   21.8610 C   0  0  0  0  0  0  0  0  0  0  0  0
   13.3790   -2.4800   21.1330 C   0  0  0  0  0  0  0  0  0  0  0  0
   13.9060   -3.1870   20.4670 N   0  0  0  0  0  0  0  0  0  0  0  0
   13.6290   -4.4600   20.0220 C   0  0  0  0  0  0  0  0  0  0  0  0
   14.7780   -5.4610   20.3600 C   0  0  0  0  0  0  0  0  0  0  0  0
   12.6110   -4.6680   19.3840 O   0  0  0  0  0  0  0  0  0  0  0  0
  1  2  1  0
  2  3  2  0
  2  4  1  0
  4  5  1  0
  4  6  1  0
  7  5  1  6
  6  8  1  0
  7  8  1  0
  6  9  1  1
  7 10  1  0
  9 10  1  0
 10 11  1  0
 11 12  1  0
 12 13  1  0
 12 14  2  0
 13 15  2  0
 14 16  1  0
 14 17  1  0
 15 18  1  0
 16 18  2  0
 16 19  1  0
 17 20  1  0
 19 20  2  0
 19 21  1  0
 21 22  1  0
 22 23  1  0
 23 24  1  0
 24 25  1  0
 24 26  2  0
M  END
