MAK-UNK-849bee6c-8-vinylsulfonamide
     RDKit          3D

 28 30  0  0  0  0  0  0  0  0999 V2000
    7.8060   -2.9050   18.6410 C   0  0  0  0  0  0  0  0  0  0  0  0
    6.3880   -2.5620   18.5520 C   0  0  0  0  0  0  0  0  0  0  0  0
    5.4910   -3.2750   19.9110 S   0  0  0  0  0  0  0  0  0  0  0  0
    4.2550   -2.9260   19.5170 O   0  0  0  0  0  0  0  0  0  0  0  0
    5.4800   -4.7120   20.0540 O   0  0  0  0  0  0  0  0  0  0  0  0
    6.0180   -2.4170   21.2720 N   0  0  0  0  0  0  0  0  0  0  0  0
    7.0060   -1.3650   21.0770 C   0  0  0  0  0  0  0  0  0  0  0  0
    6.0350   -3.1370   22.5460 C   0  0  0  0  0  0  0  0  0  0  0  0
    8.3750   -1.7330   21.6620 C   0  0  0  0  0  0  0  0  0  0  0  0
    7.4520   -3.3500   23.1160 C   0  0  0  0  0  0  0  0  0  0  0  0
    8.2520   -2.2440   23.0240 N   0  0  0  0  0  0  0  0  0  0  0  0
    9.3590   -2.2530   23.9290 C   0  0  0  0  0  0  0  0  0  0  0  0
   10.5200   -1.3570   23.5780 C   0  0  0  0  0  0  0  0  0  0  0  0
   11.8910   -1.9310   23.3180 C   0  0  0  0  0  0  0  0  0  0  0  0
   10.3400    0.0450   23.4850 C   0  0  0  0  0  0  0  0  0  0  0  0
   12.9300   -0.9560   22.9910 C   0  0  0  0  0  0  0  0  0  0  0  0
   11.3950    0.9420   23.1630 C   0  0  0  0  0  0  0  0  0  0  0  0
   12.6520    0.4010   22.9320 C   0  0  0  0  0  0  0  0  0  0  0  0
   11.2000    2.3330   23.0880 C   0  0  0  0  0  0  0  0  0  0  0  0
    9.8740    2.9290   23.3170 C   0  0  0  0  0  0  0  0  0  0  0  0
    9.7370    3.7710   24.4230 C   0  0  0  0  0  0  0  0  0  0  0  0
    8.8680    3.4400   25.4430 C   0  0  0  0  0  0  0  0  0  0  0  0
   10.4940    4.9460   24.4770 N   0  0  0  0  0  0  0  0  0  0  0  0
    8.6350    4.2090   26.6340 C   0  0  0  0  0  0  0  0  0  0  0  0
   10.2730    5.7450   25.6790 C   0  0  0  0  0  0  0  0  0  0  0  0
    9.3660    5.4560   26.8070 N   0  0  0  0  0  0  0  0  0  0  0  0
   11.1500    7.0020   25.6300 C   0  0  0  0  0  0  0  0  0  0  0  0
   11.8110    7.9600   25.5920 N   0  0  0  0  0  0  0  0  0  0  0  0
  1  2  1  0
  3  2  1  0
  3  4  2  0
  3  5  2  0
  3  6  1  0
  6  7  1  0
  6  8  1  0
  7  9  1  0
  8 10  1  0
  9 11  1  0
 10 11  1  0
 11 12  1  0
 12 13  1  0
 13 14  2  0
 13 15  1  0
 14 16  1  0
 15 17  2  0
 16 18  2  0
 17 18  1  0
 17 19  1  0
 19 20  1  0
 20 21  1  0
 21 22  2  0
 21 23  1  0
 22 24  1  0
 23 25  2  0
 24 26  2  0
 25 26  1  0
 25 27  1  0
 27 28  3  0
M  END
