MAK-UNK-ec98eaf6-47-acrylamide
     RDKit          3D

 27 30  0  0  0  0  0  0  0  0999 V2000
    7.2720   -2.9300   18.6720 C   0  0  0  0  0  0  0  0  0  0  0  0
    6.0230   -2.7910   19.5710 C   0  0  0  0  0  0  0  0  0  0  0  0
    5.7960   -3.7910   20.6940 C   0  0  0  0  0  0  0  0  0  0  0  0
    5.1480   -4.3770   19.8200 O   0  0  0  0  0  0  0  0  0  0  0  0
    6.5800   -2.8770   21.4020 N   0  0  0  0  0  0  0  0  0  0  0  0
    6.7930   -1.4380   21.2420 C   0  0  0  0  0  0  0  0  0  0  0  0
    7.2540   -3.1820   22.6860 C   0  0  1  0  0  0  0  0  0  0  0  0
    7.6680   -1.1750   22.4330 C   0  0  2  0  0  0  0  0  0  0  0  0
    8.4600   -2.4960   22.5040 C   0  0  0  0  0  0  0  0  0  0  0  0
    6.4740   -2.5440   23.7790 C   0  0  0  0  0  0  0  0  0  0  0  0
    7.0260   -1.1840   23.7970 N   0  0  0  0  0  0  0  0  0  0  0  0
    7.9420   -0.8500   24.8900 C   0  0  0  0  0  0  0  0  0  0  0  0
    9.1350   -0.3020   24.4340 C   0  0  0  0  0  0  0  0  0  0  0  0
    9.2100    1.0500   23.9950 C   0  0  0  0  0  0  0  0  0  0  0  0
   10.2920   -1.0760   24.3960 C   0  0  0  0  0  0  0  0  0  0  0  0
   10.4090    1.6000   23.5210 C   0  0  0  0  0  0  0  0  0  0  0  0
   11.4810   -0.5670   23.9300 C   0  0  0  0  0  0  0  0  0  0  0  0
   10.4510   -2.2010   24.7240 N   0  0  0  0  0  0  0  0  0  0  0  0
   11.5730    0.7160   23.4980 C   0  0  0  0  0  0  0  0  0  0  0  0
   12.2850   -1.5110   24.0210 C   0  0  0  0  0  0  0  0  0  0  0  0
   11.7760   -2.6230   24.5360 C   0  0  0  0  0  0  0  0  0  0  0  0
   13.5530   -1.1770   23.5430 C   0  0  0  0  0  0  0  0  0  0  0  0
   13.3810   -1.2730   22.0510 C   0  0  0  0  0  0  0  0  0  0  0  0
   13.3910   -1.7270   21.0240 N   0  0  0  0  0  0  0  0  0  0  0  0
   12.4390   -2.6710   20.8530 C   0  0  0  0  0  0  0  0  0  0  0  0
   11.1120   -2.3120   21.5610 C   0  0  0  0  0  0  0  0  0  0  0  0
   12.6150   -3.7130   20.2180 O   0  0  0  0  0  0  0  0  0  0  0  0
  1  2  1  0
  2  3  1  0
  3  4  2  0
  3  5  1  0
  5  6  1  0
  5  7  1  0
  8  6  1  6
  7  9  1  0
  8  9  1  0
  7 10  1  1
  8 11  1  0
 10 11  1  0
 11 12  1  0
 12 13  1  0
 13 14  1  0
 13 15  2  0
 14 16  2  0
 15 17  1  0
 15 18  1  0
 16 19  1  0
 17 19  2  0
 17 20  1  0
 18 21  1  0
 20 21  2  0
 20 22  1  0
 22 23  1  0
 23 24  1  0
 24 25  1  0
 25 26  1  0
 25 27  2  0
M  END
