MAK-UNK-af83ef51-26-bromoalkyne
     RDKit          3D

 29 31  0  0  0  0  0  0  0  0999 V2000
    6.4450   -3.7740   19.7850 C   0  0  0  0  0  0  0  0  0  0  0  0
    5.5820   -3.0250   18.8400 C   0  0  0  0  0  0  0  0  0  0  0  0
    6.0490   -3.8920   21.1190 N   0  0  0  0  0  0  0  0  0  0  0  0
    6.4400   -4.9300   22.0720 C   0  0  0  0  0  0  0  0  0  0  0  0
    5.5020   -2.7080   21.7630 C   0  0  0  0  0  0  0  0  0  0  0  0
    6.5880   -4.3680   23.4930 C   0  0  0  0  0  0  0  0  0  0  0  0
    6.5610   -2.0570   22.6320 C   0  0  0  0  0  0  0  0  0  0  0  0
    7.2990   -3.0390   23.4600 N   0  0  0  0  0  0  0  0  0  0  0  0
    8.6070   -3.0350   23.1430 C   0  0  0  0  0  0  0  0  0  0  0  0
    9.3320   -1.7980   23.7120 C   0  0  2  0  0  0  0  0  0  0  0  0
    8.4240   -0.6040   23.9170 C   0  0  0  0  0  0  0  0  0  0  0  0
   10.4400   -1.4360   22.9370 C   0  0  2  0  0  0  0  0  0  0  0  0
    9.0250    0.4570   23.1020 N   0  0  0  0  0  0  0  0  0  0  0  0
   10.0520   -0.2240   22.2810 C   0  0  0  0  0  0  0  0  0  0  0  0
   10.7160   -2.3680   22.1740 O   0  0  0  0  0  0  0  0  0  0  0  0
    8.0230    1.4190   22.5920 C   0  0  0  0  0  0  0  0  0  0  0  0
   12.0410   -2.2390   21.6580 C   0  0  0  0  0  0  0  0  0  0  0  0
    6.6740    1.1780   22.6150 O   0  0  0  0  0  0  0  0  0  0  0  0
    8.6240    2.7020   22.0450 C   0  0  0  0  0  0  0  0  0  0  0  0
    8.7880    3.7240   23.0010 C   0  0  0  0  0  0  0  0  0  0  0  0
   10.1140    3.7780   23.4630 N   0  0  0  0  0  0  0  0  0  0  0  0
   10.9310    2.6770   23.5190 C   0  0  0  0  0  0  0  0  0  0  0  0
   10.3880    1.6390   24.2540 C   0  0  0  0  0  0  0  0  0  0  0  0
   12.1370    2.5780   22.9290 N   0  0  0  0  0  0  0  0  0  0  0  0
   11.1520    0.3750   24.3850 C   0  0  0  0  0  0  0  0  0  0  0  0
   12.8390    1.3870   23.0580 C   0  0  0  0  0  0  0  0  0  0  0  0
   12.4820    0.1920   23.7480 C   0  0  0  0  0  0  0  0  0  0  0  0
   13.2630   -0.8950   23.7830 C   0  0  0  0  0  0  0  0  0  0  0  0
   13.0720   -1.7430   25.0110 N   0  0  0  0  0  0  0  0  0  0  0  0
  1  2  2  3
  1  3  1  0
  3  4  1  0
  3  5  1  0
  4  6  1  0
  5  7  1  0
  6  8  1  0
  7  8  1  0
  8  9  1  0
 10  9  1  6
 10 11  1  0
 10 12  1  0
 11 13  1  0
 12 14  1  0
 13 14  1  0
 12 15  1  6
 13 16  1  0
 15 17  1  0
 16 18  2  0
 16 19  1  0
 19 20  1  0
 20 21  1  0
 21 22  1  0
 22 23  2  0
 22 24  1  0
 23 25  1  0
 24 26  2  0
 25 27  2  0
 26 27  1  0
 27 28  1  0
 28 29  3  0
M  END
