MAK-UNK-8fdbca50-38-nitrile
     RDKit          3D

 38 41  0  0  0  0  0  0  0  0999 V2000
    7.4730   -3.3670   20.1550 C   0  0  0  0  0  0  0  0  0  0  0  0
    6.7970   -2.8030   19.1540 N   0  0  0  0  0  0  0  0  0  0  0  0
    8.2760   -2.6200   21.3950 N   0  0  0  0  0  0  0  0  0  0  0  0
    8.2480   -2.9020   22.8690 C   0  0  0  0  0  0  0  0  0  0  0  0
    9.4920   -1.6840   21.3310 C   0  0  0  0  0  0  0  0  0  0  0  0
    9.6510   -3.2070   23.3170 C   0  0  0  0  0  0  0  0  0  0  0  0
   10.0750   -1.0480   22.4530 C   0  0  0  0  0  0  0  0  0  0  0  0
   10.0860   -1.8880   23.7120 C   0  0  0  0  0  0  0  0  0  0  0  0
    8.9340   -1.3210   24.5190 N   0  0  0  0  0  0  0  0  0  0  0  0
   11.5010   -1.8070   24.3620 C   0  0  0  0  0  0  0  0  0  0  0  0
    9.1200   -0.0940   25.2830 C   0  0  0  0  0  0  0  0  0  0  0  0
   12.0290   -2.7620   24.9460 O   0  0  0  0  0  0  0  0  0  0  0  0
   12.1460   -0.6650   24.2420 N   0  0  0  0  0  0  0  0  0  0  0  0
    8.4380    0.9820   24.7020 C   0  0  0  0  0  0  0  0  0  0  0  0
   11.5250    0.5340   24.1340 C   0  0  0  0  0  0  0  0  0  0  0  0
   13.1520   -0.7600   23.3960 C   0  0  0  0  0  0  0  0  0  0  0  0
    8.9790    2.2060   24.5040 C   0  0  0  0  0  0  0  0  0  0  0  0
    7.1240    1.1570   24.1880 C   0  0  0  0  0  0  0  0  0  0  0  0
   12.9950   -1.6740   22.3550 C   0  0  0  0  0  0  0  0  0  0  0  0
   13.2730    0.6410   22.8400 C   0  0  0  0  0  0  0  0  0  0  0  0
    8.0550    3.1710   23.9020 C   0  0  0  0  0  0  0  0  0  0  0  0
    6.9050    2.4690   23.7090 N   0  0  0  0  0  0  0  0  0  0  0  0
    8.2540    4.5520   23.5650 C   0  0  0  0  0  0  0  0  0  0  0  0
    5.4090    2.9910   23.0240 S   0  0  0  0  0  0  0  0  0  0  0  0
    9.3250    5.1810   22.7620 C   0  0  0  0  0  0  0  0  0  0  0  0
    7.2710    5.3710   24.1110 C   0  0  0  0  0  0  0  0  0  0  0  0
    5.4420    4.4340   22.9710 O   0  0  0  0  0  0  0  0  0  0  0  0
    4.3770    2.3090   23.7700 O   0  0  0  0  0  0  0  0  0  0  0  0
    5.3610    2.4130   21.3320 C   0  0  0  0  0  0  0  0  0  0  0  0
    9.2930    6.6810   22.5640 C   0  0  0  0  0  0  0  0  0  0  0  0
    7.2820    6.7690   23.9000 C   0  0  0  0  0  0  0  0  0  0  0  0
    6.2920    4.8330   24.8550 F   0  0  0  0  0  0  0  0  0  0  0  0
    4.4990    2.9500   20.3870 C   0  0  0  0  0  0  0  0  0  0  0  0
    6.1720    1.4110   20.8950 C   0  0  0  0  0  0  0  0  0  0  0  0
    8.2720    7.4250   23.1390 C   0  0  0  0  0  0  0  0  0  0  0  0
    4.4700    2.4860   19.0780 C   0  0  0  0  0  0  0  0  0  0  0  0
    6.1770    0.8940   19.5410 N   0  0  0  0  0  0  0  0  0  0  0  0
    5.3150    1.4360   18.6160 C   0  0  0  0  0  0  0  0  0  0  0  0
  1  2  2  3
  1  3  1  0
  3  4  1  0
  3  5  1  0
  4  6  1  0
  5  7  1  0
  6  8  1  0
  7  8  1  0
  8  9  1  0
  8 10  1  0
  9 11  1  0
 10 12  2  0
 10 13  1  0
 11 14  1  0
 13 15  1  0
 13 16  1  0
 14 17  1  0
 14 18  2  0
 16 19  1  0
 16 20  1  0
 17 21  2  0
 18 22  1  0
 21 22  1  0
 21 23  1  0
 22 24  1  0
 23 25  2  0
 23 26  1  0
 24 27  2  0
 24 28  2  0
 24 29  1  0
 25 30  1  0
 26 31  2  0
 26 32  1  0
 29 33  2  0
 29 34  1  0
 30 35  2  0
 31 35  1  0
 33 36  1  0
 34 37  2  0
 36 38  2  0
 37 38  1  0
M  END
