MAK-UNK-10dfa458-18-acrylamide
     RDKit          3D

 18 19  0  0  0  0  0  0  0  0999 V2000
    7.0610   -3.5920   19.5650 C   0  0  0  0  0  0  0  0  0  0  0  0
    6.4470   -4.7410   20.3070 C   0  0  0  0  0  0  0  0  0  0  0  0
    5.3470   -4.1850   21.0280 C   0  0  0  0  0  0  0  0  0  0  0  0
    5.0870   -3.7550   19.9000 O   0  0  0  0  0  0  0  0  0  0  0  0
    6.0430   -4.9130   21.9500 N   0  0  0  0  0  0  0  0  0  0  0  0
    5.4640   -6.1780   22.3610 C   0  0  0  0  0  0  0  0  0  0  0  0
    6.9640   -4.3460   22.9770 C   0  0  0  0  0  0  0  0  0  0  0  0
    5.2620   -5.8250   23.7830 C   0  0  0  0  0  0  0  0  0  0  0  0
    6.2680   -4.0010   24.1630 C   0  0  0  0  0  0  0  0  0  0  0  0
    5.5720   -5.2210   24.6700 N   0  0  0  0  0  0  0  0  0  0  0  0
    4.5860   -5.1240   26.0190 S   0  0  0  0  0  0  0  0  0  0  0  0
    3.7380   -6.2870   26.0520 O   0  0  0  0  0  0  0  0  0  0  0  0
    5.4260   -4.7290   27.1210 O   0  0  0  0  0  0  0  0  0  0  0  0
    3.4850   -3.7970   25.8370 C   0  0  0  0  0  0  0  0  0  0  0  0
    2.0050   -3.9080   25.4610 C   0  0  0  0  0  0  0  0  0  0  0  0
    3.8060   -2.4440   26.0190 C   0  0  0  0  0  0  0  0  0  0  0  0
    1.3540   -2.7090   25.3960 C   0  0  0  0  0  0  0  0  0  0  0  0
    2.4670   -1.3620   25.7750 S   0  0  0  0  0  0  0  0  0  0  0  0
  1  2  1  0
  2  3  1  0
  3  4  2  0
  3  5  1  0
  5  6  1  0
  5  7  1  0
  6  8  1  0
  7  9  1  0
  8 10  1  0
  9 10  1  0
 10 11  1  0
 11 12  2  0
 11 13  2  0
 11 14  1  0
 14 15  1  0
 14 16  2  0
 15 17  2  0
 16 18  1  0
 17 18  1  0
M  END
