MAK-UNK-8145c7a0-7
     RDKit          3D

 26 28  0  0  0  0  0  0  0  0999 V2000
    9.1760   -5.5150   26.1440 C   0  0  0  0  0  0  0  0  0  0  0  0
    8.8520   -4.1510   25.5020 C   0  0  0  0  0  0  0  0  0  0  0  0
    7.9320   -3.3300   26.1170 N   0  0  0  0  0  0  0  0  0  0  0  0
    9.5740   -3.5710   24.0610 S   0  0  0  0  0  0  0  0  0  0  0  0
    7.8530   -2.2170   25.3540 N   0  0  0  0  0  0  0  0  0  0  0  0
    8.6370   -2.1670   24.2490 C   0  0  0  0  0  0  0  0  0  0  0  0
    8.7130   -1.0170   23.2680 C   0  0  0  0  0  0  0  0  0  0  0  0
    9.9370   -0.5190   23.0450 N   0  0  0  0  0  0  0  0  0  0  0  0
   10.7770   -1.1600   22.0640 C   0  0  0  0  0  0  0  0  0  0  0  0
   10.0360    0.9010   23.2720 C   0  0  1  0  0  0  0  0  0  0  0  0
   12.2500   -0.9140   22.3400 C   0  0  0  0  0  0  0  0  0  0  0  0
   11.4420    1.5420   22.9730 C   0  0  0  0  0  0  0  0  0  0  0  0
    8.9460    1.9090   22.3970 S   0  0  0  0  0  0  0  0  0  0  0  0
   13.2020   -1.8360   22.1680 F   0  0  0  0  0  0  0  0  0  0  0  0
   12.5800    0.4900   22.8320 C   0  0  0  0  0  0  0  0  0  0  0  0
    8.9610    1.5410   21.0140 O   0  0  0  0  0  0  0  0  0  0  0  0
    7.7250    2.0450   23.1460 O   0  0  0  0  0  0  0  0  0  0  0  0
    9.6820    3.4220   22.4150 N   0  0  0  0  0  0  0  0  0  0  0  0
    9.2860    4.3590   23.4030 C   0  0  0  0  0  0  0  0  0  0  0  0
    9.9280    4.1760   24.6900 C   0  0  0  0  0  0  0  0  0  0  0  0
   10.5910    5.3560   25.0730 C   0  0  0  0  0  0  0  0  0  0  0  0
   10.5940    5.7890   26.4120 C   0  0  0  0  0  0  0  0  0  0  0  0
   11.2830    6.1550   24.1370 C   0  0  0  0  0  0  0  0  0  0  0  0
   11.2690    6.9630   26.7440 C   0  0  0  0  0  0  0  0  0  0  0  0
   11.9490    7.3240   24.4920 C   0  0  0  0  0  0  0  0  0  0  0  0
   11.9420    7.7350   25.8130 C   0  0  0  0  0  0  0  0  0  0  0  0
  1  2  1  0
  2  3  2  0
  2  4  1  0
  3  5  1  0
  4  6  1  0
  5  6  2  0
  6  7  1  0
  7  8  1  0
  8  9  1  0
  8 10  1  0
  9 11  1  0
 10 12  1  0
 10 13  1  6
 11 14  1  0
 11 15  2  0
 12 15  1  0
 13 16  2  0
 13 17  2  0
 13 18  1  0
 18 19  1  0
 19 20  1  0
 20 21  1  0
 21 22  2  0
 21 23  1  0
 22 24  1  0
 23 25  2  0
 24 26  2  0
 25 26  1  0
M  END
