MAK-UNK-8fdbca50-15-acrylamide
     RDKit          3D

 40 43  0  0  0  0  0  0  0  0999 V2000
    8.3330   -3.1270   20.1190 C   0  0  0  0  0  0  0  0  0  0  0  0
    7.1620   -2.1380   20.1090 C   0  0  0  0  0  0  0  0  0  0  0  0
    6.0220   -2.6130   21.0070 C   0  0  0  0  0  0  0  0  0  0  0  0
    5.1510   -3.4630   20.6640 O   0  0  0  0  0  0  0  0  0  0  0  0
    6.0150   -1.9910   22.2450 N   0  0  0  0  0  0  0  0  0  0  0  0
    6.6360   -2.5770   23.4320 C   0  0  0  0  0  0  0  0  0  0  0  0
    6.3480   -0.5800   22.1670 C   0  0  0  0  0  0  0  0  0  0  0  0
    7.1500   -1.6240   24.3540 C   0  0  0  0  0  0  0  0  0  0  0  0
    7.8370   -0.3830   22.4610 C   0  0  0  0  0  0  0  0  0  0  0  0
    8.1620   -0.7520   23.9190 C   0  0  0  0  0  0  0  0  0  0  0  0
    9.4660   -1.2870   23.9530 C   0  0  0  0  0  0  0  0  0  0  0  0
   10.0890   -1.1690   25.0030 O   0  0  0  0  0  0  0  0  0  0  0  0
   10.0220   -1.9860   22.7140 N   0  0  0  0  0  0  0  0  0  0  0  0
   10.4870   -1.0890   21.6700 C   0  0  0  0  0  0  0  0  0  0  0  0
   10.6540   -3.2920   22.8020 C   0  0  1  0  0  0  0  0  0  0  0  0
   11.6170   -3.1850   23.9590 C   0  0  0  0  0  0  0  0  0  0  0  0
    9.4760   -4.1890   23.1010 C   0  0  0  0  0  0  0  0  0  0  0  0
    9.1680   -3.6380   24.3420 C   0  0  0  0  0  0  0  0  0  0  0  0
    8.7640   -5.2720   22.4340 C   0  0  0  0  0  0  0  0  0  0  0  0
    8.0430   -4.0510   25.1580 C   0  0  0  0  0  0  0  0  0  0  0  0
    7.5820   -5.5760   23.3720 C   0  0  0  0  0  0  0  0  0  0  0  0
    9.1530   -5.9350   20.9850 C   0  0  0  0  0  0  0  0  0  0  0  0
    7.2980   -5.0030   24.6050 C   0  0  0  0  0  0  0  0  0  0  0  0
    6.5620   -6.4470   23.2240 F   0  0  0  0  0  0  0  0  0  0  0  0
    9.1910   -5.4350   20.2710 C   0  0  0  0  0  0  0  0  0  0  0  0
    9.7520   -7.3040   19.7280 N   0  0  0  0  0  0  0  0  0  0  0  0
    9.6490   -6.1880   18.6850 C   0  0  0  0  0  0  0  0  0  0  0  0
    9.7800   -7.2100   18.8210 C   0  0  0  0  0  0  0  0  0  0  0  0
   10.4560   -9.1720   19.6950 S   0  0  0  0  0  0  0  0  0  0  0  0
   10.0090   -5.7720   17.1920 C   0  0  0  0  0  0  0  0  0  0  0  0
   11.1850   -9.9360   19.0050 O   0  0  0  0  0  0  0  0  0  0  0  0
   10.9280   -9.1210   21.0200 O   0  0  0  0  0  0  0  0  0  0  0  0
    9.8000  -10.1720   18.9860 C   0  0  0  0  0  0  0  0  0  0  0  0
   10.9680   -6.5070   15.1630 N   0  0  0  0  0  0  0  0  0  0  0  0
    9.1020  -10.3920   18.1240 C   0  0  0  0  0  0  0  0  0  0  0  0
   10.2510  -10.6950   19.6830 C   0  0  0  0  0  0  0  0  0  0  0  0
   11.7400   -6.4890   14.3760 C   0  0  0  0  0  0  0  0  0  0  0  0
    8.8050  -11.8470   18.4350 C   0  0  0  0  0  0  0  0  0  0  0  0
   10.2220  -11.7740   19.9660 N   0  0  0  0  0  0  0  0  0  0  0  0
    9.6030  -12.3060   19.5040 C   0  0  0  0  0  0  0  0  0  0  0  0
  1  2  1  0
  2  3  1  0
  3  4  2  0
  3  5  1  0
  5  6  1  0
  5  7  1  0
  6  8  1  0
  7  9  1  0
  8 10  1  0
  9 10  1  0
 10 11  1  0
 11 12  2  0
 11 13  1  0
 13 14  1  0
 13 15  1  0
 15 16  1  1
 15 17  1  0
 17 18  2  0
 17 19  1  0
 18 20  1  0
 19 21  2  0
 19 22  1  0
 20 23  2  0
 21 23  1  0
 21 24  1  0
 22 25  2  0
 22 26  1  0
 25 27  1  0
 26 28  1  0
 27 28  2  0
 26 29  1  0
 27 30  1  0
 29 31  2  0
 29 32  2  0
 29 33  1  0
 30 34  1  0
 33 35  2  0
 33 36  1  0
 34 37  1  0
 35 38  1  0
 36 39  2  0
 38 40  2  0
 39 40  1  0
M  END
