MAK-UNK-8fdbca50-7-bromoalkyne
     RDKit          3D

 38 41  0  0  0  0  0  0  0  0999 V2000
    7.1250   -4.0340   20.2200 C   0  0  0  0  0  0  0  0  0  0  0  0
    5.8260   -4.8020   20.0750 C   0  0  0  0  0  0  0  0  0  0  0  0
    7.2420   -2.9320   21.0610 N   0  0  0  0  0  0  0  0  0  0  0  0
    7.3230   -1.5140   20.6410 C   0  0  0  0  0  0  0  0  0  0  0  0
    7.3570   -3.1290   22.5210 C   0  0  0  0  0  0  0  0  0  0  0  0
    8.2620   -0.7450   21.5490 C   0  0  0  0  0  0  0  0  0  0  0  0
    8.3860   -2.3860   23.1430 C   0  0  0  0  0  0  0  0  0  0  0  0
    9.1330   -1.4790   22.3750 C   0  0  0  0  0  0  0  0  0  0  0  0
   10.1930   -2.1150   21.7550 C   0  0  0  0  0  0  0  0  0  0  0  0
    9.9030   -3.0860   21.1730 O   0  0  0  0  0  0  0  0  0  0  0  0
   11.6160   -1.6340   21.8110 N   0  0  0  0  0  0  0  0  0  0  0  0
   12.5930   -2.4870   21.0640 C   0  0  0  0  0  0  0  0  0  0  0  0
   12.1760   -1.2420   23.0950 C   0  0  1  0  0  0  0  0  0  0  0  0
   13.2350   -0.3830   22.7600 C   0  0  0  0  0  0  0  0  0  0  0  0
   11.1690   -0.4020   23.8110 C   0  0  0  0  0  0  0  0  0  0  0  0
   11.4340    1.0610   23.6160 C   0  0  0  0  0  0  0  0  0  0  0  0
   10.1100   -0.8460   24.5620 C   0  0  0  0  0  0  0  0  0  0  0  0
   10.5830    1.9490   24.2020 N   0  0  0  0  0  0  0  0  0  0  0  0
    9.2940    0.1180   25.1300 C   0  0  0  0  0  0  0  0  0  0  0  0
    9.5160    1.4800   24.9580 C   0  0  0  0  0  0  0  0  0  0  0  0
    7.8880   -0.3110   26.1340 S   0  0  0  0  0  0  0  0  0  0  0  0
    8.3390   -0.4790   27.4920 O   0  0  0  0  0  0  0  0  0  0  0  0
    7.1790   -1.3980   25.5010 O   0  0  0  0  0  0  0  0  0  0  0  0
    6.8840    1.0440   26.2620 N   0  0  0  0  0  0  0  0  0  0  0  0
    6.2960    1.4580   27.5310 C   0  0  0  0  0  0  0  0  0  0  0  0
    6.4690    1.9140   25.3270 C   0  0  0  0  0  0  0  0  0  0  0  0
    5.4880    2.5700   27.5480 C   0  0  0  0  0  0  0  0  0  0  0  0
    5.5670    2.9300   26.0750 C   0  0  0  0  0  0  0  0  0  0  0  0
    6.7220    1.9840   23.9520 C   0  0  0  0  0  0  0  0  0  0  0  0
    4.8380    3.1210   28.6470 C   0  0  0  0  0  0  0  0  0  0  0  0
    7.8790    2.5600   23.4230 C   0  0  0  0  0  0  0  0  0  0  0  0
    5.7900    1.4620   23.0450 C   0  0  0  0  0  0  0  0  0  0  0  0
    3.5070    3.4670   28.5160 N   0  0  0  0  0  0  0  0  0  0  0  0
    8.1080    2.6100   22.0470 C   0  0  0  0  0  0  0  0  0  0  0  0
    6.0040    1.5050   21.6630 C   0  0  0  0  0  0  0  0  0  0  0  0
    4.6590    0.9070   23.5000 F   0  0  0  0  0  0  0  0  0  0  0  0
    2.6360    2.5570   28.8930 C   0  0  0  0  0  0  0  0  0  0  0  0
    7.1720    2.0800   21.1590 C   0  0  0  0  0  0  0  0  0  0  0  0
  1  2  2  3
  1  3  1  0
  3  4  1  0
  3  5  1  0
  4  6  1  0
  5  7  1  0
  6  8  1  0
  7  8  1  0
  8  9  1  0
  9 10  2  0
  9 11  1  0
 11 12  1  0
 11 13  1  0
 13 14  1  6
 13 15  1  0
 15 16  2  0
 15 17  1  0
 16 18  1  0
 17 19  2  0
 18 20  2  0
 19 20  1  0
 21 19  1  0
 21 22  2  0
 21 23  2  0
 21 24  1  0
 24 25  1  0
 24 26  1  0
 25 27  2  0
 26 28  2  0
 27 28  1  0
 26 29  1  0
 27 30  1  0
 29 31  2  0
 29 32  1  0
 30 33  1  0
 31 34  1  0
 32 35  2  0
 32 36  1  0
 33 37  1  0
 34 38  2  0
 35 38  1  0
M  END
