MAK-UNK-5e88aa6a-15
     RDKit          3D

 12 13  0  0  0  0  0  0  0  0999 V2000
    6.2400   -5.1640   26.2950 C   0  0  0  0  0  0  0  0  0  0  0  0
    7.5960   -4.5970   25.9870 C   0  0  0  0  0  0  0  0  0  0  0  0
    8.8360   -5.1490   26.6830 C   0  0  0  0  0  0  0  0  0  0  0  0
    7.8410   -3.4530   24.9790 C   0  0  0  0  0  0  0  0  0  0  0  0
   10.1930   -4.5880   26.3750 C   0  0  0  0  0  0  0  0  0  0  0  0
    9.0580   -2.9230   24.6790 N   0  0  0  0  0  0  0  0  0  0  0  0
   10.2380   -3.4720   25.3640 C   0  0  0  0  0  0  0  0  0  0  0  0
   11.5150   -2.8370   25.0050 C   0  0  0  0  0  0  0  0  0  0  0  0
   12.7310   -3.2380   25.5310 C   0  0  0  0  0  0  0  0  0  0  0  0
   11.6630   -1.7820   24.1410 C   0  0  0  0  0  0  0  0  0  0  0  0
   13.7930   -2.5400   25.1230 C   0  0  0  0  0  0  0  0  0  0  0  0
   13.3440   -1.2880   23.9850 S   0  0  0  0  0  0  0  0  0  0  0  0
  1  2  1  0
  2  3  2  0
  2  4  1  0
  3  5  1  0
  4  6  2  0
  5  7  2  0
  6  7  1  0
  7  8  1  0
  8  9  1  0
  8 10  2  0
  9 11  2  0
 10 12  1  0
 11 12  1  0
M  END
