MAK-UNK-f983951f-13-acrylamide
     RDKit          3D

 13 13  0  0  0  0  0  0  0  0999 V2000
    6.6280   -4.8310   19.9190 C   0  0  0  0  0  0  0  0  0  0  0  0
    6.8050   -4.8360   21.3850 C   0  0  0  0  0  0  0  0  0  0  0  0
    5.4980   -4.3000   21.7870 C   0  0  0  0  0  0  0  0  0  0  0  0
    4.4760   -4.0540   22.3850 O   0  0  0  0  0  0  0  0  0  0  0  0
    5.8420   -5.1310   22.8250 N   0  0  0  0  0  0  0  0  0  0  0  0
    5.5160   -4.6560   24.1130 O   0  0  0  0  0  0  0  0  0  0  0  0
    4.1420   -4.9540   24.3850 C   0  0  0  0  0  0  0  0  0  0  0  0
    3.4900   -3.7830   25.1350 C   0  0  0  0  0  0  0  0  0  0  0  0
    1.9870   -3.8380   24.9430 C   0  0  0  0  0  0  0  0  0  0  0  0
    4.1100   -2.7920   25.8800 C   0  0  0  0  0  0  0  0  0  0  0  0
    1.1270   -2.7510   25.5910 C   0  0  0  0  0  0  0  0  0  0  0  0
    3.3310   -1.8000   26.4710 C   0  0  0  0  0  0  0  0  0  0  0  0
    1.9310   -1.6940   26.3860 C   0  0  0  0  0  0  0  0  0  0  0  0
  1  2  1  0
  2  3  1  0
  3  4  2  0
  3  5  1  0
  5  6  1  0
  6  7  1  0
  7  8  1  0
  8  9  2  0
  8 10  1  0
  9 11  1  0
 10 12  2  0
 11 13  2  0
 12 13  1  0
M  END
