MAK-UNK-148caf23-9-acrylamide
     RDKit          3D

 36 39  0  0  0  0  0  0  0  0999 V2000
    7.7440   -3.2550   19.2040 C   0  0  0  0  0  0  0  0  0  0  0  0
    7.9260   -3.4350   20.6580 C   0  0  0  0  0  0  0  0  0  0  0  0
    6.7400   -3.0650   21.5070 C   0  0  0  0  0  0  0  0  0  0  0  0
    5.2220   -3.5400   21.2600 O   0  0  0  0  0  0  0  0  0  0  0  0
    7.5570   -2.1740   22.6260 C   0  0  0  0  0  0  0  0  0  0  0  0
    9.1100   -2.2180   22.1890 C   0  0  0  0  0  0  0  0  0  0  0  0
    8.7650   -1.6770   23.0750 C   0  0  0  0  0  0  0  0  0  0  0  0
   10.1110   -1.4960   23.0630 C   0  0  0  0  0  0  0  0  0  0  0  0
    8.3010   -1.0670   24.1050 N   0  0  0  0  0  0  0  0  0  0  0  0
    9.5230   -0.8420   24.2130 C   0  0  0  0  0  0  0  0  0  0  0  0
   10.0500   -0.1110   25.2680 N   0  0  0  0  0  0  0  0  0  0  0  0
    8.9860    0.3460   26.1820 C   0  0  0  0  0  0  0  0  0  0  0  0
    8.6070   -0.5280   27.2220 C   0  0  2  0  0  0  0  0  0  0  0  0
    8.1150   -1.9060   26.7260 C   0  0  0  0  0  0  0  0  0  0  0  0
    7.3870    0.1110   27.9050 C   0  0  0  0  0  0  0  0  0  0  0  0
    7.3800    0.6410   29.3460 C   0  0  0  0  0  0  0  0  0  0  0  0
    7.2090   -0.1400   30.4740 C   0  0  0  0  0  0  0  0  0  0  0  0
    7.5270    1.9390   29.8490 C   0  0  0  0  0  0  0  0  0  0  0  0
    7.2400    0.6110   31.6240 C   0  0  0  0  0  0  0  0  0  0  0  0
    7.4360    1.8980   31.2460 N   0  0  0  0  0  0  0  0  0  0  0  0
    7.1060    0.2390   32.9810 C   0  0  0  0  0  0  0  0  0  0  0  0
    7.5620    3.2740   32.2190 S   0  0  0  0  0  0  0  0  0  0  0  0
    8.6070    0.3160   33.3520 C   0  0  0  0  0  0  0  0  0  0  0  0
    5.9820   -0.0950   33.7330 C   0  0  0  0  0  0  0  0  0  0  0  0
    7.7770    2.8940   33.5970 O   0  0  0  0  0  0  0  0  0  0  0  0
    6.4570    4.1160   31.8240 O   0  0  0  0  0  0  0  0  0  0  0  0
    9.0500    3.9940   31.6460 C   0  0  0  0  0  0  0  0  0  0  0  0
    8.6470   -0.0890   34.8430 C   0  0  0  0  0  0  0  0  0  0  0  0
    6.1700   -0.4350   35.0570 C   0  0  0  0  0  0  0  0  0  0  0  0
    4.7480   -0.0960   33.2050 F   0  0  0  0  0  0  0  0  0  0  0  0
   10.0870    3.1880   31.1680 C   0  0  0  0  0  0  0  0  0  0  0  0
    9.2210    5.3820   31.6560 C   0  0  0  0  0  0  0  0  0  0  0  0
    7.4250   -0.4560   35.6570 C   0  0  0  0  0  0  0  0  0  0  0  0
   11.2350    3.8000   30.7240 C   0  0  0  0  0  0  0  0  0  0  0  0
   10.3540    5.9880   31.2190 N   0  0  0  0  0  0  0  0  0  0  0  0
   11.3340    5.1890   30.7620 C   0  0  0  0  0  0  0  0  0  0  0  0
  1  2  1  0
  2  3  1  0
  3  4  2  0
  3  5  1  0
  5  6  2  0
  5  7  1  0
  6  8  1  0
  7  9  2  0
  8 10  2  0
  9 10  1  0
 10 11  1  0
 11 12  1  0
 12 13  1  0
 13 14  1  6
 13 15  1  0
 15 16  1  0
 16 17  1  0
 16 18  2  0
 17 19  2  0
 18 20  1  0
 19 20  1  0
 19 21  1  0
 20 22  1  0
 21 23  2  0
 21 24  1  0
 22 25  2  0
 22 26  2  0
 22 27  1  0
 23 28  1  0
 24 29  2  0
 24 30  1  0
 27 31  2  0
 27 32  1  0
 28 33  2  0
 29 33  1  0
 31 34  1  0
 32 35  2  0
 34 36  2  0
 35 36  1  0
M  END
