MAK-UNK-b2c98f02-8
     RDKit          3D

 28 30  0  0  0  0  0  0  0  0999 V2000
    9.0230    1.1270   21.3230 O   0  0  0  0  0  0  0  0  0  0  0  0
    8.4750    0.0540   21.6560 C   0  0  0  0  0  0  0  0  0  0  0  0
    8.9420   -0.8760   22.7790 C   0  0  0  0  0  0  0  0  0  0  0  0
    7.3780   -0.4740   21.1050 N   0  0  0  0  0  0  0  0  0  0  0  0
   10.4180   -0.9110   23.0650 C   0  0  2  0  0  0  0  0  0  0  0  0
    6.6010    0.1560   20.0820 C   0  0  0  0  0  0  0  0  0  0  0  0
   11.2370   -1.8830   22.2790 C   0  0  0  0  0  0  0  0  0  0  0  0
   10.9700   -0.7400   24.4450 C   0  0  0  0  0  0  0  0  0  0  0  0
    5.4470    0.9430   20.2780 C   0  0  0  0  0  0  0  0  0  0  0  0
    7.0090   -0.0070   18.7860 C   0  0  0  0  0  0  0  0  0  0  0  0
   12.5580   -2.2820   22.9420 C   0  0  0  0  0  0  0  0  0  0  0  0
   12.2730   -0.0470   24.1620 C   0  0  1  0  0  0  0  0  0  0  0  0
    4.7770    1.5220   19.1790 C   0  0  0  0  0  0  0  0  0  0  0  0
    6.3940    0.5390   17.7010 N   0  0  0  0  0  0  0  0  0  0  0  0
   13.2600   -1.0390   23.5080 C   0  0  0  0  0  0  0  0  0  0  0  0
   11.7830    1.3710   23.2880 S   0  0  0  0  0  0  0  0  0  0  0  0
    5.2700    1.3140   17.8620 C   0  0  0  0  0  0  0  0  0  0  0  0
   10.9510    0.9020   22.2430 O   0  0  0  0  0  0  0  0  0  0  0  0
   12.8790    2.2690   23.0820 O   0  0  0  0  0  0  0  0  0  0  0  0
   10.6790    2.1800   24.2290 N   0  0  0  0  0  0  0  0  0  0  0  0
    9.2780    1.9290   24.0640 C   0  0  0  0  0  0  0  0  0  0  0  0
    8.4450    1.4700   25.2560 C   0  0  0  0  0  0  0  0  0  0  0  0
    7.4470    0.5220   25.1150 C   0  0  0  0  0  0  0  0  0  0  0  0
    6.4020    0.5370   24.1080 C   0  0  0  0  0  0  0  0  0  0  0  0
    7.4430   -0.5470   26.0240 C   0  0  0  0  0  0  0  0  0  0  0  0
    5.4450   -0.4950   24.0750 C   0  0  0  0  0  0  0  0  0  0  0  0
    6.4900   -1.5640   25.9840 C   0  0  0  0  0  0  0  0  0  0  0  0
    5.4930   -1.5410   25.0130 C   0  0  0  0  0  0  0  0  0  0  0  0
  1  2  2  0
  2  3  1  0
  2  4  1  0
  5  3  1  1
  4  6  1  0
  5  7  1  0
  5  8  1  0
  6  9  2  0
  6 10  1  0
  7 11  1  0
  8 12  1  0
  9 13  1  0
 10 14  2  0
 11 15  1  0
 12 15  1  0
 12 16  1  6
 13 17  2  0
 14 17  1  0
 16 18  2  0
 16 19  2  0
 16 20  1  0
 20 21  1  0
 21 22  1  0
 22 23  1  0
 23 24  2  0
 23 25  1  0
 24 26  1  0
 25 27  2  0
 26 28  2  0
 27 28  1  0
M  END
