MAK-UNK-9e4a73aa-28
     RDKit          3D

 27 30  0  0  0  0  0  0  0  0999 V2000
    4.8350    1.4730   27.8050 C   0  0  0  0  0  0  0  0  0  0  0  0
    5.4040    0.4330   26.8570 C   0  0  0  0  0  0  0  0  0  0  0  0
    6.7040    0.7630   26.2260 C   0  0  0  0  0  0  0  0  0  0  0  0
    4.7250   -0.8190   26.5780 N   0  0  0  0  0  0  0  0  0  0  0  0
    7.3000   -0.1210   25.3560 C   0  0  0  0  0  0  0  0  0  0  0  0
    5.4690   -1.6880   25.6250 C   0  0  0  0  0  0  0  0  0  0  0  0
    6.7100   -1.3750   25.0240 C   0  0  0  0  0  0  0  0  0  0  0  0
    7.3610   -2.2030   24.1570 N   0  0  0  0  0  0  0  0  0  0  0  0
    8.6620   -2.6770   24.7050 C   0  0  0  0  0  0  0  0  0  0  0  0
    7.4530   -1.7430   22.8070 C   0  0  0  0  0  0  0  0  0  0  0  0
    8.8930   -3.7540   25.2710 O   0  0  0  0  0  0  0  0  0  0  0  0
    9.6200   -1.6950   24.4970 C   0  0  0  0  0  0  0  0  0  0  0  0
    8.5100   -0.8300   22.5710 N   0  0  0  0  0  0  0  0  0  0  0  0
    6.6710   -2.1080   21.9200 O   0  0  0  0  0  0  0  0  0  0  0  0
   10.7390   -1.5820   25.2260 C   0  0  0  0  0  0  0  0  0  0  0  0
    9.4340   -0.7440   23.4090 C   0  0  0  0  0  0  0  0  0  0  0  0
    9.7430   -1.2490   22.1680 C   0  0  0  0  0  0  0  0  0  0  0  0
   11.7910   -0.4810   24.9380 C   0  0  0  0  0  0  0  0  0  0  0  0
   10.2450    0.2900   23.0600 C   0  0  0  0  0  0  0  0  0  0  0  0
   10.1200   -2.2780   21.4950 C   0  0  0  0  0  0  0  0  0  0  0  0
   10.8970   -0.3560   22.6530 C   0  0  0  0  0  0  0  0  0  0  0  0
   12.8880   -0.4450   25.6670 F   0  0  0  0  0  0  0  0  0  0  0  0
   11.5230    0.5210   23.8090 C   0  0  0  0  0  0  0  0  0  0  0  0
   11.5500   -2.5550   21.2150 C   0  0  0  0  0  0  0  0  0  0  0  0
   12.2920   -0.6450   22.3810 C   0  0  0  0  0  0  0  0  0  0  0  0
   12.5010    1.8870   23.2240 Cl  0  0  0  0  0  0  0  0  0  0  0  0
   12.6660   -1.7550   21.6510 C   0  0  0  0  0  0  0  0  0  0  0  0
  1  2  1  0
  2  3  2  0
  2  4  1  0
  3  5  1  0
  4  6  2  0
  5  7  2  0
  6  7  1  0
  7  8  1  0
  8  9  1  0
  8 10  1  0
  9 11  2  0
  9 12  1  0
 10 13  1  0
 10 14  2  0
 12 15  2  0
 12 16  1  0
 13 16  1  0
 13 17  1  0
 15 18  1  0
 16 19  2  0
 17 20  2  0
 17 21  1  0
 18 22  1  0
 18 23  2  0
 19 23  1  0
 20 24  1  0
 21 25  2  0
 23 26  1  0
 24 27  2  0
 25 27  1  0
M  END
