MAK-UNK-849bee6c-8-acrylamide
     RDKit          3D

 27 29  0  0  0  0  0  0  0  0999 V2000
    7.9080   -3.2620   19.0670 C   0  0  0  0  0  0  0  0  0  0  0  0
    6.6980   -2.4290   18.7740 C   0  0  0  0  0  0  0  0  0  0  0  0
    5.7720   -2.7140   19.8940 C   0  0  0  0  0  0  0  0  0  0  0  0
    4.8830   -3.5320   19.6990 O   0  0  0  0  0  0  0  0  0  0  0  0
    6.0710   -2.0790   21.0930 N   0  0  0  0  0  0  0  0  0  0  0  0
    5.9090   -2.8250   22.3310 C   0  0  0  0  0  0  0  0  0  0  0  0
    7.1780   -1.1090   21.0720 C   0  0  0  0  0  0  0  0  0  0  0  0
    7.2200   -3.3010   22.9580 C   0  0  0  0  0  0  0  0  0  0  0  0
    8.4620   -1.6240   21.7380 C   0  0  0  0  0  0  0  0  0  0  0  0
    8.2160   -2.2330   23.0490 N   0  0  0  0  0  0  0  0  0  0  0  0
    9.3870   -2.3710   23.7750 C   0  0  0  0  0  0  0  0  0  0  0  0
   10.5060   -1.3770   23.4830 C   0  0  0  0  0  0  0  0  0  0  0  0
   11.8820   -1.8540   23.2650 C   0  0  0  0  0  0  0  0  0  0  0  0
   10.2950    0.0210   23.4110 C   0  0  0  0  0  0  0  0  0  0  0  0
   12.9100   -0.9650   23.0080 C   0  0  0  0  0  0  0  0  0  0  0  0
   11.3650    0.9210   23.1450 C   0  0  0  0  0  0  0  0  0  0  0  0
   12.6410    0.3920   22.9550 C   0  0  0  0  0  0  0  0  0  0  0  0
   11.1740    2.3940   23.0720 C   0  0  0  0  0  0  0  0  0  0  0  0
    9.9090    2.9750   23.1990 C   0  0  0  0  0  0  0  0  0  0  0  0
    9.7350    3.7800   24.3110 C   0  0  0  0  0  0  0  0  0  0  0  0
    8.8080    3.4480   25.3640 C   0  0  0  0  0  0  0  0  0  0  0  0
   10.4900    4.9470   24.4050 N   0  0  0  0  0  0  0  0  0  0  0  0
    8.6800    4.3700   26.5410 C   0  0  0  0  0  0  0  0  0  0  0  0
   10.3650    5.7770   25.4760 C   0  0  0  0  0  0  0  0  0  0  0  0
    9.4720    5.5920   26.6370 N   0  0  0  0  0  0  0  0  0  0  0  0
   11.2400    7.0400   25.4800 C   0  0  0  0  0  0  0  0  0  0  0  0
   11.8940    8.0030   25.4810 N   0  0  0  0  0  0  0  0  0  0  0  0
  1  2  1  0
  2  3  1  0
  3  4  2  0
  3  5  1  0
  5  6  1  0
  5  7  1  0
  6  8  1  0
  7  9  1  0
  8 10  1  0
  9 10  1  0
 10 11  1  0
 11 12  1  0
 12 13  2  0
 12 14  1  0
 13 15  1  0
 14 16  2  0
 15 17  2  0
 16 17  1  0
 16 18  1  0
 18 19  1  0
 19 20  1  0
 20 21  2  0
 20 22  1  0
 21 23  1  0
 22 24  2  0
 23 25  2  0
 24 25  1  0
 24 26  1  0
 26 27  3  0
M  END
