MAK-UNK-ec98eaf6-52-nitrile
     RDKit          3D

 30 33  0  0  0  0  0  0  0  0999 V2000
    6.9050   -3.6250   19.8190 C   0  0  0  0  0  0  0  0  0  0  0  0
    6.4580   -3.0920   18.7390 N   0  0  0  0  0  0  0  0  0  0  0  0
    6.6970   -3.0500   21.0790 N   0  0  0  0  0  0  0  0  0  0  0  0
    6.4780   -3.7890   22.3330 C   0  0  0  0  0  0  0  0  0  0  0  0
    7.3620   -1.9030   21.4690 C   0  0  1  0  0  0  0  0  0  0  0  0
    7.0090   -2.8380   23.3580 C   0  0  2  0  0  0  0  0  0  0  0  0
    6.6630   -1.4840   22.7680 C   0  0  0  0  0  0  0  0  0  0  0  0
    8.7750   -2.2950   21.9050 C   0  0  0  0  0  0  0  0  0  0  0  0
    8.5050   -2.9240   23.2480 N   0  0  0  0  0  0  0  0  0  0  0  0
    9.3040   -2.4380   24.3880 C   0  0  1  0  0  0  0  0  0  0  0  0
   10.4340   -3.3340   24.8810 C   0  0  0  0  0  0  0  0  0  0  0  0
   10.4110   -1.4750   23.9600 C   0  0  0  0  0  0  0  0  0  0  0  0
   10.1120   -4.4910   25.8140 C   0  0  0  0  0  0  0  0  0  0  0  0
   10.5300   -0.0860   24.5800 C   0  0  0  0  0  0  0  0  0  0  0  0
   11.3420   -1.8210   22.9730 C   0  0  0  0  0  0  0  0  0  0  0  0
    8.9190   -4.4310   26.5500 C   0  0  0  0  0  0  0  0  0  0  0  0
   11.6240    0.8780   24.1290 C   0  0  0  0  0  0  0  0  0  0  0  0
   12.3390   -0.9270   22.5730 C   0  0  0  0  0  0  0  0  0  0  0  0
    7.9070   -3.5500   26.1930 C   0  0  0  0  0  0  0  0  0  0  0  0
    8.7290   -5.2770   27.6760 C   0  0  0  0  0  0  0  0  0  0  0  0
   12.4960    0.4620   23.1650 C   0  0  0  0  0  0  0  0  0  0  0  0
   13.2440   -1.3590   21.5160 C   0  0  0  0  0  0  0  0  0  0  0  0
    6.7290   -3.4940   26.9230 C   0  0  0  0  0  0  0  0  0  0  0  0
    7.5430   -5.2380   28.4280 C   0  0  0  0  0  0  0  0  0  0  0  0
   13.8320   -1.6370   20.6100 N   0  0  0  0  0  0  0  0  0  0  0  0
    6.4700   -4.3580   28.1170 C   0  0  0  0  0  0  0  0  0  0  0  0
    5.2070   -4.3310   28.9370 C   0  0  0  0  0  0  0  0  0  0  0  0
    5.1500   -5.3420   29.8440 F   0  0  0  0  0  0  0  0  0  0  0  0
    4.0740   -4.4400   28.1920 F   0  0  0  0  0  0  0  0  0  0  0  0
    5.0720   -3.1720   29.6430 F   0  0  0  0  0  0  0  0  0  0  0  0
  1  2  2  3
  1  3  1  0
  3  4  1  0
  3  5  1  0
  6  4  1  6
  5  7  1  0
  6  7  1  0
  5  8  1  1
  6  9  1  0
  8  9  1  0
  9 10  1  0
 10 11  1  6
 10 12  1  0
 11 13  1  0
 12 14  2  0
 12 15  1  0
 13 16  1  0
 14 17  1  0
 15 18  2  0
 16 19  2  0
 16 20  1  0
 17 21  2  0
 18 21  1  0
 18 22  1  0
 19 23  1  0
 20 24  2  0
 22 25  3  0
 23 26  2  0
 24 26  1  0
 26 27  1  0
 27 28  1  0
 27 29  1  0
 27 30  1  0
M  END
