MAK-UNK-ed378e62-35
     RDKit          3D

 14 15  0  0  0  0  0  0  0  0999 V2000
    2.3580   -6.9900   22.5270 N   0  0  0  0  0  0  0  0  0  0  0  0
    3.4250   -6.5340   22.6560 C   0  0  0  0  0  0  0  0  0  0  0  0
    4.6760   -6.0210   22.9730 C   0  0  0  0  0  0  0  0  0  0  0  0
    4.6780   -6.0340   24.2370 N   0  0  0  0  0  0  0  0  0  0  0  0
    5.6540   -5.6050   22.0740 N   0  0  0  0  0  0  0  0  0  0  0  0
    5.7460   -5.6060   24.7640 C   0  0  0  0  0  0  0  0  0  0  0  0
    6.7870   -5.1510   22.6910 C   0  0  0  0  0  0  0  0  0  0  0  0
    6.8210   -5.1600   24.0600 C   0  0  0  0  0  0  0  0  0  0  0  0
    7.6990   -4.8320   25.0030 N   0  0  0  0  0  0  0  0  0  0  0  0
    7.2940   -5.2190   26.2470 C   0  0  0  0  0  0  0  0  0  0  0  0
    5.9190   -4.9370   26.7790 C   0  0  0  0  0  0  0  0  0  0  0  0
    7.9910   -5.9100   27.2190 C   0  0  0  0  0  0  0  0  0  0  0  0
    5.6780   -5.3940   28.0500 C   0  0  0  0  0  0  0  0  0  0  0  0
    7.0700   -6.1720   28.6470 S   0  0  0  0  0  0  0  0  0  0  0  0
  1  2  3  0
  2  3  1  0
  3  4  2  0
  3  5  1  0
  4  6  1  0
  5  7  2  0
  6  8  2  0
  7  8  1  0
  8  9  1  0
  9 10  1  0
 10 11  1  0
 10 12  2  0
 11 13  2  0
 12 14  1  0
 13 14  1  0
M  END
