MAK-UNK-c44f4be0-14
     RDKit          3D

 32 33  0  0  0  0  0  0  0  0999 V2000
    6.5310   10.7980   22.9690 C   0  0  0  0  0  0  0  0  0  0  0  0
    6.5160   11.1480   24.7180 S   0  0  0  0  0  0  0  0  0  0  0  0
    7.0610   12.4660   24.9330 O   0  0  0  0  0  0  0  0  0  0  0  0
    5.2430   10.7270   25.2400 O   0  0  0  0  0  0  0  0  0  0  0  0
    7.6250   10.0490   25.3110 N   0  0  0  0  0  0  0  0  0  0  0  0
    8.8010    9.8060   24.6260 C   0  0  0  0  0  0  0  0  0  0  0  0
    9.4720    8.4950   25.0480 C   0  0  0  0  0  0  0  0  0  0  0  0
    8.9070    7.2050   24.4880 C   0  0  0  0  0  0  0  0  0  0  0  0
    8.7800    6.0220   25.4590 C   0  0  0  0  0  0  0  0  0  0  0  0
    8.5050    7.0760   23.1370 C   0  0  0  0  0  0  0  0  0  0  0  0
    8.2010    4.7390   24.8790 C   0  0  0  0  0  0  0  0  0  0  0  0
    7.9680    5.8960   22.5870 C   0  0  0  0  0  0  0  0  0  0  0  0
    7.8130    4.7690   23.4080 C   0  0  0  0  0  0  0  0  0  0  0  0
    7.2410    3.4110   22.9960 C   0  0  0  0  0  0  0  0  0  0  0  0
    6.0740    3.1940   23.2720 O   0  0  0  0  0  0  0  0  0  0  0  0
    7.9670    2.4880   22.3860 N   0  0  0  0  0  0  0  0  0  0  0  0
    7.7290    1.2270   22.9330 C   0  0  1  0  0  0  0  0  0  0  0  0
    6.5800    0.5280   22.5930 C   0  0  0  0  0  0  0  0  0  0  0  0
    8.9640    0.3890   22.5080 C   0  0  0  0  0  0  0  0  0  0  0  0
    6.2510    0.6560   21.2000 C   0  0  0  0  0  0  0  0  0  0  0  0
    9.9230    0.9060   21.9570 O   0  0  0  0  0  0  0  0  0  0  0  0
    8.9260   -0.9310   22.7960 N   0  0  0  0  0  0  0  0  0  0  0  0
    5.3370    1.5580   20.6260 C   0  0  0  0  0  0  0  0  0  0  0  0
    6.9950   -0.3100   20.2370 C   0  0  0  0  0  0  0  0  0  0  0  0
    9.7250   -1.8420   22.1520 C   0  0  0  0  0  0  0  0  0  0  0  0
    5.1200    1.5760   19.2500 C   0  0  0  0  0  0  0  0  0  0  0  0
    6.7290   -0.2330   18.9000 C   0  0  0  0  0  0  0  0  0  0  0  0
   11.0660   -1.3700   22.0540 C   0  0  0  0  0  0  0  0  0  0  0  0
    5.8090    0.6970   18.4160 C   0  0  0  0  0  0  0  0  0  0  0  0
   12.0280   -1.7660   23.0220 C   0  0  0  0  0  0  0  0  0  0  0  0
    5.6040    0.7220   17.1030 O   0  0  0  0  0  0  0  0  0  0  0  0
   13.2770   -2.3030   24.3430 Br  0  0  0  0  0  0  0  0  0  0  0  0
  1  2  1  0
  2  3  2  0
  2  4  2  0
  2  5  1  0
  5  6  1  0
  6  7  1  0
  7  8  1  0
  8  9  2  0
  8 10  1  0
  9 11  1  0
 10 12  2  0
 11 13  2  0
 12 13  1  0
 13 14  1  0
 14 15  2  0
 14 16  1  0
 16 17  1  0
 17 18  1  6
 17 19  1  0
 18 20  1  0
 19 21  2  0
 19 22  1  0
 20 23  2  0
 20 24  1  0
 22 25  1  0
 23 26  1  0
 24 27  2  0
 25 28  1  0
 26 29  2  0
 27 29  1  0
 28 30  3  0
 29 31  1  0
 30 32  1  0
M  END
