MAK-UNK-e05327b2-2-bromoalkyne
     RDKit          3D

 50 56  0  0  0  0  0  0  0  0999 V2000
    6.4690   -4.9510   20.3760 C   0  0  0  0  0  0  0  0  0  0  0  0
    5.7270   -6.1420   19.8470 C   0  0  0  0  0  0  0  0  0  0  0  0
    6.3900   -4.9160   21.7630 N   0  0  0  0  0  0  0  0  0  0  0  0
    7.3480   -4.3860   22.7550 C   0  0  0  0  0  0  0  0  0  0  0  0
    5.7480   -6.1360   22.2710 C   0  0  0  0  0  0  0  0  0  0  0  0
    6.4490   -4.0130   23.9920 C   0  0  0  0  0  0  0  0  0  0  0  0
    4.9500   -5.9120   23.3960 C   0  0  0  0  0  0  0  0  0  0  0  0
    5.7430   -5.2550   24.4510 N   0  0  0  0  0  0  0  0  0  0  0  0
    5.0400   -5.2600   26.0030 S   0  0  0  0  0  0  0  0  0  0  0  0
    4.0630   -6.3290   26.0360 O   0  0  0  0  0  0  0  0  0  0  0  0
    6.0680   -5.1550   27.0040 O   0  0  0  0  0  0  0  0  0  0  0  0
    4.1010   -3.7570   26.0600 C   0  0  0  0  0  0  0  0  0  0  0  0
    4.7120   -2.3590   25.9350 C   0  0  0  0  0  0  0  0  0  0  0  0
    2.3950   -3.7650   26.2630 S   0  0  0  0  0  0  0  0  0  0  0  0
    3.5810   -1.3350   26.0150 C   0  0  0  0  0  0  0  0  0  0  0  0
    2.2350   -2.0390   26.1930 C   0  0  0  0  0  0  0  0  0  0  0  0
    0.8870   -1.3040   26.2980 C   0  0  0  0  0  0  0  0  0  0  0  0
    0.8600   -0.0040   26.0340 N   0  0  0  0  0  0  0  0  0  0  0  0
    1.1780    0.1810   24.7080 C   0  0  0  0  0  0  0  0  0  0  0  0
   -0.4120    0.6800   26.3410 C   0  0  0  0  0  0  0  0  0  0  0  0
    1.0810    1.5280   24.3360 C   0  0  0  0  0  0  0  0  0  0  0  0
   -1.2160    1.1100   25.1290 C   0  0  0  0  0  0  0  0  0  0  0  0
   -0.3520    1.7340   24.0690 N   0  0  0  0  0  0  0  0  0  0  0  0
   -0.9410    1.5800   22.4580 S   0  0  0  0  0  0  0  0  0  0  0  0
   -1.1850    0.1710   22.2400 O   0  0  0  0  0  0  0  0  0  0  0  0
   -2.0270    2.5280   22.3620 O   0  0  0  0  0  0  0  0  0  0  0  0
    0.3530    2.0690   21.3250 C   0  0  0  0  0  0  0  0  0  0  0  0
    1.6030    1.4790   21.4870 C   0  0  0  0  0  0  0  0  0  0  0  0
    0.0900    3.0360   20.2870 C   0  0  0  0  0  0  0  0  0  0  0  0
    2.7060    1.8630   20.5500 C   0  0  0  0  0  0  0  0  0  0  0  0
    1.1340    3.4080   19.3930 C   0  0  0  0  0  0  0  0  0  0  0  0
   -1.1430    3.6590   20.0730 C   0  0  0  0  0  0  0  0  0  0  0  0
    2.4050    2.8580   19.4970 C   0  0  0  0  0  0  0  0  0  0  0  0
    0.8740    4.4270   18.2920 C   0  0  0  0  0  0  0  0  0  0  0  0
   -1.4240    4.6070   19.0580 C   0  0  0  0  0  0  0  0  0  0  0  0
   -0.3920    5.0070   18.1380 C   0  0  0  0  0  0  0  0  0  0  0  0
   -2.7300    5.0940   19.0190 C   0  0  0  0  0  0  0  0  0  0  0  0
   -0.5950    5.9310   17.1090 C   0  0  0  0  0  0  0  0  0  0  0  0
   -3.5630    4.3610   18.1730 C   0  0  0  0  0  0  0  0  0  0  0  0
   -1.0460    7.1500   17.6110 C   0  0  0  0  0  0  0  0  0  0  0  0
   -3.7240    4.6520   16.8170 C   0  0  0  0  0  0  0  0  0  0  0  0
   -4.3360    3.2660   18.5240 C   0  0  0  0  0  0  0  0  0  0  0  0
   -2.0680    7.6540   16.7920 C   0  0  0  0  0  0  0  0  0  0  0  0
   -4.5940    3.8100   16.1410 C   0  0  0  0  0  0  0  0  0  0  0  0
   -5.2290    2.6300   17.2040 S   0  0  0  0  0  0  0  0  0  0  0  0
   -3.4270    7.6090   17.0840 C   0  0  0  0  0  0  0  0  0  0  0  0
   -1.8340    8.4300   15.2480 S   0  0  0  0  0  0  0  0  0  0  0  0
   -4.2200    8.1710   16.1130 C   0  0  0  0  0  0  0  0  0  0  0  0
   -3.5050    8.6730   15.0290 C   0  0  0  0  0  0  0  0  0  0  0  0
   -4.1110    9.4460   13.6200 Cl  0  0  0  0  0  0  0  0  0  0  0  0
  1  2  2  3
  1  3  1  0
  3  4  1  0
  3  5  1  0
  4  6  1  0
  5  7  1  0
  6  8  1  0
  7  8  1  0
  8  9  1  0
  9 10  2  0
  9 11  2  0
  9 12  1  0
 12 13  2  0
 12 14  1  0
 13 15  1  0
 14 16  1  0
 15 16  2  0
 16 17  1  0
 17 18  1  0
 18 19  1  0
 18 20  1  0
 19 21  1  0
 20 22  1  0
 21 23  1  0
 22 23  1  0
 23 24  1  0
 24 25  2  0
 24 26  2  0
 24 27  1  0
 27 28  2  0
 27 29  1  0
 28 30  1  0
 29 31  2  0
 29 32  1  0
 30 33  2  0
 31 33  1  0
 31 34  1  0
 32 35  2  0
 34 36  2  0
 35 36  1  0
 35 37  1  0
 36 38  1  0
 37 39  1  0
 38 40  1  0
 39 41  1  0
 39 42  2  0
 40 43  1  0
 41 44  2  0
 42 45  1  0
 44 45  1  0
 43 46  2  0
 43 47  1  0
 46 48  1  0
 47 49  1  0
 48 49  2  0
 49 50  1  0
M  END
