MAK-UNK-516d8086-22-bromoalkyne
     RDKit          3D

 22 24  0  0  0  0  0  0  0  0999 V2000
    7.5170   -3.4090   19.9710 C   0  0  0  0  0  0  0  0  0  0  0  0
    6.2060   -3.6090   19.7070 C   0  0  0  0  0  0  0  0  0  0  0  0
    7.9510   -2.0240   20.5380 C   0  0  0  0  0  0  0  0  0  0  0  0
    9.3110   -1.8840   21.3600 C   0  0  0  0  0  0  0  0  0  0  0  0
    7.0850   -0.9590   20.2760 N   0  0  0  0  0  0  0  0  0  0  0  0
    9.6110   -0.4150   21.8410 C   0  0  0  0  0  0  0  0  0  0  0  0
    7.4100    0.2900   20.7460 N   0  0  0  0  0  0  0  0  0  0  0  0
   10.8680    0.0630   22.6510 C   0  0  0  0  0  0  0  0  0  0  0  0
    8.6160    0.6570   21.5150 C   0  0  0  0  0  0  0  0  0  0  0  0
   11.3050   -0.8810   23.5350 C   0  0  0  0  0  0  0  0  0  0  0  0
    8.8720    2.0550   21.9670 N   0  0  0  0  0  0  0  0  0  0  0  0
   12.5340   -0.9760   24.2450 C   0  0  0  0  0  0  0  0  0  0  0  0
   10.3100   -1.7840   23.6320 C   0  0  0  0  0  0  0  0  0  0  0  0
    7.6950    2.9150   21.8000 C   0  0  0  0  0  0  0  0  0  0  0  0
   12.6810   -2.0580   25.0790 C   0  0  0  0  0  0  0  0  0  0  0  0
   10.5150   -2.7480   24.4140 C   0  0  0  0  0  0  0  0  0  0  0  0
    7.2010    3.2100   23.0740 C   0  0  0  0  0  0  0  0  0  0  0  0
   11.5860   -2.9400   25.1290 C   0  0  0  0  0  0  0  0  0  0  0  0
    9.4800   -3.8130   24.5680 C   0  0  0  0  0  0  0  0  0  0  0  0
    8.2580   -3.8080   24.4200 O   0  0  0  0  0  0  0  0  0  0  0  0
   10.3410   -4.7800   24.9170 N   0  0  0  0  0  0  0  0  0  0  0  0
   11.3280   -4.0950   25.8320 C   0  0  0  0  0  0  0  0  0  0  0  0
  1  2  2  3
  1  3  1  0
  3  4  2  0
  3  5  1  0
  4  6  1  0
  5  7  2  0
  6  8  1  0
  6  9  2  0
  7  9  1  0
  8 10  1  0
  9 11  1  0
 10 12  2  0
 10 13  1  0
 11 14  1  0
 12 15  1  0
 13 16  2  0
 14 17  1  0
 15 18  2  0
 16 18  1  0
 16 19  1  0
 19 20  2  0
 19 21  1  0
 18 22  1  0
 21 22  1  0
M  END
