MAK-UNK-c7aa8293-5
     RDKit          3D

 30 34  0  0  0  0  0  0  0  0999 V2000
   16.5140   -5.6740   35.2840 N   0  0  0  0  0  0  0  0  0  0  0  0
   16.9200   -4.5770   34.6540 C   0  0  0  0  0  0  0  0  0  0  0  0
   17.3890   -3.6360   33.5460 C   0  0  1  0  0  0  0  0  0  0  0  0
   16.7320   -3.6120   32.4650 O   0  0  0  0  0  0  0  0  0  0  0  0
   17.7360   -2.4210   34.1460 C   0  0  0  0  0  0  0  0  0  0  0  0
   16.5430   -2.3830   31.8310 C   0  0  1  0  0  0  0  0  0  0  0  0
   16.8460   -1.3600   33.9460 C   0  0  0  0  0  0  0  0  0  0  0  0
   19.0700   -2.5160   34.9330 C   0  0  0  0  0  0  0  0  0  0  0  0
   15.9350   -2.3270   29.0760 C   0  0  0  0  0  0  0  0  0  0  0  0
   15.7680   -1.7980   33.1250 C   0  0  0  0  0  0  0  0  0  0  0  0
   19.1210   -1.0260   35.4590 C   0  0  0  0  0  0  0  0  0  0  0  0
   17.1130   -0.1100   34.5380 C   0  0  0  0  0  0  0  0  0  0  0  0
   16.3140   -1.2170   28.0930 C   0  0  0  0  0  0  0  0  0  0  0  0
   14.9530   -3.9670   28.0010 C   0  0  0  0  0  0  0  0  0  0  0  0
   18.2520    0.0280   35.2810 C   0  0  0  0  0  0  0  0  0  0  0  0
   16.4000    1.0520   34.5070 O   0  0  0  0  0  0  0  0  0  0  0  0
   15.5970   -2.2350   26.9020 C   0  0  0  0  0  0  0  0  0  0  0  0
   14.1790   -3.7770   26.7020 C   0  0  0  0  0  0  0  0  0  0  0  0
   18.5300    1.2310   35.8600 O   0  0  0  0  0  0  0  0  0  0  0  0
   14.2580   -2.3610   26.3480 N   0  0  0  0  0  0  0  0  0  0  0  0
   13.8120   -2.2990   24.9840 C   0  0  0  0  0  0  0  0  0  0  0  0
   12.3640   -2.4520   24.3900 C   0  0  0  0  0  0  0  0  0  0  0  0
   11.8800   -1.9760   23.0200 C   0  0  0  0  0  0  0  0  0  0  0  0
   11.2880   -3.1430   25.2370 C   0  0  0  0  0  0  0  0  0  0  0  0
   10.5540   -2.1690   22.6030 C   0  0  0  0  0  0  0  0  0  0  0  0
    9.9920   -3.2820   24.7200 C   0  0  0  0  0  0  0  0  0  0  0  0
    9.6390   -2.8000   23.4250 C   0  0  0  0  0  0  0  0  0  0  0  0
    8.8290   -3.8480   25.2330 C   0  0  0  0  0  0  0  0  0  0  0  0
    8.3000   -3.0960   23.2260 N   0  0  0  0  0  0  0  0  0  0  0  0
    7.7760   -3.7660   24.3750 C   0  0  0  0  0  0  0  0  0  0  0  0
  1  2  1  0
  3  2  1  1
  3  4  1  0
  3  5  1  0
  4  6  1  0
  5  7  2  0
  5  8  1  0
  6  9  1  6
  6 10  1  0
  7 10  1  0
  8 11  2  0
  7 12  1  0
  9 13  1  0
  9 14  1  0
 11 15  1  0
 12 15  2  0
 12 16  1  0
 13 17  1  0
 14 18  1  0
 15 19  1  0
 17 20  1  0
 18 20  1  0
 20 21  1  0
 21 22  1  0
 22 23  2  0
 22 24  1  0
 23 25  1  0
 24 26  2  0
 25 27  2  0
 26 27  1  0
 26 28  1  0
 27 29  1  0
 28 30  2  0
 29 30  1  0
M  END
