MAK-UNK-10799360-31-vinylsulfonamide
     RDKit          3D

 32 36  0  0  0  0  0  0  0  0999 V2000
    7.6420   -3.0060   18.5430 C   0  0  0  0  0  0  0  0  0  0  0  0
    7.3750   -2.4040   19.8830 C   0  0  0  0  0  0  0  0  0  0  0  0
    6.5240   -3.6110   20.8560 S   0  0  0  0  0  0  0  0  0  0  0  0
    5.1700   -3.5970   20.3940 O   0  0  0  0  0  0  0  0  0  0  0  0
    7.2350   -4.8510   21.1120 O   0  0  0  0  0  0  0  0  0  0  0  0
    6.7070   -2.8600   22.3200 N   0  0  0  0  0  0  0  0  0  0  0  0
    8.0740   -2.9390   22.8810 C   0  0  0  0  0  0  0  0  0  0  0  0
    6.3150   -1.4630   22.3320 C   0  0  2  0  0  0  0  0  0  0  0  0
    8.2970   -1.4510   23.2330 C   0  0  2  0  0  0  0  0  0  0  0  0
    7.5200   -0.9080   21.9590 C   0  0  0  0  0  0  0  0  0  0  0  0
    6.1720   -1.2270   23.6670 C   0  0  0  0  0  0  0  0  0  0  0  0
    9.6770   -0.8340   23.2250 C   0  0  0  0  0  0  0  0  0  0  0  0
    4.9610   -1.0390   24.3260 C   0  0  0  0  0  0  0  0  0  0  0  0
    7.3420   -1.1770   24.3520 C   0  0  0  0  0  0  0  0  0  0  0  0
   10.8230   -1.7940   23.0480 C   0  0  0  0  0  0  0  0  0  0  0  0
    9.8670    0.5280   23.3380 C   0  0  0  0  0  0  0  0  0  0  0  0
    4.9720   -0.7880   25.7120 C   0  0  0  0  0  0  0  0  0  0  0  0
    7.3980   -0.9270   25.7200 C   0  0  0  0  0  0  0  0  0  0  0  0
   12.2200   -1.1330   22.9970 C   0  0  0  0  0  0  0  0  0  0  0  0
   11.1010    1.1610   23.2880 C   0  0  0  0  0  0  0  0  0  0  0  0
    8.8990    1.5240   23.5030 N   0  0  0  0  0  0  0  0  0  0  0  0
    6.1810   -0.7280   26.4140 C   0  0  0  0  0  0  0  0  0  0  0  0
   13.5250   -2.1400   22.7940 Cl  0  0  0  0  0  0  0  0  0  0  0  0
   12.2730    0.4160   23.1310 C   0  0  0  0  0  0  0  0  0  0  0  0
   10.8370    2.5470   23.4060 C   0  0  0  0  0  0  0  0  0  0  0  0
    9.4910    2.8030   23.5500 C   0  0  0  0  0  0  0  0  0  0  0  0
   11.7940    3.5460   23.3750 C   0  0  0  0  0  0  0  0  0  0  0  0
   11.7590    4.5110   22.4060 C   0  0  0  0  0  0  0  0  0  0  0  0
   10.6670    5.4460   22.5670 N   0  0  0  0  0  0  0  0  0  0  0  0
   10.7560    6.5030   23.4490 C   0  0  0  0  0  0  0  0  0  0  0  0
   11.9910    6.4810   24.3320 C   0  0  0  0  0  0  0  0  0  0  0  0
    9.9180    7.3950   23.5270 O   0  0  0  0  0  0  0  0  0  0  0  0
  1  2  1  0
  3  2  1  0
  3  4  2  0
  3  5  2  0
  3  6  1  0
  6  7  1  0
  8  6  1  1
  7  9  1  0
  8 10  1  0
  9 10  1  0
  8 11  1  0
  9 12  1  1
 11 13  2  0
  9 14  1  0
 11 14  1  0
 12 15  2  0
 12 16  1  0
 13 17  1  0
 14 18  2  0
 15 19  1  0
 16 20  2  0
 16 21  1  0
 17 22  2  0
 18 22  1  0
 19 23  1  0
 19 24  2  0
 20 24  1  0
 20 25  1  0
 21 26  1  0
 25 26  2  0
 25 27  1  0
 27 28  1  0
 28 29  1  0
 29 30  1  0
 30 31  1  0
 30 32  2  0
M  END
