MAK-UNK-e4a48a85-10
     RDKit          3D

 26 28  0  0  0  0  0  0  0  0999 V2000
   10.9660    2.2410   23.7840 C   0  0  0  0  0  0  0  0  0  0  0  0
   11.3110    0.8680   23.7000 C   0  0  0  0  0  0  0  0  0  0  0  0
   12.5990    0.4110   23.4130 C   0  0  0  0  0  0  0  0  0  0  0  0
   10.2630   -0.0560   23.9130 C   0  0  0  0  0  0  0  0  0  0  0  0
   12.8580   -0.9670   23.3380 C   0  0  0  0  0  0  0  0  0  0  0  0
   10.4370   -1.4540   23.8370 C   0  0  0  0  0  0  0  0  0  0  0  0
   11.7130   -1.9070   23.5640 C   0  0  0  0  0  0  0  0  0  0  0  0
    9.3690   -2.3380   24.0100 C   0  0  0  0  0  0  0  0  0  0  0  0
    8.7390   -2.6060   22.8490 N   0  0  0  0  0  0  0  0  0  0  0  0
    7.4090   -2.8370   22.7260 C   0  0  0  0  0  0  0  0  0  0  0  0
    9.0670   -1.5800   21.8770 C   0  0  1  0  0  0  0  0  0  0  0  0
    6.8710   -1.7770   21.9380 C   0  0  1  0  0  0  0  0  0  0  0  0
    7.8270   -1.0470   21.2140 C   0  0  0  0  0  0  0  0  0  0  0  0
    8.8300   -0.1120   22.1960 C   0  0  0  0  0  0  0  0  0  0  0  0
    5.7820   -1.9950   21.0880 N   0  0  0  0  0  0  0  0  0  0  0  0
    8.0160   -0.4130   23.3340 O   0  0  0  0  0  0  0  0  0  0  0  0
    8.8980    1.0610   22.1380 N   0  0  0  0  0  0  0  0  0  0  0  0
    5.7320   -2.7780   19.8400 C   0  0  0  0  0  0  0  0  0  0  0  0
    5.2220   -0.6500   20.8060 C   0  0  0  0  0  0  0  0  0  0  0  0
    7.9610    1.9720   22.7500 C   0  0  0  0  0  0  0  0  0  0  0  0
    6.6530   -2.1850   18.7980 C   0  0  0  0  0  0  0  0  0  0  0  0
    5.9380    0.0480   19.6470 C   0  0  0  0  0  0  0  0  0  0  0  0
    7.8490    3.3990   22.1950 C   0  0  0  0  0  0  0  0  0  0  0  0
    6.5060   -0.6970   18.6230 C   0  0  0  0  0  0  0  0  0  0  0  0
    8.7310    4.2080   22.5080 O   0  0  0  0  0  0  0  0  0  0  0  0
    5.8200   -0.4840   17.6330 O   0  0  0  0  0  0  0  0  0  0  0  0
  1  2  1  0
  2  3  2  0
  2  4  1  0
  3  5  1  0
  4  6  2  0
  5  7  2  0
  6  7  1  0
  6  8  1  0
  8  9  1  0
  9 10  1  0
  9 11  1  0
 10 12  1  0
 11 13  1  0
 12 13  1  0
 11 14  1  1
 12 15  1  6
 14 16  2  0
 14 17  1  0
 15 18  1  0
 15 19  1  0
 17 20  1  0
 18 21  1  0
 19 22  1  0
 20 23  1  0
 21 24  1  0
 22 24  1  0
 23 25  1  0
 24 26  1  0
M  END
