MAK-UNK-af83ef51-26-vinylsulfonamide
     RDKit          3D

 32 34  0  0  0  0  0  0  0  0999 V2000
    8.1240   -3.6020   19.8190 C   0  0  0  0  0  0  0  0  0  0  0  0
    6.7150   -4.1140   20.1910 C   0  0  0  0  0  0  0  0  0  0  0  0
    5.8440   -2.9940   21.2470 S   0  0  0  0  0  0  0  0  0  0  0  0
    4.8180   -3.7320   21.9510 O   0  0  0  0  0  0  0  0  0  0  0  0
    5.5130   -1.7830   20.5260 O   0  0  0  0  0  0  0  0  0  0  0  0
    7.1130   -2.6350   22.2890 N   0  0  0  0  0  0  0  0  0  0  0  0
    7.7500   -3.8170   22.8970 C   0  0  0  0  0  0  0  0  0  0  0  0
    8.0180   -1.6990   21.6240 C   0  0  0  0  0  0  0  0  0  0  0  0
    8.8500   -3.4750   23.8990 C   0  0  0  0  0  0  0  0  0  0  0  0
    9.4210   -1.9510   22.1200 C   0  0  0  0  0  0  0  0  0  0  0  0
    9.3210   -2.1030   23.5700 N   0  0  0  0  0  0  0  0  0  0  0  0
   10.2810   -1.4410   24.2200 C   0  0  0  0  0  0  0  0  0  0  0  0
    9.8160    0.0260   24.3770 C   0  0  1  0  0  0  0  0  0  0  0  0
    9.4160    0.5370   23.0070 C   0  0  0  0  0  0  0  0  0  0  0  0
    8.6920    0.1510   25.2180 C   0  0  2  0  0  0  0  0  0  0  0  0
    8.1650    1.2690   23.2170 N   0  0  0  0  0  0  0  0  0  0  0  0
    7.9860    1.2870   24.6860 C   0  0  0  0  0  0  0  0  0  0  0  0
    9.1060    0.1950   26.3700 O   0  0  0  0  0  0  0  0  0  0  0  0
    8.1330    2.4590   22.3350 C   0  0  0  0  0  0  0  0  0  0  0  0
    8.0860   -0.0770   27.3240 C   0  0  0  0  0  0  0  0  0  0  0  0
    8.5200    2.3650   21.1680 O   0  0  0  0  0  0  0  0  0  0  0  0
    7.5820    3.6970   23.0340 C   0  0  0  0  0  0  0  0  0  0  0  0
    8.2100    4.9630   22.9280 C   0  0  0  0  0  0  0  0  0  0  0  0
    9.5660    5.0510   23.3410 N   0  0  0  0  0  0  0  0  0  0  0  0
   10.5100    4.0430   23.2580 C   0  0  0  0  0  0  0  0  0  0  0  0
    9.9340    2.9200   23.9310 C   0  0  0  0  0  0  0  0  0  0  0  0
   11.6740    4.3080   22.6080 N   0  0  0  0  0  0  0  0  0  0  0  0
   11.1340    2.0160   23.6550 C   0  0  0  0  0  0  0  0  0  0  0  0
   12.6050    3.3640   22.4790 C   0  0  0  0  0  0  0  0  0  0  0  0
   12.4470    2.0970   22.9790 C   0  0  0  0  0  0  0  0  0  0  0  0
   13.3360    1.1040   22.8720 C   0  0  0  0  0  0  0  0  0  0  0  0
   12.8080   -0.2590   23.2230 N   0  0  0  0  0  0  0  0  0  0  0  0
  1  2  1  0
  3  2  1  0
  3  4  2  0
  3  5  2  0
  3  6  1  0
  6  7  1  0
  6  8  1  0
  7  9  1  0
  8 10  1  0
  9 11  1  0
 10 11  1  0
 11 12  1  0
 13 12  1  6
 13 14  1  0
 13 15  1  0
 14 16  1  0
 15 17  1  0
 16 17  1  0
 15 18  1  1
 16 19  1  0
 18 20  1  0
 19 21  2  0
 19 22  1  0
 22 23  1  0
 23 24  1  0
 24 25  1  0
 25 26  2  0
 25 27  1  0
 26 28  1  0
 27 29  2  0
 28 30  2  0
 29 30  1  0
 30 31  1  0
 31 32  3  0
M  END
