MAK-UNK-10799360-31-acrylamide
     RDKit          3D

 31 35  0  0  0  0  0  0  0  0999 V2000
    8.8590   -3.8910   20.2200 C   0  0  0  0  0  0  0  0  0  0  0  0
    7.5940   -3.2040   19.5180 C   0  0  0  0  0  0  0  0  0  0  0  0
    6.3090   -3.3250   20.3640 C   0  0  0  0  0  0  0  0  0  0  0  0
    5.2510   -4.0350   20.1020 O   0  0  0  0  0  0  0  0  0  0  0  0
    6.4790   -2.5110   21.4500 N   0  0  0  0  0  0  0  0  0  0  0  0
    7.6280   -1.6220   21.3350 C   0  0  0  0  0  0  0  0  0  0  0  0
    6.4790   -2.9960   22.8520 C   0  0  2  0  0  0  0  0  0  0  0  0
    8.4010   -1.9870   22.5900 C   0  0  2  0  0  0  0  0  0  0  0  0
    7.1990   -1.9810   23.5570 C   0  0  0  0  0  0  0  0  0  0  0  0
    7.3900   -3.9940   22.8430 C   0  0  0  0  0  0  0  0  0  0  0  0
    9.3100   -0.7580   22.7470 C   0  0  0  0  0  0  0  0  0  0  0  0
    7.1090   -5.3480   22.9680 C   0  0  0  0  0  0  0  0  0  0  0  0
    8.6750   -3.5180   22.7090 C   0  0  0  0  0  0  0  0  0  0  0  0
   10.7720   -1.1680   22.4370 C   0  0  0  0  0  0  0  0  0  0  0  0
    8.9390    0.5610   23.1160 C   0  0  0  0  0  0  0  0  0  0  0  0
    8.1670   -6.2320   22.9670 C   0  0  0  0  0  0  0  0  0  0  0  0
    9.7360   -4.3970   22.7180 C   0  0  0  0  0  0  0  0  0  0  0  0
   11.6900    0.0420   22.6120 C   0  0  0  0  0  0  0  0  0  0  0  0
    9.8300    1.6070   23.2440 C   0  0  0  0  0  0  0  0  0  0  0  0
    7.7050    1.1200   23.4260 N   0  0  0  0  0  0  0  0  0  0  0  0
    9.4690   -5.7700   22.8490 C   0  0  0  0  0  0  0  0  0  0  0  0
   13.3450   -0.1990   22.3600 Cl  0  0  0  0  0  0  0  0  0  0  0  0
   11.1930    1.4260   23.0050 C   0  0  0  0  0  0  0  0  0  0  0  0
    9.1660    2.7660   23.6400 C   0  0  0  0  0  0  0  0  0  0  0  0
    7.8350    2.4480   23.7440 C   0  0  0  0  0  0  0  0  0  0  0  0
    9.8000    3.9790   23.8800 C   0  0  0  0  0  0  0  0  0  0  0  0
    9.9300    4.8780   22.8520 C   0  0  0  0  0  0  0  0  0  0  0  0
   10.2980    6.1900   23.3350 N   0  0  0  0  0  0  0  0  0  0  0  0
   11.6950    6.6060   23.2610 C   0  0  0  0  0  0  0  0  0  0  0  0
   12.0810    7.4920   24.3940 C   0  0  0  0  0  0  0  0  0  0  0  0
   12.4710    6.2690   22.3700 O   0  0  0  0  0  0  0  0  0  0  0  0
  1  2  1  0
  2  3  1  0
  3  4  2  0
  3  5  1  0
  5  6  1  0
  7  5  1  6
  6  8  1  0
  7  9  1  0
  8  9  1  0
  7 10  1  0
  8 11  1  1
 10 12  2  0
  8 13  1  0
 10 13  1  0
 11 14  2  0
 11 15  1  0
 12 16  1  0
 13 17  2  0
 14 18  1  0
 15 19  2  0
 15 20  1  0
 16 21  2  0
 17 21  1  0
 18 22  1  0
 18 23  2  0
 19 23  1  0
 19 24  1  0
 20 25  1  0
 24 25  2  0
 24 26  1  0
 26 27  1  0
 27 28  1  0
 28 29  1  0
 29 30  1  0
 29 31  2  0
M  END
