MAK-UNK-e4a48a85-4
     RDKit          3D

 27 30  0  0  0  0  0  0  0  0999 V2000
   13.8000    4.9260   22.7180 C   0  0  0  0  0  0  0  0  0  0  0  0
   12.5880    4.2170   22.9680 C   0  0  0  0  0  0  0  0  0  0  0  0
   11.4190    4.8380   23.4200 C   0  0  0  0  0  0  0  0  0  0  0  0
   12.5940    2.8150   22.7360 C   0  0  0  0  0  0  0  0  0  0  0  0
   10.2530    4.0870   23.6390 C   0  0  0  0  0  0  0  0  0  0  0  0
   11.4720    2.0000   22.9150 C   0  0  0  0  0  0  0  0  0  0  0  0
   10.3070    2.6110   23.3650 C   0  0  0  0  0  0  0  0  0  0  0  0
   11.4880    0.6250   22.6290 C   0  0  0  0  0  0  0  0  0  0  0  0
   10.1770    0.2790   22.9240 C   0  0  0  0  0  0  0  0  0  0  0  0
   11.8440   -0.5050   22.2960 N   0  0  0  0  0  0  0  0  0  0  0  0
    9.9420   -1.0210   22.7050 C   0  0  0  0  0  0  0  0  0  0  0  0
   11.0480   -1.6040   22.2800 N   0  0  0  0  0  0  0  0  0  0  0  0
   13.1400   -0.8250   21.9110 C   0  0  0  0  0  0  0  0  0  0  0  0
    8.7650   -1.7390   22.8600 C   0  0  0  0  0  0  0  0  0  0  0  0
   13.3020   -1.4070   23.1390 C   0  0  0  0  0  0  0  0  0  0  0  0
    9.1630   -3.0760   23.3270 N   0  0  0  0  0  0  0  0  0  0  0  0
   12.9860   -0.3970   24.1720 C   0  0  0  0  0  0  0  0  0  0  0  0
   13.6490   -2.6850   23.3740 C   0  0  0  0  0  0  0  0  0  0  0  0
    9.6350   -2.8660   24.6520 C   0  0  0  0  0  0  0  0  0  0  0  0
    7.9580   -3.9470   23.3260 C   0  0  0  0  0  0  0  0  0  0  0  0
   13.1030   -0.9050   25.5120 C   0  0  0  0  0  0  0  0  0  0  0  0
   13.7450   -3.1020   24.6620 C   0  0  0  0  0  0  0  0  0  0  0  0
    8.4560   -2.1230   25.2070 C   0  0  0  0  0  0  0  0  0  0  0  0
    7.3830   -4.2410   24.7010 C   0  0  0  0  0  0  0  0  0  0  0  0
   13.5210   -2.3270   25.7050 C   0  0  0  0  0  0  0  0  0  0  0  0
    7.2590   -2.9820   25.5200 C   0  0  0  0  0  0  0  0  0  0  0  0
    6.9590   -3.2900   26.6720 O   0  0  0  0  0  0  0  0  0  0  0  0
  1  2  1  0
  2  3  2  0
  2  4  1  0
  3  5  1  0
  4  6  2  0
  5  7  2  0
  6  7  1  0
  6  8  1  0
  8  9  2  0
  8 10  1  0
  9 11  1  0
 10 12  1  0
 11 12  2  0
 10 13  1  0
 11 14  1  0
 13 15  1  0
 14 16  1  0
 15 17  2  0
 15 18  1  0
 16 19  1  0
 16 20  1  0
 17 21  1  0
 18 22  2  0
 19 23  1  0
 20 24  1  0
 21 25  2  0
 22 25  1  0
 23 26  1  0
 24 26  1  0
 26 27  1  0
M  END
