MAK-UNK-e4a48a85-1-nitrile
     RDKit          3D

 19 20  0  0  0  0  0  0  0  0999 V2000
    7.0680   -3.9630   20.3150 C   0  0  0  0  0  0  0  0  0  0  0  0
    5.8980   -4.0570   19.7840 N   0  0  0  0  0  0  0  0  0  0  0  0
    7.2890   -3.8530   21.7030 N   0  0  0  0  0  0  0  0  0  0  0  0
    8.5300   -3.3200   22.3180 C   0  0  0  0  0  0  0  0  0  0  0  0
    6.2120   -3.8110   22.6380 C   0  0  0  0  0  0  0  0  0  0  0  0
    8.6620   -3.8420   23.5970 C   0  0  0  0  0  0  0  0  0  0  0  0
    6.5350   -3.0900   23.8220 C   0  0  0  0  0  0  0  0  0  0  0  0
    7.7760   -3.0400   24.4230 N   0  0  0  0  0  0  0  0  0  0  0  0
    8.1290   -1.7460   24.8250 C   0  0  0  0  0  0  0  0  0  0  0  0
    9.6000   -1.3810   24.6260 C   0  0  1  0  0  0  0  0  0  0  0  0
   10.0230   -0.2700   25.5310 N   0  0  0  0  0  0  0  0  0  0  0  0
   10.5340   -2.5560   24.7310 C   0  0  0  0  0  0  0  0  0  0  0  0
   10.6700   -3.2190   25.7440 O   0  0  0  0  0  0  0  0  0  0  0  0
   11.1610   -2.7350   23.5890 N   0  0  0  0  0  0  0  0  0  0  0  0
   11.9900   -1.7820   23.1050 C   0  0  0  0  0  0  0  0  0  0  0  0
   12.6530   -1.8740   21.9290 C   0  0  0  0  0  0  0  0  0  0  0  0
   12.1680   -0.5090   23.9750 C   0  0  0  0  0  0  0  0  0  0  0  0
   13.4070   -0.8630   21.6260 C   0  0  0  0  0  0  0  0  0  0  0  0
   13.2620    0.2580   22.8660 S   0  0  0  0  0  0  0  0  0  0  0  0
  1  2  2  3
  1  3  1  0
  3  4  1  0
  3  5  1  0
  4  6  1  0
  5  7  1  0
  6  8  1  0
  7  8  1  0
  8  9  1  0
  9 10  1  0
 10 11  1  1
 10 12  1  0
 12 13  2  0
 12 14  1  0
 14 15  1  0
 15 16  1  0
 15 17  2  0
 16 18  2  0
 17 19  1  0
 18 19  1  0
M  END
