MAK-UNK-c8c8f7e2-42
     RDKit          3D

 17 18  0  0  0  0  0  0  0  0999 V2000
    1.1150   -9.1580   28.5520 C   0  0  0  0  0  0  0  0  0  0  0  0
    2.0640   -7.9850   28.6070 C   0  0  0  0  0  0  0  0  0  0  0  0
    2.1610   -7.3110   29.6260 O   0  0  0  0  0  0  0  0  0  0  0  0
    2.7500   -7.8040   27.4210 N   0  0  0  0  0  0  0  0  0  0  0  0
    3.9180   -7.0170   27.2320 C   0  0  0  0  0  0  0  0  0  0  0  0
    4.8770   -6.8370   28.2280 C   0  0  0  0  0  0  0  0  0  0  0  0
    4.1030   -6.3950   25.9870 C   0  0  0  0  0  0  0  0  0  0  0  0
    6.0000   -6.0460   27.9770 C   0  0  0  0  0  0  0  0  0  0  0  0
    5.2220   -5.5950   25.7170 C   0  0  0  0  0  0  0  0  0  0  0  0
    6.1790   -5.4250   26.7340 C   0  0  0  0  0  0  0  0  0  0  0  0
    5.4290   -4.9490   24.4580 N   0  0  0  0  0  0  0  0  0  0  0  0
    6.5650   -4.2000   24.1340 C   0  0  0  0  0  0  0  0  0  0  0  0
    4.6600   -5.0770   23.2950 C   0  0  0  0  0  0  0  0  0  0  0  0
    6.9720   -4.7160   22.8280 C   0  0  0  0  0  0  0  0  0  0  0  0
    5.6250   -5.0270   22.1180 C   0  0  1  0  0  0  0  0  0  0  0  0
    3.4430   -5.2020   23.1560 O   0  0  0  0  0  0  0  0  0  0  0  0
    5.6020   -6.4070   21.5180 C   0  0  0  0  0  0  0  0  0  0  0  0
  1  2  1  0
  2  3  2  0
  2  4  1  0
  4  5  1  0
  5  6  2  0
  5  7  1  0
  6  8  1  0
  7  9  2  0
  8 10  2  0
  9 10  1  0
  9 11  1  0
 11 12  1  0
 11 13  1  0
 12 14  1  0
 13 15  1  0
 14 15  1  0
 13 16  2  0
 15 17  1  1
M  END
