MAK-UNK-e4a48a85-3
     RDKit          3D

 27 30  0  0  0  0  0  0  0  0999 V2000
   12.8900    4.0850   22.6980 C   0  0  0  0  0  0  0  0  0  0  0  0
   12.0980    2.9360   23.0230 C   0  0  0  0  0  0  0  0  0  0  0  0
   10.7560    2.9990   23.4260 C   0  0  0  0  0  0  0  0  0  0  0  0
   12.7060    1.6660   22.9360 C   0  0  0  0  0  0  0  0  0  0  0  0
   10.0340    1.8190   23.7270 C   0  0  0  0  0  0  0  0  0  0  0  0
   12.0680    0.4890   23.2050 C   0  0  0  0  0  0  0  0  0  0  0  0
   10.7400    0.4980   23.5950 C   0  0  0  0  0  0  0  0  0  0  0  0
   10.2290   -0.8850   23.8160 C   0  0  0  0  0  0  0  0  0  0  0  0
    8.8900   -1.0570   23.9310 C   0  0  0  0  0  0  0  0  0  0  0  0
   10.4610   -2.0000   23.9310 N   0  0  0  0  0  0  0  0  0  0  0  0
    7.9170   -0.1770   23.8560 C   0  0  0  0  0  0  0  0  0  0  0  0
    8.5030   -2.3060   24.1270 C   0  0  0  0  0  0  0  0  0  0  0  0
    9.6220   -3.0380   24.1330 N   0  0  0  0  0  0  0  0  0  0  0  0
   11.6260   -2.3430   23.8530 C   0  0  0  0  0  0  0  0  0  0  0  0
    7.2560   -0.8240   22.7090 N   0  0  0  0  0  0  0  0  0  0  0  0
   12.2280   -2.5700   25.1230 C   0  0  0  0  0  0  0  0  0  0  0  0
   11.9700   -2.3900   22.5900 C   0  0  0  0  0  0  0  0  0  0  0  0
    8.1400   -0.9150   21.5570 C   0  0  0  0  0  0  0  0  0  0  0  0
    6.7650   -2.1910   22.9720 C   0  0  0  0  0  0  0  0  0  0  0  0
   13.5110   -2.9540   24.6490 C   0  0  0  0  0  0  0  0  0  0  0  0
   13.1390   -2.7340   22.2750 C   0  0  0  0  0  0  0  0  0  0  0  0
    7.2960   -0.9870   20.4520 C   0  0  0  0  0  0  0  0  0  0  0  0
    6.0540   -2.6520   21.8590 C   0  0  0  0  0  0  0  0  0  0  0  0
   13.9430   -3.0410   23.2640 C   0  0  0  0  0  0  0  0  0  0  0  0
   13.4020   -2.7430   20.8150 C   0  0  0  0  0  0  0  0  0  0  0  0
    6.1280   -1.9220   20.6590 C   0  0  0  0  0  0  0  0  0  0  0  0
    5.0970   -1.2810   20.5320 O   0  0  0  0  0  0  0  0  0  0  0  0
  1  2  1  0
  2  3  2  0
  2  4  1  0
  3  5  1  0
  4  6  2  0
  5  7  2  0
  6  7  1  0
  7  8  1  0
  8  9  2  0
  8 10  1  0
  9 11  1  0
  9 12  1  0
 10 13  1  0
 12 13  2  0
 10 14  1  0
 11 15  1  0
 14 16  2  0
 14 17  1  0
 15 18  1  0
 15 19  1  0
 16 20  1  0
 17 21  2  0
 18 22  1  0
 19 23  1  0
 20 24  2  0
 21 24  1  0
 21 25  1  0
 22 26  1  0
 23 26  1  0
 26 27  1  0
M  END
