MAK-UNK-702fb7d3-6-vinylsulfonamide
     RDKit          3D

 44 49  0  0  0  0  0  0  0  0999 V2000
    7.7070   -3.2220   19.4120 C   0  0  0  0  0  0  0  0  0  0  0  0
    7.6340   -2.9170   20.9100 C   0  0  0  0  0  0  0  0  0  0  0  0
    6.6620   -4.1160   21.8270 S   0  0  0  0  0  0  0  0  0  0  0  0
    5.1470   -3.9370   21.5690 O   0  0  0  0  0  0  0  0  0  0  0  0
    7.2360   -5.4150   21.5560 O   0  0  0  0  0  0  0  0  0  0  0  0
    7.3050   -3.6950   23.4040 N   0  0  0  0  0  0  0  0  0  0  0  0
    8.7230   -3.4060   23.6520 C   0  0  0  0  0  0  0  0  0  0  0  0
    6.4920   -3.4000   24.5570 C   0  0  0  0  0  0  0  0  0  0  0  0
    9.1970   -3.9550   25.0000 C   0  0  0  0  0  0  0  0  0  0  0  0
    6.8660   -4.1990   25.8280 C   0  0  2  0  0  0  0  0  0  0  0  0
   10.7190   -3.9910   25.0040 C   0  0  0  0  0  0  0  0  0  0  0  0
    8.2610   -4.3390   26.0140 C   0  0  0  0  0  0  0  0  0  0  0  0
    6.2230   -5.4060   25.8900 N   0  0  0  0  0  0  0  0  0  0  0  0
    6.1970   -3.3610   26.9730 C   0  0  0  0  0  0  0  0  0  0  0  0
   10.9020   -4.5600   26.3770 C   0  0  0  0  0  0  0  0  0  0  0  0
    8.7190   -4.8430   27.1800 C   0  0  0  0  0  0  0  0  0  0  0  0
    5.9480   -5.8780   27.1790 C   0  0  0  0  0  0  0  0  0  0  0  0
    4.9960   -2.4970   26.6280 C   0  0  0  0  0  0  0  0  0  0  0  0
    6.6310   -3.3460   28.3080 C   0  0  0  0  0  0  0  0  0  0  0  0
   10.0220   -4.9580   27.3780 C   0  0  0  0  0  0  0  0  0  0  0  0
    4.6080   -5.9330   27.5290 C   0  0  0  0  0  0  0  0  0  0  0  0
    4.3820   -1.7410   27.6140 C   0  0  0  0  0  0  0  0  0  0  0  0
    5.9660   -2.5610   29.2510 C   0  0  0  0  0  0  0  0  0  0  0  0
    3.9720   -5.0420   28.6010 C   0  0  0  0  0  0  0  0  0  0  0  0
    3.5540   -6.7440   27.0470 C   0  0  0  0  0  0  0  0  0  0  0  0
    4.8640   -1.7720   28.9210 C   0  0  0  0  0  0  0  0  0  0  0  0
    2.5090   -5.4640   28.6210 C   0  0  0  0  0  0  0  0  0  0  0  0
    2.3270   -6.4550   27.6970 N   0  0  0  0  0  0  0  0  0  0  0  0
    1.4270   -4.9030   29.4970 C   0  0  0  0  0  0  0  0  0  0  0  0
    0.8810   -7.2780   27.3090 S   0  0  0  0  0  0  0  0  0  0  0  0
    0.6560   -5.8330   30.4210 C   0  0  0  0  0  0  0  0  0  0  0  0
    1.1310   -3.5240   29.4630 C   0  0  0  0  0  0  0  0  0  0  0  0
   -0.2040   -6.4610   27.8070 O   0  0  0  0  0  0  0  0  0  0  0  0
    1.0400   -8.6540   27.7250 O   0  0  0  0  0  0  0  0  0  0  0  0
    0.9050   -7.2380   25.5620 C   0  0  0  0  0  0  0  0  0  0  0  0
   -0.3900   -5.1330   31.2340 C   0  0  0  0  0  0  0  0  0  0  0  0
    0.1280   -3.0170   30.2800 C   0  0  0  0  0  0  0  0  0  0  0  0
    1.7990   -2.6850   28.6560 F   0  0  0  0  0  0  0  0  0  0  0  0
    1.8400   -8.1790   24.7270 C   0  0  0  0  0  0  0  0  0  0  0  0
    0.0940   -6.3630   24.8630 C   0  0  0  0  0  0  0  0  0  0  0  0
   -0.6430   -3.7650   31.1620 C   0  0  0  0  0  0  0  0  0  0  0  0
    1.7750   -8.0470   23.3450 C   0  0  0  0  0  0  0  0  0  0  0  0
    0.0820   -6.2920   23.5030 N   0  0  0  0  0  0  0  0  0  0  0  0
    0.9050   -7.1150   22.7970 C   0  0  0  0  0  0  0  0  0  0  0  0
  1  2  1  0
  3  2  1  0
  3  4  2  0
  3  5  2  0
  3  6  1  0
  6  7  1  0
  6  8  1  0
  7  9  1  0
  8 10  1  0
  9 11  1  0
  9 12  2  0
 10 12  1  0
 10 13  1  6
 10 14  1  0
 11 15  2  0
 12 16  1  0
 13 17  1  0
 14 18  2  0
 14 19  1  0
 15 20  1  0
 16 20  2  0
 17 21  1  0
 18 22  1  0
 19 23  2  0
 21 24  1  0
 21 25  2  0
 22 26  2  0
 23 26  1  0
 24 27  2  0
 25 28  1  0
 27 28  1  0
 27 29  1  0
 28 30  1  0
 29 31  2  0
 29 32  1  0
 30 33  2  0
 30 34  2  0
 30 35  1  0
 31 36  1  0
 32 37  2  0
 32 38  1  0
 35 39  2  0
 35 40  1  0
 36 41  2  0
 37 41  1  0
 39 42  1  0
 40 43  2  0
 42 44  2  0
 43 44  1  0
M  END
