MAK-UNK-30aad1f1-15-acrylamide
     RDKit          3D

 27 29  0  0  0  0  0  0  0  0999 V2000
    7.8180   -3.3530   19.7890 C   0  0  0  0  0  0  0  0  0  0  0  0
    7.0050   -2.6270   20.5640 C   0  0  0  0  0  0  0  0  0  0  0  0
    5.6630   -2.3140   19.9240 C   0  0  0  0  0  0  0  0  0  0  0  0
    4.7780   -3.1800   19.8750 O   0  0  0  0  0  0  0  0  0  0  0  0
    5.4050   -0.9290   19.3850 C   0  0  0  0  0  0  0  0  0  0  0  0
    6.1580   -1.4230   18.2090 C   0  0  0  0  0  0  0  0  0  0  0  0
    5.4560    0.2260   18.3790 C   0  0  0  0  0  0  0  0  0  0  0  0
    5.5370   -0.1510   18.5120 C   0  0  0  0  0  0  0  0  0  0  0  0
    4.7700    0.9200   19.2750 N   0  0  0  0  0  0  0  0  0  0  0  0
    4.8810   -0.1320   19.8660 C   0  0  0  0  0  0  0  0  0  0  0  0
    4.1650    0.4680   20.8980 N   0  0  0  0  0  0  0  0  0  0  0  0
    4.8430    0.3430   22.1890 C   0  0  0  0  0  0  0  0  0  0  0  0
    5.5500   -0.8290   22.3480 C   0  0  0  0  0  0  0  0  0  0  0  0
    4.7970    1.3270   23.2210 C   0  0  0  0  0  0  0  0  0  0  0  0
    6.1710   -0.8950   23.5800 C   0  0  0  0  0  0  0  0  0  0  0  0
    5.4330    1.3060   24.5330 C   0  0  0  0  0  0  0  0  0  0  0  0
    4.0540    2.4140   22.9290 N   0  0  0  0  0  0  0  0  0  0  0  0
    6.0840    0.0790   24.5060 N   0  0  0  0  0  0  0  0  0  0  0  0
    2.7640    2.4390   23.6650 C   0  0  0  0  0  0  0  0  0  0  0  0
    2.4780    1.6620   24.5850 O   0  0  0  0  0  0  0  0  0  0  0  0
    1.9030    3.4930   23.1460 N   0  0  0  0  0  0  0  0  0  0  0  0
    0.6240    3.7300   23.6020 C   0  0  0  0  0  0  0  0  0  0  0  0
    0.4790    4.6730   24.5600 C   0  0  0  0  0  0  0  0  0  0  0  0
   -0.4730    3.0150   23.0800 C   0  0  0  0  0  0  0  0  0  0  0  0
   -0.8260    5.0710   25.1740 C   0  0  0  0  0  0  0  0  0  0  0  0
   -1.8900    3.3010   23.6020 C   0  0  0  0  0  0  0  0  0  0  0  0
   -2.0850    4.3650   24.6850 C   0  0  0  0  0  0  0  0  0  0  0  0
  1  2  1  0
  2  3  1  0
  3  4  2  0
  3  5  1  0
  5  6  2  0
  5  7  1  0
  6  8  1  0
  7  9  2  0
  8 10  2  0
  9 10  1  0
 10 11  1  0
 11 12  1  0
 12 13  2  0
 12 14  1  0
 13 15  1  0
 14 16  2  0
 14 17  1  0
 15 18  2  0
 16 18  1  0
 17 19  1  0
 19 20  2  0
 19 21  1  0
 21 22  1  0
 22 23  2  0
 22 24  1  0
 23 25  1  0
 24 26  2  0
 25 27  2  0
 26 27  1  0
M  END
