MAK-UNK-7c9d1431-25-acrylamide
     RDKit          3D

 19 21  0  0  0  0  0  0  0  0999 V2000
    7.8650   -2.8020   18.6920 C   0  0  0  0  0  0  0  0  0  0  0  0
    6.3690   -2.8640   18.8830 C   0  0  0  0  0  0  0  0  0  0  0  0
    5.8910   -3.5940   20.0860 C   0  0  0  0  0  0  0  0  0  0  0  0
    5.1900   -4.5860   19.9440 O   0  0  0  0  0  0  0  0  0  0  0  0
    6.2490   -3.0910   21.3160 N   0  0  0  0  0  0  0  0  0  0  0  0
    6.0970   -3.8320   22.5650 C   0  0  0  0  0  0  0  0  0  0  0  0
    6.8010   -1.7300   21.3910 C   0  0  0  0  0  0  0  0  0  0  0  0
    7.3630   -3.7550   23.3940 C   0  0  0  0  0  0  0  0  0  0  0  0
    8.1530   -1.7170   22.0560 C   0  0  0  0  0  0  0  0  0  0  0  0
    8.4820   -3.1000   22.5940 C   0  0  0  0  0  0  0  0  0  0  0  0
    9.7810   -3.0240   23.2840 C   0  0  0  0  0  0  0  0  0  0  0  0
   10.0260   -3.7080   24.3540 N   0  0  0  0  0  0  0  0  0  0  0  0
   11.0280   -2.0140   22.6860 S   0  0  0  0  0  0  0  0  0  0  0  0
   11.2990   -3.4380   24.7580 C   0  0  0  0  0  0  0  0  0  0  0  0
   12.0130   -2.5310   23.9810 C   0  0  0  0  0  0  0  0  0  0  0  0
   11.9060   -4.0080   25.8670 C   0  0  0  0  0  0  0  0  0  0  0  0
   13.3210   -2.1690   24.2890 C   0  0  0  0  0  0  0  0  0  0  0  0
   13.2120   -3.6680   26.1670 C   0  0  0  0  0  0  0  0  0  0  0  0
   13.9010   -2.7600   25.4020 C   0  0  0  0  0  0  0  0  0  0  0  0
  1  2  1  0
  2  3  1  0
  3  4  2  0
  3  5  1  0
  5  6  1  0
  5  7  1  0
  6  8  1  0
  7  9  1  0
  8 10  1  0
  9 10  1  0
 10 11  1  0
 11 12  2  0
 11 13  1  0
 12 14  1  0
 13 15  1  0
 14 15  2  0
 14 16  1  0
 15 17  1  0
 16 18  2  0
 17 19  2  0
 18 19  1  0
M  END
