MAK-UNK-702fb7d3-9-bromoalkyne
     RDKit          3D

 41 46  0  0  0  0  0  0  0  0999 V2000
    7.5660   -3.7690   20.5740 C   0  0  0  0  0  0  0  0  0  0  0  0
    6.1360   -3.7760   19.9790 C   0  0  0  0  0  0  0  0  0  0  0  0
    8.0330   -3.4720   21.9970 N   0  0  0  0  0  0  0  0  0  0  0  0
    7.2690   -3.8140   23.2230 C   0  0  0  0  0  0  0  0  0  0  0  0
    9.3960   -2.9350   22.3940 C   0  0  0  0  0  0  0  0  0  0  0  0
    7.2540   -2.6420   24.2060 C   0  0  0  0  0  0  0  0  0  0  0  0
    9.6110   -2.7160   23.9290 C   0  0  1  0  0  0  0  0  0  0  0  0
    5.7480   -2.3230   24.6120 C   0  0  0  0  0  0  0  0  0  0  0  0
    8.5820   -2.0600   24.5500 C   0  0  0  0  0  0  0  0  0  0  0  0
    9.6650   -4.0020   24.5500 C   0  0  0  0  0  0  0  0  0  0  0  0
    6.2550   -1.2350   25.4520 C   0  0  0  0  0  0  0  0  0  0  0  0
    8.8520   -0.9810   25.3930 C   0  0  0  0  0  0  0  0  0  0  0  0
    9.8140   -3.9770   26.0350 C   0  0  0  0  0  0  0  0  0  0  0  0
    9.5590   -5.1320   23.8330 C   0  0  0  0  0  0  0  0  0  0  0  0
    5.3920   -0.4550   26.1780 N   0  0  0  0  0  0  0  0  0  0  0  0
    7.5570   -1.1970   25.3500 C   0  0  0  0  0  0  0  0  0  0  0  0
    9.8330   -5.1630   26.7010 C   0  0  0  0  0  0  0  0  0  0  0  0
    9.5870   -6.2680   24.5200 C   0  0  0  0  0  0  0  0  0  0  0  0
    4.6800   -1.2340   27.0650 C   0  0  0  0  0  0  0  0  0  0  0  0
    9.7150   -6.3020   25.9340 C   0  0  0  0  0  0  0  0  0  0  0  0
    4.1760   -2.6880   26.7320 C   0  0  0  0  0  0  0  0  0  0  0  0
    3.2560   -3.0390   25.6160 C   0  0  0  0  0  0  0  0  0  0  0  0
    4.4250   -3.9420   27.3300 C   0  0  0  0  0  0  0  0  0  0  0  0
    3.0080   -4.3830   25.5830 C   0  0  0  0  0  0  0  0  0  0  0  0
    3.7130   -4.9620   26.6260 N   0  0  0  0  0  0  0  0  0  0  0  0
    2.2050   -5.1130   24.6930 C   0  0  0  0  0  0  0  0  0  0  0  0
    3.7090   -6.6210   26.9840 S   0  0  0  0  0  0  0  0  0  0  0  0
    2.8000   -6.1140   23.9140 C   0  0  0  0  0  0  0  0  0  0  0  0
    0.8170   -4.8190   24.5990 C   0  0  0  0  0  0  0  0  0  0  0  0
    3.8440   -7.3490   25.7420 O   0  0  0  0  0  0  0  0  0  0  0  0
    4.6650   -6.8100   28.0540 O   0  0  0  0  0  0  0  0  0  0  0  0
    2.1280   -6.9240   27.6840 C   0  0  0  0  0  0  0  0  0  0  0  0
    1.9430   -6.9390   22.9170 C   0  0  0  0  0  0  0  0  0  0  0  0
   -0.0200   -5.5300   23.7120 C   0  0  0  0  0  0  0  0  0  0  0  0
    0.2790   -3.8530   25.3590 F   0  0  0  0  0  0  0  0  0  0  0  0
    0.9900   -6.2050   27.2980 C   0  0  0  0  0  0  0  0  0  0  0  0
    1.9500   -7.9150   28.6720 C   0  0  0  0  0  0  0  0  0  0  0  0
    0.4380   -6.5570   22.8730 C   0  0  0  0  0  0  0  0  0  0  0  0
   -0.2220   -6.5040   27.8950 C   0  0  0  0  0  0  0  0  0  0  0  0
    0.7600   -8.2190   29.2710 N   0  0  0  0  0  0  0  0  0  0  0  0
   -0.2940   -7.4960   28.8540 C   0  0  0  0  0  0  0  0  0  0  0  0
  1  2  2  3
  1  3  1  0
  3  4  1  0
  3  5  1  0
  4  6  1  0
  5  7  1  0
  6  8  1  0
  6  9  2  0
  7  9  1  0
  7 10  1  1
  8 11  2  0
  9 12  1  0
 10 13  2  0
 10 14  1  0
 11 15  1  0
 11 16  1  0
 12 16  2  0
 13 17  1  0
 14 18  2  0
 15 19  1  0
 17 20  2  0
 18 20  1  0
 19 21  1  0
 21 22  1  0
 21 23  2  0
 22 24  2  0
 23 25  1  0
 24 25  1  0
 24 26  1  0
 25 27  1  0
 26 28  2  0
 26 29  1  0
 27 30  2  0
 27 31  2  0
 27 32  1  0
 28 33  1  0
 29 34  2  0
 29 35  1  0
 32 36  2  0
 32 37  1  0
 33 38  2  0
 34 38  1  0
 36 39  1  0
 37 40  2  0
 39 41  2  0
 40 41  1  0
M  END
