MAK-UNK-c8c8f7e2-18
     RDKit          3D

 18 19  0  0  0  0  0  0  0  0999 V2000
    4.9990   -3.7820   29.8630 O   0  0  0  0  0  0  0  0  0  0  0  0
    4.9750   -5.0140   29.8740 C   0  0  0  0  0  0  0  0  0  0  0  0
    4.2860   -5.8340   30.8680 N   0  0  0  0  0  0  0  0  0  0  0  0
    5.6370   -5.8660   28.8780 N   0  0  0  0  0  0  0  0  0  0  0  0
    4.9270   -7.1480   31.0510 C   0  0  0  0  0  0  0  0  0  0  0  0
    5.0630   -6.1730   27.6830 C   0  0  0  0  0  0  0  0  0  0  0  0
    5.1060   -7.3870   32.7910 Cl  0  0  0  0  0  0  0  0  0  0  0  0
    4.0330   -7.2980   27.6250 C   0  0  0  0  0  0  0  0  0  0  0  0
    5.4200   -5.4500   26.5500 C   0  0  0  0  0  0  0  0  0  0  0  0
    3.4200   -7.5820   26.2660 C   0  0  0  0  0  0  0  0  0  0  0  0
    4.8460   -5.7240   25.3030 C   0  0  0  0  0  0  0  0  0  0  0  0
    3.8750   -6.7390   25.1020 C   0  0  0  0  0  0  0  0  0  0  0  0
    5.1570   -5.0450   24.1570 N   0  0  0  0  0  0  0  0  0  0  0  0
    4.8070   -5.7840   23.0520 C   0  0  0  0  0  0  0  0  0  0  0  0
    6.3690   -4.5360   23.8380 C   0  0  0  0  0  0  0  0  0  0  0  0
    5.8730   -5.8020   22.0930 C   0  0  0  0  0  0  0  0  0  0  0  0
    6.9210   -5.0020   22.6590 C   0  0  0  0  0  0  0  0  0  0  0  0
    7.1170   -3.6230   24.5050 O   0  0  0  0  0  0  0  0  0  0  0  0
  1  2  2  0
  2  3  1  0
  2  4  1  0
  3  5  1  0
  4  6  1  0
  5  7  1  0
  6  8  2  0
  6  9  1  0
  8 10  1  0
  9 11  2  0
 10 12  2  0
 11 12  1  0
 11 13  1  0
 13 14  1  0
 13 15  1  0
 14 16  1  0
 15 17  1  0
 16 17  1  0
 15 18  2  0
M  END
