MAK-UNK-ec98eaf6-37-vinylsulfonamide
     RDKit          3D

 24 26  0  0  0  0  0  0  0  0999 V2000
    6.9440   -3.1750   18.8380 C   0  0  0  0  0  0  0  0  0  0  0  0
    7.1100   -2.0340   19.7800 C   0  0  0  0  0  0  0  0  0  0  0  0
    5.8370   -2.0760   21.0080 S   0  0  0  0  0  0  0  0  0  0  0  0
    5.0750   -3.3590   21.0540 O   0  0  0  0  0  0  0  0  0  0  0  0
    5.1180   -0.8360   20.8280 O   0  0  0  0  0  0  0  0  0  0  0  0
    6.8430   -1.8560   22.3270 N   0  0  0  0  0  0  0  0  0  0  0  0
    6.7720   -0.5120   22.9940 C   0  0  0  0  0  0  0  0  0  0  0  0
    8.3210   -2.2370   22.3350 C   0  0  1  0  0  0  0  0  0  0  0  0
    8.2730   -0.4000   23.3470 C   0  0  2  0  0  0  0  0  0  0  0  0
    9.0230   -0.9010   22.1420 C   0  0  0  0  0  0  0  0  0  0  0  0
    8.5690   -2.6230   23.6240 C   0  0  0  0  0  0  0  0  0  0  0  0
    8.4110   -1.5240   24.4450 C   0  0  2  0  0  0  0  0  0  0  0  0
    7.3230   -1.5710   25.3160 C   0  0  0  0  0  0  0  0  0  0  0  0
    6.8550   -0.3830   25.9780 C   0  0  0  0  0  0  0  0  0  0  0  0
    7.1490    0.8360   25.0630 C   0  0  0  0  0  0  0  0  0  0  0  0
    6.2560   -0.5510   27.2470 C   0  0  0  0  0  0  0  0  0  0  0  0
    6.5050    1.7340   26.1440 C   0  0  0  0  0  0  0  0  0  0  0  0
    5.7750    0.4230   27.9800 N   0  0  0  0  0  0  0  0  0  0  0  0
    6.1710   -1.8510   27.7500 N   0  0  0  0  0  0  0  0  0  0  0  0
    6.6370    3.1020   25.5020 C   0  0  0  0  0  0  0  0  0  0  0  0
    5.9150    1.5740   27.3940 C   0  0  0  0  0  0  0  0  0  0  0  0
    6.6340   -2.0060   29.1190 C   0  0  0  0  0  0  0  0  0  0  0  0
    6.7240    4.1550   25.0170 N   0  0  0  0  0  0  0  0  0  0  0  0
    7.6710   -1.0790   29.3850 C   0  0  0  0  0  0  0  0  0  0  0  0
  1  2  1  0
  3  2  1  0
  3  4  2  0
  3  5  2  0
  3  6  1  0
  6  7  1  0
  6  8  1  0
  9  7  1  6
  8 10  1  0
  9 10  1  0
  8 11  1  1
  9 12  1  0
 11 12  1  0
 12 13  1  6
 13 14  1  0
 14 15  2  0
 14 16  1  0
 15 17  1  0
 16 18  2  0
 16 19  1  0
 17 20  1  0
 17 21  2  0
 18 21  1  0
 19 22  1  0
 20 23  3  0
 22 24  1  0
M  END
