MAK-UNK-849bee6c-1-vinylsulfonamide
     RDKit          3D

 28 30  0  0  0  0  0  0  0  0999 V2000
    7.6390   -2.9930   18.6910 C   0  0  0  0  0  0  0  0  0  0  0  0
    7.4330   -2.3250   20.0230 C   0  0  0  0  0  0  0  0  0  0  0  0
    6.1800   -3.2130   20.9350 S   0  0  0  0  0  0  0  0  0  0  0  0
    5.0020   -3.3740   20.1130 O   0  0  0  0  0  0  0  0  0  0  0  0
    6.7890   -4.3790   21.5440 O   0  0  0  0  0  0  0  0  0  0  0  0
    5.8430   -2.0920   22.1520 N   0  0  0  0  0  0  0  0  0  0  0  0
    6.2980   -0.7390   21.9010 C   0  0  0  0  0  0  0  0  0  0  0  0
    6.0070   -2.5570   23.5350 C   0  0  0  0  0  0  0  0  0  0  0  0
    7.6750   -0.4870   22.5330 C   0  0  0  0  0  0  0  0  0  0  0  0
    7.3070   -2.0710   24.2410 C   0  0  0  0  0  0  0  0  0  0  0  0
    7.6570   -0.7590   23.9740 N   0  0  0  0  0  0  0  0  0  0  0  0
    8.6220   -0.1910   24.9150 C   0  0  0  0  0  0  0  0  0  0  0  0
   10.0210    0.1070   24.3970 C   0  0  0  0  0  0  0  0  0  0  0  0
   10.4220    1.4750   23.9090 C   0  0  0  0  0  0  0  0  0  0  0  0
   10.9670   -0.9110   24.3570 C   0  0  0  0  0  0  0  0  0  0  0  0
   11.8030    1.6420   23.4110 C   0  0  0  0  0  0  0  0  0  0  0  0
   12.2950   -0.7900   23.8860 C   0  0  0  0  0  0  0  0  0  0  0  0
   12.2450    2.8800   22.9330 C   0  0  0  0  0  0  0  0  0  0  0  0
   12.7610    0.4330   23.4130 C   0  0  0  0  0  0  0  0  0  0  0  0
   12.9210   -2.0450   23.9640 N   0  0  0  0  0  0  0  0  0  0  0  0
   11.7590   -2.7170   23.5760 C   0  0  0  0  0  0  0  0  0  0  0  0
   10.9590   -3.4460   24.4290 C   0  0  0  0  0  0  0  0  0  0  0  0
   11.4170   -2.5590   22.2470 C   0  0  0  0  0  0  0  0  0  0  0  0
    9.7990   -3.9820   23.9560 C   0  0  0  0  0  0  0  0  0  0  0  0
   10.2690   -3.0370   21.6680 N   0  0  0  0  0  0  0  0  0  0  0  0
   12.4880   -1.8130   21.4920 C   0  0  0  0  0  0  0  0  0  0  0  0
    9.4450   -3.7770   22.6200 C   0  0  0  0  0  0  0  0  0  0  0  0
   13.6200   -1.2810   20.8390 N   0  0  0  0  0  0  0  0  0  0  0  0
  1  2  1  0
  3  2  1  0
  3  4  2  0
  3  5  2  0
  3  6  1  0
  6  7  1  0
  6  8  1  0
  7  9  1  0
  8 10  1  0
  9 11  1  0
 10 11  1  0
 11 12  1  0
 12 13  1  0
 13 14  2  0
 13 15  1  0
 14 16  1  0
 15 17  2  0
 16 18  1  0
 16 19  2  0
 17 19  1  0
 17 20  1  0
 20 21  1  0
 21 22  2  0
 21 23  1  0
 22 24  1  0
 23 25  2  0
 23 26  1  0
 24 27  2  0
 25 27  1  0
 26 28  3  0
M  END
