MAK-UNK-f983951f-5-nitrile
     RDKit          3D

 13 13  0  0  0  0  0  0  0  0999 V2000
    6.6840   -4.4060   20.3650 C   0  0  0  0  0  0  0  0  0  0  0  0
    5.8270   -3.7340   19.6810 N   0  0  0  0  0  0  0  0  0  0  0  0
    6.8320   -4.2180   21.7250 N   0  0  0  0  0  0  0  0  0  0  0  0
    5.7170   -4.3460   22.6610 C   0  0  0  0  0  0  0  0  0  0  0  0
    4.3860   -4.2960   22.1590 O   0  0  0  0  0  0  0  0  0  0  0  0
    5.9900   -4.5160   23.9880 O   0  0  0  0  0  0  0  0  0  0  0  0
    4.8900   -5.0420   24.7840 C   0  0  0  0  0  0  0  0  0  0  0  0
    3.9130   -3.9180   25.2360 C   0  0  0  0  0  0  0  0  0  0  0  0
    2.4010   -4.1090   24.9980 C   0  0  0  0  0  0  0  0  0  0  0  0
    4.5000   -2.6640   25.9060 C   0  0  0  0  0  0  0  0  0  0  0  0
    1.4920   -2.9650   25.4680 C   0  0  0  0  0  0  0  0  0  0  0  0
    3.5870   -1.6770   26.2940 C   0  0  0  0  0  0  0  0  0  0  0  0
    2.0660   -1.7070   26.1320 C   0  0  0  0  0  0  0  0  0  0  0  0
  1  2  2  3
  1  3  1  0
  3  4  1  0
  4  5  2  0
  4  6  1  0
  6  7  1  0
  7  8  1  0
  8  9  2  0
  8 10  1  0
  9 11  1  0
 10 12  2  0
 11 13  2  0
 12 13  1  0
M  END
