MAK-UNK-e05327b2-3-nitrile
     RDKit          3D

 49 55  0  0  0  0  0  0  0  0999 V2000
    6.5310   -4.3340   20.3130 C   0  0  0  0  0  0  0  0  0  0  0  0
    5.4100   -4.0920   19.8030 N   0  0  0  0  0  0  0  0  0  0  0  0
    6.6670   -5.0150   21.5280 N   0  0  0  0  0  0  0  0  0  0  0  0
    7.5080   -4.5500   22.6700 C   0  0  0  0  0  0  0  0  0  0  0  0
    5.8580   -6.2010   21.8620 C   0  0  0  0  0  0  0  0  0  0  0  0
    6.4860   -4.1850   23.7920 C   0  0  0  0  0  0  0  0  0  0  0  0
    5.0080   -6.0640   23.1140 C   0  0  0  0  0  0  0  0  0  0  0  0
    5.7240   -5.3870   24.2240 N   0  0  0  0  0  0  0  0  0  0  0  0
    5.0330   -5.3460   25.7900 S   0  0  0  0  0  0  0  0  0  0  0  0
    6.1080   -5.2240   26.7470 O   0  0  0  0  0  0  0  0  0  0  0  0
    4.0640   -6.4170   25.8900 O   0  0  0  0  0  0  0  0  0  0  0  0
    4.1500   -3.8140   25.9090 C   0  0  0  0  0  0  0  0  0  0  0  0
    4.6670   -2.3690   25.8600 C   0  0  0  0  0  0  0  0  0  0  0  0
    2.4410   -3.9210   26.1070 S   0  0  0  0  0  0  0  0  0  0  0  0
    3.4930   -1.3930   25.9820 C   0  0  0  0  0  0  0  0  0  0  0  0
    2.2200   -2.2220   26.1140 C   0  0  0  0  0  0  0  0  0  0  0  0
    0.9470   -1.3660   26.2300 C   0  0  0  0  0  0  0  0  0  0  0  0
    1.0010   -0.0620   25.9770 N   0  0  0  0  0  0  0  0  0  0  0  0
    1.5550    0.6630   27.0100 C   0  0  0  0  0  0  0  0  0  0  0  0
    1.6500    0.2500   24.7010 C   0  0  0  0  0  0  0  0  0  0  0  0
    1.1820    2.0140   26.8470 C   0  0  0  0  0  0  0  0  0  0  0  0
    2.4920    1.3690   24.7890 C   0  0  0  0  0  0  0  0  0  0  0  0
    1.9420    2.4580   25.6770 N   0  0  0  0  0  0  0  0  0  0  0  0
    1.6000    4.0070   25.0220 S   0  0  0  0  0  0  0  0  0  0  0  0
    0.8570    3.7600   23.8030 O   0  0  0  0  0  0  0  0  0  0  0  0
    2.8620    4.7140   24.9980 O   0  0  0  0  0  0  0  0  0  0  0  0
    0.4910    4.6960   26.1420 C   0  0  0  0  0  0  0  0  0  0  0  0
   -0.8740    4.4990   25.8990 C   0  0  0  0  0  0  0  0  0  0  0  0
    0.9520    5.4500   27.2840 C   0  0  0  0  0  0  0  0  0  0  0  0
   -1.8320    5.0220   26.7510 C   0  0  0  0  0  0  0  0  0  0  0  0
   -0.0200    5.9970   28.1740 C   0  0  0  0  0  0  0  0  0  0  0  0
    2.3010    5.7000   27.6060 C   0  0  0  0  0  0  0  0  0  0  0  0
   -1.3800    5.8080   27.9440 C   0  0  0  0  0  0  0  0  0  0  0  0
    0.4140    6.7810   29.3640 C   0  0  0  0  0  0  0  0  0  0  0  0
    2.7710    6.4420   28.7300 C   0  0  0  0  0  0  0  0  0  0  0  0
    1.8840    7.0100   29.6490 C   0  0  0  0  0  0  0  0  0  0  0  0
    4.1410    6.6190   28.9430 C   0  0  0  0  0  0  0  0  0  0  0  0
    2.2760    7.7490   30.7760 C   0  0  0  0  0  0  0  0  0  0  0  0
    4.7430    5.7160   29.7910 C   0  0  0  0  0  0  0  0  0  0  0  0
    2.3780    6.9220   31.8930 C   0  0  0  0  0  0  0  0  0  0  0  0
    4.1600    4.5310   30.1740 C   0  0  0  0  0  0  0  0  0  0  0  0
    5.9870    5.8010   30.4030 C   0  0  0  0  0  0  0  0  0  0  0  0
    2.0660    5.5660   31.8830 C   0  0  0  0  0  0  0  0  0  0  0  0
    2.9050    7.4390   33.4600 S   0  0  0  0  0  0  0  0  0  0  0  0
    4.8410    3.6930   31.0270 C   0  0  0  0  0  0  0  0  0  0  0  0
    6.3400    4.4270   31.3930 S   0  0  0  0  0  0  0  0  0  0  0  0
    2.2410    4.9390   33.1050 C   0  0  0  0  0  0  0  0  0  0  0  0
    2.6960    5.7790   34.1100 C   0  0  0  0  0  0  0  0  0  0  0  0
    3.0360    5.3990   35.7500 Cl  0  0  0  0  0  0  0  0  0  0  0  0
  1  2  2  3
  1  3  1  0
  3  4  1  0
  3  5  1  0
  4  6  1  0
  5  7  1  0
  6  8  1  0
  7  8  1  0
  8  9  1  0
  9 10  2  0
  9 11  2  0
  9 12  1  0
 12 13  2  0
 12 14  1  0
 13 15  1  0
 14 16  1  0
 15 16  2  0
 16 17  1  0
 17 18  1  0
 18 19  1  0
 18 20  1  0
 19 21  1  0
 20 22  1  0
 21 23  1  0
 22 23  1  0
 23 24  1  0
 24 25  2  0
 24 26  2  0
 24 27  1  0
 27 28  2  0
 27 29  1  0
 28 30  1  0
 29 31  2  0
 29 32  1  0
 30 33  2  0
 31 33  1  0
 31 34  1  0
 32 35  2  0
 34 36  2  0
 35 36  1  0
 35 37  1  0
 36 38  1  0
 37 39  1  0
 38 40  1  0
 39 41  1  0
 39 42  2  0
 40 43  2  0
 40 44  1  0
 41 45  2  0
 42 46  1  0
 45 46  1  0
 43 47  1  0
 44 48  1  0
 47 48  2  0
 48 49  1  0
M  END
