MAK-UNK-8145c7a0-12
     RDKit          3D

 26 28  0  0  0  0  0  0  0  0999 V2000
    9.1920  -11.4010   27.8410 C   0  0  0  0  0  0  0  0  0  0  0  0
    8.3850  -12.1970   25.6940 S   0  0  0  0  0  0  0  0  0  0  0  0
    8.4140  -11.3490   24.8220 O   0  0  0  0  0  0  0  0  0  0  0  0
    8.3340  -13.0690   25.2750 O   0  0  0  0  0  0  0  0  0  0  0  0
    9.5740  -11.9670   27.4580 N   0  0  0  0  0  0  0  0  0  0  0  0
    9.7240  -10.6600   27.9070 C   0  0  0  0  0  0  0  0  0  0  0  0
    9.9300   -9.0360   26.5690 C   0  0  0  0  0  0  0  0  0  0  0  0
    9.3740   -7.1940   26.5860 C   0  0  0  0  0  0  0  0  0  0  0  0
    9.5870   -6.3190   25.2930 C   0  0  0  0  0  0  0  0  0  0  0  0
    8.6460   -6.3710   27.7130 C   0  0  0  0  0  0  0  0  0  0  0  0
    9.1530   -4.8840   25.1800 C   0  0  0  0  0  0  0  0  0  0  0  0
    8.2390   -5.0450   27.6220 C   0  0  0  0  0  0  0  0  0  0  0  0
    8.4800   -4.2530   26.3450 C   0  0  0  0  0  0  0  0  0  0  0  0
    8.1720   -2.8100   25.9520 C   0  0  0  0  0  0  0  0  0  0  0  0
    7.5370   -1.8970   26.6810 N   0  0  0  0  0  0  0  0  0  0  0  0
    8.7100   -2.2600   24.4110 S   0  0  0  0  0  0  0  0  0  0  0  0
    7.4400   -0.6940   26.0690 N   0  0  0  0  0  0  0  0  0  0  0  0
    8.0610   -0.7360   24.7810 C   0  0  0  0  0  0  0  0  0  0  0  0
    8.1370    0.3440   23.9060 C   0  0  0  0  0  0  0  0  0  0  0  0
    9.2820    0.5340   23.3000 N   0  0  0  0  0  0  0  0  0  0  0  0
   10.2380    1.0010   24.0950 C   0  0  0  0  0  0  0  0  0  0  0  0
    9.7040   -0.5790   22.4130 C   0  0  0  0  0  0  0  0  0  0  0  0
   11.4910    1.2030   23.4950 C   0  0  0  0  0  0  0  0  0  0  0  0
   11.0820   -0.8790   22.4260 C   0  0  0  0  0  0  0  0  0  0  0  0
   11.9770    0.0270   22.9640 C   0  0  0  0  0  0  0  0  0  0  0  0
   11.5430   -2.0310   21.9160 F   0  0  0  0  0  0  0  0  0  0  0  0
  1  2  1  0
  2  3  2  0
  2  4  2  0
  2  5  1  0
  5  6  1  0
  6  7  1  0
  7  8  1  0
  8  9  2  0
  8 10  1  0
  9 11  1  0
 10 12  2  0
 11 13  2  0
 12 13  1  0
 13 14  1  0
 14 15  2  0
 14 16  1  0
 15 17  1  0
 16 18  1  0
 17 18  2  0
 18 19  1  0
 19 20  1  0
 20 21  1  0
 20 22  1  0
 21 23  1  0
 22 24  1  0
 23 25  1  0
 24 25  2  0
 24 26  1  0
M  END
