MAK-UNK-af83ef51-26-acrylamide
     RDKit          3D

 31 33  0  0  0  0  0  0  0  0999 V2000
    7.7100   -3.0940   19.1700 C   0  0  0  0  0  0  0  0  0  0  0  0
    6.4470   -2.2540   19.1740 C   0  0  0  0  0  0  0  0  0  0  0  0
    5.3700   -2.9820   19.9190 C   0  0  0  0  0  0  0  0  0  0  0  0
    4.7040   -3.7910   19.3160 O   0  0  0  0  0  0  0  0  0  0  0  0
    5.2160   -2.7620   21.2790 N   0  0  0  0  0  0  0  0  0  0  0  0
    5.5620   -1.4990   21.8750 C   0  0  0  0  0  0  0  0  0  0  0  0
    5.2170   -3.8400   22.2700 C   0  0  0  0  0  0  0  0  0  0  0  0
    6.9210   -1.6580   22.5020 C   0  0  0  0  0  0  0  0  0  0  0  0
    6.5550   -4.0000   23.0130 C   0  0  0  0  0  0  0  0  0  0  0  0
    7.1850   -2.7380   23.5110 N   0  0  0  0  0  0  0  0  0  0  0  0
    8.5030   -2.9010   23.6970 C   0  0  0  0  0  0  0  0  0  0  0  0
    9.0840   -1.5920   23.1950 C   0  0  1  0  0  0  0  0  0  0  0  0
    8.8840   -0.3050   23.9240 C   0  0  0  0  0  0  0  0  0  0  0  0
   10.5530   -1.4870   22.9910 C   0  0  2  0  0  0  0  0  0  0  0  0
    9.5300    0.5920   22.9630 N   0  0  0  0  0  0  0  0  0  0  0  0
   10.4870   -0.2300   22.3400 C   0  0  0  0  0  0  0  0  0  0  0  0
   11.0470   -2.4350   22.0300 O   0  0  0  0  0  0  0  0  0  0  0  0
    8.9290    1.7880   22.4480 C   0  0  0  0  0  0  0  0  0  0  0  0
   12.3970   -2.2040   21.6380 C   0  0  0  0  0  0  0  0  0  0  0  0
    8.8220    2.0460   21.1050 O   0  0  0  0  0  0  0  0  0  0  0  0
    8.3820    2.7730   23.3010 C   0  0  0  0  0  0  0  0  0  0  0  0
    9.0200    4.0200   23.1840 C   0  0  0  0  0  0  0  0  0  0  0  0
   10.1130    4.1100   23.5810 N   0  0  0  0  0  0  0  0  0  0  0  0
   10.7970    2.9950   23.6410 C   0  0  0  0  0  0  0  0  0  0  0  0
   10.4160    1.7400   24.3480 C   0  0  0  0  0  0  0  0  0  0  0  0
   11.9830    3.0020   22.9800 N   0  0  0  0  0  0  0  0  0  0  0  0
   11.3000    0.5620   24.3110 C   0  0  0  0  0  0  0  0  0  0  0  0
   12.7350    1.8500   23.0090 C   0  0  0  0  0  0  0  0  0  0  0  0
   12.4230    0.6300   23.6490 C   0  0  0  0  0  0  0  0  0  0  0  0
   13.2740   -0.6280   23.6480 C   0  0  0  0  0  0  0  0  0  0  0  0
   13.1380   -1.6230   24.5630 N   0  0  0  0  0  0  0  0  0  0  0  0
  1  2  1  0
  2  3  1  0
  3  4  2  0
  3  5  1  0
  5  6  1  0
  5  7  1  0
  6  8  1  0
  7  9  1  0
  8 10  1  0
  9 10  1  0
 10 11  1  0
 12 11  1  1
 12 13  1  0
 12 14  1  0
 13 15  1  0
 14 16  1  0
 15 16  1  0
 14 17  1  6
 15 18  1  0
 17 19  1  0
 18 20  2  0
 18 21  1  0
 21 22  1  0
 22 23  1  0
 23 24  1  0
 24 25  2  0
 24 26  1  0
 25 27  1  0
 26 28  2  0
 27 29  2  0
 28 29  1  0
 29 30  1  0
 30 31  3  0
M  END
