MAK-UNK-849bee6c-13-acrylamide
     RDKit          3D

 26 28  0  0  0  0  0  0  0  0999 V2000
    7.9980   -3.4010   19.6980 C   0  0  0  0  0  0  0  0  0  0  0  0
    6.8950   -2.6400   19.0310 C   0  0  0  0  0  0  0  0  0  0  0  0
    5.8550   -3.0000   20.0030 C   0  0  0  0  0  0  0  0  0  0  0  0
    5.0410   -3.8860   19.7360 O   0  0  0  0  0  0  0  0  0  0  0  0
    5.9770   -2.3110   21.2000 N   0  0  0  0  0  0  0  0  0  0  0  0
    6.9150   -1.1880   21.1940 C   0  0  0  0  0  0  0  0  0  0  0  0
    5.9340   -2.9850   22.5070 C   0  0  0  0  0  0  0  0  0  0  0  0
    8.2930   -1.5460   21.7360 C   0  0  0  0  0  0  0  0  0  0  0  0
    7.3570   -3.3690   22.9780 C   0  0  0  0  0  0  0  0  0  0  0  0
    8.1760   -2.1490   23.0590 N   0  0  0  0  0  0  0  0  0  0  0  0
    9.1940   -2.1940   24.0010 C   0  0  0  0  0  0  0  0  0  0  0  0
   10.3840   -1.2830   23.7160 C   0  0  0  0  0  0  0  0  0  0  0  0
   11.6610   -1.7650   23.1260 C   0  0  0  0  0  0  0  0  0  0  0  0
   10.3010    0.0950   24.0150 C   0  0  0  0  0  0  0  0  0  0  0  0
   12.7120   -0.8880   22.8860 C   0  0  0  0  0  0  0  0  0  0  0  0
   11.3790    0.9710   23.7600 C   0  0  0  0  0  0  0  0  0  0  0  0
   12.5570    0.4570   23.2020 C   0  0  0  0  0  0  0  0  0  0  0  0
   11.2240    2.1600   24.0410 O   0  0  0  0  0  0  0  0  0  0  0  0
   10.1310    2.7800   23.4580 C   0  0  0  0  0  0  0  0  0  0  0  0
    9.3320    2.0880   22.5220 C   0  0  0  0  0  0  0  0  0  0  0  0
    9.9080    4.0590   23.8560 N   0  0  0  0  0  0  0  0  0  0  0  0
    8.2150    2.6470   21.9060 C   0  0  0  0  0  0  0  0  0  0  0  0
    8.7610    4.6790   23.2440 C   0  0  0  0  0  0  0  0  0  0  0  0
    7.9310    3.9910   22.2940 N   0  0  0  0  0  0  0  0  0  0  0  0
    8.6620    6.0860   23.7970 C   0  0  0  0  0  0  0  0  0  0  0  0
    8.8680    6.4390   25.1090 N   0  0  0  0  0  0  0  0  0  0  0  0
  1  2  1  0
  2  3  1  0
  3  4  2  0
  3  5  1  0
  5  6  1  0
  5  7  1  0
  6  8  1  0
  7  9  1  0
  8 10  1  0
  9 10  1  0
 10 11  1  0
 11 12  1  0
 12 13  2  0
 12 14  1  0
 13 15  1  0
 14 16  2  0
 15 17  2  0
 16 17  1  0
 16 18  1  0
 18 19  1  0
 19 20  2  0
 19 21  1  0
 20 22  1  0
 21 23  2  0
 22 24  2  0
 23 24  1  0
 23 25  1  0
 25 26  3  0
M  END
