MAK-UNK-ed378e62-24
     RDKit          3D

 14 15  0  0  0  0  0  0  0  0999 V2000
    3.1510   -6.6340   22.7600 N   0  0  0  0  0  0  0  0  0  0  0  0
    4.0260   -5.9000   22.9530 C   0  0  0  0  0  0  0  0  0  0  0  0
    5.0630   -5.0200   23.2890 C   0  0  0  0  0  0  0  0  0  0  0  0
    5.0630   -4.7130   24.5540 N   0  0  0  0  0  0  0  0  0  0  0  0
    5.9370   -4.5920   22.3410 N   0  0  0  0  0  0  0  0  0  0  0  0
    6.0260   -3.8940   24.9720 C   0  0  0  0  0  0  0  0  0  0  0  0
    6.8970   -3.7810   22.8280 C   0  0  0  0  0  0  0  0  0  0  0  0
    6.9950   -3.3870   24.1340 C   0  0  0  0  0  0  0  0  0  0  0  0
    8.0210   -3.2470   22.1500 N   0  0  0  0  0  0  0  0  0  0  0  0
    8.6390   -4.3210   22.6870 C   0  0  0  0  0  0  0  0  0  0  0  0
    9.5520   -4.3110   23.6830 C   0  0  0  0  0  0  0  0  0  0  0  0
    8.2660   -5.5380   22.2350 C   0  0  0  0  0  0  0  0  0  0  0  0
    9.8810   -5.6010   24.0350 C   0  0  0  0  0  0  0  0  0  0  0  0
    9.0300   -6.7510   23.1080 S   0  0  0  0  0  0  0  0  0  0  0  0
  1  2  3  0
  2  3  1  0
  3  4  2  0
  3  5  1  0
  4  6  1  0
  5  7  2  0
  6  8  2  0
  7  8  1  0
  7  9  1  0
  9 10  1  0
 10 11  1  0
 10 12  2  0
 11 13  2  0
 12 14  1  0
 13 14  1  0
M  END
