MAK-UNK-176ca439-3-chloroacetamide
     RDKit          3D

 23 24  0  0  0  0  0  0  0  0999 V2000
    7.1130   -2.9520   18.7610 C   0  0  0  0  0  0  0  0  0  0  0  0
    6.1800   -3.2840   19.8790 C   0  0  0  0  0  0  0  0  0  0  0  0
    5.3300   -4.1560   19.7260 O   0  0  0  0  0  0  0  0  0  0  0  0
    6.3760   -2.5640   21.0430 N   0  0  0  0  0  0  0  0  0  0  0  0
    6.1580   -3.1230   22.3050 C   0  0  0  0  0  0  0  0  0  0  0  0
    7.3150   -1.4240   21.0430 C   0  0  0  0  0  0  0  0  0  0  0  0
    7.4100   -3.2910   23.1300 C   0  0  0  0  0  0  0  0  0  0  0  0
    8.4840   -1.7420   21.7300 C   0  0  0  0  0  0  0  0  0  0  0  0
    8.1760   -2.2190   23.0890 N   0  0  0  0  0  0  0  0  0  0  0  0
    9.3110   -2.2260   24.0200 C   0  0  0  0  0  0  0  0  0  0  0  0
   10.4450   -1.2600   23.7290 C   0  0  0  0  0  0  0  0  0  0  0  0
   11.7130   -2.0000   23.3700 C   0  0  0  0  0  0  0  0  0  0  0  0
   10.3550    0.1270   23.7740 C   0  0  0  0  0  0  0  0  0  0  0  0
   12.9220   -1.1210   23.0510 C   0  0  0  0  0  0  0  0  0  0  0  0
   11.4470    0.9510   23.4800 C   0  0  0  0  0  0  0  0  0  0  0  0
   12.6820    0.3870   23.1360 C   0  0  0  0  0  0  0  0  0  0  0  0
   11.2940    2.3850   23.5200 C   0  0  0  0  0  0  0  0  0  0  0  0
   10.2470    2.7830   23.9830 O   0  0  0  0  0  0  0  0  0  0  0  0
   12.5700    3.3250   22.8740 S   0  0  0  0  0  0  0  0  0  0  0  0
   11.5180    4.4630   22.2520 C   0  0  0  0  0  0  0  0  0  0  0  0
   11.2880    5.5890   23.0540 C   0  0  0  0  0  0  0  0  0  0  0  0
   10.5620    6.5890   22.3930 N   0  0  0  0  0  0  0  0  0  0  0  0
    9.3570    7.1080   23.0290 C   0  0  0  0  0  0  0  0  0  0  0  0
  1  2  1  0
  2  3  2  0
  2  4  1  0
  4  5  1  0
  4  6  1  0
  5  7  1  0
  6  8  1  0
  7  9  1  0
  8  9  1  0
  9 10  1  0
 10 11  1  0
 11 12  2  0
 11 13  1  0
 12 14  1  0
 13 15  2  0
 14 16  2  0
 15 16  1  0
 15 17  1  0
 17 18  2  0
 17 19  1  0
 19 20  1  0
 20 21  1  0
 21 22  1  0
 22 23  1  0
M  END
