MAK-UNK-8fdbca50-10-acrylamide
     RDKit          3D

 40 43  0  0  0  0  0  0  0  0999 V2000
    6.6550   -3.4310   19.4610 C   0  0  0  0  0  0  0  0  0  0  0  0
    6.7300   -2.3760   20.5270 C   0  0  0  0  0  0  0  0  0  0  0  0
    5.3880   -2.2160   21.1940 C   0  0  0  0  0  0  0  0  0  0  0  0
    4.7660   -3.2120   21.6050 O   0  0  0  0  0  0  0  0  0  0  0  0
    4.8960   -0.9060   21.3180 N   0  0  0  0  0  0  0  0  0  0  0  0
    4.8960    0.1120   20.2410 C   0  0  0  0  0  0  0  0  0  0  0  0
    4.7590   -0.3560   22.6710 C   0  0  0  0  0  0  0  0  0  0  0  0
    5.6340    1.3120   20.4800 C   0  0  0  0  0  0  0  0  0  0  0  0
    5.0650    1.1460   22.7250 C   0  0  0  0  0  0  0  0  0  0  0  0
    6.2070    1.4800   21.7490 C   0  0  0  0  0  0  0  0  0  0  0  0
    6.6280    2.7910   22.0620 C   0  0  0  0  0  0  0  0  0  0  0  0
    5.9760    3.7330   21.6170 O   0  0  0  0  0  0  0  0  0  0  0  0
    7.8690    2.9380   22.9510 N   0  0  0  0  0  0  0  0  0  0  0  0
    7.6430    3.7440   24.1820 C   0  0  0  0  0  0  0  0  0  0  0  0
    9.1040    2.1570   22.7630 C   0  0  2  0  0  0  0  0  0  0  0  0
    8.9170    1.2170   21.6400 C   0  0  0  0  0  0  0  0  0  0  0  0
    9.3250    1.2900   24.0010 C   0  0  0  0  0  0  0  0  0  0  0  0
    8.1700    1.4690   24.7420 N   0  0  0  0  0  0  0  0  0  0  0  0
   10.4140    0.4610   24.3820 C   0  0  0  0  0  0  0  0  0  0  0  0
    8.0440    0.8100   25.9250 C   0  0  0  0  0  0  0  0  0  0  0  0
   10.2820   -0.2150   25.5700 C   0  0  0  0  0  0  0  0  0  0  0  0
   11.9670    0.1590   23.5330 S   0  0  0  0  0  0  0  0  0  0  0  0
    9.1580   -0.0770   26.3560 C   0  0  0  0  0  0  0  0  0  0  0  0
   12.2750    1.3600   22.7910 O   0  0  0  0  0  0  0  0  0  0  0  0
   12.8700   -0.3350   24.5530 O   0  0  0  0  0  0  0  0  0  0  0  0
   11.8130   -1.1810   22.5210 N   0  0  0  0  0  0  0  0  0  0  0  0
   12.8220   -1.8660   21.8220 C   0  0  0  0  0  0  0  0  0  0  0  0
   10.6340   -1.7760   22.2770 C   0  0  0  0  0  0  0  0  0  0  0  0
   12.3080   -2.9290   21.0960 C   0  0  0  0  0  0  0  0  0  0  0  0
   10.8510   -2.7900   21.4130 C   0  0  0  0  0  0  0  0  0  0  0  0
    9.3720   -1.5180   22.7610 C   0  0  0  0  0  0  0  0  0  0  0  0
   12.9010   -3.9350   20.2540 C   0  0  0  0  0  0  0  0  0  0  0  0
    9.1240   -1.7390   24.1020 C   0  0  0  0  0  0  0  0  0  0  0  0
    8.3130   -1.0640   22.0000 C   0  0  0  0  0  0  0  0  0  0  0  0
   14.2260   -3.8580   20.1960 N   0  0  0  0  0  0  0  0  0  0  0  0
    7.9340   -1.5510   24.7760 C   0  0  0  0  0  0  0  0  0  0  0  0
    7.0660   -0.8330   22.5570 C   0  0  0  0  0  0  0  0  0  0  0  0
    8.4500   -0.8340   20.6980 F   0  0  0  0  0  0  0  0  0  0  0  0
   14.7820   -5.0820   20.5700 C   0  0  0  0  0  0  0  0  0  0  0  0
    6.7920   -1.0440   23.9150 C   0  0  0  0  0  0  0  0  0  0  0  0
  1  2  1  0
  2  3  1  0
  3  4  2  0
  3  5  1  0
  5  6  1  0
  5  7  1  0
  6  8  1  0
  7  9  1  0
  8 10  1  0
  9 10  1  0
 10 11  1  0
 11 12  2  0
 11 13  1  0
 13 14  1  0
 13 15  1  0
 15 16  1  6
 15 17  1  0
 17 18  2  0
 17 19  1  0
 18 20  1  0
 19 21  2  0
 22 19  1  0
 20 23  2  0
 21 23  1  0
 22 24  2  0
 22 25  2  0
 22 26  1  0
 26 27  1  0
 26 28  1  0
 27 29  2  0
 28 30  2  0
 29 30  1  0
 28 31  1  0
 29 32  1  0
 31 33  2  0
 31 34  1  0
 32 35  1  0
 33 36  1  0
 34 37  2  0
 34 38  1  0
 35 39  1  0
 36 40  2  0
 37 40  1  0
M  END
