MAK-UNK-5d2caa6f-12-nitrile
     RDKit          3D

 21 24  0  0  0  0  0  0  0  0999 V2000
    6.8480   -3.3360   19.4580 C   0  0  0  0  0  0  0  0  0  0  0  0
    6.0670   -3.0370   18.5010 N   0  0  0  0  0  0  0  0  0  0  0  0
    6.5770   -2.9720   20.7660 N   0  0  0  0  0  0  0  0  0  0  0  0
    6.5290   -3.9820   21.8460 C   0  0  0  0  0  0  0  0  0  0  0  0
    7.0750   -1.8110   21.4550 C   0  0  1  0  0  0  0  0  0  0  0  0
    7.0700   -3.1720   23.0080 C   0  0  2  0  0  0  0  0  0  0  0  0
    6.4610   -1.8030   22.8430 C   0  0  0  0  0  0  0  0  0  0  0  0
    8.4700   -1.9410   21.8820 C   0  0  0  0  0  0  0  0  0  0  0  0
    8.5390   -2.9270   22.7600 N   0  0  0  0  0  0  0  0  0  0  0  0
    9.3940   -2.6970   23.9360 C   0  0  0  0  0  0  0  0  0  0  0  0
   10.6480   -2.0970   23.5880 C   0  0  0  0  0  0  0  0  0  0  0  0
    9.7810   -4.0490   24.6470 C   0  0  0  0  0  0  0  0  0  0  0  0
    8.6430   -1.8010   24.9740 C   0  0  0  0  0  0  0  0  0  0  0  0
   11.2360   -2.0910   22.1570 C   0  0  0  0  0  0  0  0  0  0  0  0
   11.3680   -1.4990   24.5910 C   0  0  0  0  0  0  0  0  0  0  0  0
    9.3590   -4.1200   26.1100 C   0  0  0  0  0  0  0  0  0  0  0  0
    7.4870   -2.5160   25.7030 C   0  0  0  0  0  0  0  0  0  0  0  0
   12.4780   -1.4580   21.9750 C   0  0  0  0  0  0  0  0  0  0  0  0
   12.7210   -0.8500   24.2200 C   0  0  0  0  0  0  0  0  0  0  0  0
    7.8550   -3.8870   26.2750 C   0  0  0  0  0  0  0  0  0  0  0  0
   13.1980   -0.8490   22.9530 C   0  0  0  0  0  0  0  0  0  0  0  0
  1  2  2  3
  1  3  1  0
  3  4  1  0
  3  5  1  0
  6  4  1  6
  5  7  1  0
  6  7  1  0
  5  8  1  1
  6  9  1  0
  8  9  1  0
  9 10  1  0
 10 11  1  0
 10 12  1  0
 10 13  1  0
 11 14  2  0
 11 15  1  0
 12 16  1  0
 13 17  1  0
 14 18  1  0
 15 19  2  0
 16 20  1  0
 17 20  1  0
 18 21  2  0
 19 21  1  0
M  END
