MAK-UNK-148caf23-6-vinylsulfonamide
     RDKit          3D

 37 40  0  0  0  0  0  0  0  0999 V2000
    7.6550   -3.6050   20.0550 C   0  0  0  0  0  0  0  0  0  0  0  0
    7.2360   -2.1760   19.8160 C   0  0  0  0  0  0  0  0  0  0  0  0
    5.5100   -2.3180   19.6050 S   0  0  0  0  0  0  0  0  0  0  0  0
    5.0380   -3.2660   20.6080 O   0  0  0  0  0  0  0  0  0  0  0  0
    5.2960   -2.5490   18.2090 O   0  0  0  0  0  0  0  0  0  0  0  0
    4.8980   -0.7210   19.9830 C   0  0  0  0  0  0  0  0  0  0  0  0
    4.5230    0.3350   18.9750 C   0  0  0  0  0  0  0  0  0  0  0  0
    4.7330   -0.3760   21.2500 C   0  0  0  0  0  0  0  0  0  0  0  0
    3.9700    1.7540   19.1750 C   0  0  0  0  0  0  0  0  0  0  0  0
    4.2630    0.8070   21.5600 N   0  0  0  0  0  0  0  0  0  0  0  0
    3.9140    1.7630   20.7280 C   0  0  0  0  0  0  0  0  0  0  0  0
    3.4380    2.9120   21.3330 C   0  0  2  0  0  0  0  0  0  0  0  0
    2.8600    3.9180   20.2840 C   0  0  0  0  0  0  0  0  0  0  0  0
    4.5320    3.4150   22.0130 N   0  0  0  0  0  0  0  0  0  0  0  0
    1.7220    3.4600   19.3910 C   0  0  0  0  0  0  0  0  0  0  0  0
    4.7430    2.7040   23.2160 C   0  0  0  0  0  0  0  0  0  0  0  0
    6.0110    2.1020   23.3500 C   0  0  0  0  0  0  0  0  0  0  0  0
    7.1940    2.7380   23.1490 C   0  0  0  0  0  0  0  0  0  0  0  0
    6.4180    0.7750   23.7060 C   0  0  0  0  0  0  0  0  0  0  0  0
    8.3730    1.8390   23.3750 C   0  0  0  0  0  0  0  0  0  0  0  0
    7.8410    0.6150   23.7230 N   0  0  0  0  0  0  0  0  0  0  0  0
    9.8450    2.3770   23.2000 C   0  0  0  0  0  0  0  0  0  0  0  0
    8.5510   -0.9020   24.1340 S   0  0  0  0  0  0  0  0  0  0  0  0
   10.9880    1.4380   23.0070 C   0  0  0  0  0  0  0  0  0  0  0  0
   10.0940    3.7760   23.2230 C   0  0  0  0  0  0  0  0  0  0  0  0
    8.5640   -0.9580   25.5740 O   0  0  0  0  0  0  0  0  0  0  0  0
    7.8620   -1.9300   23.3870 O   0  0  0  0  0  0  0  0  0  0  0  0
   10.2350   -0.8910   23.6690 C   0  0  0  0  0  0  0  0  0  0  0  0
   12.3590    2.0290   22.8440 C   0  0  0  0  0  0  0  0  0  0  0  0
   11.3830    4.3070   23.0610 C   0  0  0  0  0  0  0  0  0  0  0  0
    9.0780    4.6290   23.4030 F   0  0  0  0  0  0  0  0  0  0  0  0
   10.6800   -1.5880   22.3520 C   0  0  0  0  0  0  0  0  0  0  0  0
   10.9990   -0.2100   24.6050 C   0  0  0  0  0  0  0  0  0  0  0  0
   12.4830    3.5070   22.8770 C   0  0  0  0  0  0  0  0  0  0  0  0
   12.2370   -1.2350   22.4570 C   0  0  0  0  0  0  0  0  0  0  0  0
   12.3140   -0.0190   24.5190 N   0  0  0  0  0  0  0  0  0  0  0  0
   12.8780   -0.5320   23.4550 C   0  0  0  0  0  0  0  0  0  0  0  0
  1  2  1  0
  3  2  1  0
  3  4  2  0
  3  5  2  0
  3  6  1  0
  6  7  2  0
  6  8  1  0
  7  9  1  0
  8 10  2  0
  9 11  2  0
 10 11  1  0
 11 12  1  0
 12 13  1  6
 12 14  1  0
 13 15  1  0
 14 16  1  0
 16 17  1  0
 17 18  1  0
 17 19  2  0
 18 20  2  0
 19 21  1  0
 20 21  1  0
 20 22  1  0
 21 23  1  0
 22 24  2  0
 22 25  1  0
 23 26  2  0
 23 27  2  0
 23 28  1  0
 24 29  1  0
 25 30  2  0
 25 31  1  0
 28 32  2  0
 28 33  1  0
 29 34  2  0
 30 34  1  0
 32 35  1  0
 33 36  2  0
 35 37  2  0
 36 37  1  0
M  END
