MAK-UNK-10572812-8
     RDKit          3D

 34 38  0  0  0  0  0  0  0  0999 V2000
   12.4220   -3.4500   20.2860 O   0  0  0  0  0  0  0  0  0  0  0  0
   13.3520   -3.5310   21.0670 C   0  0  0  0  0  0  0  0  0  0  0  0
   13.3120   -2.6210   22.3690 C   0  0  0  0  0  0  0  0  0  0  0  0
   14.4390   -4.4280   20.8080 N   0  0  0  0  0  0  0  0  0  0  0  0
   12.0380   -1.9520   22.7130 N   0  0  0  0  0  0  0  0  0  0  0  0
   15.0220   -4.2810   19.4820 C   0  0  0  0  0  0  0  0  0  0  0  0
   12.3200   -0.5190   22.9300 C   0  0  0  0  0  0  0  0  0  0  0  0
   11.1260   -2.0790   21.6140 C   0  0  0  0  0  0  0  0  0  0  0  0
   16.4850   -4.3200   18.8930 C   0  0  0  0  0  0  0  0  0  0  0  0
   10.9170    0.1400   23.2250 C   0  0  0  0  0  0  0  0  0  0  0  0
    9.8730   -1.6840   22.0290 C   0  0  0  0  0  0  0  0  0  0  0  0
   17.4500   -2.9150   18.4490 C   0  0  0  0  0  0  0  0  0  0  0  0
    9.9550   -0.2420   22.1620 N   0  0  0  0  0  0  0  0  0  0  0  0
   18.9460   -2.5960   18.6070 C   0  0  0  0  0  0  0  0  0  0  0  0
   17.1210   -1.6000   17.9580 C   0  0  0  0  0  0  0  0  0  0  0  0
    8.8230    0.6680   21.8270 C   0  0  0  0  0  0  0  0  0  0  0  0
   19.2410   -1.4030   18.1980 N   0  0  0  0  0  0  0  0  0  0  0  0
   18.1650   -0.7980   17.7950 C   0  0  0  0  0  0  0  0  0  0  0  0
   16.0210   -1.0130   17.6510 C   0  0  0  0  0  0  0  0  0  0  0  0
    8.9270    1.8230   21.3700 O   0  0  0  0  0  0  0  0  0  0  0  0
    7.4610   -0.0020   22.1140 C   0  0  0  0  0  0  0  0  0  0  0  0
   17.9830    0.4570   17.2790 C   0  0  0  0  0  0  0  0  0  0  0  0
   15.7590    0.2050   17.1370 C   0  0  0  0  0  0  0  0  0  0  0  0
    6.8030    0.3430   20.7610 C   0  0  0  0  0  0  0  0  0  0  0  0
   16.7760    0.9620   16.9310 C   0  0  0  0  0  0  0  0  0  0  0  0
   14.5720    0.5870   16.8550 F   0  0  0  0  0  0  0  0  0  0  0  0
    7.3500   -0.4840   19.6220 C   0  0  0  0  0  0  0  0  0  0  0  0
    5.8100    1.2600   20.3460 C   0  0  0  0  0  0  0  0  0  0  0  0
    6.6230    0.0370   18.6090 N   0  0  0  0  0  0  0  0  0  0  0  0
    5.6970    1.0550   18.9390 C   0  0  0  0  0  0  0  0  0  0  0  0
    4.9790    2.2290   20.8820 C   0  0  0  0  0  0  0  0  0  0  0  0
    4.8020    1.7590   18.0040 N   0  0  0  0  0  0  0  0  0  0  0  0
    4.1160    2.9200   20.0480 C   0  0  0  0  0  0  0  0  0  0  0  0
    4.0620    2.6660   18.6810 C   0  0  0  0  0  0  0  0  0  0  0  0
  1  2  2  0
  2  3  1  0
  2  4  1  0
  3  5  1  0
  4  6  1  0
  5  7  1  0
  5  8  1  0
  6  9  1  0
  7 10  1  0
  8 11  1  0
  9 12  1  0
 10 13  1  0
 11 13  1  0
 12 14  2  0
 12 15  1  0
 13 16  1  0
 14 17  1  0
 15 18  2  0
 17 18  1  0
 15 19  1  0
 16 20  2  0
 16 21  1  0
 18 22  1  0
 19 23  2  0
 21 24  1  0
 22 25  2  0
 23 25  1  0
 23 26  1  0
 24 27  2  0
 24 28  1  0
 27 29  1  0
 28 30  2  0
 29 30  1  0
 28 31  1  0
 30 32  1  0
 31 33  2  0
 32 34  2  0
 33 34  1  0
M  END
