MAK-UNK-acefcb18-18
     RDKit          3D

 29 31  0  0  0  0  0  0  0  0999 V2000
    7.4670    1.2850   29.0510 C   0  0  0  0  0  0  0  0  0  0  0  0
    8.0660    0.9830   27.7700 C   0  0  0  0  0  0  0  0  0  0  0  0
    7.6140    1.6580   26.6380 C   0  0  0  0  0  0  0  0  0  0  0  0
    9.0790    0.0510   27.5840 C   0  0  0  0  0  0  0  0  0  0  0  0
    8.1020    1.4690   25.3580 C   0  0  0  0  0  0  0  0  0  0  0  0
    9.6220   -0.1570   26.1560 C   0  0  0  0  0  0  0  0  0  0  0  0
    9.0930    0.5860   25.0910 C   0  0  0  0  0  0  0  0  0  0  0  0
    9.6370    0.3460   23.8550 O   0  0  0  0  0  0  0  0  0  0  0  0
   10.9240   -0.2540   23.6400 C   0  0  0  0  0  0  0  0  0  0  0  0
   10.6770   -1.5840   22.9350 C   0  0  0  0  0  0  0  0  0  0  0  0
    9.1840   -1.9500   23.0330 C   0  0  2  0  0  0  0  0  0  0  0  0
    8.2930   -0.9020   23.1710 N   0  0  0  0  0  0  0  0  0  0  0  0
    8.7270   -3.0270   23.9790 N   0  0  0  0  0  0  0  0  0  0  0  0
    7.7120   -0.2550   22.0240 C   0  0  0  0  0  0  0  0  0  0  0  0
    7.9210   -2.5980   25.1370 C   0  0  0  0  0  0  0  0  0  0  0  0
    9.8180   -3.7630   24.5920 C   0  0  0  0  0  0  0  0  0  0  0  0
    7.3060   -0.8750   21.0460 O   0  0  0  0  0  0  0  0  0  0  0  0
    7.6040    1.1410   22.0270 C   0  0  0  0  0  0  0  0  0  0  0  0
    7.4500   -3.7390   25.8240 C   0  0  0  0  0  0  0  0  0  0  0  0
    9.4160   -4.9150   25.2860 C   0  0  0  0  0  0  0  0  0  0  0  0
    6.3390    1.7150   21.9240 C   0  0  0  0  0  0  0  0  0  0  0  0
    8.7230    1.9900   22.1270 C   0  0  0  0  0  0  0  0  0  0  0  0
    8.3200   -4.7860   26.1310 C   0  0  0  0  0  0  0  0  0  0  0  0
    6.1920    3.0430   21.9190 C   0  0  0  0  0  0  0  0  0  0  0  0
    8.5620    3.3650   22.1220 C   0  0  0  0  0  0  0  0  0  0  0  0
    8.7320   -4.6830   27.4890 O   0  0  0  0  0  0  0  0  0  0  0  0
    7.2780    3.9140   22.0160 C   0  0  0  0  0  0  0  0  0  0  0  0
    7.1020    5.3100   22.0080 C   0  0  0  0  0  0  0  0  0  0  0  0
    6.4200    5.8950   22.8450 O   0  0  0  0  0  0  0  0  0  0  0  0
  1  2  1  0
  2  3  2  0
  2  4  1  0
  3  5  1  0
  4  6  2  0
  5  7  2  0
  6  7  1  0
  7  8  1  0
  8  9  1  0
  9 10  1  0
 11 10  1  1
 11 12  1  0
 11 13  1  0
 12 14  1  0
 13 15  1  0
 13 16  1  0
 14 17  2  0
 14 18  1  0
 15 19  1  0
 16 20  1  0
 18 21  2  0
 18 22  1  0
 19 23  1  0
 20 23  1  0
 21 24  1  0
 22 25  2  0
 23 26  1  0
 24 27  2  0
 25 27  1  0
 27 28  1  0
 28 29  2  0
M  END
