MAK-UNK-c8c8f7e2-2
     RDKit          3D

 17 18  0  0  0  0  0  0  0  0999 V2000
    5.0910    1.0370   18.0240 C   0  0  0  0  0  0  0  0  0  0  0  0
    5.2920   -0.4230   18.3340 C   0  0  0  0  0  0  0  0  0  0  0  0
    5.6290   -1.2390   17.5110 O   0  0  0  0  0  0  0  0  0  0  0  0
    5.0780   -0.7500   19.6310 N   0  0  0  0  0  0  0  0  0  0  0  0
    4.4590    0.3090   20.4380 C   0  0  0  0  0  0  0  0  0  0  0  0
    5.9980   -1.6850   20.2650 C   0  0  0  0  0  0  0  0  0  0  0  0
    7.3930   -1.1280   20.3930 C   0  0  0  0  0  0  0  0  0  0  0  0
    5.7820   -3.0020   20.7760 C   0  0  0  0  0  0  0  0  0  0  0  0
    8.4870   -1.8930   21.0240 C   0  0  0  0  0  0  0  0  0  0  0  0
    6.8630   -3.7050   21.3890 C   0  0  0  0  0  0  0  0  0  0  0  0
    8.1530   -3.1610   21.4950 C   0  0  0  0  0  0  0  0  0  0  0  0
    6.5900   -4.9300   21.9000 N   0  0  0  0  0  0  0  0  0  0  0  0
    5.3140   -5.3640   21.9660 C   0  0  0  0  0  0  0  0  0  0  0  0
    7.0380   -5.1630   23.2760 C   0  0  0  0  0  0  0  0  0  0  0  0
    4.7950   -5.2470   23.3050 C   0  0  0  0  0  0  0  0  0  0  0  0
    5.9260   -4.8890   24.0560 C   0  0  0  0  0  0  0  0  0  0  0  0
    8.1400   -5.5190   23.6670 O   0  0  0  0  0  0  0  0  0  0  0  0
  1  2  1  0
  2  3  2  0
  2  4  1  0
  4  5  1  0
  4  6  1  0
  6  7  2  0
  6  8  1  0
  7  9  1  0
  8 10  2  0
  9 11  2  0
 10 11  1  0
 10 12  1  0
 12 13  1  0
 12 14  1  0
 13 15  1  0
 14 16  1  0
 15 16  1  0
 14 17  2  0
M  END
