MAK-UNK-ec98eaf6-11-chloroacetamide
     RDKit          3D

 23 26  0  0  0  0  0  0  0  0999 V2000
    7.1960   -2.9810   18.7240 C   0  0  0  0  0  0  0  0  0  0  0  0
    6.2850   -3.3100   19.8730 C   0  0  0  0  0  0  0  0  0  0  0  0
    5.4190   -4.1840   19.7520 O   0  0  0  0  0  0  0  0  0  0  0  0
    6.4560   -2.6270   21.0500 N   0  0  0  0  0  0  0  0  0  0  0  0
    5.7860   -2.9800   22.3460 C   0  0  0  0  0  0  0  0  0  0  0  0
    7.8250   -2.2320   21.4580 C   0  0  2  0  0  0  0  0  0  0  0  0
    7.0870   -3.1400   23.1790 C   0  0  1  0  0  0  0  0  0  0  0  0
    8.1820   -3.4920   22.2370 C   0  0  0  0  0  0  0  0  0  0  0  0
    7.7650   -1.1110   22.2480 C   0  0  0  0  0  0  0  0  0  0  0  0
    7.6440   -1.8170   23.5560 N   0  0  0  0  0  0  0  0  0  0  0  0
    8.8710   -1.9640   24.3170 C   0  0  0  0  0  0  0  0  0  0  0  0
    9.9160   -1.1560   23.9120 C   0  0  0  0  0  0  0  0  0  0  0  0
   10.1740    0.1120   24.5230 C   0  0  0  0  0  0  0  0  0  0  0  0
   11.0670   -1.5090   22.6660 S   0  0  0  0  0  0  0  0  0  0  0  0
   11.2970    0.6930   23.9300 N   0  0  0  0  0  0  0  0  0  0  0  0
   11.8460   -0.0050   23.0240 C   0  0  0  0  0  0  0  0  0  0  0  0
   13.0550    0.4760   22.4630 C   0  0  0  0  0  0  0  0  0  0  0  0
   13.2550   -0.7630   23.1070 C   0  0  0  0  0  0  0  0  0  0  0  0
   13.1320   -0.7430   24.5560 C   0  0  0  0  0  0  0  0  0  0  0  0
   13.5050   -1.7960   22.3390 C   0  0  0  0  0  0  0  0  0  0  0  0
   13.3240   -1.8940   25.2060 C   0  0  0  0  0  0  0  0  0  0  0  0
   13.6830   -2.9410   23.0130 C   0  0  0  0  0  0  0  0  0  0  0  0
   13.5970   -2.9810   24.4300 C   0  0  0  0  0  0  0  0  0  0  0  0
  1  2  1  0
  2  3  2  0
  2  4  1  0
  4  5  1  0
  4  6  1  0
  7  5  1  6
  6  8  1  0
  7  8  1  0
  6  9  1  1
  7 10  1  0
  9 10  1  0
 10 11  1  0
 11 12  1  0
 12 13  2  0
 12 14  1  0
 13 15  1  0
 14 16  1  0
 15 16  2  0
 16 17  1  0
 17 18  1  0
 18 19  2  0
 18 20  1  0
 19 21  1  0
 20 22  2  0
 21 23  2  0
 22 23  1  0
M  END
