MAK-UNK-10799360-19-nitrile
     RDKit          3D

 26 29  0  0  0  0  0  0  0  0999 V2000
    6.5220   -3.9660   20.0620 C   0  0  0  0  0  0  0  0  0  0  0  0
    5.4420   -3.6810   19.4600 N   0  0  0  0  0  0  0  0  0  0  0  0
    6.9260   -3.2690   21.1530 N   0  0  0  0  0  0  0  0  0  0  0  0
    8.0780   -2.3540   21.0610 C   0  0  0  0  0  0  0  0  0  0  0  0
    5.9500   -2.5840   22.0490 C   0  0  2  0  0  0  0  0  0  0  0  0
    7.7580   -1.3640   22.1940 C   0  0  1  0  0  0  0  0  0  0  0  0
    6.2640   -1.1090   21.8580 C   0  0  0  0  0  0  0  0  0  0  0  0
    6.3650   -2.7200   23.5260 C   0  0  0  0  0  0  0  0  0  0  0  0
    7.6770   -2.0270   23.5310 N   0  0  0  0  0  0  0  0  0  0  0  0
    8.8290   -2.8840   23.8930 C   0  0  0  0  0  0  0  0  0  0  0  0
   10.2390   -2.2600   23.8400 C   0  0  0  0  0  0  0  0  0  0  0  0
   10.9050   -1.5060   24.9940 C   0  0  0  0  0  0  0  0  0  0  0  0
   10.9870   -2.3810   22.6780 C   0  0  0  0  0  0  0  0  0  0  0  0
   12.2080   -1.0160   24.8280 C   0  0  0  0  0  0  0  0  0  0  0  0
   12.2800   -1.8570   22.5740 C   0  0  0  0  0  0  0  0  0  0  0  0
   12.8870   -1.1940   23.6320 C   0  0  0  0  0  0  0  0  0  0  0  0
   12.9270   -2.0150   21.3880 C   0  0  0  0  0  0  0  0  0  0  0  0
   13.7410   -0.8590   21.0270 N   0  0  0  0  0  0  0  0  0  0  0  0
   13.8140    0.4630   21.5550 C   0  0  0  0  0  0  0  0  0  0  0  0
   13.4410    0.7590   22.6810 O   0  0  0  0  0  0  0  0  0  0  0  0
   14.4120    1.4510   20.6490 N   0  0  0  0  0  0  0  0  0  0  0  0
   14.6050    2.9010   20.9040 C   0  0  0  0  0  0  0  0  0  0  0  0
   14.9850    1.0370   19.4310 C   0  0  0  0  0  0  0  0  0  0  0  0
   15.3620    3.5550   19.7920 C   0  0  0  0  0  0  0  0  0  0  0  0
   14.9420    1.9850   18.4420 C   0  0  0  0  0  0  0  0  0  0  0  0
   14.4770    3.1800   18.8500 O   0  0  0  0  0  0  0  0  0  0  0  0
  1  2  2  3
  1  3  1  0
  3  4  1  0
  3  5  1  0
  6  4  1  6
  5  7  1  0
  6  7  1  0
  5  8  1  1
  6  9  1  0
  8  9  1  0
  9 10  1  0
 10 11  1  0
 11 12  2  0
 11 13  1  0
 12 14  1  0
 13 15  2  0
 14 16  2  0
 15 16  1  0
 15 17  1  0
 17 18  1  0
 18 19  1  0
 19 20  2  0
 19 21  1  0
 21 22  1  0
 21 23  1  0
 22 24  1  0
 23 25  1  0
 24 26  1  0
 25 26  1  0
M  END
