MAK-UNK-72659d64-1-acrylamide
     RDKit          3D

 13 13  0  0  0  0  0  0  0  0999 V2000
    7.6500   -4.3460   20.4620 C   0  0  0  0  0  0  0  0  0  0  0  0
    6.8130   -3.1660   19.9100 C   0  0  0  0  0  0  0  0  0  0  0  0
    5.6060   -2.8280   20.7650 C   0  0  0  0  0  0  0  0  0  0  0  0
    4.6580   -3.0200   21.5270 O   0  0  0  0  0  0  0  0  0  0  0  0
    5.6900   -4.1530   20.9970 N   0  0  0  0  0  0  0  0  0  0  0  0
    5.5370   -4.6270   22.3340 C   0  0  0  0  0  0  0  0  0  0  0  0
    5.0030   -5.9970   22.5400 C   0  0  0  0  0  0  0  0  0  0  0  0
    5.8410   -3.9040   23.4430 N   0  0  0  0  0  0  0  0  0  0  0  0
    4.8070   -6.5300   23.9320 C   0  0  0  0  0  0  0  0  0  0  0  0
    5.6310   -4.4560   24.6410 C   0  0  0  0  0  0  0  0  0  0  0  0
    5.1340   -5.7270   24.9900 N   0  0  0  0  0  0  0  0  0  0  0  0
    5.9650   -3.5900   25.8040 C   0  0  0  0  0  0  0  0  0  0  0  0
    6.2320   -2.8050   26.8560 N   0  0  0  0  0  0  0  0  0  0  0  0
  1  2  1  0
  2  3  1  0
  3  4  2  0
  3  5  1  0
  5  6  1  0
  6  7  2  0
  6  8  1  0
  7  9  1  0
  8 10  2  0
  9 11  2  0
 10 11  1  0
 10 12  1  0
 12 13  3  0
M  END
