MAK-UNK-849bee6c-4-vinylsulfonamide
     RDKit          3D

 27 29  0  0  0  0  0  0  0  0999 V2000
    7.8700   -2.8100   18.6320 C   0  0  0  0  0  0  0  0  0  0  0  0
    6.4560   -2.9890   18.9640 C   0  0  0  0  0  0  0  0  0  0  0  0
    6.2740   -3.8490   20.4870 S   0  0  0  0  0  0  0  0  0  0  0  0
    5.2130   -4.7220   20.1270 O   0  0  0  0  0  0  0  0  0  0  0  0
    7.4710   -4.4450   21.0570 O   0  0  0  0  0  0  0  0  0  0  0  0
    5.9470   -2.5570   21.4970 N   0  0  0  0  0  0  0  0  0  0  0  0
    6.8060   -1.4160   21.2110 C   0  0  0  0  0  0  0  0  0  0  0  0
    5.9460   -2.8930   22.9090 C   0  0  0  0  0  0  0  0  0  0  0  0
    8.2410   -1.6670   21.7140 C   0  0  0  0  0  0  0  0  0  0  0  0
    7.2500   -3.2080   23.3400 C   0  0  0  0  0  0  0  0  0  0  0  0
    8.2280   -2.1230   23.1020 N   0  0  0  0  0  0  0  0  0  0  0  0
    9.4040   -2.2500   23.9190 C   0  0  0  0  0  0  0  0  0  0  0  0
   10.5580   -1.3300   23.6190 C   0  0  0  0  0  0  0  0  0  0  0  0
   11.8210   -1.7880   22.9520 C   0  0  0  0  0  0  0  0  0  0  0  0
   10.4260    0.0170   23.9830 C   0  0  0  0  0  0  0  0  0  0  0  0
   12.7850   -0.7160   22.7650 C   0  0  0  0  0  0  0  0  0  0  0  0
   11.3490    1.0840   23.8100 C   0  0  0  0  0  0  0  0  0  0  0  0
   12.5120    0.5870   23.1800 C   0  0  0  0  0  0  0  0  0  0  0  0
   10.6120    1.8240   24.3070 N   0  0  0  0  0  0  0  0  0  0  0  0
   10.4180    3.1820   23.8120 C   0  0  0  0  0  0  0  0  0  0  0  0
   11.4260    4.0760   23.2240 C   0  0  0  0  0  0  0  0  0  0  0  0
    9.0920    3.9610   23.8310 C   0  0  0  0  0  0  0  0  0  0  0  0
   11.2260    5.3350   22.7910 N   0  0  0  0  0  0  0  0  0  0  0  0
    8.9050    5.2130   23.3950 N   0  0  0  0  0  0  0  0  0  0  0  0
    9.9780    5.8360   22.9000 C   0  0  0  0  0  0  0  0  0  0  0  0
    9.7630    7.1170   22.4660 C   0  0  0  0  0  0  0  0  0  0  0  0
    8.7370    7.8000   23.0880 N   0  0  0  0  0  0  0  0  0  0  0  0
  1  2  1  0
  3  2  1  0
  3  4  2  0
  3  5  2  0
  3  6  1  0
  6  7  1  0
  6  8  1  0
  7  9  1  0
  8 10  1  0
  9 11  1  0
 10 11  1  0
 11 12  1  0
 12 13  1  0
 13 14  2  0
 13 15  1  0
 14 16  1  0
 15 17  2  0
 16 18  2  0
 17 18  1  0
 17 19  1  0
 19 20  1  0
 20 21  2  0
 20 22  1  0
 21 23  1  0
 22 24  2  0
 23 25  2  0
 24 25  1  0
 25 26  1  0
 26 27  3  0
M  END
