MAK-UNK-849bee6c-3-bromoalkyne
     RDKit          3D

 24 26  0  0  0  0  0  0  0  0999 V2000
    6.9280   -3.3310   19.6040 C   0  0  0  0  0  0  0  0  0  0  0  0
    5.9130   -2.8350   18.6500 C   0  0  0  0  0  0  0  0  0  0  0  0
    6.9120   -2.9010   20.9100 N   0  0  0  0  0  0  0  0  0  0  0  0
    6.4260   -3.6500   22.0260 C   0  0  0  0  0  0  0  0  0  0  0  0
    7.3270   -1.5330   21.2220 C   0  0  0  0  0  0  0  0  0  0  0  0
    7.2280   -3.2750   23.2730 C   0  0  0  0  0  0  0  0  0  0  0  0
    8.4910   -1.5570   21.9840 C   0  0  0  0  0  0  0  0  0  0  0  0
    8.5350   -2.6730   22.9550 N   0  0  0  0  0  0  0  0  0  0  0  0
    9.5350   -2.4910   23.9640 C   0  0  0  0  0  0  0  0  0  0  0  0
   10.6020   -1.4480   23.6890 C   0  0  0  0  0  0  0  0  0  0  0  0
   11.9040   -1.8810   23.1170 C   0  0  0  0  0  0  0  0  0  0  0  0
   10.3830   -0.0830   23.9710 C   0  0  0  0  0  0  0  0  0  0  0  0
   12.8520   -0.8000   22.9060 C   0  0  0  0  0  0  0  0  0  0  0  0
   11.2930    1.0010   23.7770 C   0  0  0  0  0  0  0  0  0  0  0  0
   12.5140    0.5210   23.2330 C   0  0  0  0  0  0  0  0  0  0  0  0
   10.6030    1.8700   24.1700 N   0  0  0  0  0  0  0  0  0  0  0  0
    9.3710    1.5260   24.9300 C   0  0  0  0  0  0  0  0  0  0  0  0
    9.2860    0.3980   25.8660 C   0  0  0  0  0  0  0  0  0  0  0  0
    8.2560    2.2820   24.7790 N   0  0  0  0  0  0  0  0  0  0  0  0
    8.1390    0.1120   26.5650 C   0  0  0  0  0  0  0  0  0  0  0  0
    7.1320    1.9750   25.4860 C   0  0  0  0  0  0  0  0  0  0  0  0
    6.9590    0.9540   26.3730 N   0  0  0  0  0  0  0  0  0  0  0  0
    5.9920    2.8230   25.2740 C   0  0  0  0  0  0  0  0  0  0  0  0
    4.8950    3.6400   25.0920 N   0  0  0  0  0  0  0  0  0  0  0  0
  1  2  2  3
  1  3  1  0
  3  4  1  0
  3  5  1  0
  4  6  1  0
  5  7  1  0
  6  8  1  0
  7  8  1  0
  8  9  1  0
  9 10  1  0
 10 11  2  0
 10 12  1  0
 11 13  1  0
 12 14  2  0
 13 15  2  0
 14 15  1  0
 14 16  1  0
 16 17  1  0
 17 18  2  0
 17 19  1  0
 18 20  1  0
 19 21  2  0
 20 22  2  0
 21 22  1  0
 21 23  1  0
 23 24  3  0
M  END
