MAK-UNK-849bee6c-21-vinylsulfonamide
     RDKit          3D

 31 33  0  0  0  0  0  0  0  0999 V2000
    7.1650   -2.8440   18.5130 C   0  0  0  0  0  0  0  0  0  0  0  0
    6.0350   -2.4640   19.5010 C   0  0  0  0  0  0  0  0  0  0  0  0
    5.7360   -3.5960   20.8500 S   0  0  0  0  0  0  0  0  0  0  0  0
    4.6490   -3.1160   21.6540 O   0  0  0  0  0  0  0  0  0  0  0  0
    5.6550   -4.9240   20.2670 O   0  0  0  0  0  0  0  0  0  0  0  0
    7.0740   -3.2880   21.8140 N   0  0  0  0  0  0  0  0  0  0  0  0
    7.4700   -1.9100   21.8340 C   0  0  0  0  0  0  0  0  0  0  0  0
    7.1310   -3.9290   23.1150 C   0  0  0  0  0  0  0  0  0  0  0  0
    8.9600   -1.8290   22.0610 C   0  0  0  0  0  0  0  0  0  0  0  0
    8.3380   -3.3970   23.8960 C   0  0  0  0  0  0  0  0  0  0  0  0
    9.4170   -2.7760   23.0780 N   0  0  0  0  0  0  0  0  0  0  0  0
   10.6510   -2.4690   23.7450 C   0  0  0  0  0  0  0  0  0  0  0  0
   10.8380   -0.9820   23.7600 C   0  0  0  0  0  0  0  0  0  0  0  0
    9.6880   -0.1650   24.3060 C   0  0  0  0  0  0  0  0  0  0  0  0
   12.0030   -0.3380   23.2740 C   0  0  0  0  0  0  0  0  0  0  0  0
    9.8320    1.2830   24.2990 C   0  0  0  0  0  0  0  0  0  0  0  0
   12.1230    1.0720   23.2800 C   0  0  0  0  0  0  0  0  0  0  0  0
    8.8410    2.1520   24.7580 C   0  0  0  0  0  0  0  0  0  0  0  0
   11.1070    1.8690   23.7620 C   0  0  0  0  0  0  0  0  0  0  0  0
   13.2530    1.7380   22.7980 N   0  0  0  0  0  0  0  0  0  0  0  0
   13.2510    3.0850   22.3430 C   0  0  0  0  0  0  0  0  0  0  0  0
   12.3140    4.0160   22.7710 C   0  0  0  0  0  0  0  0  0  0  0  0
   14.1860    3.5220   21.4340 C   0  0  0  0  0  0  0  0  0  0  0  0
   12.3080    5.3150   22.3010 C   0  0  0  0  0  0  0  0  0  0  0  0
   14.1650    4.7990   20.9450 C   0  0  0  0  0  0  0  0  0  0  0  0
   11.3520    6.2910   22.7430 C   0  0  0  0  0  0  0  0  0  0  0  0
   13.2540    5.7030   21.3600 N   0  0  0  0  0  0  0  0  0  0  0  0
   15.1090    5.0610   20.0120 N   0  0  0  0  0  0  0  0  0  0  0  0
   10.9860    6.5450   24.0260 N   0  0  0  0  0  0  0  0  0  0  0  0
   16.2730    4.1940   20.0170 C   0  0  0  0  0  0  0  0  0  0  0  0
   15.9020    2.9370   19.3090 C   0  0  0  0  0  0  0  0  0  0  0  0
  1  2  1  0
  3  2  1  0
  3  4  2  0
  3  5  2  0
  3  6  1  0
  6  7  1  0
  6  8  1  0
  7  9  1  0
  8 10  1  0
  9 11  1  0
 10 11  1  0
 11 12  1  0
 12 13  1  0
 13 14  2  0
 13 15  1  0
 14 16  1  0
 15 17  2  0
 16 18  1  0
 16 19  2  0
 17 19  1  0
 17 20  1  0
 20 21  1  0
 21 22  2  0
 21 23  1  0
 22 24  1  0
 23 25  2  0
 24 26  1  0
 24 27  2  0
 25 27  1  0
 25 28  1  0
 26 29  3  0
 28 30  1  0
 30 31  1  0
M  END
