MAK-UNK-b1d4dcd7-2
     RDKit          3D

 31 34  0  0  0  0  0  0  0  0999 V2000
    4.6940   -0.4340   17.8350 O   0  0  0  0  0  0  0  0  0  0  0  0
    5.6860   -0.4910   18.5510 C   0  0  0  0  0  0  0  0  0  0  0  0
    6.3970   -1.7880   18.7870 C   0  0  0  0  0  0  0  0  0  0  0  0
    6.1670    0.6570   19.0910 N   0  0  0  0  0  0  0  0  0  0  0  0
    6.1580   -2.6490   19.8880 C   0  0  0  0  0  0  0  0  0  0  0  0
    6.1130    1.1040   20.4400 C   0  0  0  0  0  0  0  0  0  0  0  0
    5.3650   -3.8320   19.6050 O   0  0  0  0  0  0  0  0  0  0  0  0
    6.7430   -2.4000   21.1030 N   0  0  0  0  0  0  0  0  0  0  0  0
    7.3780    1.5610   21.1770 C   0  0  0  0  0  0  0  0  0  0  0  0
    4.9010    1.1530   21.1660 C   0  0  0  0  0  0  0  0  0  0  0  0
    6.7890   -3.3660   22.1350 C   0  0  0  0  0  0  0  0  0  0  0  0
    7.5870   -1.1900   21.3090 C   0  0  0  0  0  0  0  0  0  0  0  0
    7.2480    2.0310   22.6250 C   0  0  0  0  0  0  0  0  0  0  0  0
    4.8420    1.6080   22.5390 C   0  0  0  0  0  0  0  0  0  0  0  0
    7.6360   -3.0760   23.1950 C   0  0  0  0  0  0  0  0  0  0  0  0
    8.7830   -1.5410   21.9660 C   0  0  0  0  0  0  0  0  0  0  0  0
    5.9850    2.0430   23.2740 C   0  0  0  0  0  0  0  0  0  0  0  0
    8.8360   -2.7110   22.7330 N   0  0  0  0  0  0  0  0  0  0  0  0
    5.8920    2.4240   24.4480 O   0  0  0  0  0  0  0  0  0  0  0  0
    9.7850   -2.6000   23.6930 C   0  0  0  0  0  0  0  0  0  0  0  0
    6.2510    1.4320   25.3580 C   0  0  0  0  0  0  0  0  0  0  0  0
   10.8020   -1.4530   23.5940 C   0  0  0  0  0  0  0  0  0  0  0  0
    5.2760    0.8010   26.0910 N   0  0  0  0  0  0  0  0  0  0  0  0
    7.5880    1.1810   25.4260 N   0  0  0  0  0  0  0  0  0  0  0  0
   12.0260   -1.5150   22.6600 C   0  0  0  0  0  0  0  0  0  0  0  0
   10.7360    0.0350   24.4900 S   0  0  0  0  0  0  0  0  0  0  0  0
    5.7160   -0.1450   26.9370 C   0  0  0  0  0  0  0  0  0  0  0  0
    7.9500    0.2220   26.2910 C   0  0  0  0  0  0  0  0  0  0  0  0
   12.8670   -0.2670   22.7500 C   0  0  0  0  0  0  0  0  0  0  0  0
   12.1790    0.6450   23.7660 C   0  0  0  0  0  0  0  0  0  0  0  0
    7.0440   -0.4570   27.0590 C   0  0  0  0  0  0  0  0  0  0  0  0
  1  2  2  0
  2  3  1  0
  2  4  1  0
  3  5  1  0
  4  6  1  0
  5  7  2  0
  5  8  1  0
  6  9  2  0
  6 10  1  0
  8 11  1  0
  8 12  1  0
  9 13  1  0
 10 14  2  0
 11 15  1  0
 12 16  1  0
 13 17  2  0
 14 17  1  0
 15 18  1  0
 16 18  1  0
 17 19  1  0
 18 20  1  0
 19 21  1  0
 20 22  1  0
 21 23  2  0
 21 24  1  0
 22 25  2  0
 22 26  1  0
 23 27  1  0
 24 28  2  0
 25 29  1  0
 26 30  1  0
 29 30  2  0
 27 31  2  0
 28 31  1  0
M  END
