MAK-UNK-5d2caa6f-12-bromoalkyne
     RDKit          3D

 21 24  0  0  0  0  0  0  0  0999 V2000
    7.1480   -3.2160   19.7050 C   0  0  0  0  0  0  0  0  0  0  0  0
    6.4070   -2.4930   18.5950 C   0  0  0  0  0  0  0  0  0  0  0  0
    6.8120   -3.0070   21.0500 N   0  0  0  0  0  0  0  0  0  0  0  0
    7.0850   -3.8790   22.1090 C   0  0  0  0  0  0  0  0  0  0  0  0
    6.8570   -1.6910   21.5680 C   0  0  1  0  0  0  0  0  0  0  0  0
    7.1150   -2.8750   23.2020 C   0  0  2  0  0  0  0  0  0  0  0  0
    6.0680   -1.8880   22.7060 C   0  0  0  0  0  0  0  0  0  0  0  0
    8.1850   -1.5440   21.8810 C   0  0  0  0  0  0  0  0  0  0  0  0
    8.2780   -2.0760   23.1760 N   0  0  0  0  0  0  0  0  0  0  0  0
    9.4340   -2.5080   23.8130 C   0  0  0  0  0  0  0  0  0  0  0  0
   10.6000   -1.5160   23.5780 C   0  0  0  0  0  0  0  0  0  0  0  0
    9.7680   -3.9410   23.3520 C   0  0  0  0  0  0  0  0  0  0  0  0
    9.1700   -2.6300   25.3360 C   0  0  0  0  0  0  0  0  0  0  0  0
   11.5950   -1.9500   22.7230 C   0  0  0  0  0  0  0  0  0  0  0  0
   10.6160   -0.2500   24.2080 C   0  0  0  0  0  0  0  0  0  0  0  0
    8.9000   -5.0430   23.9800 C   0  0  0  0  0  0  0  0  0  0  0  0
    9.8020   -3.7740   25.8760 C   0  0  0  0  0  0  0  0  0  0  0  0
   12.6970   -1.1860   22.4080 C   0  0  0  0  0  0  0  0  0  0  0  0
   11.7710    0.8080   23.9960 C   0  0  0  0  0  0  0  0  0  0  0  0
    9.3820   -5.1070   25.2750 C   0  0  0  0  0  0  0  0  0  0  0  0
   12.8030    0.1600   23.0160 C   0  0  0  0  0  0  0  0  0  0  0  0
  1  2  2  3
  1  3  1  0
  3  4  1  0
  3  5  1  0
  6  4  1  6
  5  7  1  0
  6  7  1  0
  5  8  1  1
  6  9  1  0
  8  9  1  0
  9 10  1  0
 10 11  1  0
 10 12  1  0
 10 13  1  0
 11 14  2  0
 11 15  1  0
 12 16  1  0
 13 17  1  0
 14 18  1  0
 15 19  2  0
 16 20  1  0
 17 20  1  0
 18 21  2  0
 19 21  1  0
M  END
