MAK-UNK-1cb0e944-10
     RDKit          3D

 23 24  0  0  0  0  0  0  0  0999 V2000
   12.5600   -2.0730   21.8720 C   0  0  0  0  0  0  0  0  0  0  0  0
   11.5200   -2.1520   22.8910 N   0  0  0  0  0  0  0  0  0  0  0  0
   11.9740   -1.5030   24.1260 C   0  0  0  0  0  0  0  0  0  0  0  0
   10.1680   -1.9920   22.6180 C   0  0  0  0  0  0  0  0  0  0  0  0
   12.9230   -2.3240   25.0210 C   0  0  0  0  0  0  0  0  0  0  0  0
    9.8120   -0.9580   21.7820 O   0  0  0  0  0  0  0  0  0  0  0  0
    9.2770   -2.8540   23.2060 N   0  0  0  0  0  0  0  0  0  0  0  0
   12.7390   -3.4550   25.8220 C   0  0  0  0  0  0  0  0  0  0  0  0
   14.3250   -2.0140   25.1860 N   0  0  0  0  0  0  0  0  0  0  0  0
    8.8560   -2.6110   24.5510 C   0  0  0  0  0  0  0  0  0  0  0  0
   14.2240   -3.8730   26.5430 S   0  0  0  0  0  0  0  0  0  0  0  0
   15.5960   -2.5550   26.0440 C   0  0  0  0  0  0  0  0  0  0  0  0
    8.4180   -3.8890   25.1030 N   0  0  0  0  0  0  0  0  0  0  0  0
   18.0110   -2.0990   26.0000 S   0  0  0  0  0  0  0  0  0  0  0  0
    9.4220   -4.4680   26.0340 C   0  0  0  0  0  0  0  0  0  0  0  0
    7.0890   -3.7270   25.6820 C   0  0  0  0  0  0  0  0  0  0  0  0
   19.3230   -1.3390   26.9460 N   0  0  0  0  0  0  0  0  0  0  0  0
   18.6550   -1.6650   24.7050 O   0  0  0  0  0  0  0  0  0  0  0  0
   19.2210   -2.8280   26.5390 O   0  0  0  0  0  0  0  0  0  0  0  0
    8.9190   -5.4650   26.9350 C   0  0  0  0  0  0  0  0  0  0  0  0
    6.6880   -4.9020   26.3150 C   0  0  0  0  0  0  0  0  0  0  0  0
    7.5280   -5.4290   27.2980 C   0  0  0  0  0  0  0  0  0  0  0  0
    7.5130   -4.9200   28.4090 O   0  0  0  0  0  0  0  0  0  0  0  0
  1  2  1  0
  2  3  1  0
  2  4  1  0
  3  5  1  0
  4  6  2  0
  4  7  1  0
  5  8  2  0
  5  9  1  0
  7 10  1  0
  8 11  1  0
  9 12  2  0
 11 12  1  0
 10 13  1  0
 12 14  1  0
 13 15  1  0
 13 16  1  0
 14 17  1  0
 14 18  2  0
 14 19  2  0
 15 20  1  0
 16 21  1  0
 20 22  1  0
 21 22  1  0
 22 23  1  0
M  END
