MAK-UNK-a7992eb3-30
     RDKit          3D

 32 34  0  0  0  0  0  0  0  0999 V2000
   13.1570  -15.0380   24.1100 C   0  0  0  0  0  0  0  0  0  0  0  0
   12.0290  -15.3060   23.1410 C   0  0  0  0  0  0  0  0  0  0  0  0
   11.7860  -16.1870   22.3560 O   0  0  0  0  0  0  0  0  0  0  0  0
   11.1950  -14.2710   23.3460 N   0  0  0  0  0  0  0  0  0  0  0  0
    9.7430  -14.4830   23.1780 C   0  0  1  0  0  0  0  0  0  0  0  0
    8.4720  -12.6800   24.1570 C   0  0  0  0  0  0  0  0  0  0  0  0
   10.9800  -14.3830   22.0440 C   0  0  0  0  0  0  0  0  0  0  0  0
    8.0290  -10.2710   23.8010 C   0  0  0  0  0  0  0  0  0  0  0  0
   10.8810  -13.9130   20.9330 O   0  0  0  0  0  0  0  0  0  0  0  0
   12.3090  -14.5420   22.3360 N   0  0  0  0  0  0  0  0  0  0  0  0
    8.5080   -8.5710   24.3160 C   0  0  0  0  0  0  0  0  0  0  0  0
    7.2550   -9.5360   22.9410 C   0  0  0  0  0  0  0  0  0  0  0  0
   13.1250  -13.4890   21.6500 C   0  0  0  0  0  0  0  0  0  0  0  0
    8.2180   -7.2560   24.1250 C   0  0  0  0  0  0  0  0  0  0  0  0
    6.8740   -8.1070   22.6540 C   0  0  0  0  0  0  0  0  0  0  0  0
   13.7290  -12.5060   22.5170 C   0  0  0  0  0  0  0  0  0  0  0  0
    7.3040   -6.8810   23.2340 C   0  0  0  0  0  0  0  0  0  0  0  0
   13.3400  -11.0890   22.1140 C   0  0  0  0  0  0  0  0  0  0  0  0
    6.9280   -5.7520   22.9400 O   0  0  0  0  0  0  0  0  0  0  0  0
   11.8330   -8.2150   21.1180 Br  0  0  0  0  0  0  0  0  0  0  0  0
    6.9990   -4.8270   24.0300 C   0  0  0  0  0  0  0  0  0  0  0  0
    6.0480   -3.6840   23.8310 C   0  0  0  0  0  0  0  0  0  0  0  0
    4.5750   -4.0810   24.0330 C   0  0  0  0  0  0  0  0  0  0  0  0
    6.3200   -2.9680   22.4570 C   0  0  0  0  0  0  0  0  0  0  0  0
    6.4760   -2.6890   24.6880 C   0  0  0  0  0  0  0  0  0  0  0  0
    3.6900   -3.4480   24.9320 C   0  0  0  0  0  0  0  0  0  0  0  0
    4.0770   -5.1930   23.2360 N   0  0  0  0  0  0  0  0  0  0  0  0
    7.5340   -2.3370   22.5780 C   0  0  0  0  0  0  0  0  0  0  0  0
    7.6440   -2.0210   23.9390 C   0  0  0  0  0  0  0  0  0  0  0  0
    2.2360   -3.8710   25.1210 C   0  0  0  0  0  0  0  0  0  0  0  0
    2.6750   -5.5360   23.4800 C   0  0  0  0  0  0  0  0  0  0  0  0
    1.7930   -4.9410   24.3510 C   0  0  0  0  0  0  0  0  0  0  0  0
  1  2  1  0
  2  3  2  0
  2  4  1  0
  4  5  1  0
  5  6  1  6
  5  7  1  0
  6  8  1  0
  7  9  2  0
  7 10  1  0
  8 11  2  0
  8 12  1  0
 10 13  1  0
 11 14  1  0
 12 15  2  0
 13 16  1  0
 14 17  2  0
 15 17  1  0
 16 18  3  0
 17 19  1  0
 18 20  1  0
 19 21  1  0
 22 21  1  0
 22 23  1  0
 22 24  1  0
 22 25  1  0
 23 26  2  0
 23 27  1  0
 24 28  1  0
 25 29  1  0
 28 29  1  0
 26 30  1  0
 27 31  2  0
 30 32  2  0
 31 32  1  0
M  END
