MAK-UNK-8fdbca50-17-bromoalkyne
     RDKit          3D

 38 41  0  0  0  0  0  0  0  0999 V2000
    8.5790   -3.5740   20.2140 C   0  0  0  0  0  0  0  0  0  0  0  0
    7.0530   -3.3660   19.5950 C   0  0  0  0  0  0  0  0  0  0  0  0
    9.3000   -2.4460   21.0170 N   0  0  0  0  0  0  0  0  0  0  0  0
    8.6790   -1.3990   21.9020 C   0  0  0  0  0  0  0  0  0  0  0  0
   10.7830   -2.2830   21.4020 C   0  0  0  0  0  0  0  0  0  0  0  0
    8.9900   -1.7940   23.3030 C   0  0  0  0  0  0  0  0  0  0  0  0
   11.0720   -2.4750   22.8590 C   0  0  0  0  0  0  0  0  0  0  0  0
    9.7140   -2.9610   23.2800 C   0  0  0  0  0  0  0  0  0  0  0  0
    9.6470   -3.9630   24.1950 C   0  0  0  0  0  0  0  0  0  0  0  0
   10.6210   -4.2510   24.8750 O   0  0  0  0  0  0  0  0  0  0  0  0
    8.2930   -4.6490   24.1810 N   0  0  0  0  0  0  0  0  0  0  0  0
    8.2580   -5.6090   23.0310 C   0  0  0  0  0  0  0  0  0  0  0  0
    7.0760   -3.8760   24.6040 C   0  0  1  0  0  0  0  0  0  0  0  0
    6.9220   -6.3030   22.8200 C   0  0  0  0  0  0  0  0  0  0  0  0
    9.3660   -6.6520   23.2840 C   0  0  0  0  0  0  0  0  0  0  0  0
    7.3610   -2.4320   25.0440 C   0  0  0  0  0  0  0  0  0  0  0  0
    6.0480   -3.8550   23.4570 C   0  0  0  0  0  0  0  0  0  0  0  0
    5.4300   -2.4900   23.2310 C   0  0  0  0  0  0  0  0  0  0  0  0
    5.5580   -1.9070   22.0100 C   0  0  0  0  0  0  0  0  0  0  0  0
    4.6810   -1.5370   23.9680 C   0  0  0  0  0  0  0  0  0  0  0  0
    4.9770   -0.7030   21.9030 C   0  0  0  0  0  0  0  0  0  0  0  0
    4.3980   -0.4130   23.1290 N   0  0  0  0  0  0  0  0  0  0  0  0
    4.9680    0.0940   20.7570 C   0  0  0  0  0  0  0  0  0  0  0  0
    3.5070    0.9420   23.7010 S   0  0  0  0  0  0  0  0  0  0  0  0
    4.9350    1.4890   20.8240 C   0  0  0  0  0  0  0  0  0  0  0  0
    5.0010   -0.5550   19.4900 C   0  0  0  0  0  0  0  0  0  0  0  0
    2.8120    0.5350   24.9030 O   0  0  0  0  0  0  0  0  0  0  0  0
    4.4510    2.0390   23.7620 O   0  0  0  0  0  0  0  0  0  0  0  0
    2.2980    1.3670   22.4890 C   0  0  0  0  0  0  0  0  0  0  0  0
    4.9230    2.2900   19.6610 C   0  0  0  0  0  0  0  0  0  0  0  0
    4.9880    0.2090   18.3310 C   0  0  0  0  0  0  0  0  0  0  0  0
    5.0420   -1.8910   19.4010 F   0  0  0  0  0  0  0  0  0  0  0  0
    2.6690    1.7700   21.2040 C   0  0  0  0  0  0  0  0  0  0  0  0
    0.9560    1.3010   22.8440 C   0  0  0  0  0  0  0  0  0  0  0  0
    4.9450    1.7170   18.4120 C   0  0  0  0  0  0  0  0  0  0  0  0
    1.7220    2.1110   20.2490 C   0  0  0  0  0  0  0  0  0  0  0  0
   -0.0520    1.6120   21.9800 N   0  0  0  0  0  0  0  0  0  0  0  0
    0.2850    2.0010   20.7350 C   0  0  0  0  0  0  0  0  0  0  0  0
  1  2  2  3
  1  3  1  0
  3  4  1  0
  3  5  1  0
  4  6  1  0
  5  7  1  0
  6  8  1  0
  7  8  1  0
  8  9  1  0
  9 10  2  0
  9 11  1  0
 11 12  1  0
 11 13  1  0
 12 14  1  0
 12 15  1  0
 13 16  1  6
 13 17  1  0
 17 18  1  0
 18 19  1  0
 18 20  2  0
 19 21  2  0
 20 22  1  0
 21 22  1  0
 21 23  1  0
 22 24  1  0
 23 25  2  0
 23 26  1  0
 24 27  2  0
 24 28  2  0
 24 29  1  0
 25 30  1  0
 26 31  2  0
 26 32  1  0
 29 33  2  0
 29 34  1  0
 30 35  2  0
 31 35  1  0
 33 36  1  0
 34 37  2  0
 36 38  2  0
 37 38  1  0
M  END
