MAK-UNK-2084232d-2
     RDKit          3D

 24 26  0  0  0  0  0  0  0  0999 V2000
    9.1290   -4.4600   28.0540 N   0  0  0  0  0  0  0  0  0  0  0  0
    9.5800   -4.4520   26.7980 C   0  0  0  0  0  0  0  0  0  0  0  0
   10.4620   -4.6280   25.5590 C   0  0  1  0  0  0  0  0  0  0  0  0
    9.9230   -4.9270   24.5350 O   0  0  0  0  0  0  0  0  0  0  0  0
   11.3590   -3.4790   25.1700 C   0  0  0  0  0  0  0  0  0  0  0  0
    8.9360   -4.0610   24.2170 C   0  0  2  0  0  0  0  0  0  0  0  0
   10.8330   -2.5030   24.3050 C   0  0  0  0  0  0  0  0  0  0  0  0
   12.7700   -3.3180   25.6200 C   0  0  0  0  0  0  0  0  0  0  0  0
    8.0200   -4.6420   23.1680 C   0  0  1  0  0  0  0  0  0  0  0  0
    9.5380   -2.6940   23.8720 C   0  0  0  0  0  0  0  0  0  0  0  0
   13.4940   -2.1440   25.1380 C   0  0  0  0  0  0  0  0  0  0  0  0
   11.5750   -1.3910   23.8800 C   0  0  0  0  0  0  0  0  0  0  0  0
    6.9780   -5.4320   23.9420 C   0  0  0  0  0  0  0  0  0  0  0  0
    7.3790   -3.7040   22.1890 C   0  0  0  0  0  0  0  0  0  0  0  0
   12.8820   -1.2110   24.2880 C   0  0  0  0  0  0  0  0  0  0  0  0
   11.0780   -0.4280   23.0450 O   0  0  0  0  0  0  0  0  0  0  0  0
    7.0810   -6.0600   22.5760 C   0  0  0  0  0  0  0  0  0  0  0  0
    6.1910   -4.1480   21.6400 C   0  0  2  0  0  0  0  0  0  0  0  0
   13.5100   -0.1120   23.8180 O   0  0  0  0  0  0  0  0  0  0  0  0
    6.1770   -5.5260   21.6670 C   0  0  0  0  0  0  0  0  0  0  0  0
    5.8810   -3.4450   20.3390 C   0  0  0  0  0  0  0  0  0  0  0  0
    6.5390   -2.2080   20.1320 C   0  0  0  0  0  0  0  0  0  0  0  0
    6.2220   -1.4210   19.0230 C   0  0  0  0  0  0  0  0  0  0  0  0
    5.9040   -0.0870   19.0480 O   0  0  0  0  0  0  0  0  0  0  0  0
  1  2  1  0
  3  2  1  1
  3  4  1  0
  3  5  1  0
  4  6  1  0
  5  7  2  0
  5  8  1  0
  6  9  1  0
  6 10  1  6
  7 10  1  0
  8 11  2  0
  7 12  1  0
  9 13  1  1
  9 14  1  0
 11 15  1  0
 12 15  2  0
 12 16  1  0
 13 17  1  0
 14 18  1  0
 15 19  1  0
 17 20  1  0
 18 20  1  0
 18 21  1  6
 21 22  1  0
 22 23  1  0
 23 24  2  0
M  END
