MAK-UNK-702fb7d3-2
     RDKit          3D

 43 48  0  0  0  0  0  0  0  0999 V2000
    8.6270   -1.1130   22.3840 O   0  0  0  0  0  0  0  0  0  0  0  0
    7.9920   -1.2350   23.4270 C   0  0  0  0  0  0  0  0  0  0  0  0
    6.8730   -0.2230   23.7120 C   0  0  2  0  0  0  0  0  0  0  0  0
    8.2810   -2.2800   24.3370 N   0  0  0  0  0  0  0  0  0  0  0  0
    5.6980   -0.2260   22.3440 Cl  0  0  0  0  0  0  0  0  0  0  0  0
    7.3320    1.0730   23.8690 N   0  0  0  0  0  0  0  0  0  0  0  0
    7.4080   -2.5020   25.3410 C   0  0  0  0  0  0  0  0  0  0  0  0
    9.6000   -2.4840   24.7200 C   0  0  0  0  0  0  0  0  0  0  0  0
    6.4770    2.2570   23.7830 C   0  0  0  0  0  0  0  0  0  0  0  0
    7.7760   -3.5710   26.2070 C   0  0  0  0  0  0  0  0  0  0  0  0
    9.8520   -3.9090   25.0290 C   0  0  2  0  0  0  0  0  0  0  0  0
    7.3370    3.5330   23.8490 C   0  0  0  0  0  0  0  0  0  0  0  0
    6.6550   -3.7680   27.2610 C   0  0  0  0  0  0  0  0  0  0  0  0
    8.9990   -4.2840   26.0560 C   0  0  0  0  0  0  0  0  0  0  0  0
   11.2810   -3.5640   25.1210 C   0  0  0  0  0  0  0  0  0  0  0  0
    8.2230    3.6800   25.0770 C   0  0  0  0  0  0  0  0  0  0  0  0
    7.2990    4.4800   22.8440 C   0  0  0  0  0  0  0  0  0  0  0  0
    7.3000   -4.9810   28.0780 C   0  0  0  0  0  0  0  0  0  0  0  0
    9.3540   -5.2940   26.8660 C   0  0  0  0  0  0  0  0  0  0  0  0
   12.0760   -4.1240   26.2140 C   0  0  0  0  0  0  0  0  0  0  0  0
   11.8600   -2.6960   24.1940 C   0  0  0  0  0  0  0  0  0  0  0  0
    8.7490    5.0200   24.5350 C   0  0  0  0  0  0  0  0  0  0  0  0
    8.2400    5.4570   23.3180 N   0  0  0  0  0  0  0  0  0  0  0  0
    8.5040   -5.6380   27.8740 C   0  0  0  0  0  0  0  0  0  0  0  0
   13.4010   -3.7500   26.2760 C   0  0  0  0  0  0  0  0  0  0  0  0
   13.1790   -2.3480   24.3210 C   0  0  0  0  0  0  0  0  0  0  0  0
    9.7060    5.7550   25.2470 C   0  0  0  0  0  0  0  0  0  0  0  0
    8.6450    6.9090   22.4890 S   0  0  0  0  0  0  0  0  0  0  0  0
   13.9240   -2.8700   25.3560 C   0  0  0  0  0  0  0  0  0  0  0  0
   10.8980    6.4250   24.4870 C   0  0  0  0  0  0  0  0  0  0  0  0
    9.6770    5.9370   26.6530 C   0  0  0  0  0  0  0  0  0  0  0  0
    7.7430    6.9850   21.3600 O   0  0  0  0  0  0  0  0  0  0  0  0
   10.0740    6.9480   22.2930 O   0  0  0  0  0  0  0  0  0  0  0  0
    8.2010    8.2330   23.5380 C   0  0  0  0  0  0  0  0  0  0  0  0
   11.8800    7.1920   25.3090 C   0  0  0  0  0  0  0  0  0  0  0  0
   10.6770    6.6890   27.3290 C   0  0  0  0  0  0  0  0  0  0  0  0
    8.6880    5.3890   27.3770 F   0  0  0  0  0  0  0  0  0  0  0  0
    9.1070    8.7380   24.6960 C   0  0  0  0  0  0  0  0  0  0  0  0
    6.9850    8.9010   23.3620 C   0  0  0  0  0  0  0  0  0  0  0  0
   11.7630    7.3130   26.6930 C   0  0  0  0  0  0  0  0  0  0  0  0
    8.6230    9.8740   25.5160 C   0  0  0  0  0  0  0  0  0  0  0  0
    6.5390    9.9550   24.1260 N   0  0  0  0  0  0  0  0  0  0  0  0
    7.2710   10.4240   25.1220 C   0  0  0  0  0  0  0  0  0  0  0  0
  1  2  2  0
  2  3  1  0
  2  4  1  0
  3  5  1  6
  3  6  1  0
  4  7  1  0
  4  8  1  0
  6  9  1  0
  7 10  1  0
  8 11  1  0
  9 12  1  0
 10 13  2  0
 10 14  1  0
 11 14  1  0
 11 15  1  1
 12 16  1  0
 12 17  2  0
 13 18  1  0
 14 19  2  0
 15 20  2  0
 15 21  1  0
 16 22  2  0
 17 23  1  0
 22 23  1  0
 18 24  2  0
 19 24  1  0
 20 25  1  0
 21 26  2  0
 22 27  1  0
 23 28  1  0
 25 29  2  0
 26 29  1  0
 27 30  2  0
 27 31  1  0
 28 32  2  0
 28 33  2  0
 28 34  1  0
 30 35  1  0
 31 36  2  0
 31 37  1  0
 34 38  2  0
 34 39  1  0
 35 40  2  0
 36 40  1  0
 38 41  1  0
 39 42  2  0
 41 43  2  0
 42 43  1  0
M  END
