MAK-UNK-acefcb18-29
     RDKit          3D

 42 46  0  0  0  0  0  0  0  0999 V2000
   -4.3350   -6.1500   36.5530 C   0  0  0  0  0  0  0  0  0  0  0  0
   -3.6700   -6.0670   35.2110 C   0  0  0  0  0  0  0  0  0  0  0  0
   -4.2880   -5.3800   34.1570 C   0  0  0  0  0  0  0  0  0  0  0  0
   -2.4300   -6.6700   34.9900 C   0  0  0  0  0  0  0  0  0  0  0  0
   -3.6740   -5.2980   32.9020 C   0  0  0  0  0  0  0  0  0  0  0  0
   -1.8190   -6.5870   33.7350 C   0  0  0  0  0  0  0  0  0  0  0  0
   -2.4370   -5.9000   32.6830 C   0  0  0  0  0  0  0  0  0  0  0  0
   -1.7240   -5.9020   31.5180 O   0  0  0  0  0  0  0  0  0  0  0  0
   -1.7900   -4.7600   30.6780 C   0  0  0  0  0  0  0  0  0  0  0  0
   -1.5770   -3.3820   31.3300 C   0  0  0  0  0  0  0  0  0  0  0  0
   -2.3720   -2.4670   31.0860 O   0  0  0  0  0  0  0  0  0  0  0  0
   -0.4890   -3.1930   32.1750 N   0  0  0  0  0  0  0  0  0  0  0  0
   -0.2040   -1.8380   32.6590 C   0  0  0  0  0  0  0  0  0  0  0  0
    0.4890   -4.2200   32.5350 C   0  0  0  0  0  0  0  0  0  0  0  0
    1.2690   -1.4120   32.4740 C   0  0  0  0  0  0  0  0  0  0  0  0
    1.9350   -3.7490   32.2880 C   0  0  0  0  0  0  0  0  0  0  0  0
    2.0650   -2.3910   31.7100 N   0  0  0  0  0  0  0  0  0  0  0  0
    3.4620   -1.9980   31.4150 C   0  0  2  0  0  0  0  0  0  0  0  0
    4.0700   -0.9950   32.4280 C   0  0  0  0  0  0  0  0  0  0  0  0
    3.6090   -1.3830   30.0020 C   0  0  0  0  0  0  0  0  0  0  0  0
    4.9780    0.0780   31.8030 C   0  0  0  0  0  0  0  0  0  0  0  0
    5.0180   -1.1800   29.6440 N   0  0  0  0  0  0  0  0  0  0  0  0
    5.7900   -0.3790   30.5920 C   0  0  0  0  0  0  0  0  0  0  0  0
    5.4730   -1.2090   28.3250 C   0  0  0  0  0  0  0  0  0  0  0  0
    5.5900   -0.1740   27.6690 O   0  0  0  0  0  0  0  0  0  0  0  0
    5.8090   -2.5640   27.7120 C   0  0  0  0  0  0  0  0  0  0  0  0
    6.6710   -3.3940   28.6560 C   0  0  0  0  0  0  0  0  0  0  0  0
    7.0760   -4.6910   28.1210 N   0  0  0  0  0  0  0  0  0  0  0  0
    8.3920   -4.9740   27.7860 C   0  0  0  0  0  0  0  0  0  0  0  0
    9.0820   -5.7510   28.3950 O   0  0  0  0  0  0  0  0  0  0  0  0
    8.8470   -4.2140   26.5700 C   0  0  0  0  0  0  0  0  0  0  0  0
   10.2360   -4.5060   26.0300 C   0  0  0  0  0  0  0  0  0  0  0  0
    7.8630   -4.2900   25.4420 C   0  0  0  0  0  0  0  0  0  0  0  0
   10.6170   -3.4060   25.0320 C   0  0  0  0  0  0  0  0  0  0  0  0
    8.1130   -3.0420   24.6240 C   0  0  0  0  0  0  0  0  0  0  0  0
    9.5200   -2.7670   24.2650 N   0  0  0  0  0  0  0  0  0  0  0  0
    9.7020   -1.3270   24.0930 C   0  0  0  0  0  0  0  0  0  0  0  0
   11.0370   -1.0530   23.4820 C   0  0  0  0  0  0  0  0  0  0  0  0
   11.8490    0.0910   23.7670 C   0  0  0  0  0  0  0  0  0  0  0  0
   11.6500   -1.8800   22.5630 C   0  0  0  0  0  0  0  0  0  0  0  0
   13.0260    0.0830   23.0590 C   0  0  0  0  0  0  0  0  0  0  0  0
   13.1660   -1.2930   22.0570 S   0  0  0  0  0  0  0  0  0  0  0  0
  1  2  1  0
  2  3  2  0
  2  4  1  0
  3  5  1  0
  4  6  2  0
  5  7  2  0
  6  7  1  0
  7  8  1  0
  8  9  1  0
  9 10  1  0
 10 11  2  0
 10 12  1  0
 12 13  1  0
 12 14  1  0
 13 15  1  0
 14 16  1  0
 15 17  1  0
 16 17  1  0
 18 17  1  1
 18 19  1  0
 18 20  1  0
 19 21  1  0
 20 22  1  0
 21 23  1  0
 22 23  1  0
 22 24  1  0
 24 25  2  0
 24 26  1  0
 26 27  1  0
 27 28  1  0
 28 29  1  0
 29 30  2  0
 29 31  1  0
 31 32  1  0
 31 33  1  0
 32 34  1  0
 33 35  1  0
 34 36  1  0
 35 36  1  0
 36 37  1  0
 37 38  1  0
 38 39  1  0
 38 40  2  0
 39 41  2  0
 40 42  1  0
 41 42  1  0
M  END
