MAK-UNK-8fdbca50-22-nitrile
     RDKit          3D

 38 41  0  0  0  0  0  0  0  0999 V2000
    6.2690   -4.5650   20.1630 C   0  0  0  0  0  0  0  0  0  0  0  0
    5.7260   -5.7120   19.9900 N   0  0  0  0  0  0  0  0  0  0  0  0
    5.9140   -3.7070   21.1760 N   0  0  0  0  0  0  0  0  0  0  0  0
    6.0710   -4.1170   22.5830 C   0  0  0  0  0  0  0  0  0  0  0  0
    5.7960   -2.2560   20.9540 C   0  0  0  0  0  0  0  0  0  0  0  0
    7.0100   -3.1560   23.3340 C   0  0  0  0  0  0  0  0  0  0  0  0
    5.4380   -1.6470   22.1550 C   0  0  0  0  0  0  0  0  0  0  0  0
    6.5500   -1.7270   23.2140 C   0  0  0  0  0  0  0  0  0  0  0  0
    7.5310   -0.7520   22.9000 C   0  0  0  0  0  0  0  0  0  0  0  0
    7.3780    0.0680   22.0030 O   0  0  0  0  0  0  0  0  0  0  0  0
    8.7420   -0.8590   23.7990 N   0  0  0  0  0  0  0  0  0  0  0  0
   10.0180   -1.2430   23.1470 C   0  0  0  0  0  0  0  0  0  0  0  0
    8.7010   -1.0170   25.2760 C   0  0  0  0  0  0  0  0  0  0  0  0
   11.1170   -0.5600   23.6620 C   0  0  0  0  0  0  0  0  0  0  0  0
   10.2540   -2.1680   22.1170 C   0  0  0  0  0  0  0  0  0  0  0  0
    9.7240   -0.3130   25.8930 C   0  0  0  0  0  0  0  0  0  0  0  0
    7.3860   -0.4830   25.8430 C   0  0  0  0  0  0  0  0  0  0  0  0
   12.3960   -0.7290   23.2580 N   0  0  0  0  0  0  0  0  0  0  0  0
   11.5770   -2.3720   21.6680 C   0  0  0  0  0  0  0  0  0  0  0  0
   12.6050   -1.6270   22.2770 C   0  0  0  0  0  0  0  0  0  0  0  0
   12.0670   -3.4740   20.3300 S   0  0  0  0  0  0  0  0  0  0  0  0
   10.9940   -4.0780   19.6220 O   0  0  0  0  0  0  0  0  0  0  0  0
   12.5020   -2.2580   20.0520 O   0  0  0  0  0  0  0  0  0  0  0  0
   13.4900   -4.2460   20.0290 N   0  0  0  0  0  0  0  0  0  0  0  0
   13.9810   -4.3830   20.9670 C   0  0  0  0  0  0  0  0  0  0  0  0
   14.4540   -4.8740   19.0370 C   0  0  0  0  0  0  0  0  0  0  0  0
   15.1600   -5.1050   20.8570 C   0  0  0  0  0  0  0  0  0  0  0  0
   15.4240   -5.3730   19.6480 C   0  0  0  0  0  0  0  0  0  0  0  0
   14.5650   -5.1260   17.6060 C   0  0  0  0  0  0  0  0  0  0  0  0
   15.8920   -5.4640   21.6150 C   0  0  0  0  0  0  0  0  0  0  0  0
   13.6010   -5.0940   16.7200 C   0  0  0  0  0  0  0  0  0  0  0  0
   15.6850   -5.4700   17.3050 C   0  0  0  0  0  0  0  0  0  0  0  0
   16.6100   -5.3780   20.4000 N   0  0  0  0  0  0  0  0  0  0  0  0
   13.7380   -5.3810   15.5230 C   0  0  0  0  0  0  0  0  0  0  0  0
   15.9920   -5.8560   16.1050 C   0  0  0  0  0  0  0  0  0  0  0  0
   16.3420   -5.3830   18.3370 F   0  0  0  0  0  0  0  0  0  0  0  0
   15.9420   -4.7490   19.2270 C   0  0  0  0  0  0  0  0  0  0  0  0
   14.8400   -5.8020   15.1360 C   0  0  0  0  0  0  0  0  0  0  0  0
  1  2  2  3
  1  3  1  0
  3  4  1  0
  3  5  1  0
  4  6  1  0
  5  7  1  0
  6  8  1  0
  7  8  1  0
  8  9  1  0
  9 10  2  0
  9 11  1  0
 11 12  1  0
 11 13  1  0
 12 14  2  0
 12 15  1  0
 13 16  1  0
 13 17  1  0
 14 18  1  0
 15 19  2  0
 18 20  2  0
 19 20  1  0
 21 19  1  0
 21 22  2  0
 21 23  2  0
 21 24  1  0
 24 25  1  0
 24 26  1  0
 25 27  2  0
 26 28  2  0
 27 28  1  0
 26 29  1  0
 27 30  1  0
 29 31  2  0
 29 32  1  0
 30 33  1  0
 31 34  1  0
 32 35  2  0
 32 36  1  0
 33 37  1  0
 34 38  2  0
 35 38  1  0
M  END
