MAK-UNK-212f693e-11-chloroacetamide
     RDKit          3D

 15 16  0  0  0  0  0  0  0  0999 V2000
    7.0890   -3.3870   19.9420 C   0  0  0  0  0  0  0  0  0  0  0  0
    6.2060   -4.4720   20.5460 C   0  0  0  0  0  0  0  0  0  0  0  0
    5.2360   -4.8780   19.9450 O   0  0  0  0  0  0  0  0  0  0  0  0
    6.4570   -5.0380   21.8060 N   0  0  0  0  0  0  0  0  0  0  0  0
    7.1310   -4.2800   22.8680 C   0  0  0  0  0  0  0  0  0  0  0  0
    5.6480   -6.0540   22.3710 C   0  0  0  0  0  0  0  0  0  0  0  0
    6.1810   -3.9390   24.0290 C   0  0  0  0  0  0  0  0  0  0  0  0
    4.7640   -5.6560   23.3510 N   0  0  0  0  0  0  0  0  0  0  0  0
    5.4200   -5.1600   24.4410 C   0  0  2  0  0  0  0  0  0  0  0  0
    4.5550   -4.9300   25.5900 O   0  0  0  0  0  0  0  0  0  0  0  0
    3.5910   -3.9460   25.6020 C   0  0  0  0  0  0  0  0  0  0  0  0
    3.8460   -2.6030   25.7820 C   0  0  0  0  0  0  0  0  0  0  0  0
    2.2070   -4.1820   25.4480 C   0  0  0  0  0  0  0  0  0  0  0  0
    2.5860   -1.7470   25.7720 C   0  0  0  0  0  0  0  0  0  0  0  0
    1.1800   -2.7640   25.5290 S   0  0  0  0  0  0  0  0  0  0  0  0
  1  2  1  0
  2  3  2  0
  2  4  1  0
  4  5  1  0
  4  6  1  0
  5  7  1  0
  6  8  1  0
  7  9  1  0
  8  9  1  0
  9 10  1  1
 10 11  1  0
 11 12  1  0
 11 13  2  0
 12 14  2  0
 13 15  1  0
 14 15  1  0
M  END
