MAK-UNK-f2409524-9
     RDKit          3D

 18 19  0  0  0  0  0  0  0  0999 V2000
    1.6500    3.7580   21.7540 O   0  0  0  0  0  0  0  0  0  0  0  0
    1.7880    3.2150   22.8410 C   0  0  0  0  0  0  0  0  0  0  0  0
    2.9350    2.5570   23.2470 N   0  0  0  0  0  0  0  0  0  0  0  0
    0.6270    3.2480   23.8360 C   0  0  0  0  0  0  0  0  0  0  0  0
    4.1820    2.6180   22.5790 C   0  0  0  0  0  0  0  0  0  0  0  0
    0.5750    4.5190   24.5030 C   0  0  0  0  0  0  0  0  0  0  0  0
   -0.5630    2.8490   23.1850 C   0  0  0  0  0  0  0  0  0  0  0  0
    5.1410    1.4060   22.6200 C   0  0  0  0  0  0  0  0  0  0  0  0
   -0.7350    4.8690   25.1570 C   0  0  0  0  0  0  0  0  0  0  0  0
   -1.7750    3.1840   23.7960 C   0  0  0  0  0  0  0  0  0  0  0  0
    4.8430    0.3200   21.9380 N   0  0  0  0  0  0  0  0  0  0  0  0
   -1.8190    4.5350   24.1260 C   0  0  0  0  0  0  0  0  0  0  0  0
    5.2240    0.4250   20.6010 C   0  0  0  0  0  0  0  0  0  0  0  0
    6.2860   -0.3240   20.0400 C   0  0  0  0  0  0  0  0  0  0  0  0
    4.5670    1.2890   19.7240 C   0  0  0  0  0  0  0  0  0  0  0  0
    6.6450   -0.1660   18.6000 N   0  0  0  0  0  0  0  0  0  0  0  0
    4.8190    1.5020   18.4150 N   0  0  0  0  0  0  0  0  0  0  0  0
    5.8100    0.8050   17.8930 C   0  0  0  0  0  0  0  0  0  0  0  0
  1  2  2  0
  2  3  1  0
  2  4  1  0
  3  5  1  0
  4  6  1  0
  4  7  1  0
  5  8  1  0
  6  9  1  0
  7 10  1  0
  8 11  1  0
  9 12  1  0
 10 12  1  0
 11 13  1  0
 13 14  2  0
 13 15  1  0
 14 16  1  0
 15 17  2  0
 16 18  2  0
 17 18  1  0
M  END
