MAK-UNK-10799360-21-acrylamide
     RDKit          3D

 24 27  0  0  0  0  0  0  0  0999 V2000
    7.3780   -2.9940   18.4090 C   0  0  0  0  0  0  0  0  0  0  0  0
    6.6620   -1.9360   19.2220 C   0  0  0  0  0  0  0  0  0  0  0  0
    5.9650   -2.5940   20.3600 C   0  0  0  0  0  0  0  0  0  0  0  0
    5.0070   -3.3380   20.2150 O   0  0  0  0  0  0  0  0  0  0  0  0
    6.5580   -2.3060   21.5350 N   0  0  0  0  0  0  0  0  0  0  0  0
    6.1360   -2.8530   22.8270 C   0  0  0  0  0  0  0  0  0  0  0  0
    7.9850   -2.0570   21.6530 C   0  0  2  0  0  0  0  0  0  0  0  0
    7.4780   -2.9380   23.5820 C   0  0  1  0  0  0  0  0  0  0  0  0
    8.4410   -3.2730   22.4650 C   0  0  0  0  0  0  0  0  0  0  0  0
    8.2160   -0.9140   22.6150 C   0  0  0  0  0  0  0  0  0  0  0  0
    7.9930   -1.5900   23.9060 N   0  0  0  0  0  0  0  0  0  0  0  0
    9.1490   -1.5690   24.7850 C   0  0  0  0  0  0  0  0  0  0  0  0
   10.1250   -0.7010   24.2840 C   0  0  0  0  0  0  0  0  0  0  0  0
   10.0070    0.6810   24.4480 C   0  0  0  0  0  0  0  0  0  0  0  0
   11.2450   -1.1890   23.6000 C   0  0  0  0  0  0  0  0  0  0  0  0
   10.9960    1.4920   23.9160 C   0  0  0  0  0  0  0  0  0  0  0  0
   12.2280   -0.3310   23.0510 C   0  0  0  0  0  0  0  0  0  0  0  0
   11.3560   -2.6400   23.4890 C   0  0  0  0  0  0  0  0  0  0  0  0
   12.0660    1.0030   23.2390 C   0  0  0  0  0  0  0  0  0  0  0  0
   12.7950   -2.9440   23.3260 C   0  0  0  0  0  0  0  0  0  0  0  0
   13.3430   -0.7440   22.3470 C   0  0  0  0  0  0  0  0  0  0  0  0
   13.2580   -3.1600   24.6050 O   0  0  0  0  0  0  0  0  0  0  0  0
   13.3790   -2.9270   22.1270 N   0  0  0  0  0  0  0  0  0  0  0  0
   13.1650   -1.7350   21.4040 C   0  0  0  0  0  0  0  0  0  0  0  0
  1  2  1  0
  2  3  1  0
  3  4  2  0
  3  5  1  0
  5  6  1  0
  5  7  1  0
  8  6  1  6
  7  9  1  0
  8  9  1  0
  7 10  1  1
  8 11  1  0
 10 11  1  0
 11 12  1  0
 12 13  1  0
 13 14  2  0
 13 15  1  0
 14 16  1  0
 15 17  2  0
 15 18  1  0
 16 19  2  0
 17 19  1  0
 18 20  1  0
 17 21  1  0
 20 22  2  0
 20 23  1  0
 21 24  1  0
 23 24  1  0
M  END
