MAK-UNK-10799360-34-chloroacetamide
     RDKit          3D

 25 28  0  0  0  0  0  0  0  0999 V2000
    7.1790   -2.9800   18.8330 C   0  0  0  0  0  0  0  0  0  0  0  0
    6.1890   -3.3230   19.9190 C   0  0  0  0  0  0  0  0  0  0  0  0
    5.3010   -4.1520   19.7200 O   0  0  0  0  0  0  0  0  0  0  0  0
    6.3210   -2.7210   21.1310 N   0  0  0  0  0  0  0  0  0  0  0  0
    5.9740   -3.4370   22.3440 C   0  0  0  0  0  0  0  0  0  0  0  0
    6.9520   -1.4260   21.5050 C   0  0  1  0  0  0  0  0  0  0  0  0
    6.7670   -2.6120   23.3590 C   0  0  2  0  0  0  0  0  0  0  0  0
    6.3670   -1.2090   22.8960 C   0  0  0  0  0  0  0  0  0  0  0  0
    8.4360   -1.6000   21.9220 C   0  0  0  0  0  0  0  0  0  0  0  0
    8.2690   -2.7050   22.9640 C   0  0  1  0  0  0  0  0  0  0  0  0
    9.1460   -2.3570   24.0800 N   0  0  0  0  0  0  0  0  0  0  0  0
   10.3780   -1.6250   23.7560 C   0  0  0  0  0  0  0  0  0  0  0  0
    8.8370   -3.1950   25.2000 C   0  0  0  0  0  0  0  0  0  0  0  0
   10.6930   -0.4710   24.4940 C   0  0  0  0  0  0  0  0  0  0  0  0
   11.2190   -2.0230   22.7300 C   0  0  0  0  0  0  0  0  0  0  0  0
    7.7340   -2.7280   26.1400 C   0  0  0  0  0  0  0  0  0  0  0  0
    9.4250   -4.4260   25.5030 C   0  0  0  0  0  0  0  0  0  0  0  0
   11.8550    0.2500   24.1610 C   0  0  0  0  0  0  0  0  0  0  0  0
   12.3590   -1.3010   22.4180 C   0  0  0  0  0  0  0  0  0  0  0  0
    7.3610   -3.5130   27.2410 C   0  0  0  0  0  0  0  0  0  0  0  0
    9.0010   -5.1700   26.6060 C   0  0  0  0  0  0  0  0  0  0  0  0
   12.6910   -0.1580   23.1290 C   0  0  0  0  0  0  0  0  0  0  0  0
   13.1840   -1.8090   21.2870 C   0  0  0  0  0  0  0  0  0  0  0  0
    7.9940   -4.7300   27.4690 C   0  0  0  0  0  0  0  0  0  0  0  0
    9.5910   -6.3960   26.8570 N   0  0  0  0  0  0  0  0  0  0  0  0
  1  2  1  0
  2  3  2  0
  2  4  1  0
  4  5  1  0
  4  6  1  0
  7  5  1  6
  6  8  1  0
  7  8  1  0
  6  9  1  1
  7 10  1  0
  9 10  1  0
 10 11  1  1
 11 12  1  0
 11 13  1  0
 12 14  2  0
 12 15  1  0
 13 16  2  0
 13 17  1  0
 14 18  1  0
 15 19  2  0
 16 20  1  0
 17 21  2  0
 18 22  2  0
 19 22  1  0
 19 23  1  0
 20 24  2  0
 21 24  1  0
 21 25  1  0
M  END
