MAK-UNK-1bb0b7ee-13
     RDKit          3D

 29 30  0  0  0  0  0  0  0  0999 V2000
   -1.4340   -6.2710   20.6950 C   0  0  0  0  0  0  0  0  0  0  0  0
   -0.8820   -6.6430   22.0490 C   0  0  0  0  0  0  0  0  0  0  0  0
   -1.3370   -7.5800   22.7060 O   0  0  0  0  0  0  0  0  0  0  0  0
    0.1620   -5.8530   22.4930 N   0  0  0  0  0  0  0  0  0  0  0  0
    0.4610   -5.6530   23.9260 C   0  0  2  0  0  0  0  0  0  0  0  0
   -0.0450   -4.3000   24.5250 C   0  0  0  0  0  0  0  0  0  0  0  0
    1.9640   -5.9210   24.2390 C   0  0  2  0  0  0  0  0  0  0  0  0
   -1.1980   -3.9050   24.3550 O   0  0  0  0  0  0  0  0  0  0  0  0
    0.8640   -3.5620   25.2530 N   0  0  0  0  0  0  0  0  0  0  0  0
    2.1830   -6.3220   25.6940 C   0  0  0  0  0  0  0  0  0  0  0  0
    2.7820   -4.7420   24.0210 O   0  0  0  0  0  0  0  0  0  0  0  0
    0.4550   -2.5540   26.1960 C   0  0  0  0  0  0  0  0  0  0  0  0
    4.0970   -4.9080   24.6010 C   0  0  2  0  0  0  0  0  0  0  0  0
    1.3810   -1.4100   26.1540 C   0  0  0  0  0  0  0  0  0  0  0  0
    4.2620   -4.1020   25.8810 C   0  0  0  0  0  0  0  0  0  0  0  0
    5.2380   -4.4780   23.6560 C   0  0  1  0  0  0  0  0  0  0  0  0
    2.1120   -0.4510   26.1690 C   0  0  0  0  0  0  0  0  0  0  0  0
    5.7460   -4.0720   26.1940 C   0  0  0  0  0  0  0  0  0  0  0  0
    5.8140   -3.1160   23.9480 N   0  0  0  0  0  0  0  0  0  0  0  0
    6.2930   -5.6020   23.6990 C   0  0  0  0  0  0  0  0  0  0  0  0
    3.2400    1.1090   26.2420 Br  0  0  0  0  0  0  0  0  0  0  0  0
    6.4170   -3.0770   25.2630 C   0  0  0  0  0  0  0  0  0  0  0  0
    6.7330   -2.6370   22.9220 C   0  0  0  0  0  0  0  0  0  0  0  0
    6.3490   -3.5450   21.8660 C   0  0  0  0  0  0  0  0  0  0  0  0
    6.5940   -4.8730   22.1310 C   0  0  0  0  0  0  0  0  0  0  0  0
    5.7650   -3.1170   20.7140 C   0  0  0  0  0  0  0  0  0  0  0  0
    6.2460   -5.8280   21.2460 C   0  0  0  0  0  0  0  0  0  0  0  0
    5.4170   -4.0660   19.8120 C   0  0  0  0  0  0  0  0  0  0  0  0
    5.6530   -5.4380   20.0780 C   0  0  0  0  0  0  0  0  0  0  0  0
  1  2  1  0
  2  3  2  0
  2  4  1  0
  5  4  1  6
  5  6  1  0
  5  7  1  0
  6  8  2  0
  6  9  1  0
  7 10  1  1
  7 11  1  0
  9 12  1  0
 13 11  1  6
 12 14  1  0
 13 15  1  0
 13 16  1  0
 14 17  3  0
 15 18  1  0
 16 19  1  0
 16 20  1  1
 17 21  1  0
 18 22  1  0
 19 22  1  0
 19 23  1  0
 23 24  1  0
 24 25  2  0
 24 26  1  0
 25 27  1  0
 26 28  2  0
 27 29  2  0
 28 29  1  0
M  END
