MAK-UNK-212f693e-26
     RDKit          3D

 17 18  0  0  0  0  0  0  0  0999 V2000
    8.8350   -1.8900   21.4290 N   0  0  0  0  0  0  0  0  0  0  0  0
    7.5740   -2.2980   21.2360 C   0  0  0  0  0  0  0  0  0  0  0  0
    6.1450   -2.7690   20.9370 C   0  0  0  0  0  0  0  0  0  0  0  0
    5.9880   -4.2980   20.8390 C   0  0  0  0  0  0  0  0  0  0  0  0
    5.5510   -4.8590   19.8370 O   0  0  0  0  0  0  0  0  0  0  0  0
    6.3530   -4.9600   21.9080 N   0  0  0  0  0  0  0  0  0  0  0  0
    6.3430   -4.0410   22.9220 C   0  0  0  0  0  0  0  0  0  0  0  0
    5.6210   -6.1930   22.2080 C   0  0  0  0  0  0  0  0  0  0  0  0
    6.6630   -4.7940   24.1870 C   0  0  0  0  0  0  0  0  0  0  0  0
    4.7020   -5.8650   23.2210 C   0  0  0  0  0  0  0  0  0  0  0  0
    5.1740   -4.7440   23.9290 C   0  0  0  0  0  0  0  0  0  0  0  0
    4.6030   -4.7930   25.0220 O   0  0  0  0  0  0  0  0  0  0  0  0
    3.6270   -3.8610   25.2880 C   0  0  0  0  0  0  0  0  0  0  0  0
    3.7130   -2.3710   25.6780 C   0  0  0  0  0  0  0  0  0  0  0  0
    2.2670   -4.1640   25.2370 C   0  0  0  0  0  0  0  0  0  0  0  0
    2.4400   -1.6490   25.8970 C   0  0  0  0  0  0  0  0  0  0  0  0
    1.1750   -2.7710   25.6320 S   0  0  0  0  0  0  0  0  0  0  0  0
  1  2  1  0
  2  3  3  0
  3  4  1  0
  4  5  2  0
  4  6  1  0
  6  7  1  0
  6  8  1  0
  7  9  1  0
  8 10  1  0
  9 11  1  0
 10 11  1  0
 11 12  1  0
 12 13  1  0
 13 14  1  0
 13 15  2  0
 14 16  2  0
 15 17  1  0
 16 17  1  0
M  END
