MAK-UNK-10dfa458-7-vinylsulfonamide
     RDKit          3D

 28 30  0  0  0  0  0  0  0  0999 V2000
    5.6020   -5.9870   21.2330 C   0  0  0  0  0  0  0  0  0  0  0  0
    5.3850   -4.9970   22.4960 C   0  0  0  0  0  0  0  0  0  0  0  0
    4.0920   -5.3760   23.6120 S   0  0  0  0  0  0  0  0  0  0  0  0
    3.0300   -4.8170   22.7910 O   0  0  0  0  0  0  0  0  0  0  0  0
    4.1590   -6.4240   24.6170 O   0  0  0  0  0  0  0  0  0  0  0  0
    5.0190   -4.4720   24.5940 N   0  0  0  0  0  0  0  0  0  0  0  0
    5.2380   -3.1520   24.0770 C   0  0  0  0  0  0  0  0  0  0  0  0
    6.1930   -5.2900   24.4130 C   0  0  0  0  0  0  0  0  0  0  0  0
    6.5540   -3.0860   23.3520 C   0  0  0  0  0  0  0  0  0  0  0  0
    6.7840   -5.3340   22.9750 C   0  0  0  0  0  0  0  0  0  0  0  0
    6.5540   -4.0170   22.2470 N   0  0  0  0  0  0  0  0  0  0  0  0
    7.2280   -3.5520   21.0420 C   0  0  0  0  0  0  0  0  0  0  0  0
    7.6960   -2.2060   21.2430 C   0  0  0  0  0  0  0  0  0  0  0  0
    8.2010   -0.7530   21.4600 C   0  0  0  0  0  0  0  0  0  0  0  0
    8.5150   -2.1140   22.3810 C   0  0  0  0  0  0  0  0  0  0  0  0
    7.5370   -0.3550   20.3560 C   0  0  0  0  0  0  0  0  0  0  0  0
    8.3910   -0.7820   21.6910 C   0  0  0  0  0  0  0  0  0  0  0  0
    9.3520   -1.5090   23.3630 C   0  0  0  0  0  0  0  0  0  0  0  0
    8.3090    0.5270   21.0660 C   0  0  0  0  0  0  0  0  0  0  0  0
    9.2090   -0.1470   22.6270 C   0  0  0  0  0  0  0  0  0  0  0  0
   10.5360   -1.3370   23.1050 O   0  0  0  0  0  0  0  0  0  0  0  0
    8.6970   -1.2070   24.6350 N   0  0  0  0  0  0  0  0  0  0  0  0
    7.7570   -0.1010   24.8280 C   0  0  0  0  0  0  0  0  0  0  0  0
    9.0960   -2.0930   25.7530 C   0  0  0  0  0  0  0  0  0  0  0  0
    6.8020   -0.3270   25.8490 C   0  0  0  0  0  0  0  0  0  0  0  0
    8.1660   -2.1370   26.8200 C   0  0  0  0  0  0  0  0  0  0  0  0
    6.8200   -1.5400   26.5230 C   0  0  0  0  0  0  0  0  0  0  0  0
    6.1670   -1.3290   27.7620 O   0  0  0  0  0  0  0  0  0  0  0  0
  1  2  1  0
  3  2  1  0
  3  4  2  0
  3  5  2  0
  3  6  1  0
  6  7  1  0
  6  8  1  0
  7  9  1  0
  8 10  1  0
  9 11  1  0
 10 11  1  0
 11 12  1  0
 12 13  1  0
 13 14  2  0
 13 15  1  0
 14 16  1  0
 15 17  2  0
 15 18  1  0
 16 19  2  0
 17 19  1  0
 17 20  1  0
 18 21  2  0
 18 22  1  0
 22 23  1  0
 22 24  1  0
 23 25  1  0
 24 26  1  0
 25 27  1  0
 26 27  1  0
 27 28  1  0
M  END
