MAK-UNK-5d2caa6f-23-chloroacetamide
     RDKit          3D

 28 31  0  0  0  0  0  0  0  0999 V2000
    7.1390   -3.0190   18.8160 C   0  0  0  0  0  0  0  0  0  0  0  0
    6.2170   -3.4120   19.9640 C   0  0  0  0  0  0  0  0  0  0  0  0
    5.3860   -4.3110   19.8050 O   0  0  0  0  0  0  0  0  0  0  0  0
    6.3450   -2.7410   21.1730 N   0  0  0  0  0  0  0  0  0  0  0  0
    7.3210   -1.7800   21.1600 C   0  0  0  0  0  0  0  0  0  0  0  0
    6.4530   -3.4400   22.4060 C   0  0  1  0  0  0  0  0  0  0  0  0
    8.2190   -2.5110   22.0640 C   0  0  2  0  0  0  0  0  0  0  0  0
    7.7050   -3.9610   22.1700 C   0  0  0  0  0  0  0  0  0  0  0  0
    6.5610   -2.5020   23.3920 C   0  0  0  0  0  0  0  0  0  0  0  0
    7.8950   -2.0530   23.3100 N   0  0  0  0  0  0  0  0  0  0  0  0
    8.9190   -2.1000   24.2040 C   0  0  0  0  0  0  0  0  0  0  0  0
    9.9870   -1.1630   23.6660 C   0  0  0  0  0  0  0  0  0  0  0  0
   11.0890   -1.8150   23.1950 C   0  0  0  0  0  0  0  0  0  0  0  0
    9.8090    0.2390   23.6590 C   0  0  0  0  0  0  0  0  0  0  0  0
   12.1070   -1.0810   22.6880 C   0  0  0  0  0  0  0  0  0  0  0  0
   10.8640    1.2810   23.1350 C   0  0  0  0  0  0  0  0  0  0  0  0
    8.4870    0.8390   24.1940 C   0  0  0  0  0  0  0  0  0  0  0  0
   13.4280   -1.8590   22.0800 Cl  0  0  0  0  0  0  0  0  0  0  0  0
   12.0300    0.3900   22.6650 C   0  0  0  0  0  0  0  0  0  0  0  0
    8.4620    2.1400   24.7650 N   0  0  0  0  0  0  0  0  0  0  0  0
    8.3160    3.4600   24.0620 C   0  0  0  0  0  0  0  0  0  0  0  0
    7.7370    3.5740   22.7640 O   0  0  0  0  0  0  0  0  0  0  0  0
    8.7860    4.5570   24.7900 C   0  0  2  0  0  0  0  0  0  0  0  0
   10.1180    4.8820   24.6070 C   0  0  0  0  0  0  0  0  0  0  0  0
    8.4460    4.3240   26.1230 C   0  0  0  0  0  0  0  0  0  0  0  0
   10.7220    5.8250   25.6580 C   0  0  0  0  0  0  0  0  0  0  0  0
    8.5980    5.5390   26.8600 O   0  0  0  0  0  0  0  0  0  0  0  0
    9.9580    5.9860   26.9500 C   0  0  0  0  0  0  0  0  0  0  0  0
  1  2  1  0
  2  3  2  0
  2  4  1  0
  4  5  1  0
  4  6  1  0
  7  5  1  6
  6  8  1  0
  7  8  1  0
  6  9  1  1
  7 10  1  0
  9 10  1  0
 10 11  1  0
 11 12  1  0
 12 13  2  0
 12 14  1  0
 13 15  1  0
 14 16  2  0
 14 17  1  0
 15 18  1  0
 15 19  2  0
 16 19  1  0
 17 20  1  0
 20 21  1  0
 21 22  2  0
 23 21  1  6
 23 24  1  0
 23 25  1  0
 24 26  1  0
 25 27  1  0
 26 28  1  0
 27 28  1  0
M  END
