MAK-UNK-bae89c02-1-nitrile
     RDKit          3D

 21 24  0  0  0  0  0  0  0  0999 V2000
    7.3470   -3.8980   20.1890 C   0  0  0  0  0  0  0  0  0  0  0  0
    6.1110   -4.3070   19.9650 N   0  0  0  0  0  0  0  0  0  0  0  0
    7.7090   -3.0400   21.2880 N   0  0  0  0  0  0  0  0  0  0  0  0
    6.5430   -2.5580   21.9400 C   0  0  1  0  0  0  0  0  0  0  0  0
    8.8660   -2.8610   22.4380 C   0  0  2  0  0  0  0  0  0  0  0  0
    6.8240   -2.6460   23.4090 C   0  0  0  0  0  0  0  0  0  0  0  0
    8.0880   -1.8890   23.3880 C   0  0  2  0  0  0  0  0  0  0  0  0
    6.7900   -1.1230   21.5930 C   0  0  0  0  0  0  0  0  0  0  0  0
   10.2640   -2.1040   22.4350 C   0  0  0  0  0  0  0  0  0  0  0  0
    7.7570   -0.7090   22.4980 C   0  0  0  0  0  0  0  0  0  0  0  0
    6.2610   -0.2970   20.6100 C   0  0  0  0  0  0  0  0  0  0  0  0
   11.5150   -2.2610   21.5910 C   0  0  0  0  0  0  0  0  0  0  0  0
   10.4180   -1.0720   23.4090 C   0  0  0  0  0  0  0  0  0  0  0  0
    8.3600    0.6930   22.5520 C   0  0  0  0  0  0  0  0  0  0  0  0
    6.7250    1.0300   20.5420 C   0  0  0  0  0  0  0  0  0  0  0  0
   12.6660   -1.5710   21.6920 C   0  0  0  0  0  0  0  0  0  0  0  0
   11.6120   -0.3240   23.5200 C   0  0  0  0  0  0  0  0  0  0  0  0
    7.7050    1.5300   21.4340 C   0  0  0  0  0  0  0  0  0  0  0  0
    6.2760    1.9270   19.6210 O   0  0  0  0  0  0  0  0  0  0  0  0
   12.7020   -0.5230   22.7380 C   0  0  0  0  0  0  0  0  0  0  0  0
    5.5420    1.4070   18.5030 C   0  0  0  0  0  0  0  0  0  0  0  0
  1  2  2  3
  1  3  1  0
  4  3  1  6
  3  5  1  0
  4  6  1  0
  5  7  1  0
  6  7  1  0
  4  8  1  0
  5  9  1  6
  7 10  1  6
  8 10  2  0
  8 11  1  0
  9 12  2  0
  9 13  1  0
 10 14  1  0
 11 15  2  0
 12 16  1  0
 13 17  2  0
 14 18  2  0
 15 18  1  0
 15 19  1  0
 16 20  2  0
 17 20  1  0
 19 21  1  0
M  END
