MAK-UNK-10dfa458-7-nitrile
     RDKit          3D

 25 27  0  0  0  0  0  0  0  0999 V2000
    6.6660   -4.5690   20.3340 C   0  0  0  0  0  0  0  0  0  0  0  0
    6.1480   -3.6770   19.5730 N   0  0  0  0  0  0  0  0  0  0  0  0
    6.2980   -4.8160   21.6620 N   0  0  0  0  0  0  0  0  0  0  0  0
    5.5290   -6.0100   22.0330 C   0  0  0  0  0  0  0  0  0  0  0  0
    7.0600   -4.3130   22.8250 C   0  0  0  0  0  0  0  0  0  0  0  0
    4.6340   -5.7490   23.2380 C   0  0  0  0  0  0  0  0  0  0  0  0
    6.2220   -4.0030   23.9100 C   0  0  0  0  0  0  0  0  0  0  0  0
    5.3780   -5.1470   24.3590 N   0  0  0  0  0  0  0  0  0  0  0  0
    4.5950   -4.9710   25.6360 C   0  0  0  0  0  0  0  0  0  0  0  0
    3.4730   -3.8940   25.6500 C   0  0  0  0  0  0  0  0  0  0  0  0
    3.9630   -2.5350   25.9120 C   0  0  0  0  0  0  0  0  0  0  0  0
    2.0730   -4.0950   25.4500 C   0  0  0  0  0  0  0  0  0  0  0  0
    2.9340   -1.4000   25.9640 C   0  0  0  0  0  0  0  0  0  0  0  0
    1.1530   -3.0110   25.5040 C   0  0  0  0  0  0  0  0  0  0  0  0
    1.5800   -5.3900   25.2070 C   0  0  0  0  0  0  0  0  0  0  0  0
    1.6020   -1.7080   25.7610 C   0  0  0  0  0  0  0  0  0  0  0  0
   -0.2120   -3.2210   25.3050 C   0  0  0  0  0  0  0  0  0  0  0  0
    2.1700   -6.2940   25.7910 O   0  0  0  0  0  0  0  0  0  0  0  0
    0.5130   -5.6270   24.3870 N   0  0  0  0  0  0  0  0  0  0  0  0
   -0.5950   -6.1650   24.9280 C   0  0  0  0  0  0  0  0  0  0  0  0
    0.7440   -6.1130   23.0290 C   0  0  0  0  0  0  0  0  0  0  0  0
   -1.6960   -5.4690   24.3150 C   0  0  0  0  0  0  0  0  0  0  0  0
   -0.5150   -6.0460   22.1750 C   0  0  0  0  0  0  0  0  0  0  0  0
   -1.8050   -5.7030   22.9090 C   0  0  0  0  0  0  0  0  0  0  0  0
   -2.7450   -6.7450   22.6530 O   0  0  0  0  0  0  0  0  0  0  0  0
  1  2  2  3
  1  3  1  0
  3  4  1  0
  3  5  1  0
  4  6  1  0
  5  7  1  0
  6  8  1  0
  7  8  1  0
  8  9  1  0
  9 10  1  0
 10 11  2  0
 10 12  1  0
 11 13  1  0
 12 14  2  0
 12 15  1  0
 13 16  2  0
 14 16  1  0
 14 17  1  0
 15 18  2  0
 15 19  1  0
 19 20  1  0
 19 21  1  0
 20 22  1  0
 21 23  1  0
 22 24  1  0
 23 24  1  0
 24 25  1  0
M  END
