MAK-UNK-ec98eaf6-37-nitrile
     RDKit          3D

 21 23  0  0  0  0  0  0  0  0999 V2000
    6.8080   -3.6360   19.9530 C   0  0  0  0  0  0  0  0  0  0  0  0
    5.9170   -3.1800   19.1400 N   0  0  0  0  0  0  0  0  0  0  0  0
    7.4620   -2.8270   20.8950 N   0  0  0  0  0  0  0  0  0  0  0  0
    8.8610   -2.9670   21.3740 C   0  0  0  0  0  0  0  0  0  0  0  0
    7.0110   -1.5270   21.4970 C   0  0  2  0  0  0  0  0  0  0  0  0
    9.1000   -1.5030   21.8170 C   0  0  1  0  0  0  0  0  0  0  0  0
    8.1000   -0.6160   20.9870 C   0  0  0  0  0  0  0  0  0  0  0  0
    7.1670   -1.6170   22.8810 C   0  0  0  0  0  0  0  0  0  0  0  0
    8.5080   -1.4690   23.2630 C   0  0  1  0  0  0  0  0  0  0  0  0
    9.0360   -2.5150   24.0240 C   0  0  0  0  0  0  0  0  0  0  0  0
    8.1050   -3.4630   24.4520 C   0  0  0  0  0  0  0  0  0  0  0  0
    6.8160   -3.5000   23.8120 C   0  0  0  0  0  0  0  0  0  0  0  0
    8.3670   -4.3910   25.4910 C   0  0  0  0  0  0  0  0  0  0  0  0
    5.8940   -4.5380   24.3530 C   0  0  0  0  0  0  0  0  0  0  0  0
    7.4700   -5.3160   25.9320 N   0  0  0  0  0  0  0  0  0  0  0  0
    9.6080   -4.3780   26.1200 N   0  0  0  0  0  0  0  0  0  0  0  0
    4.5930   -4.4550   23.5970 C   0  0  0  0  0  0  0  0  0  0  0  0
    6.2500   -5.3880   25.3740 C   0  0  0  0  0  0  0  0  0  0  0  0
    9.6510   -5.1830   27.3310 C   0  0  0  0  0  0  0  0  0  0  0  0
    3.5860   -4.4050   23.0350 N   0  0  0  0  0  0  0  0  0  0  0  0
    8.5860   -4.8140   28.1360 C   0  0  0  0  0  0  0  0  0  0  0  0
  1  2  2  3
  1  3  1  0
  3  4  1  0
  3  5  1  0
  6  4  1  6
  5  7  1  0
  6  7  1  0
  5  8  1  1
  6  9  1  0
  8  9  1  0
  9 10  1  1
 10 11  1  0
 11 12  2  0
 11 13  1  0
 12 14  1  0
 13 15  2  0
 13 16  1  0
 14 17  1  0
 14 18  2  0
 15 18  1  0
 16 19  1  0
 17 20  3  0
 19 21  1  0
M  END
