MAK-UNK-1e8f9e3c-6-acrylamide
     RDKit          3D

 26 28  0  0  0  0  0  0  0  0999 V2000
    7.6620   -2.8140   18.8340 C   0  0  0  0  0  0  0  0  0  0  0  0
    6.4440   -2.3200   18.4640 C   0  0  0  0  0  0  0  0  0  0  0  0
    5.3810   -2.2470   19.5280 C   0  0  0  0  0  0  0  0  0  0  0  0
    4.4630   -3.0910   19.5300 O   0  0  0  0  0  0  0  0  0  0  0  0
    5.6440   -1.2710   20.5000 N   0  0  0  0  0  0  0  0  0  0  0  0
    6.3090   -2.1200   21.2810 C   0  0  0  0  0  0  0  0  0  0  0  0
    7.6060   -1.9710   21.7650 C   0  0  0  0  0  0  0  0  0  0  0  0
    5.5460   -3.2190   21.4880 C   0  0  0  0  0  0  0  0  0  0  0  0
    8.1340   -3.0550   22.4540 C   0  0  0  0  0  0  0  0  0  0  0  0
    6.0380   -4.2540   22.1380 C   0  0  0  0  0  0  0  0  0  0  0  0
    7.3160   -4.1880   22.5920 C   0  0  0  0  0  0  0  0  0  0  0  0
    7.6030   -5.4500   23.1710 C   0  0  0  0  0  0  0  0  0  0  0  0
    8.0820   -6.3290   22.5090 O   0  0  0  0  0  0  0  0  0  0  0  0
    7.1350   -5.4450   24.4080 O   0  0  0  0  0  0  0  0  0  0  0  0
    5.7720   -5.3590   24.2650 C   0  0  0  0  0  0  0  0  0  0  0  0
    5.0170   -6.3200   23.3980 C   0  0  0  0  0  0  0  0  0  0  0  0
    5.1110   -4.3530   24.9330 C   0  0  0  0  0  0  0  0  0  0  0  0
    3.5530   -6.1440   23.2990 C   0  0  0  0  0  0  0  0  0  0  0  0
    3.7260   -4.2140   24.8200 C   0  0  0  0  0  0  0  0  0  0  0  0
    2.9530   -5.0970   24.0140 C   0  0  0  0  0  0  0  0  0  0  0  0
    3.1050   -3.1680   25.5360 N   0  0  0  0  0  0  0  0  0  0  0  0
    1.8490   -3.3250   26.0120 C   0  0  0  0  0  0  0  0  0  0  0  0
    3.8300   -2.2150   26.2780 C   0  0  0  0  0  0  0  0  0  0  0  0
    1.5910   -2.1320   26.9080 C   0  0  0  0  0  0  0  0  0  0  0  0
    2.9620   -1.7740   27.4200 C   0  0  0  0  0  0  0  0  0  0  0  0
    4.9560   -1.7730   26.1020 O   0  0  0  0  0  0  0  0  0  0  0  0
  1  2  1  0
  2  3  1  0
  3  4  2  0
  3  5  1  0
  5  6  1  0
  6  7  2  0
  6  8  1  0
  7  9  1  0
  8 10  2  0
  9 11  2  0
 10 11  1  0
 11 12  1  0
 12 13  2  0
 12 14  1  0
 14 15  1  0
 15 16  2  0
 15 17  1  0
 16 18  1  0
 17 19  2  0
 18 20  2  0
 19 20  1  0
 19 21  1  0
 21 22  1  0
 21 23  1  0
 22 24  1  0
 23 25  1  0
 24 25  1  0
 23 26  2  0
M  END
