MAK-UNK-ec98eaf6-6-vinylsulfonamide
     RDKit          3D

 27 30  0  0  0  0  0  0  0  0999 V2000
    7.7540   -2.9970   18.2100 C   0  0  0  0  0  0  0  0  0  0  0  0
    7.2340   -2.3580   19.4280 C   0  0  0  0  0  0  0  0  0  0  0  0
    6.0920   -3.4080   20.2820 S   0  0  0  0  0  0  0  0  0  0  0  0
    4.7910   -3.3510   19.7070 O   0  0  0  0  0  0  0  0  0  0  0  0
    6.6610   -4.6730   20.6450 O   0  0  0  0  0  0  0  0  0  0  0  0
    6.1140   -2.6000   21.6840 N   0  0  0  0  0  0  0  0  0  0  0  0
    6.7850   -1.2540   21.6620 C   0  0  0  0  0  0  0  0  0  0  0  0
    6.8890   -3.3490   22.6730 C   0  0  1  0  0  0  0  0  0  0  0  0
    8.1730   -1.7590   22.1460 C   0  0  2  0  0  0  0  0  0  0  0  0
    8.2380   -3.2550   21.9780 C   0  0  0  0  0  0  0  0  0  0  0  0
    6.8760   -2.6220   23.8280 C   0  0  0  0  0  0  0  0  0  0  0  0
    8.1560   -1.8630   23.6150 N   0  0  0  0  0  0  0  0  0  0  0  0
    9.3350   -2.5930   24.0520 C   0  0  2  0  0  0  0  0  0  0  0  0
    8.9470   -3.3120   25.1770 C   0  0  0  0  0  0  0  0  0  0  0  0
   10.5080   -1.6330   23.8570 C   0  0  0  0  0  0  0  0  0  0  0  0
    9.5960   -4.5130   25.5950 C   0  0  0  0  0  0  0  0  0  0  0  0
    7.8550   -2.8920   25.9060 C   0  0  0  0  0  0  0  0  0  0  0  0
   10.7510   -0.4610   24.5840 C   0  0  0  0  0  0  0  0  0  0  0  0
   11.3670   -1.9580   22.8330 C   0  0  0  0  0  0  0  0  0  0  0  0
    9.1740   -5.3990   26.7710 C   0  0  0  0  0  0  0  0  0  0  0  0
    7.3640   -3.5820   26.9720 C   0  0  0  0  0  0  0  0  0  0  0  0
   11.8560    0.3550   24.2410 C   0  0  0  0  0  0  0  0  0  0  0  0
   12.4570   -1.1870   22.4740 C   0  0  0  0  0  0  0  0  0  0  0  0
    7.9280   -4.8960   27.5230 C   0  0  0  0  0  0  0  0  0  0  0  0
   12.7570   -0.0400   23.1240 C   0  0  0  0  0  0  0  0  0  0  0  0
   13.3880   -1.7200   21.1780 Cl  0  0  0  0  0  0  0  0  0  0  0  0
    7.1870   -5.6830   28.8440 Cl  0  0  0  0  0  0  0  0  0  0  0  0
  1  2  1  0
  3  2  1  0
  3  4  2  0
  3  5  2  0
  3  6  1  0
  6  7  1  0
  6  8  1  0
  9  7  1  6
  8 10  1  0
  9 10  1  0
  8 11  1  1
  9 12  1  0
 11 12  1  0
 12 13  1  0
 13 14  1  1
 13 15  1  0
 14 16  2  0
 14 17  1  0
 15 18  2  0
 15 19  1  0
 16 20  1  0
 17 21  2  0
 18 22  1  0
 19 23  2  0
 20 24  2  0
 21 24  1  0
 22 25  2  0
 23 25  1  0
 23 26  1  0
 24 27  1  0
M  END
