MAK-UNK-bdda130a-4
     RDKit          3D

 23 26  0  0  0  0  0  0  0  0999 V2000
    5.2140   -4.5370   27.1640 C   0  0  0  0  0  0  0  0  0  0  0  0
    4.7010   -4.7060   25.4680 S   0  0  0  0  0  0  0  0  0  0  0  0
    3.5280   -4.2800   24.3080 C   0  0  0  0  0  0  0  0  0  0  0  0
    3.3460   -3.6940   25.6710 C   0  0  0  0  0  0  0  0  0  0  0  0
    5.5770   -5.5840   24.3730 N   0  0  0  0  0  0  0  0  0  0  0  0
    2.0190   -3.9930   25.4830 C   0  0  0  0  0  0  0  0  0  0  0  0
    3.5180   -2.3760   26.0630 C   0  0  0  0  0  0  0  0  0  0  0  0
    4.9230   -6.2400   23.1920 C   0  0  0  0  0  0  0  0  0  0  0  0
    6.9590   -5.0660   24.1560 C   0  0  0  0  0  0  0  0  0  0  0  0
    1.1730   -2.9350   25.7170 C   0  0  0  0  0  0  0  0  0  0  0  0
    2.0270   -1.5310   26.1860 S   0  0  0  0  0  0  0  0  0  0  0  0
    5.4740   -5.9060   21.9600 C   0  0  0  0  0  0  0  0  0  0  0  0
    7.3780   -4.7230   22.7300 C   0  0  1  0  0  0  0  0  0  0  0  0
    6.1470   -4.6210   21.9840 N   0  0  0  0  0  0  0  0  0  0  0  0
    8.0910   -3.5020   22.6490 C   0  0  0  0  0  0  0  0  0  0  0  0
    6.1070   -3.9540   20.6650 C   0  0  0  0  0  0  0  0  0  0  0  0
    7.9530   -2.6150   21.5690 C   0  0  0  0  0  0  0  0  0  0  0  0
    8.9500   -3.1170   23.6110 C   0  0  0  0  0  0  0  0  0  0  0  0
    5.3140   -4.2580   19.7700 O   0  0  0  0  0  0  0  0  0  0  0  0
    7.0340   -2.9840   20.4920 N   0  0  0  0  0  0  0  0  0  0  0  0
    8.7440   -1.2950   21.5240 C   0  0  0  0  0  0  0  0  0  0  0  0
    9.7230   -1.8930   23.6320 C   0  0  0  0  0  0  0  0  0  0  0  0
    9.6740   -0.8860   22.5850 N   0  0  0  0  0  0  0  0  0  0  0  0
  1  2  2  0
  2  3  2  0
  2  4  1  0
  2  5  1  0
  4  6  1  0
  4  7  2  0
  5  8  1  0
  5  9  1  0
  6 10  2  0
  7 11  1  0
 10 11  1  0
  8 12  1  0
 13  9  1  1
 12 14  1  0
 13 14  1  0
 13 15  1  0
 14 16  1  0
 15 17  2  0
 15 18  1  0
 16 19  2  0
 16 20  1  0
 17 20  1  0
 17 21  1  0
 18 22  2  0
 21 23  2  0
 22 23  1  0
M  END
