MAK-UNK-5d2caa6f-13-bromoalkyne
     RDKit          3D

 23 26  0  0  0  0  0  0  0  0999 V2000
    7.4860   -3.2380   19.6350 C   0  0  0  0  0  0  0  0  0  0  0  0
    6.0700   -2.9350   19.1080 C   0  0  0  0  0  0  0  0  0  0  0  0
    7.8660   -2.7530   20.9450 N   0  0  0  0  0  0  0  0  0  0  0  0
    9.1420   -2.8310   21.5320 C   0  0  0  0  0  0  0  0  0  0  0  0
    7.2670   -1.6590   21.6320 C   0  0  2  0  0  0  0  0  0  0  0  0
    9.2460   -1.4190   21.9470 C   0  0  1  0  0  0  0  0  0  0  0  0
    8.1580   -0.6850   21.1900 C   0  0  0  0  0  0  0  0  0  0  0  0
    7.4200   -1.9490   22.9880 C   0  0  0  0  0  0  0  0  0  0  0  0
    8.6960   -1.4230   23.3910 C   0  0  1  0  0  0  0  0  0  0  0  0
    9.5350   -2.4260   24.1990 C   0  0  0  0  0  0  0  0  0  0  0  0
   10.6240   -1.9940   24.8900 O   0  0  0  0  0  0  0  0  0  0  0  0
    9.1560   -3.7530   24.1990 N   0  0  0  0  0  0  0  0  0  0  0  0
    8.0960   -4.3260   24.9260 C   0  0  0  0  0  0  0  0  0  0  0  0
    8.0710   -4.3730   26.3190 C   0  0  0  0  0  0  0  0  0  0  0  0
    7.0170   -4.8720   24.1700 C   0  0  0  0  0  0  0  0  0  0  0  0
    6.9040   -4.9940   27.0120 C   0  0  0  0  0  0  0  0  0  0  0  0
    5.8710   -5.4810   24.8280 C   0  0  0  0  0  0  0  0  0  0  0  0
    7.0650   -4.8160   22.6340 C   0  0  0  0  0  0  0  0  0  0  0  0
    6.7470   -5.1140   28.7170 Cl  0  0  0  0  0  0  0  0  0  0  0  0
    5.9210   -5.4860   26.2680 N   0  0  0  0  0  0  0  0  0  0  0  0
    4.8020   -6.0230   24.1280 C   0  0  0  0  0  0  0  0  0  0  0  0
    5.8690   -5.4220   21.9190 C   0  0  0  0  0  0  0  0  0  0  0  0
    4.8010   -5.9920   22.6070 C   0  0  0  0  0  0  0  0  0  0  0  0
  1  2  2  3
  1  3  1  0
  3  4  1  0
  3  5  1  0
  6  4  1  6
  5  7  1  0
  6  7  1  0
  5  8  1  1
  6  9  1  0
  8  9  1  0
  9 10  1  1
 10 11  2  0
 10 12  1  0
 12 13  1  0
 13 14  2  0
 13 15  1  0
 14 16  1  0
 15 17  2  0
 15 18  1  0
 16 19  1  0
 16 20  2  0
 17 20  1  0
 17 21  1  0
 18 22  2  0
 21 23  2  0
 22 23  1  0
M  END
