MAK-UNK-176ca439-7-vinylsulfonamide
     RDKit          3D

 32 35  0  0  0  0  0  0  0  0999 V2000
    7.9020   -2.8230   18.7950 C   0  0  0  0  0  0  0  0  0  0  0  0
    6.4840   -3.0130   19.0120 C   0  0  0  0  0  0  0  0  0  0  0  0
    6.2510   -3.8410   20.5240 S   0  0  0  0  0  0  0  0  0  0  0  0
    5.2200   -4.7500   20.1780 O   0  0  0  0  0  0  0  0  0  0  0  0
    7.4300   -4.3700   21.1780 O   0  0  0  0  0  0  0  0  0  0  0  0
    5.9390   -2.5420   21.4670 N   0  0  0  0  0  0  0  0  0  0  0  0
    6.7380   -1.3970   21.3200 C   0  0  0  0  0  0  0  0  0  0  0  0
    5.8140   -2.8550   22.8630 C   0  0  0  0  0  0  0  0  0  0  0  0
    8.0300   -1.3830   22.1320 C   0  0  0  0  0  0  0  0  0  0  0  0
    7.1760   -3.1720   23.5010 C   0  0  0  0  0  0  0  0  0  0  0  0
    8.3260   -2.4610   22.8740 N   0  0  0  0  0  0  0  0  0  0  0  0
    9.3340   -2.2110   23.9270 C   0  0  0  0  0  0  0  0  0  0  0  0
   10.4080   -1.1740   23.6700 C   0  0  0  0  0  0  0  0  0  0  0  0
   11.7470   -1.7690   23.2220 C   0  0  0  0  0  0  0  0  0  0  0  0
   10.1740    0.1960   23.8290 C   0  0  0  0  0  0  0  0  0  0  0  0
   12.8280   -0.7220   22.9580 C   0  0  0  0  0  0  0  0  0  0  0  0
   11.2400    1.2660   23.5660 C   0  0  0  0  0  0  0  0  0  0  0  0
   12.4610    0.7370   23.1610 C   0  0  0  0  0  0  0  0  0  0  0  0
   10.7900    2.6260   23.7840 C   0  0  0  0  0  0  0  0  0  0  0  0
   10.6800    3.2870   22.5640 C   0  0  0  0  0  0  0  0  0  0  0  0
   11.8560    3.9670   22.1830 C   0  0  0  0  0  0  0  0  0  0  0  0
   11.6610    5.3570   22.1040 N   0  0  0  0  0  0  0  0  0  0  0  0
   11.3530    6.0440   23.3550 C   0  0  0  0  0  0  0  0  0  0  0  0
   12.1900    7.0200   23.8350 C   0  0  0  0  0  0  0  0  0  0  0  0
   10.2820    5.9660   24.3360 C   0  0  0  0  0  0  0  0  0  0  0  0
   11.7510    7.5210   24.9670 N   0  0  0  0  0  0  0  0  0  0  0  0
   10.6000    6.9360   25.3450 C   0  0  0  0  0  0  0  0  0  0  0  0
    9.1010    5.2030   24.4880 C   0  0  0  0  0  0  0  0  0  0  0  0
    9.6740    7.0960   26.5130 C   0  0  0  0  0  0  0  0  0  0  0  0
    8.2140    5.3480   25.5900 C   0  0  0  0  0  0  0  0  0  0  0  0
    8.5160    6.2920   26.5850 C   0  0  0  0  0  0  0  0  0  0  0  0
    7.1040    4.6040   25.6900 F   0  0  0  0  0  0  0  0  0  0  0  0
  1  2  1  0
  3  2  1  0
  3  4  2  0
  3  5  2  0
  3  6  1  0
  6  7  1  0
  6  8  1  0
  7  9  1  0
  8 10  1  0
  9 11  1  0
 10 11  1  0
 11 12  1  0
 12 13  1  0
 13 14  2  0
 13 15  1  0
 14 16  1  0
 15 17  2  0
 16 18  2  0
 17 18  1  0
 17 19  1  0
 19 20  1  0
 20 21  1  0
 21 22  1  0
 22 23  1  0
 23 24  2  0
 23 25  1  0
 24 26  1  0
 25 27  2  0
 26 27  1  0
 25 28  1  0
 27 29  1  0
 28 30  2  0
 29 31  2  0
 30 31  1  0
 30 32  1  0
M  END
