MAK-UNK-ed378e62-25
     RDKit          3D

 15 16  0  0  0  0  0  0  0  0999 V2000
    8.4600   -2.5940   21.3280 C   0  0  0  0  0  0  0  0  0  0  0  0
    7.0640   -2.8380   21.6960 N   0  0  0  0  0  0  0  0  0  0  0  0
    6.6390   -4.0530   21.4080 C   0  0  0  0  0  0  0  0  0  0  0  0
    6.8000   -2.9280   23.0990 C   0  0  0  0  0  0  0  0  0  0  0  0
    7.0660   -5.1500   22.1410 C   0  0  0  0  0  0  0  0  0  0  0  0
    5.6930   -4.5360   20.4080 C   0  0  0  0  0  0  0  0  0  0  0  0
    6.1550   -4.1350   23.3530 C   0  0  0  0  0  0  0  0  0  0  0  0
    7.0710   -2.0720   24.0690 N   0  0  0  0  0  0  0  0  0  0  0  0
    6.5380   -6.3160   21.7750 C   0  0  0  0  0  0  0  0  0  0  0  0
    5.5030   -6.2260   20.5400 S   0  0  0  0  0  0  0  0  0  0  0  0
    5.7700   -4.5010   24.6120 C   0  0  0  0  0  0  0  0  0  0  0  0
    6.6630   -2.4630   25.3110 C   0  0  0  0  0  0  0  0  0  0  0  0
    6.0090   -3.6660   25.6670 N   0  0  0  0  0  0  0  0  0  0  0  0
    6.9160   -1.5520   26.3510 C   0  0  0  0  0  0  0  0  0  0  0  0
    7.1140   -0.7890   27.2080 N   0  0  0  0  0  0  0  0  0  0  0  0
  1  2  1  0
  2  3  1  0
  2  4  1  0
  3  5  1  0
  3  6  2  0
  4  7  2  0
  4  8  1  0
  5  9  2  0
  6 10  1  0
  9 10  1  0
  7 11  1  0
  8 12  2  0
 11 13  2  0
 12 13  1  0
 12 14  1  0
 14 15  3  0
M  END
