MAK-UNK-ed378e62-20
     RDKit          3D

 14 15  0  0  0  0  0  0  0  0999 V2000
    3.0360   -7.0020   22.7720 N   0  0  0  0  0  0  0  0  0  0  0  0
    3.9100   -6.2620   22.9590 C   0  0  0  0  0  0  0  0  0  0  0  0
    4.9310   -5.3530   23.2670 C   0  0  0  0  0  0  0  0  0  0  0  0
    4.8650   -4.9260   24.4930 N   0  0  0  0  0  0  0  0  0  0  0  0
    5.8420   -5.0280   22.3180 N   0  0  0  0  0  0  0  0  0  0  0  0
    5.8010   -4.0640   24.8670 C   0  0  0  0  0  0  0  0  0  0  0  0
    6.7840   -4.1500   22.7530 C   0  0  0  0  0  0  0  0  0  0  0  0
    6.7960   -3.6370   24.0250 C   0  0  0  0  0  0  0  0  0  0  0  0
    7.7010   -3.7690   22.1550 O   0  0  0  0  0  0  0  0  0  0  0  0
    8.4910   -4.5180   22.8800 C   0  0  0  0  0  0  0  0  0  0  0  0
    8.6290   -5.8690   22.7580 C   0  0  0  0  0  0  0  0  0  0  0  0
    9.4020   -3.8420   24.1600 S   0  0  0  0  0  0  0  0  0  0  0  0
    9.4630   -6.4030   23.6830 C   0  0  0  0  0  0  0  0  0  0  0  0
    9.9720   -5.4700   24.5330 C   0  0  0  0  0  0  0  0  0  0  0  0
  1  2  3  0
  2  3  1  0
  3  4  2  0
  3  5  1  0
  4  6  1  0
  5  7  2  0
  6  8  2  0
  7  8  1  0
  7  9  1  0
  9 10  1  0
 10 11  2  0
 10 12  1  0
 11 13  1  0
 12 14  1  0
 13 14  2  0
M  END
