MAK-UNK-c8c8f7e2-32
     RDKit          3D

 18 19  0  0  0  0  0  0  0  0999 V2000
    3.0240   -5.7680   30.0220 C   0  0  0  0  0  0  0  0  0  0  0  0
    1.9510   -6.6040   29.6010 O   0  0  0  0  0  0  0  0  0  0  0  0
    2.2730   -7.7770   28.9650 C   0  0  1  0  0  0  0  0  0  0  0  0
    1.2440   -8.8780   29.3090 C   0  0  0  0  0  0  0  0  0  0  0  0
    2.5110   -7.4070   27.6890 C   0  0  2  0  0  0  0  0  0  0  0  0
    2.2410   -8.4420   26.8760 N   0  0  0  0  0  0  0  0  0  0  0  0
    3.8300   -6.7530   27.2250 C   0  0  0  0  0  0  0  0  0  0  0  0
    5.0140   -6.6950   28.1810 C   0  0  0  0  0  0  0  0  0  0  0  0
    3.9680   -6.1880   25.9080 C   0  0  0  0  0  0  0  0  0  0  0  0
    6.1660   -6.0750   27.6930 C   0  0  0  0  0  0  0  0  0  0  0  0
    5.1900   -5.5640   25.4930 C   0  0  0  0  0  0  0  0  0  0  0  0
    6.2330   -5.5450   26.4270 C   0  0  0  0  0  0  0  0  0  0  0  0
    5.2780   -5.0280   24.2490 N   0  0  0  0  0  0  0  0  0  0  0  0
    4.8050   -5.7530   23.1820 C   0  0  0  0  0  0  0  0  0  0  0  0
    6.5720   -4.5710   23.9280 C   0  0  0  0  0  0  0  0  0  0  0  0
    5.7660   -5.8720   22.1790 C   0  0  0  0  0  0  0  0  0  0  0  0
    6.9380   -5.0990   22.7080 C   0  0  0  0  0  0  0  0  0  0  0  0
    7.2810   -3.8250   24.5930 O   0  0  0  0  0  0  0  0  0  0  0  0
  1  2  1  0
  2  3  1  0
  3  4  1  6
  3  5  1  0
  5  6  1  6
  5  7  1  0
  7  8  2  0
  7  9  1  0
  8 10  1  0
  9 11  2  0
 10 12  2  0
 11 12  1  0
 11 13  1  0
 13 14  1  0
 13 15  1  0
 14 16  1  0
 15 17  1  0
 16 17  1  0
 15 18  2  0
M  END
