MAK-UNK-9e4a73aa-1
     RDKit          3D

 26 29  0  0  0  0  0  0  0  0999 V2000
    8.3090    0.5240   23.3200 O   0  0  0  0  0  0  0  0  0  0  0  0
    8.2270   -0.6350   22.9020 C   0  0  0  0  0  0  0  0  0  0  0  0
    7.5060   -0.9030   21.6410 C   0  0  0  0  0  0  0  0  0  0  0  0
    8.7650   -1.7310   23.5240 N   0  0  0  0  0  0  0  0  0  0  0  0
    7.4580    0.2190   20.6870 C   0  0  0  0  0  0  0  0  0  0  0  0
    6.9270   -2.1300   21.4060 C   0  0  0  0  0  0  0  0  0  0  0  0
    8.2620   -2.9950   23.2640 C   0  0  0  0  0  0  0  0  0  0  0  0
   10.1010   -1.4280   23.7120 C   0  0  0  0  0  0  0  0  0  0  0  0
    6.8010   -0.0150   19.5270 C   0  0  0  0  0  0  0  0  0  0  0  0
    6.2590   -2.3220   20.2130 C   0  0  0  0  0  0  0  0  0  0  0  0
    7.0890   -3.0670   22.4350 N   0  0  0  0  0  0  0  0  0  0  0  0
    8.7430   -4.0310   23.7090 O   0  0  0  0  0  0  0  0  0  0  0  0
   10.9000   -1.6890   22.5530 C   0  0  0  0  0  0  0  0  0  0  0  0
   10.7310   -0.8480   24.9360 C   0  0  0  0  0  0  0  0  0  0  0  0
    6.7000    0.9360   18.5930 F   0  0  0  0  0  0  0  0  0  0  0  0
    6.2140   -1.2670   19.2940 C   0  0  0  0  0  0  0  0  0  0  0  0
    6.2320   -4.1260   22.6430 C   0  0  0  0  0  0  0  0  0  0  0  0
   12.2590   -1.3990   22.5730 C   0  0  0  0  0  0  0  0  0  0  0  0
   12.1060   -0.5930   24.8530 C   0  0  0  0  0  0  0  0  0  0  0  0
    5.4260   -1.4710   17.8370 Cl  0  0  0  0  0  0  0  0  0  0  0  0
    6.7090   -5.5920   22.6630 C   0  0  0  0  0  0  0  0  0  0  0  0
    4.8700   -3.9340   22.8440 C   0  0  0  0  0  0  0  0  0  0  0  0
   12.8430   -0.8600   23.7050 C   0  0  0  0  0  0  0  0  0  0  0  0
    5.7450   -6.7200   22.8870 C   0  0  0  0  0  0  0  0  0  0  0  0
    3.9460   -4.9900   23.0600 C   0  0  0  0  0  0  0  0  0  0  0  0
    4.2910   -6.3350   23.0920 C   0  0  0  0  0  0  0  0  0  0  0  0
  1  2  2  0
  2  3  1  0
  2  4  1  0
  3  5  2  0
  3  6  1  0
  4  7  1  0
  4  8  1  0
  5  9  1  0
  6 10  2  0
  6 11  1  0
  7 11  1  0
  7 12  2  0
  8 13  2  0
  8 14  1  0
  9 15  1  0
  9 16  2  0
 10 16  1  0
 11 17  1  0
 13 18  1  0
 14 19  2  0
 16 20  1  0
 17 21  2  0
 17 22  1  0
 18 23  2  0
 19 23  1  0
 21 24  1  0
 22 25  2  0
 24 26  2  0
 25 26  1  0
M  END
