MAK-UNK-10dfa458-38-acrylamide
     RDKit          3D

 28 30  0  0  0  0  0  0  0  0999 V2000
    8.1580   -3.6200   20.2450 C   0  0  0  0  0  0  0  0  0  0  0  0
    6.8150   -2.9890   20.2020 C   0  0  0  0  0  0  0  0  0  0  0  0
    5.9560   -4.1500   20.5500 C   0  0  0  0  0  0  0  0  0  0  0  0
    5.1110   -4.5670   19.7810 O   0  0  0  0  0  0  0  0  0  0  0  0
    6.2360   -4.7700   21.7580 N   0  0  0  0  0  0  0  0  0  0  0  0
    6.9100   -4.1550   22.9120 C   0  0  0  0  0  0  0  0  0  0  0  0
    5.5280   -6.0180   22.1040 C   0  0  0  0  0  0  0  0  0  0  0  0
    6.1260   -4.6960   24.0800 C   0  0  0  0  0  0  0  0  0  0  0  0
    4.5540   -5.8210   23.3170 C   0  0  0  0  0  0  0  0  0  0  0  0
    5.3070   -5.3520   24.5010 N   0  0  0  0  0  0  0  0  0  0  0  0
    4.5470   -5.0380   25.7430 C   0  0  0  0  0  0  0  0  0  0  0  0
    3.4210   -3.9480   25.7040 C   0  0  0  0  0  0  0  0  0  0  0  0
    3.7890   -2.6400   26.0220 C   0  0  0  0  0  0  0  0  0  0  0  0
    2.0570   -4.1720   25.3920 C   0  0  0  0  0  0  0  0  0  0  0  0
    2.9010   -1.5700   26.0540 C   0  0  0  0  0  0  0  0  0  0  0  0
    1.1300   -3.0920   25.4230 C   0  0  0  0  0  0  0  0  0  0  0  0
    1.6080   -5.4990   25.0500 C   0  0  0  0  0  0  0  0  0  0  0  0
    1.5630   -1.8060   25.7570 C   0  0  0  0  0  0  0  0  0  0  0  0
   -0.2270   -3.2700   25.1290 C   0  0  0  0  0  0  0  0  0  0  0  0
    0.7920   -5.1770   24.1890 O   0  0  0  0  0  0  0  0  0  0  0  0
    1.5530   -6.6670   25.0950 N   0  0  0  0  0  0  0  0  0  0  0  0
   -1.3580   -3.3640   24.8810 N   0  0  0  0  0  0  0  0  0  0  0  0
    1.3760   -7.4300   23.8570 C   0  0  0  0  0  0  0  0  0  0  0  0
    1.6840   -7.4780   26.3130 C   0  0  0  0  0  0  0  0  0  0  0  0
    0.4860   -8.4890   24.0380 C   0  0  0  0  0  0  0  0  0  0  0  0
    0.6240   -8.3610   26.4540 C   0  0  0  0  0  0  0  0  0  0  0  0
    0.4950   -9.2400   25.3700 C   0  0  0  0  0  0  0  0  0  0  0  0
   -0.7190   -9.9800   25.4990 O   0  0  0  0  0  0  0  0  0  0  0  0
  1  2  1  0
  2  3  1  0
  3  4  2  0
  3  5  1  0
  5  6  1  0
  5  7  1  0
  6  8  1  0
  7  9  1  0
  8 10  1  0
  9 10  1  0
 10 11  1  0
 11 12  1  0
 12 13  2  0
 12 14  1  0
 13 15  1  0
 14 16  2  0
 14 17  1  0
 15 18  2  0
 16 18  1  0
 16 19  1  0
 17 20  2  0
 17 21  1  0
 19 22  3  0
 21 23  1  0
 21 24  1  0
 23 25  1  0
 24 26  1  0
 25 27  1  0
 26 27  1  0
 27 28  1  0
M  END
