MAK-UNK-ec98eaf6-32-acrylamide
     RDKit          3D

 19 21  0  0  0  0  0  0  0  0999 V2000
    7.4930   -2.8980   18.1940 C   0  0  0  0  0  0  0  0  0  0  0  0
    6.5130   -2.2640   19.1570 C   0  0  0  0  0  0  0  0  0  0  0  0
    5.9510   -3.1510   20.2380 C   0  0  0  0  0  0  0  0  0  0  0  0
    5.2120   -4.1370   19.9960 O   0  0  0  0  0  0  0  0  0  0  0  0
    6.3310   -2.7980   21.5200 N   0  0  0  0  0  0  0  0  0  0  0  0
    6.4820   -1.3940   21.9880 C   0  0  0  0  0  0  0  0  0  0  0  0
    7.4980   -3.4080   22.1310 C   0  0  1  0  0  0  0  0  0  0  0  0
    7.9370   -1.4300   22.4170 C   0  0  2  0  0  0  0  0  0  0  0  0
    8.5850   -2.3960   21.6830 C   0  0  0  0  0  0  0  0  0  0  0  0
    7.3360   -3.2600   23.4720 C   0  0  0  0  0  0  0  0  0  0  0  0
    8.0660   -2.1440   23.8090 C   0  0  1  0  0  0  0  0  0  0  0  0
    9.4170   -2.3620   24.1330 N   0  0  0  0  0  0  0  0  0  0  0  0
   10.4670   -1.5010   23.8190 C   0  0  0  0  0  0  0  0  0  0  0  0
   10.5770   -0.1920   24.5320 C   0  0  0  0  0  0  0  0  0  0  0  0
   11.3550   -1.8940   22.8620 C   0  0  0  0  0  0  0  0  0  0  0  0
   11.7680    0.6530   24.0800 C   0  0  0  0  0  0  0  0  0  0  0  0
   12.4290   -1.1460   22.4490 C   0  0  0  0  0  0  0  0  0  0  0  0
   12.7040    0.1110   22.9970 C   0  0  0  0  0  0  0  0  0  0  0  0
   13.1340   -1.7850   21.4760 C   0  0  0  0  0  0  0  0  0  0  0  0
  1  2  1  0
  2  3  1  0
  3  4  2  0
  3  5  1  0
  5  6  1  0
  5  7  1  0
  8  6  1  6
  7  9  1  0
  8  9  1  0
  7 10  1  1
  8 11  1  0
 10 11  1  0
 11 12  1  6
 12 13  1  0
 13 14  2  0
 13 15  1  0
 14 16  1  0
 15 17  2  0
 16 18  2  0
 17 18  1  0
 17 19  1  0
M  END
