MAK-UNK-5e88aa6a-4
     RDKit          3D

 28 30  0  0  0  0  0  0  0  0999 V2000
   10.6590    6.6970   22.8900 C   0  0  0  0  0  0  0  0  0  0  0  0
   10.8500    5.2150   23.0040 C   0  0  0  0  0  0  0  0  0  0  0  0
    9.8350    4.4790   23.4790 N   0  0  0  0  0  0  0  0  0  0  0  0
   11.8790    4.3240   22.7260 C   0  0  0  0  0  0  0  0  0  0  0  0
   10.0960    3.0650   23.5580 C   0  0  0  0  0  0  0  0  0  0  0  0
   11.4620    2.9390   23.0650 C   0  0  0  0  0  0  0  0  0  0  0  0
   13.2020    4.7650   22.1590 C   0  0  0  0  0  0  0  0  0  0  0  0
    8.8660    2.3010   24.1100 C   0  0  0  0  0  0  0  0  0  0  0  0
   12.5030    1.8510   22.8240 C   0  0  0  0  0  0  0  0  0  0  0  0
   14.1090    4.0450   21.7740 O   0  0  0  0  0  0  0  0  0  0  0  0
    8.9460    1.0790   24.0280 O   0  0  0  0  0  0  0  0  0  0  0  0
    7.4130    3.0590   24.7810 S   0  0  0  0  0  0  0  0  0  0  0  0
   12.1310    0.5020   22.9490 C   0  0  0  0  0  0  0  0  0  0  0  0
    6.5950    1.9200   25.7150 N   0  0  0  0  0  0  0  0  0  0  0  0
    7.8420    4.1050   25.6880 O   0  0  0  0  0  0  0  0  0  0  0  0
    6.5490    3.3570   23.6610 O   0  0  0  0  0  0  0  0  0  0  0  0
   11.0120    0.0560   23.5650 C   0  0  0  0  0  0  0  0  0  0  0  0
   13.1160   -0.8210   22.2850 S   0  0  0  0  0  0  0  0  0  0  0  0
   10.9340   -1.3370   23.4860 C   0  0  0  0  0  0  0  0  0  0  0  0
   11.9720   -1.9700   22.8360 C   0  0  0  0  0  0  0  0  0  0  0  0
    9.9450   -2.2220   23.9770 C   0  0  0  0  0  0  0  0  0  0  0  0
    9.6070   -3.1160   24.6070 N   0  0  0  0  0  0  0  0  0  0  0  0
   10.4690   -3.5900   25.5360 C   0  0  0  0  0  0  0  0  0  0  0  0
    8.2880   -3.0240   25.0250 C   0  0  0  0  0  0  0  0  0  0  0  0
   10.1250   -4.9220   26.1580 C   0  0  0  0  0  0  0  0  0  0  0  0
    7.7270   -4.3010   25.6840 C   0  0  0  0  0  0  0  0  0  0  0  0
    8.7010   -5.0260   26.6170 C   0  0  0  0  0  0  0  0  0  0  0  0
    8.7150   -4.6180   27.7730 O   0  0  0  0  0  0  0  0  0  0  0  0
  1  2  1  0
  2  3  1  0
  2  4  2  0
  3  5  1  0
  4  6  1  0
  5  6  2  0
  4  7  1  0
  5  8  1  0
  6  9  1  0
  7 10  2  0
  8 11  2  0
 12  8  1  0
  9 13  1  0
 12 14  1  0
 12 15  2  0
 12 16  2  0
 13 17  2  0
 13 18  1  0
 17 19  1  0
 18 20  1  0
 19 20  2  0
 19 21  1  0
 21 22  1  0
 22 23  1  0
 22 24  1  0
 23 25  1  0
 24 26  1  0
 25 27  1  0
 26 27  1  0
 27 28  1  0
M  END
