MAK-UNK-c74072e5-2-nitrile
     RDKit          3D

 26 29  0  0  0  0  0  0  0  0999 V2000
    6.6690   -3.4530   19.5800 C   0  0  0  0  0  0  0  0  0  0  0  0
    5.7560   -4.3100   19.8650 N   0  0  0  0  0  0  0  0  0  0  0  0
    6.6610   -2.1670   20.1100 N   0  0  0  0  0  0  0  0  0  0  0  0
    5.8260   -1.8550   21.2970 C   0  0  0  0  0  0  0  0  0  0  0  0
    6.9390   -0.9900   19.2680 C   0  0  0  0  0  0  0  0  0  0  0  0
    6.4550   -0.7120   22.1360 C   0  0  0  0  0  0  0  0  0  0  0  0
    7.0420    0.1720   20.0730 C   0  0  0  0  0  0  0  0  0  0  0  0
    7.5740   -0.0440   21.4440 N   0  0  0  0  0  0  0  0  0  0  0  0
    8.8470   -0.8240   21.5480 C   0  0  0  0  0  0  0  0  0  0  0  0
    8.8480   -1.6140   22.8470 C   0  0  0  0  0  0  0  0  0  0  0  0
    9.7610   -1.6200   24.0090 C   0  0  0  0  0  0  0  0  0  0  0  0
    7.4680   -2.8580   23.1860 S   0  0  0  0  0  0  0  0  0  0  0  0
    9.3480   -2.4840   24.9990 C   0  0  0  0  0  0  0  0  0  0  0  0
    8.1210   -3.2210   24.7290 C   0  0  0  0  0  0  0  0  0  0  0  0
    7.3400   -4.2110   25.6020 C   0  0  0  0  0  0  0  0  0  0  0  0
    6.0640   -4.3890   25.0260 C   0  0  0  0  0  0  0  0  0  0  0  0
    7.7070   -4.8830   26.8030 C   0  0  0  0  0  0  0  0  0  0  0  0
    5.0670   -5.2060   25.5680 C   0  0  0  0  0  0  0  0  0  0  0  0
    6.6350   -5.7540   27.4240 C   0  0  0  0  0  0  0  0  0  0  0  0
    9.0790   -4.7680   27.4730 C   0  0  0  0  0  0  0  0  0  0  0  0
    5.3690   -5.9260   26.8480 C   0  0  0  0  0  0  0  0  0  0  0  0
    6.9310   -6.4580   28.7050 C   0  0  0  0  0  0  0  0  0  0  0  0
   10.4330   -4.5440   26.1050 Br  0  0  0  0  0  0  0  0  0  0  0  0
    4.4000   -6.7570   27.4660 C   0  0  0  0  0  0  0  0  0  0  0  0
    5.9470   -7.2540   29.2750 C   0  0  0  0  0  0  0  0  0  0  0  0
    4.6890   -7.4150   28.6740 C   0  0  0  0  0  0  0  0  0  0  0  0
  1  2  2  3
  1  3  1  0
  3  4  1  0
  3  5  1  0
  4  6  1  0
  5  7  1  0
  6  8  1  0
  7  8  1  0
  8  9  1  0
  9 10  1  0
 10 11  2  0
 10 12  1  0
 11 13  1  0
 12 14  1  0
 13 14  2  0
 14 15  1  0
 15 16  2  0
 15 17  1  0
 16 18  1  0
 17 19  2  0
 17 20  1  0
 18 21  2  0
 19 21  1  0
 19 22  1  0
 20 23  1  0
 21 24  1  0
 22 25  2  0
 24 26  2  0
 25 26  1  0
M  END
