MAK-UNK-849bee6c-14-vinylsulfonamide
     RDKit          3D

 28 30  0  0  0  0  0  0  0  0999 V2000
    7.8580   -2.6790   18.5510 C   0  0  0  0  0  0  0  0  0  0  0  0
    6.4010   -2.7950   18.4480 C   0  0  0  0  0  0  0  0  0  0  0  0
    5.6430   -3.2740   19.9410 S   0  0  0  0  0  0  0  0  0  0  0  0
    5.1520   -4.6270   19.8760 O   0  0  0  0  0  0  0  0  0  0  0  0
    4.7860   -2.1940   20.1140 O   0  0  0  0  0  0  0  0  0  0  0  0
    6.7680   -3.0310   21.1330 N   0  0  0  0  0  0  0  0  0  0  0  0
    7.2160   -1.6630   21.1560 C   0  0  0  0  0  0  0  0  0  0  0  0
    6.4650   -3.5830   22.4480 C   0  0  0  0  0  0  0  0  0  0  0  0
    8.5510   -1.5770   21.8550 C   0  0  0  0  0  0  0  0  0  0  0  0
    7.3290   -2.9130   23.5210 C   0  0  0  0  0  0  0  0  0  0  0  0
    8.6280   -2.5220   22.9630 N   0  0  0  0  0  0  0  0  0  0  0  0
    9.5770   -2.2990   23.9900 C   0  0  0  0  0  0  0  0  0  0  0  0
   10.6700   -1.3420   23.6260 C   0  0  0  0  0  0  0  0  0  0  0  0
   12.0510   -1.8440   23.4620 C   0  0  0  0  0  0  0  0  0  0  0  0
   10.4000    0.0350   23.4300 C   0  0  0  0  0  0  0  0  0  0  0  0
   12.9750   -0.8030   23.1100 C   0  0  0  0  0  0  0  0  0  0  0  0
   11.3110    1.1020   23.0740 C   0  0  0  0  0  0  0  0  0  0  0  0
   12.5860    0.5170   22.9490 C   0  0  0  0  0  0  0  0  0  0  0  0
   10.5240    1.9830   23.0590 N   0  0  0  0  0  0  0  0  0  0  0  0
    9.4120    1.6600   22.1510 C   0  0  0  0  0  0  0  0  0  0  0  0
   10.7860    3.3150   23.4920 C   0  0  0  0  0  0  0  0  0  0  0  0
   10.0570    3.8920   24.5210 C   0  0  0  0  0  0  0  0  0  0  0  0
   11.7650    4.1430   22.9390 C   0  0  0  0  0  0  0  0  0  0  0  0
   10.2890    5.2490   25.0000 N   0  0  0  0  0  0  0  0  0  0  0  0
   12.0250    5.4180   23.3430 N   0  0  0  0  0  0  0  0  0  0  0  0
   11.2720    5.9040   24.3590 C   0  0  0  0  0  0  0  0  0  0  0  0
   11.5330    7.2430   24.8110 C   0  0  0  0  0  0  0  0  0  0  0  0
   11.7620    8.5220   25.2740 N   0  0  0  0  0  0  0  0  0  0  0  0
  1  2  1  0
  3  2  1  0
  3  4  2  0
  3  5  2  0
  3  6  1  0
  6  7  1  0
  6  8  1  0
  7  9  1  0
  8 10  1  0
  9 11  1  0
 10 11  1  0
 11 12  1  0
 12 13  1  0
 13 14  2  0
 13 15  1  0
 14 16  1  0
 15 17  2  0
 16 18  2  0
 17 18  1  0
 17 19  1  0
 19 20  1  0
 19 21  1  0
 21 22  2  0
 21 23  1  0
 22 24  1  0
 23 25  2  0
 24 26  2  0
 25 26  1  0
 26 27  1  0
 27 28  3  0
M  END
