MAK-UNK-ec98eaf6-3-nitrile
     RDKit          3D

 20 23  0  0  0  0  0  0  0  0999 V2000
    7.1580   -3.3660   19.5690 C   0  0  0  0  0  0  0  0  0  0  0  0
    6.3260   -3.1090   18.6300 N   0  0  0  0  0  0  0  0  0  0  0  0
    6.9330   -3.0470   20.8820 N   0  0  0  0  0  0  0  0  0  0  0  0
    7.0150   -3.9570   22.0470 C   0  0  0  0  0  0  0  0  0  0  0  0
    6.9860   -1.6910   21.4360 C   0  0  1  0  0  0  0  0  0  0  0  0
    6.9670   -2.9680   23.2490 C   0  0  2  0  0  0  0  0  0  0  0  0
    6.0580   -1.8580   22.6450 C   0  0  0  0  0  0  0  0  0  0  0  0
    8.3770   -1.4940   22.0780 C   0  0  0  0  0  0  0  0  0  0  0  0
    8.1700   -2.1100   23.4090 N   0  0  0  0  0  0  0  0  0  0  0  0
    9.3290   -2.5860   24.1980 C   0  0  2  0  0  0  0  0  0  0  0  0
   10.4800   -1.6370   23.8500 C   0  0  0  0  0  0  0  0  0  0  0  0
    9.6370   -4.0970   24.3130 C   0  0  0  0  0  0  0  0  0  0  0  0
    8.9880   -2.5760   25.5760 O   0  0  0  0  0  0  0  0  0  0  0  0
   10.7270   -0.3030   24.5440 C   0  0  0  0  0  0  0  0  0  0  0  0
   11.3710   -1.9610   22.8330 C   0  0  0  0  0  0  0  0  0  0  0  0
   10.0750   -3.4760   25.6300 C   0  0  0  0  0  0  0  0  0  0  0  0
   11.8020    0.5000   24.1270 C   0  0  0  0  0  0  0  0  0  0  0  0
   12.4080   -1.1170   22.4830 C   0  0  0  0  0  0  0  0  0  0  0  0
   12.6420    0.0980   23.1070 C   0  0  0  0  0  0  0  0  0  0  0  0
   13.4020   -1.6230   21.2200 Cl  0  0  0  0  0  0  0  0  0  0  0  0
  1  2  2  3
  1  3  1  0
  3  4  1  0
  3  5  1  0
  6  4  1  6
  5  7  1  0
  6  7  1  0
  5  8  1  1
  6  9  1  0
  8  9  1  0
  9 10  1  0
 10 11  1  1
 10 12  1  0
 10 13  1  0
 11 14  2  0
 11 15  1  0
 12 16  1  0
 13 16  1  0
 14 17  1  0
 15 18  2  0
 17 19  2  0
 18 19  1  0
 18 20  1  0
M  END
