MAK-UNK-c74072e5-6-nitrile
     RDKit          3D

 30 32  0  0  0  0  0  0  0  0999 V2000
    6.6450   -4.3960   20.3130 C   0  0  0  0  0  0  0  0  0  0  0  0
    5.6840   -3.8290   19.6860 N   0  0  0  0  0  0  0  0  0  0  0  0
    7.1180   -3.9930   21.5460 N   0  0  0  0  0  0  0  0  0  0  0  0
    6.5790   -4.5180   22.8230 C   0  0  0  0  0  0  0  0  0  0  0  0
    7.9030   -2.7510   21.6670 C   0  0  0  0  0  0  0  0  0  0  0  0
    7.7160   -4.7740   23.8460 C   0  0  0  0  0  0  0  0  0  0  0  0
    8.4710   -2.6280   23.0650 C   0  0  0  0  0  0  0  0  0  0  0  0
    8.9060   -3.9000   23.6710 N   0  0  0  0  0  0  0  0  0  0  0  0
    9.9430   -3.6240   24.9840 S   0  0  0  0  0  0  0  0  0  0  0  0
    9.1390   -2.9520   25.9560 O   0  0  0  0  0  0  0  0  0  0  0  0
   10.6550   -4.8310   25.3100 O   0  0  0  0  0  0  0  0  0  0  0  0
   11.1130   -2.4360   24.3160 C   0  0  0  0  0  0  0  0  0  0  0  0
   11.6550   -1.2050   24.9790 C   0  0  0  0  0  0  0  0  0  0  0  0
   11.7910   -2.5230   22.7320 S   0  0  0  0  0  0  0  0  0  0  0  0
   12.5510   -0.5140   24.0870 C   0  0  0  0  0  0  0  0  0  0  0  0
   12.7130   -1.0540   22.8520 C   0  0  0  0  0  0  0  0  0  0  0  0
   13.4680   -0.4150   21.8430 C   0  0  0  0  0  0  0  0  0  0  0  0
   13.8930   -1.0310   20.4960 C   0  0  0  0  0  0  0  0  0  0  0  0
   13.7610    0.8660   22.1700 N   0  0  0  0  0  0  0  0  0  0  0  0
   14.6170   -0.1420   19.5880 C   0  0  0  0  0  0  0  0  0  0  0  0
   14.4250    1.6230   21.2520 C   0  0  0  0  0  0  0  0  0  0  0  0
   15.1420   -0.5380   18.3720 N   0  0  0  0  0  0  0  0  0  0  0  0
   14.8540    1.1900   19.9780 C   0  0  0  0  0  0  0  0  0  0  0  0
   15.0910    0.4610   17.0980 S   0  0  0  0  0  0  0  0  0  0  0  0
   13.7520    0.8810   17.0060 O   0  0  0  0  0  0  0  0  0  0  0  0
   15.8770   -0.1370   16.0780 O   0  0  0  0  0  0  0  0  0  0  0  0
   16.0060    1.6780   17.5630 C   0  0  2  0  0  0  0  0  0  0  0  0
   17.0460    1.0400   18.3260 C   0  0  0  0  0  0  0  0  0  0  0  0
   15.1940    2.5610   18.3980 C   0  0  0  0  0  0  0  0  0  0  0  0
   14.4350    3.4840   19.2650 N   0  0  0  0  0  0  0  0  0  0  0  0
  1  2  2  3
  1  3  1  0
  3  4  1  0
  3  5  1  0
  4  6  1  0
  5  7  1  0
  6  8  1  0
  7  8  1  0
  8  9  1  0
  9 10  2  0
  9 11  2  0
  9 12  1  0
 12 13  2  0
 12 14  1  0
 13 15  1  0
 14 16  1  0
 15 16  2  0
 16 17  1  0
 17 18  2  0
 17 19  1  0
 18 20  1  0
 19 21  2  0
 20 22  1  0
 20 23  2  0
 21 23  1  0
 24 22  1  0
 24 25  2  0
 24 26  2  0
 24 27  1  0
 27 28  1  1
 27 29  1  0
 29 30  3  0
M  END
