MAK-UNK-10799360-7-bromoalkyne
     RDKit          3D

 25 28  0  0  0  0  0  0  0  0999 V2000
    7.2900   -3.5110   19.8850 C   0  0  0  0  0  0  0  0  0  0  0  0
    5.9470   -3.3590   19.1530 C   0  0  0  0  0  0  0  0  0  0  0  0
    7.6460   -2.7200   20.9770 N   0  0  0  0  0  0  0  0  0  0  0  0
    8.1290   -3.2120   22.2820 C   0  0  0  0  0  0  0  0  0  0  0  0
    8.1540   -1.3320   20.8580 C   0  0  2  0  0  0  0  0  0  0  0  0
    8.4840   -1.8680   22.9680 C   0  0  1  0  0  0  0  0  0  0  0  0
    9.3360   -1.3140   21.8230 C   0  0  0  0  0  0  0  0  0  0  0  0
    7.3120   -0.2970   21.6160 C   0  0  0  0  0  0  0  0  0  0  0  0
    7.1620   -1.0170   22.9570 C   0  0  2  0  0  0  0  0  0  0  0  0
    6.7940   -0.2250   24.2370 C   0  0  0  0  0  0  0  0  0  0  0  0
    5.3340    0.1360   24.1560 N   0  0  0  0  0  0  0  0  0  0  0  0
    5.0530    0.5880   22.8320 C   0  0  0  0  0  0  0  0  0  0  0  0
    4.5890   -0.9420   24.5910 C   0  0  0  0  0  0  0  0  0  0  0  0
    4.9240   -0.4490   21.8830 C   0  0  0  0  0  0  0  0  0  0  0  0
    4.7720   -2.0330   23.7700 C   0  0  0  0  0  0  0  0  0  0  0  0
    4.9560   -1.7650   22.3900 C   0  0  0  0  0  0  0  0  0  0  0  0
    4.8020   -3.3570   24.2290 C   0  0  0  0  0  0  0  0  0  0  0  0
    5.1790   -2.8510   21.5630 C   0  0  0  0  0  0  0  0  0  0  0  0
    5.0240   -4.4590   23.3980 C   0  0  0  0  0  0  0  0  0  0  0  0
    5.2340   -4.2710   22.0380 C   0  0  0  0  0  0  0  0  0  0  0  0
    5.0250   -5.9750   24.1920 S   0  0  0  0  0  0  0  0  0  0  0  0
    5.5040   -5.4250   21.1190 C   0  0  0  0  0  0  0  0  0  0  0  0
    5.8500   -6.8860   23.0420 N   0  0  0  0  0  0  0  0  0  0  0  0
    3.6750   -6.4910   24.2550 O   0  0  0  0  0  0  0  0  0  0  0  0
    5.8440   -5.8460   25.3800 O   0  0  0  0  0  0  0  0  0  0  0  0
  1  2  2  3
  1  3  1  0
  3  4  1  0
  3  5  1  0
  6  4  1  6
  5  7  1  0
  6  7  1  0
  5  8  1  1
  6  9  1  0
  8  9  1  0
  9 10  1  1
 10 11  1  0
 11 12  1  0
 11 13  1  0
 12 14  1  0
 13 15  1  0
 14 16  1  0
 15 16  2  0
 15 17  1  0
 16 18  1  0
 17 19  2  0
 18 20  2  0
 19 20  1  0
 19 21  1  0
 20 22  1  0
 21 23  1  0
 21 24  2  0
 21 25  2  0
M  END
