MAK-UNK-ed378e62-11
     RDKit          3D

 14 15  0  0  0  0  0  0  0  0999 V2000
    9.3780   -2.7460   22.6430 N   0  0  0  0  0  0  0  0  0  0  0  0
    8.4930   -3.4850   22.7710 C   0  0  0  0  0  0  0  0  0  0  0  0
    7.4080   -4.3660   22.9300 C   0  0  0  0  0  0  0  0  0  0  0  0
    7.0110   -5.1080   21.9340 N   0  0  0  0  0  0  0  0  0  0  0  0
    6.8890   -4.3240   24.1520 N   0  0  0  0  0  0  0  0  0  0  0  0
    5.9620   -5.9130   22.1930 C   0  0  0  0  0  0  0  0  0  0  0  0
    5.8600   -5.1200   24.3990 C   0  0  0  0  0  0  0  0  0  0  0  0
    5.3220   -5.9650   23.4460 C   0  0  0  0  0  0  0  0  0  0  0  0
    5.3050   -5.0540   25.7910 C   0  0  0  0  0  0  0  0  0  0  0  0
    5.9130   -4.1570   26.6630 C   0  0  0  0  0  0  0  0  0  0  0  0
    4.2750   -5.8070   26.2260 N   0  0  0  0  0  0  0  0  0  0  0  0
    5.4150   -4.0890   27.9620 C   0  0  0  0  0  0  0  0  0  0  0  0
    3.8690   -5.6630   27.5120 C   0  0  0  0  0  0  0  0  0  0  0  0
    4.3910   -4.8300   28.4240 N   0  0  0  0  0  0  0  0  0  0  0  0
  1  2  3  0
  2  3  1  0
  3  4  2  0
  3  5  1  0
  4  6  1  0
  5  7  2  0
  6  8  2  0
  7  8  1  0
  7  9  1  0
  9 10  2  0
  9 11  1  0
 10 12  1  0
 11 13  2  0
 12 14  2  0
 13 14  1  0
M  END
