MAK-UNK-f983951f-26-bromoalkyne
     RDKit          3D

 14 14  0  0  0  0  0  0  0  0999 V2000
    6.1940   -4.4660   20.5670 C   0  0  0  0  0  0  0  0  0  0  0  0
    5.6050   -3.5100   19.5270 C   0  0  0  0  0  0  0  0  0  0  0  0
    5.7630   -4.3870   21.9840 N   0  0  0  0  0  0  0  0  0  0  0  0
    4.6990   -5.1320   22.8310 C   0  0  0  0  0  0  0  0  0  0  0  0
    4.0660   -4.3200   24.0950 C   0  0  0  0  0  0  0  0  0  0  0  0
    2.5230   -4.2360   24.2070 C   0  0  0  0  0  0  0  0  0  0  0  0
    4.8450   -3.7010   25.0800 C   0  0  0  0  0  0  0  0  0  0  0  0
    1.9520   -3.4230   25.3980 C   0  0  0  0  0  0  0  0  0  0  0  0
    4.3410   -2.9770   26.1570 C   0  0  0  0  0  0  0  0  0  0  0  0
    2.9790   -2.8190   26.3370 C   0  0  0  0  0  0  0  0  0  0  0  0
    2.2630   -2.0510   27.4580 C   0  0  0  0  0  0  0  0  0  0  0  0
    2.0600   -1.4010   28.3960 N   0  0  0  0  0  0  0  0  0  0  0  0
    2.7330   -1.9550   29.5780 C   0  0  0  0  0  0  0  0  0  0  0  0
    2.5280   -0.0340   28.1510 C   0  0  0  0  0  0  0  0  0  0  0  0
  1  2  2  3
  1  3  1  0
  3  4  1  0
  4  5  1  0
  5  6  2  0
  5  7  1  0
  6  8  1  0
  7  9  2  0
  8 10  2  0
  9 10  1  0
 10 11  1  0
 11 12  1  0
 12 13  1  0
 12 14  1  0
M  END
