MAK-UNK-8fdbca50-40-bromoalkyne
     RDKit          3D

 38 41  0  0  0  0  0  0  0  0999 V2000
    6.5760   -4.7420   20.4040 C   0  0  0  0  0  0  0  0  0  0  0  0
    5.7140   -3.7770   19.6230 C   0  0  0  0  0  0  0  0  0  0  0  0
    6.4150   -5.0190   21.7500 N   0  0  0  0  0  0  0  0  0  0  0  0
    5.1910   -5.5030   22.3930 C   0  0  0  0  0  0  0  0  0  0  0  0
    7.4340   -4.6660   22.7290 C   0  0  0  0  0  0  0  0  0  0  0  0
    4.6460   -4.3880   23.2470 C   0  0  0  0  0  0  0  0  0  0  0  0
    6.8290   -3.7930   23.8160 C   0  0  0  0  0  0  0  0  0  0  0  0
    5.4800   -3.2600   23.3080 C   0  0  0  0  0  0  0  0  0  0  0  0
    5.1490   -2.1010   23.9880 C   0  0  0  0  0  0  0  0  0  0  0  0
    4.3230   -2.1650   24.8970 O   0  0  0  0  0  0  0  0  0  0  0  0
    5.7540   -0.8870   23.6350 C   0  0  2  0  0  0  0  0  0  0  0  0
    4.9230    0.3620   23.8670 C   0  0  0  0  0  0  0  0  0  0  0  0
    6.1800   -0.8820   22.1690 N   0  0  0  0  0  0  0  0  0  0  0  0
    7.1280   -0.7180   24.3930 C   0  0  0  0  0  0  0  0  0  0  0  0
    6.9850   -1.9260   21.4940 C   0  0  0  0  0  0  0  0  0  0  0  0
    7.7180    0.6730   24.4590 C   0  0  0  0  0  0  0  0  0  0  0  0
    7.1070   -1.3260   25.7940 C   0  0  0  0  0  0  0  0  0  0  0  0
    8.4270   -1.5590   21.6250 C   0  0  0  0  0  0  0  0  0  0  0  0
    8.7460   -0.1770   22.0230 C   0  0  0  0  0  0  0  0  0  0  0  0
    9.7160   -2.1480   21.4860 C   0  0  0  0  0  0  0  0  0  0  0  0
   10.0670   -0.0490   22.0900 C   0  0  0  0  0  0  0  0  0  0  0  0
   10.7910   -1.2390   21.7580 N   0  0  0  0  0  0  0  0  0  0  0  0
   10.6500    1.2890   22.4890 C   0  0  0  0  0  0  0  0  0  0  0  0
   12.5200   -1.6350   21.7110 S   0  0  0  0  0  0  0  0  0  0  0  0
   12.0100    1.4340   22.6420 C   0  0  0  0  0  0  0  0  0  0  0  0
    9.8350    2.4280   22.6840 C   0  0  0  0  0  0  0  0  0  0  0  0
   13.5140   -0.6310   21.4240 O   0  0  0  0  0  0  0  0  0  0  0  0
   12.8070   -3.0160   21.7420 O   0  0  0  0  0  0  0  0  0  0  0  0
   12.0250   -1.2190   23.1930 C   0  0  0  0  0  0  0  0  0  0  0  0
   12.5030    2.6750   22.9580 C   0  0  0  0  0  0  0  0  0  0  0  0
   10.3550    3.6880   23.0190 C   0  0  0  0  0  0  0  0  0  0  0  0
    8.5050    2.3500   22.5460 F   0  0  0  0  0  0  0  0  0  0  0  0
   10.7620   -1.6830   23.4380 C   0  0  0  0  0  0  0  0  0  0  0  0
   12.7370   -0.4940   24.0230 C   0  0  0  0  0  0  0  0  0  0  0  0
   11.7290    3.8030   23.1530 C   0  0  0  0  0  0  0  0  0  0  0  0
   10.1830   -1.3560   24.5980 C   0  0  0  0  0  0  0  0  0  0  0  0
   12.2000   -0.1720   25.1670 N   0  0  0  0  0  0  0  0  0  0  0  0
   10.9320   -0.5930   25.4310 C   0  0  0  0  0  0  0  0  0  0  0  0
  1  2  2  3
  1  3  1  0
  3  4  1  0
  3  5  1  0
  4  6  1  0
  5  7  1  0
  6  8  1  0
  7  8  1  0
  8  9  1  0
  9 10  2  0
 11  9  1  0
 11 12  1  6
 11 13  1  0
 11 14  1  0
 13 15  1  0
 14 16  1  0
 14 17  1  0
 15 18  1  0
 18 19  1  0
 18 20  2  0
 19 21  2  0
 20 22  1  0
 21 22  1  0
 21 23  1  0
 22 24  1  0
 23 25  2  0
 23 26  1  0
 24 27  2  0
 24 28  2  0
 24 29  1  0
 25 30  1  0
 26 31  2  0
 26 32  1  0
 29 33  2  0
 29 34  1  0
 30 35  2  0
 31 35  1  0
 33 36  1  0
 34 37  2  0
 36 38  2  0
 37 38  1  0
M  END
