MAK-UNK-e4a48a85-18-nitrile
     RDKit          3D

 28 30  0  0  0  0  0  0  0  0999 V2000
    6.8280   -3.6380   19.9910 C   0  0  0  0  0  0  0  0  0  0  0  0
    5.7330   -3.6280   19.3420 N   0  0  0  0  0  0  0  0  0  0  0  0
    6.9860   -2.8420   21.1000 N   0  0  0  0  0  0  0  0  0  0  0  0
    7.5730   -1.4910   21.0440 C   0  0  0  0  0  0  0  0  0  0  0  0
    6.6480   -3.2770   22.4710 C   0  0  0  0  0  0  0  0  0  0  0  0
    8.8260   -1.4500   21.9430 C   0  0  0  0  0  0  0  0  0  0  0  0
    7.8670   -3.1260   23.4120 C   0  0  0  0  0  0  0  0  0  0  0  0
    8.5540   -1.8080   23.3540 N   0  0  0  0  0  0  0  0  0  0  0  0
    9.7700   -1.7730   24.1820 C   0  0  0  0  0  0  0  0  0  0  0  0
   10.8820   -0.9070   23.6400 C   0  0  0  0  0  0  0  0  0  0  0  0
   12.0460   -1.4560   23.1070 C   0  0  0  0  0  0  0  0  0  0  0  0
   10.7570    0.4790   23.6690 C   0  0  0  0  0  0  0  0  0  0  0  0
   13.0580   -0.6260   22.6140 C   0  0  0  0  0  0  0  0  0  0  0  0
   11.7660    1.3270   23.1740 C   0  0  0  0  0  0  0  0  0  0  0  0
   12.9620    0.7800   22.6280 C   0  0  0  0  0  0  0  0  0  0  0  0
   11.4950    2.8060   23.2520 C   0  0  0  0  0  0  0  0  0  0  0  0
   14.0000    1.6090   22.1180 N   0  0  0  0  0  0  0  0  0  0  0  0
   14.0000    3.0850   22.2130 C   0  0  0  0  0  0  0  0  0  0  0  0
   15.4290    3.8000   22.1050 C   0  0  0  0  0  0  0  0  0  0  0  0
   16.6890    3.5410   22.8780 N   0  0  0  0  0  0  0  0  0  0  0  0
   17.5590    4.6950   22.9780 C   0  0  0  0  0  0  0  0  0  0  0  0
   18.8750    4.4630   23.5590 N   0  0  0  0  0  0  0  0  0  0  0  0
   19.7580    5.6310   23.5440 C   0  0  0  0  0  0  0  0  0  0  0  0
   18.9330    3.5160   24.6770 C   0  0  0  0  0  0  0  0  0  0  0  0
   21.1580    5.3480   24.0790 C   0  0  0  0  0  0  0  0  0  0  0  0
   20.2560    3.4900   25.4750 C   0  0  0  0  0  0  0  0  0  0  0  0
   21.0510    4.7910   25.4790 C   0  0  0  0  0  0  0  0  0  0  0  0
   22.3520    4.5430   26.0110 O   0  0  0  0  0  0  0  0  0  0  0  0
  1  2  2  3
  1  3  1  0
  3  4  1  0
  3  5  1  0
  4  6  1  0
  5  7  1  0
  6  8  1  0
  7  8  1  0
  8  9  1  0
  9 10  1  0
 10 11  2  0
 10 12  1  0
 11 13  1  0
 12 14  2  0
 13 15  2  0
 14 15  1  0
 14 16  1  0
 15 17  1  0
 17 18  1  0
 18 19  1  0
 19 20  1  0
 20 21  1  0
 21 22  1  0
 22 23  1  0
 22 24  1  0
 23 25  1  0
 24 26  1  0
 25 27  1  0
 26 27  1  0
 27 28  1  0
M  END
