MAK-UNK-ec98eaf6-45-nitrile
     RDKit          3D

 21 23  0  0  0  0  0  0  0  0999 V2000
    6.7580   -3.4010   19.6390 C   0  0  0  0  0  0  0  0  0  0  0  0
    5.9260   -3.0930   18.7190 N   0  0  0  0  0  0  0  0  0  0  0  0
    6.5690   -3.1180   20.9950 N   0  0  0  0  0  0  0  0  0  0  0  0
    6.7280   -4.0780   22.0860 C   0  0  0  0  0  0  0  0  0  0  0  0
    6.7070   -1.8580   21.5730 C   0  0  1  0  0  0  0  0  0  0  0  0
    7.0240   -3.1750   23.2330 C   0  0  2  0  0  0  0  0  0  0  0  0
    6.0690   -2.0280   22.9590 C   0  0  0  0  0  0  0  0  0  0  0  0
    8.1650   -1.5390   21.9200 C   0  0  1  0  0  0  0  0  0  0  0  0
    8.1970   -0.0860   22.4420 C   0  0  0  0  0  0  0  0  0  0  0  0
    8.3940   -2.6180   22.9450 N   0  0  0  0  0  0  0  0  0  0  0  0
    8.2700    1.0800   21.4820 C   0  0  0  0  0  0  0  0  0  0  0  0
    9.2420   -2.3530   23.9720 C   0  0  0  0  0  0  0  0  0  0  0  0
    7.9850    2.4570   22.0290 C   0  0  0  0  0  0  0  0  0  0  0  0
    7.2820    0.8380   20.3360 C   0  0  0  0  0  0  0  0  0  0  0  0
   10.3350   -1.5250   23.7610 C   0  0  0  0  0  0  0  0  0  0  0  0
   10.6770   -0.2580   24.4480 C   0  0  0  0  0  0  0  0  0  0  0  0
   11.2440   -1.8970   22.7770 C   0  0  0  0  0  0  0  0  0  0  0  0
   11.8960    0.4900   24.0540 C   0  0  0  0  0  0  0  0  0  0  0  0
   12.3780   -1.1330   22.4650 C   0  0  0  0  0  0  0  0  0  0  0  0
   12.7190    0.0750   23.1030 C   0  0  0  0  0  0  0  0  0  0  0  0
   13.3560   -1.7450   21.2290 Cl  0  0  0  0  0  0  0  0  0  0  0  0
  1  2  2  3
  1  3  1  0
  3  4  1  0
  5  3  1  6
  6  4  1  6
  5  7  1  0
  6  7  1  0
  5  8  1  0
  8  9  1  1
  6 10  1  0
  8 10  1  0
  9 11  1  0
 10 12  1  0
 11 13  1  0
 11 14  1  0
 12 15  1  0
 15 16  2  0
 15 17  1  0
 16 18  1  0
 17 19  2  0
 18 20  2  0
 19 20  1  0
 19 21  1  0
M  END
