MAK-UNK-72659d64-3-acrylamide
     RDKit          3D

 13 13  0  0  0  0  0  0  0  0999 V2000
    7.5450   -2.9530   18.7680 C   0  0  0  0  0  0  0  0  0  0  0  0
    6.7830   -2.5550   20.0280 C   0  0  0  0  0  0  0  0  0  0  0  0
    5.4720   -3.3190   20.2780 C   0  0  0  0  0  0  0  0  0  0  0  0
    4.9410   -4.0840   19.4870 O   0  0  0  0  0  0  0  0  0  0  0  0
    4.9170   -3.1810   21.5320 N   0  0  0  0  0  0  0  0  0  0  0  0
    5.7570   -4.0020   22.2560 C   0  0  0  0  0  0  0  0  0  0  0  0
    7.1120   -3.3520   22.2350 C   0  0  0  0  0  0  0  0  0  0  0  0
    5.4640   -5.2030   22.8690 C   0  0  0  0  0  0  0  0  0  0  0  0
    8.0070   -4.2020   22.8990 N   0  0  0  0  0  0  0  0  0  0  0  0
    6.4380   -5.9150   23.4890 N   0  0  0  0  0  0  0  0  0  0  0  0
    7.6320   -5.3850   23.4400 C   0  0  0  0  0  0  0  0  0  0  0  0
    8.8400   -6.0150   23.9530 C   0  0  0  0  0  0  0  0  0  0  0  0
    9.8300   -6.4800   24.2290 N   0  0  0  0  0  0  0  0  0  0  0  0
  1  2  1  0
  2  3  1  0
  3  4  2  0
  3  5  1  0
  5  6  1  0
  6  7  2  0
  6  8  1  0
  7  9  1  0
  8 10  2  0
  9 11  2  0
 10 11  1  0
 11 12  1  0
 12 13  3  0
M  END
