MAK-UNK-30aad1f1-3-bromoalkyne
     RDKit          3D

 26 28  0  0  0  0  0  0  0  0999 V2000
    7.3770   -3.2860   19.3960 C   0  0  0  0  0  0  0  0  0  0  0  0
    7.6780   -2.9720   18.1660 C   0  0  0  0  0  0  0  0  0  0  0  0
    6.3900   -2.2390   19.4980 C   0  0  0  0  0  0  0  0  0  0  0  0
    5.3220   -1.8530   20.5150 C   0  0  0  0  0  0  0  0  0  0  0  0
    6.5600   -1.4530   18.3770 C   0  0  0  0  0  0  0  0  0  0  0  0
    4.5820   -0.5640   20.0650 C   0  0  0  0  0  0  0  0  0  0  0  0
    5.9280   -0.3560   17.9830 N   0  0  0  0  0  0  0  0  0  0  0  0
    4.9740    0.1070   18.7540 C   0  0  0  0  0  0  0  0  0  0  0  0
    4.3940    1.2420   18.2550 N   0  0  0  0  0  0  0  0  0  0  0  0
    4.3040    2.3360   19.1960 C   0  0  0  0  0  0  0  0  0  0  0  0
    4.9310    1.9840   20.3710 C   0  0  0  0  0  0  0  0  0  0  0  0
    6.2540    1.4440   20.4020 C   0  0  0  0  0  0  0  0  0  0  0  0
    4.2660    2.1510   21.5770 C   0  0  0  0  0  0  0  0  0  0  0  0
    6.8810    1.0920   21.5420 N   0  0  0  0  0  0  0  0  0  0  0  0
    4.8750    1.8070   22.7690 C   0  0  0  0  0  0  0  0  0  0  0  0
    6.1810    1.2810   22.6940 C   0  0  0  0  0  0  0  0  0  0  0  0
    4.2690    1.9580   23.9630 N   0  0  0  0  0  0  0  0  0  0  0  0
    2.9080    2.1500   24.1840 C   0  0  0  0  0  0  0  0  0  0  0  0
    2.2960    1.4190   24.9600 O   0  0  0  0  0  0  0  0  0  0  0  0
    2.2880    3.2000   23.4710 N   0  0  0  0  0  0  0  0  0  0  0  0
    0.9440    3.6300   23.8720 C   0  0  0  0  0  0  0  0  0  0  0  0
   -0.2440    2.9870   23.1580 C   0  0  0  0  0  0  0  0  0  0  0  0
    0.7440    4.5830   24.8550 C   0  0  0  0  0  0  0  0  0  0  0  0
   -1.4940    3.3600   23.5000 C   0  0  0  0  0  0  0  0  0  0  0  0
   -0.6970    4.9750   25.2070 C   0  0  0  0  0  0  0  0  0  0  0  0
   -1.7970    4.3810   24.5490 C   0  0  0  0  0  0  0  0  0  0  0  0
  1  2  2  3
  1  3  1  0
  3  4  2  0
  3  5  1  0
  4  6  1  0
  5  7  2  0
  6  8  2  0
  7  8  1  0
  8  9  1  0
  9 10  1  0
 10 11  1  0
 11 12  2  0
 11 13  1  0
 12 14  1  0
 13 15  2  0
 14 16  2  0
 15 16  1  0
 15 17  1  0
 17 18  1  0
 18 19  2  0
 18 20  1  0
 20 21  1  0
 21 22  2  0
 21 23  1  0
 22 24  1  0
 23 25  2  0
 24 26  2  0
 25 26  1  0
M  END
