MAK-UNK-ec98eaf6-46-nitrile
     RDKit          3D

 24 27  0  0  0  0  0  0  0  0999 V2000
    6.7310   -3.5270   19.8110 C   0  0  0  0  0  0  0  0  0  0  0  0
    5.7910   -3.2440   19.0120 N   0  0  0  0  0  0  0  0  0  0  0  0
    6.8820   -2.8700   21.0190 N   0  0  0  0  0  0  0  0  0  0  0  0
    6.4500   -3.3360   22.3400 C   0  0  2  0  0  0  0  0  0  0  0  0
    7.0460   -1.5210   21.1640 C   0  0  2  0  0  0  0  0  0  0  0  0
    6.3970   -2.0870   23.1430 C   0  0  0  0  0  0  0  0  0  0  0  0
    7.6550   -1.4820   22.5790 C   0  0  1  0  0  0  0  0  0  0  0  0
    5.6030   -0.9870   21.2510 C   0  0  0  0  0  0  0  0  0  0  0  0
    7.7030   -3.8430   23.0620 C   0  0  0  0  0  0  0  0  0  0  0  0
    5.3510    0.0140   20.1230 C   0  0  0  0  0  0  0  0  0  0  0  0
    8.5680   -2.6100   22.9750 N   0  0  0  0  0  0  0  0  0  0  0  0
    6.2330    0.1130   18.9070 C   0  0  0  0  0  0  0  0  0  0  0  0
    4.2480    0.8860   20.2180 C   0  0  0  0  0  0  0  0  0  0  0  0
    9.3010   -2.3950   24.1150 C   0  0  0  0  0  0  0  0  0  0  0  0
    5.8610    1.1470   17.8860 C   0  0  0  0  0  0  0  0  0  0  0  0
    3.9690    1.8260   19.2180 C   0  0  0  0  0  0  0  0  0  0  0  0
   10.4330   -1.4570   23.8540 C   0  0  0  0  0  0  0  0  0  0  0  0
    4.7530    1.9620   18.0750 C   0  0  0  0  0  0  0  0  0  0  0  0
   10.6290   -0.2960   24.5300 C   0  0  0  0  0  0  0  0  0  0  0  0
   11.3310   -1.8310   22.8300 C   0  0  0  0  0  0  0  0  0  0  0  0
   11.8260    0.5280   24.1100 C   0  0  0  0  0  0  0  0  0  0  0  0
   12.4440   -1.1140   22.4110 C   0  0  0  0  0  0  0  0  0  0  0  0
   12.7400    0.0770   23.0210 C   0  0  0  0  0  0  0  0  0  0  0  0
   13.3720   -1.7490   21.1550 Cl  0  0  0  0  0  0  0  0  0  0  0  0
  1  2  2  3
  1  3  1  0
  3  4  1  0
  3  5  1  0
  4  6  1  0
  5  7  1  0
  6  7  1  0
  5  8  1  1
  4  9  1  1
  8 10  1  0
  7 11  1  6
  9 11  1  0
 10 12  2  0
 10 13  1  0
 11 14  1  0
 12 15  1  0
 13 16  2  0
 14 17  1  0
 15 18  2  0
 16 18  1  0
 17 19  2  0
 17 20  1  0
 19 21  1  0
 20 22  2  0
 21 23  2  0
 22 23  1  0
 22 24  1  0
M  END
