MAK-UNK-987948f6-9-vinylsulfonamide
     RDKit          3D

 20 21  0  0  0  0  0  0  0  0999 V2000
    6.1760   -4.6750   20.5930 C   0  0  0  0  0  0  0  0  0  0  0  0
    5.7440   -3.4530   21.4340 C   0  0  0  0  0  0  0  0  0  0  0  0
    4.9630   -3.8270   23.0240 S   0  0  0  0  0  0  0  0  0  0  0  0
    3.5830   -4.0990   22.7620 O   0  0  0  0  0  0  0  0  0  0  0  0
    5.3290   -2.7780   23.9480 O   0  0  0  0  0  0  0  0  0  0  0  0
    5.5450   -5.2590   23.6640 N   0  0  0  0  0  0  0  0  0  0  0  0
    6.2050   -6.2300   22.7830 C   0  0  0  0  0  0  0  0  0  0  0  0
    6.0700   -5.1800   25.0860 C   0  0  1  0  0  0  0  0  0  0  0  0
    7.5860   -6.0430   22.8570 C   0  0  0  0  0  0  0  0  0  0  0  0
    7.4500   -4.9190   25.0700 C   0  0  0  0  0  0  0  0  0  0  0  0
    5.2220   -4.1970   25.9090 C   0  0  0  0  0  0  0  0  0  0  0  0
    8.0240   -4.8970   23.7100 N   0  0  0  0  0  0  0  0  0  0  0  0
    4.5990   -3.4730   26.5750 N   0  0  0  0  0  0  0  0  0  0  0  0
    8.1340   -3.5760   23.0300 C   0  0  0  0  0  0  0  0  0  0  0  0
    7.1630   -3.0520   22.5040 O   0  0  0  0  0  0  0  0  0  0  0  0
    9.3810   -2.9200   23.0390 C   0  0  0  0  0  0  0  0  0  0  0  0
   10.4890   -3.3160   23.7830 C   0  0  0  0  0  0  0  0  0  0  0  0
    9.7100   -1.7690   22.3080 O   0  0  0  0  0  0  0  0  0  0  0  0
   11.5210   -2.4570   23.5580 C   0  0  0  0  0  0  0  0  0  0  0  0
   11.0190   -1.4290   22.5830 C   0  0  0  0  0  0  0  0  0  0  0  0
  1  2  1  0
  3  2  1  0
  3  4  2  0
  3  5  2  0
  3  6  1  0
  6  7  1  0
  6  8  1  0
  7  9  1  0
  8 10  1  0
  8 11  1  1
  9 12  1  0
 10 12  1  0
 11 13  3  0
 12 14  1  0
 14 15  2  0
 14 16  1  0
 16 17  2  0
 16 18  1  0
 17 19  1  0
 18 20  1  0
 19 20  2  0
M  END
