MAK-UNK-8fdbca50-31-nitrile
     RDKit          3D

 38 41  0  0  0  0  0  0  0  0999 V2000
    7.1570   -3.2650   19.6200 C   0  0  0  0  0  0  0  0  0  0  0  0
    5.9930   -3.8080   19.5360 N   0  0  0  0  0  0  0  0  0  0  0  0
    7.3830   -2.0630   20.2930 N   0  0  0  0  0  0  0  0  0  0  0  0
    7.9960   -2.0380   21.6250 C   0  0  0  0  0  0  0  0  0  0  0  0
    6.8310   -0.7570   19.8850 C   0  0  0  0  0  0  0  0  0  0  0  0
    8.8890   -0.8000   21.7670 C   0  0  0  0  0  0  0  0  0  0  0  0
    6.7330    0.1080   21.0130 C   0  0  0  0  0  0  0  0  0  0  0  0
    8.0990    0.4750   21.6650 C   0  0  0  0  0  0  0  0  0  0  0  0
    7.9150    1.2350   22.8730 C   0  0  0  0  0  0  0  0  0  0  0  0
    6.9950    2.0400   22.9940 O   0  0  0  0  0  0  0  0  0  0  0  0
    8.9770    0.9390   23.9490 N   0  0  0  0  0  0  0  0  0  0  0  0
    9.9720   -0.0310   23.5100 C   0  0  0  0  0  0  0  0  0  0  0  0
    8.8820    1.1490   25.4030 C   0  0  0  0  0  0  0  0  0  0  0  0
   11.1370    0.4460   22.9360 C   0  0  0  0  0  0  0  0  0  0  0  0
    9.6770   -1.4040   23.6820 C   0  0  0  0  0  0  0  0  0  0  0  0
    7.6170    1.5770   25.7880 C   0  0  0  0  0  0  0  0  0  0  0  0
    9.2600   -0.1120   26.2000 C   0  0  0  0  0  0  0  0  0  0  0  0
   12.1180   -0.5570   22.4570 C   0  0  0  0  0  0  0  0  0  0  0  0
   10.6130   -2.3610   23.1980 C   0  0  0  0  0  0  0  0  0  0  0  0
    8.4440   -1.6920   24.3480 C   0  0  0  0  0  0  0  0  0  0  0  0
   11.8260   -1.9300   22.5880 C   0  0  0  0  0  0  0  0  0  0  0  0
   10.3770   -3.6600   23.3170 F   0  0  0  0  0  0  0  0  0  0  0  0
    7.2830   -0.7850   24.5750 C   0  0  0  0  0  0  0  0  0  0  0  0
    8.0910   -2.8750   24.9290 N   0  0  0  0  0  0  0  0  0  0  0  0
    6.3190   -1.4660   25.2850 C   0  0  0  0  0  0  0  0  0  0  0  0
    6.8730   -2.7720   25.4840 C   0  0  0  0  0  0  0  0  0  0  0  0
    8.8410   -4.3910   25.0820 S   0  0  0  0  0  0  0  0  0  0  0  0
    5.0880   -0.9510   25.6970 C   0  0  0  0  0  0  0  0  0  0  0  0
    8.6960   -4.8080   26.4580 O   0  0  0  0  0  0  0  0  0  0  0  0
   10.1140   -4.3710   24.4140 O   0  0  0  0  0  0  0  0  0  0  0  0
    7.6610   -5.2120   24.0910 C   0  0  0  0  0  0  0  0  0  0  0  0
    4.7210   -1.1650   27.0230 N   0  0  0  0  0  0  0  0  0  0  0  0
    7.9660   -6.3230   23.3430 C   0  0  0  0  0  0  0  0  0  0  0  0
    6.3550   -4.7250   24.0570 C   0  0  0  0  0  0  0  0  0  0  0  0
    5.8620   -1.2630   27.7750 C   0  0  0  0  0  0  0  0  0  0  0  0
    6.9590   -6.9080   22.6020 C   0  0  0  0  0  0  0  0  0  0  0  0
    5.3530   -5.2820   23.3280 N   0  0  0  0  0  0  0  0  0  0  0  0
    5.6800   -6.3660   22.6140 C   0  0  0  0  0  0  0  0  0  0  0  0
  1  2  2  3
  1  3  1  0
  3  4  1  0
  3  5  1  0
  4  6  1  0
  5  7  1  0
  6  8  1  0
  7  8  1  0
  8  9  1  0
  9 10  2  0
  9 11  1  0
 11 12  1  0
 11 13  1  0
 12 14  2  0
 12 15  1  0
 13 16  1  0
 13 17  1  0
 14 18  1  0
 15 19  2  0
 15 20  1  0
 18 21  2  0
 19 21  1  0
 19 22  1  0
 20 23  2  0
 20 24  1  0
 23 25  1  0
 24 26  1  0
 25 26  2  0
 24 27  1  0
 25 28  1  0
 27 29  2  0
 27 30  2  0
 27 31  1  0
 28 32  1  0
 31 33  2  0
 31 34  1  0
 32 35  1  0
 33 36  1  0
 34 37  2  0
 36 38  2  0
 37 38  1  0
M  END
