MAK-UNK-e05327b2-8-nitrile
     RDKit          3D

 27 30  0  0  0  0  0  0  0  0999 V2000
    6.4570   -4.4010   20.2650 C   0  0  0  0  0  0  0  0  0  0  0  0
    5.3790   -3.9960   19.7300 N   0  0  0  0  0  0  0  0  0  0  0  0
    6.5330   -5.0640   21.4930 N   0  0  0  0  0  0  0  0  0  0  0  0
    5.7440   -6.2780   21.8080 C   0  0  0  0  0  0  0  0  0  0  0  0
    7.2780   -4.5880   22.5950 C   0  0  0  0  0  0  0  0  0  0  0  0
    4.8620   -5.8430   23.0200 C   0  0  0  0  0  0  0  0  0  0  0  0
    6.5800   -4.2800   23.7770 C   0  0  0  0  0  0  0  0  0  0  0  0
    5.7270   -5.4170   24.1520 N   0  0  0  0  0  0  0  0  0  0  0  0
    5.0130   -5.3610   25.7050 S   0  0  0  0  0  0  0  0  0  0  0  0
    4.0030   -6.3960   25.7500 O   0  0  0  0  0  0  0  0  0  0  0  0
    6.0600   -5.3200   26.6940 O   0  0  0  0  0  0  0  0  0  0  0  0
    4.1040   -3.8470   25.8700 C   0  0  0  0  0  0  0  0  0  0  0  0
    4.5880   -2.4300   26.2170 C   0  0  0  0  0  0  0  0  0  0  0  0
    2.3980   -3.9570   25.6080 S   0  0  0  0  0  0  0  0  0  0  0  0
    3.3930   -1.4720   26.2360 C   0  0  0  0  0  0  0  0  0  0  0  0
    2.1500   -2.2910   25.9010 C   0  0  0  0  0  0  0  0  0  0  0  0
    0.8820   -1.4330   25.8870 C   0  0  0  0  0  0  0  0  0  0  0  0
    0.1770   -1.4220   27.2480 C   0  0  0  0  0  0  0  0  0  0  0  0
   -0.1280   -2.5380   28.0580 C   0  0  0  0  0  0  0  0  0  0  0  0
   -0.2650   -0.0420   27.8290 C   0  0  0  0  0  0  0  0  0  0  0  0
   -0.7750   -2.4280   29.2840 C   0  0  0  0  0  0  0  0  0  0  0  0
   -0.9220   -0.0280   29.0930 C   0  0  0  0  0  0  0  0  0  0  0  0
   -0.0350    1.1720   27.1450 C   0  0  0  0  0  0  0  0  0  0  0  0
   -1.1600   -1.2040   29.7840 C   0  0  0  0  0  0  0  0  0  0  0  0
   -1.3500    1.2870   29.6580 C   0  0  0  0  0  0  0  0  0  0  0  0
   -0.4270    2.4290   27.6520 C   0  0  0  0  0  0  0  0  0  0  0  0
   -1.0750    2.5170   28.8840 C   0  0  0  0  0  0  0  0  0  0  0  0
  1  2  2  3
  1  3  1  0
  3  4  1  0
  3  5  1  0
  4  6  1  0
  5  7  1  0
  6  8  1  0
  7  8  1  0
  8  9  1  0
  9 10  2  0
  9 11  2  0
  9 12  1  0
 12 13  2  0
 12 14  1  0
 13 15  1  0
 14 16  1  0
 15 16  2  0
 16 17  1  0
 17 18  1  0
 18 19  2  0
 18 20  1  0
 19 21  1  0
 20 22  2  0
 20 23  1  0
 21 24  2  0
 22 24  1  0
 22 25  1  0
 23 26  2  0
 25 27  2  0
 26 27  1  0
M  END
