MAK-UNK-7c9d1431-28-chloroacetamide
     RDKit          3D

 15 16  0  0  0  0  0  0  0  0999 V2000
    6.9990   -3.4520   19.7940 C   0  0  0  0  0  0  0  0  0  0  0  0
    6.3170   -4.5760   20.5410 C   0  0  0  0  0  0  0  0  0  0  0  0
    5.3730   -5.1540   20.0230 O   0  0  0  0  0  0  0  0  0  0  0  0
    6.8050   -4.9410   21.7800 N   0  0  0  0  0  0  0  0  0  0  0  0
    6.3510   -6.1830   22.3990 C   0  0  0  0  0  0  0  0  0  0  0  0
    7.2790   -3.9240   22.7210 C   0  0  0  0  0  0  0  0  0  0  0  0
    5.2580   -5.8680   23.4360 C   0  0  0  0  0  0  0  0  0  0  0  0
    6.3550   -3.7400   23.9360 C   0  0  0  0  0  0  0  0  0  0  0  0
    5.8350   -5.0220   24.4780 N   0  0  0  0  0  0  0  0  0  0  0  0
    5.0760   -4.8580   25.7390 C   0  0  0  0  0  0  0  0  0  0  0  0
    4.1740   -3.5970   25.7820 C   0  0  0  0  0  0  0  0  0  0  0  0
    2.6590   -3.6880   25.5020 C   0  0  0  0  0  0  0  0  0  0  0  0
    4.6180   -2.2550   26.0770 O   0  0  0  0  0  0  0  0  0  0  0  0
    2.2180   -2.2440   25.6640 C   0  0  0  0  0  0  0  0  0  0  0  0
    3.4870   -1.4760   26.0060 C   0  0  0  0  0  0  0  0  0  0  0  0
  1  2  1  0
  2  3  2  0
  2  4  1  0
  4  5  1  0
  4  6  1  0
  5  7  1  0
  6  8  1  0
  7  9  1  0
  8  9  1  0
  9 10  1  0
 10 11  1  0
 11 12  2  0
 11 13  1  0
 12 14  1  0
 13 15  1  0
 14 15  2  0
M  END
