MAK-UNK-ec98eaf6-35-acrylamide
     RDKit          3D

 26 29  0  0  0  0  0  0  0  0999 V2000
    7.5820   -2.9220   18.5760 C   0  0  0  0  0  0  0  0  0  0  0  0
    6.6750   -2.5170   19.7220 C   0  0  0  0  0  0  0  0  0  0  0  0
    6.1250   -3.6470   20.5560 C   0  0  0  0  0  0  0  0  0  0  0  0
    5.2670   -4.4550   20.1410 O   0  0  0  0  0  0  0  0  0  0  0  0
    6.7000   -3.6880   21.7980 N   0  0  0  0  0  0  0  0  0  0  0  0
    7.8080   -2.7570   22.1040 C   0  0  0  0  0  0  0  0  0  0  0  0
    6.0470   -3.9860   23.0920 C   0  0  2  0  0  0  0  0  0  0  0  0
    7.5110   -2.5930   23.5440 C   0  0  1  0  0  0  0  0  0  0  0  0
    6.1070   -2.6210   23.7690 C   0  0  0  0  0  0  0  0  0  0  0  0
    6.9550   -4.7740   23.7350 C   0  0  0  0  0  0  0  0  0  0  0  0
    8.0160   -3.9620   24.1340 C   0  0  1  0  0  0  0  0  0  0  0  0
    9.3020   -4.3140   23.6050 C   0  0  0  0  0  0  0  0  0  0  0  0
   10.3530   -3.2160   23.4760 C   0  0  0  0  0  0  0  0  0  0  0  0
   10.4580   -2.6170   24.8230 C   0  0  0  0  0  0  0  0  0  0  0  0
   11.0770   -2.8380   22.3500 C   0  0  0  0  0  0  0  0  0  0  0  0
   11.4910   -1.5050   24.8110 C   0  0  0  0  0  0  0  0  0  0  0  0
   12.0380   -1.8390   22.3470 C   0  0  0  0  0  0  0  0  0  0  0  0
   12.2600   -1.1570   23.5460 C   0  0  0  0  0  0  0  0  0  0  0  0
   12.7570   -1.5010   21.1570 C   0  0  0  0  0  0  0  0  0  0  0  0
   13.1490   -0.2000   23.5310 C   0  0  0  0  0  0  0  0  0  0  0  0
   13.7200   -0.3800   21.0960 C   0  0  0  0  0  0  0  0  0  0  0  0
   13.8090    0.1420   22.3840 C   0  0  0  0  0  0  0  0  0  0  0  0
   14.7200    0.4420   19.5510 S   0  0  0  0  0  0  0  0  0  0  0  0
   14.6870    2.1330   19.3750 N   0  0  0  0  0  0  0  0  0  0  0  0
   16.0620    0.7780   19.5730 O   0  0  0  0  0  0  0  0  0  0  0  0
   14.2430   -0.0650   18.3360 O   0  0  0  0  0  0  0  0  0  0  0  0
  1  2  1  0
  2  3  1  0
  3  4  2  0
  3  5  1  0
  5  6  1  0
  5  7  1  0
  8  6  1  6
  7  9  1  0
  8  9  1  0
  7 10  1  1
  8 11  1  0
 10 11  1  0
 11 12  1  6
 12 13  1  0
 13 14  2  0
 13 15  1  0
 14 16  1  0
 15 17  2  0
 16 18  2  0
 17 18  1  0
 17 19  1  0
 18 20  1  0
 19 21  2  0
 20 22  2  0
 21 22  1  0
 21 23  1  0
 23 24  1  0
 23 25  2  0
 23 26  2  0
M  END
