MAK-UNK-10dfa458-8-chloroacetamide
     RDKit          3D

 22 24  0  0  0  0  0  0  0  0999 V2000
    7.1550   -3.4510   20.0270 C   0  0  0  0  0  0  0  0  0  0  0  0
    6.2390   -4.5310   20.5670 C   0  0  0  0  0  0  0  0  0  0  0  0
    5.2570   -4.8850   19.9530 O   0  0  0  0  0  0  0  0  0  0  0  0
    6.5180   -5.1570   21.7960 N   0  0  0  0  0  0  0  0  0  0  0  0
    7.2200   -4.5130   22.9090 C   0  0  0  0  0  0  0  0  0  0  0  0
    5.5830   -6.1870   22.2190 C   0  0  0  0  0  0  0  0  0  0  0  0
    6.2910   -3.9730   24.0110 C   0  0  0  0  0  0  0  0  0  0  0  0
    4.6350   -5.6450   23.2900 C   0  0  0  0  0  0  0  0  0  0  0  0
    5.3110   -4.9720   24.4310 N   0  0  0  0  0  0  0  0  0  0  0  0
    4.5560   -4.9500   25.5960 C   0  0  0  0  0  0  0  0  0  0  0  0
    3.5120   -3.8840   25.6840 C   0  0  0  0  0  0  0  0  0  0  0  0
    3.8160   -2.4510   26.1560 C   0  0  0  0  0  0  0  0  0  0  0  0
    2.2130   -4.1920   25.3370 C   0  0  0  0  0  0  0  0  0  0  0  0
    2.6200   -1.6160   26.1680 N   0  0  0  0  0  0  0  0  0  0  0  0
    1.2830   -3.4710   25.3660 N   0  0  0  0  0  0  0  0  0  0  0  0
    1.4050   -2.1810   25.7720 C   0  0  0  0  0  0  0  0  0  0  0  0
    0.2110   -1.4540   25.7660 C   0  0  0  0  0  0  0  0  0  0  0  0
   -0.9860   -1.9560   25.2510 C   0  0  0  0  0  0  0  0  0  0  0  0
    0.1440   -0.1530   26.2860 C   0  0  0  0  0  0  0  0  0  0  0  0
   -2.1950   -1.2650   25.2250 C   0  0  0  0  0  0  0  0  0  0  0  0
   -1.0390    0.5990   26.2930 C   0  0  0  0  0  0  0  0  0  0  0  0
   -2.1950    0.0260   25.7590 C   0  0  0  0  0  0  0  0  0  0  0  0
  1  2  1  0
  2  3  2  0
  2  4  1  0
  4  5  1  0
  4  6  1  0
  5  7  1  0
  6  8  1  0
  7  9  1  0
  8  9  1  0
  9 10  1  0
 10 11  1  0
 11 12  2  0
 11 13  1  0
 12 14  1  0
 13 15  2  0
 14 16  2  0
 15 16  1  0
 16 17  1  0
 17 18  2  0
 17 19  1  0
 18 20  1  0
 19 21  2  0
 20 22  2  0
 21 22  1  0
M  END
