MAK-UNK-f983951f-22-bromoalkyne
     RDKit          3D

 14 14  0  0  0  0  0  0  0  0999 V2000
    6.6620   -4.4400   20.1340 C   0  0  0  0  0  0  0  0  0  0  0  0
    6.0280   -5.7710   19.9730 C   0  0  0  0  0  0  0  0  0  0  0  0
    6.0980   -3.5190   20.9470 N   0  0  0  0  0  0  0  0  0  0  0  0
    5.9680   -3.6290   22.4050 C   0  0  2  0  0  0  0  0  0  0  0  0
    4.4540   -3.7470   22.5660 C   0  0  0  0  0  0  0  0  0  0  0  0
    6.6690   -2.5530   22.9610 C   0  0  0  0  0  0  0  0  0  0  0  0
    3.8000   -3.4810   23.9230 C   0  0  0  0  0  0  0  0  0  0  0  0
    7.3310   -2.7920   24.2960 C   0  0  0  0  0  0  0  0  0  0  0  0
    6.7530   -1.4560   22.4030 O   0  0  0  0  0  0  0  0  0  0  0  0
    3.7430   -4.7960   24.6650 C   0  0  0  0  0  0  0  0  0  0  0  0
    3.2940   -2.2750   24.4500 C   0  0  0  0  0  0  0  0  0  0  0  0
    3.0980   -4.7530   26.0340 C   0  0  0  0  0  0  0  0  0  0  0  0
    2.6940   -2.2620   25.6960 C   0  0  0  0  0  0  0  0  0  0  0  0
    2.5680   -3.3920   26.4930 C   0  0  0  0  0  0  0  0  0  0  0  0
  1  2  2  3
  1  3  1  0
  3  4  1  0
  4  5  1  6
  4  6  1  0
  5  7  1  0
  6  8  1  0
  6  9  2  0
  7 10  2  0
  7 11  1  0
 10 12  1  0
 11 13  2  0
 12 14  2  0
 13 14  1  0
M  END
