MAK-UNK-8fdbca50-6-vinylsulfonamide
     RDKit          3D

 41 44  0  0  0  0  0  0  0  0999 V2000
    8.5270   -3.7960   19.9650 C   0  0  0  0  0  0  0  0  0  0  0  0
    7.5860   -4.4260   20.9890 C   0  0  0  0  0  0  0  0  0  0  0  0
    5.8690   -3.8850   20.9290 S   0  0  0  0  0  0  0  0  0  0  0  0
    5.1330   -4.3720   19.7810 O   0  0  0  0  0  0  0  0  0  0  0  0
    5.7770   -2.4990   21.3190 O   0  0  0  0  0  0  0  0  0  0  0  0
    5.2670   -4.8150   22.1870 N   0  0  0  0  0  0  0  0  0  0  0  0
    5.7510   -6.1920   22.1780 C   0  0  0  0  0  0  0  0  0  0  0  0
    5.3100   -4.2330   23.5380 C   0  0  0  0  0  0  0  0  0  0  0  0
    7.1940   -6.1260   22.5750 C   0  0  0  0  0  0  0  0  0  0  0  0
    6.5110   -4.6040   24.1710 C   0  0  0  0  0  0  0  0  0  0  0  0
    7.5140   -4.9370   23.2490 C   0  0  0  0  0  0  0  0  0  0  0  0
    8.8300   -4.7190   23.6600 C   0  0  0  0  0  0  0  0  0  0  0  0
    9.5830   -5.6350   24.0160 O   0  0  0  0  0  0  0  0  0  0  0  0
    9.1980   -3.2460   23.6040 N   0  0  0  0  0  0  0  0  0  0  0  0
    8.0820   -2.4000   23.0750 C   0  0  0  0  0  0  0  0  0  0  0  0
   10.4870   -2.8750   22.9500 C   0  0  1  0  0  0  0  0  0  0  0  0
   10.2380   -2.8350   21.5930 C   0  0  0  0  0  0  0  0  0  0  0  0
   10.9520   -1.4680   23.2410 C   0  0  0  0  0  0  0  0  0  0  0  0
   12.3850   -1.2070   22.7410 C   0  0  0  0  0  0  0  0  0  0  0  0
   10.2590   -0.4240   23.8730 C   0  0  0  0  0  0  0  0  0  0  0  0
   12.9040    0.0420   22.9660 C   0  0  0  0  0  0  0  0  0  0  0  0
   10.8670    0.7850   24.0640 C   0  0  0  0  0  0  0  0  0  0  0  0
    8.6050   -0.2670   24.5480 S   0  0  0  0  0  0  0  0  0  0  0  0
   12.2190    1.0340   23.5980 N   0  0  0  0  0  0  0  0  0  0  0  0
    7.6820   -0.1790   23.4400 O   0  0  0  0  0  0  0  0  0  0  0  0
    8.6220    0.8390   25.4770 O   0  0  0  0  0  0  0  0  0  0  0  0
    8.3170   -1.5950   25.4810 N   0  0  0  0  0  0  0  0  0  0  0  0
    7.0710   -1.9370   26.0920 C   0  0  0  0  0  0  0  0  0  0  0  0
    9.2210   -2.6380   25.8890 C   0  0  0  0  0  0  0  0  0  0  0  0
    6.9480   -3.0850   26.8560 C   0  0  0  0  0  0  0  0  0  0  0  0
    8.3780   -3.6120   26.7580 C   0  0  0  0  0  0  0  0  0  0  0  0
   10.5640   -2.7540   25.6250 C   0  0  0  0  0  0  0  0  0  0  0  0
    5.7910   -3.5160   27.4790 C   0  0  0  0  0  0  0  0  0  0  0  0
   11.2900   -1.7020   25.0710 C   0  0  0  0  0  0  0  0  0  0  0  0
   11.2810   -3.8950   25.9390 C   0  0  0  0  0  0  0  0  0  0  0  0
    5.9800   -3.3140   28.8220 N   0  0  0  0  0  0  0  0  0  0  0  0
   12.6450   -1.7650   24.8520 C   0  0  0  0  0  0  0  0  0  0  0  0
   12.6600   -3.9630   25.7330 C   0  0  0  0  0  0  0  0  0  0  0  0
   10.6550   -4.9460   26.4710 F   0  0  0  0  0  0  0  0  0  0  0  0
    6.7900   -2.2320   28.9890 C   0  0  0  0  0  0  0  0  0  0  0  0
   13.3490   -2.8810   25.1780 C   0  0  0  0  0  0  0  0  0  0  0  0
  1  2  1  0
  3  2  1  0
  3  4  2  0
  3  5  2  0
  3  6  1  0
  6  7  1  0
  6  8  1  0
  7  9  1  0
  8 10  1  0
  9 11  1  0
 10 11  1  0
 11 12  1  0
 12 13  2  0
 12 14  1  0
 14 15  1  0
 14 16  1  0
 16 17  1  6
 16 18  1  0
 18 19  2  0
 18 20  1  0
 19 21  1  0
 20 22  2  0
 23 20  1  0
 21 24  2  0
 22 24  1  0
 23 25  2  0
 23 26  2  0
 23 27  1  0
 27 28  1  0
 27 29  1  0
 28 30  2  0
 29 31  2  0
 30 31  1  0
 29 32  1  0
 30 33  1  0
 32 34  2  0
 32 35  1  0
 33 36  1  0
 34 37  1  0
 35 38  2  0
 35 39  1  0
 36 40  1  0
 37 41  2  0
 38 41  1  0
M  END
