MAK-UNK-f983951f-5-bromoalkyne
     RDKit          3D

 13 13  0  0  0  0  0  0  0  0999 V2000
    6.4220   -4.0620   19.8310 C   0  0  0  0  0  0  0  0  0  0  0  0
    5.7200   -5.3740   20.0660 C   0  0  0  0  0  0  0  0  0  0  0  0
    6.1000   -2.9770   20.5860 N   0  0  0  0  0  0  0  0  0  0  0  0
    5.4820   -3.0560   21.9080 C   0  0  0  0  0  0  0  0  0  0  0  0
    5.5790   -2.0020   22.8910 O   0  0  0  0  0  0  0  0  0  0  0  0
    4.8400   -4.0730   22.1910 O   0  0  0  0  0  0  0  0  0  0  0  0
    5.4420   -4.9280   23.2290 C   0  0  0  0  0  0  0  0  0  0  0  0
    6.6850   -5.6150   22.6490 C   0  0  0  0  0  0  0  0  0  0  0  0
    5.3200   -6.0650   22.2720 C   0  0  0  0  0  0  0  0  0  0  0  0
    7.2800   -4.6980   23.4560 C   0  0  0  0  0  0  0  0  0  0  0  0
    4.2790   -5.2300   23.0460 C   0  0  0  0  0  0  0  0  0  0  0  0
    6.3420   -3.9280   24.1670 C   0  0  0  0  0  0  0  0  0  0  0  0
    4.9090   -4.1340   24.0180 C   0  0  0  0  0  0  0  0  0  0  0  0
  1  2  2  3
  1  3  1  0
  3  4  1  0
  4  5  2  0
  4  6  1  0
  6  7  1  0
  7  8  1  0
  8  9  2  0
  8 10  1  0
  9 11  1  0
 10 12  2  0
 11 13  2  0
 12 13  1  0
M  END
