MAK-UNK-e05327b2-2-acrylamide
     RDKit          3D

 52 58  0  0  0  0  0  0  0  0999 V2000
    7.4160   -3.1020   19.0970 C   0  0  0  0  0  0  0  0  0  0  0  0
    6.9860   -3.1330   20.5560 C   0  0  0  0  0  0  0  0  0  0  0  0
    6.1450   -4.3620   20.7360 C   0  0  0  0  0  0  0  0  0  0  0  0
    5.1960   -4.5890   19.9790 O   0  0  0  0  0  0  0  0  0  0  0  0
    6.4890   -5.2120   21.7550 N   0  0  0  0  0  0  0  0  0  0  0  0
    7.4420   -4.8360   22.8130 C   0  0  0  0  0  0  0  0  0  0  0  0
    5.6610   -6.3380   22.1420 C   0  0  0  0  0  0  0  0  0  0  0  0
    6.4970   -4.2670   23.8820 C   0  0  0  0  0  0  0  0  0  0  0  0
    4.8460   -6.0270   23.2490 C   0  0  0  0  0  0  0  0  0  0  0  0
    5.6790   -5.4240   24.3300 N   0  0  0  0  0  0  0  0  0  0  0  0
    4.9370   -5.3150   25.8480 S   0  0  0  0  0  0  0  0  0  0  0  0
    5.9770   -5.1580   26.8370 O   0  0  0  0  0  0  0  0  0  0  0  0
    3.9910   -6.4070   25.9360 O   0  0  0  0  0  0  0  0  0  0  0  0
    4.0560   -3.8430   25.9530 C   0  0  0  0  0  0  0  0  0  0  0  0
    4.6960   -2.4460   26.0770 C   0  0  0  0  0  0  0  0  0  0  0  0
    2.3210   -3.8330   25.9270 S   0  0  0  0  0  0  0  0  0  0  0  0
    3.5410   -1.4750   26.1460 C   0  0  0  0  0  0  0  0  0  0  0  0
    2.1660   -2.1220   26.0790 C   0  0  0  0  0  0  0  0  0  0  0  0
    0.9410   -1.4210   26.1370 C   0  0  0  0  0  0  0  0  0  0  0  0
   -0.1900   -2.0610   26.3790 N   0  0  0  0  0  0  0  0  0  0  0  0
   -0.5760   -2.8490   25.3070 C   0  0  0  0  0  0  0  0  0  0  0  0
   -0.2140   -2.8580   27.6280 C   0  0  0  0  0  0  0  0  0  0  0  0
   -1.5780   -3.7690   25.6340 C   0  0  0  0  0  0  0  0  0  0  0  0
   -1.6210   -3.3740   27.9880 C   0  0  0  0  0  0  0  0  0  0  0  0
   -2.4320   -3.5360   26.7390 N   0  0  0  0  0  0  0  0  0  0  0  0
   -3.7090   -4.6680   26.9170 S   0  0  0  0  0  0  0  0  0  0  0  0
   -4.8660   -3.9000   27.3230 O   0  0  0  0  0  0  0  0  0  0  0  0
   -3.2180   -5.7750   27.7060 O   0  0  0  0  0  0  0  0  0  0  0  0
   -3.9810   -5.2910   25.2590 C   0  0  0  0  0  0  0  0  0  0  0  0
   -3.5240   -6.6810   24.9200 C   0  0  0  0  0  0  0  0  0  0  0  0
   -4.6250   -4.4920   24.2500 C   0  0  0  0  0  0  0  0  0  0  0  0
   -3.7410   -7.2150   23.5580 C   0  0  0  0  0  0  0  0  0  0  0  0
   -4.8250   -5.0300   22.9360 C   0  0  0  0  0  0  0  0  0  0  0  0
   -5.0930   -3.1940   24.4310 C   0  0  0  0  0  0  0  0  0  0  0  0
   -4.4150   -6.3230   22.5740 C   0  0  0  0  0  0  0  0  0  0  0  0
   -5.4560   -4.2530   21.9410 C   0  0  0  0  0  0  0  0  0  0  0  0
   -5.7270   -2.4000   23.4540 C   0  0  0  0  0  0  0  0  0  0  0  0
   -5.9110   -2.9510   22.1770 C   0  0  0  0  0  0  0  0  0  0  0  0
   -6.1330   -1.1160   23.8230 C   0  0  0  0  0  0  0  0  0  0  0  0
   -6.5270   -2.2660   21.1320 C   0  0  0  0  0  0  0  0  0  0  0  0
   -7.4310   -1.1410   24.3480 C   0  0  0  0  0  0  0  0  0  0  0  0
   -7.6830   -2.9500   20.7240 C   0  0  0  0  0  0  0  0  0  0  0  0
   -7.8420   -2.0700   25.2900 C   0  0  0  0  0  0  0  0  0  0  0  0
   -8.4780   -0.2900   24.0360 C   0  0  0  0  0  0  0  0  0  0  0  0
   -8.1110   -3.9040   21.6530 C   0  0  0  0  0  0  0  0  0  0  0  0
   -9.1590   -1.9620   25.7090 C   0  0  0  0  0  0  0  0  0  0  0  0
   -9.9170   -0.6560   24.9020 S   0  0  0  0  0  0  0  0  0  0  0  0
   -8.6490   -3.6190   22.8960 C   0  0  0  0  0  0  0  0  0  0  0  0
   -8.0580   -5.6410   21.4450 S   0  0  0  0  0  0  0  0  0  0  0  0
   -8.9860   -4.7490   23.6150 C   0  0  0  0  0  0  0  0  0  0  0  0
   -8.7340   -5.9310   22.9780 C   0  0  0  0  0  0  0  0  0  0  0  0
   -9.0190   -7.5230   23.5490 Cl  0  0  0  0  0  0  0  0  0  0  0  0
  1  2  1  0
  2  3  1  0
  3  4  2  0
  3  5  1  0
  5  6  1  0
  5  7  1  0
  6  8  1  0
  7  9  1  0
  8 10  1  0
  9 10  1  0
 10 11  1  0
 11 12  2  0
 11 13  2  0
 11 14  1  0
 14 15  2  0
 14 16  1  0
 15 17  1  0
 16 18  1  0
 17 18  2  0
 18 19  1  0
 19 20  1  0
 20 21  1  0
 20 22  1  0
 21 23  1  0
 22 24  1  0
 23 25  1  0
 24 25  1  0
 25 26  1  0
 26 27  2  0
 26 28  2  0
 26 29  1  0
 29 30  2  0
 29 31  1  0
 30 32  1  0
 31 33  2  0
 31 34  1  0
 32 35  2  0
 33 35  1  0
 33 36  1  0
 34 37  2  0
 36 38  2  0
 37 38  1  0
 37 39  1  0
 38 40  1  0
 39 41  1  0
 40 42  1  0
 41 43  1  0
 41 44  2  0
 42 45  1  0
 43 46  2  0
 44 47  1  0
 46 47  1  0
 45 48  2  0
 45 49  1  0
 48 50  1  0
 49 51  1  0
 50 51  2  0
 51 52  1  0
M  END
