MAK-UNK-51bb34f9-2-acrylamide
     RDKit          3D

 28 29  0  0  0  0  0  0  0  0999 V2000
    6.5810   -3.5010   19.4990 C   0  0  0  0  0  0  0  0  0  0  0  0
    6.6060   -2.4160   20.5680 C   0  0  0  0  0  0  0  0  0  0  0  0
    5.9400   -2.9380   21.8200 C   0  0  0  0  0  0  0  0  0  0  0  0
    5.0240   -3.8060   21.6960 O   0  0  0  0  0  0  0  0  0  0  0  0
    6.2260   -2.4240   23.2350 C   0  0  0  0  0  0  0  0  0  0  0  0
    7.0350   -1.8040   24.4780 C   0  0  0  0  0  0  0  0  0  0  0  0
    7.4670   -2.0460   23.2730 C   0  0  0  0  0  0  0  0  0  0  0  0
    8.3160   -1.1950   25.2110 N   0  0  0  0  0  0  0  0  0  0  0  0
    6.9740   -1.7820   24.6170 C   0  0  0  0  0  0  0  0  0  0  0  0
    8.1090   -2.1570   22.2890 N   0  0  0  0  0  0  0  0  0  0  0  0
    7.2830   -1.3170   25.8390 C   0  0  0  0  0  0  0  0  0  0  0  0
    9.5400   -1.7680   22.4710 C   0  0  0  0  0  0  0  0  0  0  0  0
    6.7910   -1.0880   27.0820 N   0  0  0  0  0  0  0  0  0  0  0  0
   10.5000   -2.4480   22.1190 O   0  0  0  0  0  0  0  0  0  0  0  0
    9.8380   -0.4790   23.1280 C   0  0  1  0  0  0  0  0  0  0  0  0
    6.1540   -2.1780   27.3660 C   0  0  0  0  0  0  0  0  0  0  0  0
   11.1360   -0.0180   22.9030 C   0  0  0  0  0  0  0  0  0  0  0  0
    8.8710    0.4540   23.0100 N   0  0  0  0  0  0  0  0  0  0  0  0
    4.8550   -2.2400   26.6520 C   0  0  0  0  0  0  0  0  0  0  0  0
    8.3660    0.8450   21.8230 C   0  0  0  0  0  0  0  0  0  0  0  0
    8.9780    1.9470   21.1560 O   0  0  0  0  0  0  0  0  0  0  0  0
    7.2700    0.1500   21.3490 N   0  0  0  0  0  0  0  0  0  0  0  0
    6.5510    0.5110   20.1430 C   0  0  0  0  0  0  0  0  0  0  0  0
    5.3350    1.4730   20.3830 C   0  0  0  0  0  0  0  0  0  0  0  0
    6.8670    0.0370   18.6740 C   0  0  0  0  0  0  0  0  0  0  0  0
    4.3350    2.0660   19.3150 C   0  0  0  0  0  0  0  0  0  0  0  0
    6.2010    0.4170   17.8480 N   0  0  0  0  0  0  0  0  0  0  0  0
    5.3420    1.1970   18.6550 C   0  0  0  0  0  0  0  0  0  0  0  0
  1  2  1  0
  2  3  1  0
  3  4  2  0
  3  5  1  0
  5  6  2  0
  5  7  1  0
  6  8  1  0
  7  9  2  0
  7 10  1  0
  8 11  2  0
  9 11  1  0
 10 12  1  0
 11 13  1  0
 12 14  2  0
 12 15  1  0
 13 16  1  0
 15 17  1  6
 15 18  1  0
 16 19  1  0
 18 20  1  0
 20 21  2  0
 20 22  1  0
 22 23  1  0
 23 24  2  0
 23 25  1  0
 24 26  1  0
 25 27  2  0
 26 28  2  0
 27 28  1  0
M  END
