MAK-UNK-f0bfc2e0-3
     RDKit          3D

 28 30  0  0  0  0  0  0  0  0999 V2000
    6.5790   -5.2480   26.6030 C   0  0  0  0  0  0  0  0  0  0  0  0
    8.2020   -4.6030   26.3120 S   0  0  0  0  0  0  0  0  0  0  0  0
    8.5740   -3.8430   27.4700 O   0  0  0  0  0  0  0  0  0  0  0  0
    9.0430   -5.6470   25.7910 O   0  0  0  0  0  0  0  0  0  0  0  0
    7.9630   -3.4730   25.0870 N   0  0  0  0  0  0  0  0  0  0  0  0
    9.0220   -3.2890   24.0840 C   0  0  0  0  0  0  0  0  0  0  0  0
    9.0110   -1.9180   23.3760 C   0  0  2  0  0  0  0  0  0  0  0  0
    8.4520   -2.0550   22.0220 N   0  0  0  0  0  0  0  0  0  0  0  0
   10.3710   -1.2780   23.2650 C   0  0  0  0  0  0  0  0  0  0  0  0
    7.7240   -1.0180   21.4050 C   0  0  0  0  0  0  0  0  0  0  0  0
   10.7410   -0.0440   24.0190 C   0  0  0  0  0  0  0  0  0  0  0  0
   11.3300   -1.8620   22.4110 C   0  0  0  0  0  0  0  0  0  0  0  0
    6.4690   -1.3650   20.6120 C   0  0  0  0  0  0  0  0  0  0  0  0
    8.0900    0.3560   21.4680 C   0  0  0  0  0  0  0  0  0  0  0  0
   12.1100    0.5900   23.8710 C   0  0  0  0  0  0  0  0  0  0  0  0
   12.7290   -1.2730   22.2240 C   0  0  0  0  0  0  0  0  0  0  0  0
    5.7230   -0.2650   19.9540 C   0  0  0  0  0  0  0  0  0  0  0  0
    7.3060    1.3510   20.7990 C   0  0  0  0  0  0  0  0  0  0  0  0
    9.2360    0.7490   22.1960 O   0  0  0  0  0  0  0  0  0  0  0  0
   13.1300   -0.0090   22.9690 C   0  0  0  0  0  0  0  0  0  0  0  0
    6.1420    1.0610   20.0500 C   0  0  0  0  0  0  0  0  0  0  0  0
    9.4790    2.1020   22.3940 C   0  0  0  0  0  0  0  0  0  0  0  0
    5.5210    1.9530   19.5020 O   0  0  0  0  0  0  0  0  0  0  0  0
    8.5060    3.1290   22.4300 C   0  0  0  0  0  0  0  0  0  0  0  0
   10.8720    2.5740   22.5870 C   0  0  0  0  0  0  0  0  0  0  0  0
    8.8710    4.5890   22.6410 C   0  0  0  0  0  0  0  0  0  0  0  0
   11.3590    3.9310   22.7950 N   0  0  0  0  0  0  0  0  0  0  0  0
   10.3220    4.9660   22.8190 C   0  0  0  0  0  0  0  0  0  0  0  0
  1  2  1  0
  2  3  2  0
  2  4  2  0
  2  5  1  0
  5  6  1  0
  7  6  1  6
  7  8  1  0
  7  9  1  0
  8 10  1  0
  9 11  2  0
  9 12  1  0
 10 13  2  0
 10 14  1  0
 11 15  1  0
 12 16  2  0
 13 17  1  0
 14 18  2  0
 14 19  1  0
 15 20  2  0
 16 20  1  0
 17 21  2  0
 18 21  1  0
 19 22  1  0
 21 23  1  0
 22 24  2  0
 22 25  1  0
 24 26  1  0
 25 27  2  0
 26 28  2  0
 27 28  1  0
M  END
