MAK-UNK-60abb798-6
     RDKit          3D

 22 24  0  0  0  0  0  0  0  0999 V2000
    5.5190   -2.7720   19.9300 C   0  0  0  0  0  0  0  0  0  0  0  0
    5.5840   -4.2020   20.2080 N   0  0  0  0  0  0  0  0  0  0  0  0
    6.1670   -4.5450   21.5140 C   0  0  2  0  0  0  0  0  0  0  0  0
    5.1910   -5.4720   22.2340 C   0  0  0  0  0  0  0  0  0  0  0  0
    6.5790   -3.4030   22.1850 C   0  0  0  0  0  0  0  0  0  0  0  0
    6.0800   -6.0510   23.3350 C   0  0  0  0  0  0  0  0  0  0  0  0
    7.4850   -3.7720   23.1680 C   0  0  2  0  0  0  0  0  0  0  0  0
    6.7360   -4.8240   23.9970 C   0  0  0  0  0  0  0  0  0  0  0  0
    8.1650   -2.7870   23.9090 C   0  0  2  0  0  0  0  0  0  0  0  0
    9.0020   -1.9380   23.1500 C   0  0  0  0  0  0  0  0  0  0  0  0
    8.8140   -3.2920   24.9900 O   0  0  0  0  0  0  0  0  0  0  0  0
   10.3400   -1.8540   23.5090 C   0  0  0  0  0  0  0  0  0  0  0  0
    9.9420   -3.9070   24.5990 C   0  0  2  0  0  0  0  0  0  0  0  0
   10.8420   -2.8930   24.2730 C   0  0  0  0  0  0  0  0  0  0  0  0
   11.1240   -0.7570   23.1060 C   0  0  0  0  0  0  0  0  0  0  0  0
    9.4280   -4.6470   23.3990 C   0  0  0  0  0  0  0  0  0  0  0  0
   12.1690   -2.9490   24.7180 C   0  0  0  0  0  0  0  0  0  0  0  0
   12.6230   -0.6560   23.5000 C   0  0  0  0  0  0  0  0  0  0  0  0
   10.6190    0.1360   22.4330 O   0  0  0  0  0  0  0  0  0  0  0  0
    9.4640   -6.1000   23.6610 N   0  0  0  0  0  0  0  0  0  0  0  0
   13.1480   -1.8330   24.3580 C   0  0  0  0  0  0  0  0  0  0  0  0
   13.3600    0.2650   23.1780 O   0  0  0  0  0  0  0  0  0  0  0  0
  1  2  1  0
  3  2  1  6
  3  4  1  0
  3  5  1  0
  4  6  1  0
  7  5  1  6
  6  8  1  0
  7  8  1  0
  7  9  1  0
  9 10  1  6
  9 11  1  0
 10 12  1  0
 11 13  1  0
 12 14  2  0
 13 14  1  0
 12 15  1  0
 13 16  1  6
 14 17  1  0
 15 18  2  0
 15 19  1  0
 16 20  1  0
 17 21  2  0
 18 21  1  0
 18 22  1  0
M  END
