MAK-UNK-ed378e62-14
     RDKit          3D

 15 16  0  0  0  0  0  0  0  0999 V2000
    9.0910   -2.4740   23.3620 N   0  0  0  0  0  0  0  0  0  0  0  0
    8.2690   -3.2860   23.2910 C   0  0  0  0  0  0  0  0  0  0  0  0
    7.2700   -4.2780   23.2180 C   0  0  0  0  0  0  0  0  0  0  0  0
    7.2090   -5.0630   22.1750 N   0  0  0  0  0  0  0  0  0  0  0  0
    6.4550   -4.2920   24.2900 N   0  0  0  0  0  0  0  0  0  0  0  0
    6.2060   -5.9690   22.2270 C   0  0  0  0  0  0  0  0  0  0  0  0
    5.4830   -5.1850   24.3250 C   0  0  0  0  0  0  0  0  0  0  0  0
    5.3020   -6.0710   23.3020 C   0  0  0  0  0  0  0  0  0  0  0  0
    4.5100   -5.3460   25.4040 N   0  0  0  0  0  0  0  0  0  0  0  0
    4.7670   -5.7470   26.7330 C   0  0  0  0  0  0  0  0  0  0  0  0
    5.7040   -5.0060   27.4480 C   0  0  0  0  0  0  0  0  0  0  0  0
    4.1360   -6.7980   27.2770 N   0  0  0  0  0  0  0  0  0  0  0  0
    5.9810   -5.3870   28.7680 C   0  0  0  0  0  0  0  0  0  0  0  0
    4.4450   -7.1120   28.5410 C   0  0  0  0  0  0  0  0  0  0  0  0
    5.3570   -6.4550   29.3580 N   0  0  0  0  0  0  0  0  0  0  0  0
  1  2  3  0
  2  3  1  0
  3  4  2  0
  3  5  1  0
  4  6  1  0
  5  7  2  0
  6  8  2  0
  7  8  1  0
  7  9  1  0
  9 10  1  0
 10 11  2  0
 10 12  1  0
 11 13  1  0
 12 14  2  0
 13 15  2  0
 14 15  1  0
M  END
