MAK-UNK-ec98eaf6-55-bromoalkyne
     RDKit          3D

 34 38  0  0  0  0  0  0  0  0999 V2000
    6.7280   -3.8020   19.9860 C   0  0  0  0  0  0  0  0  0  0  0  0
    5.6340   -3.1800   19.1330 C   0  0  0  0  0  0  0  0  0  0  0  0
    6.8780   -3.3760   21.3020 N   0  0  0  0  0  0  0  0  0  0  0  0
    7.5690   -2.0950   21.4570 C   0  0  0  0  0  0  0  0  0  0  0  0
    5.8280   -3.2670   22.3990 C   0  0  2  0  0  0  0  0  0  0  0  0
    6.7390   -1.3090   22.4180 C   0  0  1  0  0  0  0  0  0  0  0  0
    5.3180   -1.8380   22.1840 C   0  0  0  0  0  0  0  0  0  0  0  0
    6.5140   -3.0830   23.7610 C   0  0  0  0  0  0  0  0  0  0  0  0
    7.1410   -1.8270   23.7570 N   0  0  0  0  0  0  0  0  0  0  0  0
    7.3780   -0.8400   24.8340 C   0  0  1  0  0  0  0  0  0  0  0  0
    7.5040   -1.5030   26.1980 C   0  0  0  0  0  0  0  0  0  0  0  0
    8.5250   -0.1040   24.4680 C   0  0  0  0  0  0  0  0  0  0  0  0
    6.3640   -1.4010   27.0080 C   0  0  0  0  0  0  0  0  0  0  0  0
    8.7140    1.4120   24.7530 C   0  0  0  0  0  0  0  0  0  0  0  0
    9.5900   -0.7210   23.8070 C   0  0  0  0  0  0  0  0  0  0  0  0
    6.6890   -0.9630   28.3020 C   0  0  0  0  0  0  0  0  0  0  0  0
    9.8770    2.1090   24.3800 C   0  0  0  0  0  0  0  0  0  0  0  0
   10.7640   -0.0950   23.4270 C   0  0  0  0  0  0  0  0  0  0  0  0
    9.7000   -2.0300   23.4060 N   0  0  0  0  0  0  0  0  0  0  0  0
    5.7070   -0.4810   29.1550 C   0  0  0  0  0  0  0  0  0  0  0  0
    8.0240   -0.9980   28.7770 C   0  0  0  0  0  0  0  0  0  0  0  0
   10.9990    1.3760   23.6890 C   0  0  0  0  0  0  0  0  0  0  0  0
   11.6150   -1.1280   22.7800 C   0  0  0  0  0  0  0  0  0  0  0  0
   10.8930   -2.2520   22.7910 C   0  0  0  0  0  0  0  0  0  0  0  0
    6.1130   -0.0270   30.5070 C   0  0  0  0  0  0  0  0  0  0  0  0
    8.3850   -0.5550   30.0780 C   0  0  0  0  0  0  0  0  0  0  0  0
   12.9720   -1.0880   22.2050 C   0  0  0  0  0  0  0  0  0  0  0  0
    7.4930   -0.0320   31.0630 C   0  0  0  0  0  0  0  0  0  0  0  0
   13.0730   -2.0850   21.0800 C   0  0  0  0  0  0  0  0  0  0  0  0
    7.8960    0.3740   32.2750 C   0  0  0  0  0  0  0  0  0  0  0  0
   13.2500   -3.5320   21.3880 N   0  0  0  0  0  0  0  0  0  0  0  0
   14.1630   -4.1360   20.5560 C   0  0  0  0  0  0  0  0  0  0  0  0
   14.8390   -5.5040   20.5780 C   0  0  0  0  0  0  0  0  0  0  0  0
   14.5830   -3.4140   19.8080 O   0  0  0  0  0  0  0  0  0  0  0  0
  1  2  2  3
  1  3  1  0
  3  4  1  0
  3  5  1  0
  6  4  1  6
  5  7  1  0
  6  7  1  0
  5  8  1  1
  6  9  1  0
  8  9  1  0
  9 10  1  0
 10 11  1  1
 10 12  1  0
 11 13  1  0
 12 14  1  0
 12 15  2  0
 13 16  1  0
 14 17  2  0
 15 18  1  0
 15 19  1  0
 16 20  2  0
 16 21  1  0
 17 22  1  0
 18 22  2  0
 18 23  1  0
 19 24  1  0
 23 24  2  0
 20 25  1  0
 21 26  2  0
 23 27  1  0
 25 28  2  0
 26 28  1  0
 27 29  1  0
 28 30  1  0
 29 31  1  0
 31 32  1  0
 32 33  1  0
 32 34  2  0
M  END
