MAK-UNK-8145c7a0-6
     RDKit          3D

 26 28  0  0  0  0  0  0  0  0999 V2000
    9.1100   -5.5420   26.3490 C   0  0  0  0  0  0  0  0  0  0  0  0
    8.8280   -4.1980   25.6440 C   0  0  0  0  0  0  0  0  0  0  0  0
    8.0570   -3.2450   26.2870 N   0  0  0  0  0  0  0  0  0  0  0  0
    9.4250   -3.7990   24.0960 S   0  0  0  0  0  0  0  0  0  0  0  0
    7.9860   -2.1880   25.4440 N   0  0  0  0  0  0  0  0  0  0  0  0
    8.6370   -2.3080   24.2590 C   0  0  0  0  0  0  0  0  0  0  0  0
    8.6960   -1.2680   23.1640 C   0  0  0  0  0  0  0  0  0  0  0  0
    9.8890   -0.7150   22.9470 N   0  0  0  0  0  0  0  0  0  0  0  0
   10.9530   -1.6200   22.5490 C   0  0  0  0  0  0  0  0  0  0  0  0
   10.3230    0.0020   24.1140 C   0  0  0  0  0  0  0  0  0  0  0  0
   12.2950   -0.9150   22.3550 C   0  0  0  0  0  0  0  0  0  0  0  0
   11.2520    1.1270   23.7280 C   0  0  1  0  0  0  0  0  0  0  0  0
   13.2970   -1.5100   21.7030 F   0  0  0  0  0  0  0  0  0  0  0  0
   12.4460    0.5210   22.9280 C   0  0  0  0  0  0  0  0  0  0  0  0
   10.1440    2.3340   23.1600 S   0  0  0  0  0  0  0  0  0  0  0  0
    9.9270    2.2920   21.7460 O   0  0  0  0  0  0  0  0  0  0  0  0
    9.0430    2.3830   24.0860 O   0  0  0  0  0  0  0  0  0  0  0  0
   11.0240    3.7050   23.4810 N   0  0  0  0  0  0  0  0  0  0  0  0
   10.5280    4.9260   23.2460 C   0  0  0  0  0  0  0  0  0  0  0  0
   11.5490    5.7910   22.9050 C   0  0  0  0  0  0  0  0  0  0  0  0
   12.5920    5.1540   22.1160 C   0  0  0  0  0  0  0  0  0  0  0  0
   13.3320    5.7280   21.0770 C   0  0  0  0  0  0  0  0  0  0  0  0
   12.9340    3.6670   22.4570 C   0  0  0  0  0  0  0  0  0  0  0  0
   14.3050    5.0190   20.3830 C   0  0  0  0  0  0  0  0  0  0  0  0
   13.9070    3.0320   21.7350 C   0  0  0  0  0  0  0  0  0  0  0  0
   14.5530    3.7180   20.7330 C   0  0  0  0  0  0  0  0  0  0  0  0
  1  2  1  0
  2  3  2  0
  2  4  1  0
  3  5  1  0
  4  6  1  0
  5  6  2  0
  6  7  1  0
  7  8  1  0
  8  9  1  0
  8 10  1  0
  9 11  1  0
 10 12  1  0
 11 13  1  0
 11 14  2  0
 12 14  1  0
 12 15  1  6
 15 16  2  0
 15 17  2  0
 15 18  1  0
 18 19  1  0
 19 20  1  0
 20 21  1  0
 21 22  2  0
 21 23  1  0
 22 24  1  0
 23 25  2  0
 24 26  2  0
 25 26  1  0
M  END
