MAK-UNK-3e0761f8-2-nitrile
     RDKit          3D

 19 22  0  0  0  0  0  0  0  0999 V2000
    7.1720   -5.3690   19.9350 C   0  0  0  0  0  0  0  0  0  0  0  0
    7.4400   -6.5010   19.7170 N   0  0  0  0  0  0  0  0  0  0  0  0
    7.1860   -4.8630   21.2610 N   0  0  0  0  0  0  0  0  0  0  0  0
    7.2710   -5.5520   22.6030 C   0  0  2  0  0  0  0  0  0  0  0  0
    6.3070   -3.7310   21.4830 C   0  0  1  0  0  0  0  0  0  0  0  0
    6.0660   -4.9690   23.4050 C   0  0  0  0  0  0  0  0  0  0  0  0
    6.4320   -3.4610   22.9990 C   0  0  1  0  0  0  0  0  0  0  0  0
    8.3780   -4.7920   23.2600 C   0  0  0  0  0  0  0  0  0  0  0  0
    6.4850   -2.5890   20.8040 C   0  0  0  0  0  0  0  0  0  0  0  0
    7.8960   -3.6120   23.4600 C   0  0  0  0  0  0  0  0  0  0  0  0
    9.6640   -4.9970   23.6600 C   0  0  0  0  0  0  0  0  0  0  0  0
    7.4280   -1.6400   20.9410 N   0  0  0  0  0  0  0  0  0  0  0  0
    5.5560   -2.3240   19.8440 O   0  0  0  0  0  0  0  0  0  0  0  0
    8.4360   -2.3470   24.0320 C   0  0  0  0  0  0  0  0  0  0  0  0
   10.4280   -3.9300   24.2490 C   0  0  0  0  0  0  0  0  0  0  0  0
    7.0560   -0.6720   20.0300 N   0  0  0  0  0  0  0  0  0  0  0  0
    5.9710   -1.1310   19.4060 C   0  0  0  0  0  0  0  0  0  0  0  0
    9.9190   -2.6080   24.4830 C   0  0  0  0  0  0  0  0  0  0  0  0
    5.2980   -0.4480   18.3670 C   0  0  0  0  0  0  0  0  0  0  0  0
  1  2  2  3
  1  3  1  0
  4  3  1  6
  3  5  1  0
  4  6  1  0
  5  7  1  0
  6  7  1  0
  4  8  1  0
  5  9  1  6
  7 10  1  6
  8 10  2  0
  8 11  1  0
  9 12  2  0
  9 13  1  0
 10 14  1  0
 11 15  2  0
 12 16  1  0
 13 17  1  0
 16 17  2  0
 14 18  2  0
 15 18  1  0
 17 19  1  0
M  END
