MAK-UNK-148caf23-17-vinylsulfonamide
     RDKit          3D

 37 40  0  0  0  0  0  0  0  0999 V2000
    7.1280   -5.1560   20.5170 C   0  0  0  0  0  0  0  0  0  0  0  0
    7.2970   -4.2290   21.6500 C   0  0  0  0  0  0  0  0  0  0  0  0
    6.4780   -2.7230   21.2640 S   0  0  0  0  0  0  0  0  0  0  0  0
    4.9700   -3.2610   21.3960 O   0  0  0  0  0  0  0  0  0  0  0  0
    6.8440   -2.0420   20.0420 O   0  0  0  0  0  0  0  0  0  0  0  0
    7.7350   -1.9540   22.4380 C   0  0  0  0  0  0  0  0  0  0  0  0
    8.0140   -2.4820   23.7540 C   0  0  0  0  0  0  0  0  0  0  0  0
    8.6320   -0.8430   22.4070 C   0  0  0  0  0  0  0  0  0  0  0  0
    9.0020   -1.7820   24.6820 C   0  0  0  0  0  0  0  0  0  0  0  0
    9.5630   -0.0870   23.0530 N   0  0  0  0  0  0  0  0  0  0  0  0
    9.6780   -0.6350   24.2910 C   0  0  0  0  0  0  0  0  0  0  0  0
   10.4000   -0.1650   25.3360 N   0  0  0  0  0  0  0  0  0  0  0  0
    9.4360   -0.2200   26.4570 C   0  0  0  0  0  0  0  0  0  0  0  0
    8.3740    0.5610   26.0490 C   0  0  0  0  0  0  0  0  0  0  0  0
    8.6690    1.4830   25.0220 C   0  0  0  0  0  0  0  0  0  0  0  0
    7.0610    0.4780   26.5980 N   0  0  0  0  0  0  0  0  0  0  0  0
    7.6600    2.4770   24.3850 C   0  0  0  0  0  0  0  0  0  0  0  0
    6.1150    1.2930   26.1180 C   0  0  0  0  0  0  0  0  0  0  0  0
    6.3030    2.2400   25.1040 C   0  0  0  0  0  0  0  0  0  0  0  0
    4.9220    3.2160   24.6230 S   0  0  0  0  0  0  0  0  0  0  0  0
    3.8630    3.0630   25.6020 O   0  0  0  0  0  0  0  0  0  0  0  0
    5.4170    4.5270   24.2510 O   0  0  0  0  0  0  0  0  0  0  0  0
    4.3810    2.5050   23.1610 N   0  0  0  0  0  0  0  0  0  0  0  0
    4.8590    2.9050   21.9460 C   0  0  0  0  0  0  0  0  0  0  0  0
    3.3840    1.4180   22.9330 C   0  0  0  0  0  0  0  0  0  0  0  0
    4.2850    2.1960   20.9290 C   0  0  0  0  0  0  0  0  0  0  0  0
    3.3160    1.2190   21.5510 C   0  0  0  0  0  0  0  0  0  0  0  0
    2.5600    0.6260   23.9090 C   0  0  0  0  0  0  0  0  0  0  0  0
    4.6290    2.4400   19.5980 C   0  0  0  0  0  0  0  0  0  0  0  0
    3.2330   -0.4520   24.6970 C   0  0  0  0  0  0  0  0  0  0  0  0
    1.1990    0.8260   24.1340 C   0  0  0  0  0  0  0  0  0  0  0  0
    4.2570    1.4680   18.5580 N   0  0  0  0  0  0  0  0  0  0  0  0
    2.5230   -1.2250   25.6210 C   0  0  0  0  0  0  0  0  0  0  0  0
    0.5000    0.0450   25.0610 C   0  0  0  0  0  0  0  0  0  0  0  0
    0.5270    1.7770   23.4630 F   0  0  0  0  0  0  0  0  0  0  0  0
    5.2590    0.7100   18.0030 C   0  0  0  0  0  0  0  0  0  0  0  0
    1.1550   -0.9750   25.8020 C   0  0  0  0  0  0  0  0  0  0  0  0
  1  2  1  0
  3  2  1  0
  3  4  2  0
  3  5  2  0
  3  6  1  0
  6  7  2  0
  6  8  1  0
  7  9  1  0
  8 10  2  0
  9 11  2  0
 10 11  1  0
 11 12  1  0
 12 13  1  0
 13 14  1  0
 14 15  2  0
 14 16  1  0
 15 17  1  0
 16 18  2  0
 17 19  2  0
 18 19  1  0
 20 19  1  0
 20 21  2  0
 20 22  2  0
 20 23  1  0
 23 24  1  0
 23 25  1  0
 24 26  2  0
 25 27  2  0
 26 27  1  0
 25 28  1  0
 26 29  1  0
 28 30  2  0
 28 31  1  0
 29 32  1  0
 30 33  1  0
 31 34  2  0
 31 35  1  0
 32 36  1  0
 33 37  2  0
 34 37  1  0
M  END
