MAK-UNK-10799360-7-chloroacetamide
     RDKit          3D

 26 29  0  0  0  0  0  0  0  0999 V2000
    7.8100   -3.0520   18.6980 C   0  0  0  0  0  0  0  0  0  0  0  0
    7.2830   -3.3020   20.0490 C   0  0  0  0  0  0  0  0  0  0  0  0
    6.2250   -4.0680   19.9200 O   0  0  0  0  0  0  0  0  0  0  0  0
    8.0390   -2.7320   21.2100 N   0  0  0  0  0  0  0  0  0  0  0  0
    7.6760   -1.4340   21.8160 C   0  0  0  0  0  0  0  0  0  0  0  0
    9.5600   -2.7040   21.5040 C   0  0  1  0  0  0  0  0  0  0  0  0
    8.8980   -1.0410   22.7480 C   0  0  2  0  0  0  0  0  0  0  0  0
    9.9680   -1.2400   21.7320 C   0  0  0  0  0  0  0  0  0  0  0  0
    9.9510   -3.1950   22.9100 C   0  0  0  0  0  0  0  0  0  0  0  0
    9.3120   -2.1440   23.7870 C   0  0  2  0  0  0  0  0  0  0  0  0
    8.1590   -2.6230   24.5930 C   0  0  0  0  0  0  0  0  0  0  0  0
    7.0810   -2.5380   23.6460 N   0  0  0  0  0  0  0  0  0  0  0  0
    6.2450   -1.4510   23.9910 C   0  0  0  0  0  0  0  0  0  0  0  0
    6.6310   -3.7930   23.2590 C   0  0  0  0  0  0  0  0  0  0  0  0
    4.9460   -1.6370   23.5810 C   0  0  0  0  0  0  0  0  0  0  0  0
    5.3330   -4.0580   23.6020 C   0  0  0  0  0  0  0  0  0  0  0  0
    4.4960   -2.9380   23.7710 C   0  0  0  0  0  0  0  0  0  0  0  0
    4.8120   -5.3500   23.8000 C   0  0  0  0  0  0  0  0  0  0  0  0
    3.2140   -3.1800   24.1370 C   0  0  0  0  0  0  0  0  0  0  0  0
    3.4870   -5.6010   24.1650 C   0  0  0  0  0  0  0  0  0  0  0  0
    2.6290   -4.5320   24.3510 C   0  0  0  0  0  0  0  0  0  0  0  0
    3.0680   -7.2540   24.3510 S   0  0  0  0  0  0  0  0  0  0  0  0
    1.1950   -4.7190   24.7460 C   0  0  0  0  0  0  0  0  0  0  0  0
    2.2870   -7.2510   25.8420 N   0  0  0  0  0  0  0  0  0  0  0  0
    2.0890   -7.6120   23.3460 O   0  0  0  0  0  0  0  0  0  0  0  0
    4.2930   -7.9880   24.5130 O   0  0  0  0  0  0  0  0  0  0  0  0
  1  2  1  0
  2  3  2  0
  2  4  1  0
  4  5  1  0
  4  6  1  0
  7  5  1  6
  6  8  1  0
  7  8  1  0
  6  9  1  1
  7 10  1  0
  9 10  1  0
 10 11  1  6
 11 12  1  0
 12 13  1  0
 12 14  1  0
 13 15  1  0
 14 16  1  0
 15 17  1  0
 16 17  2  0
 16 18  1  0
 17 19  1  0
 18 20  2  0
 19 21  2  0
 20 21  1  0
 20 22  1  0
 21 23  1  0
 22 24  1  0
 22 25  2  0
 22 26  2  0
M  END
