MAK-UNK-e05327b2-2-vinylsulfonamide
     RDKit          3D

 53 59  0  0  0  0  0  0  0  0999 V2000
    8.1560   -3.7710   20.3260 C   0  0  0  0  0  0  0  0  0  0  0  0
    6.9510   -2.8560   20.3990 C   0  0  0  0  0  0  0  0  0  0  0  0
    5.6730   -3.9520   20.8820 S   0  0  0  0  0  0  0  0  0  0  0  0
    4.7310   -3.2570   21.7030 O   0  0  0  0  0  0  0  0  0  0  0  0
    5.2100   -4.6620   19.7200 O   0  0  0  0  0  0  0  0  0  0  0  0
    6.4470   -5.0870   21.8550 N   0  0  0  0  0  0  0  0  0  0  0  0
    7.3760   -4.6460   22.8920 C   0  0  0  0  0  0  0  0  0  0  0  0
    5.6710   -6.2790   22.1840 C   0  0  0  0  0  0  0  0  0  0  0  0
    6.4100   -4.2080   24.0160 C   0  0  0  0  0  0  0  0  0  0  0  0
    4.8500   -6.0480   23.3150 C   0  0  0  0  0  0  0  0  0  0  0  0
    5.6600   -5.4330   24.4010 N   0  0  0  0  0  0  0  0  0  0  0  0
    4.9330   -5.3630   25.9190 S   0  0  0  0  0  0  0  0  0  0  0  0
    3.9020   -6.3750   25.9590 O   0  0  0  0  0  0  0  0  0  0  0  0
    5.9720   -5.3150   26.9160 O   0  0  0  0  0  0  0  0  0  0  0  0
    4.0950   -3.8090   26.0180 C   0  0  0  0  0  0  0  0  0  0  0  0
    4.6140   -2.3590   26.0660 C   0  0  0  0  0  0  0  0  0  0  0  0
    2.3880   -3.8890   26.0700 S   0  0  0  0  0  0  0  0  0  0  0  0
    3.4270   -1.3930   26.1560 C   0  0  0  0  0  0  0  0  0  0  0  0
    2.1270   -2.1940   26.1690 C   0  0  0  0  0  0  0  0  0  0  0  0
    0.7240   -1.5800   26.2680 C   0  0  0  0  0  0  0  0  0  0  0  0
   -0.2940   -2.2690   25.7770 N   0  0  0  0  0  0  0  0  0  0  0  0
   -1.4960   -1.6880   26.1170 C   0  0  0  0  0  0  0  0  0  0  0  0
   -0.3260   -3.7140   26.0550 C   0  0  0  0  0  0  0  0  0  0  0  0
   -2.4850   -2.1730   25.2520 C   0  0  0  0  0  0  0  0  0  0  0  0
   -1.6920   -4.2830   26.3660 C   0  0  0  0  0  0  0  0  0  0  0  0
   -2.8270   -3.5310   25.7210 N   0  0  0  0  0  0  0  0  0  0  0  0
   -3.7690   -4.4730   24.6390 S   0  0  0  0  0  0  0  0  0  0  0  0
   -3.3270   -5.8480   24.7540 O   0  0  0  0  0  0  0  0  0  0  0  0
   -5.1620   -4.1400   24.8660 O   0  0  0  0  0  0  0  0  0  0  0  0
   -3.3250   -3.9640   22.9830 C   0  0  0  0  0  0  0  0  0  0  0  0
   -2.5370   -4.8200   22.2410 C   0  0  0  0  0  0  0  0  0  0  0  0
   -3.7610   -2.7160   22.4170 C   0  0  0  0  0  0  0  0  0  0  0  0
   -2.1040   -4.5070   20.8470 C   0  0  0  0  0  0  0  0  0  0  0  0
   -3.3710   -2.3660   21.0810 C   0  0  0  0  0  0  0  0  0  0  0  0
   -4.5600   -1.7740   23.0720 C   0  0  0  0  0  0  0  0  0  0  0  0
   -2.5680   -3.2090   20.2880 C   0  0  0  0  0  0  0  0  0  0  0  0
   -3.8410   -1.0370   20.4950 C   0  0  0  0  0  0  0  0  0  0  0  0
   -5.0120   -0.5370   22.5660 C   0  0  0  0  0  0  0  0  0  0  0  0
   -4.6460   -0.1440   21.2340 C   0  0  0  0  0  0  0  0  0  0  0  0
   -5.8030    0.2550   23.4000 C   0  0  0  0  0  0  0  0  0  0  0  0
   -5.0670    1.0680   20.6840 C   0  0  0  0  0  0  0  0  0  0  0  0
   -5.3170    1.5560   23.5360 C   0  0  0  0  0  0  0  0  0  0  0  0
   -4.5910    1.1980   19.3910 C   0  0  0  0  0  0  0  0  0  0  0  0
   -3.9600    1.8770   23.4780 C   0  0  0  0  0  0  0  0  0  0  0  0
   -6.0600    2.7150   23.7450 C   0  0  0  0  0  0  0  0  0  0  0  0
   -4.2770    2.5000   18.9980 C   0  0  0  0  0  0  0  0  0  0  0  0
   -3.6640    3.2150   23.6320 C   0  0  0  0  0  0  0  0  0  0  0  0
   -5.0880    4.1310   23.8600 S   0  0  0  0  0  0  0  0  0  0  0  0
   -3.6030    3.4210   19.7820 C   0  0  0  0  0  0  0  0  0  0  0  0
   -4.6690    3.1760   17.4610 S   0  0  0  0  0  0  0  0  0  0  0  0
   -3.4150    4.6240   19.1550 C   0  0  0  0  0  0  0  0  0  0  0  0
   -3.9400    4.6640   17.8630 C   0  0  0  0  0  0  0  0  0  0  0  0
   -3.9180    5.9650   16.7460 Cl  0  0  0  0  0  0  0  0  0  0  0  0
  1  2  1  0
  3  2  1  0
  3  4  2  0
  3  5  2  0
  3  6  1  0
  6  7  1  0
  6  8  1  0
  7  9  1  0
  8 10  1  0
  9 11  1  0
 10 11  1  0
 11 12  1  0
 12 13  2  0
 12 14  2  0
 12 15  1  0
 15 16  2  0
 15 17  1  0
 16 18  1  0
 17 19  1  0
 18 19  2  0
 19 20  1  0
 20 21  1  0
 21 22  1  0
 21 23  1  0
 22 24  1  0
 23 25  1  0
 24 26  1  0
 25 26  1  0
 26 27  1  0
 27 28  2  0
 27 29  2  0
 27 30  1  0
 30 31  2  0
 30 32  1  0
 31 33  1  0
 32 34  2  0
 32 35  1  0
 33 36  2  0
 34 36  1  0
 34 37  1  0
 35 38  2  0
 37 39  2  0
 38 39  1  0
 38 40  1  0
 39 41  1  0
 40 42  1  0
 41 43  1  0
 42 44  1  0
 42 45  2  0
 43 46  1  0
 44 47  2  0
 45 48  1  0
 47 48  1  0
 46 49  2  0
 46 50  1  0
 49 51  1  0
 50 52  1  0
 51 52  2  0
 52 53  1  0
M  END
