MAK-UNK-5e88aa6a-13
     RDKit          3D

 12 13  0  0  0  0  0  0  0  0999 V2000
    8.3190   -5.1390   26.8630 C   0  0  0  0  0  0  0  0  0  0  0  0
    8.9860   -4.1280   26.0310 C   0  0  0  0  0  0  0  0  0  0  0  0
    8.2860   -3.0480   25.1830 C   0  0  0  0  0  0  0  0  0  0  0  0
   10.3500   -4.1360   26.0010 C   0  0  0  0  0  0  0  0  0  0  0  0
    9.0370   -2.1570   24.4420 N   0  0  0  0  0  0  0  0  0  0  0  0
   11.1040   -3.2910   25.3050 N   0  0  0  0  0  0  0  0  0  0  0  0
   10.4730   -2.3310   24.5430 C   0  0  0  0  0  0  0  0  0  0  0  0
   11.4350   -1.4520   23.7860 C   0  0  0  0  0  0  0  0  0  0  0  0
   11.7130   -0.0010   24.0060 C   0  0  0  0  0  0  0  0  0  0  0  0
   12.2180   -1.9490   22.7670 C   0  0  0  0  0  0  0  0  0  0  0  0
   12.6780    0.5010   23.1620 C   0  0  0  0  0  0  0  0  0  0  0  0
   13.2940   -0.7390   22.0710 S   0  0  0  0  0  0  0  0  0  0  0  0
  1  2  1  0
  2  3  2  0
  2  4  1  0
  3  5  1  0
  4  6  2  0
  5  7  2  0
  6  7  1  0
  7  8  1  0
  8  9  1  0
  8 10  2  0
  9 11  2  0
 10 12  1  0
 11 12  1  0
M  END
