MAK-UNK-ec98eaf6-21-bromoalkyne
     RDKit          3D

 21 23  0  0  0  0  0  0  0  0999 V2000
    7.1940   -3.3190   19.6510 C   0  0  0  0  0  0  0  0  0  0  0  0
    6.1480   -2.9190   18.6610 C   0  0  0  0  0  0  0  0  0  0  0  0
    6.9950   -3.1050   20.9960 N   0  0  0  0  0  0  0  0  0  0  0  0
    6.9570   -4.1360   22.0860 C   0  0  0  0  0  0  0  0  0  0  0  0
    7.1550   -1.7590   21.6460 C   0  0  1  0  0  0  0  0  0  0  0  0
    7.3190   -3.1490   23.2120 C   0  0  2  0  0  0  0  0  0  0  0  0
    6.4590   -1.9370   22.9890 C   0  0  0  0  0  0  0  0  0  0  0  0
    8.5100   -1.5770   21.8180 C   0  0  0  0  0  0  0  0  0  0  0  0
    8.6710   -2.5470   22.9340 N   0  0  0  0  0  0  0  0  0  0  0  0
    9.4630   -2.1120   24.0730 C   0  0  0  0  0  0  0  0  0  0  0  0
   10.3720   -1.1030   23.7800 C   0  0  0  0  0  0  0  0  0  0  0  0
   10.0270    0.2890   23.8840 C   0  0  0  0  0  0  0  0  0  0  0  0
   11.6590   -1.4250   23.3700 C   0  0  0  0  0  0  0  0  0  0  0  0
   11.1310    1.2580   23.5150 C   0  0  0  0  0  0  0  0  0  0  0  0
   12.6210   -0.4750   23.0490 C   0  0  0  0  0  0  0  0  0  0  0  0
   12.1240   -2.6920   23.2360 N   0  0  0  0  0  0  0  0  0  0  0  0
   10.5750    2.6530   23.6530 C   0  0  0  0  0  0  0  0  0  0  0  0
   12.3940    0.8650   23.1150 C   0  0  0  0  0  0  0  0  0  0  0  0
   13.4260   -2.4790   22.6980 C   0  0  0  0  0  0  0  0  0  0  0  0
   10.1330    3.7240   23.7140 N   0  0  0  0  0  0  0  0  0  0  0  0
   13.1680   -1.9360   21.4100 C   0  0  0  0  0  0  0  0  0  0  0  0
  1  2  2  3
  1  3  1  0
  3  4  1  0
  3  5  1  0
  6  4  1  6
  5  7  1  0
  6  7  1  0
  5  8  1  1
  6  9  1  0
  8  9  1  0
  9 10  1  0
 10 11  1  0
 11 12  2  0
 11 13  1  0
 12 14  1  0
 13 15  2  0
 13 16  1  0
 14 17  1  0
 14 18  2  0
 15 18  1  0
 16 19  1  0
 17 20  3  0
 19 21  1  0
M  END
