MAK-UNK-ec98eaf6-1-acrylamide
     RDKit          3D

 26 29  0  0  0  0  0  0  0  0999 V2000
    7.7530   -2.8150   18.5590 C   0  0  0  0  0  0  0  0  0  0  0  0
    6.2610   -2.7330   18.8480 C   0  0  0  0  0  0  0  0  0  0  0  0
    5.8650   -3.3820   20.1150 C   0  0  0  0  0  0  0  0  0  0  0  0
    5.2440   -4.4460   20.0730 O   0  0  0  0  0  0  0  0  0  0  0  0
    6.2360   -2.7180   21.2560 N   0  0  0  0  0  0  0  0  0  0  0  0
    7.1800   -1.5710   21.2520 C   0  0  0  0  0  0  0  0  0  0  0  0
    6.1100   -3.1400   22.6510 C   0  0  2  0  0  0  0  0  0  0  0  0
    7.5050   -1.4380   22.7410 C   0  0  1  0  0  0  0  0  0  0  0  0
    6.1370   -1.7910   23.3670 C   0  0  0  0  0  0  0  0  0  0  0  0
    7.4240   -3.7740   23.1160 C   0  0  0  0  0  0  0  0  0  0  0  0
    8.3210   -2.6030   23.1200 N   0  0  0  0  0  0  0  0  0  0  0  0
    9.3610   -2.5130   24.1340 C   0  0  2  0  0  0  0  0  0  0  0  0
    8.8260   -2.2900   25.4200 C   0  0  0  0  0  0  0  0  0  0  0  0
   10.4590   -1.5050   23.7870 C   0  0  0  0  0  0  0  0  0  0  0  0
    8.0040   -3.2570   26.0340 C   0  0  0  0  0  0  0  0  0  0  0  0
    9.1200   -1.0970   26.1250 C   0  0  0  0  0  0  0  0  0  0  0  0
   10.6320   -0.2410   24.3910 C   0  0  0  0  0  0  0  0  0  0  0  0
   11.3590   -1.8780   22.8010 C   0  0  0  0  0  0  0  0  0  0  0  0
    7.4910   -3.0410   27.3140 C   0  0  0  0  0  0  0  0  0  0  0  0
    8.6100   -0.8780   27.4070 C   0  0  0  0  0  0  0  0  0  0  0  0
   11.6880    0.5970   24.0000 C   0  0  0  0  0  0  0  0  0  0  0  0
   12.3860   -1.0380   22.4380 C   0  0  0  0  0  0  0  0  0  0  0  0
    7.8100   -1.8630   27.9590 C   0  0  0  0  0  0  0  0  0  0  0  0
    8.9260    0.3760   28.1530 C   0  0  0  0  0  0  0  0  0  0  0  0
   12.5710    0.1990   23.0240 C   0  0  0  0  0  0  0  0  0  0  0  0
   13.4190   -1.5800   21.2270 Cl  0  0  0  0  0  0  0  0  0  0  0  0
  1  2  1  0
  2  3  1  0
  3  4  2  0
  3  5  1  0
  5  6  1  0
  5  7  1  0
  8  6  1  6
  7  9  1  0
  8  9  1  0
  7 10  1  1
  8 11  1  0
 10 11  1  0
 11 12  1  0
 12 13  1  1
 12 14  1  0
 13 15  2  0
 13 16  1  0
 14 17  2  0
 14 18  1  0
 15 19  1  0
 16 20  2  0
 17 21  1  0
 18 22  2  0
 19 23  2  0
 20 23  1  0
 20 24  1  0
 21 25  2  0
 22 25  1  0
 22 26  1  0
M  END
