MAK-UNK-849bee6c-16-bromoalkyne
     RDKit          3D

 24 26  0  0  0  0  0  0  0  0999 V2000
    6.9080   -3.4440   19.7490 C   0  0  0  0  0  0  0  0  0  0  0  0
    6.1820   -2.7930   18.6000 C   0  0  0  0  0  0  0  0  0  0  0  0
    6.7540   -2.8260   20.9770 N   0  0  0  0  0  0  0  0  0  0  0  0
    6.2730   -3.4110   22.2030 C   0  0  0  0  0  0  0  0  0  0  0  0
    7.4570   -1.5740   21.1740 C   0  0  0  0  0  0  0  0  0  0  0  0
    7.4330   -3.5840   23.1960 C   0  0  0  0  0  0  0  0  0  0  0  0
    8.6350   -1.9110   21.8220 C   0  0  0  0  0  0  0  0  0  0  0  0
    8.4020   -2.4740   23.1730 N   0  0  0  0  0  0  0  0  0  0  0  0
    9.6160   -2.5220   23.9370 C   0  0  0  0  0  0  0  0  0  0  0  0
   10.5990   -1.4240   23.6240 C   0  0  0  0  0  0  0  0  0  0  0  0
   12.0790   -1.6870   23.5630 C   0  0  0  0  0  0  0  0  0  0  0  0
   10.1390   -0.1360   23.3820 C   0  0  0  0  0  0  0  0  0  0  0  0
   12.9330   -0.5190   23.2500 C   0  0  0  0  0  0  0  0  0  0  0  0
   10.9870    0.9370   23.0830 C   0  0  0  0  0  0  0  0  0  0  0  0
   12.3740    0.7530   23.0210 C   0  0  0  0  0  0  0  0  0  0  0  0
   10.1110    2.4660   22.7880 S   0  0  0  0  0  0  0  0  0  0  0  0
   10.7110    3.9440   23.6030 C   0  0  0  0  0  0  0  0  0  0  0  0
   11.6720    4.8690   22.9510 C   0  0  0  0  0  0  0  0  0  0  0  0
   10.2880    4.4360   25.0130 C   0  0  0  0  0  0  0  0  0  0  0  0
   12.0740    6.0600   23.6710 N   0  0  0  0  0  0  0  0  0  0  0  0
   10.7000    5.5780   25.6730 N   0  0  0  0  0  0  0  0  0  0  0  0
   11.5560    6.3480   25.0100 C   0  0  0  0  0  0  0  0  0  0  0  0
   12.0040    7.5130   25.5950 C   0  0  0  0  0  0  0  0  0  0  0  0
   11.2280    8.5950   25.8320 N   0  0  0  0  0  0  0  0  0  0  0  0
  1  2  2  3
  1  3  1  0
  3  4  1  0
  3  5  1  0
  4  6  1  0
  5  7  1  0
  6  8  1  0
  7  8  1  0
  8  9  1  0
  9 10  1  0
 10 11  2  0
 10 12  1  0
 11 13  1  0
 12 14  2  0
 13 15  2  0
 14 15  1  0
 14 16  1  0
 16 17  1  0
 17 18  2  0
 17 19  1  0
 18 20  1  0
 19 21  2  0
 20 22  2  0
 21 22  1  0
 22 23  1  0
 23 24  3  0
M  END
