MAK-UNK-3e0761f8-9-nitrile
     RDKit          3D

 23 26  0  0  0  0  0  0  0  0999 V2000
    6.8900   -3.4180   19.6810 C   0  0  0  0  0  0  0  0  0  0  0  0
    5.8990   -3.2100   18.9160 N   0  0  0  0  0  0  0  0  0  0  0  0
    7.0370   -2.6850   20.8380 N   0  0  0  0  0  0  0  0  0  0  0  0
    6.1830   -2.9010   22.0310 C   0  0  0  0  0  0  0  0  0  0  0  0
    8.3110   -2.3630   21.4600 C   0  0  2  0  0  0  0  0  0  0  0  0
    7.2290   -3.2130   23.1850 C   0  0  1  0  0  0  0  0  0  0  0  0
    8.3800   -3.6680   22.2940 C   0  0  0  0  0  0  0  0  0  0  0  0
    8.1210   -1.2870   22.5160 C   0  0  0  0  0  0  0  0  0  0  0  0
    8.1430   -2.1710   23.6650 N   0  0  0  0  0  0  0  0  0  0  0  0
    9.4830   -2.6320   24.0630 C   0  0  1  0  0  0  0  0  0  0  0  0
   10.6380   -1.6270   23.7460 C   0  0  0  0  0  0  0  0  0  0  0  0
    9.3780   -3.1570   25.5260 C   0  0  0  0  0  0  0  0  0  0  0  0
   11.7350   -1.9850   22.7490 C   0  0  0  0  0  0  0  0  0  0  0  0
   10.7280   -0.3520   24.3450 C   0  0  0  0  0  0  0  0  0  0  0  0
    7.8740   -3.1030   25.9610 C   0  0  0  0  0  0  0  0  0  0  0  0
    9.9540   -4.5680   25.7350 C   0  0  0  0  0  0  0  0  0  0  0  0
   12.8360   -0.9780   22.4610 C   0  0  0  0  0  0  0  0  0  0  0  0
   11.7750    0.5400   24.0320 C   0  0  0  0  0  0  0  0  0  0  0  0
    7.4960   -3.7650   27.3140 C   0  0  0  0  0  0  0  0  0  0  0  0
    8.9510   -5.4920   26.4250 C   0  0  0  0  0  0  0  0  0  0  0  0
   12.7940    0.2460   23.1280 C   0  0  0  0  0  0  0  0  0  0  0  0
    8.3360   -4.9020   27.6200 N   0  0  0  0  0  0  0  0  0  0  0  0
    7.5520   -5.8990   28.3260 C   0  0  0  0  0  0  0  0  0  0  0  0
  1  2  2  3
  1  3  1  0
  3  4  1  0
  3  5  1  0
  6  4  1  6
  5  7  1  0
  6  7  1  0
  5  8  1  1
  6  9  1  0
  8  9  1  0
  9 10  1  0
 10 11  1  1
 10 12  1  0
 11 13  2  0
 11 14  1  0
 12 15  1  0
 12 16  1  0
 13 17  1  0
 14 18  2  0
 15 19  1  0
 16 20  1  0
 17 21  2  0
 18 21  1  0
 19 22  1  0
 20 22  1  0
 22 23  1  0
M  END
