MAK-UNK-10572812-17
     RDKit          3D

 34 38  0  0  0  0  0  0  0  0999 V2000
   13.4110   -1.8020   23.7450 C   0  0  0  0  0  0  0  0  0  0  0  0
   12.1180   -1.1570   23.8570 N   0  0  0  0  0  0  0  0  0  0  0  0
   11.2170   -2.0770   23.3050 C   0  0  0  0  0  0  0  0  0  0  0  0
   12.0950    0.1340   23.1700 C   0  0  0  0  0  0  0  0  0  0  0  0
    9.8820   -1.5900   22.7110 C   0  0  0  0  0  0  0  0  0  0  0  0
   10.8050    0.5850   22.9400 C   0  0  0  0  0  0  0  0  0  0  0  0
   10.0130   -0.3500   22.1730 N   0  0  0  0  0  0  0  0  0  0  0  0
    8.9510    0.0790   21.5050 C   0  0  0  0  0  0  0  0  0  0  0  0
    8.8170    1.2840   21.1860 O   0  0  0  0  0  0  0  0  0  0  0  0
    7.9290   -1.0370   21.1740 C   0  0  0  0  0  0  0  0  0  0  0  0
    7.0680   -0.3870   20.1100 C   0  0  0  0  0  0  0  0  0  0  0  0
    7.3530   -0.5790   18.6710 C   0  0  0  0  0  0  0  0  0  0  0  0
    5.9330    0.4330   20.2410 C   0  0  0  0  0  0  0  0  0  0  0  0
    6.3740    0.1530   17.9170 N   0  0  0  0  0  0  0  0  0  0  0  0
    5.4660    0.7930   18.9250 C   0  0  0  0  0  0  0  0  0  0  0  0
    5.1810    0.9570   21.2870 C   0  0  0  0  0  0  0  0  0  0  0  0
    4.2950    1.6430   18.5960 N   0  0  0  0  0  0  0  0  0  0  0  0
    4.0640    1.7580   21.1090 C   0  0  0  0  0  0  0  0  0  0  0  0
    3.6400    2.0800   19.8420 C   0  0  0  0  0  0  0  0  0  0  0  0
    2.3880    2.9540   19.6970 C   0  0  0  0  0  0  0  0  0  0  0  0
    1.7000    3.2250   20.6780 O   0  0  0  0  0  0  0  0  0  0  0  0
    2.0900    3.4030   18.4320 N   0  0  0  0  0  0  0  0  0  0  0  0
    1.0760    4.4120   18.1940 C   0  0  0  0  0  0  0  0  0  0  0  0
   -0.1800    3.9010   18.5410 C   0  0  0  0  0  0  0  0  0  0  0  0
   -1.0940    4.0740   17.5020 C   0  0  0  0  0  0  0  0  0  0  0  0
   -0.8140    4.3340   16.0600 C   0  0  0  0  0  0  0  0  0  0  0  0
   -2.4710    4.0260   17.6530 C   0  0  0  0  0  0  0  0  0  0  0  0
   -2.0200    4.4290   15.4240 N   0  0  0  0  0  0  0  0  0  0  0  0
   -3.0470    4.2480   16.3470 C   0  0  0  0  0  0  0  0  0  0  0  0
   -3.4300    3.7980   18.8410 C   0  0  0  0  0  0  0  0  0  0  0  0
   -4.5620    4.2590   16.1300 C   0  0  0  0  0  0  0  0  0  0  0  0
   -4.9540    3.7920   18.7190 C   0  0  0  0  0  0  0  0  0  0  0  0
   -5.5010    4.0300   17.3220 C   0  0  0  0  0  0  0  0  0  0  0  0
   -5.7520    3.5890   19.7800 F   0  0  0  0  0  0  0  0  0  0  0  0
  1  2  1  0
  2  3  1  0
  2  4  1  0
  3  5  1  0
  4  6  1  0
  5  7  1  0
  6  7  1  0
  7  8  1  0
  8  9  2  0
  8 10  1  0
 10 11  1  0
 11 12  2  0
 11 13  1  0
 12 14  1  0
 13 15  2  0
 14 15  1  0
 13 16  1  0
 15 17  1  0
 16 18  2  0
 17 19  2  0
 18 19  1  0
 19 20  1  0
 20 21  2  0
 20 22  1  0
 22 23  1  0
 23 24  1  0
 24 25  1  0
 25 26  2  0
 25 27  1  0
 26 28  1  0
 27 29  2  0
 28 29  1  0
 27 30  1  0
 29 31  1  0
 30 32  2  0
 31 33  2  0
 32 33  1  0
 32 34  1  0
M  END
