MAK-UNK-10799360-26-vinylsulfonamide
     RDKit          3D

 36 39  0  0  0  0  0  0  0  0999 V2000
    7.4580   -4.7910   20.3790 C   0  0  0  0  0  0  0  0  0  0  0  0
    6.5820   -5.7720   21.1850 C   0  0  0  0  0  0  0  0  0  0  0  0
    5.9150   -4.8900   22.5630 S   0  0  0  0  0  0  0  0  0  0  0  0
    4.7860   -4.0850   22.1090 O   0  0  0  0  0  0  0  0  0  0  0  0
    5.7290   -5.8350   23.6410 O   0  0  0  0  0  0  0  0  0  0  0  0
    7.2180   -3.8990   22.9970 N   0  0  0  0  0  0  0  0  0  0  0  0
    7.9670   -3.1140   22.0110 C   0  0  0  0  0  0  0  0  0  0  0  0
    7.0890   -3.0560   24.1790 C   0  0  1  0  0  0  0  0  0  0  0  0
    8.4210   -1.8930   22.8500 C   0  0  2  0  0  0  0  0  0  0  0  0
    8.5130   -2.5210   24.2320 C   0  0  0  0  0  0  0  0  0  0  0  0
    6.3030   -1.7620   23.8270 C   0  0  0  0  0  0  0  0  0  0  0  0
    7.2610   -0.9800   22.9900 N   0  0  0  0  0  0  0  0  0  0  0  0
    6.7920   -0.3800   21.7120 C   0  0  0  0  0  0  0  0  0  0  0  0
    7.3070    1.0520   21.4150 C   0  0  1  0  0  0  0  0  0  0  0  0
    6.6510    2.1680   21.7180 N   0  0  0  0  0  0  0  0  0  0  0  0
    8.7150    1.3170   21.9590 C   0  0  0  0  0  0  0  0  0  0  0  0
    5.2950    1.9850   21.9280 C   0  0  0  0  0  0  0  0  0  0  0  0
    8.6070    2.6790   21.8310 C   0  0  0  0  0  0  0  0  0  0  0  0
    9.5840    2.1910   22.2490 C   0  0  0  0  0  0  0  0  0  0  0  0
    4.9130    1.4270   22.9590 O   0  0  0  0  0  0  0  0  0  0  0  0
    4.3980    2.4770   20.9620 C   0  0  1  0  0  0  0  0  0  0  0  0
   10.0800    2.8730   22.3950 C   0  0  0  0  0  0  0  0  0  0  0  0
   10.2750    1.2020   22.5840 C   0  0  0  0  0  0  0  0  0  0  0  0
    4.4330    1.9560   19.6610 C   0  0  0  0  0  0  0  0  0  0  0  0
    3.0630    2.3320   21.5770 N   0  0  0  0  0  0  0  0  0  0  0  0
   11.2270    1.9460   22.9000 C   0  0  0  0  0  0  0  0  0  0  0  0
    5.1500    0.7860   19.4310 C   0  0  0  0  0  0  0  0  0  0  0  0
    1.9530    2.9580   21.0510 C   0  0  0  0  0  0  0  0  0  0  0  0
    6.4720    0.8100   18.7500 C   0  0  0  0  0  0  0  0  0  0  0  0
    4.6500   -0.4490   19.8330 C   0  0  0  0  0  0  0  0  0  0  0  0
    1.1440    2.0800   20.3540 C   0  0  0  0  0  0  0  0  0  0  0  0
    1.6950    4.1530   21.1770 O   0  0  0  0  0  0  0  0  0  0  0  0
    7.1800   -0.4580   18.5440 C   0  0  0  0  0  0  0  0  0  0  0  0
    5.3340   -1.6740   19.6320 C   0  0  0  0  0  0  0  0  0  0  0  0
    6.5770   -1.7060   19.0050 C   0  0  0  0  0  0  0  0  0  0  0  0
    7.3110   -2.8250   18.7750 O   0  0  0  0  0  0  0  0  0  0  0  0
  1  2  1  0
  3  2  1  0
  3  4  2  0
  3  5  2  0
  3  6  1  0
  6  7  1  0
  6  8  1  0
  9  7  1  6
  8 10  1  0
  9 10  1  0
  8 11  1  6
  9 12  1  0
 11 12  1  0
 12 13  1  0
 14 13  1  1
 14 15  1  0
 14 16  1  0
 15 17  1  0
 16 18  2  0
 16 19  1  0
 17 20  2  0
 17 21  1  0
 18 22  1  0
 19 23  2  0
 21 24  1  6
 21 25  1  0
 22 26  2  0
 23 26  1  0
 24 27  1  0
 25 28  1  0
 27 29  2  0
 27 30  1  0
 28 31  1  0
 28 32  2  0
 29 33  1  0
 30 34  2  0
 33 35  2  0
 34 35  1  0
 35 36  1  0
M  END
