MAK-UNK-5d2caa6f-2-vinylsulfonamide
     RDKit          3D

 32 36  0  0  0  0  0  0  0  0999 V2000
    6.9610   -3.3700   19.3800 C   0  0  0  0  0  0  0  0  0  0  0  0
    7.3640   -2.5180   20.5460 C   0  0  0  0  0  0  0  0  0  0  0  0
    5.7870   -1.9420   21.1310 S   0  0  0  0  0  0  0  0  0  0  0  0
    4.8590   -3.1360   21.4000 O   0  0  0  0  0  0  0  0  0  0  0  0
    5.3520   -1.0240   20.1030 O   0  0  0  0  0  0  0  0  0  0  0  0
    6.2320   -0.9180   22.4150 N   0  0  0  0  0  0  0  0  0  0  0  0
    7.4660   -1.1470   23.2140 C   0  0  0  0  0  0  0  0  0  0  0  0
    6.3710    0.5040   21.9550 C   0  0  2  0  0  0  0  0  0  0  0  0
    8.2600    0.1790   22.9590 C   0  0  2  0  0  0  0  0  0  0  0  0
    7.6910    0.4160   21.5110 C   0  0  0  0  0  0  0  0  0  0  0  0
    6.3200    1.3880   23.0360 C   0  0  0  0  0  0  0  0  0  0  0  0
    9.7340   -0.3380   23.1730 C   0  0  0  0  0  0  0  0  0  0  0  0
    5.2260    2.3520   23.4260 C   0  0  0  0  0  0  0  0  0  0  0  0
    7.5130    1.2590   23.7460 C   0  0  0  0  0  0  0  0  0  0  0  0
    9.5240   -1.6200   23.9560 C   0  0  0  0  0  0  0  0  0  0  0  0
   10.9510    0.1580   22.7590 C   0  0  0  0  0  0  0  0  0  0  0  0
    4.1040    2.4060   22.6630 O   0  0  0  0  0  0  0  0  0  0  0  0
    5.5120    3.1040   24.5700 C   0  0  0  0  0  0  0  0  0  0  0  0
    7.7410    2.0440   24.8770 C   0  0  0  0  0  0  0  0  0  0  0  0
   10.8200   -2.3840   24.2440 C   0  0  0  0  0  0  0  0  0  0  0  0
   12.0790   -0.5490   23.0310 C   0  0  0  0  0  0  0  0  0  0  0  0
    3.6090    3.6930   22.2550 C   0  0  0  0  0  0  0  0  0  0  0  0
    6.7400    2.9490   25.2710 C   0  0  0  0  0  0  0  0  0  0  0  0
   12.0970   -1.7320   23.7110 C   0  0  0  0  0  0  0  0  0  0  0  0
   13.5180    0.0570   22.4880 Cl  0  0  0  0  0  0  0  0  0  0  0  0
    4.6820    4.4930   21.4900 C   0  0  0  0  0  0  0  0  0  0  0  0
    5.0350    5.8310   21.9930 N   0  0  0  0  0  0  0  0  0  0  0  0
    3.8900    6.6350   22.4420 C   0  0  0  0  0  0  0  0  0  0  0  0
    5.9230    6.5920   21.0870 C   0  0  0  0  0  0  0  0  0  0  0  0
    4.3510    7.9720   23.0090 C   0  0  0  0  0  0  0  0  0  0  0  0
    6.2730    8.0040   21.5620 C   0  0  0  0  0  0  0  0  0  0  0  0
    5.1450    8.7280   22.0870 O   0  0  0  0  0  0  0  0  0  0  0  0
  1  2  1  0
  3  2  1  0
  3  4  2  0
  3  5  2  0
  3  6  1  0
  6  7  1  0
  8  6  1  1
  7  9  1  0
  8 10  1  0
  9 10  1  0
  8 11  1  0
  9 12  1  6
 11 13  2  0
  9 14  1  0
 11 14  1  0
 12 15  2  0
 12 16  1  0
 13 17  1  0
 13 18  1  0
 14 19  2  0
 15 20  1  0
 16 21  2  0
 17 22  1  0
 18 23  2  0
 19 23  1  0
 20 24  2  0
 21 24  1  0
 21 25  1  0
 22 26  1  0
 26 27  1  0
 27 28  1  0
 27 29  1  0
 28 30  1  0
 29 31  1  0
 30 32  1  0
 31 32  1  0
M  END
