MAK-UNK-516d8086-6-nitrile
     RDKit          3D

 22 24  0  0  0  0  0  0  0  0999 V2000
    7.1950   -3.6630   20.1740 C   0  0  0  0  0  0  0  0  0  0  0  0
    6.0430   -3.8800   19.6620 N   0  0  0  0  0  0  0  0  0  0  0  0
    7.2730   -2.6050   21.2660 C   0  0  0  0  0  0  0  0  0  0  0  0
    7.3060   -2.8450   22.8640 C   0  0  0  0  0  0  0  0  0  0  0  0
    7.3020   -1.2090   20.7400 C   0  0  0  0  0  0  0  0  0  0  0  0
    7.3620   -1.4140   23.5880 C   0  0  0  0  0  0  0  0  0  0  0  0
    6.7160   -0.3620   21.6040 N   0  0  0  0  0  0  0  0  0  0  0  0
    7.8040   -1.5850   25.1240 C   0  0  0  0  0  0  0  0  0  0  0  0
    7.0670   -0.2660   22.9130 C   0  0  0  0  0  0  0  0  0  0  0  0
    9.3030   -1.4150   24.8870 C   0  0  0  0  0  0  0  0  0  0  0  0
    7.1040    0.9480   23.4390 N   0  0  0  0  0  0  0  0  0  0  0  0
   10.2580   -0.6700   25.8540 C   0  0  0  0  0  0  0  0  0  0  0  0
    9.6280   -1.9880   23.7370 C   0  0  0  0  0  0  0  0  0  0  0  0
    6.3870    0.8600   24.6070 C   0  0  0  0  0  0  0  0  0  0  0  0
   11.6860   -0.7060   25.2460 C   0  0  0  0  0  0  0  0  0  0  0  0
   10.8750   -1.9450   23.3100 C   0  0  0  0  0  0  0  0  0  0  0  0
    7.0750    1.2110   25.9570 C   0  0  0  0  0  0  0  0  0  0  0  0
   11.9710   -1.3660   23.9410 C   0  0  0  0  0  0  0  0  0  0  0  0
   11.2160   -2.4930   22.1160 C   0  0  0  0  0  0  0  0  0  0  0  0
   10.2940   -3.0830   21.3560 O   0  0  0  0  0  0  0  0  0  0  0  0
   12.5510   -2.2330   21.9930 N   0  0  0  0  0  0  0  0  0  0  0  0
   13.1840   -1.5600   23.1200 C   0  0  0  0  0  0  0  0  0  0  0  0
  1  2  2  3
  1  3  1  0
  3  4  2  0
  3  5  1  0
  4  6  1  0
  5  7  1  0
  6  8  1  0
  6  9  2  0
  7  9  1  0
  8 10  1  0
  9 11  1  0
 10 12  2  0
 10 13  1  0
 11 14  1  0
 12 15  1  0
 13 16  2  0
 14 17  1  0
 15 18  2  0
 16 18  1  0
 16 19  1  0
 19 20  2  0
 19 21  1  0
 18 22  1  0
 21 22  1  0
M  END
