MAK-UNK-8fdbca50-24-chloroacetamide
     RDKit          3D

 39 42  0  0  0  0  0  0  0  0999 V2000
    6.9300   -3.6070   19.9720 C   0  0  0  0  0  0  0  0  0  0  0  0
    5.8960   -4.4040   20.7230 C   0  0  0  0  0  0  0  0  0  0  0  0
    5.2910   -5.2480   20.0650 O   0  0  0  0  0  0  0  0  0  0  0  0
    5.6360   -4.1700   22.1090 N   0  0  0  0  0  0  0  0  0  0  0  0
    4.8280   -3.0750   22.6590 C   0  0  0  0  0  0  0  0  0  0  0  0
    6.3470   -4.8590   23.1770 C   0  0  0  0  0  0  0  0  0  0  0  0
    4.8280   -3.0900   24.1850 C   0  0  0  0  0  0  0  0  0  0  0  0
    7.0460   -3.8770   24.1530 C   0  0  0  0  0  0  0  0  0  0  0  0
    6.0480   -2.9660   24.9050 C   0  0  0  0  0  0  0  0  0  0  0  0
    6.5530   -1.6590   25.1330 C   0  0  0  0  0  0  0  0  0  0  0  0
    5.9340   -0.5630   24.5240 O   0  0  0  0  0  0  0  0  0  0  0  0
    7.7530   -1.4670   26.0670 N   0  0  0  0  0  0  0  0  0  0  0  0
    8.9750   -1.1470   25.2690 C   0  0  0  0  0  0  0  0  0  0  0  0
    7.5620   -0.5390   27.1770 C   0  0  0  0  0  0  0  0  0  0  0  0
   10.1940   -0.4140   25.7790 C   0  0  0  0  0  0  0  0  0  0  0  0
    9.0200   -1.5270   23.9820 C   0  0  0  0  0  0  0  0  0  0  0  0
    8.6110   -0.6560   28.2510 C   0  0  0  0  0  0  0  0  0  0  0  0
    7.4560    0.8740   26.6130 C   0  0  0  0  0  0  0  0  0  0  0  0
   11.3220   -0.1540   24.9250 C   0  0  0  0  0  0  0  0  0  0  0  0
   10.1190   -1.2500   23.2180 C   0  0  0  0  0  0  0  0  0  0  0  0
   11.2610   -0.6060   23.5690 C   0  0  0  0  0  0  0  0  0  0  0  0
    9.9860   -1.7870   21.6810 S   0  0  0  0  0  0  0  0  0  0  0  0
    9.3210   -3.0150   21.8640 O   0  0  0  0  0  0  0  0  0  0  0  0
   11.3180   -1.6550   21.1470 O   0  0  0  0  0  0  0  0  0  0  0  0
    8.8300   -0.6530   21.1670 N   0  0  0  0  0  0  0  0  0  0  0  0
    7.8170   -1.0060   20.3420 C   0  0  0  0  0  0  0  0  0  0  0  0
    8.7040    0.7040   21.4650 C   0  0  0  0  0  0  0  0  0  0  0  0
    6.9790    0.1680   20.0790 C   0  0  0  0  0  0  0  0  0  0  0  0
    7.5690    1.2230   20.8060 C   0  0  0  0  0  0  0  0  0  0  0  0
    9.4500    1.6040   22.2410 C   0  0  0  0  0  0  0  0  0  0  0  0
    5.8880    0.0260   19.2510 C   0  0  0  0  0  0  0  0  0  0  0  0
    8.8740    2.8250   22.5880 C   0  0  0  0  0  0  0  0  0  0  0  0
   10.7580    1.3300   22.6660 C   0  0  0  0  0  0  0  0  0  0  0  0
    6.2010    0.9250   18.1580 N   0  0  0  0  0  0  0  0  0  0  0  0
    9.5880    3.7530   23.3330 C   0  0  0  0  0  0  0  0  0  0  0  0
   11.4780    2.2500   23.4070 C   0  0  0  0  0  0  0  0  0  0  0  0
   11.3600    0.1700   22.3580 F   0  0  0  0  0  0  0  0  0  0  0  0
    5.0180    1.6750   17.8200 C   0  0  0  0  0  0  0  0  0  0  0  0
   10.8870    3.4660   23.7360 C   0  0  0  0  0  0  0  0  0  0  0  0
  1  2  1  0
  2  3  2  0
  2  4  1  0
  4  5  1  0
  4  6  1  0
  5  7  1  0
  6  8  1  0
  7  9  1  0
  8  9  1  0
  9 10  1  0
 10 11  2  0
 10 12  1  0
 12 13  1  0
 12 14  1  0
 13 15  2  0
 13 16  1  0
 14 17  1  0
 14 18  1  0
 15 19  1  0
 16 20  2  0
 19 21  2  0
 20 21  1  0
 22 20  1  0
 22 23  2  0
 22 24  2  0
 22 25  1  0
 25 26  1  0
 25 27  1  0
 26 28  2  0
 27 29  2  0
 28 29  1  0
 27 30  1  0
 28 31  1  0
 30 32  2  0
 30 33  1  0
 31 34  1  0
 32 35  1  0
 33 36  2  0
 33 37  1  0
 34 38  1  0
 35 39  2  0
 36 39  1  0
M  END
