MAK-UNK-9e4a73aa-27
     RDKit          3D

 26 29  0  0  0  0  0  0  0  0999 V2000
    6.9570   -0.8280   25.7130 O   0  0  0  0  0  0  0  0  0  0  0  0
    7.7960   -1.0250   24.8300 C   0  0  0  0  0  0  0  0  0  0  0  0
    8.7590    0.0690   24.3860 C   0  0  0  0  0  0  0  0  0  0  0  0
    7.9930   -2.2210   24.1300 N   0  0  0  0  0  0  0  0  0  0  0  0
    8.4270    1.5000   24.6030 C   0  0  0  0  0  0  0  0  0  0  0  0
    9.9490   -0.2870   23.7740 C   0  0  0  0  0  0  0  0  0  0  0  0
    9.2400   -2.6350   24.0000 C   0  0  0  0  0  0  0  0  0  0  0  0
    7.4390   -2.1160   22.9280 C   0  0  0  0  0  0  0  0  0  0  0  0
    9.3560    2.4320   24.1650 C   0  0  0  0  0  0  0  0  0  0  0  0
   10.8770    0.6660   23.3600 C   0  0  0  0  0  0  0  0  0  0  0  0
   10.1480   -1.6280   23.6070 N   0  0  0  0  0  0  0  0  0  0  0  0
    9.6050   -3.7870   24.1760 O   0  0  0  0  0  0  0  0  0  0  0  0
    8.3780   -1.5590   21.9810 C   0  0  0  0  0  0  0  0  0  0  0  0
    6.1700   -2.4310   22.5000 C   0  0  0  0  0  0  0  0  0  0  0  0
    9.1250    3.7450   24.3150 F   0  0  0  0  0  0  0  0  0  0  0  0
   10.5720    2.0280   23.5500 C   0  0  0  0  0  0  0  0  0  0  0  0
   11.3400   -2.0390   23.5210 C   0  0  0  0  0  0  0  0  0  0  0  0
    7.9160   -1.3540   20.7100 C   0  0  0  0  0  0  0  0  0  0  0  0
    5.7420   -2.2200   21.1990 N   0  0  0  0  0  0  0  0  0  0  0  0
   11.6950    3.2120   23.0180 Cl  0  0  0  0  0  0  0  0  0  0  0  0
   12.0780   -2.2940   24.8040 C   0  0  0  0  0  0  0  0  0  0  0  0
   11.9130   -2.2330   22.3230 C   0  0  0  0  0  0  0  0  0  0  0  0
    6.6150   -1.6780   20.3360 C   0  0  0  0  0  0  0  0  0  0  0  0
   13.4460   -2.7830   24.7810 C   0  0  0  0  0  0  0  0  0  0  0  0
   13.1860   -2.6850   22.2620 C   0  0  0  0  0  0  0  0  0  0  0  0
   13.9350   -2.9650   23.3880 C   0  0  0  0  0  0  0  0  0  0  0  0
  1  2  2  0
  2  3  1  0
  2  4  1  0
  3  5  2  0
  3  6  1  0
  4  7  1  0
  4  8  1  0
  5  9  1  0
  6 10  2  0
  6 11  1  0
  7 11  1  0
  7 12  2  0
  8 13  2  0
  8 14  1  0
  9 15  1  0
  9 16  2  0
 10 16  1  0
 11 17  1  0
 13 18  1  0
 14 19  2  0
 16 20  1  0
 17 21  2  0
 17 22  1  0
 18 23  2  0
 19 23  1  0
 21 24  1  0
 22 25  2  0
 24 26  2  0
 25 26  1  0
M  END
