MAK-UNK-748f8b7a-1
     RDKit          3D

 16 17  0  0  0  0  0  0  0  0999 V2000
    5.0910  -28.6020   -1.4230 O   0  0  0  0  0  0  0  0  0  0  0  0
    4.7440  -27.6960   -0.6620 C   0  0  0  0  0  0  0  0  0  0  0  0
    5.3110  -27.6010    0.7390 C   0  0  0  0  0  0  0  0  0  0  0  0
    3.7320  -26.5920   -1.0080 C   0  0  0  0  0  0  0  0  0  0  0  0
    6.4690  -28.5010    1.0360 C   0  0  0  0  0  0  0  0  0  0  0  0
    3.4300  -25.7180    0.1480 N   0  0  0  0  0  0  0  0  0  0  0  0
    7.7680  -28.0350    1.0930 C   0  0  0  0  0  0  0  0  0  0  0  0
    6.3290  -29.8540    1.2780 C   0  0  0  0  0  0  0  0  0  0  0  0
    4.4290  -24.6310    0.3050 C   0  0  0  0  0  0  0  0  0  0  0  0
    2.0440  -25.2290    0.1450 C   0  0  0  0  0  0  0  0  0  0  0  0
    8.8370  -28.8100    1.3610 N   0  0  0  0  0  0  0  0  0  0  0  0
    7.3590  -30.6790    1.5520 N   0  0  0  0  0  0  0  0  0  0  0  0
    4.0600  -23.2620   -0.3280 C   0  0  0  0  0  0  0  0  0  0  0  0
    1.8890  -23.7980    0.6600 C   0  0  0  0  0  0  0  0  0  0  0  0
    8.5740  -30.1070    1.5810 C   0  0  0  0  0  0  0  0  0  0  0  0
    2.6810  -22.8030   -0.0720 N   0  0  0  0  0  0  0  0  0  0  0  0
  1  2  2  0
  2  3  1  0
  2  4  1  0
  3  5  1  0
  4  6  1  0
  5  7  2  0
  5  8  1  0
  6  9  1  0
  6 10  1  0
  7 11  1  0
  8 12  2  0
  9 13  1  0
 10 14  1  0
 11 15  2  0
 12 15  1  0
 13 16  1  0
 14 16  1  0
M  END
