MAK-UNK-3e0761f8-5-chloroacetamide
     RDKit          3D

 20 22  0  0  0  0  0  0  0  0999 V2000
    7.1450   -3.0050   18.8330 C   0  0  0  0  0  0  0  0  0  0  0  0
    6.1890   -3.4110   19.9220 C   0  0  0  0  0  0  0  0  0  0  0  0
    5.2560   -4.1760   19.7040 O   0  0  0  0  0  0  0  0  0  0  0  0
    6.3950   -2.9460   21.1740 N   0  0  0  0  0  0  0  0  0  0  0  0
    6.3170   -3.7160   22.4060 C   0  0  0  0  0  0  0  0  0  0  0  0
    6.9380   -1.6230   21.4970 C   0  0  1  0  0  0  0  0  0  0  0  0
    6.7660   -2.6660   23.4410 C   0  0  2  0  0  0  0  0  0  0  0  0
    6.2120   -1.3530   22.8110 C   0  0  0  0  0  0  0  0  0  0  0  0
    8.4240   -1.7460   21.9330 C   0  0  0  0  0  0  0  0  0  0  0  0
    8.2790   -2.4130   23.3220 C   0  0  1  0  0  0  0  0  0  0  0  0
    8.6800   -1.6710   24.5740 C   0  0  0  0  0  0  0  0  0  0  0  0
    7.8040   -1.2800   25.3480 O   0  0  0  0  0  0  0  0  0  0  0  0
   10.0330   -1.4760   24.7610 N   0  0  0  0  0  0  0  0  0  0  0  0
   10.6540   -0.3090   24.2710 C   0  0  0  0  0  0  0  0  0  0  0  0
   11.6270   -0.8210   23.5160 C   0  0  0  0  0  0  0  0  0  0  0  0
   10.4060    0.9920   24.4460 N   0  0  0  0  0  0  0  0  0  0  0  0
   12.4780   -0.0730   22.8420 C   0  0  0  0  0  0  0  0  0  0  0  0
   11.2920    1.8000   23.7620 C   0  0  0  0  0  0  0  0  0  0  0  0
   13.3530   -0.8310   22.1330 C   0  0  0  0  0  0  0  0  0  0  0  0
   12.3350    1.3240   22.9590 C   0  0  0  0  0  0  0  0  0  0  0  0
  1  2  1  0
  2  3  2  0
  2  4  1  0
  4  5  1  0
  4  6  1  0
  7  5  1  6
  6  8  1  0
  7  8  1  0
  6  9  1  1
  7 10  1  0
  9 10  1  0
 10 11  1  1
 11 12  2  0
 11 13  1  0
 13 14  1  0
 14 15  2  0
 14 16  1  0
 15 17  1  0
 16 18  2  0
 17 19  1  0
 17 20  2  0
 18 20  1  0
M  END
