MAK-UNK-e05327b2-6-acrylamide
     RDKit          3D

 61 68  0  0  0  0  0  0  0  0999 V2000
    7.3370   -3.0990   19.0710 C   0  0  0  0  0  0  0  0  0  0  0  0
    6.9630   -3.1490   20.5460 C   0  0  0  0  0  0  0  0  0  0  0  0
    6.1510   -4.3920   20.7420 C   0  0  0  0  0  0  0  0  0  0  0  0
    5.1970   -4.6350   19.9970 O   0  0  0  0  0  0  0  0  0  0  0  0
    6.5250   -5.2350   21.7550 N   0  0  0  0  0  0  0  0  0  0  0  0
    7.4400   -4.8530   22.8470 C   0  0  0  0  0  0  0  0  0  0  0  0
    5.6800   -6.3760   22.0600 C   0  0  0  0  0  0  0  0  0  0  0  0
    6.4700   -4.2820   23.8900 C   0  0  0  0  0  0  0  0  0  0  0  0
    4.8190   -6.0760   23.2800 C   0  0  0  0  0  0  0  0  0  0  0  0
    5.6470   -5.4350   24.3390 N   0  0  0  0  0  0  0  0  0  0  0  0
    4.9430   -5.3190   25.8680 S   0  0  0  0  0  0  0  0  0  0  0  0
    5.9950   -5.1480   26.8390 O   0  0  0  0  0  0  0  0  0  0  0  0
    3.9950   -6.4060   25.9820 O   0  0  0  0  0  0  0  0  0  0  0  0
    4.0650   -3.8470   25.9460 C   0  0  0  0  0  0  0  0  0  0  0  0
    4.7230   -2.4650   26.1330 C   0  0  0  0  0  0  0  0  0  0  0  0
    2.3380   -3.8060   25.8170 S   0  0  0  0  0  0  0  0  0  0  0  0
    3.5870   -1.4720   26.1480 C   0  0  0  0  0  0  0  0  0  0  0  0
    2.2100   -2.0920   25.9850 C   0  0  0  0  0  0  0  0  0  0  0  0
    0.9990   -1.3790   25.9740 C   0  0  0  0  0  0  0  0  0  0  0  0
    0.3620   -1.1460   27.1030 N   0  0  0  0  0  0  0  0  0  0  0  0
   -0.9910   -1.3930   26.9590 C   0  0  0  0  0  0  0  0  0  0  0  0
    0.9040   -1.7440   28.3270 C   0  0  0  0  0  0  0  0  0  0  0  0
   -1.7420   -0.8950   28.0270 C   0  0  0  0  0  0  0  0  0  0  0  0
   -0.0550   -1.7140   29.5310 C   0  0  0  0  0  0  0  0  0  0  0  0
   -1.1560   -0.7230   29.3040 N   0  0  0  0  0  0  0  0  0  0  0  0
   -2.2940   -0.6260   30.5790 S   0  0  0  0  0  0  0  0  0  0  0  0
   -2.0770   -1.8070   31.3850 O   0  0  0  0  0  0  0  0  0  0  0  0
   -3.5850   -0.3060   30.0110 O   0  0  0  0  0  0  0  0  0  0  0  0
   -1.7390    0.8120   31.4860 C   0  0  0  0  0  0  0  0  0  0  0  0
   -0.8460    1.8030   30.7970 C   0  0  0  0  0  0  0  0  0  0  0  0
   -2.1270    1.0400   32.8490 C   0  0  0  0  0  0  0  0  0  0  0  0
   -0.3760    3.0000   31.5250 C   0  0  0  0  0  0  0  0  0  0  0  0
   -1.6620    2.2070   33.5400 C   0  0  0  0  0  0  0  0  0  0  0  0
   -2.9630    0.1720   33.5930 C   0  0  0  0  0  0  0  0  0  0  0  0
   -0.8250    3.1610   32.9350 C   0  0  0  0  0  0  0  0  0  0  0  0
   -2.0410    2.4380   34.8770 C   0  0  0  0  0  0  0  0  0  0  0  0
   -3.3370    0.4070   34.9310 C   0  0  0  0  0  0  0  0  0  0  0  0
   -2.8700    1.5610   35.5860 C   0  0  0  0  0  0  0  0  0  0  0  0
   -4.1650   -0.5470   35.5290 C   0  0  0  0  0  0  0  0  0  0  0  0
   -3.2050    1.8530   36.9090 C   0  0  0  0  0  0  0  0  0  0  0  0
   -3.5660   -1.6850   36.0680 C   0  0  0  0  0  0  0  0  0  0  0  0
   -3.3120    3.2120   37.1070 N   0  0  0  0  0  0  0  0  0  0  0  0
   -2.0680   -1.7050   36.1960 C   0  0  0  0  0  0  0  0  0  0  0  0
   -2.1320    3.7470   37.8150 C   0  0  0  0  0  0  0  0  0  0  0  0
   -4.5560    3.5470   37.8510 C   0  0  0  0  0  0  0  0  0  0  0  0
   -1.3490   -1.4250   37.4020 C   0  0  0  0  0  0  0  0  0  0  0  0
   -1.1930   -1.9960   35.1650 C   0  0  0  0  0  0  0  0  0  0  0  0
   -2.4090    4.0840   39.1430 C   0  0  0  0  0  0  0  0  0  0  0  0
   -4.6230    4.8640   38.3200 C   0  0  0  0  0  0  0  0  0  0  0  0
    0.0150   -1.5120   37.2400 C   0  0  0  0  0  0  0  0  0  0  0  0
    0.4460   -1.9290   35.6440 S   0  0  0  0  0  0  0  0  0  0  0  0
   -3.4290    5.1780   39.1600 N   0  0  0  0  0  0  0  0  0  0  0  0
   -3.8070    5.8380   40.6860 S   0  0  0  0  0  0  0  0  0  0  0  0
   -4.8630    6.8120   40.4890 O   0  0  0  0  0  0  0  0  0  0  0  0
   -2.5720    6.2020   41.3510 O   0  0  0  0  0  0  0  0  0  0  0  0
   -4.5380    4.5900   41.7210 C   0  0  2  0  0  0  0  0  0  0  0  0
   -5.8410    4.6720   42.2370 C   0  0  0  0  0  0  0  0  0  0  0  0
   -3.5730    4.3550   43.1120 S   0  0  0  0  0  0  0  0  0  0  0  0
   -5.9890    3.8970   43.3710 C   0  0  0  0  0  0  0  0  0  0  0  0
   -4.7630    3.3670   43.7810 C   0  0  2  0  0  0  0  0  0  0  0  0
   -4.5210    3.0760   45.4540 Cl  0  0  0  0  0  0  0  0  0  0  0  0
  1  2  1  0
  2  3  1  0
  3  4  2  0
  3  5  1  0
  5  6  1  0
  5  7  1  0
  6  8  1  0
  7  9  1  0
  8 10  1  0
  9 10  1  0
 10 11  1  0
 11 12  2  0
 11 13  2  0
 11 14  1  0
 14 15  2  0
 14 16  1  0
 15 17  1  0
 16 18  1  0
 17 18  2  0
 18 19  1  0
 19 20  1  0
 20 21  1  0
 20 22  1  0
 21 23  1  0
 22 24  1  0
 23 25  1  0
 24 25  1  0
 25 26  1  0
 26 27  2  0
 26 28  2  0
 26 29  1  0
 29 30  2  0
 29 31  1  0
 30 32  1  0
 31 33  2  0
 31 34  1  0
 32 35  2  0
 33 35  1  0
 33 36  1  0
 34 37  2  0
 36 38  2  0
 37 38  1  0
 37 39  1  0
 38 40  1  0
 39 41  1  0
 40 42  1  0
 41 43  1  0
 42 44  1  0
 42 45  1  0
 43 46  1  0
 43 47  2  0
 44 48  1  0
 45 49  1  0
 46 50  2  0
 47 51  1  0
 50 51  1  0
 48 52  1  0
 49 52  1  0
 53 52  1  0
 53 54  2  0
 53 55  2  0
 56 53  1  1
 56 57  1  0
 56 58  1  0
 57 59  1  0
 58 60  1  0
 59 60  1  0
 60 61  1  1
M  END
