MAK-UNK-10799360-34-acrylamide
     RDKit          3D

 26 29  0  0  0  0  0  0  0  0999 V2000
    7.7680   -2.6900   18.7200 C   0  0  0  0  0  0  0  0  0  0  0  0
    6.2610   -2.8240   18.7910 C   0  0  0  0  0  0  0  0  0  0  0  0
    5.8000   -3.4760   20.0380 C   0  0  0  0  0  0  0  0  0  0  0  0
    5.2010   -4.5380   19.9810 O   0  0  0  0  0  0  0  0  0  0  0  0
    6.0850   -2.8170   21.2000 N   0  0  0  0  0  0  0  0  0  0  0  0
    6.9640   -1.6370   21.1600 C   0  0  0  0  0  0  0  0  0  0  0  0
    6.4310   -3.4490   22.4760 C   0  0  1  0  0  0  0  0  0  0  0  0
    8.1750   -2.1510   21.9420 C   0  0  2  0  0  0  0  0  0  0  0  0
    7.8770   -3.6810   22.1360 C   0  0  0  0  0  0  0  0  0  0  0  0
    6.7330   -2.4810   23.6020 C   0  0  0  0  0  0  0  0  0  0  0  0
    8.0330   -1.7120   23.4130 C   0  0  1  0  0  0  0  0  0  0  0  0
    9.1570   -2.2160   24.2160 N   0  0  0  0  0  0  0  0  0  0  0  0
   10.3650   -1.4910   23.9030 C   0  0  0  0  0  0  0  0  0  0  0  0
    8.8150   -3.0940   25.3030 C   0  0  0  0  0  0  0  0  0  0  0  0
   10.7690   -0.3170   24.5630 C   0  0  0  0  0  0  0  0  0  0  0  0
   11.1710   -1.9660   22.8500 C   0  0  0  0  0  0  0  0  0  0  0  0
    7.8460   -2.7810   26.2770 C   0  0  0  0  0  0  0  0  0  0  0  0
    9.4390   -4.3330   25.4040 C   0  0  0  0  0  0  0  0  0  0  0  0
   11.9370    0.3460   24.1650 C   0  0  0  0  0  0  0  0  0  0  0  0
   12.3350   -1.3030   22.4570 C   0  0  0  0  0  0  0  0  0  0  0  0
    7.5300   -3.6750   27.3070 C   0  0  0  0  0  0  0  0  0  0  0  0
    9.1120   -5.2310   26.4220 C   0  0  0  0  0  0  0  0  0  0  0  0
   12.6810   -0.1580   23.1360 C   0  0  0  0  0  0  0  0  0  0  0  0
   13.1270   -1.8420   21.3360 C   0  0  0  0  0  0  0  0  0  0  0  0
    8.1640   -4.9070   27.3810 C   0  0  0  0  0  0  0  0  0  0  0  0
    9.7390   -6.4660   26.4600 N   0  0  0  0  0  0  0  0  0  0  0  0
  1  2  1  0
  2  3  1  0
  3  4  2  0
  3  5  1  0
  5  6  1  0
  5  7  1  0
  8  6  1  6
  7  9  1  0
  8  9  1  0
  7 10  1  1
  8 11  1  0
 10 11  1  0
 11 12  1  1
 12 13  1  0
 12 14  1  0
 13 15  2  0
 13 16  1  0
 14 17  2  0
 14 18  1  0
 15 19  1  0
 16 20  2  0
 17 21  1  0
 18 22  2  0
 19 23  2  0
 20 23  1  0
 20 24  1  0
 21 25  2  0
 22 25  1  0
 22 26  1  0
M  END
