MAK-UNK-516d8086-22-chloroacetamide
     RDKit          3D

 23 25  0  0  0  0  0  0  0  0999 V2000
    8.8830   -4.1110   20.2630 C   0  0  0  0  0  0  0  0  0  0  0  0
    7.5970   -4.0390   19.8440 C   0  0  0  0  0  0  0  0  0  0  0  0
    6.3990   -3.7740   19.6410 O   0  0  0  0  0  0  0  0  0  0  0  0
    7.6140   -2.9730   20.8410 C   0  0  0  0  0  0  0  0  0  0  0  0
    9.0100   -2.4350   21.2110 C   0  0  0  0  0  0  0  0  0  0  0  0
    6.3830   -2.5780   21.3290 N   0  0  0  0  0  0  0  0  0  0  0  0
    8.9670   -1.3380   22.2030 C   0  0  0  0  0  0  0  0  0  0  0  0
    6.4060   -1.6010   22.2560 N   0  0  0  0  0  0  0  0  0  0  0  0
   10.2750   -0.6730   22.6460 C   0  0  0  0  0  0  0  0  0  0  0  0
    7.6160   -0.9390   22.7480 C   0  0  0  0  0  0  0  0  0  0  0  0
   11.0130   -1.4440   23.5190 C   0  0  0  0  0  0  0  0  0  0  0  0
    7.4730    0.0680   23.7720 N   0  0  0  0  0  0  0  0  0  0  0  0
   12.3300   -1.2320   24.0380 C   0  0  0  0  0  0  0  0  0  0  0  0
   10.2850   -2.5480   23.8770 C   0  0  0  0  0  0  0  0  0  0  0  0
    7.2690   -0.7120   25.0080 C   0  0  0  0  0  0  0  0  0  0  0  0
   12.8510   -2.1640   24.9360 C   0  0  0  0  0  0  0  0  0  0  0  0
   10.8340   -3.3970   24.7330 C   0  0  0  0  0  0  0  0  0  0  0  0
    8.3410   -1.6230   25.1630 C   0  0  0  0  0  0  0  0  0  0  0  0
   12.0390   -3.2390   25.2610 C   0  0  0  0  0  0  0  0  0  0  0  0
   10.0280   -4.6580   25.1470 C   0  0  0  0  0  0  0  0  0  0  0  0
    9.5750   -4.7100   24.0090 O   0  0  0  0  0  0  0  0  0  0  0  0
   10.7220   -4.3050   26.2970 N   0  0  0  0  0  0  0  0  0  0  0  0
   12.2060   -4.2560   26.0990 C   0  0  0  0  0  0  0  0  0  0  0  0
  1  2  1  0
  2  3  2  0
  2  4  1  0
  4  5  2  0
  4  6  1  0
  5  7  1  0
  6  8  2  0
  7  9  1  0
  7 10  2  0
  8 10  1  0
  9 11  1  0
 10 12  1  0
 11 13  2  0
 11 14  1  0
 12 15  1  0
 13 16  1  0
 14 17  2  0
 15 18  1  0
 16 19  2  0
 17 19  1  0
 17 20  1  0
 20 21  2  0
 20 22  1  0
 19 23  1  0
 22 23  1  0
M  END
