MAK-UNK-5d2caa6f-23-acrylamide
     RDKit          3D

 29 32  0  0  0  0  0  0  0  0999 V2000
    7.3570   -2.8070   18.2600 C   0  0  0  0  0  0  0  0  0  0  0  0
    6.3220   -2.2820   19.2180 C   0  0  0  0  0  0  0  0  0  0  0  0
    5.8320   -3.2840   20.2320 C   0  0  0  0  0  0  0  0  0  0  0  0
    5.2000   -4.3100   19.9320 O   0  0  0  0  0  0  0  0  0  0  0  0
    6.1510   -2.9540   21.5300 N   0  0  0  0  0  0  0  0  0  0  0  0
    6.8530   -3.8430   22.3560 C   0  0  0  0  0  0  0  0  0  0  0  0
    6.5920   -1.6060   21.9000 C   0  0  1  0  0  0  0  0  0  0  0  0
    6.9490   -2.7540   23.4330 C   0  0  2  0  0  0  0  0  0  0  0  0
    5.9080   -1.7030   23.1180 C   0  0  0  0  0  0  0  0  0  0  0  0
    7.9680   -1.5620   22.2240 C   0  0  0  0  0  0  0  0  0  0  0  0
    8.1030   -2.0410   23.4330 N   0  0  0  0  0  0  0  0  0  0  0  0
    9.2790   -2.5670   23.7990 C   0  0  0  0  0  0  0  0  0  0  0  0
   10.3310   -1.6870   23.6350 C   0  0  0  0  0  0  0  0  0  0  0  0
   11.2460   -2.0160   22.6410 C   0  0  0  0  0  0  0  0  0  0  0  0
   10.4900   -0.4990   24.4070 C   0  0  0  0  0  0  0  0  0  0  0  0
   12.4210   -1.1430   22.3390 C   0  0  0  0  0  0  0  0  0  0  0  0
   11.5850    0.3330   24.1160 C   0  0  0  0  0  0  0  0  0  0  0  0
    9.4990   -0.1360   25.5340 C   0  0  0  0  0  0  0  0  0  0  0  0
   13.4390   -1.6640   21.1080 Cl  0  0  0  0  0  0  0  0  0  0  0  0
   12.6150    0.0300   23.0500 C   0  0  0  0  0  0  0  0  0  0  0  0
    8.9420    1.2330   25.4480 N   0  0  0  0  0  0  0  0  0  0  0  0
    7.8560    1.6860   26.3310 C   0  0  0  0  0  0  0  0  0  0  0  0
    7.6040    1.1210   27.4000 O   0  0  0  0  0  0  0  0  0  0  0  0
    7.1200    2.7920   25.9330 C   0  0  2  0  0  0  0  0  0  0  0  0
    7.0740    3.9920   26.9000 C   0  0  0  0  0  0  0  0  0  0  0  0
    5.6920    2.3560   25.5910 C   0  0  0  0  0  0  0  0  0  0  0  0
    5.8720    4.1650   27.7990 C   0  0  0  0  0  0  0  0  0  0  0  0
    4.9030    2.1820   26.7710 O   0  0  0  0  0  0  0  0  0  0  0  0
    4.5840    3.4250   27.3910 C   0  0  0  0  0  0  0  0  0  0  0  0
  1  2  1  0
  2  3  1  0
  3  4  2  0
  3  5  1  0
  5  6  1  0
  5  7  1  0
  8  6  1  6
  7  9  1  0
  8  9  1  0
  7 10  1  1
  8 11  1  0
 10 11  1  0
 11 12  1  0
 12 13  1  0
 13 14  2  0
 13 15  1  0
 14 16  1  0
 15 17  2  0
 15 18  1  0
 16 19  1  0
 16 20  2  0
 17 20  1  0
 18 21  1  0
 21 22  1  0
 22 23  2  0
 24 22  1  1
 24 25  1  0
 24 26  1  0
 25 27  1  0
 26 28  1  0
 27 29  1  0
 28 29  1  0
M  END
