MAK-UNK-9e4a73aa-23
     RDKit          3D

 26 29  0  0  0  0  0  0  0  0999 V2000
    7.6720   -0.7010   24.7190 O   0  0  0  0  0  0  0  0  0  0  0  0
    8.6000   -0.8600   23.9160 C   0  0  0  0  0  0  0  0  0  0  0  0
    9.5110    0.2970   23.5340 C   0  0  0  0  0  0  0  0  0  0  0  0
    8.8800   -2.0560   23.2620 N   0  0  0  0  0  0  0  0  0  0  0  0
    9.0250    1.6940   23.7250 C   0  0  0  0  0  0  0  0  0  0  0  0
   10.7730    0.0540   23.0190 C   0  0  0  0  0  0  0  0  0  0  0  0
   10.0380   -2.1540   22.5590 C   0  0  0  0  0  0  0  0  0  0  0  0
    7.9060   -2.1270   22.3880 C   0  0  0  0  0  0  0  0  0  0  0  0
    9.8930    2.7160   23.3780 C   0  0  0  0  0  0  0  0  0  0  0  0
   11.6220    1.0870   22.6940 C   0  0  0  0  0  0  0  0  0  0  0  0
   11.0860   -1.2640   22.8730 N   0  0  0  0  0  0  0  0  0  0  0  0
   10.1800   -2.9580   21.6640 O   0  0  0  0  0  0  0  0  0  0  0  0
    8.3470   -1.2900   21.3200 C   0  0  0  0  0  0  0  0  0  0  0  0
    6.6900   -2.7620   22.3260 C   0  0  0  0  0  0  0  0  0  0  0  0
    9.5360    4.0010   23.5200 F   0  0  0  0  0  0  0  0  0  0  0  0
   11.1890    2.4300   22.8680 C   0  0  0  0  0  0  0  0  0  0  0  0
   11.8660   -1.8620   23.7240 C   0  0  0  0  0  0  0  0  0  0  0  0
    7.5030   -1.1330   20.2570 C   0  0  0  0  0  0  0  0  0  0  0  0
    5.8500   -2.5950   21.2310 N   0  0  0  0  0  0  0  0  0  0  0  0
   12.2390    3.7310   22.4600 Cl  0  0  0  0  0  0  0  0  0  0  0  0
   13.2860   -1.4900   24.1550 C   0  0  0  0  0  0  0  0  0  0  0  0
   11.3180   -2.9330   24.2710 C   0  0  0  0  0  0  0  0  0  0  0  0
    6.2670   -1.7810   20.2300 C   0  0  0  0  0  0  0  0  0  0  0  0
   13.9760   -2.3700   25.1700 C   0  0  0  0  0  0  0  0  0  0  0  0
   11.9630   -3.6850   25.1660 C   0  0  0  0  0  0  0  0  0  0  0  0
   13.2270   -3.4950   25.6460 C   0  0  0  0  0  0  0  0  0  0  0  0
  1  2  2  0
  2  3  1  0
  2  4  1  0
  3  5  2  0
  3  6  1  0
  4  7  1  0
  4  8  1  0
  5  9  1  0
  6 10  2  0
  6 11  1  0
  7 11  1  0
  7 12  2  0
  8 13  2  0
  8 14  1  0
  9 15  1  0
  9 16  2  0
 10 16  1  0
 11 17  1  0
 13 18  1  0
 14 19  2  0
 16 20  1  0
 17 21  2  0
 17 22  1  0
 18 23  2  0
 19 23  1  0
 21 24  1  0
 22 25  2  0
 24 26  2  0
 25 26  1  0
M  END
