MAK-UNK-3e0761f8-7-nitrile
     RDKit          3D

 25 28  0  0  0  0  0  0  0  0999 V2000
    6.8860   -3.4890   19.7520 C   0  0  0  0  0  0  0  0  0  0  0  0
    5.9280   -3.0980   18.9880 N   0  0  0  0  0  0  0  0  0  0  0  0
    7.6640   -2.5640   20.4540 N   0  0  0  0  0  0  0  0  0  0  0  0
    7.1970   -1.1980   20.6860 C   0  0  0  0  0  0  0  0  0  0  0  0
    8.8950   -2.7080   21.2960 C   0  0  1  0  0  0  0  0  0  0  0  0
    7.8830   -0.8780   22.0550 C   0  0  2  0  0  0  0  0  0  0  0  0
    9.3180   -1.2790   21.6940 C   0  0  0  0  0  0  0  0  0  0  0  0
    8.5090   -3.1630   22.7020 C   0  0  0  0  0  0  0  0  0  0  0  0
    7.6020   -1.9730   23.1150 C   0  0  1  0  0  0  0  0  0  0  0  0
    8.2460   -1.6020   24.4630 C   0  0  0  0  0  0  0  0  0  0  0  0
    9.4720   -1.5950   24.5850 O   0  0  0  0  0  0  0  0  0  0  0  0
    7.3340   -1.2740   25.4660 N   0  0  0  0  0  0  0  0  0  0  0  0
    6.7050    0.0270   25.3680 C   0  0  0  0  0  0  0  0  0  0  0  0
    6.4270   -2.2460   26.0830 C   0  0  0  0  0  0  0  0  0  0  0  0
    5.4570   -0.1500   24.5030 C   0  0  0  0  0  0  0  0  0  0  0  0
    4.9540   -2.1300   25.5840 C   0  0  1  0  0  0  0  0  0  0  0  0
    4.5620   -0.8650   24.9770 O   0  0  0  0  0  0  0  0  0  0  0  0
    4.7600   -3.1240   24.6120 C   0  0  0  0  0  0  0  0  0  0  0  0
    4.8190   -4.4290   24.7920 N   0  0  0  0  0  0  0  0  0  0  0  0
    4.4740   -2.8630   23.2970 N   0  0  0  0  0  0  0  0  0  0  0  0
    4.5620   -4.9440   23.5520 C   0  0  0  0  0  0  0  0  0  0  0  0
    4.3420   -3.9980   22.5890 N   0  0  0  0  0  0  0  0  0  0  0  0
    4.5290   -6.3210   23.3170 C   0  0  0  0  0  0  0  0  0  0  0  0
    3.7910   -7.0940   24.4440 C   0  0  0  0  0  0  0  0  0  0  0  0
    2.5720   -7.8680   23.8800 C   0  0  0  0  0  0  0  0  0  0  0  0
  1  2  2  3
  1  3  1  0
  3  4  1  0
  3  5  1  0
  6  4  1  6
  5  7  1  0
  6  7  1  0
  5  8  1  1
  6  9  1  0
  8  9  1  0
  9 10  1  1
 10 11  2  0
 10 12  1  0
 12 13  1  0
 12 14  1  0
 13 15  1  0
 14 16  1  0
 15 17  1  0
 16 17  1  0
 16 18  1  6
 18 19  2  0
 18 20  1  0
 19 21  1  0
 20 22  1  0
 21 22  2  0
 21 23  1  0
 23 24  1  0
 24 25  1  0
M  END
