MAK-UNK-8fdbca50-36-chloroacetamide
     RDKit          3D

 39 42  0  0  0  0  0  0  0  0999 V2000
    8.7840   -3.6790   20.9120 C   0  0  0  0  0  0  0  0  0  0  0  0
    7.8360   -2.6180   20.6730 C   0  0  0  0  0  0  0  0  0  0  0  0
    6.8710   -2.9970   19.6130 O   0  0  0  0  0  0  0  0  0  0  0  0
    8.2630   -1.3970   21.6930 N   0  0  0  0  0  0  0  0  0  0  0  0
    9.4230   -0.5660   21.4130 C   0  0  0  0  0  0  0  0  0  0  0  0
    8.4260   -1.1880   23.2390 C   0  0  2  0  0  0  0  0  0  0  0  0
   10.7720   -1.0090   21.9120 C   0  0  0  0  0  0  0  0  0  0  0  0
    9.5440   -1.7340   23.8370 C   0  0  0  0  0  0  0  0  0  0  0  0
    7.2780   -1.3070   23.9550 N   0  0  0  0  0  0  0  0  0  0  0  0
   10.7640   -1.7940   22.9780 C   0  0  2  0  0  0  0  0  0  0  0  0
    7.5700   -1.8290   25.1950 C   0  0  0  0  0  0  0  0  0  0  0  0
   11.7910   -1.6280   23.8650 C   0  0  0  0  0  0  0  0  0  0  0  0
    6.7770   -1.2810   26.2000 C   0  0  0  0  0  0  0  0  0  0  0  0
   11.6700   -1.6930   25.2340 O   0  0  0  0  0  0  0  0  0  0  0  0
   13.0300   -1.3980   23.1550 N   0  0  0  0  0  0  0  0  0  0  0  0
    6.3450   -1.9680   27.3210 C   0  0  0  0  0  0  0  0  0  0  0  0
    6.2260    0.0210   26.3430 C   0  0  0  0  0  0  0  0  0  0  0  0
   13.1670    0.0720   22.8640 C   0  0  0  0  0  0  0  0  0  0  0  0
   13.2180   -2.3780   22.0400 C   0  0  0  0  0  0  0  0  0  0  0  0
    5.5900   -1.1700   28.0930 C   0  0  0  0  0  0  0  0  0  0  0  0
    5.4810    0.0720   27.5370 N   0  0  0  0  0  0  0  0  0  0  0  0
   13.5080   -1.6290   20.9100 C   0  0  0  0  0  0  0  0  0  0  0  0
   11.9890   -3.0870   21.4960 C   0  0  0  0  0  0  0  0  0  0  0  0
    4.9760   -1.4910   29.2840 C   0  0  0  0  0  0  0  0  0  0  0  0
    4.6220    1.4320   28.1300 S   0  0  0  0  0  0  0  0  0  0  0  0
    5.1580   -0.6710   30.4040 C   0  0  0  0  0  0  0  0  0  0  0  0
    4.1530   -2.6350   29.4350 C   0  0  0  0  0  0  0  0  0  0  0  0
    5.0590    1.6710   29.4890 O   0  0  0  0  0  0  0  0  0  0  0  0
    4.7370    2.4570   27.1100 O   0  0  0  0  0  0  0  0  0  0  0  0
    2.9530    0.8870   28.1890 C   0  0  0  0  0  0  0  0  0  0  0  0
    4.5580   -0.9520   31.6160 C   0  0  0  0  0  0  0  0  0  0  0  0
    3.5440   -2.9150   30.6760 C   0  0  0  0  0  0  0  0  0  0  0  0
    3.9360   -3.4710   28.4070 F   0  0  0  0  0  0  0  0  0  0  0  0
    2.5830   -0.2940   27.5370 C   0  0  0  0  0  0  0  0  0  0  0  0
    2.0380    1.6610   28.8930 C   0  0  0  0  0  0  0  0  0  0  0  0
    3.7510   -2.0660   31.7640 C   0  0  0  0  0  0  0  0  0  0  0  0
    1.1110   -0.6870   27.6420 C   0  0  0  0  0  0  0  0  0  0  0  0
    0.7170    1.3820   29.0310 N   0  0  0  0  0  0  0  0  0  0  0  0
    0.2550    0.2580   28.4380 C   0  0  0  0  0  0  0  0  0  0  0  0
  1  2  1  0
  2  3  2  0
  2  4  1  0
  4  5  1  0
  4  6  1  0
  5  7  1  0
  6  8  1  0
  6  9  1  1
  7 10  1  0
  8 10  1  0
  9 11  1  0
 10 12  1  1
 11 13  1  0
 12 14  2  0
 12 15  1  0
 13 16  1  0
 13 17  2  0
 15 18  1  0
 15 19  1  0
 16 20  2  0
 17 21  1  0
 20 21  1  0
 19 22  1  0
 19 23  1  0
 20 24  1  0
 21 25  1  0
 24 26  2  0
 24 27  1  0
 25 28  2  0
 25 29  2  0
 25 30  1  0
 26 31  1  0
 27 32  2  0
 27 33  1  0
 30 34  2  0
 30 35  1  0
 31 36  2  0
 32 36  1  0
 34 37  1  0
 35 38  2  0
 37 39  2  0
 38 39  1  0
M  END
