MAK-UNK-148caf23-13-vinylsulfonamide
     RDKit          3D

 37 40  0  0  0  0  0  0  0  0999 V2000
    7.4910   -6.1330   21.5520 C   0  0  0  0  0  0  0  0  0  0  0  0
    6.9810   -5.5980   22.7870 C   0  0  0  0  0  0  0  0  0  0  0  0
    6.0810   -3.9210   22.6900 S   0  0  0  0  0  0  0  0  0  0  0  0
    4.8720   -4.5770   22.0940 O   0  0  0  0  0  0  0  0  0  0  0  0
    7.0580   -3.0140   21.9300 O   0  0  0  0  0  0  0  0  0  0  0  0
    5.2650   -3.4220   24.3440 C   0  0  0  0  0  0  0  0  0  0  0  0
    3.8380   -2.8620   24.4340 C   0  0  0  0  0  0  0  0  0  0  0  0
    5.3790   -3.4550   25.5440 C   0  0  0  0  0  0  0  0  0  0  0  0
    2.7650   -2.4830   23.5980 C   0  0  0  0  0  0  0  0  0  0  0  0
    4.0530   -2.9110   25.4030 N   0  0  0  0  0  0  0  0  0  0  0  0
    4.2300   -2.9880   23.9760 C   0  0  0  0  0  0  0  0  0  0  0  0
    5.0590   -3.2140   25.1630 N   0  0  0  0  0  0  0  0  0  0  0  0
    4.3020   -2.2420   26.2970 C   0  0  0  0  0  0  0  0  0  0  0  0
    3.9190   -3.1050   27.4340 C   0  0  1  0  0  0  0  0  0  0  0  0
    2.2010   -3.5530   27.8680 S   0  0  0  0  0  0  0  0  0  0  0  0
    4.3710   -3.7930   26.2120 C   0  0  0  0  0  0  0  0  0  0  0  0
    4.0600   -1.5870   27.8610 C   0  0  0  0  0  0  0  0  0  0  0  0
    1.7600   -2.2250   27.1190 O   0  0  0  0  0  0  0  0  0  0  0  0
    1.7040   -4.9890   27.8670 O   0  0  0  0  0  0  0  0  0  0  0  0
    2.4470   -2.8470   29.3310 C   0  0  0  0  0  0  0  0  0  0  0  0
    4.4760   -2.6750   25.4040 C   0  0  0  0  0  0  0  0  0  0  0  0
    4.1770   -1.6020   26.5390 C   0  0  0  0  0  0  0  0  0  0  0  0
    3.9010   -0.2360   27.3540 C   0  0  0  0  0  0  0  0  0  0  0  0
    3.6280   -2.3240   28.2920 C   0  0  0  0  0  0  0  0  0  0  0  0
    2.5410   -2.3360   30.5310 C   0  0  0  0  0  0  0  0  0  0  0  0
    4.5510   -4.1330   24.9130 C   0  0  0  0  0  0  0  0  0  0  0  0
    4.6860    0.0450   28.5500 C   0  0  0  0  0  0  0  0  0  0  0  0
    3.7320    1.2010   26.8130 C   0  0  0  0  0  0  0  0  0  0  0  0
    4.6810   -1.4180   28.8480 C   0  0  0  0  0  0  0  0  0  0  0  0
    3.3860   -1.4220   31.1740 N   0  0  0  0  0  0  0  0  0  0  0  0
    5.2180   -3.7620   26.0520 N   0  0  0  0  0  0  0  0  0  0  0  0
    4.7980    1.5080   28.4080 C   0  0  0  0  0  0  0  0  0  0  0  0
    3.5160    2.5550   26.2330 C   0  0  0  0  0  0  0  0  0  0  0  0
    4.4980    1.8950   27.7710 F   0  0  0  0  0  0  0  0  0  0  0  0
    4.3370   -1.2020   30.1950 C   0  0  0  0  0  0  0  0  0  0  0  0
    5.1080   -4.5310   27.1140 C   0  0  0  0  0  0  0  0  0  0  0  0
    4.2830    1.9270   27.5340 C   0  0  0  0  0  0  0  0  0  0  0  0
  1  2  1  0
  3  2  1  0
  3  4  2  0
  3  5  2  0
  3  6  1  0
  6  7  2  0
  6  8  1  0
  7  9  1  0
  8 10  2  0
  9 11  2  0
 10 11  1  0
 11 12  1  0
 12 13  1  0
 14 13  1  6
 14 15  1  0
 14 16  1  0
 14 17  1  0
 15 18  2  0
 15 19  2  0
 15 20  1  0
 16 21  2  0
 17 22  2  0
 21 22  1  0
 17 23  1  0
 20 24  2  0
 20 25  1  0
 21 26  1  0
 23 27  2  0
 23 28  1  0
 24 29  1  0
 25 30  2  0
 26 31  1  0
 27 32  1  0
 28 33  2  0
 28 34  1  0
 29 35  2  0
 30 35  1  0
 31 36  1  0
 32 37  2  0
 33 37  1  0
M  END
