MAK-UNK-c74072e5-3-nitrile
     RDKit          3D

 33 38  0  0  0  0  0  0  0  0999 V2000
    7.1270   -3.7990   20.4410 C   0  0  0  0  0  0  0  0  0  0  0  0
    5.9990   -4.3720   20.0390 N   0  0  0  0  0  0  0  0  0  0  0  0
    7.2970   -3.0310   21.8480 N   0  0  0  0  0  0  0  0  0  0  0  0
    6.7620   -3.3070   23.3200 C   0  0  0  0  0  0  0  0  0  0  0  0
    8.2840   -2.0470   22.3530 C   0  0  2  0  0  0  0  0  0  0  0  0
    6.4780   -2.1270   24.4730 C   0  0  0  0  0  0  0  0  0  0  0  0
    6.5120   -4.5040   23.7680 C   0  0  0  0  0  0  0  0  0  0  0  0
    9.2730   -1.5040   21.4490 C   0  0  0  0  0  0  0  0  0  0  0  0
    9.0340   -2.6870   23.5500 C   0  0  0  0  0  0  0  0  0  0  0  0
    5.9320   -2.0430   26.0530 C   0  0  0  0  0  0  0  0  0  0  0  0
    6.0430   -4.5680   25.0630 C   0  0  0  0  0  0  0  0  0  0  0  0
   10.6730   -1.4890   21.9390 C   0  0  0  0  0  0  0  0  0  0  0  0
   10.6720   -2.0680   23.5420 S   0  0  0  0  0  0  0  0  0  0  0  0
    5.7570   -3.5830   26.0970 C   0  0  0  0  0  0  0  0  0  0  0  0
   11.6290   -3.1200   23.7420 O   0  0  0  0  0  0  0  0  0  0  0  0
   10.6910   -0.8840   24.3380 O   0  0  0  0  0  0  0  0  0  0  0  0
    5.3470   -4.8060   26.8560 C   0  0  0  0  0  0  0  0  0  0  0  0
    5.0050   -5.8460   27.6040 C   0  0  0  0  0  0  0  0  0  0  0  0
    5.2440   -4.7740   25.6650 C   0  0  0  0  0  0  0  0  0  0  0  0
    4.6260   -6.9530   26.6720 C   0  0  0  0  0  0  0  0  0  0  0  0
    4.9640   -5.4990   24.6630 C   0  0  0  0  0  0  0  0  0  0  0  0
    5.4940   -3.4850   25.4800 O   0  0  0  0  0  0  0  0  0  0  0  0
    4.6340   -6.8050   25.0400 C   0  0  0  0  0  0  0  0  0  0  0  0
    5.4110   -3.2090   24.2680 C   0  0  0  0  0  0  0  0  0  0  0  0
    5.1930   -4.4040   23.6250 C   0  0  0  0  0  0  0  0  0  0  0  0
    5.5450   -1.8960   23.8150 C   0  0  0  0  0  0  0  0  0  0  0  0
    5.2190   -4.3370   22.2560 C   0  0  0  0  0  0  0  0  0  0  0  0
    5.4750   -1.7130   22.5030 C   0  0  0  0  0  0  0  0  0  0  0  0
    5.3320   -2.9790   21.7220 C   0  0  0  0  0  0  0  0  0  0  0  0
    5.1740   -5.4020   21.4390 C   0  0  0  0  0  0  0  0  0  0  0  0
    5.3450   -2.5990   20.3050 C   0  0  0  0  0  0  0  0  0  0  0  0
    5.2470   -5.1390   20.0830 C   0  0  0  0  0  0  0  0  0  0  0  0
    5.2990   -3.6630   19.5140 C   0  0  0  0  0  0  0  0  0  0  0  0
  1  2  2  3
  1  3  1  0
  3  4  1  0
  5  3  1  6
  4  6  2  0
  4  7  1  0
  5  8  1  0
  5  9  1  0
  6 10  1  0
  7 11  2  0
  8 12  2  0
  9 13  1  0
 13 12  1  0
 10 14  2  0
 11 14  1  0
 13 15  2  0
 13 16  2  0
 14 17  1  0
 17 18  2  0
 17 19  1  0
 18 20  1  0
 19 21  2  0
 19 22  1  0
 20 23  2  0
 21 23  1  0
 22 24  1  0
 21 25  1  0
 24 25  2  0
 24 26  1  0
 25 27  1  0
 26 28  2  0
 27 29  2  0
 28 29  1  0
 27 30  1  0
 29 31  1  0
 30 32  2  0
 31 33  2  0
 32 33  1  0
M  END
