MAK-UNK-702fb7d3-10-nitrile
     RDKit          3D

 41 46  0  0  0  0  0  0  0  0999 V2000
    7.2490   -5.0650   20.3120 C   0  0  0  0  0  0  0  0  0  0  0  0
    6.0370   -5.3400   20.0040 N   0  0  0  0  0  0  0  0  0  0  0  0
    7.6170   -4.0930   21.2510 N   0  0  0  0  0  0  0  0  0  0  0  0
    6.9080   -2.8160   21.4520 C   0  0  0  0  0  0  0  0  0  0  0  0
    8.2440   -4.5060   22.5360 C   0  0  0  0  0  0  0  0  0  0  0  0
    6.5470   -2.7300   22.9390 C   0  0  0  0  0  0  0  0  0  0  0  0
    7.2240   -4.6390   23.7260 C   0  0  1  0  0  0  0  0  0  0  0  0
    7.1440   -4.1210   23.1980 C   0  0  0  0  0  0  0  0  0  0  0  0
    6.6170   -3.4070   24.0300 C   0  0  0  0  0  0  0  0  0  0  0  0
    6.3590   -5.6880   23.3230 C   0  0  0  0  0  0  0  0  0  0  0  0
    7.2580   -5.0230   24.5930 C   0  0  0  0  0  0  0  0  0  0  0  0
    6.2300   -3.1280   25.2100 C   0  0  0  0  0  0  0  0  0  0  0  0
    5.7950   -6.8410   22.8560 C   0  0  0  0  0  0  0  0  0  0  0  0
    7.5610   -6.1670   23.0460 C   0  0  0  0  0  0  0  0  0  0  0  0
    6.6250   -4.3500   25.9400 C   0  0  0  0  0  0  0  0  0  0  0  0
    4.4980   -6.2780   23.1810 C   0  0  0  0  0  0  0  0  0  0  0  0
    6.9720   -5.0520   23.5710 C   0  0  0  0  0  0  0  0  0  0  0  0
    6.0470   -3.5970   26.8900 N   0  0  0  0  0  0  0  0  0  0  0  0
    5.4290   -5.1440   23.6210 C   0  0  0  0  0  0  0  0  0  0  0  0
    6.0380   -3.8890   28.2670 C   0  0  0  0  0  0  0  0  0  0  0  0
    4.8510   -4.7280   28.8820 C   0  0  0  0  0  0  0  0  0  0  0  0
    4.9800   -5.5720   30.0910 C   0  0  0  0  0  0  0  0  0  0  0  0
    3.4790   -4.9240   28.5480 C   0  0  0  0  0  0  0  0  0  0  0  0
    3.7940   -6.1490   30.3840 C   0  0  0  0  0  0  0  0  0  0  0  0
    2.8300   -5.7880   29.4580 N   0  0  0  0  0  0  0  0  0  0  0  0
    3.5290   -6.9980   31.4700 C   0  0  0  0  0  0  0  0  0  0  0  0
    1.1610   -6.2030   29.3140 S   0  0  0  0  0  0  0  0  0  0  0  0
    2.2340   -7.1300   31.9670 C   0  0  0  0  0  0  0  0  0  0  0  0
    4.6180   -7.7100   32.0510 C   0  0  0  0  0  0  0  0  0  0  0  0
    0.5040   -5.4550   30.3630 O   0  0  0  0  0  0  0  0  0  0  0  0
    0.8330   -5.9430   27.9260 O   0  0  0  0  0  0  0  0  0  0  0  0
    0.8990   -7.9320   29.5620 C   0  0  0  0  0  0  0  0  0  0  0  0
    1.9420   -8.0650   33.1710 C   0  0  0  0  0  0  0  0  0  0  0  0
    4.4280   -8.5760   33.1460 C   0  0  0  0  0  0  0  0  0  0  0  0
    5.8510   -7.5570   31.5570 F   0  0  0  0  0  0  0  0  0  0  0  0
    0.5580   -8.4820   30.8020 C   0  0  0  0  0  0  0  0  0  0  0  0
    1.0120   -8.8460   28.5030 C   0  0  0  0  0  0  0  0  0  0  0  0
    3.1850   -8.8080   33.7440 C   0  0  0  0  0  0  0  0  0  0  0  0
    0.3630   -9.8500   30.9160 C   0  0  0  0  0  0  0  0  0  0  0  0
    0.8120  -10.1910   28.6260 N   0  0  0  0  0  0  0  0  0  0  0  0
    0.4870  -10.7110   29.8350 C   0  0  0  0  0  0  0  0  0  0  0  0
  1  2  2  3
  1  3  1  0
  3  4  1  0
  3  5  1  0
  4  6  1  0
  5  7  1  0
  6  8  1  0
  6  9  2  0
  7  9  1  0
  7 10  1  6
  8 11  2  0
  9 12  1  0
 10 13  2  0
 10 14  1  0
 11 15  1  0
 12 15  2  0
 13 16  1  0
 14 17  2  0
 15 18  1  0
 16 19  2  0
 17 19  1  0
 18 20  1  0
 20 21  1  0
 21 22  1  0
 21 23  2  0
 22 24  2  0
 23 25  1  0
 24 25  1  0
 24 26  1  0
 25 27  1  0
 26 28  2  0
 26 29  1  0
 27 30  2  0
 27 31  2  0
 27 32  1  0
 28 33  1  0
 29 34  2  0
 29 35  1  0
 32 36  2  0
 32 37  1  0
 33 38  2  0
 34 38  1  0
 36 39  1  0
 37 40  2  0
 39 41  2  0
 40 41  1  0
M  END
