MAK-UNK-8fdbca50-40-acrylamide
     RDKit          3D

 40 43  0  0  0  0  0  0  0  0999 V2000
    8.3580   -4.4320   20.4570 C   0  0  0  0  0  0  0  0  0  0  0  0
    6.8910   -4.0670   20.3950 C   0  0  0  0  0  0  0  0  0  0  0  0
    6.3430   -4.0230   21.7710 C   0  0  0  0  0  0  0  0  0  0  0  0
    5.0210   -4.1310   21.8630 O   0  0  0  0  0  0  0  0  0  0  0  0
    7.4220   -3.8480   22.7860 N   0  0  0  0  0  0  0  0  0  0  0  0
    8.2020   -4.9530   23.4760 C   0  0  0  0  0  0  0  0  0  0  0  0
    8.2820   -2.6290   22.7800 C   0  0  0  0  0  0  0  0  0  0  0  0
    9.5900   -4.7780   23.9780 C   0  0  0  0  0  0  0  0  0  0  0  0
    9.6950   -2.8530   22.7050 C   0  0  0  0  0  0  0  0  0  0  0  0
   10.2890   -3.5170   23.9690 C   0  0  0  0  0  0  0  0  0  0  0  0
   11.8020   -3.4500   23.9570 C   0  0  0  0  0  0  0  0  0  0  0  0
   12.3050   -3.1040   22.9010 O   0  0  0  0  0  0  0  0  0  0  0  0
   12.7700   -3.6850   25.2490 C   0  0  1  0  0  0  0  0  0  0  0  0
   11.9990   -4.1840   26.2770 C   0  0  0  0  0  0  0  0  0  0  0  0
   14.1390   -4.4010   25.7870 N   0  0  0  0  0  0  0  0  0  0  0  0
   13.4120   -2.3290   25.2580 C   0  0  0  0  0  0  0  0  0  0  0  0
   15.7270   -4.7450   25.3140 C   0  0  0  0  0  0  0  0  0  0  0  0
   13.5400   -1.8380   23.9620 C   0  0  0  0  0  0  0  0  0  0  0  0
   14.6130   -2.6680   26.1010 C   0  0  0  0  0  0  0  0  0  0  0  0
   16.4120   -6.2710   25.6170 C   0  0  0  0  0  0  0  0  0  0  0  0
   16.7850   -7.0790   24.7200 C   0  0  0  0  0  0  0  0  0  0  0  0
   16.8180   -7.1790   26.6530 C   0  0  0  0  0  0  0  0  0  0  0  0
   17.3250   -8.4160   25.2420 C   0  0  0  0  0  0  0  0  0  0  0  0
   17.3670   -8.6180   26.5600 N   0  0  0  0  0  0  0  0  0  0  0  0
   17.8330   -9.6530   24.7760 C   0  0  0  0  0  0  0  0  0  0  0  0
   17.9990  -10.3070   26.0950 S   0  0  0  0  0  0  0  0  0  0  0  0
   18.9870  -10.2380   24.1050 C   0  0  0  0  0  0  0  0  0  0  0  0
   16.9030  -10.4760   25.0900 C   0  0  0  0  0  0  0  0  0  0  0  0
   17.9460  -11.3540   27.0130 O   0  0  0  0  0  0  0  0  0  0  0  0
   19.1750  -10.0850   25.4560 O   0  0  0  0  0  0  0  0  0  0  0  0
   17.7530  -11.1930   24.6270 C   0  0  0  0  0  0  0  0  0  0  0  0
   19.0800  -11.5600   23.7530 C   0  0  0  0  0  0  0  0  0  0  0  0
   16.9980  -11.9760   24.6790 C   0  0  0  0  0  0  0  0  0  0  0  0
   15.9350   -9.7910   25.7650 F   0  0  0  0  0  0  0  0  0  0  0  0
   18.9290  -11.1230   23.8930 C   0  0  0  0  0  0  0  0  0  0  0  0
   16.5840  -11.8120   24.3240 C   0  0  0  0  0  0  0  0  0  0  0  0
   18.0880  -12.4190   24.0090 C   0  0  0  0  0  0  0  0  0  0  0  0
   19.2240  -11.5870   22.6450 C   0  0  0  0  0  0  0  0  0  0  0  0
   16.9000  -12.2340   23.1380 N   0  0  0  0  0  0  0  0  0  0  0  0
   18.0020  -12.1110   22.4620 C   0  0  0  0  0  0  0  0  0  0  0  0
  1  2  1  0
  2  3  1  0
  3  4  2  0
  3  5  1  0
  5  6  1  0
  5  7  1  0
  6  8  1  0
  7  9  1  0
  8 10  1  0
  9 10  1  0
 10 11  1  0
 11 12  2  0
 13 11  1  0
 13 14  1  1
 13 15  1  0
 13 16  1  0
 15 17  1  0
 16 18  1  0
 16 19  1  0
 17 20  1  0
 20 21  1  0
 20 22  2  0
 21 23  2  0
 22 24  1  0
 23 24  1  0
 23 25  1  0
 24 26  1  0
 25 27  2  0
 25 28  1  0
 26 29  2  0
 26 30  2  0
 26 31  1  0
 27 32  1  0
 28 33  2  0
 28 34  1  0
 31 35  2  0
 31 36  1  0
 32 37  2  0
 33 37  1  0
 35 38  1  0
 36 39  2  0
 38 40  2  0
 39 40  1  0
M  END
