MAK-UNK-e4a48a85-8-bromoalkyne
     RDKit          3D

 29 32  0  0  0  0  0  0  0  0999 V2000
    6.8400   -3.3690   19.6130 C   0  0  0  0  0  0  0  0  0  0  0  0
    5.8940   -2.8200   18.6330 C   0  0  0  0  0  0  0  0  0  0  0  0
    6.7670   -2.9100   20.9130 N   0  0  0  0  0  0  0  0  0  0  0  0
    6.5210   -3.7130   22.1040 C   0  0  0  0  0  0  0  0  0  0  0  0
    7.2290   -1.5550   21.1940 C   0  0  0  0  0  0  0  0  0  0  0  0
    7.4980   -3.4130   23.0950 C   0  0  0  0  0  0  0  0  0  0  0  0
    8.5110   -1.5890   21.7170 C   0  0  0  0  0  0  0  0  0  0  0  0
    8.3860   -2.3150   22.9940 N   0  0  0  0  0  0  0  0  0  0  0  0
    9.4640   -2.2420   23.8610 C   0  0  0  0  0  0  0  0  0  0  0  0
   10.5880   -1.2740   23.5690 C   0  0  0  0  0  0  0  0  0  0  0  0
   11.8560   -1.7520   23.4940 C   0  0  0  0  0  0  0  0  0  0  0  0
   10.3920    0.1290   23.3680 C   0  0  0  0  0  0  0  0  0  0  0  0
   12.8740   -0.8840   23.2410 C   0  0  0  0  0  0  0  0  0  0  0  0
   11.3880    1.1390   23.0970 C   0  0  0  0  0  0  0  0  0  0  0  0
   12.6310    0.4720   23.0600 C   0  0  0  0  0  0  0  0  0  0  0  0
   10.7560    2.1450   23.0090 N   0  0  0  0  0  0  0  0  0  0  0  0
    9.8790    2.5430   23.9510 C   0  0  0  0  0  0  0  0  0  0  0  0
    8.9240    1.8890   24.3520 O   0  0  0  0  0  0  0  0  0  0  0  0
   10.1520    3.9190   24.4980 C   0  0  0  0  0  0  0  0  0  0  0  0
   11.1970    4.8860   24.0320 C   0  0  0  0  0  0  0  0  0  0  0  0
    9.2710    4.6550   25.8110 S   0  0  0  0  0  0  0  0  0  0  0  0
   11.1680    6.0240   24.7320 N   0  0  0  0  0  0  0  0  0  0  0  0
   10.2130    6.1220   25.7430 C   0  0  0  0  0  0  0  0  0  0  0  0
    9.9430    7.2750   26.6810 C   0  0  0  0  0  0  0  0  0  0  0  0
   11.1800    7.8380   27.3540 C   0  0  0  0  0  0  0  0  0  0  0  0
   11.1530    6.7540   28.3190 C   0  0  0  0  0  0  0  0  0  0  0  0
   12.1980    8.7630   27.4900 C   0  0  0  0  0  0  0  0  0  0  0  0
   12.2870    6.9180   29.2720 C   0  0  0  0  0  0  0  0  0  0  0  0
   13.2060    8.3310   28.8730 S   0  0  0  0  0  0  0  0  0  0  0  0
  1  2  2  3
  1  3  1  0
  3  4  1  0
  3  5  1  0
  4  6  1  0
  5  7  1  0
  6  8  1  0
  7  8  1  0
  8  9  1  0
  9 10  1  0
 10 11  2  0
 10 12  1  0
 11 13  1  0
 12 14  2  0
 13 15  2  0
 14 15  1  0
 14 16  1  0
 16 17  1  0
 17 18  2  0
 17 19  1  0
 19 20  2  0
 19 21  1  0
 20 22  1  0
 21 23  1  0
 22 23  2  0
 23 24  1  0
 24 25  1  0
 25 26  1  0
 25 27  2  0
 26 28  2  0
 27 29  1  0
 28 29  1  0
M  END
