MAK-UNK-72659d64-13-nitrile
     RDKit          3D

 18 18  0  0  0  0  0  0  0  0999 V2000
    6.2180   -4.8750   20.0230 C   0  0  0  0  0  0  0  0  0  0  0  0
    6.0580   -3.7120   19.4670 N   0  0  0  0  0  0  0  0  0  0  0  0
    5.5140   -5.2440   21.1480 N   0  0  0  0  0  0  0  0  0  0  0  0
    5.2930   -6.6090   21.4490 C   0  0  0  0  0  0  0  0  0  0  0  0
    5.7320   -4.6410   22.3290 C   0  0  0  0  0  0  0  0  0  0  0  0
    6.7140   -3.6860   22.3270 C   0  0  0  0  0  0  0  0  0  0  0  0
    5.0760   -4.8820   23.5560 C   0  0  0  0  0  0  0  0  0  0  0  0
    7.0640   -2.9850   23.3810 N   0  0  0  0  0  0  0  0  0  0  0  0
    5.4080   -4.1820   24.6410 N   0  0  0  0  0  0  0  0  0  0  0  0
    4.0190   -5.8540   23.7800 N   0  0  0  0  0  0  0  0  0  0  0  0
    6.3750   -3.2730   24.4780 C   0  0  0  0  0  0  0  0  0  0  0  0
    2.7190   -5.3820   23.3400 C   0  0  0  0  0  0  0  0  0  0  0  0
    4.0750   -6.7970   24.8320 C   0  0  0  0  0  0  0  0  0  0  0  0
    6.6880   -2.5390   25.5590 C   0  0  0  0  0  0  0  0  0  0  0  0
    3.6160   -7.9370   24.7190 O   0  0  0  0  0  0  0  0  0  0  0  0
    4.6440   -6.3780   26.0250 C   0  0  0  0  0  0  0  0  0  0  0  0
    6.9190   -1.8670   26.4340 N   0  0  0  0  0  0  0  0  0  0  0  0
    3.5390   -5.3220   26.9280 Cl  0  0  0  0  0  0  0  0  0  0  0  0
  1  2  2  3
  1  3  1  0
  3  4  1  0
  3  5  1  0
  5  6  2  0
  5  7  1  0
  6  8  1  0
  7  9  2  0
  7 10  1  0
  8 11  2  0
  9 11  1  0
 10 12  1  0
 10 13  1  0
 11 14  1  0
 13 15  2  0
 13 16  1  0
 14 17  3  0
 16 18  1  0
M  END
