MAK-UNK-ec98eaf6-5-nitrile
     RDKit          3D

 32 36  0  0  0  0  0  0  0  0999 V2000
    6.3660   -5.3830   20.5080 C   0  0  0  0  0  0  0  0  0  0  0  0
    5.6030   -6.1420   19.8410 N   0  0  0  0  0  0  0  0  0  0  0  0
    6.0900   -5.0630   21.8130 N   0  0  0  0  0  0  0  0  0  0  0  0
    4.7620   -4.6530   22.3350 C   0  0  0  0  0  0  0  0  0  0  0  0
    6.9840   -5.1810   23.0000 C   0  0  2  0  0  0  0  0  0  0  0  0
    5.1350   -4.5420   23.8250 C   0  0  1  0  0  0  0  0  0  0  0  0
    6.0620   -5.7680   24.0630 C   0  0  0  0  0  0  0  0  0  0  0  0
    7.2270   -3.8660   23.3470 C   0  0  0  0  0  0  0  0  0  0  0  0
    6.0890   -3.2930   23.9280 C   0  0  1  0  0  0  0  0  0  0  0  0
    5.5000   -2.2350   23.2220 C   0  0  0  0  0  0  0  0  0  0  0  0
    5.0120   -1.3100   23.8720 O   0  0  0  0  0  0  0  0  0  0  0  0
    5.4940   -2.3200   21.8200 N   0  0  0  0  0  0  0  0  0  0  0  0
    5.7720   -1.3600   20.8180 C   0  0  0  0  0  0  0  0  0  0  0  0
    5.2980   -1.5120   19.4690 C   0  0  0  0  0  0  0  0  0  0  0  0
    6.5310   -0.2470   21.1620 C   0  0  0  0  0  0  0  0  0  0  0  0
    5.5960   -0.4880   18.3770 C   0  0  0  0  0  0  0  0  0  0  0  0
    6.8660    0.7390   20.2690 C   0  0  0  0  0  0  0  0  0  0  0  0
    7.0160   -0.0680   22.4950 O   0  0  0  0  0  0  0  0  0  0  0  0
    6.4320    0.7100   18.7970 C   0  0  0  0  0  0  0  0  0  0  0  0
    8.3760    0.3590   22.5570 C   0  0  0  0  0  0  0  0  0  0  0  0
    9.0700   -0.5700   21.7910 C   0  0  0  0  0  0  0  0  0  0  0  0
    8.7910    0.3360   23.9120 C   0  0  0  0  0  0  0  0  0  0  0  0
    8.8690   -1.8860   22.2210 C   0  0  0  0  0  0  0  0  0  0  0  0
    8.5800   -0.9270   24.4850 C   0  0  0  0  0  0  0  0  0  0  0  0
    9.1290   -2.0120   23.6450 N   0  0  0  0  0  0  0  0  0  0  0  0
   10.3360   -2.4490   24.0760 C   0  0  0  0  0  0  0  0  0  0  0  0
   11.4080   -1.6180   23.5080 C   0  0  0  0  0  0  0  0  0  0  0  0
   12.2840   -1.9790   22.3710 C   0  0  0  0  0  0  0  0  0  0  0  0
   11.5120   -0.4260   24.1650 C   0  0  0  0  0  0  0  0  0  0  0  0
   13.2780   -0.9490   22.0080 C   0  0  0  0  0  0  0  0  0  0  0  0
   12.4710    0.4790   23.7500 C   0  0  0  0  0  0  0  0  0  0  0  0
   13.3430    0.2550   22.7130 C   0  0  0  0  0  0  0  0  0  0  0  0
  1  2  2  3
  1  3  1  0
  3  4  1  0
  3  5  1  0
  6  4  1  6
  5  7  1  0
  6  7  1  0
  5  8  1  1
  6  9  1  0
  8  9  1  0
  9 10  1  6
 10 11  2  0
 10 12  1  0
 12 13  1  0
 13 14  2  0
 13 15  1  0
 14 16  1  0
 15 17  2  0
 15 18  1  0
 16 19  2  0
 17 19  1  0
 18 20  1  0
 20 21  1  0
 20 22  1  0
 21 23  1  0
 22 24  1  0
 23 25  1  0
 24 25  1  0
 25 26  1  0
 26 27  1  0
 27 28  2  0
 27 29  1  0
 28 30  1  0
 29 31  2  0
 30 32  2  0
 31 32  1  0
M  END
