MAK-UNK-3e0761f8-9-acrylamide
     RDKit          3D

 25 28  0  0  0  0  0  0  0  0999 V2000
    7.5630   -2.8240   18.4000 C   0  0  0  0  0  0  0  0  0  0  0  0
    6.1610   -2.6520   18.9530 C   0  0  0  0  0  0  0  0  0  0  0  0
    5.8350   -3.3900   20.1950 C   0  0  0  0  0  0  0  0  0  0  0  0
    5.2540   -4.4740   20.1110 O   0  0  0  0  0  0  0  0  0  0  0  0
    6.2180   -2.7590   21.3470 N   0  0  0  0  0  0  0  0  0  0  0  0
    7.2780   -1.7610   21.2810 C   0  0  0  0  0  0  0  0  0  0  0  0
    6.4570   -3.3560   22.6630 C   0  0  1  0  0  0  0  0  0  0  0  0
    8.4030   -2.4910   22.0820 C   0  0  2  0  0  0  0  0  0  0  0  0
    7.8330   -3.9030   22.3850 C   0  0  0  0  0  0  0  0  0  0  0  0
    6.8400   -2.2760   23.7300 C   0  0  0  0  0  0  0  0  0  0  0  0
    8.2580   -1.9360   23.4190 N   0  0  0  0  0  0  0  0  0  0  0  0
    9.3620   -2.2040   24.3520 C   0  0  2  0  0  0  0  0  0  0  0  0
   10.6300   -1.4540   23.8940 C   0  0  0  0  0  0  0  0  0  0  0  0
    9.3950   -3.7330   24.7430 C   0  0  0  0  0  0  0  0  0  0  0  0
   11.5670   -1.9830   22.9660 C   0  0  0  0  0  0  0  0  0  0  0  0
   10.8800   -0.1710   24.3930 C   0  0  0  0  0  0  0  0  0  0  0  0
    7.9900   -4.1250   25.2610 C   0  0  0  0  0  0  0  0  0  0  0  0
   10.4070   -4.1930   25.8170 C   0  0  0  0  0  0  0  0  0  0  0  0
   12.6960   -1.2360   22.5730 C   0  0  0  0  0  0  0  0  0  0  0  0
   11.9930    0.5580   23.9950 C   0  0  0  0  0  0  0  0  0  0  0  0
    7.9790   -5.5510   25.7450 C   0  0  0  0  0  0  0  0  0  0  0  0
    9.7280   -4.6190   27.1300 C   0  0  0  0  0  0  0  0  0  0  0  0
   12.9010    0.0350   23.0900 C   0  0  0  0  0  0  0  0  0  0  0  0
    8.7090   -5.6530   26.9960 N   0  0  0  0  0  0  0  0  0  0  0  0
    7.7870   -5.6160   28.1220 C   0  0  0  0  0  0  0  0  0  0  0  0
  1  2  1  0
  2  3  1  0
  3  4  2  0
  3  5  1  0
  5  6  1  0
  5  7  1  0
  8  6  1  6
  7  9  1  0
  8  9  1  0
  7 10  1  1
  8 11  1  0
 10 11  1  0
 11 12  1  0
 12 13  1  6
 12 14  1  0
 13 15  2  0
 13 16  1  0
 14 17  1  0
 14 18  1  0
 15 19  1  0
 16 20  2  0
 17 21  1  0
 18 22  1  0
 19 23  2  0
 20 23  1  0
 21 24  1  0
 22 24  1  0
 24 25  1  0
M  END
