MAK-UNK-516d8086-23-nitrile
     RDKit          3D

 22 24  0  0  0  0  0  0  0  0999 V2000
    7.2290   -3.6780   20.0880 C   0  0  0  0  0  0  0  0  0  0  0  0
    6.1020   -4.2330   19.8730 N   0  0  0  0  0  0  0  0  0  0  0  0
    7.3430   -2.6780   21.2370 C   0  0  0  0  0  0  0  0  0  0  0  0
    6.5120   -2.8570   22.5120 C   0  0  0  0  0  0  0  0  0  0  0  0
    8.1960   -1.5850   21.1490 N   0  0  0  0  0  0  0  0  0  0  0  0
    6.5630   -1.9810   23.5350 N   0  0  0  0  0  0  0  0  0  0  0  0
    8.2200   -0.7300   22.2500 C   0  0  0  0  0  0  0  0  0  0  0  0
    7.4150   -0.9200   23.3990 C   0  0  0  0  0  0  0  0  0  0  0  0
    9.1270    0.3610   22.2020 C   0  0  0  0  0  0  0  0  0  0  0  0
    7.5070    0.0600   24.4920 N   0  0  0  0  0  0  0  0  0  0  0  0
   10.2260   -0.1870   22.8400 C   0  0  0  0  0  0  0  0  0  0  0  0
    7.9560   -0.4470   25.7940 C   0  0  0  0  0  0  0  0  0  0  0  0
   11.4960    0.4610   23.1060 C   0  0  0  0  0  0  0  0  0  0  0  0
    9.9580   -1.5060   23.2190 C   0  0  0  0  0  0  0  0  0  0  0  0
    9.4180   -0.0960   26.0330 C   0  0  0  0  0  0  0  0  0  0  0  0
   12.5390   -0.2280   23.7710 C   0  0  0  0  0  0  0  0  0  0  0  0
   11.0320   -2.2370   23.9180 C   0  0  0  0  0  0  0  0  0  0  0  0
   12.3070   -1.6430   24.2020 C   0  0  0  0  0  0  0  0  0  0  0  0
   10.9310   -3.6250   24.4010 C   0  0  0  0  0  0  0  0  0  0  0  0
   10.1010   -4.4870   24.1970 O   0  0  0  0  0  0  0  0  0  0  0  0
   12.0840   -3.5840   25.1520 N   0  0  0  0  0  0  0  0  0  0  0  0
   13.0650   -2.6350   24.8700 C   0  0  0  0  0  0  0  0  0  0  0  0
  1  2  2  3
  1  3  1  0
  3  4  2  0
  3  5  1  0
  4  6  1  0
  5  7  2  0
  6  8  2  0
  7  8  1  0
  7  9  1  0
  8 10  1  0
  9 11  1  0
 10 12  1  0
 11 13  2  0
 11 14  1  0
 12 15  1  0
 13 16  1  0
 14 17  2  0
 16 18  2  0
 17 18  1  0
 17 19  1  0
 19 20  2  0
 19 21  1  0
 18 22  1  0
 21 22  1  0
M  END
