MAK-UNK-10dfa458-19-chloroacetamide
     RDKit          3D

 29 31  0  0  0  0  0  0  0  0999 V2000
    7.0110   -3.4300   19.9370 C   0  0  0  0  0  0  0  0  0  0  0  0
    6.2370   -4.5810   20.5470 C   0  0  0  0  0  0  0  0  0  0  0  0
    5.2920   -5.0650   19.9730 O   0  0  0  0  0  0  0  0  0  0  0  0
    6.5700   -5.1420   21.7930 N   0  0  0  0  0  0  0  0  0  0  0  0
    7.2160   -4.4000   22.8790 C   0  0  0  0  0  0  0  0  0  0  0  0
    5.6990   -6.1960   22.3090 C   0  0  0  0  0  0  0  0  0  0  0  0
    6.2480   -3.8960   23.9700 C   0  0  0  0  0  0  0  0  0  0  0  0
    4.7230   -5.6690   23.3810 C   0  0  0  0  0  0  0  0  0  0  0  0
    5.3840   -4.9560   24.4910 N   0  0  0  0  0  0  0  0  0  0  0  0
    4.6310   -4.9150   25.6570 C   0  0  0  0  0  0  0  0  0  0  0  0
    3.4460   -4.0150   25.6480 C   0  0  0  0  0  0  0  0  0  0  0  0
    3.6420   -2.5050   25.8830 C   0  0  0  0  0  0  0  0  0  0  0  0
    2.1430   -4.4690   25.4450 C   0  0  0  0  0  0  0  0  0  0  0  0
    2.5170   -1.6730   25.8880 C   0  0  0  0  0  0  0  0  0  0  0  0
    1.0340   -3.6100   25.4540 C   0  0  0  0  0  0  0  0  0  0  0  0
    2.6270   -0.2940   26.0980 C   0  0  0  0  0  0  0  0  0  0  0  0
    1.2410   -2.2410   25.6770 C   0  0  0  0  0  0  0  0  0  0  0  0
   -0.2080   -4.1480   25.2440 N   0  0  0  0  0  0  0  0  0  0  0  0
   -0.3310   -4.7980   24.0700 C   0  0  0  0  0  0  0  0  0  0  0  0
    0.5050   -5.8730   23.7120 C   0  0  0  0  0  0  0  0  0  0  0  0
   -1.2920   -4.4330   23.1260 C   0  0  0  0  0  0  0  0  0  0  0  0
    0.3610   -6.5120   22.4480 C   0  0  0  0  0  0  0  0  0  0  0  0
   -1.3820   -5.0930   21.9020 C   0  0  0  0  0  0  0  0  0  0  0  0
   -2.2310   -3.3310   23.4010 C   0  0  0  0  0  0  0  0  0  0  0  0
   -0.5910   -6.1740   21.4200 C   0  0  0  0  0  0  0  0  0  0  0  0
   -3.0360   -2.5870   22.4150 C   0  0  0  0  0  0  0  0  0  0  0  0
   -1.0800   -6.3020   20.3740 N   0  0  0  0  0  0  0  0  0  0  0  0
   -2.4450   -6.4900   20.1190 C   0  0  0  0  0  0  0  0  0  0  0  0
   -2.8760   -5.6510   18.9190 C   0  0  0  0  0  0  0  0  0  0  0  0
  1  2  1  0
  2  3  2  0
  2  4  1  0
  4  5  1  0
  4  6  1  0
  5  7  1  0
  6  8  1  0
  7  9  1  0
  8  9  1  0
  9 10  1  0
 10 11  1  0
 11 12  2  0
 11 13  1  0
 12 14  1  0
 13 15  2  0
 14 16  1  0
 14 17  2  0
 15 17  1  0
 15 18  1  0
 18 19  1  0
 19 20  2  0
 19 21  1  0
 20 22  1  0
 21 23  2  0
 21 24  1  0
 22 25  2  0
 23 25  1  0
 24 26  2  3
 25 27  1  0
 27 28  1  0
 28 29  1  0
M  END
