MAK-UNK-9e4a73aa-31
     RDKit          3D

 27 30  0  0  0  0  0  0  0  0999 V2000
    5.8420   -2.6670   20.0690 C   0  0  0  0  0  0  0  0  0  0  0  0
    6.8710   -2.5400   21.1970 C   0  0  0  0  0  0  0  0  0  0  0  0
    7.9510   -1.5610   20.8970 C   0  0  0  0  0  0  0  0  0  0  0  0
    6.9610   -3.2010   22.4500 C   0  0  0  0  0  0  0  0  0  0  0  0
    8.9590   -1.3560   21.8150 C   0  0  0  0  0  0  0  0  0  0  0  0
    8.0530   -2.8760   23.2660 C   0  0  0  0  0  0  0  0  0  0  0  0
    6.1160   -4.1200   22.9690 N   0  0  0  0  0  0  0  0  0  0  0  0
    9.0510   -1.9880   23.0040 N   0  0  0  0  0  0  0  0  0  0  0  0
    6.2690   -4.5640   24.2420 C   0  0  0  0  0  0  0  0  0  0  0  0
    4.8250   -4.0660   22.5160 C   0  0  0  0  0  0  0  0  0  0  0  0
    6.9890   -5.4840   24.5890 O   0  0  0  0  0  0  0  0  0  0  0  0
    5.4510   -3.8410   25.1140 C   0  0  0  0  0  0  0  0  0  0  0  0
    3.8160   -4.1020   23.5360 N   0  0  0  0  0  0  0  0  0  0  0  0
    4.6060   -3.9860   21.3350 O   0  0  0  0  0  0  0  0  0  0  0  0
    5.8510   -3.2650   26.4950 C   0  0  0  0  0  0  0  0  0  0  0  0
    4.1410   -3.5900   24.7280 C   0  0  0  0  0  0  0  0  0  0  0  0
    2.8930   -5.2060   23.5660 C   0  0  0  0  0  0  0  0  0  0  0  0
    4.8540   -2.4910   27.3270 C   0  0  0  0  0  0  0  0  0  0  0  0
    3.2000   -2.8610   25.5030 C   0  0  0  0  0  0  0  0  0  0  0  0
    1.6050   -5.0520   24.2280 C   0  0  0  0  0  0  0  0  0  0  0  0
    3.1830   -6.5290   22.9450 C   0  0  0  0  0  0  0  0  0  0  0  0
    5.1300   -1.9360   28.5840 F   0  0  0  0  0  0  0  0  0  0  0  0
    3.4630   -2.3070   26.7490 C   0  0  0  0  0  0  0  0  0  0  0  0
    0.5940   -6.1120   24.3090 C   0  0  0  0  0  0  0  0  0  0  0  0
    2.1960   -7.5280   23.0350 C   0  0  0  0  0  0  0  0  0  0  0  0
    2.1900   -1.4070   27.6250 Cl  0  0  0  0  0  0  0  0  0  0  0  0
    0.9400   -7.3290   23.6960 C   0  0  0  0  0  0  0  0  0  0  0  0
  1  2  1  0
  2  3  2  0
  2  4  1  0
  3  5  1  0
  4  6  2  0
  4  7  1  0
  5  8  2  0
  6  8  1  0
  7  9  1  0
  7 10  1  0
  9 11  2  0
  9 12  1  0
 10 13  1  0
 10 14  2  0
 12 15  2  0
 12 16  1  0
 13 16  1  0
 13 17  1  0
 15 18  1  0
 16 19  2  0
 17 20  2  0
 17 21  1  0
 18 22  1  0
 18 23  2  0
 19 23  1  0
 20 24  1  0
 21 25  2  0
 23 26  1  0
 24 27  2  0
 25 27  1  0
M  END
