MAK-UNK-9e4a73aa-20
     RDKit          3D

 26 29  0  0  0  0  0  0  0  0999 V2000
    7.8070   -4.9930   23.0220 O   0  0  0  0  0  0  0  0  0  0  0  0
    8.0930   -3.8140   23.2610 C   0  0  0  0  0  0  0  0  0  0  0  0
    7.6980   -2.6520   22.3540 C   0  0  0  0  0  0  0  0  0  0  0  0
    8.7860   -3.3810   24.4080 N   0  0  0  0  0  0  0  0  0  0  0  0
    6.8700   -2.8640   21.3090 N   0  0  0  0  0  0  0  0  0  0  0  0
    8.2400   -1.4120   22.6770 C   0  0  0  0  0  0  0  0  0  0  0  0
    8.4960   -2.1320   24.7170 C   0  0  0  0  0  0  0  0  0  0  0  0
   10.2260   -3.3660   24.5150 C   0  0  0  0  0  0  0  0  0  0  0  0
    6.5680   -1.6970   20.4700 C   0  0  0  0  0  0  0  0  0  0  0  0
    7.9990   -0.2850   21.9300 C   0  0  0  0  0  0  0  0  0  0  0  0
    8.9960   -1.3310   23.7410 N   0  0  0  0  0  0  0  0  0  0  0  0
    7.8540   -1.8080   25.7170 O   0  0  0  0  0  0  0  0  0  0  0  0
   10.9030   -3.7950   25.7400 C   0  0  0  0  0  0  0  0  0  0  0  0
   11.0720   -2.9170   23.5110 C   0  0  0  0  0  0  0  0  0  0  0  0
    5.7490   -1.7760   19.3810 F   0  0  0  0  0  0  0  0  0  0  0  0
    7.1080   -0.4630   20.7560 C   0  0  0  0  0  0  0  0  0  0  0  0
   10.3480   -1.1960   23.5550 C   0  0  0  0  0  0  0  0  0  0  0  0
   12.3770   -3.6980   25.8360 C   0  0  0  0  0  0  0  0  0  0  0  0
   12.4280   -2.8260   23.5890 N   0  0  0  0  0  0  0  0  0  0  0  0
    6.7350    0.8780   19.7480 Cl  0  0  0  0  0  0  0  0  0  0  0  0
   10.8470   -1.4870   22.2910 C   0  0  0  0  0  0  0  0  0  0  0  0
   11.1900   -0.7460   24.7070 C   0  0  0  0  0  0  0  0  0  0  0  0
   13.0420   -3.1930   24.7220 C   0  0  0  0  0  0  0  0  0  0  0  0
   12.3270   -1.3520   21.9980 C   0  0  0  0  0  0  0  0  0  0  0  0
   12.5510   -0.6000   24.5010 C   0  0  0  0  0  0  0  0  0  0  0  0
   13.1930   -0.8880   23.1330 C   0  0  0  0  0  0  0  0  0  0  0  0
  1  2  2  0
  2  3  1  0
  2  4  1  0
  3  5  2  0
  3  6  1  0
  4  7  1  0
  4  8  1  0
  5  9  1  0
  6 10  2  0
  6 11  1  0
  7 11  1  0
  7 12  2  0
  8 13  2  0
  8 14  1  0
  9 15  1  0
  9 16  2  0
 10 16  1  0
 11 17  1  0
 13 18  1  0
 14 19  2  0
 16 20  1  0
 17 21  2  0
 17 22  1  0
 18 23  2  0
 19 23  1  0
 21 24  1  0
 22 25  2  0
 24 26  2  0
 25 26  1  0
M  END
