MAK-UNK-212f693e-31
     RDKit          3D

 16 17  0  0  0  0  0  0  0  0999 V2000
    5.3910   -4.3310   19.8550 O   0  0  0  0  0  0  0  0  0  0  0  0
    6.2320   -4.1420   20.7390 C   0  0  0  0  0  0  0  0  0  0  0  0
    7.1500   -2.9070   20.6500 C   0  0  0  0  0  0  0  0  0  0  0  0
    6.4100   -4.9990   21.8190 N   0  0  0  0  0  0  0  0  0  0  0  0
    8.5250   -3.2710   20.7540 O   0  0  0  0  0  0  0  0  0  0  0  0
    7.2470   -4.7340   22.9790 C   0  0  0  0  0  0  0  0  0  0  0  0
    5.5640   -6.0530   22.0530 C   0  0  0  0  0  0  0  0  0  0  0  0
    6.3510   -4.3040   24.1290 C   0  0  0  0  0  0  0  0  0  0  0  0
    4.6350   -5.7940   23.0760 C   0  0  0  0  0  0  0  0  0  0  0  0
    4.9310   -4.7020   23.9060 C   0  0  0  0  0  0  0  0  0  0  0  0
    4.3430   -4.8830   25.1980 O   0  0  0  0  0  0  0  0  0  0  0  0
    3.3480   -3.9040   25.4640 C   0  0  0  0  0  0  0  0  0  0  0  0
    3.6910   -2.5990   25.7540 C   0  0  0  0  0  0  0  0  0  0  0  0
    1.9670   -4.1290   25.4620 C   0  0  0  0  0  0  0  0  0  0  0  0
    2.4480   -1.7510   25.9900 C   0  0  0  0  0  0  0  0  0  0  0  0
    1.0000   -2.7240   25.8220 S   0  0  0  0  0  0  0  0  0  0  0  0
  1  2  2  0
  2  3  1  0
  2  4  1  0
  3  5  1  0
  4  6  1  0
  4  7  1  0
  6  8  1  0
  7  9  1  0
  8 10  1  0
  9 10  1  0
 10 11  1  0
 11 12  1  0
 12 13  1  0
 12 14  2  0
 13 15  2  0
 14 16  1  0
 15 16  1  0
M  END
