MAK-UNK-1cb0e944-11
     RDKit          3D

 21 22  0  0  0  0  0  0  0  0999 V2000
    8.3870   -0.9790   20.9140 N   0  0  0  0  0  0  0  0  0  0  0  0
    8.3030   -1.7430   22.4130 S   0  0  0  0  0  0  0  0  0  0  0  0
    7.5670   -0.8530   23.2900 O   0  0  0  0  0  0  0  0  0  0  0  0
    7.8390   -3.0830   22.1520 O   0  0  0  0  0  0  0  0  0  0  0  0
    9.9970   -1.7980   22.9550 C   0  0  1  0  0  0  0  0  0  0  0  0
   10.6720   -2.8060   22.7680 O   0  0  0  0  0  0  0  0  0  0  0  0
   10.8450   -0.7320   22.3070 C   0  0  2  0  0  0  0  0  0  0  0  0
   12.0000   -2.4550   23.1960 C   0  0  1  0  0  0  0  0  0  0  0  0
   12.1770   -1.0340   22.7220 C   0  0  1  0  0  0  0  0  0  0  0  0
   10.4660    0.6080   22.5610 O   0  0  0  0  0  0  0  0  0  0  0  0
   12.0930   -2.5740   24.7060 C   0  0  0  0  0  0  0  0  0  0  0  0
   13.1280   -1.0260   21.6670 O   0  0  0  0  0  0  0  0  0  0  0  0
   10.4150   -2.4610   25.3790 S   0  0  0  0  0  0  0  0  0  0  0  0
    9.9980   -4.0540   25.8240 C   0  0  0  0  0  0  0  0  0  0  0  0
    8.7650   -4.0360   26.6280 N   0  0  0  0  0  0  0  0  0  0  0  0
    8.8790   -4.7960   27.8860 C   0  0  0  0  0  0  0  0  0  0  0  0
    7.5770   -3.9020   25.9990 C   0  0  0  0  0  0  0  0  0  0  0  0
    7.7300   -5.7310   28.1670 C   0  0  0  0  0  0  0  0  0  0  0  0
    6.7250   -4.9880   26.1820 C   0  0  0  0  0  0  0  0  0  0  0  0
    6.5550   -5.3220   27.5220 C   0  0  0  0  0  0  0  0  0  0  0  0
    6.2150   -4.0960   28.1630 O   0  0  0  0  0  0  0  0  0  0  0  0
  2  1  1  0
  2  3  2  0
  2  4  2  0
  5  2  1  6
  5  6  1  0
  5  7  1  0
  6  8  1  0
  7  9  1  0
  8  9  1  0
  7 10  1  1
  8 11  1  1
  9 12  1  6
 11 13  1  0
 13 14  1  0
 14 15  1  0
 15 16  1  0
 15 17  1  0
 16 18  1  0
 17 19  1  0
 18 20  1  0
 19 20  1  0
 20 21  1  0
M  END
