MAK-UNK-e05327b2-8-chloroacetamide
     RDKit          3D

 28 31  0  0  0  0  0  0  0  0999 V2000
    7.2090   -3.4910   20.0850 C   0  0  0  0  0  0  0  0  0  0  0  0
    6.2680   -4.5700   20.6190 C   0  0  0  0  0  0  0  0  0  0  0  0
    5.2900   -4.8790   19.9650 O   0  0  0  0  0  0  0  0  0  0  0  0
    6.4990   -5.2020   21.8140 N   0  0  0  0  0  0  0  0  0  0  0  0
    5.6750   -6.3490   22.1780 C   0  0  0  0  0  0  0  0  0  0  0  0
    7.3940   -4.7270   22.8710 C   0  0  0  0  0  0  0  0  0  0  0  0
    4.7490   -5.7450   23.2680 C   0  0  0  0  0  0  0  0  0  0  0  0
    6.7050   -4.3260   24.0140 C   0  0  0  0  0  0  0  0  0  0  0  0
    5.6670   -5.3160   24.3570 N   0  0  0  0  0  0  0  0  0  0  0  0
    5.0370   -5.3520   25.9250 S   0  0  0  0  0  0  0  0  0  0  0  0
    6.1360   -5.1830   26.8460 O   0  0  0  0  0  0  0  0  0  0  0  0
    4.1330   -6.4810   26.0090 O   0  0  0  0  0  0  0  0  0  0  0  0
    4.0480   -3.8780   26.0080 C   0  0  0  0  0  0  0  0  0  0  0  0
    4.6030   -2.4730   26.2940 C   0  0  0  0  0  0  0  0  0  0  0  0
    2.3470   -3.9430   25.7600 S   0  0  0  0  0  0  0  0  0  0  0  0
    3.4430   -1.4720   26.2830 C   0  0  0  0  0  0  0  0  0  0  0  0
    2.1280   -2.1930   25.9940 C   0  0  0  0  0  0  0  0  0  0  0  0
    0.7510   -1.5220   25.9100 C   0  0  0  0  0  0  0  0  0  0  0  0
    0.1110   -1.2750   27.1350 C   0  0  0  0  0  0  0  0  0  0  0  0
   -0.7210   -2.1660   27.8170 C   0  0  0  0  0  0  0  0  0  0  0  0
    0.3190    0.1010   27.8320 C   0  0  0  0  0  0  0  0  0  0  0  0
   -1.3250   -1.8600   29.0240 C   0  0  0  0  0  0  0  0  0  0  0  0
   -0.3390    0.3360   29.0740 C   0  0  0  0  0  0  0  0  0  0  0  0
    1.1290    1.1100   27.2760 C   0  0  0  0  0  0  0  0  0  0  0  0
   -1.1480   -0.6430   29.6510 C   0  0  0  0  0  0  0  0  0  0  0  0
   -0.1470    1.6450   29.7420 C   0  0  0  0  0  0  0  0  0  0  0  0
    1.3240    2.3580   27.8930 C   0  0  0  0  0  0  0  0  0  0  0  0
    0.7190    2.6750   29.1110 C   0  0  0  0  0  0  0  0  0  0  0  0
  1  2  1  0
  2  3  2  0
  2  4  1  0
  4  5  1  0
  4  6  1  0
  5  7  1  0
  6  8  1  0
  7  9  1  0
  8  9  1  0
  9 10  1  0
 10 11  2  0
 10 12  2  0
 10 13  1  0
 13 14  2  0
 13 15  1  0
 14 16  1  0
 15 17  1  0
 16 17  2  0
 17 18  1  0
 18 19  1  0
 19 20  2  0
 19 21  1  0
 20 22  1  0
 21 23  2  0
 21 24  1  0
 22 25  2  0
 23 25  1  0
 23 26  1  0
 24 27  2  0
 26 28  2  0
 27 28  1  0
M  END
