MAK-UNK-ec98eaf6-56-chloroacetamide
     RDKit          3D

 38 42  0  0  0  0  0  0  0  0999 V2000
    7.1620   -2.9910   18.8920 C   0  0  0  0  0  0  0  0  0  0  0  0
    6.1150   -3.3030   19.9540 C   0  0  0  0  0  0  0  0  0  0  0  0
    5.3070   -4.2110   19.7460 O   0  0  0  0  0  0  0  0  0  0  0  0
    6.0670   -2.6080   21.1660 N   0  0  0  0  0  0  0  0  0  0  0  0
    7.2520   -1.8170   21.4240 C   0  0  0  0  0  0  0  0  0  0  0  0
    5.9470   -3.3050   22.4970 C   0  0  1  0  0  0  0  0  0  0  0  0
    7.9850   -2.6730   22.4190 C   0  0  2  0  0  0  0  0  0  0  0  0
    7.2370   -4.0450   22.4060 C   0  0  0  0  0  0  0  0  0  0  0  0
    6.2880   -2.4550   23.7060 C   0  0  0  0  0  0  0  0  0  0  0  0
    7.6570   -2.1510   23.7820 N   0  0  0  0  0  0  0  0  0  0  0  0
    7.9860   -0.7290   24.0020 C   0  0  1  0  0  0  0  0  0  0  0  0
    7.2250   -0.1040   25.1590 C   0  0  0  0  0  0  0  0  0  0  0  0
    9.3080   -0.3300   23.8290 C   0  0  0  0  0  0  0  0  0  0  0  0
    7.8080   -0.2610   26.4140 C   0  0  0  0  0  0  0  0  0  0  0  0
    9.7700    1.0370   24.3740 C   0  0  0  0  0  0  0  0  0  0  0  0
   10.2860   -1.0210   23.1770 C   0  0  0  0  0  0  0  0  0  0  0  0
    7.0650   -1.1500   27.1980 C   0  0  0  0  0  0  0  0  0  0  0  0
   11.0540    1.5240   24.2140 C   0  0  0  0  0  0  0  0  0  0  0  0
   11.5460   -0.5440   23.0350 C   0  0  0  0  0  0  0  0  0  0  0  0
   10.2430   -2.2330   22.5580 N   0  0  0  0  0  0  0  0  0  0  0  0
    7.0100   -1.0490   28.5750 C   0  0  0  0  0  0  0  0  0  0  0  0
    6.3320   -2.1970   26.6020 C   0  0  0  0  0  0  0  0  0  0  0  0
   12.0760    0.7500   23.5240 C   0  0  0  0  0  0  0  0  0  0  0  0
   12.2550   -1.4900   22.3320 C   0  0  0  0  0  0  0  0  0  0  0  0
   11.4540   -2.5070   22.0360 C   0  0  0  0  0  0  0  0  0  0  0  0
    6.1850   -2.0460   29.3080 C   0  0  0  0  0  0  0  0  0  0  0  0
    5.5490   -3.1450   27.3000 C   0  0  0  0  0  0  0  0  0  0  0  0
   13.5600   -1.3400   22.0050 C   0  0  0  0  0  0  0  0  0  0  0  0
    5.3910   -3.1720   28.7140 C   0  0  0  0  0  0  0  0  0  0  0  0
   13.5550   -2.0510   20.7630 C   0  0  0  0  0  0  0  0  0  0  0  0
    4.6350   -4.0840   29.3390 C   0  0  0  0  0  0  0  0  0  0  0  0
   13.6040   -3.4860   20.9960 N   0  0  0  0  0  0  0  0  0  0  0  0
    5.3410   -5.1840   29.7420 F   0  0  0  0  0  0  0  0  0  0  0  0
    4.0080   -3.6040   30.4470 F   0  0  0  0  0  0  0  0  0  0  0  0
    3.6470   -4.5600   28.5380 F   0  0  0  0  0  0  0  0  0  0  0  0
   13.8540   -4.3700   20.0150 C   0  0  0  0  0  0  0  0  0  0  0  0
   15.1820   -5.1110   20.0100 C   0  0  0  0  0  0  0  0  0  0  0  0
   12.9820   -4.5550   19.2090 O   0  0  0  0  0  0  0  0  0  0  0  0
  1  2  1  0
  2  3  2  0
  2  4  1  0
  4  5  1  0
  4  6  1  0
  7  5  1  6
  6  8  1  0
  7  8  1  0
  6  9  1  1
  7 10  1  0
  9 10  1  0
 10 11  1  0
 11 12  1  1
 11 13  1  0
 12 14  1  0
 13 15  1  0
 13 16  2  0
 14 17  1  0
 15 18  2  0
 16 19  1  0
 16 20  1  0
 17 21  2  0
 17 22  1  0
 18 23  1  0
 19 23  2  0
 19 24  1  0
 20 25  1  0
 24 25  2  0
 21 26  1  0
 22 27  2  0
 24 28  1  0
 26 29  2  0
 27 29  1  0
 28 30  1  0
 29 31  1  0
 30 32  1  0
 31 33  1  0
 31 34  1  0
 31 35  1  0
 32 36  1  0
 36 37  1  0
 36 38  2  0
M  END
