MAK-UNK-194150d3-13
     RDKit          3D

 18 19  0  0  0  0  0  0  0  0999 V2000
    5.6000    0.7520   19.8830 C   0  0  0  0  0  0  0  0  0  0  0  0
    4.5800    1.3990   19.8650 C   0  0  0  0  0  0  0  0  0  0  0  0
    3.3770    2.1760   19.8700 C   0  0  0  0  0  0  0  0  0  0  0  0
    6.8590   -0.0210   19.9230 C   0  0  0  0  0  0  0  0  0  0  0  0
    7.3150   -0.1110   21.3100 N   0  0  0  0  0  0  0  0  0  0  0  0
    3.0150    3.0030   18.8320 C   0  0  0  0  0  0  0  0  0  0  0  0
    2.4800    2.1610   20.9210 C   0  0  0  0  0  0  0  0  0  0  0  0
    8.7540    0.1120   21.5640 C   0  0  0  0  0  0  0  0  0  0  0  0
    1.8800    3.7440   18.8130 N   0  0  0  0  0  0  0  0  0  0  0  0
    1.3330    2.8720   20.9630 N   0  0  0  0  0  0  0  0  0  0  0  0
    9.1670   -0.0600   23.0350 C   0  0  0  0  0  0  0  0  0  0  0  0
    1.0920    3.6360   19.8880 C   0  0  0  0  0  0  0  0  0  0  0  0
   10.5800   -0.5690   23.2370 C   0  0  0  0  0  0  0  0  0  0  0  0
   11.2800   -1.2860   22.2480 C   0  0  0  0  0  0  0  0  0  0  0  0
   11.2080   -0.3240   24.4600 C   0  0  0  0  0  0  0  0  0  0  0  0
   12.5740   -1.7410   22.4950 C   0  0  0  0  0  0  0  0  0  0  0  0
   12.4960   -0.7780   24.7040 C   0  0  0  0  0  0  0  0  0  0  0  0
   13.1740   -1.4870   23.7210 C   0  0  0  0  0  0  0  0  0  0  0  0
  1  2  3  0
  2  3  1  0
  1  4  1  0
  4  5  1  0
  3  6  2  0
  3  7  1  0
  5  8  1  0
  6  9  1  0
  7 10  2  0
  8 11  1  0
  9 12  2  0
 10 12  1  0
 11 13  1  0
 13 14  2  0
 13 15  1  0
 14 16  1  0
 15 17  2  0
 16 18  2  0
 17 18  1  0
M  END
