MAK-UNK-148caf23-23-nitrile
     RDKit          3D

 34 37  0  0  0  0  0  0  0  0999 V2000
    7.8230   -3.2660   19.4890 C   0  0  0  0  0  0  0  0  0  0  0  0
    6.5960   -3.2670   19.0810 N   0  0  0  0  0  0  0  0  0  0  0  0
    8.1220   -2.7500   20.9190 C   0  0  0  0  0  0  0  0  0  0  0  0
    6.8440   -2.6740   21.7240 C   0  0  0  0  0  0  0  0  0  0  0  0
    9.3240   -2.3610   21.5650 C   0  0  0  0  0  0  0  0  0  0  0  0
    7.0070   -2.1930   23.1230 C   0  0  0  0  0  0  0  0  0  0  0  0
    9.4030   -1.9230   22.8650 N   0  0  0  0  0  0  0  0  0  0  0  0
    8.2680   -1.8500   23.6040 C   0  0  0  0  0  0  0  0  0  0  0  0
    8.1700   -1.4000   25.0260 N   0  0  0  0  0  0  0  0  0  0  0  0
    6.8030   -0.9940   25.4300 C   0  0  0  0  0  0  0  0  0  0  0  0
    6.3960    0.1730   24.7840 C   0  0  0  0  0  0  0  0  0  0  0  0
    4.9530    0.5610   24.6290 C   0  0  0  0  0  0  0  0  0  0  0  0
    7.3320    1.0510   24.2330 C   0  0  0  0  0  0  0  0  0  0  0  0
    4.5450    1.7370   23.9710 C   0  0  0  0  0  0  0  0  0  0  0  0
    6.9670    2.2490   23.5610 C   0  0  0  0  0  0  0  0  0  0  0  0
    8.7310    0.5850   24.4320 C   0  0  0  0  0  0  0  0  0  0  0  0
    5.6150    2.6150   23.4140 C   0  0  0  0  0  0  0  0  0  0  0  0
    7.8990    3.0640   23.0440 F   0  0  0  0  0  0  0  0  0  0  0  0
    9.6210    0.4860   23.3800 C   0  0  0  0  0  0  0  0  0  0  0  0
    9.3960    0.1670   25.5880 N   0  0  0  0  0  0  0  0  0  0  0  0
   10.8480    0.0170   23.7640 C   0  0  0  0  0  0  0  0  0  0  0  0
   10.6270   -0.1850   25.2600 C   0  0  0  0  0  0  0  0  0  0  0  0
    8.7740    0.0970   27.2120 S   0  0  0  0  0  0  0  0  0  0  0  0
   11.9720   -0.2020   22.9610 C   0  0  0  0  0  0  0  0  0  0  0  0
    9.9140    0.2350   28.0840 O   0  0  0  0  0  0  0  0  0  0  0  0
    7.7330    1.0940   27.2680 O   0  0  0  0  0  0  0  0  0  0  0  0
    7.9780   -1.4470   27.5830 C   0  0  0  0  0  0  0  0  0  0  0  0
   11.6250   -1.3880   22.3730 N   0  0  0  0  0  0  0  0  0  0  0  0
    8.1090   -2.5930   26.8000 C   0  0  0  0  0  0  0  0  0  0  0  0
    7.1740   -1.5260   28.7200 C   0  0  0  0  0  0  0  0  0  0  0  0
   12.7090   -1.8910   21.7030 C   0  0  0  0  0  0  0  0  0  0  0  0
    7.4430   -3.7620   27.1770 C   0  0  0  0  0  0  0  0  0  0  0  0
    6.5100   -2.6570   29.1100 N   0  0  0  0  0  0  0  0  0  0  0  0
    6.6600   -3.7500   28.3300 C   0  0  0  0  0  0  0  0  0  0  0  0
  1  2  2  3
  1  3  1  0
  3  4  2  0
  3  5  1  0
  4  6  1  0
  5  7  2  0
  6  8  2  0
  7  8  1  0
  8  9  1  0
  9 10  1  0
 10 11  1  0
 11 12  2  0
 11 13  1  0
 12 14  1  0
 13 15  2  0
 13 16  1  0
 14 17  2  0
 15 17  1  0
 15 18  1  0
 16 19  2  0
 16 20  1  0
 19 21  1  0
 20 22  1  0
 21 22  2  0
 20 23  1  0
 21 24  1  0
 23 25  2  0
 23 26  2  0
 23 27  1  0
 24 28  1  0
 27 29  2  0
 27 30  1  0
 28 31  1  0
 29 32  1  0
 30 33  2  0
 32 34  2  0
 33 34  1  0
M  END
