MAK-UNK-5d2caa6f-24-bromoalkyne
     RDKit          3D

 23 26  0  0  0  0  0  0  0  0999 V2000
    7.1570   -3.2040   19.6480 C   0  0  0  0  0  0  0  0  0  0  0  0
    5.7990   -3.1330   18.9920 C   0  0  0  0  0  0  0  0  0  0  0  0
    7.2740   -2.9130   21.0110 N   0  0  0  0  0  0  0  0  0  0  0  0
    7.3480   -1.5830   21.3750 C   0  0  0  0  0  0  0  0  0  0  0  0
    7.9310   -3.6240   22.0260 C   0  0  1  0  0  0  0  0  0  0  0  0
    8.5170   -1.6970   22.2820 C   0  0  2  0  0  0  0  0  0  0  0  0
    9.1930   -2.9970   21.9460 C   0  0  0  0  0  0  0  0  0  0  0  0
    7.3430   -3.1910   23.1820 C   0  0  0  0  0  0  0  0  0  0  0  0
    8.1390   -2.0690   23.5510 N   0  0  0  0  0  0  0  0  0  0  0  0
    9.2440   -2.1140   24.3990 C   0  0  1  0  0  0  0  0  0  0  0  0
   10.4780   -1.3190   23.8650 C   0  0  0  0  0  0  0  0  0  0  0  0
    8.7860   -1.5840   25.8110 C   0  0  2  0  0  0  0  0  0  0  0  0
   11.3880   -1.9680   22.9970 C   0  0  0  0  0  0  0  0  0  0  0  0
   10.6640    0.0180   24.2580 C   0  0  0  0  0  0  0  0  0  0  0  0
    7.8730   -2.6100   26.5000 C   0  0  0  0  0  0  0  0  0  0  0  0
    8.1780   -0.2960   25.8410 C   0  0  0  0  0  0  0  0  0  0  0  0
   12.5070   -1.2810   22.5160 C   0  0  0  0  0  0  0  0  0  0  0  0
   11.8200    0.9930   23.8570 C   0  0  0  0  0  0  0  0  0  0  0  0
    7.3110   -1.7150   27.3560 C   0  0  0  0  0  0  0  0  0  0  0  0
    7.6550    0.1480   27.1120 C   0  0  0  0  0  0  0  0  0  0  0  0
   12.7210    0.1350   22.9250 C   0  0  0  0  0  0  0  0  0  0  0  0
    7.1110   -0.6680   27.7410 N   0  0  0  0  0  0  0  0  0  0  0  0
    7.7540    1.2960   27.5320 O   0  0  0  0  0  0  0  0  0  0  0  0
  1  2  2  3
  1  3  1  0
  3  4  1  0
  3  5  1  0
  6  4  1  6
  5  7  1  0
  6  7  1  0
  5  8  1  1
  6  9  1  0
  8  9  1  0
  9 10  1  0
 10 11  1  6
 10 12  1  0
 11 13  2  0
 11 14  1  0
 12 15  1  6
 12 16  1  0
 13 17  1  0
 14 18  2  0
 15 19  1  0
 16 20  1  0
 17 21  2  0
 18 21  1  0
 19 22  1  0
 20 22  1  0
 20 23  2  0
M  END
