MAK-UNK-5e88aa6a-2
     RDKit          3D

 17 18  0  0  0  0  0  0  0  0999 V2000
   11.3920   -2.3570   24.0820 C   0  0  0  0  0  0  0  0  0  0  0  0
   12.4420   -1.9520   23.0960 C   0  0  0  0  0  0  0  0  0  0  0  0
   13.0640   -0.5760   23.3210 C   0  0  0  0  0  0  0  0  0  0  0  0
   12.3310    0.6170   22.7410 C   0  0  1  0  0  0  0  0  0  0  0  0
   10.8470    0.6340   23.0200 C   0  0  0  0  0  0  0  0  0  0  0  0
   12.9730    1.9050   23.0280 C   0  0  0  0  0  0  0  0  0  0  0  0
   10.0760    1.9740   22.9660 C   0  0  0  0  0  0  0  0  0  0  0  0
   12.2530    3.1720   22.5910 C   0  0  0  0  0  0  0  0  0  0  0  0
   10.8310    3.1790   23.1100 C   0  0  2  0  0  0  0  0  0  0  0  0
   10.9960    3.7320   24.3400 O   0  0  0  0  0  0  0  0  0  0  0  0
   10.5360    5.0600   24.4790 C   0  0  0  0  0  0  0  0  0  0  0  0
    9.2100    5.5050   24.1890 C   0  0  0  0  0  0  0  0  0  0  0  0
   11.4720    5.9990   24.9330 C   0  0  0  0  0  0  0  0  0  0  0  0
    8.7530    6.8650   24.3310 C   0  0  0  0  0  0  0  0  0  0  0  0
   11.0590    7.4690   25.1080 C   0  0  0  0  0  0  0  0  0  0  0  0
    9.6210    7.8730   24.7800 C   0  0  0  0  0  0  0  0  0  0  0  0
    9.2520    9.3380   24.9700 C   0  0  0  0  0  0  0  0  0  0  0  0
  1  2  1  0
  2  3  1  0
  4  3  1  1
  4  5  1  0
  4  6  1  0
  5  7  1  0
  6  8  1  0
  7  9  1  0
  8  9  1  0
  9 10  1  1
 10 11  1  0
 11 12  2  0
 11 13  1  0
 12 14  1  0
 13 15  2  0
 14 16  2  0
 15 16  1  0
 16 17  1  0
M  END
