MAK-UNK-ec98eaf6-39-chloroacetamide
     RDKit          3D

 21 24  0  0  0  0  0  0  0  0999 V2000
    8.5190   -3.4670   19.7110 C   0  0  0  0  0  0  0  0  0  0  0  0
    7.2440   -3.8330   20.4360 C   0  0  0  0  0  0  0  0  0  0  0  0
    6.2400   -4.4040   19.9330 O   0  0  0  0  0  0  0  0  0  0  0  0
    7.2520   -3.4050   21.7510 N   0  0  0  0  0  0  0  0  0  0  0  0
    7.3400   -4.3190   22.9300 C   0  0  0  0  0  0  0  0  0  0  0  0
    7.8570   -2.1080   22.1780 C   0  0  1  0  0  0  0  0  0  0  0  0
    8.1710   -3.5330   24.0230 C   0  0  1  0  0  0  0  0  0  0  0  0
    7.6000   -2.1120   23.7110 C   0  0  0  0  0  0  0  0  0  0  0  0
    9.3080   -2.3000   22.5110 C   0  0  0  0  0  0  0  0  0  0  0  0
    8.1040   -4.0390   25.4510 C   0  0  0  0  0  0  0  0  0  0  0  0
   10.3480   -1.6140   21.7380 C   0  0  0  0  0  0  0  0  0  0  0  0
    9.5630   -3.1230   23.5590 C   0  0  0  0  0  0  0  0  0  0  0  0
    8.9980   -5.0360   25.8890 C   0  0  0  0  0  0  0  0  0  0  0  0
    7.1690   -3.5440   26.3940 C   0  0  0  0  0  0  0  0  0  0  0  0
   11.6630   -1.8190   22.0790 C   0  0  0  0  0  0  0  0  0  0  0  0
   10.8980   -3.3480   23.9230 C   0  0  0  0  0  0  0  0  0  0  0  0
    8.9520   -5.5100   27.1990 C   0  0  0  0  0  0  0  0  0  0  0  0
    7.1200   -4.0180   27.7140 C   0  0  0  0  0  0  0  0  0  0  0  0
   11.9220   -2.6870   23.1700 C   0  0  0  0  0  0  0  0  0  0  0  0
    8.0210   -5.0060   28.1030 C   0  0  0  0  0  0  0  0  0  0  0  0
    6.1740   -3.4980   28.6240 N   0  0  0  0  0  0  0  0  0  0  0  0
  1  2  1  0
  2  3  2  0
  2  4  1  0
  4  5  1  0
  6  4  1  6
  5  7  1  0
  6  8  1  0
  7  8  1  0
  6  9  1  0
  7 10  1  1
  9 11  2  0
  7 12  1  0
  9 12  1  0
 10 13  2  0
 10 14  1  0
 11 15  1  0
 12 16  2  0
 13 17  1  0
 14 18  2  0
 15 19  2  0
 16 19  1  0
 17 20  2  0
 18 20  1  0
 18 21  1  0
M  END
