MAK-UNK-a7992eb3-20
     RDKit          3D

 29 32  0  0  0  0  0  0  0  0999 V2000
    8.4600   -3.4760   22.6710 C   0  0  0  0  0  0  0  0  0  0  0  0
    7.2730   -4.3520   22.9890 C   0  0  1  0  0  0  0  0  0  0  0  0
    6.1150   -3.7460   23.7490 C   0  0  2  0  0  0  0  0  0  0  0  0
    6.7760   -5.0090   21.9640 N   0  0  0  0  0  0  0  0  0  0  0  0
    6.5910   -2.9430   24.8490 O   0  0  0  0  0  0  0  0  0  0  0  0
    5.1750   -4.6630   24.1910 C   0  0  0  0  0  0  0  0  0  0  0  0
    5.9470   -6.1330   22.3930 C   0  0  0  0  0  0  0  0  0  0  0  0
    6.0530   -4.2820   21.0180 C   0  0  0  0  0  0  0  0  0  0  0  0
    5.5820   -2.2650   25.6130 C   0  0  0  0  0  0  0  0  0  0  0  0
    4.9900   -5.7860   23.3860 C   0  0  0  0  0  0  0  0  0  0  0  0
    6.4120   -3.0700   20.4320 C   0  0  0  0  0  0  0  0  0  0  0  0
    4.8910   -1.3510   24.7840 C   0  0  2  0  0  0  0  0  0  0  0  0
    7.4770   -2.3060   20.9020 C   0  0  0  0  0  0  0  0  0  0  0  0
    5.6670   -2.5910   19.3290 C   0  0  0  0  0  0  0  0  0  0  0  0
    5.6470   -0.3700   24.1520 C   0  0  0  0  0  0  0  0  0  0  0  0
    4.0320   -0.6680   25.7240 O   0  0  0  0  0  0  0  0  0  0  0  0
    7.7480   -1.1110   20.2620 C   0  0  0  0  0  0  0  0  0  0  0  0
    5.9660   -1.3780   18.6990 C   0  0  0  0  0  0  0  0  0  0  0  0
    4.9560    0.5190   23.3250 N   0  0  0  0  0  0  0  0  0  0  0  0
    3.7140    0.6790   25.3340 C   0  0  0  0  0  0  0  0  0  0  0  0
    7.0260   -0.6360   19.1850 C   0  0  0  0  0  0  0  0  0  0  0  0
    4.7680   -0.0350   21.9810 C   0  0  0  0  0  0  0  0  0  0  0  0
    3.6600    0.8530   23.9460 C   0  0  0  0  0  0  0  0  0  0  0  0
    3.9200    0.8810   21.1130 C   0  0  0  0  0  0  0  0  0  0  0  0
    2.5640    1.3060   21.2760 C   0  0  0  0  0  0  0  0  0  0  0  0
    4.5760    1.3870   19.9700 C   0  0  0  0  0  0  0  0  0  0  0  0
    1.8510    2.2210   20.3320 C   0  0  0  0  0  0  0  0  0  0  0  0
    4.0100    2.2500   19.0210 C   0  0  0  0  0  0  0  0  0  0  0  0
    2.6950    2.6850   19.1510 C   0  0  0  0  0  0  0  0  0  0  0  0
  2  1  1  6
  2  3  1  0
  2  4  1  0
  3  5  1  1
  3  6  1  0
  4  7  1  0
  4  8  1  0
  5  9  1  0
  6 10  1  0
  7 10  1  0
  8 11  1  0
 12  9  1  1
 11 13  2  0
 11 14  1  0
 12 15  1  0
 12 16  1  0
 13 17  1  0
 14 18  2  0
 15 19  1  0
 16 20  1  0
 17 21  2  0
 18 21  1  0
 19 22  1  0
 19 23  1  0
 20 23  1  0
 22 24  1  0
 24 25  2  0
 24 26  1  0
 25 27  1  0
 26 28  2  0
 27 29  2  0
 28 29  1  0
M  END
