MAK-UNK-c44f4be0-4
     RDKit          3D

 32 33  0  0  0  0  0  0  0  0999 V2000
    5.4560    7.4460   18.8390 C   0  0  0  0  0  0  0  0  0  0  0  0
    4.1480    8.5870   19.2480 S   0  0  0  0  0  0  0  0  0  0  0  0
    4.3930    9.8410   18.5800 O   0  0  0  0  0  0  0  0  0  0  0  0
    2.8990    7.8830   19.1500 O   0  0  0  0  0  0  0  0  0  0  0  0
    4.3790    8.8340   20.8810 N   0  0  0  0  0  0  0  0  0  0  0  0
    5.0310    7.8960   21.6620 C   0  0  0  0  0  0  0  0  0  0  0  0
    6.5380    8.1330   21.6710 C   0  0  0  0  0  0  0  0  0  0  0  0
    7.4300    7.0300   22.2090 C   0  0  0  0  0  0  0  0  0  0  0  0
    8.8550    7.3970   22.6480 C   0  0  0  0  0  0  0  0  0  0  0  0
    6.9570    5.7220   22.3020 C   0  0  0  0  0  0  0  0  0  0  0  0
    9.7600    6.2930   23.1910 C   0  0  0  0  0  0  0  0  0  0  0  0
    7.7580    4.6970   22.7980 C   0  0  0  0  0  0  0  0  0  0  0  0
    9.2020    4.8780   23.2750 C   0  0  0  0  0  0  0  0  0  0  0  0
    7.2320    3.2800   22.9120 C   0  0  0  0  0  0  0  0  0  0  0  0
    6.0600    3.1230   23.7360 O   0  0  0  0  0  0  0  0  0  0  0  0
    7.9350    2.3240   22.2290 N   0  0  0  0  0  0  0  0  0  0  0  0
    7.7520    1.1290   22.8660 C   0  0  1  0  0  0  0  0  0  0  0  0
    6.4640    0.4890   22.6660 C   0  0  0  0  0  0  0  0  0  0  0  0
    8.8670    0.3230   22.5390 C   0  0  0  0  0  0  0  0  0  0  0  0
    6.2400    0.4570   21.2860 C   0  0  0  0  0  0  0  0  0  0  0  0
    9.7920    0.8630   21.9360 O   0  0  0  0  0  0  0  0  0  0  0  0
    8.9990   -1.0170   22.8690 N   0  0  0  0  0  0  0  0  0  0  0  0
    7.0140   -0.3630   20.4400 C   0  0  0  0  0  0  0  0  0  0  0  0
    5.2240    1.2480   20.7060 C   0  0  0  0  0  0  0  0  0  0  0  0
    9.7980   -1.8870   22.1200 C   0  0  0  0  0  0  0  0  0  0  0  0
    6.7470   -0.3620   19.0750 C   0  0  0  0  0  0  0  0  0  0  0  0
    5.0060    1.2060   19.3500 C   0  0  0  0  0  0  0  0  0  0  0  0
   11.1450   -1.4210   22.0200 C   0  0  0  0  0  0  0  0  0  0  0  0
    5.7470    0.4140   18.5180 C   0  0  0  0  0  0  0  0  0  0  0  0
   12.0750   -1.7950   23.0250 C   0  0  0  0  0  0  0  0  0  0  0  0
    5.4900    0.4150   17.2120 O   0  0  0  0  0  0  0  0  0  0  0  0
   13.2680   -2.3030   24.3990 Br  0  0  0  0  0  0  0  0  0  0  0  0
  1  2  1  0
  2  3  2  0
  2  4  2  0
  2  5  1  0
  5  6  1  0
  6  7  1  0
  7  8  1  0
  8  9  2  0
  8 10  1  0
  9 11  1  0
 10 12  2  0
 11 13  2  0
 12 13  1  0
 12 14  1  0
 14 15  2  0
 14 16  1  0
 16 17  1  0
 17 18  1  6
 17 19  1  0
 18 20  1  0
 19 21  2  0
 19 22  1  0
 20 23  2  0
 20 24  1  0
 22 25  1  0
 23 26  1  0
 24 27  2  0
 25 28  1  0
 26 29  2  0
 27 29  1  0
 28 30  3  0
 29 31  1  0
 30 32  1  0
M  END
