MAK-UNK-10dfa458-15-chloroacetamide
     RDKit          3D

 33 36  0  0  0  0  0  0  0  0999 V2000
    6.9940   -3.4630   19.9740 C   0  0  0  0  0  0  0  0  0  0  0  0
    6.2350   -4.6260   20.5840 C   0  0  0  0  0  0  0  0  0  0  0  0
    5.3130   -5.1360   19.9900 O   0  0  0  0  0  0  0  0  0  0  0  0
    6.5820   -5.1550   21.8470 N   0  0  0  0  0  0  0  0  0  0  0  0
    7.2150   -4.4060   22.9300 C   0  0  0  0  0  0  0  0  0  0  0  0
    5.7820   -6.2820   22.3260 C   0  0  0  0  0  0  0  0  0  0  0  0
    6.2260   -3.9130   23.9960 C   0  0  0  0  0  0  0  0  0  0  0  0
    4.8730   -5.9440   23.5380 C   0  0  0  0  0  0  0  0  0  0  0  0
    5.4110   -4.9980   24.5470 N   0  0  0  0  0  0  0  0  0  0  0  0
    4.6380   -4.9260   25.7070 C   0  0  0  0  0  0  0  0  0  0  0  0
    3.6970   -3.7680   25.7680 C   0  0  0  0  0  0  0  0  0  0  0  0
    2.2040   -4.0630   26.0400 C   0  0  0  0  0  0  0  0  0  0  0  0
    4.0470   -2.4190   25.5950 C   0  0  0  0  0  0  0  0  0  0  0  0
    1.2720   -3.0120   26.1000 C   0  0  0  0  0  0  0  0  0  0  0  0
    2.9460   -1.3310   25.6770 C   0  0  0  0  0  0  0  0  0  0  0  0
    1.6050   -1.6600   25.9230 C   0  0  0  0  0  0  0  0  0  0  0  0
    0.6320   -0.6520   25.9850 C   0  0  0  0  0  0  0  0  0  0  0  0
   -0.3600   -0.6680   25.0450 N   0  0  0  0  0  0  0  0  0  0  0  0
   -0.4100    0.3380   24.1470 C   0  0  0  0  0  0  0  0  0  0  0  0
    0.5740    0.9330   23.7290 O   0  0  0  0  0  0  0  0  0  0  0  0
   -1.6600    0.7400   23.6630 C   0  0  0  0  0  0  0  0  0  0  0  0
   -2.1200    0.0410   22.5840 N   0  0  0  0  0  0  0  0  0  0  0  0
   -1.8760    0.3820   21.3120 C   0  0  0  0  0  0  0  0  0  0  0  0
   -3.0520   -0.0400   20.6060 C   0  0  0  0  0  0  0  0  0  0  0  0
   -4.2130    0.7630   20.5260 C   0  0  0  0  0  0  0  0  0  0  0  0
   -3.3720   -1.2350   19.8670 C   0  0  0  0  0  0  0  0  0  0  0  0
   -5.1840    0.1470   19.8090 N   0  0  0  0  0  0  0  0  0  0  0  0
   -4.7050   -1.0840   19.3860 C   0  0  0  0  0  0  0  0  0  0  0  0
   -2.6170   -2.5520   19.5130 C   0  0  0  0  0  0  0  0  0  0  0  0
   -5.4120   -2.1490   18.5480 C   0  0  0  0  0  0  0  0  0  0  0  0
   -3.3260   -3.6250   18.6720 C   0  0  0  0  0  0  0  0  0  0  0  0
   -4.6140   -3.4010   18.2450 C   0  0  0  0  0  0  0  0  0  0  0  0
   -2.7130   -4.7720   18.3510 F   0  0  0  0  0  0  0  0  0  0  0  0
  1  2  1  0
  2  3  2  0
  2  4  1  0
  4  5  1  0
  4  6  1  0
  5  7  1  0
  6  8  1  0
  7  9  1  0
  8  9  1  0
  9 10  1  0
 10 11  1  0
 11 12  2  0
 11 13  1  0
 12 14  1  0
 13 15  2  0
 14 16  2  0
 15 16  1  0
 16 17  1  0
 17 18  1  0
 18 19  1  0
 19 20  2  0
 19 21  1  0
 21 22  1  0
 22 23  1  0
 23 24  1  0
 24 25  2  0
 24 26  1  0
 25 27  1  0
 26 28  2  0
 27 28  1  0
 26 29  1  0
 28 30  1  0
 29 31  2  0
 30 32  2  0
 31 32  1  0
 31 33  1  0
M  END
