MAK-UNK-b2c98f02-5
     RDKit          3D

 28 30  0  0  0  0  0  0  0  0999 V2000
    9.1750    1.3870   21.1360 O   0  0  0  0  0  0  0  0  0  0  0  0
    8.6780    0.4150   21.6950 C   0  0  0  0  0  0  0  0  0  0  0  0
    7.6630   -0.4500   21.1580 N   0  0  0  0  0  0  0  0  0  0  0  0
    9.0560    0.1010   23.1110 C   0  0  1  0  0  0  0  0  0  0  0  0
    6.9070    0.0360   20.1240 C   0  0  0  0  0  0  0  0  0  0  0  0
   10.5630   -0.3470   23.2490 C   0  0  0  0  0  0  0  0  0  0  0  0
    8.5920    1.6720   23.7160 S   0  0  0  0  0  0  0  0  0  0  0  0
    5.7420    0.9330   20.5350 C   0  0  0  0  0  0  0  0  0  0  0  0
    7.1180   -0.2090   18.7860 C   0  0  0  0  0  0  0  0  0  0  0  0
   10.8630   -1.5080   22.3340 C   0  0  0  0  0  0  0  0  0  0  0  0
   11.6400    0.5080   23.1000 C   0  0  0  0  0  0  0  0  0  0  0  0
    7.5290    2.1120   22.8540 O   0  0  0  0  0  0  0  0  0  0  0  0
    8.3700    1.6110   25.1280 O   0  0  0  0  0  0  0  0  0  0  0  0
    9.8360    2.7540   23.3830 N   0  0  0  0  0  0  0  0  0  0  0  0
    4.8800    1.5170   19.4440 C   0  0  0  0  0  0  0  0  0  0  0  0
    6.4000    0.2750   17.7780 N   0  0  0  0  0  0  0  0  0  0  0  0
   12.1790   -1.8900   22.3610 C   0  0  0  0  0  0  0  0  0  0  0  0
   12.9190    0.0210   23.4130 C   0  0  0  0  0  0  0  0  0  0  0  0
    9.7890    4.0270   24.1010 C   0  0  0  0  0  0  0  0  0  0  0  0
    5.2520    1.1580   18.0150 C   0  0  0  0  0  0  0  0  0  0  0  0
   12.8990   -1.3630   23.4920 C   0  0  0  0  0  0  0  0  0  0  0  0
   10.9120    4.8100   23.8070 C   0  0  0  0  0  0  0  0  0  0  0  0
   11.1840    5.9940   24.7170 C   0  0  0  0  0  0  0  0  0  0  0  0
   11.7060    7.3440   24.2980 C   0  0  0  0  0  0  0  0  0  0  0  0
   10.9150    5.7920   26.0660 C   0  0  0  0  0  0  0  0  0  0  0  0
   11.9050    8.3490   25.2600 C   0  0  0  0  0  0  0  0  0  0  0  0
   11.1330    6.8170   27.0090 C   0  0  0  0  0  0  0  0  0  0  0  0
   11.6180    8.0790   26.6290 C   0  0  0  0  0  0  0  0  0  0  0  0
  1  2  2  0
  2  3  1  0
  4  2  1  6
  3  5  1  0
  4  6  1  0
  4  7  1  0
  5  8  2  0
  5  9  1  0
  6 10  1  0
  6 11  1  0
  7 12  2  0
  7 13  2  0
  7 14  1  0
  8 15  1  0
  9 16  2  0
 10 17  1  0
 11 18  1  0
 14 19  1  0
 15 20  2  0
 16 20  1  0
 17 21  1  0
 18 21  1  0
 19 22  1  0
 22 23  1  0
 23 24  2  0
 23 25  1  0
 24 26  1  0
 25 27  2  0
 26 28  2  0
 27 28  1  0
M  END
