MAK-UNK-10799360-22-nitrile
     RDKit          3D

 22 24  0  0  0  0  0  0  0  0999 V2000
    7.0420   -3.3380   19.5370 C   0  0  0  0  0  0  0  0  0  0  0  0
    6.1430   -3.0980   18.6600 N   0  0  0  0  0  0  0  0  0  0  0  0
    6.9040   -2.9730   20.8600 N   0  0  0  0  0  0  0  0  0  0  0  0
    6.6890   -3.8560   22.0230 C   0  0  0  0  0  0  0  0  0  0  0  0
    7.0990   -1.6090   21.4060 C   0  0  1  0  0  0  0  0  0  0  0  0
    7.2670   -2.9570   23.1530 C   0  0  2  0  0  0  0  0  0  0  0  0
    6.4610   -1.6770   22.7950 C   0  0  0  0  0  0  0  0  0  0  0  0
    8.5670   -1.4560   21.8260 C   0  0  0  0  0  0  0  0  0  0  0  0
    8.6640   -2.4700   22.8950 N   0  0  0  0  0  0  0  0  0  0  0  0
    9.5560   -2.2100   24.0510 C   0  0  0  0  0  0  0  0  0  0  0  0
   10.5830   -1.1020   23.7580 C   0  0  0  0  0  0  0  0  0  0  0  0
   10.2300    0.3710   23.9200 C   0  0  0  0  0  0  0  0  0  0  0  0
   11.8860   -1.3380   23.3200 C   0  0  0  0  0  0  0  0  0  0  0  0
   11.1930    1.3600   23.6150 C   0  0  0  0  0  0  0  0  0  0  0  0
   12.7690   -0.3250   23.0370 C   0  0  0  0  0  0  0  0  0  0  0  0
   12.4280   -2.6500   23.1170 C   0  0  0  0  0  0  0  0  0  0  0  0
   10.8840    2.7150   23.7410 C   0  0  0  0  0  0  0  0  0  0  0  0
   12.4630    1.0030   23.1720 C   0  0  0  0  0  0  0  0  0  0  0  0
   11.9700   -3.2660   24.0670 O   0  0  0  0  0  0  0  0  0  0  0  0
   13.2440   -2.8650   22.0630 N   0  0  0  0  0  0  0  0  0  0  0  0
   11.6530    3.4560   22.7320 N   0  0  0  0  0  0  0  0  0  0  0  0
   12.7590   -2.2170   21.0330 C   0  0  0  0  0  0  0  0  0  0  0  0
  1  2  2  3
  1  3  1  0
  3  4  1  0
  3  5  1  0
  6  4  1  6
  5  7  1  0
  6  7  1  0
  5  8  1  1
  6  9  1  0
  8  9  1  0
  9 10  1  0
 10 11  1  0
 11 12  2  0
 11 13  1  0
 12 14  1  0
 13 15  2  0
 13 16  1  0
 14 17  1  0
 14 18  2  0
 15 18  1  0
 16 19  2  0
 16 20  1  0
 17 21  3  0
 20 22  1  0
M  END
