MAK-UNK-5d2caa6f-24-acrylamide
     RDKit          3D

 25 28  0  0  0  0  0  0  0  0999 V2000
    7.7230   -2.8930   18.2450 C   0  0  0  0  0  0  0  0  0  0  0  0
    6.3340   -2.7620   18.8730 C   0  0  0  0  0  0  0  0  0  0  0  0
    5.9750   -3.4640   20.1450 C   0  0  0  0  0  0  0  0  0  0  0  0
    5.2570   -4.4770   20.0980 O   0  0  0  0  0  0  0  0  0  0  0  0
    6.4680   -2.8720   21.2920 N   0  0  0  0  0  0  0  0  0  0  0  0
    7.3870   -1.8270   21.1370 C   0  0  0  0  0  0  0  0  0  0  0  0
    6.7180   -3.5380   22.5990 C   0  0  1  0  0  0  0  0  0  0  0  0
    8.3240   -2.5430   22.1020 C   0  0  2  0  0  0  0  0  0  0  0  0
    7.9590   -4.0240   22.2640 C   0  0  0  0  0  0  0  0  0  0  0  0
    7.0530   -2.6390   23.6170 C   0  0  0  0  0  0  0  0  0  0  0  0
    8.1630   -1.9880   23.3160 N   0  0  0  0  0  0  0  0  0  0  0  0
    9.2130   -2.0080   24.1600 C   0  0  1  0  0  0  0  0  0  0  0  0
   10.3890   -1.3150   23.7730 C   0  0  0  0  0  0  0  0  0  0  0  0
    8.6590   -1.4450   25.5410 C   0  0  2  0  0  0  0  0  0  0  0  0
   11.3310   -1.9190   22.8670 C   0  0  0  0  0  0  0  0  0  0  0  0
   10.6570   -0.0140   24.2720 C   0  0  0  0  0  0  0  0  0  0  0  0
    7.3370   -0.9870   25.4840 C   0  0  0  0  0  0  0  0  0  0  0  0
    9.5040   -0.2750   26.1600 C   0  0  0  0  0  0  0  0  0  0  0  0
   12.6200   -1.1670   22.4490 C   0  0  0  0  0  0  0  0  0  0  0  0
   11.8070    0.6690   23.9020 C   0  0  0  0  0  0  0  0  0  0  0  0
    7.1510   -0.1140   26.4960 C   0  0  0  0  0  0  0  0  0  0  0  0
    8.9880    0.1610   27.4230 C   0  0  0  0  0  0  0  0  0  0  0  0
   12.8470    0.1050   22.9640 C   0  0  0  0  0  0  0  0  0  0  0  0
    7.5410    0.4630   27.3750 N   0  0  0  0  0  0  0  0  0  0  0  0
    9.6440    0.2860   28.4480 O   0  0  0  0  0  0  0  0  0  0  0  0
  1  2  1  0
  2  3  1  0
  3  4  2  0
  3  5  1  0
  5  6  1  0
  5  7  1  0
  8  6  1  6
  7  9  1  0
  8  9  1  0
  7 10  1  1
  8 11  1  0
 10 11  1  0
 11 12  1  0
 12 13  1  6
 12 14  1  0
 13 15  2  0
 13 16  1  0
 14 17  1  6
 14 18  1  0
 15 19  1  0
 16 20  2  0
 17 21  1  0
 18 22  1  0
 19 23  2  0
 20 23  1  0
 21 24  1  0
 22 24  1  0
 22 25  2  0
M  END
