MAK-UNK-9e4a73aa-36
     RDKit          3D

 27 30  0  0  0  0  0  0  0  0999 V2000
   12.4080    0.8280   23.5410 C   0  0  0  0  0  0  0  0  0  0  0  0
   10.9720    1.1730   23.2920 C   0  0  0  0  0  0  0  0  0  0  0  0
   10.6010    2.5310   22.8240 C   0  0  0  0  0  0  0  0  0  0  0  0
    9.8600    0.1750   23.5290 C   0  0  0  0  0  0  0  0  0  0  0  0
   11.7860    3.7650   22.5270 Cl  0  0  0  0  0  0  0  0  0  0  0  0
    9.2610    2.8290   22.6250 C   0  0  0  0  0  0  0  0  0  0  0  0
    8.5730    0.5760   23.3010 C   0  0  0  0  0  0  0  0  0  0  0  0
    9.9020   -1.1510   24.0030 N   0  0  0  0  0  0  0  0  0  0  0  0
    8.8690    4.0350   22.2160 F   0  0  0  0  0  0  0  0  0  0  0  0
    8.2580    1.8670   22.8560 C   0  0  0  0  0  0  0  0  0  0  0  0
    7.6220   -0.4040   23.5570 C   0  0  0  0  0  0  0  0  0  0  0  0
    9.2300   -2.1250   23.4590 C   0  0  0  0  0  0  0  0  0  0  0  0
    9.3100   -0.8860   25.2230 C   0  0  0  0  0  0  0  0  0  0  0  0
    6.5650    0.0060   24.0480 O   0  0  0  0  0  0  0  0  0  0  0  0
    7.9150   -1.7530   23.2100 N   0  0  0  0  0  0  0  0  0  0  0  0
    9.6980   -3.2270   23.2360 O   0  0  0  0  0  0  0  0  0  0  0  0
   10.2110   -0.4070   26.1380 C   0  0  0  0  0  0  0  0  0  0  0  0
    7.8620   -1.0490   25.5930 C   0  0  0  0  0  0  0  0  0  0  0  0
    7.4460   -2.0220   22.0210 C   0  0  0  0  0  0  0  0  0  0  0  0
    9.7870   -0.0410   27.4980 C   0  0  0  0  0  0  0  0  0  0  0  0
    7.4750   -0.6890   26.8830 C   0  0  0  0  0  0  0  0  0  0  0  0
    8.0410   -1.1400   20.9340 C   0  0  0  0  0  0  0  0  0  0  0  0
    6.4900   -2.9710   21.7200 C   0  0  0  0  0  0  0  0  0  0  0  0
    8.4240   -0.1900   27.8280 C   0  0  0  0  0  0  0  0  0  0  0  0
    7.5490   -1.3230   19.5550 C   0  0  0  0  0  0  0  0  0  0  0  0
    5.9970   -3.1930   20.4930 N   0  0  0  0  0  0  0  0  0  0  0  0
    6.4980   -2.3920   19.4330 C   0  0  0  0  0  0  0  0  0  0  0  0
  1  2  1  0
  2  3  2  0
  2  4  1  0
  3  5  1  0
  3  6  1  0
  4  7  2  0
  4  8  1  0
  6  9  1  0
  6 10  2  0
  7 10  1  0
  7 11  1  0
  8 12  1  0
  8 13  1  0
 11 14  2  0
 11 15  1  0
 12 15  1  0
 12 16  2  0
 13 17  2  0
 13 18  1  0
 15 19  1  0
 17 20  1  0
 18 21  2  0
 19 22  2  0
 19 23  1  0
 20 24  2  0
 21 24  1  0
 22 25  1  0
 23 26  2  0
 25 27  2  0
 26 27  1  0
M  END
