MAK-UNK-ec98eaf6-39-vinylsulfonamide
     RDKit          3D

 23 26  0  0  0  0  0  0  0  0999 V2000
    7.3680   -2.8470   18.4230 C   0  0  0  0  0  0  0  0  0  0  0  0
    6.5160   -2.2220   19.5050 C   0  0  0  0  0  0  0  0  0  0  0  0
    5.9150   -3.3870   20.6910 S   0  0  0  0  0  0  0  0  0  0  0  0
    4.7040   -2.9550   21.3050 O   0  0  0  0  0  0  0  0  0  0  0  0
    5.8390   -4.7040   20.0990 O   0  0  0  0  0  0  0  0  0  0  0  0
    7.1180   -3.1350   21.8180 N   0  0  0  0  0  0  0  0  0  0  0  0
    8.0380   -1.9160   21.8640 C   0  0  0  0  0  0  0  0  0  0  0  0
    7.3390   -3.8910   23.0220 C   0  0  1  0  0  0  0  0  0  0  0  0
    8.8810   -2.1010   23.2000 C   0  0  1  0  0  0  0  0  0  0  0  0
    8.8690   -3.6540   23.1150 C   0  0  0  0  0  0  0  0  0  0  0  0
    7.0610   -2.9930   24.1710 C   0  0  0  0  0  0  0  0  0  0  0  0
   10.2080   -1.3610   23.2360 C   0  0  0  0  0  0  0  0  0  0  0  0
    5.9100   -3.2990   25.0380 C   0  0  0  0  0  0  0  0  0  0  0  0
    7.9040   -1.9420   24.3390 C   0  0  0  0  0  0  0  0  0  0  0  0
   10.4370   -0.2590   24.0830 C   0  0  0  0  0  0  0  0  0  0  0  0
   11.2630   -1.7490   22.3940 C   0  0  0  0  0  0  0  0  0  0  0  0
    5.6690   -2.4600   26.0980 C   0  0  0  0  0  0  0  0  0  0  0  0
    7.6670   -1.0740   25.4210 C   0  0  0  0  0  0  0  0  0  0  0  0
   11.6600    0.4120   24.0630 C   0  0  0  0  0  0  0  0  0  0  0  0
   12.4800   -1.0810   22.3800 C   0  0  0  0  0  0  0  0  0  0  0  0
    6.5540   -1.3550   26.2770 C   0  0  0  0  0  0  0  0  0  0  0  0
   12.6820    0.0070   23.2170 C   0  0  0  0  0  0  0  0  0  0  0  0
   13.4820   -1.5030   21.5170 N   0  0  0  0  0  0  0  0  0  0  0  0
  1  2  1  0
  3  2  1  0
  3  4  2  0
  3  5  2  0
  3  6  1  0
  6  7  1  0
  8  6  1  6
  7  9  1  0
  8 10  1  0
  9 10  1  0
  8 11  1  0
  9 12  1  1
 11 13  2  0
  9 14  1  0
 11 14  1  0
 12 15  2  0
 12 16  1  0
 13 17  1  0
 14 18  2  0
 15 19  1  0
 16 20  2  0
 17 21  2  0
 18 21  1  0
 19 22  2  0
 20 22  1  0
 20 23  1  0
M  END
