MAK-UNK-10dfa458-11-bromoalkyne
     RDKit          3D

 18 20  0  0  0  0  0  0  0  0999 V2000
    6.6470   -4.4730   20.3280 C   0  0  0  0  0  0  0  0  0  0  0  0
    6.1040   -3.3920   19.4090 C   0  0  0  0  0  0  0  0  0  0  0  0
    6.1680   -4.6940   21.6460 N   0  0  0  0  0  0  0  0  0  0  0  0
    7.0030   -4.5540   22.8450 C   0  0  2  0  0  0  0  0  0  0  0  0
    5.3040   -5.7870   22.0860 C   0  0  1  0  0  0  0  0  0  0  0  0
    7.4270   -5.9410   23.2840 C   0  0  0  0  0  0  0  0  0  0  0  0
    6.2400   -6.7740   22.7850 C   0  0  0  0  0  0  0  0  0  0  0  0
    4.3230   -5.2560   23.1640 C   0  0  0  0  0  0  0  0  0  0  0  0
    6.1260   -3.9700   23.9750 C   0  0  0  0  0  0  0  0  0  0  0  0
    5.0540   -5.0350   24.3380 C   0  0  1  0  0  0  0  0  0  0  0  0
    4.4390   -4.8310   25.5870 C   0  0  0  0  0  0  0  0  0  0  0  0
    3.4530   -3.8280   25.6100 C   0  0  0  0  0  0  0  0  0  0  0  0
    2.1060   -4.1080   25.3500 C   0  0  0  0  0  0  0  0  0  0  0  0
    3.7940   -2.3640   25.9280 C   0  0  0  0  0  0  0  0  0  0  0  0
    1.1090   -3.1350   25.3810 C   0  0  0  0  0  0  0  0  0  0  0  0
    2.6610   -1.3300   25.9490 C   0  0  0  0  0  0  0  0  0  0  0  0
    1.3760   -1.7700   25.6780 C   0  0  0  0  0  0  0  0  0  0  0  0
    2.8960    0.0500   26.2380 C   0  0  0  0  0  0  0  0  0  0  0  0
  1  2  2  3
  1  3  1  0
  3  4  1  0
  3  5  1  0
  4  6  1  1
  5  7  1  1
  6  7  1  0
  5  8  1  0
  4  9  1  0
  8 10  1  0
  9 10  1  0
 10 11  1  1
 11 12  1  0
 12 13  2  0
 12 14  1  0
 13 15  1  0
 14 16  2  0
 15 17  2  0
 16 17  1  0
 16 18  1  0
M  END
