MAK-UNK-69bf97dd-4-bromoalkyne
     RDKit          3D

 25 27  0  0  0  0  0  0  0  0999 V2000
    6.5430   -4.3620   20.0190 C   0  0  0  0  0  0  0  0  0  0  0  0
    6.3440   -3.1560   19.0910 C   0  0  0  0  0  0  0  0  0  0  0  0
    6.6210   -4.2230   21.3690 N   0  0  0  0  0  0  0  0  0  0  0  0
    6.3690   -5.3540   22.3040 C   0  0  0  0  0  0  0  0  0  0  0  0
    7.5960   -3.2400   21.8350 C   0  0  0  0  0  0  0  0  0  0  0  0
    5.5480   -4.7920   23.5120 C   0  0  0  0  0  0  0  0  0  0  0  0
    7.1970   -2.8360   23.2200 C   0  0  0  0  0  0  0  0  0  0  0  0
    5.7430   -3.2570   23.4000 C   0  0  0  0  0  0  0  0  0  0  0  0
    5.3020   -2.8190   24.7930 C   0  0  0  0  0  0  0  0  0  0  0  0
    4.7990   -3.5780   25.6190 O   0  0  0  0  0  0  0  0  0  0  0  0
    5.5150   -1.4860   24.9860 N   0  0  0  0  0  0  0  0  0  0  0  0
    6.0540   -0.9090   26.1910 C   0  0  0  0  0  0  0  0  0  0  0  0
    5.6040    0.5190   26.4210 C   0  0  0  0  0  0  0  0  0  0  0  0
    6.8930   -1.6100   27.0250 C   0  0  0  0  0  0  0  0  0  0  0  0
    6.1650    1.1400   27.6780 C   0  0  0  0  0  0  0  0  0  0  0  0
    7.4310   -1.0110   28.2130 C   0  0  0  0  0  0  0  0  0  0  0  0
    7.2250   -3.0380   26.6310 C   0  0  0  0  0  0  0  0  0  0  0  0
    7.0850    0.3090   28.5380 C   0  0  0  0  0  0  0  0  0  0  0  0
    8.2690   -1.7820   28.9720 C   0  0  0  0  0  0  0  0  0  0  0  0
    8.0610   -3.7060   27.4720 C   0  0  0  0  0  0  0  0  0  0  0  0
    8.5600   -3.0930   28.5880 C   0  0  0  0  0  0  0  0  0  0  0  0
    8.5310   -5.3910   27.1520 S   0  0  0  0  0  0  0  0  0  0  0  0
    7.0550   -6.2120   27.4190 N   0  0  0  0  0  0  0  0  0  0  0  0
    8.8970   -5.5330   25.7610 O   0  0  0  0  0  0  0  0  0  0  0  0
    9.4200   -5.7920   28.2030 O   0  0  0  0  0  0  0  0  0  0  0  0
  1  2  2  3
  1  3  1  0
  3  4  1  0
  3  5  1  0
  4  6  1  0
  5  7  1  0
  6  8  1  0
  7  8  1  0
  8  9  1  0
  9 10  2  0
  9 11  1  0
 11 12  1  0
 12 13  2  0
 12 14  1  0
 13 15  1  0
 14 16  2  0
 14 17  1  0
 15 18  2  0
 16 18  1  0
 16 19  1  0
 17 20  2  0
 19 21  2  0
 20 21  1  0
 20 22  1  0
 22 23  1  0
 22 24  2  0
 22 25  2  0
M  END
