MAK-UNK-849bee6c-8-bromoalkyne
     RDKit          3D

 25 27  0  0  0  0  0  0  0  0999 V2000
    6.7270   -3.4510   19.6520 C   0  0  0  0  0  0  0  0  0  0  0  0
    5.8210   -2.8350   18.6610 C   0  0  0  0  0  0  0  0  0  0  0  0
    6.8230   -2.7690   20.8400 N   0  0  0  0  0  0  0  0  0  0  0  0
    7.3740   -1.4520   20.9270 C   0  0  0  0  0  0  0  0  0  0  0  0
    6.4300   -3.3350   22.1170 C   0  0  0  0  0  0  0  0  0  0  0  0
    8.6110   -1.5080   21.8040 C   0  0  0  0  0  0  0  0  0  0  0  0
    7.6120   -3.3050   23.0980 C   0  0  0  0  0  0  0  0  0  0  0  0
    8.3680   -2.1470   23.1070 N   0  0  0  0  0  0  0  0  0  0  0  0
    9.4550   -2.2640   24.0130 C   0  0  0  0  0  0  0  0  0  0  0  0
   10.5930   -1.3520   23.6230 C   0  0  0  0  0  0  0  0  0  0  0  0
   11.9530   -1.9270   23.3510 C   0  0  0  0  0  0  0  0  0  0  0  0
   10.4000    0.0360   23.5130 C   0  0  0  0  0  0  0  0  0  0  0  0
   13.0070   -0.9640   22.9880 C   0  0  0  0  0  0  0  0  0  0  0  0
   11.4510    0.9190   23.1630 C   0  0  0  0  0  0  0  0  0  0  0  0
   12.7240    0.4060   22.9120 C   0  0  0  0  0  0  0  0  0  0  0  0
   11.2650    2.3150   23.0720 C   0  0  0  0  0  0  0  0  0  0  0  0
   10.0020    2.9110   23.5510 C   0  0  0  0  0  0  0  0  0  0  0  0
   10.0920    3.9920   24.4320 C   0  0  0  0  0  0  0  0  0  0  0  0
   11.1600    4.8720   24.3040 C   0  0  0  0  0  0  0  0  0  0  0  0
    9.0990    4.1310   25.4110 N   0  0  0  0  0  0  0  0  0  0  0  0
   11.3300    6.0100   25.1810 C   0  0  0  0  0  0  0  0  0  0  0  0
    9.2830    5.2790   26.2810 C   0  0  0  0  0  0  0  0  0  0  0  0
   10.3660    6.2680   26.2390 N   0  0  0  0  0  0  0  0  0  0  0  0
    8.1500    5.3410   27.3100 C   0  0  0  0  0  0  0  0  0  0  0  0
    7.2920    5.3900   28.0960 N   0  0  0  0  0  0  0  0  0  0  0  0
  1  2  2  3
  1  3  1  0
  3  4  1  0
  3  5  1  0
  4  6  1  0
  5  7  1  0
  6  8  1  0
  7  8  1  0
  8  9  1  0
  9 10  1  0
 10 11  2  0
 10 12  1  0
 11 13  1  0
 12 14  2  0
 13 15  2  0
 14 15  1  0
 14 16  1  0
 16 17  1  0
 17 18  1  0
 18 19  2  0
 18 20  1  0
 19 21  1  0
 20 22  2  0
 21 23  2  0
 22 23  1  0
 22 24  1  0
 24 25  3  0
M  END
