MAK-UNK-69bf97dd-3-acrylamide
     RDKit          3D

 28 30  0  0  0  0  0  0  0  0999 V2000
    7.3630   -2.8890   18.4400 C   0  0  0  0  0  0  0  0  0  0  0  0
    6.3420   -2.6120   19.5330 C   0  0  0  0  0  0  0  0  0  0  0  0
    5.9140   -3.8370   20.3150 C   0  0  0  0  0  0  0  0  0  0  0  0
    5.1360   -4.6630   19.8470 O   0  0  0  0  0  0  0  0  0  0  0  0
    6.4400   -4.0020   21.5690 N   0  0  0  0  0  0  0  0  0  0  0  0
    6.2530   -5.1440   22.4560 C   0  0  0  0  0  0  0  0  0  0  0  0
    7.4610   -3.0700   22.0310 C   0  0  0  0  0  0  0  0  0  0  0  0
    5.3760   -4.5730   23.6240 C   0  0  0  0  0  0  0  0  0  0  0  0
    7.3570   -3.0060   23.5350 C   0  0  0  0  0  0  0  0  0  0  0  0
    6.0130   -3.1850   23.9040 C   0  0  0  0  0  0  0  0  0  0  0  0
    5.6600   -3.1090   25.4050 C   0  0  0  0  0  0  0  0  0  0  0  0
    4.7600   -3.7070   25.9870 O   0  0  0  0  0  0  0  0  0  0  0  0
    6.6290   -2.1740   26.0050 N   0  0  0  0  0  0  0  0  0  0  0  0
    6.3690   -1.6560   27.3400 C   0  0  0  0  0  0  0  0  0  0  0  0
    5.9140   -0.2300   27.3890 C   0  0  0  0  0  0  0  0  0  0  0  0
    6.4450    0.8000   28.3330 C   0  0  0  0  0  0  0  0  0  0  0  0
    4.6630    0.5330   26.3670 S   0  0  0  0  0  0  0  0  0  0  0  0
    5.8550    2.0250   28.1820 C   0  0  0  0  0  0  0  0  0  0  0  0
    4.8800    2.0480   27.1740 C   0  0  0  0  0  0  0  0  0  0  0  0
    3.9360    3.4880   26.7390 S   0  0  0  0  0  0  0  0  0  0  0  0
    4.7120    4.6670   27.0770 O   0  0  0  0  0  0  0  0  0  0  0  0
    3.4350    3.2760   25.4000 O   0  0  0  0  0  0  0  0  0  0  0  0
    2.6130    3.4250   27.8330 N   0  0  0  0  0  0  0  0  0  0  0  0
    2.7860    4.0680   29.0170 C   0  0  0  0  0  0  0  0  0  0  0  0
    1.9810    2.0850   27.9320 C   0  0  0  0  0  0  0  0  0  0  0  0
    2.8000    3.0120   30.1050 C   0  0  0  0  0  0  0  0  0  0  0  0
    0.9360    2.0640   29.0410 C   0  0  0  0  0  0  0  0  0  0  0  0
    1.4780    2.4920   30.2840 O   0  0  0  0  0  0  0  0  0  0  0  0
  1  2  1  0
  2  3  1  0
  3  4  2  0
  3  5  1  0
  5  6  1  0
  5  7  1  0
  6  8  1  0
  7  9  1  0
  8 10  1  0
  9 10  1  0
 10 11  1  0
 11 12  2  0
 11 13  1  0
 13 14  1  0
 14 15  1  0
 15 16  2  0
 15 17  1  0
 16 18  1  0
 17 19  1  0
 18 19  2  0
 20 19  1  0
 20 21  2  0
 20 22  2  0
 20 23  1  0
 23 24  1  0
 23 25  1  0
 24 26  1  0
 25 27  1  0
 26 28  1  0
 27 28  1  0
M  END
