MAK-UNK-8fdbca50-40-nitrile
     RDKit          3D

 38 41  0  0  0  0  0  0  0  0999 V2000
    6.4080   -4.2650   19.9930 C   0  0  0  0  0  0  0  0  0  0  0  0
    5.1700   -4.2550   19.7870 N   0  0  0  0  0  0  0  0  0  0  0  0
    7.1160   -3.1880   20.3690 N   0  0  0  0  0  0  0  0  0  0  0  0
    7.0750   -2.7990   21.7850 C   0  0  0  0  0  0  0  0  0  0  0  0
    7.0220   -2.0650   19.4460 C   0  0  0  0  0  0  0  0  0  0  0  0
    5.8070   -1.9700   22.0640 C   0  0  0  0  0  0  0  0  0  0  0  0
    6.9210   -0.8740   20.1530 C   0  0  0  0  0  0  0  0  0  0  0  0
    5.6680   -0.8550   21.0560 C   0  0  0  0  0  0  0  0  0  0  0  0
    5.4420    0.4500   21.5520 C   0  0  0  0  0  0  0  0  0  0  0  0
    4.8870    0.6140   22.6320 O   0  0  0  0  0  0  0  0  0  0  0  0
    5.9080    1.5700   20.8760 C   0  0  1  0  0  0  0  0  0  0  0  0
    5.5590    2.8220   21.3800 C   0  0  0  0  0  0  0  0  0  0  0  0
    7.2880    1.6040   20.9620 N   0  0  0  0  0  0  0  0  0  0  0  0
    5.3840    1.5420   19.3760 C   0  0  0  0  0  0  0  0  0  0  0  0
    7.8580    0.7480   22.0310 C   0  0  0  0  0  0  0  0  0  0  0  0
    4.0020    0.9220   19.2430 C   0  0  0  0  0  0  0  0  0  0  0  0
    6.3140    0.9070   18.3350 C   0  0  0  0  0  0  0  0  0  0  0  0
    9.2040    1.1360   22.2150 C   0  0  0  0  0  0  0  0  0  0  0  0
    9.6690    2.5050   22.4330 C   0  0  0  0  0  0  0  0  0  0  0  0
   10.3780    0.3350   22.2280 C   0  0  0  0  0  0  0  0  0  0  0  0
   11.1340    2.3990   22.5620 C   0  0  0  0  0  0  0  0  0  0  0  0
   11.5780    1.0440   22.4310 N   0  0  0  0  0  0  0  0  0  0  0  0
   11.8060    3.6140   22.7620 C   0  0  0  0  0  0  0  0  0  0  0  0
   13.0560    0.0740   22.4490 S   0  0  0  0  0  0  0  0  0  0  0  0
   13.2400    3.9880   22.5950 C   0  0  0  0  0  0  0  0  0  0  0  0
   10.8750    4.5750   23.1640 C   0  0  0  0  0  0  0  0  0  0  0  0
   13.2980   -0.9440   21.4470 O   0  0  0  0  0  0  0  0  0  0  0  0
   14.0220    0.8630   23.0380 O   0  0  0  0  0  0  0  0  0  0  0  0
   11.9540   -0.5960   23.4380 C   0  0  0  0  0  0  0  0  0  0  0  0
   13.5490    5.3200   22.8400 C   0  0  0  0  0  0  0  0  0  0  0  0
   11.2600    5.8890   23.3960 C   0  0  0  0  0  0  0  0  0  0  0  0
    9.5800    4.2830   23.3390 F   0  0  0  0  0  0  0  0  0  0  0  0
   11.5090   -1.8910   23.4720 C   0  0  0  0  0  0  0  0  0  0  0  0
   11.4890    0.3880   24.2100 C   0  0  0  0  0  0  0  0  0  0  0  0
   12.5830    6.2280   23.2250 C   0  0  0  0  0  0  0  0  0  0  0  0
   10.5020   -2.1090   24.3720 C   0  0  0  0  0  0  0  0  0  0  0  0
   10.5380    0.2040   25.0660 N   0  0  0  0  0  0  0  0  0  0  0  0
   10.0620   -1.0090   25.1320 C   0  0  0  0  0  0  0  0  0  0  0  0
  1  2  2  3
  1  3  1  0
  3  4  1  0
  3  5  1  0
  4  6  1  0
  5  7  1  0
  6  8  1  0
  7  8  1  0
  8  9  1  0
  9 10  2  0
 11  9  1  0
 11 12  1  1
 11 13  1  0
 11 14  1  0
 13 15  1  0
 14 16  1  0
 14 17  1  0
 15 18  1  0
 18 19  1  0
 18 20  2  0
 19 21  2  0
 20 22  1  0
 21 22  1  0
 21 23  1  0
 22 24  1  0
 23 25  2  0
 23 26  1  0
 24 27  2  0
 24 28  2  0
 24 29  1  0
 25 30  1  0
 26 31  2  0
 26 32  1  0
 29 33  2  0
 29 34  1  0
 30 35  2  0
 31 35  1  0
 33 36  1  0
 34 37  2  0
 36 38  2  0
 37 38  1  0
M  END
