MAK-UNK-849bee6c-16-acrylamide
     RDKit          3D

 26 28  0  0  0  0  0  0  0  0999 V2000
    7.4210   -2.8110   18.2690 C   0  0  0  0  0  0  0  0  0  0  0  0
    6.1790   -2.3200   18.9810 C   0  0  0  0  0  0  0  0  0  0  0  0
    5.7690   -3.1260   20.1620 C   0  0  0  0  0  0  0  0  0  0  0  0
    5.2210   -4.2310   20.0070 O   0  0  0  0  0  0  0  0  0  0  0  0
    6.0600   -2.5160   21.3720 N   0  0  0  0  0  0  0  0  0  0  0  0
    6.8910   -1.3280   21.3630 C   0  0  0  0  0  0  0  0  0  0  0  0
    6.0150   -3.1520   22.6720 C   0  0  0  0  0  0  0  0  0  0  0  0
    8.2860   -1.5780   21.8990 C   0  0  0  0  0  0  0  0  0  0  0  0
    7.4370   -3.5750   23.0590 C   0  0  0  0  0  0  0  0  0  0  0  0
    8.3320   -2.4000   23.1180 N   0  0  0  0  0  0  0  0  0  0  0  0
    9.5740   -2.7430   23.6150 C   0  0  0  0  0  0  0  0  0  0  0  0
   10.4880   -1.5750   23.6230 C   0  0  0  0  0  0  0  0  0  0  0  0
   11.9230   -1.6000   23.2800 C   0  0  0  0  0  0  0  0  0  0  0  0
    9.9180   -0.3850   23.9690 C   0  0  0  0  0  0  0  0  0  0  0  0
   12.6610   -0.4190   23.3120 C   0  0  0  0  0  0  0  0  0  0  0  0
   10.6260    0.7780   24.0040 C   0  0  0  0  0  0  0  0  0  0  0  0
   12.0050    0.7610   23.6760 C   0  0  0  0  0  0  0  0  0  0  0  0
    9.6140    2.1550   24.4730 S   0  0  0  0  0  0  0  0  0  0  0  0
   10.5070    3.5430   23.9460 C   0  0  0  0  0  0  0  0  0  0  0  0
   11.6260    3.3660   23.1660 C   0  0  0  0  0  0  0  0  0  0  0  0
   10.0990    4.8320   24.3220 C   0  0  0  0  0  0  0  0  0  0  0  0
   12.3020    4.4660   22.8090 N   0  0  0  0  0  0  0  0  0  0  0  0
   10.7250    5.9520   24.0010 N   0  0  0  0  0  0  0  0  0  0  0  0
   11.8190    5.7220   23.2560 C   0  0  0  0  0  0  0  0  0  0  0  0
   12.6400    6.7290   22.8140 C   0  0  0  0  0  0  0  0  0  0  0  0
   13.3620    6.4270   21.7500 N   0  0  0  0  0  0  0  0  0  0  0  0
  1  2  1  0
  2  3  1  0
  3  4  2  0
  3  5  1  0
  5  6  1  0
  5  7  1  0
  6  8  1  0
  7  9  1  0
  8 10  1  0
  9 10  1  0
 10 11  1  0
 11 12  1  0
 12 13  2  0
 12 14  1  0
 13 15  1  0
 14 16  2  0
 15 17  2  0
 16 17  1  0
 16 18  1  0
 18 19  1  0
 19 20  2  0
 19 21  1  0
 20 22  1  0
 21 23  2  0
 22 24  2  0
 23 24  1  0
 24 25  1  0
 25 26  3  0
M  END
