MAK-UNK-ec98eaf6-19-chloroacetamide
     RDKit          3D

 25 28  0  0  0  0  0  0  0  0999 V2000
    7.2540   -3.0090   18.7870 C   0  0  0  0  0  0  0  0  0  0  0  0
    6.3520   -3.3660   19.9370 C   0  0  0  0  0  0  0  0  0  0  0  0
    5.4140   -4.1600   19.7530 O   0  0  0  0  0  0  0  0  0  0  0  0
    6.6080   -2.8180   21.1780 N   0  0  0  0  0  0  0  0  0  0  0  0
    6.7900   -1.3670   21.5620 C   0  0  0  0  0  0  0  0  0  0  0  0
    7.5560   -3.4820   22.0710 C   0  0  1  0  0  0  0  0  0  0  0  0
    8.1550   -1.5060   22.3230 C   0  0  2  0  0  0  0  0  0  0  0  0
    8.8340   -2.6790   21.7450 C   0  0  0  0  0  0  0  0  0  0  0  0
    7.1130   -3.2510   23.3570 C   0  0  0  0  0  0  0  0  0  0  0  0
    8.1260   -2.1960   23.6430 N   0  0  0  0  0  0  0  0  0  0  0  0
    9.4170   -2.8860   23.8110 C   0  0  0  0  0  0  0  0  0  0  0  0
   10.4620   -2.0300   24.1280 C   0  0  0  0  0  0  0  0  0  0  0  0
   10.0330   -0.9370   24.9780 N   0  0  0  0  0  0  0  0  0  0  0  0
   10.0700    0.3450   24.5250 C   0  0  0  0  0  0  0  0  0  0  0  0
    9.1730    1.1660   24.6950 O   0  0  0  0  0  0  0  0  0  0  0  0
   11.3010    0.7130   23.8100 C   0  0  0  0  0  0  0  0  0  0  0  0
   12.0490   -0.6090   23.6590 C   0  0  0  0  0  0  0  0  0  0  0  0
   11.6020    1.9990   23.4220 C   0  0  0  0  0  0  0  0  0  0  0  0
   13.3530   -0.4150   22.9690 C   0  0  0  0  0  0  0  0  0  0  0  0
   12.8010    2.1610   22.8000 C   0  0  0  0  0  0  0  0  0  0  0  0
   10.7810    3.1360   23.6220 C   0  0  0  0  0  0  0  0  0  0  0  0
   13.5590    1.0290   22.6350 C   0  0  0  0  0  0  0  0  0  0  0  0
   13.2420    3.3990   22.3570 C   0  0  0  0  0  0  0  0  0  0  0  0
   11.2120    4.3790   23.1820 C   0  0  0  0  0  0  0  0  0  0  0  0
   12.4400    4.5150   22.5520 C   0  0  0  0  0  0  0  0  0  0  0  0
  1  2  1  0
  2  3  2  0
  2  4  1  0
  4  5  1  0
  4  6  1  0
  7  5  1  6
  6  8  1  0
  7  8  1  0
  6  9  1  1
  7 10  1  0
  9 10  1  0
 10 11  1  0
 11 12  1  0
 12 13  1  0
 13 14  1  0
 14 15  2  0
 14 16  1  0
 16 17  2  0
 16 18  1  0
 17 19  1  0
 18 20  2  0
 18 21  1  0
 19 22  2  0
 20 22  1  0
 20 23  1  0
 21 24  2  0
 23 25  2  0
 24 25  1  0
M  END
