MAK-UNK-ec98eaf6-21-vinylsulfonamide
     RDKit          3D

 24 26  0  0  0  0  0  0  0  0999 V2000
    7.9190   -2.9050   18.7080 C   0  0  0  0  0  0  0  0  0  0  0  0
    6.4700   -2.7970   18.7630 C   0  0  0  0  0  0  0  0  0  0  0  0
    5.7780   -3.2970   20.2780 S   0  0  0  0  0  0  0  0  0  0  0  0
    4.5320   -2.9620   19.8220 O   0  0  0  0  0  0  0  0  0  0  0  0
    5.9990   -4.6600   20.7160 O   0  0  0  0  0  0  0  0  0  0  0  0
    6.3190   -2.1750   21.3730 N   0  0  0  0  0  0  0  0  0  0  0  0
    7.3830   -1.1740   21.0190 C   0  0  0  0  0  0  0  0  0  0  0  0
    6.3400   -2.3620   22.8550 C   0  0  2  0  0  0  0  0  0  0  0  0
    7.8490   -0.9070   22.4600 C   0  0  1  0  0  0  0  0  0  0  0  0
    6.6110   -0.9360   23.3240 C   0  0  0  0  0  0  0  0  0  0  0  0
    7.4290   -3.1590   23.1160 C   0  0  0  0  0  0  0  0  0  0  0  0
    8.5270   -2.1200   23.0100 N   0  0  0  0  0  0  0  0  0  0  0  0
    9.4010   -1.8620   24.1720 C   0  0  0  0  0  0  0  0  0  0  0  0
   10.4250   -0.9580   23.8350 C   0  0  0  0  0  0  0  0  0  0  0  0
   10.2080    0.4440   23.9390 C   0  0  0  0  0  0  0  0  0  0  0  0
   11.6990   -1.3350   23.3710 C   0  0  0  0  0  0  0  0  0  0  0  0
   11.3270    1.3700   23.5440 C   0  0  0  0  0  0  0  0  0  0  0  0
   12.7100   -0.4390   23.0160 C   0  0  0  0  0  0  0  0  0  0  0  0
   12.1020   -2.6150   23.2040 N   0  0  0  0  0  0  0  0  0  0  0  0
   10.8360    2.7870   23.7150 C   0  0  0  0  0  0  0  0  0  0  0  0
   12.5590    0.9250   23.0940 C   0  0  0  0  0  0  0  0  0  0  0  0
   13.1600   -2.6360   22.2450 C   0  0  0  0  0  0  0  0  0  0  0  0
   10.4500    3.8790   23.8010 N   0  0  0  0  0  0  0  0  0  0  0  0
   12.5910   -2.4600   20.9970 C   0  0  0  0  0  0  0  0  0  0  0  0
  1  2  1  0
  3  2  1  0
  3  4  2  0
  3  5  2  0
  3  6  1  0
  6  7  1  0
  6  8  1  0
  9  7  1  6
  8 10  1  0
  9 10  1  0
  8 11  1  6
  9 12  1  0
 11 12  1  0
 12 13  1  0
 13 14  1  0
 14 15  2  0
 14 16  1  0
 15 17  1  0
 16 18  2  0
 16 19  1  0
 17 20  1  0
 17 21  2  0
 18 21  1  0
 19 22  1  0
 20 23  3  0
 22 24  1  0
M  END
