MAK-UNK-10799360-33-acrylamide
     RDKit          3D

 27 30  0  0  0  0  0  0  0  0999 V2000
    7.4240   -2.8220   18.2390 C   0  0  0  0  0  0  0  0  0  0  0  0
    6.2150   -2.2630   18.9800 C   0  0  0  0  0  0  0  0  0  0  0  0
    5.8160   -3.0590   20.1690 C   0  0  0  0  0  0  0  0  0  0  0  0
    5.2400   -4.1620   20.0730 O   0  0  0  0  0  0  0  0  0  0  0  0
    6.2000   -2.4010   21.3040 N   0  0  0  0  0  0  0  0  0  0  0  0
    6.1680   -2.9680   22.6530 C   0  0  2  0  0  0  0  0  0  0  0  0
    7.2480   -1.3450   21.3290 C   0  0  2  0  0  0  0  0  0  0  0  0
    6.4010   -1.6890   23.4240 C   0  0  0  0  0  0  0  0  0  0  0  0
    7.7520   -1.3360   22.7660 C   0  0  1  0  0  0  0  0  0  0  0  0
    6.7710    0.1120   21.1460 C   0  0  0  0  0  0  0  0  0  0  0  0
    7.4900   -3.6850   23.0030 C   0  0  0  0  0  0  0  0  0  0  0  0
    5.2700    0.4710   21.1480 C   0  0  0  0  0  0  0  0  0  0  0  0
    8.5170   -2.5930   22.9640 N   0  0  0  0  0  0  0  0  0  0  0  0
    4.6300    1.0070   20.0100 C   0  0  0  0  0  0  0  0  0  0  0  0
    4.4770    0.2880   22.3000 C   0  0  0  0  0  0  0  0  0  0  0  0
    9.3670   -2.5080   24.1360 C   0  0  0  0  0  0  0  0  0  0  0  0
    3.2730    1.3440   20.0330 C   0  0  0  0  0  0  0  0  0  0  0  0
    3.1240    0.6240   22.3190 C   0  0  0  0  0  0  0  0  0  0  0  0
   10.5010   -1.6090   23.7890 C   0  0  0  0  0  0  0  0  0  0  0  0
    2.5200    1.1540   21.1880 C   0  0  0  0  0  0  0  0  0  0  0  0
   10.7680   -0.2900   24.4880 C   0  0  0  0  0  0  0  0  0  0  0  0
   11.3670   -1.9670   22.7750 C   0  0  0  0  0  0  0  0  0  0  0  0
    1.1960    1.4950   21.1790 O   0  0  0  0  0  0  0  0  0  0  0  0
   11.8590    0.4920   24.0760 C   0  0  0  0  0  0  0  0  0  0  0  0
   12.4190   -1.1520   22.4250 C   0  0  0  0  0  0  0  0  0  0  0  0
   12.6840    0.0630   23.0510 C   0  0  0  0  0  0  0  0  0  0  0  0
   13.3840   -1.7170   21.1630 Cl  0  0  0  0  0  0  0  0  0  0  0  0
  1  2  1  0
  2  3  1  0
  3  4  2  0
  3  5  1  0
  5  6  1  0
  5  7  1  0
  6  8  1  0
  7  9  1  0
  8  9  1  0
  7 10  1  1
  6 11  1  6
 10 12  1  0
  9 13  1  6
 11 13  1  0
 12 14  2  0
 12 15  1  0
 13 16  1  0
 14 17  1  0
 15 18  2  0
 16 19  1  0
 17 20  2  0
 18 20  1  0
 19 21  2  0
 19 22  1  0
 20 23  1  0
 21 24  1  0
 22 25  2  0
 24 26  2  0
 25 26  1  0
 25 27  1  0
M  END
