MAK-UNK-212f693e-13-nitrile
     RDKit          3D

 14 15  0  0  0  0  0  0  0  0999 V2000
    6.6110   -4.6310   20.3340 C   0  0  0  0  0  0  0  0  0  0  0  0
    6.1310   -3.7130   19.5880 N   0  0  0  0  0  0  0  0  0  0  0  0
    6.3070   -4.8450   21.6770 N   0  0  0  0  0  0  0  0  0  0  0  0
    7.1910   -4.3710   22.7470 C   0  0  0  0  0  0  0  0  0  0  0  0
    5.5450   -6.0460   22.0790 C   0  0  0  0  0  0  0  0  0  0  0  0
    6.4860   -4.4670   24.0920 C   0  0  0  0  0  0  0  0  0  0  0  0
    4.6170   -5.8130   23.1170 C   0  0  0  0  0  0  0  0  0  0  0  0
    4.9980   -4.7360   23.9180 C   0  0  0  0  0  0  0  0  0  0  0  0
    4.3310   -4.8200   25.2380 N   0  0  0  0  0  0  0  0  0  0  0  0
    3.2850   -3.9270   25.4510 C   0  0  0  0  0  0  0  0  0  0  0  0
    3.6030   -2.5220   25.7920 C   0  0  0  0  0  0  0  0  0  0  0  0
    1.9050   -4.0890   25.3940 C   0  0  0  0  0  0  0  0  0  0  0  0
    2.5360   -1.7040   25.9770 C   0  0  0  0  0  0  0  0  0  0  0  0
    1.0090   -2.5640   25.7520 S   0  0  0  0  0  0  0  0  0  0  0  0
  1  2  2  3
  1  3  1  0
  3  4  1  0
  3  5  1  0
  4  6  1  0
  5  7  1  0
  6  8  1  0
  7  8  1  0
  8  9  1  0
  9 10  1  0
 10 11  1  0
 10 12  2  0
 11 13  2  0
 12 14  1  0
 13 14  1  0
M  END
