MAK-UNK-10799360-17-nitrile
     RDKit          3D

 25 28  0  0  0  0  0  0  0  0999 V2000
    7.0730   -3.5980   19.7030 C   0  0  0  0  0  0  0  0  0  0  0  0
    6.2870   -3.1410   18.7940 N   0  0  0  0  0  0  0  0  0  0  0  0
    6.6500   -3.8600   20.9840 N   0  0  0  0  0  0  0  0  0  0  0  0
    6.7670   -5.1360   21.7370 C   0  0  0  0  0  0  0  0  0  0  0  0
    6.2240   -2.8340   21.9580 C   0  0  1  0  0  0  0  0  0  0  0  0
    6.5990   -4.6150   23.1930 C   0  0  2  0  0  0  0  0  0  0  0  0
    5.4170   -3.6330   22.9730 C   0  0  0  0  0  0  0  0  0  0  0  0
    7.4400   -2.4270   22.8150 C   0  0  0  0  0  0  0  0  0  0  0  0
    7.6940   -3.6700   23.5920 N   0  0  0  0  0  0  0  0  0  0  0  0
    9.0540   -4.2670   23.5180 C   0  0  0  0  0  0  0  0  0  0  0  0
   10.1950   -3.2260   23.5270 C   0  0  0  0  0  0  0  0  0  0  0  0
   10.5940   -2.5230   24.8070 C   0  0  0  0  0  0  0  0  0  0  0  0
   10.9100   -2.8800   22.3480 C   0  0  0  0  0  0  0  0  0  0  0  0
   11.6150   -1.5870   24.7070 C   0  0  0  0  0  0  0  0  0  0  0  0
   11.9520   -1.9370   22.3150 C   0  0  0  0  0  0  0  0  0  0  0  0
   12.2460   -1.3130   23.5110 C   0  0  0  0  0  0  0  0  0  0  0  0
   12.6720   -1.5890   21.1210 C   0  0  0  0  0  0  0  0  0  0  0  0
   13.1760   -0.3790   23.5320 C   0  0  0  0  0  0  0  0  0  0  0  0
   13.6780   -0.4970   21.1080 C   0  0  0  0  0  0  0  0  0  0  0  0
   13.8350    0.0100   22.3980 C   0  0  0  0  0  0  0  0  0  0  0  0
   14.6300    0.3190   19.6000 S   0  0  0  0  0  0  0  0  0  0  0  0
   14.1680   -0.0800   18.3460 O   0  0  0  0  0  0  0  0  0  0  0  0
   15.9770    0.7160   19.5830 O   0  0  0  0  0  0  0  0  0  0  0  0
   14.6270    2.0110   19.6300 N   0  0  0  0  0  0  0  0  0  0  0  0
   15.5540    2.7010   18.9280 C   0  0  0  0  0  0  0  0  0  0  0  0
  1  2  2  3
  1  3  1  0
  3  4  1  0
  3  5  1  0
  6  4  1  6
  5  7  1  0
  6  7  1  0
  5  8  1  1
  6  9  1  0
  8  9  1  0
  9 10  1  0
 10 11  1  0
 11 12  2  0
 11 13  1  0
 12 14  1  0
 13 15  2  0
 14 16  2  0
 15 16  1  0
 15 17  1  0
 16 18  1  0
 17 19  2  0
 18 20  2  0
 19 20  1  0
 19 21  1  0
 21 22  2  0
 21 23  2  0
 21 24  1  0
 24 25  1  0
M  END
