MAK-UNK-10dfa458-13-chloroacetamide
     RDKit          3D

 29 31  0  0  0  0  0  0  0  0999 V2000
    7.6230   -3.6600   20.4410 C   0  0  0  0  0  0  0  0  0  0  0  0
    6.4270   -4.5500   20.6880 C   0  0  0  0  0  0  0  0  0  0  0  0
    5.4440   -4.6490   19.9480 O   0  0  0  0  0  0  0  0  0  0  0  0
    6.5160   -5.2850   21.8780 N   0  0  0  0  0  0  0  0  0  0  0  0
    7.2330   -4.7520   23.0360 C   0  0  0  0  0  0  0  0  0  0  0  0
    5.4850   -6.2280   22.2870 C   0  0  0  0  0  0  0  0  0  0  0  0
    6.3010   -4.0830   24.0460 C   0  0  0  0  0  0  0  0  0  0  0  0
    4.5480   -5.5880   23.3350 C   0  0  0  0  0  0  0  0  0  0  0  0
    5.2820   -5.0260   24.4920 N   0  0  0  0  0  0  0  0  0  0  0  0
    4.5640   -4.9720   25.6670 C   0  0  0  0  0  0  0  0  0  0  0  0
    3.3820   -4.0700   25.6690 C   0  0  0  0  0  0  0  0  0  0  0  0
    3.6040   -2.5560   25.8660 C   0  0  0  0  0  0  0  0  0  0  0  0
    2.0740   -4.5130   25.5140 C   0  0  0  0  0  0  0  0  0  0  0  0
    2.4910   -1.7070   25.8860 C   0  0  0  0  0  0  0  0  0  0  0  0
    0.9780   -3.6340   25.5420 C   0  0  0  0  0  0  0  0  0  0  0  0
    2.6430   -0.3280   26.0640 C   0  0  0  0  0  0  0  0  0  0  0  0
    1.1990   -2.2600   25.7260 C   0  0  0  0  0  0  0  0  0  0  0  0
   -0.2530   -4.2190   25.3920 N   0  0  0  0  0  0  0  0  0  0  0  0
   -1.0150   -3.9580   24.3150 C   0  0  0  0  0  0  0  0  0  0  0  0
   -1.8670   -2.8380   24.2510 C   0  0  0  0  0  0  0  0  0  0  0  0
   -1.0110   -4.7910   23.1870 C   0  0  0  0  0  0  0  0  0  0  0  0
   -2.6540   -2.6000   23.0860 C   0  0  0  0  0  0  0  0  0  0  0  0
   -1.7980   -4.5060   22.0780 C   0  0  0  0  0  0  0  0  0  0  0  0
   -0.1700   -6.0000   23.1310 C   0  0  0  0  0  0  0  0  0  0  0  0
   -2.6860   -3.4110   21.8890 C   0  0  0  0  0  0  0  0  0  0  0  0
    0.4620   -6.9740   23.0620 N   0  0  0  0  0  0  0  0  0  0  0  0
   -3.0340   -3.6880   20.8210 N   0  0  0  0  0  0  0  0  0  0  0  0
   -2.8270   -2.7990   19.7510 C   0  0  0  0  0  0  0  0  0  0  0  0
   -2.7510   -1.3600   20.2590 C   0  0  0  0  0  0  0  0  0  0  0  0
  1  2  1  0
  2  3  2  0
  2  4  1  0
  4  5  1  0
  4  6  1  0
  5  7  1  0
  6  8  1  0
  7  9  1  0
  8  9  1  0
  9 10  1  0
 10 11  1  0
 11 12  2  0
 11 13  1  0
 12 14  1  0
 13 15  2  0
 14 16  1  0
 14 17  2  0
 15 17  1  0
 15 18  1  0
 18 19  1  0
 19 20  2  0
 19 21  1  0
 20 22  1  0
 21 23  2  0
 21 24  1  0
 22 25  2  0
 23 25  1  0
 24 26  3  0
 25 27  1  0
 27 28  1  0
 28 29  1  0
M  END
