MAK-UNK-c74072e5-10-nitrile
     RDKit          3D

 25 27  0  0  0  0  0  0  0  0999 V2000
    7.0110   -3.3200   19.7560 C   0  0  0  0  0  0  0  0  0  0  0  0
    5.9230   -3.3980   19.1050 N   0  0  0  0  0  0  0  0  0  0  0  0
    7.2320   -2.3400   20.7260 N   0  0  0  0  0  0  0  0  0  0  0  0
    7.4220   -0.9110   20.3810 C   0  0  0  0  0  0  0  0  0  0  0  0
    7.9660   -2.6880   21.9460 C   0  0  0  0  0  0  0  0  0  0  0  0
    8.2780   -0.1860   21.4670 C   0  0  0  0  0  0  0  0  0  0  0  0
    9.4320   -2.2380   21.8360 C   0  0  0  0  0  0  0  0  0  0  0  0
    9.6300   -0.7690   21.6340 N   0  0  0  0  0  0  0  0  0  0  0  0
   10.5130   -0.1270   22.6660 C   0  0  0  0  0  0  0  0  0  0  0  0
   10.7100   -1.2530   23.5970 C   0  0  0  0  0  0  0  0  0  0  0  0
   11.8350   -1.9960   24.2020 C   0  0  0  0  0  0  0  0  0  0  0  0
    9.0830   -1.9440   24.1410 S   0  0  0  0  0  0  0  0  0  0  0  0
   11.3590   -3.0330   24.9840 C   0  0  0  0  0  0  0  0  0  0  0  0
    9.9050   -3.1260   25.0140 C   0  0  0  0  0  0  0  0  0  0  0  0
    8.8790   -4.0340   25.6200 C   0  0  0  0  0  0  0  0  0  0  0  0
    7.9220   -4.2680   24.6030 C   0  0  0  0  0  0  0  0  0  0  0  0
    8.8040   -4.5550   26.9130 C   0  0  0  0  0  0  0  0  0  0  0  0
    6.7860   -5.0260   24.7810 C   0  0  0  0  0  0  0  0  0  0  0  0
    7.6910   -5.3420   27.2140 C   0  0  0  0  0  0  0  0  0  0  0  0
    6.6070   -5.6020   26.1320 C   0  0  0  0  0  0  0  0  0  0  0  0
    7.5450   -5.8770   28.4530 C   0  0  0  0  0  0  0  0  0  0  0  0
    5.3900   -6.3700   26.3040 N   0  0  0  0  0  0  0  0  0  0  0  0
    6.6580   -5.4970   29.2190 O   0  0  0  0  0  0  0  0  0  0  0  0
    4.7940   -6.6580   25.2530 O   0  0  0  0  0  0  0  0  0  0  0  0
    4.8460   -6.2540   27.4090 O   0  0  0  0  0  0  0  0  0  0  0  0
  1  2  2  3
  1  3  1  0
  3  4  1  0
  3  5  1  0
  4  6  1  0
  5  7  1  0
  6  8  1  0
  7  8  1  0
  8  9  1  0
  9 10  1  0
 10 11  2  0
 10 12  1  0
 11 13  1  0
 12 14  1  0
 13 14  2  0
 14 15  1  0
 15 16  2  0
 15 17  1  0
 16 18  1  0
 17 19  2  0
 18 20  2  0
 19 20  1  0
 19 21  1  0
 20 22  1  0
 21 23  2  0
 22 24  2  0
 22 25  1  0
M  CHG  2  22   1  25  -1
M  END
