MAK-UNK-212f693e-9-chloroacetamide
     RDKit          3D

 15 16  0  0  0  0  0  0  0  0999 V2000
    7.6370   -3.6780   20.4810 C   0  0  0  0  0  0  0  0  0  0  0  0
    6.3970   -4.5190   20.7010 C   0  0  0  0  0  0  0  0  0  0  0  0
    5.4330   -4.5870   19.9310 O   0  0  0  0  0  0  0  0  0  0  0  0
    6.4110   -5.2410   21.8960 N   0  0  0  0  0  0  0  0  0  0  0  0
    7.1420   -4.6870   23.0380 C   0  0  0  0  0  0  0  0  0  0  0  0
    5.4050   -6.0970   22.3580 C   0  0  0  0  0  0  0  0  0  0  0  0
    6.1790   -4.1900   24.1270 C   0  0  0  0  0  0  0  0  0  0  0  0
    4.5050   -5.7790   23.3960 C   0  0  0  0  0  0  0  0  0  0  0  0
    5.2850   -5.3050   24.5050 N   0  0  0  0  0  0  0  0  0  0  0  0
    4.4700   -5.0120   25.6920 O   0  0  0  0  0  0  0  0  0  0  0  0
    3.5920   -3.9650   25.6580 C   0  0  0  0  0  0  0  0  0  0  0  0
    3.7710   -2.4910   25.7820 C   0  0  0  0  0  0  0  0  0  0  0  0
    2.2240   -4.2250   25.4940 C   0  0  0  0  0  0  0  0  0  0  0  0
    2.6210   -1.7660   25.7160 C   0  0  0  0  0  0  0  0  0  0  0  0
    1.1860   -2.7610   25.4980 S   0  0  0  0  0  0  0  0  0  0  0  0
  1  2  1  0
  2  3  2  0
  2  4  1  0
  4  5  1  0
  4  6  1  0
  5  7  1  0
  6  8  1  0
  7  9  1  0
  8  9  1  0
  9 10  1  0
 10 11  1  0
 11 12  1  0
 11 13  2  0
 12 14  2  0
 13 15  1  0
 14 15  1  0
M  END
