MAK-UNK-a7992eb3-25
     RDKit          3D

 37 40  0  0  0  0  0  0  0  0999 V2000
   10.5090  -13.5070   30.1870 C   0  0  0  0  0  0  0  0  0  0  0  0
   10.5420  -12.2190   29.4410 C   0  0  0  0  0  0  0  0  0  0  0  0
   10.9160  -11.3030   30.1270 O   0  0  0  0  0  0  0  0  0  0  0  0
   10.1350  -12.0830   28.0010 N   0  0  0  0  0  0  0  0  0  0  0  0
    9.7100  -10.7010   27.9560 C   0  0  1  0  0  0  0  0  0  0  0  0
    9.9260   -9.1010   26.5550 C   0  0  0  0  0  0  0  0  0  0  0  0
    8.7990  -10.8980   29.0150 C   0  0  0  0  0  0  0  0  0  0  0  0
    9.6530   -7.2080   26.5230 C   0  0  0  0  0  0  0  0  0  0  0  0
    8.4030  -11.9650   29.3650 O   0  0  0  0  0  0  0  0  0  0  0  0
    8.3880   -9.9810   29.7870 N   0  0  0  0  0  0  0  0  0  0  0  0
    9.7360   -6.4210   25.3080 C   0  0  0  0  0  0  0  0  0  0  0  0
    9.2680   -6.1760   27.7240 C   0  0  0  0  0  0  0  0  0  0  0  0
    7.6670  -10.4750   30.7530 C   0  0  0  0  0  0  0  0  0  0  0  0
    9.6080   -5.1150   25.1080 C   0  0  0  0  0  0  0  0  0  0  0  0
    9.1520   -4.7760   27.4430 C   0  0  0  0  0  0  0  0  0  0  0  0
    8.1400  -11.6740   31.3380 C   0  0  0  0  0  0  0  0  0  0  0  0
    9.3270   -4.2210   26.1810 C   0  0  0  0  0  0  0  0  0  0  0  0
    7.9420  -11.9590   32.6910 C   0  0  0  0  0  0  0  0  0  0  0  0
    9.2640   -3.0380   25.8940 O   0  0  0  0  0  0  0  0  0  0  0  0
    7.6650  -12.3480   34.5370 Br  0  0  0  0  0  0  0  0  0  0  0  0
   10.3680   -2.7420   24.9910 C   0  0  0  0  0  0  0  0  0  0  0  0
   11.7850   -3.1180   25.2610 C   0  0  0  0  0  0  0  0  0  0  0  0
   10.0640   -2.0790   23.8100 C   0  0  0  0  0  0  0  0  0  0  0  0
   12.8340   -2.7440   24.2360 C   0  0  0  0  0  0  0  0  0  0  0  0
   11.0890   -1.7620   22.8820 C   0  0  0  0  0  0  0  0  0  0  0  0
    8.7650   -1.7150   23.5080 C   0  0  0  0  0  0  0  0  0  0  0  0
   12.4480   -2.0810   23.0820 C   0  0  0  0  0  0  0  0  0  0  0  0
    8.3090   -2.4180   22.4530 N   0  0  0  0  0  0  0  0  0  0  0  0
    7.0920   -3.1970   22.6740 C   0  0  0  0  0  0  0  0  0  0  0  0
    5.8650   -2.6970   23.0810 N   0  0  0  0  0  0  0  0  0  0  0  0
    7.0250   -4.5770   22.4970 N   0  0  0  0  0  0  0  0  0  0  0  0
    5.0580   -3.7900   23.1490 C   0  0  0  0  0  0  0  0  0  0  0  0
    5.7640   -4.9010   22.7960 C   0  0  0  0  0  0  0  0  0  0  0  0
    3.7180   -3.9650   23.4960 C   0  0  0  0  0  0  0  0  0  0  0  0
    5.3020   -6.1970   22.7370 C   0  0  0  0  0  0  0  0  0  0  0  0
    3.1720   -5.2620   23.4600 C   0  0  0  0  0  0  0  0  0  0  0  0
    3.9580   -6.3730   23.0830 C   0  0  0  0  0  0  0  0  0  0  0  0
  1  2  1  0
  2  3  2  0
  2  4  1  0
  4  5  1  0
  5  6  1  6
  5  7  1  0
  6  8  1  0
  7  9  2  0
  7 10  1  0
  8 11  2  0
  8 12  1  0
 10 13  1  0
 11 14  1  0
 12 15  2  0
 13 16  1  0
 14 17  2  0
 15 17  1  0
 16 18  3  0
 17 19  1  0
 18 20  1  0
 19 21  1  0
 21 22  2  0
 21 23  1  0
 22 24  1  0
 23 25  2  0
 23 26  1  0
 24 27  2  0
 25 27  1  0
 26 28  1  0
 28 29  1  0
 29 30  2  0
 29 31  1  0
 30 32  1  0
 31 33  1  0
 32 33  2  0
 32 34  1  0
 33 35  1  0
 34 36  2  0
 35 37  2  0
 36 37  1  0
M  END
