MAK-UNK-f2409524-10
     RDKit          3D

 19 20  0  0  0  0  0  0  0  0999 V2000
    3.6230    1.1720   19.8190 O   0  0  0  0  0  0  0  0  0  0  0  0
    4.6650    0.7710   20.2870 C   0  0  0  0  0  0  0  0  0  0  0  0
    4.7010    0.3030   21.7120 C   0  0  0  0  0  0  0  0  0  0  0  0
    5.9470    0.7430   19.4820 C   0  0  0  0  0  0  0  0  0  0  0  0
    4.9140    1.3880   22.7800 C   0  0  0  0  0  0  0  0  0  0  0  0
    5.9160   -0.4980   18.6720 C   0  0  0  0  0  0  0  0  0  0  0  0
    7.0000    0.9520   20.3410 C   0  0  0  0  0  0  0  0  0  0  0  0
    3.8800    2.4170   22.6470 N   0  0  0  0  0  0  0  0  0  0  0  0
    7.2560   -1.1390   18.8900 C   0  0  0  0  0  0  0  0  0  0  0  0
    7.6490   -0.1210   20.9340 C   0  0  0  0  0  0  0  0  0  0  0  0
    2.7020    2.1330   23.4770 C   0  0  0  0  0  0  0  0  0  0  0  0
    7.5020   -1.3240   20.2590 C   0  0  0  0  0  0  0  0  0  0  0  0
    2.0240    3.1520   24.3190 N   0  0  0  0  0  0  0  0  0  0  0  0
    0.7600    3.5690   23.9180 C   0  0  0  0  0  0  0  0  0  0  0  0
   -0.1900    2.8740   23.1580 C   0  0  0  0  0  0  0  0  0  0  0  0
    0.3730    4.8490   24.3280 C   0  0  0  0  0  0  0  0  0  0  0  0
   -1.4210    3.4460   22.8510 N   0  0  0  0  0  0  0  0  0  0  0  0
   -0.8030    5.4880   24.0770 N   0  0  0  0  0  0  0  0  0  0  0  0
   -1.6860    4.7950   23.3490 C   0  0  0  0  0  0  0  0  0  0  0  0
  1  2  2  0
  2  3  1  0
  2  4  1  0
  3  5  1  0
  4  6  1  0
  4  7  1  0
  5  8  1  0
  6  9  1  0
  7 10  1  0
  8 11  1  0
  9 12  1  0
 10 12  1  0
 11 13  1  0
 13 14  1  0
 14 15  2  0
 14 16  1  0
 15 17  1  0
 16 18  2  0
 17 19  2  0
 18 19  1  0
M  END
