MAK-UNK-10799360-6-acrylamide
     RDKit          3D

 25 27  0  0  0  0  0  0  0  0999 V2000
    7.8260   -2.7580   18.6530 C   0  0  0  0  0  0  0  0  0  0  0  0
    6.3200   -2.8570   18.8630 C   0  0  0  0  0  0  0  0  0  0  0  0
    5.9480   -3.4370   20.1730 C   0  0  0  0  0  0  0  0  0  0  0  0
    5.2720   -4.4640   20.1810 O   0  0  0  0  0  0  0  0  0  0  0  0
    6.4350   -2.7380   21.2650 N   0  0  0  0  0  0  0  0  0  0  0  0
    6.1350   -3.0860   22.6650 C   0  0  0  0  0  0  0  0  0  0  0  0
    7.8230   -2.3280   21.3880 C   0  0  2  0  0  0  0  0  0  0  0  0
    7.5330   -3.5140   23.1950 C   0  0  1  0  0  0  0  0  0  0  0  0
    8.2960   -3.6920   21.8970 C   0  0  0  0  0  0  0  0  0  0  0  0
    8.1050   -1.4000   22.5780 C   0  0  0  0  0  0  0  0  0  0  0  0
    8.3700   -2.3870   23.6360 N   0  0  0  0  0  0  0  0  0  0  0  0
    9.7800   -2.8040   23.8000 C   0  0  0  0  0  0  0  0  0  0  0  0
   10.7250   -1.7690   23.6360 C   0  0  0  0  0  0  0  0  0  0  0  0
   11.7090   -1.8870   22.6210 C   0  0  0  0  0  0  0  0  0  0  0  0
   10.7060   -0.6280   24.4730 C   0  0  0  0  0  0  0  0  0  0  0  0
   12.6420   -0.8680   22.4730 C   0  0  0  0  0  0  0  0  0  0  0  0
   11.6400    0.4280   24.3270 N   0  0  0  0  0  0  0  0  0  0  0  0
    9.6850   -0.5770   25.5170 N   0  0  0  0  0  0  0  0  0  0  0  0
   12.6120    0.2340   23.2780 C   0  0  0  0  0  0  0  0  0  0  0  0
    8.8780    0.4730   25.9200 C   0  0  0  0  0  0  0  0  0  0  0  0
    8.6860    0.4670   27.4110 C   0  0  0  0  0  0  0  0  0  0  0  0
    7.5370    1.5830   28.0320 S   0  0  0  0  0  0  0  0  0  0  0  0
    6.2440    0.5620   28.3950 N   0  0  0  0  0  0  0  0  0  0  0  0
    8.0000    2.0940   29.3050 O   0  0  0  0  0  0  0  0  0  0  0  0
    7.0770    2.4600   26.9760 O   0  0  0  0  0  0  0  0  0  0  0  0
  1  2  1  0
  2  3  1  0
  3  4  2  0
  3  5  1  0
  5  6  1  0
  5  7  1  0
  8  6  1  6
  7  9  1  0
  8  9  1  0
  7 10  1  1
  8 11  1  0
 10 11  1  0
 11 12  1  0
 12 13  1  0
 13 14  2  0
 13 15  1  0
 14 16  1  0
 15 17  2  0
 15 18  1  0
 16 19  2  0
 17 19  1  0
 18 20  1  0
 20 21  1  0
 21 22  1  0
 22 23  1  0
 22 24  2  0
 22 25  2  0
M  END
