MAK-UNK-af83ef51-5-nitrile
     RDKit          3D

 19 20  0  0  0  0  0  0  0  0999 V2000
    6.7850   -3.2760   19.5090 C   0  0  0  0  0  0  0  0  0  0  0  0
    5.9360   -3.0600   18.5850 N   0  0  0  0  0  0  0  0  0  0  0  0
    6.6280   -2.7360   20.7730 N   0  0  0  0  0  0  0  0  0  0  0  0
    6.2910   -3.5310   21.9390 C   0  0  0  0  0  0  0  0  0  0  0  0
    7.0160   -1.3580   21.1090 C   0  0  1  0  0  0  0  0  0  0  0  0
    7.4350   -3.5020   22.9720 C   0  0  0  0  0  0  0  0  0  0  0  0
    8.3730   -1.3900   21.8100 C   0  0  0  0  0  0  0  0  0  0  0  0
    7.0230   -0.3610   19.9410 C   0  0  0  0  0  0  0  0  0  0  0  0
    8.2460   -2.1850   23.1170 C   0  0  2  0  0  0  0  0  0  0  0  0
    6.6360    0.8000   20.0050 O   0  0  0  0  0  0  0  0  0  0  0  0
    7.4850   -0.8370   18.7650 O   0  0  0  0  0  0  0  0  0  0  0  0
    9.6230   -2.5340   23.6870 C   0  0  0  0  0  0  0  0  0  0  0  0
   10.6400   -1.4520   23.5310 C   0  0  0  0  0  0  0  0  0  0  0  0
   11.9440   -1.7600   23.1360 C   0  0  0  0  0  0  0  0  0  0  0  0
   10.2970   -0.1190   23.7710 C   0  0  0  0  0  0  0  0  0  0  0  0
   12.8840   -0.7510   22.9810 C   0  0  0  0  0  0  0  0  0  0  0  0
   11.2330    0.8980   23.6130 C   0  0  0  0  0  0  0  0  0  0  0  0
   12.5340    0.5780   23.2170 C   0  0  0  0  0  0  0  0  0  0  0  0
   10.8190    2.3090   23.8600 C   0  0  0  0  0  0  0  0  0  0  0  0
  1  2  2  3
  1  3  1  0
  3  4  1  0
  3  5  1  0
  4  6  1  0
  5  7  1  0
  5  8  1  6
  6  9  1  0
  7  9  1  0
  8 10  2  0
  8 11  1  0
  9 12  1  6
 12 13  1  0
 13 14  2  0
 13 15  1  0
 14 16  1  0
 15 17  2  0
 16 18  2  0
 17 18  1  0
 17 19  1  0
M  END
