MAK-UNK-7c9d1431-30-bromoalkyne
     RDKit          3D

 21 22  0  0  0  0  0  0  0  0999 V2000
    6.7750   -4.1650   19.9870 C   0  0  0  0  0  0  0  0  0  0  0  0
    5.6190   -3.4410   19.4520 C   0  0  0  0  0  0  0  0  0  0  0  0
    6.8400   -4.6060   21.3030 N   0  0  0  0  0  0  0  0  0  0  0  0
    7.3910   -3.8370   22.4360 C   0  0  0  0  0  0  0  0  0  0  0  0
    6.3040   -5.9210   21.6830 C   0  0  0  0  0  0  0  0  0  0  0  0
    6.4030   -3.7510   23.6320 C   0  0  0  0  0  0  0  0  0  0  0  0
    5.3700   -5.8850   22.9010 C   0  0  0  0  0  0  0  0  0  0  0  0
    5.9350   -5.0870   24.0130 N   0  0  0  0  0  0  0  0  0  0  0  0
    5.1970   -5.2800   25.5530 S   0  0  0  0  0  0  0  0  0  0  0  0
    4.6000   -6.5990   25.5850 O   0  0  0  0  0  0  0  0  0  0  0  0
    6.1410   -4.8880   26.5750 O   0  0  0  0  0  0  0  0  0  0  0  0
    3.8530   -4.1140   25.5810 C   0  0  0  0  0  0  0  0  0  0  0  0
    4.1920   -2.6510   25.9000 C   0  0  0  0  0  0  0  0  0  0  0  0
    2.5190   -4.4650   25.3300 C   0  0  0  0  0  0  0  0  0  0  0  0
    3.0330   -1.6480   25.9290 C   0  0  0  0  0  0  0  0  0  0  0  0
    1.4190   -3.3960   25.3830 C   0  0  0  0  0  0  0  0  0  0  0  0
    2.2630   -5.7760   25.0450 O   0  0  0  0  0  0  0  0  0  0  0  0
    3.4030   -0.3700   26.2130 O   0  0  0  0  0  0  0  0  0  0  0  0
    1.7210   -2.0600   25.6760 C   0  0  0  0  0  0  0  0  0  0  0  0
    2.1140   -6.1370   23.6750 C   0  0  0  0  0  0  0  0  0  0  0  0
    3.0770    0.6100   25.2380 C   0  0  0  0  0  0  0  0  0  0  0  0
  1  2  2  3
  1  3  1  0
  3  4  1  0
  3  5  1  0
  4  6  1  0
  5  7  1  0
  6  8  1  0
  7  8  1  0
  8  9  1  0
  9 10  2  0
  9 11  2  0
  9 12  1  0
 12 13  2  0
 12 14  1  0
 13 15  1  0
 14 16  2  0
 14 17  1  0
 15 18  1  0
 15 19  2  0
 16 19  1  0
 17 20  1  0
 18 21  1  0
M  END
