MAK-UNK-8145c7a0-11
     RDKit          3D

 26 28  0  0  0  0  0  0  0  0999 V2000
    3.6630   -5.9950   33.0220 C   0  0  0  0  0  0  0  0  0  0  0  0
    4.7060   -7.1000   32.0880 S   0  0  0  0  0  0  0  0  0  0  0  0
    3.9720   -8.3140   31.8470 O   0  0  0  0  0  0  0  0  0  0  0  0
    6.0180   -7.0590   32.6830 O   0  0  0  0  0  0  0  0  0  0  0  0
    4.8600   -6.2820   30.6410 N   0  0  0  0  0  0  0  0  0  0  0  0
    3.9870   -6.4840   29.5740 C   0  0  0  0  0  0  0  0  0  0  0  0
    4.2730   -5.5510   28.3800 C   0  0  0  0  0  0  0  0  0  0  0  0
    5.7210   -5.4260   27.9490 C   0  0  0  0  0  0  0  0  0  0  0  0
    6.7500   -6.2500   28.6740 C   0  0  0  0  0  0  0  0  0  0  0  0
    6.1850   -4.5260   26.8520 C   0  0  0  0  0  0  0  0  0  0  0  0
    8.1980   -6.1010   28.2150 C   0  0  0  0  0  0  0  0  0  0  0  0
    7.6540   -4.3910   26.4100 C   0  0  0  0  0  0  0  0  0  0  0  0
    8.6810   -5.2160   27.1080 C   0  0  0  0  0  0  0  0  0  0  0  0
    8.1140   -3.4600   25.3370 C   0  0  0  0  0  0  0  0  0  0  0  0
    8.1510   -2.2090   25.8690 N   0  0  0  0  0  0  0  0  0  0  0  0
    8.5300   -3.7040   23.7170 S   0  0  0  0  0  0  0  0  0  0  0  0
    8.5080   -1.3360   24.9380 N   0  0  0  0  0  0  0  0  0  0  0  0
    8.7340   -1.9890   23.6990 C   0  0  0  0  0  0  0  0  0  0  0  0
    9.0920   -1.2580   22.5040 C   0  0  0  0  0  0  0  0  0  0  0  0
   10.3000   -0.6500   22.6780 N   0  0  0  0  0  0  0  0  0  0  0  0
   10.5890    0.3080   23.7030 C   0  0  0  0  0  0  0  0  0  0  0  0
   11.2700   -1.4910   22.2680 C   0  0  0  0  0  0  0  0  0  0  0  0
   11.7240    1.0740   23.4590 C   0  0  0  0  0  0  0  0  0  0  0  0
   12.5410   -0.9490   22.2550 C   0  0  0  0  0  0  0  0  0  0  0  0
   12.7060    0.3040   22.8490 C   0  0  0  0  0  0  0  0  0  0  0  0
   13.5440   -1.6010   21.6870 F   0  0  0  0  0  0  0  0  0  0  0  0
  1  2  1  0
  2  3  2  0
  2  4  2  0
  2  5  1  0
  5  6  1  0
  6  7  1  0
  7  8  1  0
  8  9  2  0
  8 10  1  0
  9 11  1  0
 10 12  2  0
 11 13  2  0
 12 13  1  0
 12 14  1  0
 14 15  2  0
 14 16  1  0
 15 17  1  0
 16 18  1  0
 17 18  2  0
 18 19  1  0
 19 20  1  0
 20 21  1  0
 20 22  1  0
 21 23  1  0
 22 24  1  0
 23 25  1  0
 24 25  2  0
 24 26  1  0
M  END
