MAK-UNK-10799360-11-chloroacetamide
     RDKit          3D

 26 29  0  0  0  0  0  0  0  0999 V2000
    7.3830   -3.0500   19.0490 C   0  0  0  0  0  0  0  0  0  0  0  0
    6.8420   -3.3310   20.4770 C   0  0  0  0  0  0  0  0  0  0  0  0
    6.1620   -4.1680   19.8040 O   0  0  0  0  0  0  0  0  0  0  0  0
    7.7370   -2.2960   20.9340 N   0  0  0  0  0  0  0  0  0  0  0  0
    9.1690   -2.3950   21.3510 C   0  0  0  0  0  0  0  0  0  0  0  0
    7.3700   -1.5020   22.1040 C   0  0  1  0  0  0  0  0  0  0  0  0
    9.0840   -2.6330   22.8650 C   0  0  2  0  0  0  0  0  0  0  0  0
    7.5900   -2.6820   23.0500 C   0  0  0  0  0  0  0  0  0  0  0  0
    8.4740   -0.4640   22.5520 C   0  0  0  0  0  0  0  0  0  0  0  0
    9.3220   -1.2860   23.5420 C   0  0  1  0  0  0  0  0  0  0  0  0
    8.9710   -1.3650   25.0230 C   0  0  0  0  0  0  0  0  0  0  0  0
    7.5410   -1.7920   25.1180 N   0  0  0  0  0  0  0  0  0  0  0  0
    7.1480   -3.1030   25.5360 C   0  0  0  0  0  0  0  0  0  0  0  0
    6.5230   -0.7610   25.2120 C   0  0  1  0  0  0  0  0  0  0  0  0
    5.9500   -3.6140   24.9580 C   0  0  0  0  0  0  0  0  0  0  0  0
    5.6510   -1.2050   24.2400 C   0  0  0  0  0  0  0  0  0  0  0  0
    5.9720   -0.7490   26.4960 C   0  0  0  0  0  0  0  0  0  0  0  0
    5.6820   -5.0470   25.1330 C   0  0  0  0  0  0  0  0  0  0  0  0
    5.2540   -2.5560   24.3100 C   0  0  0  0  0  0  0  0  0  0  0  0
    4.4310   -5.1320   24.4250 C   0  0  0  0  0  0  0  0  0  0  0  0
    4.1030   -2.8120   23.6910 C   0  0  0  0  0  0  0  0  0  0  0  0
    3.5840   -6.6950   24.3080 S   0  0  0  0  0  0  0  0  0  0  0  0
    3.6700   -4.0690   23.7310 C   0  0  0  0  0  0  0  0  0  0  0  0
    2.4450   -6.5080   25.5300 N   0  0  0  0  0  0  0  0  0  0  0  0
    4.4530   -7.7760   24.6870 O   0  0  0  0  0  0  0  0  0  0  0  0
    2.8620   -6.7180   23.0520 O   0  0  0  0  0  0  0  0  0  0  0  0
  1  2  1  0
  2  3  2  0
  2  4  1  0
  4  5  1  0
  4  6  1  0
  7  5  1  6
  6  8  1  0
  7  8  1  0
  6  9  1  1
  7 10  1  0
  9 10  1  0
 10 11  1  1
 11 12  1  0
 12 13  1  0
 12 14  1  0
 13 15  1  0
 14 16  1  0
 14 17  1  1
 15 18  2  0
 15 19  1  0
 16 19  1  0
 18 20  1  0
 19 21  2  0
 20 22  1  0
 20 23  2  0
 21 23  1  0
 22 24  1  0
 22 25  2  0
 22 26  2  0
M  END
