MAK-UNK-148caf23-21-bromoalkyne
     RDKit          3D

 34 37  0  0  0  0  0  0  0  0999 V2000
    8.1260   -3.3310   19.7910 C   0  0  0  0  0  0  0  0  0  0  0  0
    7.6190   -2.5500   18.6150 C   0  0  0  0  0  0  0  0  0  0  0  0
    8.5790   -2.5900   21.2350 C   0  0  0  0  0  0  0  0  0  0  0  0
    8.6720   -3.3920   22.4290 C   0  0  0  0  0  0  0  0  0  0  0  0
    8.9410   -1.2240   21.7850 C   0  0  0  0  0  0  0  0  0  0  0  0
    8.9200   -2.4280   23.3060 C   0  0  0  0  0  0  0  0  0  0  0  0
    9.2070   -0.8220   23.2150 N   0  0  0  0  0  0  0  0  0  0  0  0
    9.1490   -1.7070   24.3420 C   0  0  0  0  0  0  0  0  0  0  0  0
    9.3930   -0.6520   25.1890 N   0  0  0  0  0  0  0  0  0  0  0  0
    8.0780   -0.4320   25.9230 C   0  0  0  0  0  0  0  0  0  0  0  0
    8.1710    0.1940   27.3360 C   0  0  0  0  0  0  0  0  0  0  0  0
    8.4190   -0.4020   28.6260 C   0  0  0  0  0  0  0  0  0  0  0  0
    7.9900    1.6070   27.3720 C   0  0  0  0  0  0  0  0  0  0  0  0
    8.5210    0.3630   29.8770 C   0  0  0  0  0  0  0  0  0  0  0  0
    8.0780    2.3960   28.5460 C   0  0  0  0  0  0  0  0  0  0  0  0
    8.3480    1.8550   29.8130 C   0  0  0  0  0  0  0  0  0  0  0  0
    7.9030    3.7220   28.4280 F   0  0  0  0  0  0  0  0  0  0  0  0
    8.4760    2.6040   30.9770 C   0  0  0  0  0  0  0  0  0  0  0  0
    9.8170    3.0760   31.4260 C   0  0  0  0  0  0  0  0  0  0  0  0
    7.5870    3.0760   31.9380 N   0  0  0  0  0  0  0  0  0  0  0  0
    9.7110    3.7890   32.5940 C   0  0  0  0  0  0  0  0  0  0  0  0
    8.3040    3.7770   32.8980 C   0  0  0  0  0  0  0  0  0  0  0  0
    5.8850    2.8780   32.0140 S   0  0  0  0  0  0  0  0  0  0  0  0
   10.7960    4.3590   33.2600 C   0  0  0  0  0  0  0  0  0  0  0  0
    5.5410    2.8730   33.4190 O   0  0  0  0  0  0  0  0  0  0  0  0
    5.2800    3.8490   31.1340 O   0  0  0  0  0  0  0  0  0  0  0  0
    5.5220    1.2660   31.4130 C   0  0  0  0  0  0  0  0  0  0  0  0
   10.6100    4.6240   34.5680 N   0  0  0  0  0  0  0  0  0  0  0  0
    5.8070    0.8930   30.1010 C   0  0  0  0  0  0  0  0  0  0  0  0
    4.9300    0.3360   32.2570 C   0  0  0  0  0  0  0  0  0  0  0  0
   11.8320    4.8960   35.3370 C   0  0  0  0  0  0  0  0  0  0  0  0
    5.4940   -0.3940   29.6790 C   0  0  0  0  0  0  0  0  0  0  0  0
    4.6110   -0.9280   31.8680 N   0  0  0  0  0  0  0  0  0  0  0  0
    4.9000   -1.2680   30.5920 C   0  0  0  0  0  0  0  0  0  0  0  0
  1  2  2  3
  1  3  1  0
  3  4  2  0
  3  5  1  0
  4  6  1  0
  5  7  2  0
  6  8  2  0
  7  8  1  0
  8  9  1  0
  9 10  1  0
 10 11  1  0
 11 12  2  0
 11 13  1  0
 12 14  1  0
 13 15  2  0
 14 16  2  0
 15 16  1  0
 15 17  1  0
 16 18  1  0
 18 19  2  0
 18 20  1  0
 19 21  1  0
 20 22  1  0
 21 22  2  0
 20 23  1  0
 21 24  1  0
 23 25  2  0
 23 26  2  0
 23 27  1  0
 24 28  1  0
 27 29  2  0
 27 30  1  0
 28 31  1  0
 29 32  1  0
 30 33  2  0
 32 34  2  0
 33 34  1  0
M  END
