MAK-UNK-148caf23-15-vinylsulfonamide
     RDKit          3D

 37 40  0  0  0  0  0  0  0  0999 V2000
    8.0150   -4.4950   20.6620 C   0  0  0  0  0  0  0  0  0  0  0  0
    6.5610   -4.4940   20.9470 C   0  0  0  0  0  0  0  0  0  0  0  0
    6.1320   -2.8220   21.1020 S   0  0  0  0  0  0  0  0  0  0  0  0
    4.7400   -3.0880   21.5340 O   0  0  0  0  0  0  0  0  0  0  0  0
    6.3360   -2.1100   19.8630 O   0  0  0  0  0  0  0  0  0  0  0  0
    7.4440   -2.2630   22.2590 C   0  0  0  0  0  0  0  0  0  0  0  0
    8.2790   -3.0750   23.1810 C   0  0  0  0  0  0  0  0  0  0  0  0
    7.9180   -1.0050   22.5150 C   0  0  0  0  0  0  0  0  0  0  0  0
    9.3070   -2.3670   24.1200 C   0  0  0  0  0  0  0  0  0  0  0  0
    8.7310   -0.2070   23.1930 N   0  0  0  0  0  0  0  0  0  0  0  0
    9.4350   -0.9630   24.0660 C   0  0  0  0  0  0  0  0  0  0  0  0
   10.2670   -0.3480   24.9600 N   0  0  0  0  0  0  0  0  0  0  0  0
    9.3680    0.0380   26.0480 C   0  0  0  0  0  0  0  0  0  0  0  0
    8.6550    1.0950   25.5160 C   0  0  0  0  0  0  0  0  0  0  0  0
    9.3560    1.7200   24.4650 C   0  0  0  0  0  0  0  0  0  0  0  0
    7.3860    1.5580   25.9140 C   0  0  0  0  0  0  0  0  0  0  0  0
    8.7120    2.9150   23.7560 C   0  0  0  0  0  0  0  0  0  0  0  0
    6.7140    2.7600   25.2150 C   0  0  0  0  0  0  0  0  0  0  0  0
    6.5960    0.7300   27.2540 S   0  0  0  0  0  0  0  0  0  0  0  0
    7.3940    3.4490   24.1150 N   0  0  0  0  0  0  0  0  0  0  0  0
    6.3570    1.7620   28.2600 O   0  0  0  0  0  0  0  0  0  0  0  0
    7.4610   -0.3840   27.5410 O   0  0  0  0  0  0  0  0  0  0  0  0
    5.0690    0.1000   26.7530 N   0  0  0  0  0  0  0  0  0  0  0  0
    4.4870    0.8100   25.6430 C   0  0  0  0  0  0  0  0  0  0  0  0
    4.4030   -1.0320   27.3630 C   0  0  0  0  0  0  0  0  0  0  0  0
    3.3380    0.2390   25.3620 C   0  0  0  0  0  0  0  0  0  0  0  0
    3.3340   -0.8370   26.3980 C   0  0  0  0  0  0  0  0  0  0  0  0
    5.6270   -1.0190   28.2400 C   0  0  0  0  0  0  0  0  0  0  0  0
    2.4420    0.6180   24.3480 C   0  0  0  0  0  0  0  0  0  0  0  0
    6.7280   -1.8490   27.9270 C   0  0  0  0  0  0  0  0  0  0  0  0
    5.7020   -0.2010   29.3760 C   0  0  0  0  0  0  0  0  0  0  0  0
    1.1290    0.5980   25.0160 N   0  0  0  0  0  0  0  0  0  0  0  0
    7.8700   -1.8340   28.7400 C   0  0  0  0  0  0  0  0  0  0  0  0
    6.8400   -0.1910   30.1780 C   0  0  0  0  0  0  0  0  0  0  0  0
    4.6730    0.5960   29.7150 F   0  0  0  0  0  0  0  0  0  0  0  0
    0.4320   -0.5740   25.1630 C   0  0  0  0  0  0  0  0  0  0  0  0
    7.9280   -1.0040   29.8600 C   0  0  0  0  0  0  0  0  0  0  0  0
  1  2  1  0
  3  2  1  0
  3  4  2  0
  3  5  2  0
  3  6  1  0
  6  7  2  0
  6  8  1  0
  7  9  1  0
  8 10  2  0
  9 11  2  0
 10 11  1  0
 11 12  1  0
 12 13  1  0
 13 14  1  0
 14 15  2  0
 14 16  1  0
 15 17  1  0
 16 18  2  0
 19 16  1  0
 17 20  2  0
 18 20  1  0
 19 21  2  0
 19 22  2  0
 19 23  1  0
 23 24  1  0
 23 25  1  0
 24 26  2  0
 25 27  2  0
 26 27  1  0
 25 28  1  0
 26 29  1  0
 28 30  2  0
 28 31  1  0
 29 32  1  0
 30 33  1  0
 31 34  2  0
 31 35  1  0
 32 36  1  0
 33 37  2  0
 34 37  1  0
M  END
