MAK-UNK-516d8086-20-bromoalkyne
     RDKit          3D

 22 24  0  0  0  0  0  0  0  0999 V2000
    7.1530   -3.5910   19.4960 C   0  0  0  0  0  0  0  0  0  0  0  0
    6.0090   -4.2340   19.8560 C   0  0  0  0  0  0  0  0  0  0  0  0
    7.2580   -2.2070   19.9390 C   0  0  0  0  0  0  0  0  0  0  0  0
    6.7210   -1.0750   19.0730 C   0  0  0  0  0  0  0  0  0  0  0  0
    7.8390   -1.9040   21.1670 C   0  0  0  0  0  0  0  0  0  0  0  0
    6.7920    0.2670   19.4850 N   0  0  0  0  0  0  0  0  0  0  0  0
    7.9100   -0.5720   21.6220 C   0  0  0  0  0  0  0  0  0  0  0  0
    7.4030    0.4730   20.8010 C   0  0  0  0  0  0  0  0  0  0  0  0
    8.4510   -0.2730   22.8640 C   0  0  0  0  0  0  0  0  0  0  0  0
    7.4570    1.8870   21.2400 N   0  0  0  0  0  0  0  0  0  0  0  0
    9.4400   -1.0980   23.4030 C   0  0  0  0  0  0  0  0  0  0  0  0
    8.5940    2.2380   22.0870 C   0  0  0  0  0  0  0  0  0  0  0  0
   10.6720   -0.4590   23.4570 C   0  0  0  0  0  0  0  0  0  0  0  0
    9.1860   -2.4310   23.8660 N   0  0  0  0  0  0  0  0  0  0  0  0
    8.6280    3.6130   22.2880 C   0  0  0  0  0  0  0  0  0  0  0  0
   11.8020   -1.1790   24.0460 C   0  0  0  0  0  0  0  0  0  0  0  0
   10.2920   -3.2330   24.4830 C   0  0  0  0  0  0  0  0  0  0  0  0
   11.6600   -2.5110   24.5670 C   0  0  0  0  0  0  0  0  0  0  0  0
   13.1100   -0.8060   24.2180 C   0  0  0  0  0  0  0  0  0  0  0  0
   12.9380   -3.0310   25.1540 C   0  0  0  0  0  0  0  0  0  0  0  0
   13.5720   -1.8230   25.2320 N   0  0  0  0  0  0  0  0  0  0  0  0
   13.6290    0.0980   23.6280 O   0  0  0  0  0  0  0  0  0  0  0  0
  1  2  2  3
  1  3  1  0
  3  4  2  0
  3  5  1  0
  4  6  1  0
  5  7  2  0
  6  8  2  0
  7  8  1  0
  7  9  1  0
  8 10  1  0
  9 11  1  0
 10 12  1  0
 11 13  2  0
 11 14  1  0
 12 15  1  0
 13 16  1  0
 14 17  2  0
 16 18  2  0
 17 18  1  0
 16 19  1  0
 18 20  1  0
 19 21  1  0
 20 21  1  0
 19 22  2  0
M  END
