MAK-UNK-148caf23-22-vinylsulfonamide
     RDKit          3D

 37 40  0  0  0  0  0  0  0  0999 V2000
    6.3600   -4.9880   20.3700 C   0  0  0  0  0  0  0  0  0  0  0  0
    6.4210   -4.5790   21.8170 C   0  0  0  0  0  0  0  0  0  0  0  0
    5.3800   -3.1600   21.9550 S   0  0  0  0  0  0  0  0  0  0  0  0
    4.1370   -3.6490   22.4780 O   0  0  0  0  0  0  0  0  0  0  0  0
    5.3910   -2.4480   20.7010 O   0  0  0  0  0  0  0  0  0  0  0  0
    6.1570   -2.1150   23.1900 C   0  0  0  0  0  0  0  0  0  0  0  0
    7.5980   -2.2080   23.5590 C   0  0  0  0  0  0  0  0  0  0  0  0
    5.6680   -1.1310   23.9580 C   0  0  0  0  0  0  0  0  0  0  0  0
    8.1050   -1.3140   24.5610 C   0  0  0  0  0  0  0  0  0  0  0  0
    5.9200   -0.2230   24.8900 N   0  0  0  0  0  0  0  0  0  0  0  0
    7.2530   -0.3430   25.2040 C   0  0  0  0  0  0  0  0  0  0  0  0
    7.7000    0.5350   26.1810 N   0  0  0  0  0  0  0  0  0  0  0  0
    7.1910    0.1730   27.4980 C   0  0  0  0  0  0  0  0  0  0  0  0
    7.5370   -1.2890   27.6790 C   0  0  0  0  0  0  0  0  0  0  0  0
    7.0390   -2.4360   27.0080 C   0  0  0  0  0  0  0  0  0  0  0  0
    8.5070   -1.5300   28.6650 C   0  0  0  0  0  0  0  0  0  0  0  0
    7.5030   -3.7980   27.3120 C   0  0  0  0  0  0  0  0  0  0  0  0
    9.0370   -2.7940   29.0480 C   0  0  0  0  0  0  0  0  0  0  0  0
    8.5540   -3.9640   28.3840 C   0  0  0  0  0  0  0  0  0  0  0  0
   10.1700   -2.6230   30.2460 C   0  0  0  0  0  0  0  0  0  0  0  0
    8.9470   -5.2090   28.6150 F   0  0  0  0  0  0  0  0  0  0  0  0
   10.2590   -1.0340   30.4230 C   0  0  0  0  0  0  0  0  0  0  0  0
   11.3670   -3.4140   31.5900 N   0  0  0  0  0  0  0  0  0  0  0  0
   11.1550   -0.4070   31.3250 C   0  0  0  0  0  0  0  0  0  0  0  0
   11.9580   -1.5820   32.1690 C   0  0  0  0  0  0  0  0  0  0  0  0
   11.4510   -6.3650   33.1270 S   0  0  0  0  0  0  0  0  0  0  0  0
   11.1320    0.9950   31.3390 C   0  0  0  0  0  0  0  0  0  0  0  0
   11.9840   -7.4990   32.4510 O   0  0  0  0  0  0  0  0  0  0  0  0
   10.5030   -6.2360   34.1610 O   0  0  0  0  0  0  0  0  0  0  0  0
   12.4090   -6.7980   34.6380 C   0  0  0  0  0  0  0  0  0  0  0  0
   10.8180    1.3740   32.7200 N   0  0  0  0  0  0  0  0  0  0  0  0
   11.7410   -7.6780   35.5040 C   0  0  0  0  0  0  0  0  0  0  0  0
   13.6920   -6.3940   35.0730 C   0  0  0  0  0  0  0  0  0  0  0  0
   11.3870    0.4540   33.7210 C   0  0  0  0  0  0  0  0  0  0  0  0
   12.3290   -8.1000   36.6940 C   0  0  0  0  0  0  0  0  0  0  0  0
   14.2800   -6.8000   36.2330 N   0  0  0  0  0  0  0  0  0  0  0  0
   13.5910   -7.6420   37.0210 C   0  0  0  0  0  0  0  0  0  0  0  0
  1  2  1  0
  3  2  1  0
  3  4  2  0
  3  5  2  0
  3  6  1  0
  6  7  2  0
  6  8  1  0
  7  9  1  0
  8 10  2  0
  9 11  2  0
 10 11  1  0
 11 12  1  0
 12 13  1  0
 13 14  1  0
 14 15  2  0
 14 16  1  0
 15 17  1  0
 16 18  2  0
 17 19  2  0
 18 19  1  0
 18 20  1  0
 19 21  1  0
 20 22  2  0
 20 23  1  0
 22 24  1  0
 23 25  1  0
 24 25  2  0
 23 26  1  0
 24 27  1  0
 26 28  2  0
 26 29  2  0
 26 30  1  0
 27 31  1  0
 30 32  2  0
 30 33  1  0
 31 34  1  0
 32 35  1  0
 33 36  2  0
 35 37  2  0
 36 37  1  0
M  END
