MAK-UNK-5d2caa6f-14-chloroacetamide
     RDKit          3D

 26 30  0  0  0  0  0  0  0  0999 V2000
    7.1780   -2.9700   18.8140 C   0  0  0  0  0  0  0  0  0  0  0  0
    6.3070   -3.3480   19.9850 C   0  0  0  0  0  0  0  0  0  0  0  0
    5.4220   -4.2010   19.7970 O   0  0  0  0  0  0  0  0  0  0  0  0
    6.5340   -2.7510   21.2400 N   0  0  0  0  0  0  0  0  0  0  0  0
    7.1190   -1.4880   21.3310 C   0  0  0  0  0  0  0  0  0  0  0  0
    6.8620   -3.4980   22.3890 C   0  0  1  0  0  0  0  0  0  0  0  0
    7.8720   -1.7350   22.5830 C   0  0  2  0  0  0  0  0  0  0  0  0
    8.2170   -3.2020   22.4720 C   0  0  0  0  0  0  0  0  0  0  0  0
    6.1460   -2.9000   23.3940 C   0  0  0  0  0  0  0  0  0  0  0  0
    6.7980   -1.6580   23.7300 C   0  0  1  0  0  0  0  0  0  0  0  0
    7.3340   -1.6380   25.2030 C   0  0  0  0  0  0  0  0  0  0  0  0
    6.6310   -2.5880   26.0170 O   0  0  0  0  0  0  0  0  0  0  0  0
    8.3340   -0.8140   25.7050 N   0  0  0  0  0  0  0  0  0  0  0  0
    9.3250   -0.8120   24.9420 C   0  0  0  0  0  0  0  0  0  0  0  0
    9.3030   -2.0330   24.3250 C   0  0  0  0  0  0  0  0  0  0  0  0
   10.2470    0.2540   24.7820 C   0  0  0  0  0  0  0  0  0  0  0  0
   10.2900   -2.2930   23.3930 C   0  0  0  0  0  0  0  0  0  0  0  0
   11.1850   -0.0280   23.8820 C   0  0  0  0  0  0  0  0  0  0  0  0
   11.1470   -1.3400   23.2020 C   0  0  0  0  0  0  0  0  0  0  0  0
   12.2970    0.6610   23.3520 N   0  0  0  0  0  0  0  0  0  0  0  0
   12.7430   -0.3860   22.3710 C   0  0  0  0  0  0  0  0  0  0  0  0
   12.0270   -1.4620   22.3850 C   0  0  0  0  0  0  0  0  0  0  0  0
   13.6780   -0.3040   21.5820 C   0  0  0  0  0  0  0  0  0  0  0  0
   12.1650   -2.5520   21.6440 C   0  0  0  0  0  0  0  0  0  0  0  0
   13.8850   -1.3760   20.7260 C   0  0  0  0  0  0  0  0  0  0  0  0
   13.0890   -2.6280   20.7630 C   0  0  0  0  0  0  0  0  0  0  0  0
  1  2  1  0
  2  3  2  0
  2  4  1  0
  4  5  1  0
  4  6  1  0
  7  5  1  6
  6  8  1  0
  7  8  1  0
  6  9  1  1
  7 10  1  0
  9 10  1  0
 10 11  1  1
 11 12  2  0
 11 13  1  0
 13 14  1  0
 14 15  2  0
 14 16  1  0
 15 17  1  0
 16 18  2  0
 17 19  2  0
 18 19  1  0
 18 20  1  0
 20 21  1  0
 19 22  1  0
 21 22  2  0
 21 23  1  0
 22 24  1  0
 23 25  2  0
 24 26  2  0
 25 26  1  0
M  END
