MAK-UNK-10799360-21-chloroacetamide
     RDKit          3D

 23 26  0  0  0  0  0  0  0  0999 V2000
    7.2520   -3.0490   18.8180 C   0  0  0  0  0  0  0  0  0  0  0  0
    6.2310   -3.3330   19.9030 C   0  0  0  0  0  0  0  0  0  0  0  0
    5.3990   -4.2330   19.7750 O   0  0  0  0  0  0  0  0  0  0  0  0
    6.2950   -2.5520   21.0130 N   0  0  0  0  0  0  0  0  0  0  0  0
    7.1100   -1.3410   20.9840 C   0  0  0  0  0  0  0  0  0  0  0  0
    6.0970   -2.9120   22.4220 C   0  0  2  0  0  0  0  0  0  0  0  0
    7.1780   -0.9810   22.4790 C   0  0  1  0  0  0  0  0  0  0  0  0
    5.8440   -1.5220   22.9990 C   0  0  0  0  0  0  0  0  0  0  0  0
    7.4620   -3.2350   23.0880 C   0  0  0  0  0  0  0  0  0  0  0  0
    8.1280   -1.9050   23.0970 N   0  0  0  0  0  0  0  0  0  0  0  0
    8.7630   -1.3780   24.3070 C   0  0  0  0  0  0  0  0  0  0  0  0
   10.0480   -0.6360   23.9560 C   0  0  0  0  0  0  0  0  0  0  0  0
   10.3160    0.7130   24.2000 C   0  0  0  0  0  0  0  0  0  0  0  0
   11.0190   -1.3630   23.3550 C   0  0  0  0  0  0  0  0  0  0  0  0
   11.5430    1.2780   23.8360 C   0  0  0  0  0  0  0  0  0  0  0  0
   12.2320   -0.8290   23.0090 C   0  0  0  0  0  0  0  0  0  0  0  0
   10.7520   -2.7650   23.0970 C   0  0  0  0  0  0  0  0  0  0  0  0
   12.5210    0.4990   23.2340 C   0  0  0  0  0  0  0  0  0  0  0  0
   11.5230   -3.3990   24.1400 C   0  0  0  0  0  0  0  0  0  0  0  0
   13.1250   -1.7070   22.4570 C   0  0  0  0  0  0  0  0  0  0  0  0
   10.6690   -4.3380   24.5960 O   0  0  0  0  0  0  0  0  0  0  0  0
   12.7860   -3.0540   24.4940 N   0  0  0  0  0  0  0  0  0  0  0  0
   13.6850   -2.4120   23.5430 C   0  0  0  0  0  0  0  0  0  0  0  0
  1  2  1  0
  2  3  2  0
  2  4  1  0
  4  5  1  0
  4  6  1  0
  7  5  1  6
  6  8  1  0
  7  8  1  0
  6  9  1  1
  7 10  1  0
  9 10  1  0
 10 11  1  0
 11 12  1  0
 12 13  2  0
 12 14  1  0
 13 15  1  0
 14 16  2  0
 14 17  1  0
 15 18  2  0
 16 18  1  0
 17 19  1  0
 16 20  1  0
 19 21  2  0
 19 22  1  0
 20 23  1  0
 22 23  1  0
M  END
