MAK-UNK-ec98eaf6-34-chloroacetamide
     RDKit          3D

 27 30  0  0  0  0  0  0  0  0999 V2000
    7.1040   -3.0460   18.9110 C   0  0  0  0  0  0  0  0  0  0  0  0
    6.1350   -3.4520   19.9850 C   0  0  0  0  0  0  0  0  0  0  0  0
    5.2550   -4.2810   19.7660 O   0  0  0  0  0  0  0  0  0  0  0  0
    6.2720   -2.8900   21.2200 N   0  0  0  0  0  0  0  0  0  0  0  0
    6.1370   -1.4350   21.5760 C   0  0  0  0  0  0  0  0  0  0  0  0
    7.3190   -3.3860   22.1280 C   0  0  1  0  0  0  0  0  0  0  0  0
    7.4340   -1.3270   22.4270 C   0  0  2  0  0  0  0  0  0  0  0  0
    8.4040   -2.3370   21.8910 C   0  0  0  0  0  0  0  0  0  0  0  0
    6.8130   -3.2660   23.3970 C   0  0  0  0  0  0  0  0  0  0  0  0
    7.0840   -1.9760   23.8140 C   0  0  1  0  0  0  0  0  0  0  0  0
    8.2160   -1.9100   24.7050 N   0  0  0  0  0  0  0  0  0  0  0  0
    9.2570   -1.0760   24.3570 C   0  0  0  0  0  0  0  0  0  0  0  0
    9.1700    0.3300   24.6620 C   0  0  0  0  0  0  0  0  0  0  0  0
   10.3690   -1.5240   23.7120 C   0  0  0  0  0  0  0  0  0  0  0  0
   10.2670    1.3450   24.3030 C   0  0  0  0  0  0  0  0  0  0  0  0
   11.3350   -0.6940   23.3920 C   0  0  0  0  0  0  0  0  0  0  0  0
   10.7930   -2.7420   23.2540 N   0  0  0  0  0  0  0  0  0  0  0  0
   10.1570    2.6390   24.5710 F   0  0  0  0  0  0  0  0  0  0  0  0
   11.4770    0.7630   23.6230 C   0  0  0  0  0  0  0  0  0  0  0  0
   12.4160   -1.3350   22.6940 C   0  0  0  0  0  0  0  0  0  0  0  0
   12.0230   -2.6230   22.6430 C   0  0  0  0  0  0  0  0  0  0  0  0
   13.5550   -1.0190   22.1620 C   0  0  0  0  0  0  0  0  0  0  0  0
   13.5630   -1.3110   20.7890 C   0  0  0  0  0  0  0  0  0  0  0  0
   14.0660   -0.1700   20.2080 N   0  0  0  0  0  0  0  0  0  0  0  0
   14.9130    0.0360   19.1150 C   0  0  0  0  0  0  0  0  0  0  0  0
   15.3930    1.4730   18.9150 C   0  0  0  0  0  0  0  0  0  0  0  0
   15.2680   -0.7950   18.3830 O   0  0  0  0  0  0  0  0  0  0  0  0
  1  2  1  0
  2  3  2  0
  2  4  1  0
  4  5  1  0
  4  6  1  0
  7  5  1  6
  6  8  1  0
  7  8  1  0
  6  9  1  1
  7 10  1  0
  9 10  1  0
 10 11  1  1
 11 12  1  0
 12 13  1  0
 12 14  2  0
 13 15  2  0
 14 16  1  0
 14 17  1  0
 15 18  1  0
 15 19  1  0
 16 19  2  0
 16 20  1  0
 17 21  1  0
 20 21  2  0
 20 22  1  0
 22 23  1  0
 23 24  1  0
 24 25  1  0
 25 26  1  0
 25 27  2  0
M  END
