MAK-UNK-10572812-9
     RDKit          3D

 33 37  0  0  0  0  0  0  0  0999 V2000
    9.1960    1.7460   21.4940 O   0  0  0  0  0  0  0  0  0  0  0  0
    8.8580    0.6910   22.0720 C   0  0  0  0  0  0  0  0  0  0  0  0
    7.8970   -0.2840   21.3640 C   0  0  0  0  0  0  0  0  0  0  0  0
    9.3160    0.3780   23.3390 N   0  0  0  0  0  0  0  0  0  0  0  0
    6.8520    0.1350   20.3170 C   0  0  0  0  0  0  0  0  0  0  0  0
    9.4440   -0.9540   23.6710 C   0  0  0  0  0  0  0  0  0  0  0  0
   10.2420    1.2370   24.0540 C   0  0  0  0  0  0  0  0  0  0  0  0
    7.1780   -0.4080   18.9270 C   0  0  0  0  0  0  0  0  0  0  0  0
    5.6710    0.9000   20.2910 C   0  0  0  0  0  0  0  0  0  0  0  0
   10.7790   -1.4120   23.5950 C   0  0  0  0  0  0  0  0  0  0  0  0
   11.5350    0.9100   23.6960 C   0  0  0  0  0  0  0  0  0  0  0  0
    6.1840    0.0770   18.1410 N   0  0  0  0  0  0  0  0  0  0  0  0
    5.2210    0.8970   18.9620 C   0  0  0  0  0  0  0  0  0  0  0  0
    4.8520    1.6360   21.1750 C   0  0  0  0  0  0  0  0  0  0  0  0
   11.8260   -0.5110   23.8970 N   0  0  0  0  0  0  0  0  0  0  0  0
    4.0430    1.5610   18.4410 N   0  0  0  0  0  0  0  0  0  0  0  0
    3.6930    2.3090   20.7860 C   0  0  0  0  0  0  0  0  0  0  0  0
   13.0580   -0.8430   23.4910 C   0  0  0  0  0  0  0  0  0  0  0  0
    3.2860    2.2570   19.3370 C   0  0  0  0  0  0  0  0  0  0  0  0
   13.5910   -0.1530   22.6420 O   0  0  0  0  0  0  0  0  0  0  0  0
   13.6530   -1.9520   24.0680 N   0  0  0  0  0  0  0  0  0  0  0  0
   13.4410   -2.3190   25.4430 C   0  0  0  0  0  0  0  0  0  0  0  0
   14.6440   -3.0790   26.0120 C   0  0  0  0  0  0  0  0  0  0  0  0
   15.4970   -3.9430   25.0780 C   0  0  0  0  0  0  0  0  0  0  0  0
   16.7480   -4.8790   25.1270 C   0  0  0  0  0  0  0  0  0  0  0  0
   15.0750   -3.9190   23.8540 C   0  0  0  0  0  0  0  0  0  0  0  0
   17.0480   -5.4070   23.9080 N   0  0  0  0  0  0  0  0  0  0  0  0
   16.1030   -4.9660   23.0340 C   0  0  0  0  0  0  0  0  0  0  0  0
   13.9150   -3.1930   23.2470 C   0  0  0  0  0  0  0  0  0  0  0  0
   15.6400   -5.1880   21.4510 C   0  0  0  0  0  0  0  0  0  0  0  0
   13.5230   -3.4350   21.7170 C   0  0  0  0  0  0  0  0  0  0  0  0
   14.3760   -4.4460   20.8600 C   0  0  0  0  0  0  0  0  0  0  0  0
   12.4770   -2.8060   21.1660 F   0  0  0  0  0  0  0  0  0  0  0  0
  1  2  2  0
  2  3  1  0
  2  4  1  0
  3  5  1  0
  4  6  1  0
  4  7  1  0
  5  8  2  0
  5  9  1  0
  6 10  1  0
  7 11  1  0
  8 12  1  0
  9 13  2  0
 12 13  1  0
  9 14  1  0
 10 15  1  0
 11 15  1  0
 13 16  1  0
 14 17  2  0
 15 18  1  0
 16 19  2  0
 17 19  1  0
 18 20  2  0
 18 21  1  0
 21 22  1  0
 22 23  1  0
 23 24  1  0
 24 25  2  0
 24 26  1  0
 25 27  1  0
 26 28  2  0
 27 28  1  0
 26 29  1  0
 28 30  1  0
 29 31  2  0
 30 32  2  0
 31 32  1  0
 31 33  1  0
M  END
