MAK-UNK-849bee6c-5-chloroacetamide
     RDKit          3D

 24 26  0  0  0  0  0  0  0  0999 V2000
    7.2000   -2.9670   18.7570 C   0  0  0  0  0  0  0  0  0  0  0  0
    6.2040   -3.2480   19.8500 C   0  0  0  0  0  0  0  0  0  0  0  0
    5.3750   -4.1560   19.7470 O   0  0  0  0  0  0  0  0  0  0  0  0
    6.2800   -2.4320   20.9890 N   0  0  0  0  0  0  0  0  0  0  0  0
    6.0150   -3.0570   22.2650 C   0  0  0  0  0  0  0  0  0  0  0  0
    7.2620   -1.3310   21.0150 C   0  0  0  0  0  0  0  0  0  0  0  0
    7.3120   -3.4070   23.0030 C   0  0  0  0  0  0  0  0  0  0  0  0
    8.5630   -1.7580   21.7240 C   0  0  0  0  0  0  0  0  0  0  0  0
    8.2490   -2.2850   23.0580 N   0  0  0  0  0  0  0  0  0  0  0  0
    9.4050   -2.3460   23.9050 C   0  0  0  0  0  0  0  0  0  0  0  0
   10.5420   -1.4030   23.5580 C   0  0  0  0  0  0  0  0  0  0  0  0
   11.9060   -1.9860   23.3160 C   0  0  0  0  0  0  0  0  0  0  0  0
   10.3710   -0.0060   23.4630 C   0  0  0  0  0  0  0  0  0  0  0  0
   12.9840   -1.0360   23.0000 C   0  0  0  0  0  0  0  0  0  0  0  0
   11.4550    0.8690   23.1570 C   0  0  0  0  0  0  0  0  0  0  0  0
   12.7230    0.3350   22.9370 C   0  0  0  0  0  0  0  0  0  0  0  0
   11.3420    2.2750   23.0690 C   0  0  0  0  0  0  0  0  0  0  0  0
   12.4800    3.1590   22.7780 C   0  0  0  0  0  0  0  0  0  0  0  0
   10.0220    3.0730   23.2690 C   0  0  0  0  0  0  0  0  0  0  0  0
   12.3730    4.5320   22.6930 C   0  0  0  0  0  0  0  0  0  0  0  0
   10.0430    4.5340   23.1570 N   0  0  0  0  0  0  0  0  0  0  0  0
    8.7940    2.2480   23.5760 C   0  0  0  0  0  0  0  0  0  0  0  0
   11.2420    5.2820   22.8600 C   0  0  0  0  0  0  0  0  0  0  0  0
    7.6790    2.7040   24.2290 N   0  0  0  0  0  0  0  0  0  0  0  0
  1  2  1  0
  2  3  2  0
  2  4  1  0
  4  5  1  0
  4  6  1  0
  5  7  1  0
  6  8  1  0
  7  9  1  0
  8  9  1  0
  9 10  1  0
 10 11  1  0
 11 12  2  0
 11 13  1  0
 12 14  1  0
 13 15  2  0
 14 16  2  0
 15 16  1  0
 15 17  1  0
 17 18  2  0
 17 19  1  0
 18 20  1  0
 19 21  2  0
 19 22  1  0
 20 23  2  0
 21 23  1  0
 22 24  3  0
M  END
