MAK-UNK-c74072e5-10-chloroacetamide
     RDKit          3D

 26 28  0  0  0  0  0  0  0  0999 V2000
    7.4080   -2.9520   18.7940 C   0  0  0  0  0  0  0  0  0  0  0  0
    6.3300   -3.1420   19.8450 C   0  0  0  0  0  0  0  0  0  0  0  0
    5.4530   -4.0070   19.6830 O   0  0  0  0  0  0  0  0  0  0  0  0
    6.3530   -2.3430   20.9900 N   0  0  0  0  0  0  0  0  0  0  0  0
    6.3540   -0.9810   20.8920 C   0  0  0  0  0  0  0  0  0  0  0  0
    6.8990   -2.7940   22.2450 C   0  0  0  0  0  0  0  0  0  0  0  0
    7.8190   -0.6930   20.7660 C   0  0  0  0  0  0  0  0  0  0  0  0
    8.3110   -2.2140   22.4510 C   0  0  0  0  0  0  0  0  0  0  0  0
    8.5490   -0.8190   21.9290 N   0  0  0  0  0  0  0  0  0  0  0  0
    9.9360   -0.3870   21.9490 C   0  0  0  0  0  0  0  0  0  0  0  0
   10.7810   -1.1490   22.7520 C   0  0  0  0  0  0  0  0  0  0  0  0
   12.1080   -1.3700   23.1260 C   0  0  0  0  0  0  0  0  0  0  0  0
    9.6340   -2.0600   23.3910 S   0  0  0  0  0  0  0  0  0  0  0  0
   12.1510   -2.4560   24.0260 C   0  0  0  0  0  0  0  0  0  0  0  0
   10.7000   -2.9170   24.1920 C   0  0  0  0  0  0  0  0  0  0  0  0
    9.8740   -3.8070   24.7870 C   0  0  0  0  0  0  0  0  0  0  0  0
    8.6980   -4.1930   23.9950 C   0  0  0  0  0  0  0  0  0  0  0  0
   10.0840   -4.2470   26.0250 C   0  0  0  0  0  0  0  0  0  0  0  0
    7.6450   -5.0630   24.5870 C   0  0  0  0  0  0  0  0  0  0  0  0
    9.1270   -5.0360   26.5800 C   0  0  0  0  0  0  0  0  0  0  0  0
    7.8410   -5.4550   25.8760 C   0  0  0  0  0  0  0  0  0  0  0  0
    9.4140   -5.4410   27.9510 C   0  0  0  0  0  0  0  0  0  0  0  0
    6.8230   -6.2250   26.5450 N   0  0  0  0  0  0  0  0  0  0  0  0
   10.4330   -5.0620   28.4470 O   0  0  0  0  0  0  0  0  0  0  0  0
    7.0040   -6.3530   27.7540 O   0  0  0  0  0  0  0  0  0  0  0  0
    5.6990   -6.1720   26.0190 O   0  0  0  0  0  0  0  0  0  0  0  0
  1  2  1  0
  2  3  2  0
  2  4  1  0
  4  5  1  0
  4  6  1  0
  5  7  1  0
  6  8  1  0
  7  9  1  0
  8  9  1  0
  9 10  1  0
 10 11  1  0
 11 12  2  0
 11 13  1  0
 12 14  1  0
 13 15  1  0
 14 15  2  0
 15 16  1  0
 16 17  2  0
 16 18  1  0
 17 19  1  0
 18 20  2  0
 19 21  2  0
 20 21  1  0
 20 22  1  0
 21 23  1  0
 22 24  2  0
 23 25  2  0
 23 26  1  0
M  CHG  2  23   1  26  -1
M  END
