MAK-UNK-3e0761f8-9-vinylsulfonamide
     RDKit          3D

 26 29  0  0  0  0  0  0  0  0999 V2000
    7.6740   -2.9480   18.1940 C   0  0  0  0  0  0  0  0  0  0  0  0
    7.0430   -1.9710   19.1050 C   0  0  0  0  0  0  0  0  0  0  0  0
    5.6980   -2.5640   20.0980 S   0  0  0  0  0  0  0  0  0  0  0  0
    5.1150   -3.9080   19.8450 O   0  0  0  0  0  0  0  0  0  0  0  0
    4.8680   -1.3960   20.2720 O   0  0  0  0  0  0  0  0  0  0  0  0
    6.7090   -2.5490   21.3920 N   0  0  0  0  0  0  0  0  0  0  0  0
    7.6760   -1.4420   21.3920 C   0  0  0  0  0  0  0  0  0  0  0  0
    6.1890   -2.7010   22.7430 C   0  0  2  0  0  0  0  0  0  0  0  0
    7.9040   -1.2920   22.8940 C   0  0  1  0  0  0  0  0  0  0  0  0
    6.4090   -1.3130   23.3440 C   0  0  0  0  0  0  0  0  0  0  0  0
    7.2610   -3.4680   23.5250 C   0  0  0  0  0  0  0  0  0  0  0  0
    8.4480   -2.5950   23.3220 N   0  0  0  0  0  0  0  0  0  0  0  0
    9.5420   -2.5800   24.2920 C   0  0  2  0  0  0  0  0  0  0  0  0
   10.6830   -1.6170   23.8810 C   0  0  0  0  0  0  0  0  0  0  0  0
   10.0020   -4.0400   24.6330 C   0  0  0  0  0  0  0  0  0  0  0  0
   11.7270   -2.0240   22.8370 C   0  0  0  0  0  0  0  0  0  0  0  0
   10.8230   -0.3310   24.4270 C   0  0  0  0  0  0  0  0  0  0  0  0
   10.5980   -4.1040   26.0380 C   0  0  0  0  0  0  0  0  0  0  0  0
    8.9180   -5.1400   24.5640 C   0  0  0  0  0  0  0  0  0  0  0  0
   12.7480   -1.1170   22.4860 C   0  0  0  0  0  0  0  0  0  0  0  0
   11.8590    0.5170   24.0290 C   0  0  0  0  0  0  0  0  0  0  0  0
    9.8640   -5.0800   26.9870 C   0  0  0  0  0  0  0  0  0  0  0  0
    7.8780   -5.0270   25.7080 C   0  0  0  0  0  0  0  0  0  0  0  0
   12.8050    0.1390   23.0830 C   0  0  0  0  0  0  0  0  0  0  0  0
    8.4640   -4.7350   27.0200 N   0  0  0  0  0  0  0  0  0  0  0  0
    7.7820   -5.4540   28.0900 C   0  0  0  0  0  0  0  0  0  0  0  0
  1  2  1  0
  3  2  1  0
  3  4  2  0
  3  5  2  0
  3  6  1  0
  6  7  1  0
  6  8  1  0
  9  7  1  6
  8 10  1  0
  9 10  1  0
  8 11  1  1
  9 12  1  0
 11 12  1  0
 12 13  1  0
 13 14  1  6
 13 15  1  0
 14 16  2  0
 14 17  1  0
 15 18  1  0
 15 19  1  0
 16 20  1  0
 17 21  2  0
 18 22  1  0
 19 23  1  0
 20 24  2  0
 21 24  1  0
 22 25  1  0
 23 25  1  0
 25 26  1  0
M  END
