MAK-UNK-3e0761f8-6-vinylsulfonamide
     RDKit          3D

 23 26  0  0  0  0  0  0  0  0999 V2000
    7.3120   -3.5230   19.6020 C   0  0  0  0  0  0  0  0  0  0  0  0
    7.5530   -2.4300   20.5190 C   0  0  0  0  0  0  0  0  0  0  0  0
    6.6670   -2.9860   21.9150 S   0  0  0  0  0  0  0  0  0  0  0  0
    5.0220   -3.2920   21.4220 O   0  0  0  0  0  0  0  0  0  0  0  0
    7.3690   -4.1790   22.3380 O   0  0  0  0  0  0  0  0  0  0  0  0
    7.8190   -1.6180   22.5600 N   0  0  0  0  0  0  0  0  0  0  0  0
    7.9270   -1.0280   23.9470 C   0  0  0  0  0  0  0  0  0  0  0  0
    9.3610   -1.3430   22.0810 C   0  0  1  0  0  0  0  0  0  0  0  0
    9.4720   -0.8920   24.2370 C   0  0  2  0  0  0  0  0  0  0  0  0
    9.9150   -0.1840   22.9370 C   0  0  0  0  0  0  0  0  0  0  0  0
   10.4290   -2.3410   22.5950 C   0  0  0  0  0  0  0  0  0  0  0  0
   10.1260   -2.2930   24.0950 C   0  0  2  0  0  0  0  0  0  0  0  0
    9.1780   -3.3580   24.6110 C   0  0  0  0  0  0  0  0  0  0  0  0
    9.3110   -3.8970   26.0480 C   0  0  0  0  0  0  0  0  0  0  0  0
    8.0210   -4.2970   25.6040 N   0  0  0  0  0  0  0  0  0  0  0  0
    9.0820   -4.5390   27.3470 N   0  0  0  0  0  0  0  0  0  0  0  0
    7.2150   -5.0220   26.4800 C   0  0  0  0  0  0  0  0  0  0  0  0
    7.8740   -5.1910   27.6180 C   0  0  0  0  0  0  0  0  0  0  0  0
    5.9250   -5.5160   26.2570 C   0  0  0  0  0  0  0  0  0  0  0  0
    7.4880   -5.8230   28.7410 N   0  0  0  0  0  0  0  0  0  0  0  0
    5.2500   -5.3330   25.0570 C   0  0  0  0  0  0  0  0  0  0  0  0
    5.3670   -6.2120   27.3390 C   0  0  0  0  0  0  0  0  0  0  0  0
    6.2270   -6.3430   28.6130 C   0  0  0  0  0  0  0  0  0  0  0  0
  1  2  1  0
  3  2  1  0
  3  4  2  0
  3  5  2  0
  3  6  1  0
  6  7  1  0
  6  8  1  0
  9  7  1  6
  8 10  1  0
  9 10  1  0
  8 11  1  1
  9 12  1  0
 11 12  1  0
 12 13  1  6
 13 14  1  0
 14 15  2  0
 14 16  1  0
 15 17  1  0
 16 18  1  0
 17 18  2  0
 17 19  1  0
 18 20  1  0
 19 21  1  0
 19 22  2  0
 20 23  2  0
 22 23  1  0
M  END
