MAK-UNK-849bee6c-22-chloroacetamide
     RDKit          3D

 29 31  0  0  0  0  0  0  0  0999 V2000
    7.1050   -2.9590   18.7570 C   0  0  0  0  0  0  0  0  0  0  0  0
    6.1000   -3.2450   19.8420 C   0  0  0  0  0  0  0  0  0  0  0  0
    5.3400   -4.2110   19.7610 O   0  0  0  0  0  0  0  0  0  0  0  0
    6.0650   -2.3740   20.9500 N   0  0  0  0  0  0  0  0  0  0  0  0
    6.9190   -1.2080   20.9370 C   0  0  0  0  0  0  0  0  0  0  0  0
    5.9040   -2.9740   22.2650 C   0  0  0  0  0  0  0  0  0  0  0  0
    8.2810   -1.4290   21.6120 C   0  0  0  0  0  0  0  0  0  0  0  0
    7.2510   -3.3000   22.9090 C   0  0  0  0  0  0  0  0  0  0  0  0
    8.2660   -2.2280   22.8480 N   0  0  0  0  0  0  0  0  0  0  0  0
    9.4820   -2.8220   23.2780 C   0  0  0  0  0  0  0  0  0  0  0  0
   10.6970   -1.9900   22.9570 C   0  0  0  0  0  0  0  0  0  0  0  0
   10.8600   -0.8950   23.8930 C   0  0  0  0  0  0  0  0  0  0  0  0
   11.6530   -2.1500   21.8780 C   0  0  0  0  0  0  0  0  0  0  0  0
   11.9990   -0.1140   23.6090 C   0  0  0  0  0  0  0  0  0  0  0  0
   12.8080   -1.3250   21.6300 C   0  0  0  0  0  0  0  0  0  0  0  0
   12.2070    0.8760   24.3620 C   0  0  0  0  0  0  0  0  0  0  0  0
   12.9820   -0.3280   22.5100 C   0  0  0  0  0  0  0  0  0  0  0  0
   13.7680   -1.4530   20.5060 N   0  0  0  0  0  0  0  0  0  0  0  0
   14.5750   -0.5020   19.6000 C   0  0  0  0  0  0  0  0  0  0  0  0
   15.4160   -0.9230   18.5550 C   0  0  0  0  0  0  0  0  0  0  0  0
   14.6350    0.8100   19.7380 N   0  0  0  0  0  0  0  0  0  0  0  0
   16.1960   -0.2170   17.6980 C   0  0  0  0  0  0  0  0  0  0  0  0
   15.3960    1.5710   18.9110 C   0  0  0  0  0  0  0  0  0  0  0  0
   16.9190   -0.8650   16.7860 N   0  0  0  0  0  0  0  0  0  0  0  0
   16.2080    1.1270   17.8410 N   0  0  0  0  0  0  0  0  0  0  0  0
   15.3860    3.0500   19.1810 C   0  0  0  0  0  0  0  0  0  0  0  0
   17.8500   -1.7980   17.4550 C   0  0  0  0  0  0  0  0  0  0  0  0
   15.4280    4.1490   19.4590 N   0  0  0  0  0  0  0  0  0  0  0  0
   18.6180   -1.0110   18.4430 C   0  0  0  0  0  0  0  0  0  0  0  0
  1  2  1  0
  2  3  2  0
  2  4  1  0
  4  5  1  0
  4  6  1  0
  5  7  1  0
  6  8  1  0
  7  9  1  0
  8  9  1  0
  9 10  1  0
 10 11  1  0
 11 12  2  0
 11 13  1  0
 12 14  1  0
 13 15  2  0
 14 16  1  0
 14 17  2  0
 15 17  1  0
 15 18  1  0
 18 19  1  0
 19 20  2  0
 19 21  1  0
 20 22  1  0
 21 23  2  0
 22 24  1  0
 22 25  2  0
 23 25  1  0
 23 26  1  0
 24 27  1  0
 26 28  3  0
 27 29  1  0
M  END
