MAK-UNK-5d2caa6f-11-chloroacetamide
     RDKit          3D

 26 30  0  0  0  0  0  0  0  0999 V2000
    8.0160   -3.2820   19.2510 C   0  0  0  0  0  0  0  0  0  0  0  0
    6.8410   -3.5090   20.1980 C   0  0  0  0  0  0  0  0  0  0  0  0
    5.8920   -4.2920   19.9280 O   0  0  0  0  0  0  0  0  0  0  0  0
    6.9520   -2.6750   21.3570 N   0  0  0  0  0  0  0  0  0  0  0  0
    7.8430   -1.6120   21.2560 C   0  0  0  0  0  0  0  0  0  0  0  0
    6.0070   -2.3890   22.3930 C   0  0  2  0  0  0  0  0  0  0  0  0
    7.1590   -0.7060   22.1860 C   0  0  1  0  0  0  0  0  0  0  0  0
    5.6900   -1.0790   22.0270 C   0  0  0  0  0  0  0  0  0  0  0  0
    6.7220   -2.3760   23.6010 C   0  0  0  0  0  0  0  0  0  0  0  0
    7.5700   -1.1830   23.6200 C   0  0  1  0  0  0  0  0  0  0  0  0
    8.9750   -1.6530   23.4220 C   0  0  0  0  0  0  0  0  0  0  0  0
    8.8390   -2.8820   23.2140 N   0  0  0  0  0  0  0  0  0  0  0  0
   10.2430   -1.0810   23.3930 C   0  0  0  0  0  0  0  0  0  0  0  0
    9.7010   -3.7930   22.9470 C   0  0  0  0  0  0  0  0  0  0  0  0
   11.3720   -1.9600   23.0720 C   0  0  0  0  0  0  0  0  0  0  0  0
   10.5740    0.2660   23.6250 C   0  0  0  0  0  0  0  0  0  0  0  0
    9.0290   -4.9630   22.8170 C   0  0  0  0  0  0  0  0  0  0  0  0
   11.0750   -3.4280   22.8360 N   0  0  0  0  0  0  0  0  0  0  0  0
   12.6670   -1.3880   22.9920 C   0  0  0  0  0  0  0  0  0  0  0  0
   11.8450    0.7900   23.5580 C   0  0  0  0  0  0  0  0  0  0  0  0
    9.4690   -6.3090   23.0770 C   0  0  0  0  0  0  0  0  0  0  0  0
    7.7260   -4.8430   22.3950 C   0  0  0  0  0  0  0  0  0  0  0  0
   12.8930   -0.0490   23.2310 C   0  0  0  0  0  0  0  0  0  0  0  0
    8.5570   -7.3030   22.8680 C   0  0  0  0  0  0  0  0  0  0  0  0
    6.7970   -5.8590   22.1950 N   0  0  0  0  0  0  0  0  0  0  0  0
    7.2480   -7.1060   22.4450 C   0  0  0  0  0  0  0  0  0  0  0  0
  1  2  1  0
  2  3  2  0
  2  4  1  0
  4  5  1  0
  4  6  1  0
  7  5  1  6
  6  8  1  0
  7  8  1  0
  6  9  1  1
  7 10  1  0
  9 10  1  0
 10 11  1  6
 11 12  2  0
 11 13  1  0
 12 14  1  0
 13 15  2  0
 13 16  1  0
 14 17  1  0
 14 18  2  0
 15 18  1  0
 15 19  1  0
 16 20  2  0
 17 21  2  0
 17 22  1  0
 19 23  2  0
 20 23  1  0
 21 24  1  0
 22 25  2  0
 24 26  2  0
 25 26  1  0
M  END
