MAK-UNK-8fdbca50-15-chloroacetamide
     RDKit          3D

 39 42  0  0  0  0  0  0  0  0999 V2000
    9.3310   -4.2340   19.9410 C   0  0  0  0  0  0  0  0  0  0  0  0
    8.2970   -3.6850   20.6750 C   0  0  0  0  0  0  0  0  0  0  0  0
    7.0180   -3.8810   19.9150 O   0  0  0  0  0  0  0  0  0  0  0  0
    9.1010   -3.1060   21.9850 N   0  0  0  0  0  0  0  0  0  0  0  0
    9.7020   -3.9720   23.0980 C   0  0  0  0  0  0  0  0  0  0  0  0
   10.1040   -1.8680   22.0690 C   0  0  0  0  0  0  0  0  0  0  0  0
   11.0360   -3.4520   23.8490 C   0  0  0  0  0  0  0  0  0  0  0  0
   11.5870   -1.8560   22.5590 C   0  0  0  0  0  0  0  0  0  0  0  0
   12.2780   -2.9950   23.1780 C   0  0  0  0  0  0  0  0  0  0  0  0
   13.8850   -3.1210   23.8250 C   0  0  0  0  0  0  0  0  0  0  0  0
   13.9120   -2.2250   24.8980 O   0  0  0  0  0  0  0  0  0  0  0  0
   15.5480   -4.1190   23.7090 N   0  0  0  0  0  0  0  0  0  0  0  0
   15.9530   -4.2580   25.1400 C   0  0  0  0  0  0  0  0  0  0  0  0
   16.1510   -5.7150   23.1300 C   0  0  2  0  0  0  0  0  0  0  0  0
   17.5310   -5.4240   23.0990 C   0  0  0  0  0  0  0  0  0  0  0  0
   15.6920   -6.1630   21.6010 C   0  0  0  0  0  0  0  0  0  0  0  0
   16.9050   -5.5190   21.6420 C   0  0  0  0  0  0  0  0  0  0  0  0
   14.3140   -6.9370   20.4200 C   0  0  0  0  0  0  0  0  0  0  0  0
   17.2890   -5.2790   20.6600 C   0  0  0  0  0  0  0  0  0  0  0  0
   15.2970   -6.3480   19.4390 C   0  0  0  0  0  0  0  0  0  0  0  0
   11.8180   -8.2010   20.3680 C   0  0  0  0  0  0  0  0  0  0  0  0
   16.4100   -5.7030   19.5910 C   0  0  0  0  0  0  0  0  0  0  0  0
   15.2760   -6.3160   18.1540 F   0  0  0  0  0  0  0  0  0  0  0  0
   11.1450   -9.3070   20.6200 C   0  0  0  0  0  0  0  0  0  0  0  0
   10.4880   -7.7850   19.5350 N   0  0  0  0  0  0  0  0  0  0  0  0
   10.1710   -9.7360   19.8350 C   0  0  0  0  0  0  0  0  0  0  0  0
    9.7720   -8.7520   19.1060 C   0  0  0  0  0  0  0  0  0  0  0  0
   10.0620   -6.3600   18.9790 S   0  0  0  0  0  0  0  0  0  0  0  0
    9.6850  -11.0060   19.7200 C   0  0  0  0  0  0  0  0  0  0  0  0
    9.6030   -5.4360   20.2390 O   0  0  0  0  0  0  0  0  0  0  0  0
   11.0000   -5.4310   18.0740 O   0  0  0  0  0  0  0  0  0  0  0  0
    9.8650   -8.2720   18.8320 C   0  0  0  0  0  0  0  0  0  0  0  0
    9.3410  -10.8300   18.3890 N   0  0  0  0  0  0  0  0  0  0  0  0
   10.4620   -9.2740   19.6820 C   0  0  0  0  0  0  0  0  0  0  0  0
    9.1680   -8.5520   17.9460 C   0  0  0  0  0  0  0  0  0  0  0  0
    8.9330  -11.9440   18.6630 C   0  0  0  0  0  0  0  0  0  0  0  0
   10.2480  -10.5400   19.4630 C   0  0  0  0  0  0  0  0  0  0  0  0
    8.8800   -9.7220   17.6620 N   0  0  0  0  0  0  0  0  0  0  0  0
    9.3800  -10.7420   18.3730 C   0  0  0  0  0  0  0  0  0  0  0  0
  1  2  1  0
  2  3  2  0
  2  4  1  0
  4  5  1  0
  4  6  1  0
  5  7  1  0
  6  8  1  0
  7  9  1  0
  8  9  1  0
  9 10  1  0
 10 11  2  0
 10 12  1  0
 12 13  1  0
 12 14  1  0
 14 15  1  6
 14 16  1  0
 16 17  2  0
 16 18  1  0
 17 19  1  0
 18 20  2  0
 18 21  1  0
 19 22  2  0
 20 22  1  0
 20 23  1  0
 21 24  2  0
 21 25  1  0
 24 26  1  0
 25 27  1  0
 26 27  2  0
 25 28  1  0
 26 29  1  0
 28 30  2  0
 28 31  2  0
 28 32  1  0
 29 33  1  0
 32 34  2  0
 32 35  1  0
 33 36  1  0
 34 37  1  0
 35 38  2  0
 37 39  2  0
 38 39  1  0
M  END
