MAK-UNK-702fb7d3-8-vinylsulfonamide
     RDKit          3D

 44 49  0  0  0  0  0  0  0  0999 V2000
    8.6780   -3.8250   20.2200 C   0  0  0  0  0  0  0  0  0  0  0  0
    7.7920   -4.4180   21.3330 C   0  0  0  0  0  0  0  0  0  0  0  0
    6.4230   -3.2950   21.5510 S   0  0  0  0  0  0  0  0  0  0  0  0
    5.1530   -4.0460   21.5390 O   0  0  0  0  0  0  0  0  0  0  0  0
    6.6270   -2.1970   20.6330 O   0  0  0  0  0  0  0  0  0  0  0  0
    6.7710   -2.6980   23.1020 N   0  0  0  0  0  0  0  0  0  0  0  0
    8.1860   -2.5630   23.4640 C   0  0  0  0  0  0  0  0  0  0  0  0
    5.9480   -3.1130   24.2360 C   0  0  0  0  0  0  0  0  0  0  0  0
    8.6180   -3.6890   24.4200 C   0  0  0  0  0  0  0  0  0  0  0  0
    6.3180   -4.5370   24.7150 C   0  0  1  0  0  0  0  0  0  0  0  0
   10.0930   -3.8460   24.7870 C   0  0  0  0  0  0  0  0  0  0  0  0
    7.6810   -4.6050   24.9850 C   0  0  0  0  0  0  0  0  0  0  0  0
    5.5290   -4.7980   25.9860 C   0  0  0  0  0  0  0  0  0  0  0  0
   11.1690   -2.9230   24.2640 N   0  0  0  0  0  0  0  0  0  0  0  0
   10.4050   -4.9060   25.6560 C   0  0  0  0  0  0  0  0  0  0  0  0
    8.1020   -5.6030   25.8350 C   0  0  0  0  0  0  0  0  0  0  0  0
    4.7110   -6.0690   26.0580 C   0  0  0  0  0  0  0  0  0  0  0  0
    5.5330   -3.9310   27.0860 C   0  0  0  0  0  0  0  0  0  0  0  0
   11.9720   -2.5150   25.3640 C   0  0  0  0  0  0  0  0  0  0  0  0
    9.4360   -5.7650   26.1670 C   0  0  0  0  0  0  0  0  0  0  0  0
    3.9920   -6.3310   27.2170 C   0  0  0  0  0  0  0  0  0  0  0  0
    4.7880   -4.2480   28.2210 C   0  0  0  0  0  0  0  0  0  0  0  0
   13.2050   -3.1900   25.5280 C   0  0  0  0  0  0  0  0  0  0  0  0
    4.0300   -5.4280   28.2900 C   0  0  0  0  0  0  0  0  0  0  0  0
   13.4690   -4.4890   26.1630 C   0  0  0  0  0  0  0  0  0  0  0  0
   14.4600   -2.8890   25.0930 C   0  0  0  0  0  0  0  0  0  0  0  0
   14.8660   -4.9080   25.9530 C   0  0  0  0  0  0  0  0  0  0  0  0
   15.5380   -3.9320   25.3110 N   0  0  0  0  0  0  0  0  0  0  0  0
   15.6020   -6.0230   26.0610 C   0  0  0  0  0  0  0  0  0  0  0  0
   17.3490   -4.3160   24.8980 S   0  0  0  0  0  0  0  0  0  0  0  0
   16.5350   -5.7000   25.1330 C   0  0  0  0  0  0  0  0  0  0  0  0
   15.7230   -7.2560   26.6240 C   0  0  0  0  0  0  0  0  0  0  0  0
   17.6660   -5.4450   25.7590 O   0  0  0  0  0  0  0  0  0  0  0  0
   17.2230   -4.7360   23.5410 O   0  0  0  0  0  0  0  0  0  0  0  0
   18.8460   -3.2580   25.0560 C   0  0  0  0  0  0  0  0  0  0  0  0
   17.4980   -6.5260   24.7650 C   0  0  0  0  0  0  0  0  0  0  0  0
   16.6620   -8.0660   26.2750 C   0  0  0  0  0  0  0  0  0  0  0  0
   15.0670   -7.9010   27.4400 F   0  0  0  0  0  0  0  0  0  0  0  0
   19.3390   -2.0190   24.3380 C   0  0  0  0  0  0  0  0  0  0  0  0
   19.8490   -3.5680   25.9950 C   0  0  0  0  0  0  0  0  0  0  0  0
   17.5470   -7.8690   25.3930 C   0  0  0  0  0  0  0  0  0  0  0  0
   20.5380   -1.3720   24.6260 C   0  0  0  0  0  0  0  0  0  0  0  0
   21.0300   -2.9370   26.2770 N   0  0  0  0  0  0  0  0  0  0  0  0
   21.3450   -1.8600   25.5980 C   0  0  0  0  0  0  0  0  0  0  0  0
  1  2  1  0
  3  2  1  0
  3  4  2  0
  3  5  2  0
  3  6  1  0
  6  7  1  0
  6  8  1  0
  7  9  1  0
  8 10  1  0
  9 11  1  0
  9 12  2  0
 10 12  1  0
 10 13  1  1
 11 14  1  0
 11 15  2  0
 12 16  1  0
 13 17  2  0
 13 18  1  0
 14 19  1  0
 15 20  1  0
 16 20  2  0
 17 21  1  0
 18 22  2  0
 19 23  1  0
 21 24  2  0
 22 24  1  0
 23 25  1  0
 23 26  2  0
 25 27  2  0
 26 28  1  0
 27 28  1  0
 27 29  1  0
 28 30  1  0
 29 31  2  0
 29 32  1  0
 30 33  2  0
 30 34  2  0
 30 35  1  0
 31 36  1  0
 32 37  2  0
 32 38  1  0
 35 39  2  0
 35 40  1  0
 36 41  2  0
 37 41  1  0
 39 42  1  0
 40 43  2  0
 42 44  2  0
 43 44  1  0
M  END
