MAK-UNK-a7992eb3-5-vinylsulfonamide
     RDKit          3D

 35 38  0  0  0  0  0  0  0  0999 V2000
    5.9940   -5.7910   21.2200 C   0  0  0  0  0  0  0  0  0  0  0  0
    5.5730   -4.3740   21.4550 C   0  0  0  0  0  0  0  0  0  0  0  0
    4.4530   -4.3490   22.8170 S   0  0  0  0  0  0  0  0  0  0  0  0
    3.5180   -5.3990   22.5220 O   0  0  0  0  0  0  0  0  0  0  0  0
    3.9630   -3.0090   23.0100 O   0  0  0  0  0  0  0  0  0  0  0  0
    5.4880   -4.6920   24.1140 N   0  0  0  0  0  0  0  0  0  0  0  0
    5.5170   -3.6020   25.1130 C   0  0  0  0  0  0  0  0  0  0  0  0
    6.8500   -5.0080   23.6320 C   0  0  0  0  0  0  0  0  0  0  0  0
    6.0480   -2.4010   24.3690 C   0  0  0  0  0  0  0  0  0  0  0  0
    7.4460   -3.8390   23.1070 C   0  0  0  0  0  0  0  0  0  0  0  0
    6.3250   -2.7860   23.0570 C   0  0  0  0  0  0  0  0  0  0  0  0
    6.2140   -2.0020   21.8960 C   0  0  0  0  0  0  0  0  0  0  0  0
    5.2380   -2.1870   21.1650 O   0  0  0  0  0  0  0  0  0  0  0  0
    7.2190   -0.9560   21.5270 N   0  0  0  0  0  0  0  0  0  0  0  0
    6.4840    0.0020   20.6280 C   0  0  0  0  0  0  0  0  0  0  0  0
    5.7320   -0.6070   19.4770 C   0  0  0  0  0  0  0  0  0  0  0  0
    6.4020    1.4040   20.7370 C   0  0  0  0  0  0  0  0  0  0  0  0
    4.9810    0.1470   18.5530 C   0  0  0  0  0  0  0  0  0  0  0  0
    5.6350    2.1340   19.8030 C   0  0  0  0  0  0  0  0  0  0  0  0
    7.0080    2.1660   21.6900 O   0  0  0  0  0  0  0  0  0  0  0  0
    4.9100    1.6240   18.7080 C   0  0  0  0  0  0  0  0  0  0  0  0
    7.1440    1.5440   22.9780 C   0  0  2  0  0  0  0  0  0  0  0  0
    6.6510    2.2750   24.0400 C   0  0  0  0  0  0  0  0  0  0  0  0
    8.6660    1.2150   23.1610 C   0  0  2  0  0  0  0  0  0  0  0  0
    7.2770    2.0530   25.2380 C   0  0  0  0  0  0  0  0  0  0  0  0
    8.9930    0.9850   24.4960 N   0  0  0  0  0  0  0  0  0  0  0  0
    9.5620    2.3020   22.5640 C   0  0  0  0  0  0  0  0  0  0  0  0
    7.9470    0.8510   25.3380 C   0  0  0  0  0  0  0  0  0  0  0  0
    9.8200   -0.0800   24.7200 C   0  0  0  0  0  0  0  0  0  0  0  0
   10.8940   -0.4110   23.8740 C   0  0  0  0  0  0  0  0  0  0  0  0
   10.9180   -1.6110   23.1490 C   0  0  0  0  0  0  0  0  0  0  0  0
   12.0060    0.4400   23.6990 C   0  0  0  0  0  0  0  0  0  0  0  0
   11.9600   -1.9590   22.3040 C   0  0  0  0  0  0  0  0  0  0  0  0
   13.0550    0.0840   22.8480 C   0  0  0  0  0  0  0  0  0  0  0  0
   13.0360   -1.1120   22.1490 C   0  0  0  0  0  0  0  0  0  0  0  0
  1  2  1  0
  3  2  1  0
  3  4  2  0
  3  5  2  0
  3  6  1  0
  6  7  1  0
  6  8  1  0
  7  9  1  0
  8 10  1  0
  9 11  1  0
 10 11  1  0
 11 12  1  0
 12 13  2  0
 12 14  1  0
 14 15  1  0
 15 16  2  0
 15 17  1  0
 16 18  1  0
 17 19  2  0
 17 20  1  0
 18 21  2  0
 19 21  1  0
 22 20  1  6
 22 23  1  0
 22 24  1  0
 23 25  1  0
 24 26  1  0
 24 27  1  1
 25 28  1  0
 26 28  1  0
 26 29  1  0
 29 30  1  0
 30 31  2  0
 30 32  1  0
 31 33  1  0
 32 34  2  0
 33 35  2  0
 34 35  1  0
M  END
