MAK-UNK-10799360-33-vinylsulfonamide
     RDKit          3D

 28 31  0  0  0  0  0  0  0  0999 V2000
    7.6630   -2.9780   18.2330 C   0  0  0  0  0  0  0  0  0  0  0  0
    7.2070   -2.2820   19.4760 C   0  0  0  0  0  0  0  0  0  0  0  0
    6.1050   -3.3110   20.3880 S   0  0  0  0  0  0  0  0  0  0  0  0
    4.7810   -3.1890   19.8850 O   0  0  0  0  0  0  0  0  0  0  0  0
    6.6270   -4.6190   20.6270 O   0  0  0  0  0  0  0  0  0  0  0  0
    6.2980   -2.4820   21.8170 N   0  0  0  0  0  0  0  0  0  0  0  0
    7.6130   -1.8470   21.8170 C   0  0  2  0  0  0  0  0  0  0  0  0
    6.3370   -3.3920   22.9850 C   0  0  2  0  0  0  0  0  0  0  0  0
    8.3880   -3.1540   21.9490 C   0  0  0  0  0  0  0  0  0  0  0  0
    7.8390   -3.5220   23.3040 C   0  0  1  0  0  0  0  0  0  0  0  0
    5.9950   -4.8670   22.5930 C   0  0  0  0  0  0  0  0  0  0  0  0
    8.0390   -1.1860   23.1530 C   0  0  0  0  0  0  0  0  0  0  0  0
    5.3190   -5.4760   23.8320 C   0  0  0  0  0  0  0  0  0  0  0  0
    8.2070   -2.3460   24.0940 N   0  0  0  0  0  0  0  0  0  0  0  0
    5.6290   -5.0730   25.2760 C   0  0  0  0  0  0  0  0  0  0  0  0
    4.3440   -6.4760   23.6700 C   0  0  0  0  0  0  0  0  0  0  0  0
    9.5330   -2.5100   24.7000 C   0  0  0  0  0  0  0  0  0  0  0  0
    4.9250   -5.7160   26.3150 C   0  0  0  0  0  0  0  0  0  0  0  0
    3.6810   -7.0790   24.7340 C   0  0  0  0  0  0  0  0  0  0  0  0
   10.5460   -1.5660   24.1390 C   0  0  0  0  0  0  0  0  0  0  0  0
    3.9650   -6.7020   26.0450 C   0  0  0  0  0  0  0  0  0  0  0  0
   10.7050   -0.1800   24.6520 C   0  0  0  0  0  0  0  0  0  0  0  0
   11.4000   -1.9590   23.0970 C   0  0  0  0  0  0  0  0  0  0  0  0
    3.3190   -7.2760   27.1000 O   0  0  0  0  0  0  0  0  0  0  0  0
   11.7680    0.7020   24.0240 C   0  0  0  0  0  0  0  0  0  0  0  0
   12.3580   -1.1090   22.5580 C   0  0  0  0  0  0  0  0  0  0  0  0
   12.5580    0.1990   23.0000 C   0  0  0  0  0  0  0  0  0  0  0  0
   13.3080   -1.7290   21.2990 Cl  0  0  0  0  0  0  0  0  0  0  0  0
  1  2  1  0
  3  2  1  0
  3  4  2  0
  3  5  2  0
  3  6  1  0
  6  7  1  0
  6  8  1  0
  7  9  1  0
  8 10  1  0
  9 10  1  0
  8 11  1  6
  7 12  1  1
 11 13  1  0
 10 14  1  1
 12 14  1  0
 13 15  2  0
 13 16  1  0
 14 17  1  0
 15 18  1  0
 16 19  2  0
 17 20  1  0
 18 21  2  0
 19 21  1  0
 20 22  2  0
 20 23  1  0
 21 24  1  0
 22 25  1  0
 23 26  2  0
 25 27  2  0
 26 27  1  0
 26 28  1  0
M  END
