MAK-UNK-30aad1f1-17-chloroacetamide
     RDKit          3D

 26 28  0  0  0  0  0  0  0  0999 V2000
    7.3520   -4.3940   20.3660 C   0  0  0  0  0  0  0  0  0  0  0  0
    6.2040   -3.9270   20.0870 C   0  0  0  0  0  0  0  0  0  0  0  0
    5.2000   -4.6220   19.9550 O   0  0  0  0  0  0  0  0  0  0  0  0
    6.2450   -2.5340   19.7440 C   0  0  0  0  0  0  0  0  0  0  0  0
    5.3060   -2.0740   18.6990 C   0  0  0  0  0  0  0  0  0  0  0  0
    7.1330   -1.6590   20.3150 C   0  0  0  0  0  0  0  0  0  0  0  0
    5.4010   -0.6170   18.3010 C   0  0  0  0  0  0  0  0  0  0  0  0
    7.2290   -0.3800   19.9850 N   0  0  0  0  0  0  0  0  0  0  0  0
    6.4350    0.1200   19.0410 C   0  0  0  0  0  0  0  0  0  0  0  0
    6.6770    1.3790   18.8910 N   0  0  0  0  0  0  0  0  0  0  0  0
    6.1080    1.7610   20.1490 C   0  0  0  0  0  0  0  0  0  0  0  0
    4.8400    1.2600   20.3190 C   0  0  0  0  0  0  0  0  0  0  0  0
    6.7530    2.5080   21.0570 N   0  0  0  0  0  0  0  0  0  0  0  0
    4.1420    1.5370   21.5080 C   0  0  0  0  0  0  0  0  0  0  0  0
    6.0730    2.7870   22.2040 C   0  0  0  0  0  0  0  0  0  0  0  0
    4.7720    2.3460   22.5050 C   0  0  0  0  0  0  0  0  0  0  0  0
    4.1600    2.6720   23.6500 N   0  0  0  0  0  0  0  0  0  0  0  0
    2.8630    2.3220   23.8760 C   0  0  0  0  0  0  0  0  0  0  0  0
    2.4990    1.3260   24.7140 O   0  0  0  0  0  0  0  0  0  0  0  0
    1.9920    3.0990   23.1780 N   0  0  0  0  0  0  0  0  0  0  0  0
    0.6910    3.4560   23.5530 C   0  0  0  0  0  0  0  0  0  0  0  0
    0.5700    4.6120   24.5470 C   0  0  0  0  0  0  0  0  0  0  0  0
   -0.4870    2.8590   23.0980 C   0  0  0  0  0  0  0  0  0  0  0  0
   -0.7890    5.0940   25.0260 C   0  0  0  0  0  0  0  0  0  0  0  0
   -1.7580    3.3160   23.5520 C   0  0  0  0  0  0  0  0  0  0  0  0
   -1.8640    4.4740   24.5480 C   0  0  0  0  0  0  0  0  0  0  0  0
  1  2  1  0
  2  3  2  0
  2  4  1  0
  4  5  2  0
  4  6  1  0
  5  7  1  0
  6  8  2  0
  7  9  2  0
  8  9  1  0
  9 10  1  0
 10 11  1  0
 11 12  2  0
 11 13  1  0
 12 14  1  0
 13 15  2  0
 14 16  2  0
 15 16  1  0
 16 17  1  0
 17 18  1  0
 18 19  2  0
 18 20  1  0
 20 21  1  0
 21 22  2  0
 21 23  1  0
 22 24  1  0
 23 25  2  0
 24 26  2  0
 25 26  1  0
M  END
