MAK-UNK-10dfa458-39-chloroacetamide
     RDKit          3D

 20 21  0  0  0  0  0  0  0  0999 V2000
    7.0530   -3.4660   20.0020 C   0  0  0  0  0  0  0  0  0  0  0  0
    6.2620   -4.6260   20.5770 C   0  0  0  0  0  0  0  0  0  0  0  0
    5.3200   -5.0950   19.9830 O   0  0  0  0  0  0  0  0  0  0  0  0
    6.5920   -5.1970   21.8190 N   0  0  0  0  0  0  0  0  0  0  0  0
    7.2340   -4.4770   22.9190 C   0  0  0  0  0  0  0  0  0  0  0  0
    5.6450   -6.2010   22.2820 C   0  0  0  0  0  0  0  0  0  0  0  0
    6.2530   -3.9400   23.9790 C   0  0  0  0  0  0  0  0  0  0  0  0
    4.6120   -5.6300   23.2590 C   0  0  0  0  0  0  0  0  0  0  0  0
    5.2490   -4.9350   24.3810 N   0  0  0  0  0  0  0  0  0  0  0  0
    4.5880   -4.9900   25.5980 C   0  0  1  0  0  0  0  0  0  0  0  0
    5.4830   -4.7530   26.7500 C   0  0  0  0  0  0  0  0  0  0  0  0
    3.3470   -4.0530   25.6340 C   0  0  0  0  0  0  0  0  0  0  0  0
    5.9290   -3.4520   26.9730 N   0  0  0  0  0  0  0  0  0  0  0  0
    3.5540   -2.6660   25.5960 C   0  0  0  0  0  0  0  0  0  0  0  0
    2.4280   -1.9360   25.9760 C   0  0  0  0  0  0  0  0  0  0  0  0
    1.1460   -2.4630   25.7890 C   0  0  0  0  0  0  0  0  0  0  0  0
    2.5620   -0.6680   26.5610 C   0  0  0  0  0  0  0  0  0  0  0  0
    0.0090   -1.7520   26.1780 C   0  0  0  0  0  0  0  0  0  0  0  0
    1.4250    0.0440   26.9480 C   0  0  0  0  0  0  0  0  0  0  0  0
    0.1520   -0.4930   26.7600 C   0  0  0  0  0  0  0  0  0  0  0  0
  1  2  1  0
  2  3  2  0
  2  4  1  0
  4  5  1  0
  4  6  1  0
  5  7  1  0
  6  8  1  0
  7  9  1  0
  8  9  1  0
  9 10  1  0
 10 11  1  1
 10 12  1  0
 11 13  3  0
 12 14  1  0
 14 15  1  0
 15 16  2  0
 15 17  1  0
 16 18  1  0
 17 19  2  0
 18 20  2  0
 19 20  1  0
M  END
