MAK-MCD-2210d2de-1-nitrile
     RDKit          3D

 40 44  0  0  0  0  0  0  0  0999 V2000
    6.4820   -4.5050   20.3700 C   0  0  0  0  0  0  0  0  0  0  0  0
    5.3520   -4.2920   19.8960 N   0  0  0  0  0  0  0  0  0  0  0  0
    6.6380   -5.1510   21.6050 N   0  0  0  0  0  0  0  0  0  0  0  0
    5.7750   -6.3140   21.8880 C   0  0  0  0  0  0  0  0  0  0  0  0
    6.9350   -4.4860   22.8500 C   0  0  0  0  0  0  0  0  0  0  0  0
    4.7890   -6.1110   23.0570 C   0  0  0  0  0  0  0  0  0  0  0  0
    6.3670   -4.8360   24.0970 C   0  0  0  0  0  0  0  0  0  0  0  0
    7.9090   -3.2790   23.0100 C   0  0  0  0  0  0  0  0  0  0  0  0
    5.4790   -5.8130   24.3210 N   0  0  0  0  0  0  0  0  0  0  0  0
    6.8470   -4.0230   25.0840 C   0  0  0  0  0  0  0  0  0  0  0  0
    8.1180   -2.6960   24.2820 C   0  0  0  0  0  0  0  0  0  0  0  0
    4.5620   -5.7100   25.7690 S   0  0  0  0  0  0  0  0  0  0  0  0
    7.5040   -3.1680   25.3800 N   0  0  0  0  0  0  0  0  0  0  0  0
    8.9220   -1.6210   24.4700 N   0  0  0  0  0  0  0  0  0  0  0  0
    5.4700   -5.3690   26.8350 O   0  0  0  0  0  0  0  0  0  0  0  0
    3.7440   -6.8940   25.8330 O   0  0  0  0  0  0  0  0  0  0  0  0
    3.3990   -4.4140   25.7380 C   0  0  0  0  0  0  0  0  0  0  0  0
    8.4230   -0.4960   23.7160 C   0  0  0  0  0  0  0  0  0  0  0  0
    1.8940   -4.7530   25.5960 C   0  0  0  0  0  0  0  0  0  0  0  0
    3.8730   -3.0750   25.8550 C   0  0  0  0  0  0  0  0  0  0  0  0
    9.1270   -0.4930   22.5630 N   0  0  0  0  0  0  0  0  0  0  0  0
    0.9380   -3.6490   25.5900 C   0  0  0  0  0  0  0  0  0  0  0  0
    2.9680   -1.9880   25.8520 C   0  0  0  0  0  0  0  0  0  0  0  0
   10.4750   -0.2310   22.6210 C   0  0  0  0  0  0  0  0  0  0  0  0
    8.5110   -0.1100   21.4340 C   0  0  2  0  0  0  0  0  0  0  0  0
    1.4620   -2.2230   25.7220 C   0  0  0  0  0  0  0  0  0  0  0  0
    3.4180   -0.7300   25.9660 F   0  0  0  0  0  0  0  0  0  0  0  0
   10.8760    1.0500   23.0500 C   0  0  0  0  0  0  0  0  0  0  0  0
   11.4790   -1.1600   22.2890 C   0  0  0  0  0  0  0  0  0  0  0  0
    8.8490    1.2600   21.2190 O   0  0  0  0  0  0  0  0  0  0  0  0
    7.0770   -0.2770   21.3120 N   0  0  0  0  0  0  0  0  0  0  0  0
   12.1870    1.4050   23.1480 C   0  0  0  0  0  0  0  0  0  0  0  0
   12.8190   -0.8230   22.3800 C   0  0  0  0  0  0  0  0  0  0  0  0
    6.4610    0.5500   20.2690 C   0  0  2  0  0  0  0  0  0  0  0  0
   13.2470    0.4270   22.7960 C   0  0  0  0  0  0  0  0  0  0  0  0
    5.1300    0.5340   20.3220 C   0  0  0  0  0  0  0  0  0  0  0  0
    7.0100    0.1870   19.0470 C   0  0  0  0  0  0  0  0  0  0  0  0
    4.7310    1.4880   19.1740 C   0  0  0  0  0  0  0  0  0  0  0  0
    6.0220   -0.0960   18.0290 N   0  0  0  0  0  0  0  0  0  0  0  0
    5.0280    0.9560   17.9400 C   0  0  0  0  0  0  0  0  0  0  0  0
  1  2  2  3
  1  3  1  0
  3  4  1  0
  3  5  1  0
  4  6  1  0
  5  7  2  0
  5  8  1  0
  6  9  1  0
  7  9  1  0
  7 10  1  0
  8 11  2  0
  9 12  1  0
 10 13  2  0
 11 13  1  0
 11 14  1  0
 12 15  2  0
 12 16  2  0
 12 17  1  0
 14 18  1  0
 17 19  2  0
 17 20  1  0
 18 21  1  0
 19 22  1  0
 20 23  2  0
 21 24  1  0
 21 25  1  0
 22 26  2  0
 23 26  1  0
 23 27  1  0
 24 28  2  0
 24 29  1  0
 25 30  1  1
 25 31  1  0
 28 32  1  0
 29 33  2  0
 34 31  1  1
 32 35  2  0
 33 35  1  0
 34 36  1  0
 34 37  1  0
 36 38  1  0
 37 39  1  0
 38 40  1  0
 39 40  1  0
M  END
