MAK-UNK-10799360-33-nitrile
     RDKit          3D

 25 28  0  0  0  0  0  0  0  0999 V2000
    6.8520   -3.4180   19.7330 C   0  0  0  0  0  0  0  0  0  0  0  0
    5.8810   -3.1890   18.9490 N   0  0  0  0  0  0  0  0  0  0  0  0
    6.9540   -2.7780   20.9710 N   0  0  0  0  0  0  0  0  0  0  0  0
    8.1230   -2.0030   21.4070 C   0  0  2  0  0  0  0  0  0  0  0  0
    6.5340   -3.4100   22.2570 C   0  0  2  0  0  0  0  0  0  0  0  0
    8.7250   -3.1400   22.2420 C   0  0  0  0  0  0  0  0  0  0  0  0
    7.6330   -3.1320   23.2920 C   0  0  1  0  0  0  0  0  0  0  0  0
    6.8550   -4.9190   22.1770 C   0  0  0  0  0  0  0  0  0  0  0  0
    7.8330   -0.9880   22.5220 C   0  0  0  0  0  0  0  0  0  0  0  0
    5.7930   -5.4650   23.1170 C   0  0  0  0  0  0  0  0  0  0  0  0
    7.8730   -1.7610   23.7000 N   0  0  0  0  0  0  0  0  0  0  0  0
    4.7130   -5.9440   22.2160 C   0  0  0  0  0  0  0  0  0  0  0  0
    5.7260   -5.5540   24.5070 C   0  0  0  0  0  0  0  0  0  0  0  0
    9.0870   -1.7610   24.4980 C   0  0  0  0  0  0  0  0  0  0  0  0
    3.5110   -6.5510   22.9320 C   0  0  0  0  0  0  0  0  0  0  0  0
    4.5900   -6.1250   25.1120 C   0  0  0  0  0  0  0  0  0  0  0  0
   10.2960   -1.0500   23.9650 C   0  0  0  0  0  0  0  0  0  0  0  0
    3.5160   -6.6090   24.3400 C   0  0  0  0  0  0  0  0  0  0  0  0
   10.5620    0.3210   24.4450 C   0  0  0  0  0  0  0  0  0  0  0  0
   11.1770   -1.6410   23.0360 C   0  0  0  0  0  0  0  0  0  0  0  0
    2.4210   -7.1580   24.9380 O   0  0  0  0  0  0  0  0  0  0  0  0
   11.7480    1.0170   23.9270 C   0  0  0  0  0  0  0  0  0  0  0  0
   12.3050   -0.9670   22.5480 C   0  0  0  0  0  0  0  0  0  0  0  0
   12.6440    0.3230   22.9440 C   0  0  0  0  0  0  0  0  0  0  0  0
   13.2790   -1.7730   21.4210 Cl  0  0  0  0  0  0  0  0  0  0  0  0
  1  2  2  3
  1  3  1  0
  3  4  1  0
  3  5  1  0
  4  6  1  0
  5  7  1  0
  6  7  1  0
  5  8  1  6
  4  9  1  1
  8 10  1  0
  7 11  1  6
  9 11  1  0
 10 12  2  0
 10 13  1  0
 11 14  1  0
 12 15  1  0
 13 16  2  0
 14 17  1  0
 15 18  2  0
 16 18  1  0
 17 19  2  0
 17 20  1  0
 18 21  1  0
 19 22  1  0
 20 23  2  0
 22 24  2  0
 23 24  1  0
 23 25  1  0
M  END
