MAK-UNK-bae89c02-2-vinylsulfonamide
     RDKit          3D

 29 32  0  0  0  0  0  0  0  0999 V2000
    7.5050   -3.3080   19.5790 C   0  0  0  0  0  0  0  0  0  0  0  0
    6.7850   -2.2550   18.7780 C   0  0  0  0  0  0  0  0  0  0  0  0
    5.3160   -2.0110   19.6970 S   0  0  0  0  0  0  0  0  0  0  0  0
    4.5590   -3.2220   19.5100 O   0  0  0  0  0  0  0  0  0  0  0  0
    4.7680   -0.6800   19.5290 O   0  0  0  0  0  0  0  0  0  0  0  0
    5.9620   -2.1490   21.2490 N   0  0  0  0  0  0  0  0  0  0  0  0
    5.6730   -1.2210   22.3210 C   0  0  0  0  0  0  0  0  0  0  0  0
    5.9420   -3.5020   21.8650 C   0  0  2  0  0  0  0  0  0  0  0  0
    5.7570   -2.0830   23.5490 C   0  0  1  0  0  0  0  0  0  0  0  0
    4.9860   -3.3180   23.0550 C   0  0  0  0  0  0  0  0  0  0  0  0
    7.2380   -3.6220   22.6060 C   0  0  0  0  0  0  0  0  0  0  0  0
    7.2570   -2.6230   23.7190 C   0  0  1  0  0  0  0  0  0  0  0  0
    8.4640   -1.7840   23.6110 N   0  0  0  0  0  0  0  0  0  0  0  0
    9.7290   -2.5290   23.5800 C   0  0  0  0  0  0  0  0  0  0  0  0
    8.4630   -0.4360   22.8550 C   0  0  2  0  0  0  0  0  0  0  0  0
   10.8200   -1.6850   23.4150 C   0  0  0  0  0  0  0  0  0  0  0  0
    7.7330    0.6290   23.7060 C   0  0  0  0  0  0  0  0  0  0  0  0
    8.0510   -0.4290   21.5150 C   0  0  0  0  0  0  0  0  0  0  0  0
   11.7740   -1.9560   22.4060 C   0  0  0  0  0  0  0  0  0  0  0  0
   10.9740   -0.5410   24.2490 C   0  0  0  0  0  0  0  0  0  0  0  0
    7.9370    2.0790   23.1770 C   0  0  0  0  0  0  0  0  0  0  0  0
    7.3960    0.8930   21.0550 C   0  0  0  0  0  0  0  0  0  0  0  0
   12.8640   -1.1090   22.2170 C   0  0  0  0  0  0  0  0  0  0  0  0
   12.0600    0.3080   24.0490 C   0  0  0  0  0  0  0  0  0  0  0  0
   10.0190   -0.1530   25.3720 C   0  0  0  0  0  0  0  0  0  0  0  0
    7.7730    2.1960   21.7850 C   0  0  2  0  0  0  0  0  0  0  0  0
   13.0000    0.0810   23.0850 C   0  0  0  0  0  0  0  0  0  0  0  0
    9.3120    0.0640   26.2700 N   0  0  0  0  0  0  0  0  0  0  0  0
    9.0660    2.5160   21.2740 O   0  0  0  0  0  0  0  0  0  0  0  0
  1  2  1  0
  3  2  1  0
  3  4  2  0
  3  5  2  0
  3  6  1  0
  6  7  1  0
  6  8  1  0
  9  7  1  6
  8 10  1  0
  9 10  1  0
  8 11  1  1
  9 12  1  0
 11 12  1  0
 12 13  1  6
 13 14  1  0
 15 13  1  1
 14 16  1  0
 15 17  1  0
 15 18  1  0
 16 19  2  0
 16 20  1  0
 17 21  1  0
 18 22  1  0
 19 23  1  0
 20 24  2  0
 20 25  1  0
 21 26  1  0
 22 26  1  0
 23 27  2  0
 24 27  1  0
 25 28  3  0
 26 29  1  6
M  END
