MAK-UNK-e05327b2-5-bromoalkyne
     RDKit          3D

 56 63  0  0  0  0  0  0  0  0999 V2000
    6.4910   -4.3210   20.0660 C   0  0  0  0  0  0  0  0  0  0  0  0
    5.3620   -3.5230   19.5070 C   0  0  0  0  0  0  0  0  0  0  0  0
    6.5010   -4.8240   21.4000 N   0  0  0  0  0  0  0  0  0  0  0  0
    5.9520   -6.1320   21.8190 C   0  0  0  0  0  0  0  0  0  0  0  0
    7.2840   -4.2230   22.5030 C   0  0  0  0  0  0  0  0  0  0  0  0
    4.9970   -5.8390   23.0310 C   0  0  0  0  0  0  0  0  0  0  0  0
    6.4720   -4.0500   23.8050 C   0  0  0  0  0  0  0  0  0  0  0  0
    5.8050   -5.3140   24.1820 N   0  0  0  0  0  0  0  0  0  0  0  0
    5.0750   -5.3980   25.7350 S   0  0  0  0  0  0  0  0  0  0  0  0
    4.0820   -6.4490   25.7290 O   0  0  0  0  0  0  0  0  0  0  0  0
    6.1020   -5.3430   26.7450 O   0  0  0  0  0  0  0  0  0  0  0  0
    4.1630   -3.8790   25.8620 C   0  0  0  0  0  0  0  0  0  0  0  0
    4.7960   -2.4870   25.7610 C   0  0  0  0  0  0  0  0  0  0  0  0
    2.4600   -3.8640   26.1020 S   0  0  0  0  0  0  0  0  0  0  0  0
    3.6850   -1.4450   25.8850 C   0  0  0  0  0  0  0  0  0  0  0  0
    2.3330   -2.1370   26.0680 C   0  0  0  0  0  0  0  0  0  0  0  0
    1.0130   -1.3680   26.2010 C   0  0  0  0  0  0  0  0  0  0  0  0
    0.9760   -0.1770   25.6280 N   0  0  0  0  0  0  0  0  0  0  0  0
    1.5460    0.7870   26.4430 C   0  0  0  0  0  0  0  0  0  0  0  0
   -0.3540    0.2430   25.1410 C   0  0  0  0  0  0  0  0  0  0  0  0
    0.6360    1.3240   27.3660 C   0  0  0  0  0  0  0  0  0  0  0  0
   -0.6220    1.7560   25.2590 C   0  0  0  0  0  0  0  0  0  0  0  0
   -0.2160    2.2550   26.6050 N   0  0  0  0  0  0  0  0  0  0  0  0
    0.1270    3.9340   26.6930 S   0  0  0  0  0  0  0  0  0  0  0  0
    0.2090    4.2370   28.1080 O   0  0  0  0  0  0  0  0  0  0  0  0
   -0.8550    4.5820   25.8560 O   0  0  0  0  0  0  0  0  0  0  0  0
    1.7630    4.1860   26.0080 C   0  0  0  0  0  0  0  0  0  0  0  0
    2.8090    3.4810   26.5990 C   0  0  0  0  0  0  0  0  0  0  0  0
    1.9670    5.0860   24.8940 C   0  0  0  0  0  0  0  0  0  0  0  0
    4.1960    3.6690   26.0530 C   0  0  0  0  0  0  0  0  0  0  0  0
    3.2820    5.2690   24.3720 C   0  0  0  0  0  0  0  0  0  0  0  0
    0.9400    5.8320   24.2500 C   0  0  0  0  0  0  0  0  0  0  0  0
    4.3760    4.5970   24.9100 C   0  0  0  0  0  0  0  0  0  0  0  0
    3.5080    6.2190   23.1980 C   0  0  0  0  0  0  0  0  0  0  0  0
    1.1430    6.7170   23.1580 C   0  0  0  0  0  0  0  0  0  0  0  0
    2.4330    6.9160   22.6230 C   0  0  0  0  0  0  0  0  0  0  0  0
    0.0070    7.3570   22.6630 C   0  0  0  0  0  0  0  0  0  0  0  0
    2.6520    7.7870   21.5420 C   0  0  0  0  0  0  0  0  0  0  0  0
   -0.7730    6.4830   21.9050 C   0  0  0  0  0  0  0  0  0  0  0  0
    3.9400    8.4380   21.6960 N   0  0  0  0  0  0  0  0  0  0  0  0
   -2.1250    6.8300   21.9680 C   0  0  0  0  0  0  0  0  0  0  0  0
    4.0470    9.8610   22.0970 C   0  0  0  0  0  0  0  0  0  0  0  0
    4.8330    8.1190   20.5580 C   0  0  0  0  0  0  0  0  0  0  0  0
   -2.9170    7.3010   20.8130 C   0  0  0  0  0  0  0  0  0  0  0  0
   -2.9730    6.8100   23.0680 C   0  0  0  0  0  0  0  0  0  0  0  0
    3.5900   10.7150   21.0780 C   0  0  0  0  0  0  0  0  0  0  0  0
    5.3010    9.2960   19.9260 C   0  0  0  0  0  0  0  0  0  0  0  0
   -4.2720    7.6140   21.0360 C   0  0  0  0  0  0  0  0  0  0  0  0
   -4.5910    7.3270   22.7000 S   0  0  0  0  0  0  0  0  0  0  0  0
    4.1770   10.2640   19.7900 N   0  0  0  0  0  0  0  0  0  0  0  0
    4.1560   11.1360   18.7110 C   0  0  0  0  0  0  0  0  0  0  0  0
    3.6200   10.9180   17.4470 C   0  0  0  0  0  0  0  0  0  0  0  0
    4.8270   12.7580   18.7080 S   0  0  0  0  0  0  0  0  0  0  0  0
    3.7560   11.9860   16.5800 C   0  0  0  0  0  0  0  0  0  0  0  0
    4.3880   13.0710   17.1020 C   0  0  0  0  0  0  0  0  0  0  0  0
    4.7380   14.5700   16.3450 Cl  0  0  0  0  0  0  0  0  0  0  0  0
  1  2  2  3
  1  3  1  0
  3  4  1  0
  3  5  1  0
  4  6  1  0
  5  7  1  0
  6  8  1  0
  7  8  1  0
  8  9  1  0
  9 10  2  0
  9 11  2  0
  9 12  1  0
 12 13  2  0
 12 14  1  0
 13 15  1  0
 14 16  1  0
 15 16  2  0
 16 17  1  0
 17 18  1  0
 18 19  1  0
 18 20  1  0
 19 21  1  0
 20 22  1  0
 21 23  1  0
 22 23  1  0
 23 24  1  0
 24 25  2  0
 24 26  2  0
 24 27  1  0
 27 28  2  0
 27 29  1  0
 28 30  1  0
 29 31  2  0
 29 32  1  0
 30 33  2  0
 31 33  1  0
 31 34  1  0
 32 35  2  0
 34 36  2  0
 35 36  1  0
 35 37  1  0
 36 38  1  0
 37 39  1  0
 38 40  1  0
 39 41  1  0
 40 42  1  0
 40 43  1  0
 41 44  1  0
 41 45  2  0
 42 46  1  0
 43 47  1  0
 44 48  2  0
 45 49  1  0
 48 49  1  0
 46 50  1  0
 47 50  1  0
 50 51  1  0
 51 52  2  0
 51 53  1  0
 52 54  1  0
 53 55  1  0
 54 55  2  0
 55 56  1  0
M  END
