MAK-UNK-194150d3-11
     RDKit          3D

 29 31  0  0  0  0  0  0  0  0999 V2000
    5.2610   -4.4080   19.4770 O   0  0  0  0  0  0  0  0  0  0  0  0
    5.2070   -3.2350   19.7790 C   0  0  0  0  0  0  0  0  0  0  0  0
    5.1020   -2.2230   18.8810 O   0  0  0  0  0  0  0  0  0  0  0  0
    5.2100   -2.7560   21.1640 C   0  0  0  0  0  0  0  0  0  0  0  0
    5.1250   -3.7290   22.1620 C   0  0  0  0  0  0  0  0  0  0  0  0
    5.2760   -1.4100   21.4880 C   0  0  0  0  0  0  0  0  0  0  0  0
    5.0990   -3.3720   23.5130 C   0  0  0  0  0  0  0  0  0  0  0  0
    5.2600   -1.0340   22.8400 C   0  0  0  0  0  0  0  0  0  0  0  0
    5.3540   -0.3950   20.4550 N   0  0  0  0  0  0  0  0  0  0  0  0
    4.9870   -4.4590   24.5530 C   0  0  0  0  0  0  0  0  0  0  0  0
    5.1700   -2.0100   23.8450 C   0  0  0  0  0  0  0  0  0  0  0  0
    6.9320   -0.0600   19.9580 S   0  0  0  0  0  0  0  0  0  0  0  0
    3.9000   -5.5170   24.2350 C   0  0  0  0  0  0  0  0  0  0  0  0
    7.4880   -1.2490   19.4160 O   0  0  0  0  0  0  0  0  0  0  0  0
    6.9660    1.1750   19.2310 O   0  0  0  0  0  0  0  0  0  0  0  0
    7.5150    0.1860   21.4780 N   0  0  0  0  0  0  0  0  0  0  0  0
    4.1400   -6.9230   24.8190 C   0  0  0  0  0  0  0  0  0  0  0  0
    2.4690   -5.0710   24.5440 C   0  0  0  0  0  0  0  0  0  0  0  0
    8.9420    0.2880   21.7340 C   0  0  0  0  0  0  0  0  0  0  0  0
    2.8350   -7.6870   25.0690 C   0  0  0  0  0  0  0  0  0  0  0  0
    1.4720   -5.9780   23.8180 C   0  0  0  0  0  0  0  0  0  0  0  0
    9.2770   -0.0920   23.1660 C   0  0  0  0  0  0  0  0  0  0  0  0
    1.8290   -7.4620   23.9490 C   0  0  0  0  0  0  0  0  0  0  0  0
   10.6690   -0.6280   23.3680 C   0  0  0  0  0  0  0  0  0  0  0  0
   11.3000   -0.4440   24.5900 C   0  0  0  0  0  0  0  0  0  0  0  0
   11.3380   -1.3140   22.3420 C   0  0  0  0  0  0  0  0  0  0  0  0
   12.5820   -0.9340   24.8000 C   0  0  0  0  0  0  0  0  0  0  0  0
   12.6210   -1.8080   22.5530 C   0  0  0  0  0  0  0  0  0  0  0  0
   13.2300   -1.6150   23.7830 C   0  0  0  0  0  0  0  0  0  0  0  0
  1  2  2  0
  2  3  1  0
  2  4  1  0
  4  5  2  0
  4  6  1  0
  5  7  1  0
  6  8  2  0
  6  9  1  0
  7 10  1  0
  7 11  2  0
  8 11  1  0
 12  9  1  0
 10 13  1  0
 12 14  2  0
 12 15  2  0
 12 16  1  0
 13 17  1  0
 13 18  1  0
 16 19  1  0
 17 20  1  0
 18 21  1  0
 19 22  1  0
 20 23  1  0
 21 23  1  0
 22 24  1  0
 24 25  2  0
 24 26  1  0
 25 27  1  0
 26 28  2  0
 27 29  2  0
 28 29  1  0
M  END
