MAK-UNK-5d2caa6f-15-chloroacetamide
     RDKit          3D

 23 26  0  0  0  0  0  0  0  0999 V2000
    7.2750   -3.0290   18.8920 C   0  0  0  0  0  0  0  0  0  0  0  0
    6.3230   -3.4060   20.0060 C   0  0  0  0  0  0  0  0  0  0  0  0
    5.3870   -4.1810   19.7710 O   0  0  0  0  0  0  0  0  0  0  0  0
    6.5300   -2.8900   21.2870 N   0  0  0  0  0  0  0  0  0  0  0  0
    6.5470   -3.7620   22.3480 C   0  0  0  0  0  0  0  0  0  0  0  0
    7.3240   -1.7470   21.5780 C   0  0  2  0  0  0  0  0  0  0  0  0
    7.6100   -3.0670   23.0990 C   0  0  1  0  0  0  0  0  0  0  0  0
    8.4710   -2.3700   22.0720 C   0  0  0  0  0  0  0  0  0  0  0  0
    6.6220   -1.1330   22.5840 C   0  0  0  0  0  0  0  0  0  0  0  0
    6.8900   -1.8800   23.7890 C   0  0  2  0  0  0  0  0  0  0  0  0
    7.9010   -1.2140   24.7170 C   0  0  0  0  0  0  0  0  0  0  0  0
    7.2780   -0.3780   25.6970 O   0  0  0  0  0  0  0  0  0  0  0  0
    9.2400   -1.4160   24.6170 N   0  0  0  0  0  0  0  0  0  0  0  0
   10.1980   -0.4910   24.2860 C   0  0  0  0  0  0  0  0  0  0  0  0
   10.4440    0.7970   24.6220 C   0  0  0  0  0  0  0  0  0  0  0  0
   11.2250   -0.7770   23.4120 C   0  0  0  0  0  0  0  0  0  0  0  0
   11.5820    1.3760   24.0340 N   0  0  0  0  0  0  0  0  0  0  0  0
   12.0790    0.3630   23.2660 C   0  0  0  0  0  0  0  0  0  0  0  0
   11.5610   -1.9980   22.6490 C   0  0  0  0  0  0  0  0  0  0  0  0
   13.1710    0.2750   22.4430 C   0  0  0  0  0  0  0  0  0  0  0  0
   12.6470   -1.9860   21.8480 C   0  0  0  0  0  0  0  0  0  0  0  0
   13.3890   -0.8840   21.7710 C   0  0  0  0  0  0  0  0  0  0  0  0
   13.2700   -3.3500   20.7950 Br  0  0  0  0  0  0  0  0  0  0  0  0
  1  2  1  0
  2  3  2  0
  2  4  1  0
  4  5  1  0
  4  6  1  0
  7  5  1  6
  6  8  1  0
  7  8  1  0
  6  9  1  1
  7 10  1  0
  9 10  1  0
 10 11  1  1
 11 12  2  0
 11 13  1  0
 13 14  1  0
 14 15  2  0
 14 16  1  0
 15 17  1  0
 16 18  2  0
 17 18  1  0
 16 19  1  0
 18 20  1  0
 19 21  2  0
 20 22  2  0
 21 22  1  0
 21 23  1  0
M  END
