MAK-UNK-5d2caa6f-23-vinylsulfonamide
     RDKit          3D

 30 33  0  0  0  0  0  0  0  0999 V2000
    7.7140   -2.7860   18.0890 C   0  0  0  0  0  0  0  0  0  0  0  0
    6.2820   -2.5770   18.5050 C   0  0  0  0  0  0  0  0  0  0  0  0
    5.6700   -3.0080   20.0770 S   0  0  0  0  0  0  0  0  0  0  0  0
    5.1980   -4.3720   19.9440 O   0  0  0  0  0  0  0  0  0  0  0  0
    4.8640   -1.8950   20.4600 O   0  0  0  0  0  0  0  0  0  0  0  0
    6.8870   -2.8980   21.1820 N   0  0  0  0  0  0  0  0  0  0  0  0
    6.6910   -3.6360   22.3170 C   0  0  0  0  0  0  0  0  0  0  0  0
    7.3910   -1.6630   21.5480 C   0  0  1  0  0  0  0  0  0  0  0  0
    7.1200   -2.6120   23.2700 C   0  0  2  0  0  0  0  0  0  0  0  0
    6.5640   -1.3450   22.6190 C   0  0  0  0  0  0  0  0  0  0  0  0
    8.6520   -1.9590   21.8660 C   0  0  0  0  0  0  0  0  0  0  0  0
    8.5100   -2.4210   23.1770 N   0  0  0  0  0  0  0  0  0  0  0  0
    9.0230   -1.7140   24.1840 C   0  0  0  0  0  0  0  0  0  0  0  0
   10.1170   -0.7960   23.6750 C   0  0  0  0  0  0  0  0  0  0  0  0
   11.1030   -1.4710   23.0270 C   0  0  0  0  0  0  0  0  0  0  0  0
   10.1220    0.5990   23.8490 C   0  0  0  0  0  0  0  0  0  0  0  0
   12.1850   -0.8510   22.5340 C   0  0  0  0  0  0  0  0  0  0  0  0
   11.2760    1.5580   23.3900 C   0  0  0  0  0  0  0  0  0  0  0  0
    8.9430    1.3270   24.5390 C   0  0  0  0  0  0  0  0  0  0  0  0
   13.3400   -1.7710   21.7320 Cl  0  0  0  0  0  0  0  0  0  0  0  0
   12.3320    0.6220   22.7040 C   0  0  0  0  0  0  0  0  0  0  0  0
    8.6110    2.6590   24.1730 N   0  0  0  0  0  0  0  0  0  0  0  0
    9.3900    3.9190   24.4470 C   0  0  0  0  0  0  0  0  0  0  0  0
   10.5150    4.3550   23.6840 O   0  0  0  0  0  0  0  0  0  0  0  0
    8.9110    4.6630   25.5320 C   0  0  2  0  0  0  0  0  0  0  0  0
    9.8560    5.4760   26.1520 C   0  0  0  0  0  0  0  0  0  0  0  0
    8.2170    3.7880   26.3680 C   0  0  0  0  0  0  0  0  0  0  0  0
    9.9490    5.5010   27.6920 C   0  0  0  0  0  0  0  0  0  0  0  0
    7.8430    4.4700   27.4970 O   0  0  0  0  0  0  0  0  0  0  0  0
    8.9400    4.6290   28.3980 C   0  0  0  0  0  0  0  0  0  0  0  0
  1  2  1  0
  3  2  1  0
  3  4  2  0
  3  5  2  0
  3  6  1  0
  6  7  1  0
  6  8  1  0
  9  7  1  6
  8 10  1  0
  9 10  1  0
  8 11  1  1
  9 12  1  0
 11 12  1  0
 12 13  1  0
 13 14  1  0
 14 15  2  0
 14 16  1  0
 15 17  1  0
 16 18  2  0
 16 19  1  0
 17 20  1  0
 17 21  2  0
 18 21  1  0
 19 22  1  0
 22 23  1  0
 23 24  2  0
 25 23  1  6
 25 26  1  0
 25 27  1  0
 26 28  1  0
 27 29  1  0
 28 30  1  0
 29 30  1  0
M  END
