MAK-UNK-10799360-2-acrylamide
     RDKit          3D

 28 31  0  0  0  0  0  0  0  0999 V2000
    8.4720   -3.7790   20.0180 C   0  0  0  0  0  0  0  0  0  0  0  0
    7.3110   -3.0220   19.3120 C   0  0  0  0  0  0  0  0  0  0  0  0
    6.0760   -3.2700   20.1610 C   0  0  0  0  0  0  0  0  0  0  0  0
    5.1350   -4.0320   19.8400 O   0  0  0  0  0  0  0  0  0  0  0  0
    6.1440   -2.5700   21.3290 N   0  0  0  0  0  0  0  0  0  0  0  0
    6.9370   -1.3450   21.2430 C   0  0  0  0  0  0  0  0  0  0  0  0
    6.6280   -3.1310   22.6130 C   0  0  1  0  0  0  0  0  0  0  0  0
    8.1530   -1.7310   22.0810 C   0  0  2  0  0  0  0  0  0  0  0  0
    8.0510   -3.2660   22.1640 C   0  0  0  0  0  0  0  0  0  0  0  0
    6.8260   -2.0940   23.7670 C   0  0  1  0  0  0  0  0  0  0  0  0
    6.7790   -2.8640   25.0350 N   0  0  0  0  0  0  0  0  0  0  0  0
    8.1160   -1.3470   23.4010 C   0  0  1  0  0  0  0  0  0  0  0  0
    6.1090   -4.1520   25.1280 C   0  0  0  0  0  0  0  0  0  0  0  0
    9.1000   -1.6760   24.2860 N   0  0  0  0  0  0  0  0  0  0  0  0
    6.7240   -5.0560   24.2540 C   0  0  0  0  0  0  0  0  0  0  0  0
   10.4030   -2.1550   23.8920 C   0  0  0  0  0  0  0  0  0  0  0  0
    5.9310   -5.7890   23.3550 C   0  0  0  0  0  0  0  0  0  0  0  0
    8.1400   -5.2630   24.2360 C   0  0  0  0  0  0  0  0  0  0  0  0
   10.7710   -3.4600   23.8430 O   0  0  0  0  0  0  0  0  0  0  0  0
   11.3650   -1.2710   23.5160 C   0  0  0  0  0  0  0  0  0  0  0  0
    6.5640   -6.6650   22.5040 C   0  0  0  0  0  0  0  0  0  0  0  0
    8.7480   -6.1630   23.3580 C   0  0  0  0  0  0  0  0  0  0  0  0
   11.4820    0.0120   24.0390 C   0  0  0  0  0  0  0  0  0  0  0  0
   12.2410   -1.7780   22.5420 C   0  0  0  0  0  0  0  0  0  0  0  0
    7.9230   -6.8520   22.5000 C   0  0  0  0  0  0  0  0  0  0  0  0
   12.5020    0.8050   23.5820 C   0  0  0  0  0  0  0  0  0  0  0  0
   13.2660   -0.9680   22.0930 C   0  0  0  0  0  0  0  0  0  0  0  0
   13.3630    0.2880   22.6320 C   0  0  0  0  0  0  0  0  0  0  0  0
  1  2  1  0
  2  3  1  0
  3  4  2  0
  3  5  1  0
  5  6  1  0
  7  5  1  6
  8  6  1  6
  7  9  1  0
  8  9  1  0
  7 10  1  0
 10 11  1  1
  8 12  1  0
 10 12  1  0
 11 13  1  0
 12 14  1  1
 13 15  1  0
 14 16  1  0
 15 17  2  0
 15 18  1  0
 16 19  2  0
 16 20  1  0
 17 21  1  0
 18 22  2  0
 20 23  2  0
 20 24  1  0
 21 25  2  0
 22 25  1  0
 23 26  1  0
 24 27  2  0
 26 28  2  0
 27 28  1  0
M  END
