MAK-UNK-10799360-10-nitrile
     RDKit          3D

 28 31  0  0  0  0  0  0  0  0999 V2000
    6.7770   -3.6950   19.8000 C   0  0  0  0  0  0  0  0  0  0  0  0
    6.3380   -3.0770   18.7650 N   0  0  0  0  0  0  0  0  0  0  0  0
    6.7130   -3.1400   21.0530 N   0  0  0  0  0  0  0  0  0  0  0  0
    6.9770   -1.6890   21.2140 C   0  0  0  0  0  0  0  0  0  0  0  0
    7.3930   -3.6970   22.2300 C   0  0  1  0  0  0  0  0  0  0  0  0
    8.2210   -1.6700   22.1580 C   0  0  2  0  0  0  0  0  0  0  0  0
    8.7760   -3.0870   21.9750 C   0  0  0  0  0  0  0  0  0  0  0  0
    6.9260   -2.9910   23.5110 C   0  0  0  0  0  0  0  0  0  0  0  0
    7.8930   -1.8860   23.5780 N   0  0  0  0  0  0  0  0  0  0  0  0
    9.0730   -2.0710   24.4450 C   0  0  0  0  0  0  0  0  0  0  0  0
   10.2440   -1.2410   23.9630 C   0  0  0  0  0  0  0  0  0  0  0  0
   11.2650   -1.7770   22.9810 C   0  0  0  0  0  0  0  0  0  0  0  0
   10.3920    0.0750   24.4290 C   0  0  0  0  0  0  0  0  0  0  0  0
   12.2940   -0.9420   22.5890 C   0  0  0  0  0  0  0  0  0  0  0  0
   11.4710    0.8580   23.9850 C   0  0  0  0  0  0  0  0  0  0  0  0
    9.3610    0.6330   25.4150 C   0  0  0  0  0  0  0  0  0  0  0  0
   13.3890   -1.5810   21.4680 Cl  0  0  0  0  0  0  0  0  0  0  0  0
   12.4100    0.3570   23.0820 C   0  0  0  0  0  0  0  0  0  0  0  0
    8.9580    2.0350   25.2300 N   0  0  0  0  0  0  0  0  0  0  0  0
    7.7850    2.6440   26.2800 S   0  0  0  0  0  0  0  0  0  0  0  0
    7.9250    1.8970   27.5120 O   0  0  0  0  0  0  0  0  0  0  0  0
    7.9180    4.0830   26.2540 O   0  0  0  0  0  0  0  0  0  0  0  0
    6.3210    2.2270   25.5460 N   0  0  0  0  0  0  0  0  0  0  0  0
    5.6980    3.2410   24.6950 C   0  0  0  0  0  0  0  0  0  0  0  0
    5.4030    1.5690   26.3370 C   0  0  0  0  0  0  0  0  0  0  0  0
    4.6640    3.9590   25.5120 C   0  0  0  0  0  0  0  0  0  0  0  0
    4.1010    1.7400   25.8530 C   0  0  0  0  0  0  0  0  0  0  0  0
    3.7620    2.9640   25.2820 O   0  0  0  0  0  0  0  0  0  0  0  0
  1  2  2  3
  1  3  1  0
  3  4  1  0
  3  5  1  0
  6  4  1  6
  5  7  1  0
  6  7  1  0
  5  8  1  1
  6  9  1  0
  8  9  1  0
  9 10  1  0
 10 11  1  0
 11 12  2  0
 11 13  1  0
 12 14  1  0
 13 15  2  0
 13 16  1  0
 14 17  1  0
 14 18  2  0
 15 18  1  0
 16 19  1  0
 20 19  1  0
 20 21  2  0
 20 22  2  0
 20 23  1  0
 23 24  1  0
 23 25  1  0
 24 26  1  0
 25 27  1  0
 26 28  1  0
 27 28  1  0
M  END
