MAK-UNK-af83ef51-24-chloroacetamide
     RDKit          3D

 29 31  0  0  0  0  0  0  0  0999 V2000
    6.8410   -3.0650   19.0040 C   0  0  0  0  0  0  0  0  0  0  0  0
    5.8060   -3.5380   20.0210 C   0  0  0  0  0  0  0  0  0  0  0  0
    5.3440   -4.6730   19.9250 O   0  0  0  0  0  0  0  0  0  0  0  0
    5.3840   -2.6820   21.0470 N   0  0  0  0  0  0  0  0  0  0  0  0
    5.7000   -1.2670   20.8710 C   0  0  0  0  0  0  0  0  0  0  0  0
    5.1660   -3.0810   22.4300 C   0  0  0  0  0  0  0  0  0  0  0  0
    6.9970   -0.8370   21.5640 C   0  0  0  0  0  0  0  0  0  0  0  0
    5.9250   -2.1290   23.3540 C   0  0  0  0  0  0  0  0  0  0  0  0
    7.2260   -1.7140   22.7580 N   0  0  0  0  0  0  0  0  0  0  0  0
    8.2780   -2.5530   22.6870 C   0  0  0  0  0  0  0  0  0  0  0  0
    9.4740   -1.9910   23.4770 C   0  0  2  0  0  0  0  0  0  0  0  0
    9.2870   -0.5450   23.9260 C   0  0  0  0  0  0  0  0  0  0  0  0
   10.7590   -1.9820   22.6480 C   0  0  0  0  0  0  0  0  0  0  0  0
   10.3660    0.4220   23.4840 C   0  0  1  0  0  0  0  0  0  0  0  0
   11.9650   -1.4900   23.4590 C   0  0  2  0  0  0  0  0  0  0  0  0
   10.2940    1.8190   24.0470 C   0  0  0  0  0  0  0  0  0  0  0  0
   11.7350   -0.1680   23.8780 C   0  0  0  0  0  0  0  0  0  0  0  0
   13.1520   -1.8300   22.8120 C   0  0  0  0  0  0  0  0  0  0  0  0
   13.5500   -0.8860   21.8260 N   0  0  0  0  0  0  0  0  0  0  0  0
   13.7450   -1.1500   20.4650 C   0  0  0  0  0  0  0  0  0  0  0  0
   14.2860   -0.1340   19.5380 N   0  0  0  0  0  0  0  0  0  0  0  0
   15.4430   -0.2390   18.8480 C   0  0  0  0  0  0  0  0  0  0  0  0
   16.3450    0.7160   18.6620 C   0  0  0  0  0  0  0  0  0  0  0  0
   15.6000   -1.4190   18.4200 N   0  0  0  0  0  0  0  0  0  0  0  0
   17.5940    0.1780   18.0170 C   0  0  0  0  0  0  0  0  0  0  0  0
   16.6030   -1.9200   17.8740 C   0  0  0  0  0  0  0  0  0  0  0  0
   17.6770   -1.2890   17.6640 C   0  0  0  0  0  0  0  0  0  0  0  0
   18.7460   -2.1360   17.1630 C   0  0  0  0  0  0  0  0  0  0  0  0
   18.7040   -3.0060   16.2250 N   0  0  0  0  0  0  0  0  0  0  0  0
  1  2  1  0
  2  3  2  0
  2  4  1  0
  4  5  1  0
  4  6  1  0
  5  7  1  0
  6  8  1  0
  7  9  1  0
  8  9  1  0
  9 10  1  0
 11 10  1  6
 11 12  1  0
 11 13  1  0
 12 14  1  0
 13 15  1  0
 14 16  1  1
 14 17  1  0
 15 17  1  0
 15 18  1  6
 18 19  1  0
 19 20  1  0
 20 21  1  0
 21 22  1  0
 22 23  2  0
 22 24  1  0
 23 25  1  0
 24 26  2  0
 25 27  2  0
 26 27  1  0
 27 28  1  0
 28 29  3  0
M  END
