MAK-UNK-ec98eaf6-41-acrylamide
     RDKit          3D

 31 35  0  0  0  0  0  0  0  0999 V2000
    8.7500   -3.8830   20.1950 C   0  0  0  0  0  0  0  0  0  0  0  0
    7.5440   -3.1690   19.4800 C   0  0  0  0  0  0  0  0  0  0  0  0
    6.2940   -3.2090   20.3650 C   0  0  0  0  0  0  0  0  0  0  0  0
    5.2420   -3.9370   20.1400 O   0  0  0  0  0  0  0  0  0  0  0  0
    6.5080   -2.3140   21.4170 N   0  0  0  0  0  0  0  0  0  0  0  0
    7.6310   -1.4020   21.2780 C   0  0  0  0  0  0  0  0  0  0  0  0
    6.6140   -2.6720   22.8360 C   0  0  2  0  0  0  0  0  0  0  0  0
    8.5570   -1.7350   22.4510 C   0  0  2  0  0  0  0  0  0  0  0  0
    7.4050   -1.6900   23.4920 C   0  0  0  0  0  0  0  0  0  0  0  0
    7.3890   -3.7690   22.8610 C   0  0  0  0  0  0  0  0  0  0  0  0
    9.7170   -0.6990   22.6410 C   0  0  0  0  0  0  0  0  0  0  0  0
    6.9660   -5.1890   23.0780 C   0  0  0  0  0  0  0  0  0  0  0  0
    8.7170   -3.2920   22.6500 C   0  0  0  0  0  0  0  0  0  0  0  0
   11.1060   -1.3040   22.9510 C   0  0  0  0  0  0  0  0  0  0  0  0
    9.6410    0.7450   22.5610 C   0  0  0  0  0  0  0  0  0  0  0  0
    8.1050   -6.1250   23.0700 C   0  0  0  0  0  0  0  0  0  0  0  0
    9.7530   -4.2400   22.6680 C   0  0  0  0  0  0  0  0  0  0  0  0
   11.2920   -2.6130   23.0540 F   0  0  0  0  0  0  0  0  0  0  0  0
   12.3200   -0.4280   23.1550 C   0  0  0  0  0  0  0  0  0  0  0  0
   10.7860    1.5880   22.7550 C   0  0  0  0  0  0  0  0  0  0  0  0
    8.6970    1.4570   22.3360 N   0  0  0  0  0  0  0  0  0  0  0  0
    9.4740   -5.6030   22.8710 C   0  0  0  0  0  0  0  0  0  0  0  0
   12.1570    1.0400   23.0530 C   0  0  0  0  0  0  0  0  0  0  0  0
   10.4440    2.9050   22.6310 C   0  0  0  0  0  0  0  0  0  0  0  0
    9.0960    2.9270   22.3530 C   0  0  0  0  0  0  0  0  0  0  0  0
   11.3300    3.9730   22.7700 C   0  0  0  0  0  0  0  0  0  0  0  0
   11.0980    5.0740   23.7720 C   0  0  0  0  0  0  0  0  0  0  0  0
   11.2980    6.3940   23.2140 N   0  0  0  0  0  0  0  0  0  0  0  0
   12.1830    7.3710   23.8560 C   0  0  0  0  0  0  0  0  0  0  0  0
   11.9790    7.4510   25.1800 C   0  0  0  0  0  0  0  0  0  0  0  0
   13.0150    8.0410   23.2480 O   0  0  0  0  0  0  0  0  0  0  0  0
  1  2  1  0
  2  3  1  0
  3  4  2  0
  3  5  1  0
  5  6  1  0
  7  5  1  6
  6  8  1  0
  7  9  1  0
  8  9  1  0
  7 10  1  0
  8 11  1  1
 10 12  2  0
  8 13  1  0
 10 13  1  0
 11 14  2  0
 11 15  1  0
 12 16  1  0
 13 17  2  0
 14 18  1  0
 14 19  1  0
 15 20  2  0
 15 21  1  0
 16 22  2  0
 17 22  1  0
 19 23  2  0
 20 23  1  0
 20 24  1  0
 21 25  1  0
 24 25  2  0
 24 26  1  0
 26 27  1  0
 27 28  1  0
 28 29  1  0
 29 30  1  0
 29 31  2  0
M  END
