MAK-UNK-148caf23-13-nitrile
     RDKit          3D

 34 37  0  0  0  0  0  0  0  0999 V2000
    8.1140   -3.2770   19.8380 C   0  0  0  0  0  0  0  0  0  0  0  0
    7.7630   -2.7170   18.7100 N   0  0  0  0  0  0  0  0  0  0  0  0
    8.8240   -2.4230   21.1570 C   0  0  0  0  0  0  0  0  0  0  0  0
    7.9020   -1.9500   22.2240 C   0  0  0  0  0  0  0  0  0  0  0  0
   10.2210   -1.9570   21.5930 C   0  0  0  0  0  0  0  0  0  0  0  0
    8.2980   -1.1900   23.4220 C   0  0  0  0  0  0  0  0  0  0  0  0
   10.6400   -1.1960   22.7620 N   0  0  0  0  0  0  0  0  0  0  0  0
    9.7030   -0.8050   23.6880 C   0  0  0  0  0  0  0  0  0  0  0  0
    9.8960   -0.0220   24.9650 N   0  0  0  0  0  0  0  0  0  0  0  0
    9.6070   -0.5120   26.2720 C   0  0  0  0  0  0  0  0  0  0  0  0
    8.2690   -0.6470   26.6260 C   0  0  2  0  0  0  0  0  0  0  0  0
    7.7190   -0.9170   28.2670 S   0  0  0  0  0  0  0  0  0  0  0  0
    7.8430   -2.0260   26.0420 C   0  0  0  0  0  0  0  0  0  0  0  0
    7.2690    0.2830   25.9190 C   0  0  0  0  0  0  0  0  0  0  0  0
    6.4250   -0.2680   28.2060 O   0  0  0  0  0  0  0  0  0  0  0  0
    7.8230   -2.3260   28.5810 O   0  0  0  0  0  0  0  0  0  0  0  0
    8.5360   -0.0530   29.5270 C   0  0  0  0  0  0  0  0  0  0  0  0
    6.7600   -1.9520   25.1660 C   0  0  0  0  0  0  0  0  0  0  0  0
    6.4110   -0.4720   25.1040 C   0  0  0  0  0  0  0  0  0  0  0  0
    7.1040    1.7800   26.0120 C   0  0  0  0  0  0  0  0  0  0  0  0
    7.9760    0.0250   30.7930 C   0  0  0  0  0  0  0  0  0  0  0  0
    9.7290    0.5740   29.3610 C   0  0  0  0  0  0  0  0  0  0  0  0
    6.1870   -3.0720   24.5150 C   0  0  0  0  0  0  0  0  0  0  0  0
    7.3030    2.4360   27.2380 C   0  0  0  0  0  0  0  0  0  0  0  0
    6.7550    2.5740   24.9130 C   0  0  0  0  0  0  0  0  0  0  0  0
    8.5940    0.7580   32.0150 C   0  0  0  0  0  0  0  0  0  0  0  0
   10.3790    1.2440   30.3280 N   0  0  0  0  0  0  0  0  0  0  0  0
    6.9680   -4.2080   25.0490 N   0  0  0  0  0  0  0  0  0  0  0  0
    7.1650    3.8170   27.3790 C   0  0  0  0  0  0  0  0  0  0  0  0
    6.6150    3.9600   25.0400 C   0  0  0  0  0  0  0  0  0  0  0  0
    6.5460    2.0290   23.7050 F   0  0  0  0  0  0  0  0  0  0  0  0
    9.9720    1.4200   31.6310 C   0  0  0  0  0  0  0  0  0  0  0  0
    8.1790   -4.5750   24.4980 C   0  0  0  0  0  0  0  0  0  0  0  0
    6.8190    4.5930   26.2740 C   0  0  0  0  0  0  0  0  0  0  0  0
  1  2  2  3
  1  3  1  0
  3  4  2  0
  3  5  1  0
  4  6  1  0
  5  7  2  0
  6  8  2  0
  7  8  1  0
  8  9  1  0
  9 10  1  0
 11 10  1  1
 11 12  1  0
 11 13  1  0
 11 14  1  0
 12 15  2  0
 12 16  2  0
 12 17  1  0
 13 18  2  0
 14 19  2  0
 18 19  1  0
 14 20  1  0
 17 21  2  0
 17 22  1  0
 18 23  1  0
 20 24  2  0
 20 25  1  0
 21 26  1  0
 22 27  2  0
 23 28  1  0
 24 29  1  0
 25 30  2  0
 25 31  1  0
 26 32  2  0
 27 32  1  0
 28 33  1  0
 29 34  2  0
 30 34  1  0
M  END
