MAK-UNK-ec98eaf6-46-vinylsulfonamide
     RDKit          3D

 27 30  0  0  0  0  0  0  0  0999 V2000
    7.9510   -2.8790   18.7900 C   0  0  0  0  0  0  0  0  0  0  0  0
    6.5450   -3.1030   19.1900 C   0  0  0  0  0  0  0  0  0  0  0  0
    6.3040   -4.0490   20.6500 S   0  0  0  0  0  0  0  0  0  0  0  0
    5.2110   -4.8550   20.2100 O   0  0  0  0  0  0  0  0  0  0  0  0
    7.4610   -4.7000   21.2190 O   0  0  0  0  0  0  0  0  0  0  0  0
    5.9220   -2.8290   21.7550 N   0  0  0  0  0  0  0  0  0  0  0  0
    6.0850   -3.1550   23.1480 C   0  0  2  0  0  0  0  0  0  0  0  0
    6.7250   -1.5480   21.6720 C   0  0  2  0  0  0  0  0  0  0  0  0
    6.2550   -1.8210   23.8060 C   0  0  0  0  0  0  0  0  0  0  0  0
    7.4850   -1.4720   23.0250 C   0  0  1  0  0  0  0  0  0  0  0  0
    5.7510   -0.3640   21.6400 C   0  0  0  0  0  0  0  0  0  0  0  0
    7.5450   -3.7160   23.3620 C   0  0  0  0  0  0  0  0  0  0  0  0
    5.4380    0.3690   20.3640 C   0  0  0  0  0  0  0  0  0  0  0  0
    8.4690   -2.5580   23.0420 N   0  0  0  0  0  0  0  0  0  0  0  0
    6.4960    0.4400   19.3010 C   0  0  0  0  0  0  0  0  0  0  0  0
    4.2050    1.0030   20.1010 C   0  0  0  0  0  0  0  0  0  0  0  0
    9.4570   -2.4170   24.1110 C   0  0  0  0  0  0  0  0  0  0  0  0
    6.2480    1.1130   18.1110 C   0  0  0  0  0  0  0  0  0  0  0  0
    4.0300    1.6570   18.8850 C   0  0  0  0  0  0  0  0  0  0  0  0
   10.4380   -1.5840   23.7810 C   0  0  0  0  0  0  0  0  0  0  0  0
    5.0140    1.7210   17.9040 C   0  0  0  0  0  0  0  0  0  0  0  0
   10.4930   -0.2570   24.5210 C   0  0  0  0  0  0  0  0  0  0  0  0
   11.3760   -1.8990   22.7990 C   0  0  0  0  0  0  0  0  0  0  0  0
   11.6270    0.6870   24.1080 C   0  0  0  0  0  0  0  0  0  0  0  0
   12.4010   -1.0390   22.4370 C   0  0  0  0  0  0  0  0  0  0  0  0
   12.5840    0.2120   23.0210 C   0  0  0  0  0  0  0  0  0  0  0  0
   13.4340   -1.5710   21.2220 Cl  0  0  0  0  0  0  0  0  0  0  0  0
  1  2  1  0
  3  2  1  0
  3  4  2  0
  3  5  2  0
  3  6  1  0
  6  7  1  0
  6  8  1  0
  7  9  1  0
  8 10  1  0
  9 10  1  0
  8 11  1  1
  7 12  1  6
 11 13  1  0
 10 14  1  6
 12 14  1  0
 13 15  2  0
 13 16  1  0
 14 17  1  0
 15 18  1  0
 16 19  2  0
 17 20  1  0
 18 21  2  0
 19 21  1  0
 20 22  2  0
 20 23  1  0
 22 24  1  0
 23 25  2  0
 24 26  2  0
 25 26  1  0
 25 27  1  0
M  END
