MAK-UNK-69bf97dd-1-chloroacetamide
     RDKit          3D

 28 30  0  0  0  0  0  0  0  0999 V2000
    7.2130   -3.1440   19.0820 C   0  0  0  0  0  0  0  0  0  0  0  0
    6.3080   -3.8810   20.0320 C   0  0  0  0  0  0  0  0  0  0  0  0
    5.1750   -4.2080   19.7120 O   0  0  0  0  0  0  0  0  0  0  0  0
    6.8200   -4.2320   21.2430 N   0  0  0  0  0  0  0  0  0  0  0  0
    7.8350   -3.4800   21.9850 C   0  0  0  0  0  0  0  0  0  0  0  0
    6.0780   -5.2450   21.9880 C   0  0  0  0  0  0  0  0  0  0  0  0
    6.9250   -2.5430   22.7880 C   0  0  0  0  0  0  0  0  0  0  0  0
    5.4620   -4.6040   23.2210 C   0  0  0  0  0  0  0  0  0  0  0  0
    6.4700   -3.6090   23.8140 C   0  0  0  0  0  0  0  0  0  0  0  0
    5.8490   -2.6340   24.7840 C   0  0  0  0  0  0  0  0  0  0  0  0
    4.6810   -2.6850   25.1680 O   0  0  0  0  0  0  0  0  0  0  0  0
    6.7710   -1.6880   25.1760 N   0  0  0  0  0  0  0  0  0  0  0  0
    6.3110   -0.3680   25.5810 C   0  0  0  0  0  0  0  0  0  0  0  0
    6.0960   -0.6170   27.0170 C   0  0  0  0  0  0  0  0  0  0  0  0
    6.0360    0.4510   28.0750 C   0  0  0  0  0  0  0  0  0  0  0  0
    5.9650   -1.9420   27.2990 C   0  0  0  0  0  0  0  0  0  0  0  0
    5.8510   -0.0940   29.4720 C   0  0  0  0  0  0  0  0  0  0  0  0
    5.7840   -2.4030   28.5780 C   0  0  0  0  0  0  0  0  0  0  0  0
    5.7360   -1.4960   29.6640 C   0  0  0  0  0  0  0  0  0  0  0  0
    5.6180   -4.1880   28.6460 S   0  0  0  0  0  0  0  0  0  0  0  0
    4.4250   -4.5410   27.9010 O   0  0  0  0  0  0  0  0  0  0  0  0
    5.7620   -4.6710   29.9700 O   0  0  0  0  0  0  0  0  0  0  0  0
    6.9420   -4.8070   27.7440 N   0  0  0  0  0  0  0  0  0  0  0  0
    6.6180   -5.3400   26.5400 C   0  0  0  0  0  0  0  0  0  0  0  0
    8.2190   -4.0180   27.7870 C   0  0  0  0  0  0  0  0  0  0  0  0
    7.8970   -5.4310   25.7420 C   0  0  0  0  0  0  0  0  0  0  0  0
    9.4520   -4.8720   27.4890 C   0  0  0  0  0  0  0  0  0  0  0  0
    9.1700   -5.8930   26.4200 C   0  0  0  0  0  0  0  0  0  0  0  0
  1  2  1  0
  2  3  2  0
  2  4  1  0
  4  5  1  0
  4  6  1  0
  5  7  1  0
  6  8  1  0
  7  9  1  0
  8  9  1  0
  9 10  1  0
 10 11  2  0
 10 12  1  0
 12 13  1  0
 13 14  1  0
 14 15  2  0
 14 16  1  0
 15 17  1  0
 16 18  2  0
 17 19  2  0
 18 19  1  0
 20 18  1  0
 20 21  2  0
 20 22  2  0
 20 23  1  0
 23 24  1  0
 23 25  1  0
 24 26  1  0
 25 27  1  0
 26 28  1  0
 27 28  1  0
M  END
