MAK-UNK-30aad1f1-17-vinylsulfonamide
     RDKit          3D

 28 30  0  0  0  0  0  0  0  0999 V2000
    6.9740   -5.8180   20.1520 C   0  0  0  0  0  0  0  0  0  0  0  0
    7.2110   -4.6780   20.7640 C   0  0  0  0  0  0  0  0  0  0  0  0
    5.6700   -3.9400   20.6560 S   0  0  0  0  0  0  0  0  0  0  0  0
    4.9230   -3.8880   21.8810 O   0  0  0  0  0  0  0  0  0  0  0  0
    5.0720   -4.5250   19.5020 O   0  0  0  0  0  0  0  0  0  0  0  0
    6.0280   -2.4120   20.0580 C   0  0  0  0  0  0  0  0  0  0  0  0
    5.3020   -2.0040   18.8230 C   0  0  0  0  0  0  0  0  0  0  0  0
    6.9220   -1.5730   20.6410 C   0  0  0  0  0  0  0  0  0  0  0  0
    5.5550   -0.6450   18.2600 C   0  0  0  0  0  0  0  0  0  0  0  0
    7.1690   -0.3520   20.1540 N   0  0  0  0  0  0  0  0  0  0  0  0
    6.5350    0.0990   19.0510 C   0  0  0  0  0  0  0  0  0  0  0  0
    6.8860    1.3100   18.8270 N   0  0  0  0  0  0  0  0  0  0  0  0
    6.2710    1.7270   20.0750 C   0  0  0  0  0  0  0  0  0  0  0  0
    4.9900    1.2570   20.2540 C   0  0  0  0  0  0  0  0  0  0  0  0
    6.8720    2.4830   21.0040 N   0  0  0  0  0  0  0  0  0  0  0  0
    4.2180    1.5220   21.3950 C   0  0  0  0  0  0  0  0  0  0  0  0
    6.1420    2.7770   22.1320 C   0  0  0  0  0  0  0  0  0  0  0  0
    4.8180    2.3420   22.4060 C   0  0  0  0  0  0  0  0  0  0  0  0
    4.1870    2.6890   23.5390 N   0  0  0  0  0  0  0  0  0  0  0  0
    2.8980    2.3190   23.8080 C   0  0  0  0  0  0  0  0  0  0  0  0
    2.6020    1.4170   24.5790 O   0  0  0  0  0  0  0  0  0  0  0  0
    2.0010    3.0800   23.1290 N   0  0  0  0  0  0  0  0  0  0  0  0
    0.7070    3.4430   23.5270 C   0  0  0  0  0  0  0  0  0  0  0  0
    0.5840    4.6070   24.5220 C   0  0  0  0  0  0  0  0  0  0  0  0
   -0.4810    2.8460   23.1000 C   0  0  0  0  0  0  0  0  0  0  0  0
   -0.7780    5.0900   25.0200 C   0  0  0  0  0  0  0  0  0  0  0  0
   -1.7370    3.3020   23.5700 C   0  0  0  0  0  0  0  0  0  0  0  0
   -1.8570    4.4570   24.5550 C   0  0  0  0  0  0  0  0  0  0  0  0
  1  2  1  0
  3  2  1  0
  3  4  2  0
  3  5  2  0
  3  6  1  0
  6  7  2  0
  6  8  1  0
  7  9  1  0
  8 10  2  0
  9 11  2  0
 10 11  1  0
 11 12  1  0
 12 13  1  0
 13 14  2  0
 13 15  1  0
 14 16  1  0
 15 17  2  0
 16 18  2  0
 17 18  1  0
 18 19  1  0
 19 20  1  0
 20 21  2  0
 20 22  1  0
 22 23  1  0
 23 24  2  0
 23 25  1  0
 24 26  1  0
 25 27  2  0
 26 28  2  0
 27 28  1  0
M  END
