MAK-UNK-6ca90168-9-chloroacetamide
     RDKit          3D

 20 21  0  0  0  0  0  0  0  0999 V2000
    7.2280   -2.9940   18.7590 C   0  0  0  0  0  0  0  0  0  0  0  0
    6.2930   -3.2850   19.8920 C   0  0  0  0  0  0  0  0  0  0  0  0
    5.4230   -4.1580   19.7610 O   0  0  0  0  0  0  0  0  0  0  0  0
    6.4580   -2.5650   21.0550 N   0  0  0  0  0  0  0  0  0  0  0  0
    7.2740   -1.3510   21.2230 C   0  0  0  0  0  0  0  0  0  0  0  0
    6.0490   -3.1930   22.3050 C   0  0  0  0  0  0  0  0  0  0  0  0
    8.6500   -1.8900   21.7540 C   0  0  0  0  0  0  0  0  0  0  0  0
    7.3050   -3.6190   23.0420 C   0  0  0  0  0  0  0  0  0  0  0  0
    8.3600   -2.5920   23.0360 N   0  0  0  0  0  0  0  0  0  0  0  0
    9.4570   -2.5500   24.0170 C   0  0  0  0  0  0  0  0  0  0  0  0
   10.1540   -3.5160   24.3180 O   0  0  0  0  0  0  0  0  0  0  0  0
    9.5620   -1.1580   24.6100 C   0  0  0  0  0  0  0  0  0  0  0  0
   10.8270   -0.6370   23.9990 C   0  0  0  0  0  0  0  0  0  0  0  0
   11.8120   -1.7690   23.6530 C   0  0  0  0  0  0  0  0  0  0  0  0
   11.2060    0.8470   23.6940 C   0  0  0  0  0  0  0  0  0  0  0  0
   13.1520   -1.4630   23.0100 C   0  0  0  0  0  0  0  0  0  0  0  0
   12.4210    1.0900   23.1180 C   0  0  0  0  0  0  0  0  0  0  0  0
   10.2280    1.9060   24.0360 C   0  0  0  0  0  0  0  0  0  0  0  0
   13.4130    0.0140   22.7540 C   0  0  0  0  0  0  0  0  0  0  0  0
    9.1980    2.9180   24.2710 N   0  0  0  0  0  0  0  0  0  0  0  0
  1  2  1  0
  2  3  2  0
  2  4  1  0
  4  5  1  0
  4  6  1  0
  5  7  1  0
  6  8  1  0
  7  9  1  0
  8  9  1  0
  9 10  1  0
 10 11  2  0
 10 12  1  0
 12 13  1  0
 13 14  2  0
 13 15  1  0
 14 16  1  0
 15 17  2  0
 15 18  1  0
 16 19  2  0
 17 19  1  0
 18 20  3  0
M  END
