MAK-UNK-c8c8f7e2-41
     RDKit          3D

 17 18  0  0  0  0  0  0  0  0999 V2000
    1.5470  -10.1840   25.7450 C   0  0  0  0  0  0  0  0  0  0  0  0
    1.9360   -8.7300   25.6310 C   0  0  0  0  0  0  0  0  0  0  0  0
    1.5650   -8.0550   24.6770 O   0  0  0  0  0  0  0  0  0  0  0  0
    2.7130   -8.3360   26.7040 N   0  0  0  0  0  0  0  0  0  0  0  0
    3.7060   -7.3210   26.6970 C   0  0  0  0  0  0  0  0  0  0  0  0
    3.9880   -6.6090   25.5350 C   0  0  0  0  0  0  0  0  0  0  0  0
    4.4220   -7.0390   27.8930 C   0  0  0  0  0  0  0  0  0  0  0  0
    4.9690   -5.6230   25.5480 C   0  0  0  0  0  0  0  0  0  0  0  0
    5.4030   -6.0470   27.8990 C   0  0  0  0  0  0  0  0  0  0  0  0
    4.1960   -7.7150   29.0920 C   0  0  0  0  0  0  0  0  0  0  0  0
    5.2180   -4.9140   24.2790 N   0  0  0  0  0  0  0  0  0  0  0  0
    5.6580   -5.3550   26.7270 C   0  0  0  0  0  0  0  0  0  0  0  0
    4.6460   -5.6110   23.1170 C   0  0  0  0  0  0  0  0  0  0  0  0
    6.5210   -4.3510   23.8620 C   0  0  0  0  0  0  0  0  0  0  0  0
    5.7770   -5.7200   22.1290 C   0  0  0  0  0  0  0  0  0  0  0  0
    6.9420   -5.0110   22.7060 C   0  0  0  0  0  0  0  0  0  0  0  0
    7.2240   -3.4660   24.3430 O   0  0  0  0  0  0  0  0  0  0  0  0
  1  2  1  0
  2  3  2  0
  2  4  1  0
  4  5  1  0
  5  6  2  0
  5  7  1  0
  6  8  1  0
  7  9  2  0
  7 10  1  0
  8 11  1  0
  8 12  2  0
  9 12  1  0
 11 13  1  0
 11 14  1  0
 13 15  1  0
 14 16  1  0
 15 16  1  0
 14 17  2  0
M  END
