MAK-UNK-ec98eaf6-17-vinylsulfonamide
     RDKit          3D

 24 26  0  0  0  0  0  0  0  0999 V2000
    7.6410   -2.9750   18.2900 C   0  0  0  0  0  0  0  0  0  0  0  0
    7.2150   -2.2020   19.4410 C   0  0  0  0  0  0  0  0  0  0  0  0
    5.7070   -2.7670   20.1680 S   0  0  0  0  0  0  0  0  0  0  0  0
    5.2050   -4.1310   19.9610 O   0  0  0  0  0  0  0  0  0  0  0  0
    4.8430   -1.6900   19.9110 O   0  0  0  0  0  0  0  0  0  0  0  0
    6.3330   -2.5640   21.6610 N   0  0  0  0  0  0  0  0  0  0  0  0
    5.9240   -3.3320   22.8690 C   0  0  0  0  0  0  0  0  0  0  0  0
    7.8000   -2.3770   21.7290 C   0  0  2  0  0  0  0  0  0  0  0  0
    7.3650   -3.5850   23.3990 C   0  0  1  0  0  0  0  0  0  0  0  0
    8.2270   -3.7640   22.2000 C   0  0  0  0  0  0  0  0  0  0  0  0
    8.0050   -1.4140   22.6830 C   0  0  0  0  0  0  0  0  0  0  0  0
    8.0430   -2.3270   23.8660 N   0  0  0  0  0  0  0  0  0  0  0  0
    9.3920   -2.5850   24.3740 C   0  0  0  0  0  0  0  0  0  0  0  0
   10.3310   -1.6320   23.9900 C   0  0  0  0  0  0  0  0  0  0  0  0
   11.2460   -1.9870   22.9670 C   0  0  0  0  0  0  0  0  0  0  0  0
   10.4000   -0.3720   24.5790 C   0  0  0  0  0  0  0  0  0  0  0  0
   12.3460   -1.1260   22.4120 C   0  0  0  0  0  0  0  0  0  0  0  0
   11.3890    0.4920   24.1140 C   0  0  0  0  0  0  0  0  0  0  0  0
    9.4730   -0.1040   25.5780 C   0  0  0  0  0  0  0  0  0  0  0  0
   13.3640   -1.6910   21.1920 Cl  0  0  0  0  0  0  0  0  0  0  0  0
   12.4510    0.2570   23.0300 C   0  0  0  0  0  0  0  0  0  0  0  0
    8.6960    0.9970   25.2150 C   0  0  0  0  0  0  0  0  0  0  0  0
    8.1690    1.6310   26.3880 O   0  0  0  0  0  0  0  0  0  0  0  0
    7.4800    2.8370   26.0990 C   0  0  0  0  0  0  0  0  0  0  0  0
  1  2  1  0
  3  2  1  0
  3  4  2  0
  3  5  2  0
  3  6  1  0
  6  7  1  0
  6  8  1  0
  9  7  1  6
  8 10  1  0
  9 10  1  0
  8 11  1  1
  9 12  1  0
 11 12  1  0
 12 13  1  0
 13 14  1  0
 14 15  2  0
 14 16  1  0
 15 17  1  0
 16 18  2  0
 16 19  1  0
 17 20  1  0
 17 21  2  0
 18 21  1  0
 19 22  1  0
 22 23  1  0
 23 24  1  0
M  END
