MAK-UNK-af83ef51-9-chloroacetamide
     RDKit          3D

 21 22  0  0  0  0  0  0  0  0999 V2000
    7.3820   -3.4930   19.4110 C   0  0  0  0  0  0  0  0  0  0  0  0
    6.0980   -3.0370   19.8960 C   0  0  0  0  0  0  0  0  0  0  0  0
    5.0950   -3.5140   19.3550 O   0  0  0  0  0  0  0  0  0  0  0  0
    6.1580   -2.1660   20.9990 N   0  0  0  0  0  0  0  0  0  0  0  0
    7.2750   -1.1860   20.9320 C   0  0  0  0  0  0  0  0  0  0  0  0
    5.9110   -2.6740   22.3700 C   0  0  1  0  0  0  0  0  0  0  0  0
    8.1920   -1.2290   22.0070 C   0  0  0  0  0  0  0  0  0  0  0  0
    7.2020   -3.1380   23.0840 C   0  0  0  0  0  0  0  0  0  0  0  0
    5.0860   -1.7120   23.2610 C   0  0  0  0  0  0  0  0  0  0  0  0
    8.5050   -2.4420   22.6300 C   0  0  2  0  0  0  0  0  0  0  0  0
    5.1000   -1.7280   24.4870 O   0  0  0  0  0  0  0  0  0  0  0  0
    4.3440   -0.8520   22.5060 O   0  0  0  0  0  0  0  0  0  0  0  0
    9.3830   -2.4310   23.7270 C   0  0  0  0  0  0  0  0  0  0  0  0
    3.4590   -0.0160   23.2510 C   0  0  0  0  0  0  0  0  0  0  0  0
   10.4260   -1.5090   23.5710 C   0  0  0  0  0  0  0  0  0  0  0  0
   11.6930   -1.9130   23.1860 C   0  0  0  0  0  0  0  0  0  0  0  0
   10.2150   -0.1380   23.8020 C   0  0  0  0  0  0  0  0  0  0  0  0
   12.7670   -0.8760   23.0310 C   0  0  0  0  0  0  0  0  0  0  0  0
   11.2330    0.8280   23.6460 C   0  0  0  0  0  0  0  0  0  0  0  0
   12.5360    0.4600   23.2590 C   0  0  0  0  0  0  0  0  0  0  0  0
   10.9240    2.1570   23.8800 C   0  0  0  0  0  0  0  0  0  0  0  0
  1  2  1  0
  2  3  2  0
  2  4  1  0
  4  5  1  0
  4  6  1  0
  5  7  1  0
  6  8  1  0
  6  9  1  1
  7 10  1  0
  8 10  1  0
  9 11  2  0
  9 12  1  0
 10 13  1  1
 12 14  1  0
 13 15  1  0
 15 16  2  0
 15 17  1  0
 16 18  1  0
 17 19  2  0
 18 20  2  0
 19 20  1  0
 19 21  1  0
M  END
