MAK-UNK-10799360-16-chloroacetamide
     RDKit          3D

 25 28  0  0  0  0  0  0  0  0999 V2000
    7.1520   -2.9950   18.7500 C   0  0  0  0  0  0  0  0  0  0  0  0
    6.1790   -3.3750   19.8520 C   0  0  0  0  0  0  0  0  0  0  0  0
    5.2380   -4.1330   19.6560 O   0  0  0  0  0  0  0  0  0  0  0  0
    6.4040   -2.8990   21.0860 N   0  0  0  0  0  0  0  0  0  0  0  0
    6.8140   -1.5180   21.3060 C   0  0  0  0  0  0  0  0  0  0  0  0
    7.0070   -3.6770   22.1490 C   0  0  1  0  0  0  0  0  0  0  0  0
    7.8750   -1.6760   22.4180 C   0  0  2  0  0  0  0  0  0  0  0  0
    8.4090   -3.0720   22.1960 C   0  0  0  0  0  0  0  0  0  0  0  0
    6.4350   -3.1860   23.4790 C   0  0  0  0  0  0  0  0  0  0  0  0
    7.2130   -1.9540   23.7130 N   0  0  0  0  0  0  0  0  0  0  0  0
    8.2160   -2.0690   24.7380 C   0  0  0  0  0  0  0  0  0  0  0  0
    9.4050   -1.3040   24.2560 C   0  0  0  0  0  0  0  0  0  0  0  0
    9.6090    0.0250   24.6450 C   0  0  0  0  0  0  0  0  0  0  0  0
   10.3120   -1.9100   23.4000 C   0  0  0  0  0  0  0  0  0  0  0  0
   10.6880    0.7230   24.1760 C   0  0  0  0  0  0  0  0  0  0  0  0
   11.3720   -1.2400   22.9370 C   0  0  0  0  0  0  0  0  0  0  0  0
   11.5390    0.0740   23.3330 C   0  0  0  0  0  0  0  0  0  0  0  0
   12.3310   -1.9450   22.0420 C   0  0  0  0  0  0  0  0  0  0  0  0
   13.4540   -1.5780   22.7740 N   0  0  0  0  0  0  0  0  0  0  0  0
   12.6670    0.7710   22.8350 C   0  0  0  0  0  0  0  0  0  0  0  0
   13.1560   -2.1220   24.3800 S   0  0  0  0  0  0  0  0  0  0  0  0
   13.5280   -0.1600   22.3570 C   0  0  0  0  0  0  0  0  0  0  0  0
   12.6670   -0.7140   25.1900 C   0  0  0  0  0  0  0  0  0  0  0  0
   14.3270   -2.6200   25.0320 O   0  0  0  0  0  0  0  0  0  0  0  0
   12.0140   -3.0050   24.3330 O   0  0  0  0  0  0  0  0  0  0  0  0
  1  2  1  0
  2  3  2  0
  2  4  1  0
  4  5  1  0
  4  6  1  0
  7  5  1  6
  6  8  1  0
  7  8  1  0
  6  9  1  1
  7 10  1  0
  9 10  1  0
 10 11  1  0
 11 12  1  0
 12 13  2  0
 12 14  1  0
 13 15  1  0
 14 16  2  0
 15 17  2  0
 16 17  1  0
 16 18  1  0
 18 19  1  0
 17 20  1  0
 19 21  1  0
 19 22  1  0
 20 22  1  0
 21 23  1  0
 21 24  2  0
 21 25  2  0
M  END
