MAK-UNK-ed378e62-23
     RDKit          3D

 14 15  0  0  0  0  0  0  0  0999 V2000
    3.4420   -6.9340   22.7560 N   0  0  0  0  0  0  0  0  0  0  0  0
    4.3970   -6.3100   22.9580 C   0  0  0  0  0  0  0  0  0  0  0  0
    5.5160   -5.5260   23.2810 C   0  0  0  0  0  0  0  0  0  0  0  0
    5.4230   -4.9530   24.4350 N   0  0  0  0  0  0  0  0  0  0  0  0
    6.5400   -5.4390   22.4050 N   0  0  0  0  0  0  0  0  0  0  0  0
    6.4550   -4.1970   24.7920 C   0  0  0  0  0  0  0  0  0  0  0  0
    7.5890   -4.6590   22.7930 C   0  0  0  0  0  0  0  0  0  0  0  0
    7.5770   -4.0100   24.0030 C   0  0  0  0  0  0  0  0  0  0  0  0
    8.5770   -4.4690   22.1430 O   0  0  0  0  0  0  0  0  0  0  0  0
    9.3040   -3.3720   22.4290 C   0  0  0  0  0  0  0  0  0  0  0  0
   10.1260   -3.1080   23.5100 C   0  0  0  0  0  0  0  0  0  0  0  0
    9.2570   -2.3240   21.5450 C   0  0  0  0  0  0  0  0  0  0  0  0
   10.7100   -1.8560   23.4620 C   0  0  0  0  0  0  0  0  0  0  0  0
   10.2320   -1.0060   22.0630 S   0  0  0  0  0  0  0  0  0  0  0  0
  1  2  3  0
  2  3  1  0
  3  4  2  0
  3  5  1  0
  4  6  1  0
  5  7  2  0
  6  8  2  0
  7  8  1  0
  7  9  1  0
  9 10  1  0
 10 11  1  0
 10 12  2  0
 11 13  2  0
 12 14  1  0
 13 14  1  0
M  END
