MAK-UNK-ec98eaf6-33-chloroacetamide
     RDKit          3D

 27 30  0  0  0  0  0  0  0  0999 V2000
    7.0160   -3.0560   19.0510 C   0  0  0  0  0  0  0  0  0  0  0  0
    5.9860   -3.5050   20.0690 C   0  0  0  0  0  0  0  0  0  0  0  0
    5.4150   -4.5870   19.9240 O   0  0  0  0  0  0  0  0  0  0  0  0
    5.7040   -2.6750   21.1360 N   0  0  0  0  0  0  0  0  0  0  0  0
    5.6060   -1.1720   21.0780 C   0  0  0  0  0  0  0  0  0  0  0  0
    6.1400   -2.9770   22.5310 C   0  0  2  0  0  0  0  0  0  0  0  0
    5.8330   -0.9130   22.5940 C   0  0  1  0  0  0  0  0  0  0  0  0
    5.2230   -2.0780   23.3410 C   0  0  0  0  0  0  0  0  0  0  0  0
    7.4300   -2.5080   22.6390 C   0  0  0  0  0  0  0  0  0  0  0  0
    7.3890   -1.1130   22.7410 C   0  0  2  0  0  0  0  0  0  0  0  0
    8.0140   -0.4600   23.8110 C   0  0  0  0  0  0  0  0  0  0  0  0
    9.3210    0.0530   23.5300 C   0  0  0  0  0  0  0  0  0  0  0  0
    9.6530    1.4480   23.9310 C   0  0  0  0  0  0  0  0  0  0  0  0
   10.2490   -0.6980   22.8930 C   0  0  0  0  0  0  0  0  0  0  0  0
   11.0710    1.9130   23.5730 C   0  0  0  0  0  0  0  0  0  0  0  0
   11.5460   -0.3290   22.5640 C   0  0  0  0  0  0  0  0  0  0  0  0
   10.0460   -1.9610   22.4600 N   0  0  0  0  0  0  0  0  0  0  0  0
   11.4410    3.1540   23.8630 F   0  0  0  0  0  0  0  0  0  0  0  0
   12.0480    0.9370   22.8680 C   0  0  0  0  0  0  0  0  0  0  0  0
   12.0740   -1.4490   21.9300 C   0  0  0  0  0  0  0  0  0  0  0  0
   11.1510   -2.3860   21.8730 C   0  0  0  0  0  0  0  0  0  0  0  0
   13.3070   -1.7080   21.3870 C   0  0  0  0  0  0  0  0  0  0  0  0
   13.1440   -3.0680   21.0050 C   0  0  0  0  0  0  0  0  0  0  0  0
   14.1750   -3.7510   20.2270 N   0  0  0  0  0  0  0  0  0  0  0  0
   14.5170   -5.0260   20.5070 C   0  0  0  0  0  0  0  0  0  0  0  0
   15.7140   -5.3980   21.0690 C   0  0  0  0  0  0  0  0  0  0  0  0
   13.9330   -5.9880   20.3410 O   0  0  0  0  0  0  0  0  0  0  0  0
  1  2  1  0
  2  3  2  0
  2  4  1  0
  4  5  1  0
  4  6  1  0
  7  5  1  6
  6  8  1  0
  7  8  1  0
  6  9  1  6
  7 10  1  0
  9 10  1  0
 10 11  1  1
 11 12  1  0
 12 13  1  0
 12 14  2  0
 13 15  2  0
 14 16  1  0
 14 17  1  0
 15 18  1  0
 15 19  1  0
 16 19  2  0
 16 20  1  0
 17 21  1  0
 20 21  2  0
 20 22  1  0
 22 23  1  0
 23 24  1  0
 24 25  1  0
 25 26  1  0
 25 27  2  0
M  END
