MAK-UNK-212f693e-10-vinylsulfonamide
     RDKit          3D

 17 18  0  0  0  0  0  0  0  0999 V2000
    6.0050   -4.9550   20.7060 C   0  0  0  0  0  0  0  0  0  0  0  0
    5.4400   -3.7870   21.6090 C   0  0  0  0  0  0  0  0  0  0  0  0
    4.4880   -4.3160   23.0730 S   0  0  0  0  0  0  0  0  0  0  0  0
    3.2680   -4.9900   22.7070 O   0  0  0  0  0  0  0  0  0  0  0  0
    4.4420   -3.2150   24.0110 O   0  0  0  0  0  0  0  0  0  0  0  0
    5.3690   -5.4960   23.8360 N   0  0  0  0  0  0  0  0  0  0  0  0
    5.9960   -6.4600   22.9650 C   0  0  0  0  0  0  0  0  0  0  0  0
    5.9910   -5.1470   25.0180 C   0  0  0  0  0  0  0  0  0  0  0  0
    7.4800   -6.1620   22.9130 C   0  0  0  0  0  0  0  0  0  0  0  0
    7.2820   -4.6540   24.8540 C   0  0  0  0  0  0  0  0  0  0  0  0
    7.7980   -4.8560   23.5890 C   0  0  0  0  0  0  0  0  0  0  0  0
    7.2470   -3.8460   22.7490 O   0  0  0  0  0  0  0  0  0  0  0  0
    7.8700   -2.5690   22.6790 C   0  0  0  0  0  0  0  0  0  0  0  0
    7.4690   -1.5650   23.5320 C   0  0  0  0  0  0  0  0  0  0  0  0
    8.8780   -2.1820   21.8040 C   0  0  0  0  0  0  0  0  0  0  0  0
    8.2520   -0.2650   23.2850 C   0  0  0  0  0  0  0  0  0  0  0  0
    9.3640   -0.5370   22.0110 S   0  0  0  0  0  0  0  0  0  0  0  0
  1  2  1  0
  3  2  1  0
  3  4  2  0
  3  5  2  0
  3  6  1  0
  6  7  1  0
  6  8  1  0
  7  9  1  0
  8 10  1  0
  9 11  1  0
 10 11  1  0
 11 12  1  0
 12 13  1  0
 13 14  1  0
 13 15  2  0
 14 16  2  0
 15 17  1  0
 16 17  1  0
M  END
