MAK-UNK-849bee6c-23-bromoalkyne
     RDKit          3D

 28 30  0  0  0  0  0  0  0  0999 V2000
    6.9020   -3.7760   20.0040 C   0  0  0  0  0  0  0  0  0  0  0  0
    5.6460   -3.2500   19.3120 C   0  0  0  0  0  0  0  0  0  0  0  0
    7.3410   -3.2270   21.1990 N   0  0  0  0  0  0  0  0  0  0  0  0
    6.5080   -3.2520   22.3870 C   0  0  0  0  0  0  0  0  0  0  0  0
    8.3000   -2.1230   21.1640 C   0  0  0  0  0  0  0  0  0  0  0  0
    7.3010   -2.9870   23.6820 C   0  0  0  0  0  0  0  0  0  0  0  0
    8.1390   -1.1180   22.3080 C   0  0  0  0  0  0  0  0  0  0  0  0
    8.1020   -1.7520   23.6380 N   0  0  0  0  0  0  0  0  0  0  0  0
    9.3260   -1.5580   24.3790 C   0  0  0  0  0  0  0  0  0  0  0  0
   10.3050   -0.5780   23.7780 C   0  0  0  0  0  0  0  0  0  0  0  0
   10.0500    0.8830   24.0920 C   0  0  0  0  0  0  0  0  0  0  0  0
   11.4110   -0.9790   22.9570 C   0  0  0  0  0  0  0  0  0  0  0  0
   10.9930    1.8360   23.5140 C   0  0  0  0  0  0  0  0  0  0  0  0
   12.3180   -0.0440   22.4030 C   0  0  0  0  0  0  0  0  0  0  0  0
   10.8720    3.2210   23.6980 C   0  0  0  0  0  0  0  0  0  0  0  0
   12.1380    1.3110   22.6730 C   0  0  0  0  0  0  0  0  0  0  0  0
   13.4430   -0.3120   21.5510 N   0  0  0  0  0  0  0  0  0  0  0  0
   13.9000   -1.3150   20.5720 C   0  0  0  0  0  0  0  0  0  0  0  0
   13.4830   -2.6490   20.8000 N   0  0  0  0  0  0  0  0  0  0  0  0
   14.8870   -0.9080   19.4330 C   0  0  0  0  0  0  0  0  0  0  0  0
   14.1470   -3.6550   20.0470 C   0  0  0  0  0  0  0  0  0  0  0  0
   15.4510   -1.8950   18.7430 C   0  0  0  0  0  0  0  0  0  0  0  0
   15.4370    0.2970   18.9870 N   0  0  0  0  0  0  0  0  0  0  0  0
   13.7750   -4.8530   20.2530 C   0  0  0  0  0  0  0  0  0  0  0  0
   15.1710   -3.3830   19.0920 N   0  0  0  0  0  0  0  0  0  0  0  0
   16.4520    0.5420   18.1210 C   0  0  0  0  0  0  0  0  0  0  0  0
   12.5110   -4.7370   19.7670 N   0  0  0  0  0  0  0  0  0  0  0  0
   16.1470    0.4950   16.6320 C   0  0  0  0  0  0  0  0  0  0  0  0
  1  2  2  3
  1  3  1  0
  3  4  1  0
  3  5  1  0
  4  6  1  0
  5  7  1  0
  6  8  1  0
  7  8  1  0
  8  9  1  0
  9 10  1  0
 10 11  2  0
 10 12  1  0
 11 13  1  0
 12 14  2  0
 13 15  1  0
 13 16  2  0
 14 16  1  0
 14 17  1  0
 17 18  1  0
 18 19  2  0
 18 20  1  0
 19 21  1  0
 20 22  2  0
 20 23  1  0
 21 24  1  0
 21 25  2  0
 22 25  1  0
 23 26  1  0
 24 27  3  0
 26 28  1  0
M  END
