MAK-UNK-10799360-34-vinylsulfonamide
     RDKit          3D

 27 30  0  0  0  0  0  0  0  0999 V2000
    6.7780   -5.0150   20.0490 C   0  0  0  0  0  0  0  0  0  0  0  0
    6.8740   -3.4840   19.8430 C   0  0  0  0  0  0  0  0  0  0  0  0
    5.7300   -2.6980   20.9270 S   0  0  0  0  0  0  0  0  0  0  0  0
    4.9990   -3.7160   21.6590 O   0  0  0  0  0  0  0  0  0  0  0  0
    5.0520   -1.6710   20.1760 O   0  0  0  0  0  0  0  0  0  0  0  0
    6.7610   -1.9180   21.9870 N   0  0  0  0  0  0  0  0  0  0  0  0
    7.4020   -2.7140   23.0300 C   0  0  0  0  0  0  0  0  0  0  0  0
    7.8170   -1.1370   21.3100 C   0  0  2  0  0  0  0  0  0  0  0  0
    8.8220   -2.1150   23.0180 C   0  0  1  0  0  0  0  0  0  0  0  0
    9.0510   -1.9990   21.5270 C   0  0  0  0  0  0  0  0  0  0  0  0
    8.2240    0.0860   22.1580 C   0  0  0  0  0  0  0  0  0  0  0  0
    8.7540   -0.6050   23.4280 C   0  0  2  0  0  0  0  0  0  0  0  0
   10.0750    0.0540   23.6810 N   0  0  0  0  0  0  0  0  0  0  0  0
   10.1020    1.4910   23.9790 C   0  0  0  0  0  0  0  0  0  0  0  0
   11.2220   -0.7930   23.6180 C   0  0  0  0  0  0  0  0  0  0  0  0
   10.9870    2.0470   23.1990 C   0  0  0  0  0  0  0  0  0  0  0  0
    9.2300    1.7880   24.9140 C   0  0  0  0  0  0  0  0  0  0  0  0
   11.9780   -1.1230   24.8250 C   0  0  0  0  0  0  0  0  0  0  0  0
   11.7250   -1.3750   22.5090 C   0  0  0  0  0  0  0  0  0  0  0  0
   10.8500    0.6220   23.1080 C   0  0  0  0  0  0  0  0  0  0  0  0
    8.9590    0.4910   24.9980 C   0  0  0  0  0  0  0  0  0  0  0  0
   13.0810   -1.9730   24.7330 C   0  0  0  0  0  0  0  0  0  0  0  0
   12.8350   -2.1920   22.5490 C   0  0  0  0  0  0  0  0  0  0  0  0
    9.8600   -0.0890   24.0030 C   0  0  0  0  0  0  0  0  0  0  0  0
    7.9830   -0.2320   25.8900 C   0  0  0  0  0  0  0  0  0  0  0  0
   13.6850   -2.6370   23.6170 C   0  0  0  0  0  0  0  0  0  0  0  0
   13.1720   -2.6610   21.2810 N   0  0  0  0  0  0  0  0  0  0  0  0
  1  2  1  0
  3  2  1  0
  3  4  2  0
  3  5  2  0
  3  6  1  0
  6  7  1  0
  6  8  1  0
  9  7  1  6
  8 10  1  0
  9 10  1  0
  8 11  1  1
  9 12  1  0
 11 12  1  0
 12 13  1  6
 13 14  1  0
 13 15  1  0
 14 16  2  0
 14 17  1  0
 15 18  2  0
 15 19  1  0
 16 20  1  0
 17 21  2  0
 18 22  1  0
 19 23  2  0
 20 24  2  0
 21 24  1  0
 21 25  1  0
 22 26  2  0
 23 26  1  0
 23 27  1  0
M  END
