MAK-UNK-30aad1f1-2-acrylamide
     RDKit          3D

 28 30  0  0  0  0  0  0  0  0999 V2000
    7.2920   -5.2310   21.0000 C   0  0  0  0  0  0  0  0  0  0  0  0
    5.7790   -5.3170   21.2700 C   0  0  0  0  0  0  0  0  0  0  0  0
    5.1840   -3.9700   21.6630 C   0  0  0  0  0  0  0  0  0  0  0  0
    4.2790   -3.8430   22.4730 O   0  0  0  0  0  0  0  0  0  0  0  0
    5.7210   -2.8390   20.9170 C   0  0  0  0  0  0  0  0  0  0  0  0
    5.0350   -2.6590   19.5460 C   0  0  0  0  0  0  0  0  0  0  0  0
    6.7740   -2.0110   21.3260 C   0  0  0  0  0  0  0  0  0  0  0  0
    5.5870   -1.5740   18.6990 C   0  0  0  0  0  0  0  0  0  0  0  0
    7.2730   -1.0380   20.5580 N   0  0  0  0  0  0  0  0  0  0  0  0
    6.7110   -0.8730   19.3450 C   0  0  0  0  0  0  0  0  0  0  0  0
    7.1330    0.0100   18.5240 N   0  0  0  0  0  0  0  0  0  0  0  0
    6.5580    1.1210   18.3940 C   0  0  0  0  0  0  0  0  0  0  0  0
    5.9510    1.4530   19.7480 C   0  0  0  0  0  0  0  0  0  0  0  0
    4.6090    0.9550   20.2080 C   0  0  0  0  0  0  0  0  0  0  0  0
    6.6770    2.2530   20.6240 N   0  0  0  0  0  0  0  0  0  0  0  0
    4.1280    1.2850   21.4320 C   0  0  0  0  0  0  0  0  0  0  0  0
    6.1580    2.5730   21.8480 C   0  0  0  0  0  0  0  0  0  0  0  0
    4.9160    2.1450   22.3260 C   0  0  0  0  0  0  0  0  0  0  0  0
    4.3220    2.4710   23.6130 N   0  0  0  0  0  0  0  0  0  0  0  0
    2.8830    2.2460   23.8500 C   0  0  0  0  0  0  0  0  0  0  0  0
    2.6350    1.3660   24.6720 O   0  0  0  0  0  0  0  0  0  0  0  0
    1.9470    3.0980   23.1060 N   0  0  0  0  0  0  0  0  0  0  0  0
    0.6520    3.4860   23.5290 C   0  0  0  0  0  0  0  0  0  0  0  0
    0.5630    4.6410   24.5530 C   0  0  0  0  0  0  0  0  0  0  0  0
   -0.5120    2.8610   23.0500 C   0  0  0  0  0  0  0  0  0  0  0  0
   -0.8010    5.1300   25.0680 C   0  0  0  0  0  0  0  0  0  0  0  0
   -1.8670    3.3450   23.5600 C   0  0  0  0  0  0  0  0  0  0  0  0
   -1.9280    4.4830   24.5660 C   0  0  0  0  0  0  0  0  0  0  0  0
  1  2  1  0
  2  3  1  0
  3  4  2  0
  3  5  1  0
  5  6  2  0
  5  7  1  0
  6  8  1  0
  7  9  2  0
  8 10  2  0
  9 10  1  0
 10 11  1  0
 11 12  1  0
 12 13  1  0
 13 14  2  0
 13 15  1  0
 14 16  1  0
 15 17  2  0
 16 18  2  0
 17 18  1  0
 18 19  1  0
 19 20  1  0
 20 21  2  0
 20 22  1  0
 22 23  1  0
 23 24  2  0
 23 25  1  0
 24 26  1  0
 25 27  2  0
 26 28  2  0
 27 28  1  0
M  END
