MAK-UNK-8fdbca50-3-nitrile
     RDKit          3D

 38 41  0  0  0  0  0  0  0  0999 V2000
    8.1770   -3.5210   19.8910 C   0  0  0  0  0  0  0  0  0  0  0  0
    6.9560   -3.6630   19.4780 N   0  0  0  0  0  0  0  0  0  0  0  0
    8.4940   -2.3900   20.6430 N   0  0  0  0  0  0  0  0  0  0  0  0
    7.4560   -1.3740   20.8650 C   0  0  0  0  0  0  0  0  0  0  0  0
    9.6390   -2.2410   21.5620 C   0  0  0  0  0  0  0  0  0  0  0  0
    7.0430   -1.4230   22.3360 C   0  0  0  0  0  0  0  0  0  0  0  0
    9.2310   -2.4830   22.8580 C   0  0  0  0  0  0  0  0  0  0  0  0
    7.7120   -2.6140   22.9760 C   0  0  0  0  0  0  0  0  0  0  0  0
    7.4820   -2.8820   24.3280 C   0  0  0  0  0  0  0  0  0  0  0  0
    7.1460   -2.0100   25.1240 O   0  0  0  0  0  0  0  0  0  0  0  0
    7.6980   -4.3380   24.6340 N   0  0  0  0  0  0  0  0  0  0  0  0
    6.8050   -4.8250   25.7060 C   0  0  0  0  0  0  0  0  0  0  0  0
    8.1790   -5.2330   23.5340 C   0  0  2  0  0  0  0  0  0  0  0  0
    7.2940   -6.4660   23.6880 C   0  0  0  0  0  0  0  0  0  0  0  0
    9.6990   -5.6420   23.6810 C   0  0  1  0  0  0  0  0  0  0  0  0
   10.0120   -6.1010   24.9380 N   0  0  0  0  0  0  0  0  0  0  0  0
   10.0170   -6.8080   22.6520 C   0  0  0  0  0  0  0  0  0  0  0  0
    9.2700   -5.5540   25.9220 C   0  0  0  0  0  0  0  0  0  0  0  0
    9.0950   -7.6200   22.7930 C   0  0  0  0  0  0  0  0  0  0  0  0
   10.8930   -7.4960   21.5450 C   0  0  0  0  0  0  0  0  0  0  0  0
    9.4500   -8.5760   21.8650 C   0  0  0  0  0  0  0  0  0  0  0  0
   10.3900   -8.6940   21.0630 N   0  0  0  0  0  0  0  0  0  0  0  0
    9.0720   -9.3750   21.6170 C   0  0  0  0  0  0  0  0  0  0  0  0
   10.4620  -10.3070   19.8230 S   0  0  0  0  0  0  0  0  0  0  0  0
    9.8420   -9.7950   20.2050 C   0  0  0  0  0  0  0  0  0  0  0  0
    8.1270  -10.1020   22.2820 C   0  0  0  0  0  0  0  0  0  0  0  0
   11.3740  -10.5240   19.0580 O   0  0  0  0  0  0  0  0  0  0  0  0
    9.4900  -11.4210   19.9630 O   0  0  0  0  0  0  0  0  0  0  0  0
    9.7960   -9.9200   18.9590 C   0  0  0  0  0  0  0  0  0  0  0  0
    9.3980  -11.1900   19.7590 C   0  0  0  0  0  0  0  0  0  0  0  0
    7.8840  -11.4400   21.6930 C   0  0  0  0  0  0  0  0  0  0  0  0
    7.5610   -9.6720   23.2830 F   0  0  0  0  0  0  0  0  0  0  0  0
    9.1280  -10.3970   18.1940 C   0  0  0  0  0  0  0  0  0  0  0  0
   10.1780   -8.9830   19.2890 C   0  0  0  0  0  0  0  0  0  0  0  0
    8.4780  -11.9030   20.5480 C   0  0  0  0  0  0  0  0  0  0  0  0
    8.7520   -9.3570   17.4690 C   0  0  0  0  0  0  0  0  0  0  0  0
    9.9240   -8.0890   18.7550 N   0  0  0  0  0  0  0  0  0  0  0  0
    9.2330   -8.2220   17.8760 C   0  0  0  0  0  0  0  0  0  0  0  0
  1  2  2  3
  1  3  1  0
  3  4  1  0
  3  5  1  0
  4  6  1  0
  5  7  1  0
  6  8  1  0
  7  8  1  0
  8  9  1  0
  9 10  2  0
  9 11  1  0
 11 12  1  0
 11 13  1  0
 13 14  1  1
 13 15  1  0
 15 16  1  1
 15 17  1  0
 16 18  1  0
 17 19  1  0
 17 20  2  0
 19 21  2  0
 20 22  1  0
 21 22  1  0
 21 23  1  0
 22 24  1  0
 23 25  2  0
 23 26  1  0
 24 27  2  0
 24 28  2  0
 24 29  1  0
 25 30  1  0
 26 31  2  0
 26 32  1  0
 29 33  2  0
 29 34  1  0
 30 35  2  0
 31 35  1  0
 33 36  1  0
 34 37  2  0
 36 38  2  0
 37 38  1  0
M  END
