MAK-UNK-212f693e-8-acrylamide
     RDKit          3D

 16 17  0  0  0  0  0  0  0  0999 V2000
    7.3430   -3.0700   19.0730 C   0  0  0  0  0  0  0  0  0  0  0  0
    6.9140   -3.0860   20.5240 C   0  0  0  0  0  0  0  0  0  0  0  0
    6.0600   -4.3010   20.7530 C   0  0  0  0  0  0  0  0  0  0  0  0
    5.1810   -4.6020   19.9420 O   0  0  0  0  0  0  0  0  0  0  0  0
    6.3050   -5.0590   21.8900 N   0  0  0  0  0  0  0  0  0  0  0  0
    7.1100   -4.4830   22.9730 C   0  0  0  0  0  0  0  0  0  0  0  0
    5.4530   -6.0530   22.3470 C   0  0  0  0  0  0  0  0  0  0  0  0
    6.2140   -4.0510   24.1010 C   0  0  0  0  0  0  0  0  0  0  0  0
    4.5680   -5.6330   23.3690 C   0  0  0  0  0  0  0  0  0  0  0  0
    5.2220   -5.1280   24.4040 N   0  0  0  0  0  0  0  0  0  0  0  0
    4.5460   -5.0020   25.6420 C   0  0  0  0  0  0  0  0  0  0  0  0
    3.5320   -4.0320   25.6420 C   0  0  0  0  0  0  0  0  0  0  0  0
    3.7800   -2.5120   25.8780 C   0  0  0  0  0  0  0  0  0  0  0  0
    2.1630   -4.2300   25.4460 C   0  0  0  0  0  0  0  0  0  0  0  0
    2.5150   -1.7300   25.8330 C   0  0  0  0  0  0  0  0  0  0  0  0
    1.1660   -2.7310   25.5380 S   0  0  0  0  0  0  0  0  0  0  0  0
  1  2  1  0
  2  3  1  0
  3  4  2  0
  3  5  1  0
  5  6  1  0
  5  7  1  0
  6  8  1  0
  7  9  1  0
  8 10  1  0
  9 10  1  0
 10 11  1  0
 11 12  1  0
 12 13  1  0
 12 14  2  0
 13 15  2  0
 14 16  1  0
 15 16  1  0
M  END
