MAK-UNK-3e0761f8-6-bromoalkyne
     RDKit          3D

 20 23  0  0  0  0  0  0  0  0999 V2000
    7.6140   -3.3000   19.7210 C   0  0  0  0  0  0  0  0  0  0  0  0
    6.1890   -3.2190   19.1270 C   0  0  0  0  0  0  0  0  0  0  0  0
    7.9190   -3.0890   21.0640 N   0  0  0  0  0  0  0  0  0  0  0  0
    7.6660   -3.9270   22.2430 C   0  0  0  0  0  0  0  0  0  0  0  0
    8.6380   -1.9270   21.5930 C   0  0  2  0  0  0  0  0  0  0  0  0
    8.5610   -3.2420   23.3640 C   0  0  1  0  0  0  0  0  0  0  0  0
    9.6730   -2.6100   22.4840 C   0  0  0  0  0  0  0  0  0  0  0  0
    7.7030   -1.1630   22.5740 C   0  0  0  0  0  0  0  0  0  0  0  0
    8.0230   -1.8800   23.9040 C   0  0  1  0  0  0  0  0  0  0  0  0
    6.9910   -1.9990   25.0390 C   0  0  0  0  0  0  0  0  0  0  0  0
    6.2000   -3.2920   25.1600 C   0  0  0  0  0  0  0  0  0  0  0  0
    6.0300   -4.1020   24.0660 N   0  0  0  0  0  0  0  0  0  0  0  0
    5.5560   -3.8520   26.2760 N   0  0  0  0  0  0  0  0  0  0  0  0
    5.2590   -5.1760   24.5440 C   0  0  0  0  0  0  0  0  0  0  0  0
    4.9460   -5.0630   25.9020 C   0  0  0  0  0  0  0  0  0  0  0  0
    4.8500   -6.2330   23.7620 C   0  0  0  0  0  0  0  0  0  0  0  0
    4.2290   -5.9130   26.6670 N   0  0  0  0  0  0  0  0  0  0  0  0
    5.1990   -6.2830   22.4180 C   0  0  0  0  0  0  0  0  0  0  0  0
    4.0850   -7.2030   24.4190 C   0  0  0  0  0  0  0  0  0  0  0  0
    3.7950   -6.9880   25.9260 C   0  0  0  0  0  0  0  0  0  0  0  0
  1  2  2  3
  1  3  1  0
  3  4  1  0
  3  5  1  0
  6  4  1  6
  5  7  1  0
  6  7  1  0
  5  8  1  1
  6  9  1  0
  8  9  1  0
  9 10  1  1
 10 11  1  0
 11 12  2  0
 11 13  1  0
 12 14  1  0
 13 15  1  0
 14 15  2  0
 14 16  1  0
 15 17  1  0
 16 18  1  0
 16 19  2  0
 17 20  2  0
 19 20  1  0
M  END
