MAK-UNK-69bf97dd-5-chloroacetamide
     RDKit          3D

 28 30  0  0  0  0  0  0  0  0999 V2000
    7.2040   -3.5410   19.3720 C   0  0  0  0  0  0  0  0  0  0  0  0
    6.0430   -3.7680   20.1940 C   0  0  0  0  0  0  0  0  0  0  0  0
    5.0060   -4.0440   19.6190 O   0  0  0  0  0  0  0  0  0  0  0  0
    6.2750   -3.7900   21.5320 N   0  0  0  0  0  0  0  0  0  0  0  0
    6.1640   -5.0410   22.3020 C   0  0  0  0  0  0  0  0  0  0  0  0
    7.3960   -2.9880   22.0200 C   0  0  0  0  0  0  0  0  0  0  0  0
    5.3890   -4.6490   23.6090 C   0  0  0  0  0  0  0  0  0  0  0  0
    7.2960   -2.9140   23.5170 C   0  0  0  0  0  0  0  0  0  0  0  0
    5.8310   -3.1730   23.8640 C   0  0  0  0  0  0  0  0  0  0  0  0
    5.6280   -3.0960   25.3810 C   0  0  0  0  0  0  0  0  0  0  0  0
    4.6130   -3.4950   25.9280 O   0  0  0  0  0  0  0  0  0  0  0  0
    6.6740   -2.5420   26.0750 N   0  0  0  0  0  0  0  0  0  0  0  0
    6.5710   -1.2930   26.8430 C   0  0  0  0  0  0  0  0  0  0  0  0
    7.2730   -1.2480   28.2220 C   0  0  0  0  0  0  0  0  0  0  0  0
    5.8800   -0.1700   26.3790 C   0  0  0  0  0  0  0  0  0  0  0  0
    7.1730    0.0620   28.9970 C   0  0  0  0  0  0  0  0  0  0  0  0
    5.8260    1.0840   27.2350 C   0  0  0  0  0  0  0  0  0  0  0  0
    5.2320   -0.2130   25.1090 O   0  0  0  0  0  0  0  0  0  0  0  0
    7.9810    0.2150   30.5700 S   0  0  0  0  0  0  0  0  0  0  0  0
    6.4600    1.1450   28.4760 C   0  0  0  0  0  0  0  0  0  0  0  0
    7.0150   -0.1150   31.6060 O   0  0  0  0  0  0  0  0  0  0  0  0
    9.2250   -0.4830   30.4090 O   0  0  0  0  0  0  0  0  0  0  0  0
    8.3480    1.8890   30.7050 N   0  0  0  0  0  0  0  0  0  0  0  0
    8.0360    2.5790   31.8580 C   0  0  0  0  0  0  0  0  0  0  0  0
    9.4780    2.3030   30.0740 C   0  0  0  0  0  0  0  0  0  0  0  0
    9.0960    2.5760   32.7820 C   0  0  0  0  0  0  0  0  0  0  0  0
   10.5460    2.0860   30.9500 C   0  0  0  0  0  0  0  0  0  0  0  0
   10.3500    2.8550   32.1430 O   0  0  0  0  0  0  0  0  0  0  0  0
  1  2  1  0
  2  3  2  0
  2  4  1  0
  4  5  1  0
  4  6  1  0
  5  7  1  0
  6  8  1  0
  7  9  1  0
  8  9  1  0
  9 10  1  0
 10 11  2  0
 10 12  1  0
 12 13  1  0
 13 14  2  0
 13 15  1  0
 14 16  1  0
 15 17  2  0
 15 18  1  0
 19 16  1  0
 16 20  2  0
 17 20  1  0
 19 21  2  0
 19 22  2  0
 19 23  1  0
 23 24  1  0
 23 25  1  0
 24 26  1  0
 25 27  1  0
 26 28  1  0
 27 28  1  0
M  END
