MAK-UNK-9a6be56d-24
     RDKit          3D

 38 42  0  0  0  0  0  0  0  0999 V2000
   13.5770   -2.6580   25.3640 C   0  0  0  0  0  0  0  0  0  0  0  0
   12.2460   -2.1660   25.0530 N   0  0  0  0  0  0  0  0  0  0  0  0
   12.0560   -0.7080   25.2580 C   0  0  0  0  0  0  0  0  0  0  0  0
   10.7010   -0.5080   25.5290 C   0  0  0  0  0  0  0  0  0  0  0  0
    9.9660   -0.7110   24.5060 C   0  0  0  0  0  0  0  0  0  0  0  0
    9.7690   -0.1500   26.5730 C   0  0  0  0  0  0  0  0  0  0  0  0
    8.7000   -0.5340   24.7410 C   0  0  0  0  0  0  0  0  0  0  0  0
    8.4510   -0.1890   26.0260 N   0  0  0  0  0  0  0  0  0  0  0  0
    7.8710   -0.7060   23.7110 C   0  0  0  0  0  0  0  0  0  0  0  0
    6.9530    0.1180   26.8090 S   0  0  0  0  0  0  0  0  0  0  0  0
    6.3570   -0.9200   23.5660 C   0  0  0  0  0  0  0  0  0  0  0  0
    8.7380   -0.6580   22.6320 C   0  0  0  0  0  0  0  0  0  0  0  0
    6.1410   -1.0290   26.4880 O   0  0  0  0  0  0  0  0  0  0  0  0
    6.5290    1.4650   26.4910 O   0  0  0  0  0  0  0  0  0  0  0  0
    7.2370   -0.0120   28.5280 C   0  0  0  0  0  0  0  0  0  0  0  0
    5.5280   -0.9640   24.6110 F   0  0  0  0  0  0  0  0  0  0  0  0
    5.8630   -1.0720   22.2690 C   0  0  0  0  0  0  0  0  0  0  0  0
    8.1100   -0.8410   21.2520 C   0  0  0  0  0  0  0  0  0  0  0  0
   10.2280   -0.4400   22.8320 N   0  0  0  0  0  0  0  0  0  0  0  0
    8.5100   -0.2710   28.9830 C   0  0  0  0  0  0  0  0  0  0  0  0
    6.1470    0.1550   29.3780 C   0  0  0  0  0  0  0  0  0  0  0  0
    6.7490   -1.0380   21.0450 C   0  0  0  0  0  0  0  0  0  0  0  0
   10.9680   -1.5670   22.2370 C   0  0  0  0  0  0  0  0  0  0  0  0
   10.9440    0.8190   22.9110 C   0  0  0  0  0  0  0  0  0  0  0  0
    8.6520   -0.3470   30.3440 C   0  0  0  0  0  0  0  0  0  0  0  0
    6.2320    0.0840   30.7190 N   0  0  0  0  0  0  0  0  0  0  0  0
   12.3790   -1.6650   22.8190 C   0  0  0  0  0  0  0  0  0  0  0  0
   12.3340    0.8330   22.7540 C   0  0  0  0  0  0  0  0  0  0  0  0
   10.2960    2.0080   23.1280 C   0  0  0  0  0  0  0  0  0  0  0  0
    7.5740   -0.1800   31.1960 C   0  0  0  0  0  0  0  0  0  0  0  0
   13.0670   -0.3620   22.5370 C   0  0  0  0  0  0  0  0  0  0  0  0
   13.0020    2.0330   22.8030 C   0  0  0  0  0  0  0  0  0  0  0  0
   10.9930    3.2430   23.1820 C   0  0  0  0  0  0  0  0  0  0  0  0
   12.3730    3.2450   23.0090 C   0  0  0  0  0  0  0  0  0  0  0  0
   10.1360    4.7870   23.4560 S   0  0  0  0  0  0  0  0  0  0  0  0
   11.0540    5.8840   22.5720 N   0  0  0  0  0  0  0  0  0  0  0  0
   10.2390    5.2550   24.8080 O   0  0  0  0  0  0  0  0  0  0  0  0
    8.8520    4.7340   22.8050 O   0  0  0  0  0  0  0  0  0  0  0  0
  1  2  1  0
  2  3  1  0
  3  4  1  0
  4  5  1  0
  4  6  2  0
  5  7  2  0
  6  8  1  0
  7  8  1  0
  7  9  1  0
  8 10  1  0
  9 11  2  0
  9 12  1  0
 10 13  2  0
 10 14  2  0
 10 15  1  0
 11 16  1  0
 11 17  1  0
 12 18  2  0
 12 19  1  0
 15 20  2  0
 15 21  1  0
 17 22  2  0
 18 22  1  0
 19 23  1  0
 19 24  1  0
 20 25  1  0
 21 26  2  0
 23 27  1  0
 24 28  2  0
 24 29  1  0
 25 30  2  0
 26 30  1  0
 27 31  1  0
 28 31  1  0
 28 32  1  0
 29 33  2  0
 32 34  2  0
 33 34  1  0
 33 35  1  0
 35 36  1  0
 35 37  2  0
 35 38  2  0
M  END
