MAK-UNK-e05327b2-1-acrylamide
     RDKit          3D

 52 58  0  0  0  0  0  0  0  0999 V2000
    7.3140   -3.0950   19.0640 C   0  0  0  0  0  0  0  0  0  0  0  0
    6.9280   -3.1280   20.5360 C   0  0  0  0  0  0  0  0  0  0  0  0
    6.0990   -4.3570   20.7500 C   0  0  0  0  0  0  0  0  0  0  0  0
    5.1880   -4.6430   19.9730 O   0  0  0  0  0  0  0  0  0  0  0  0
    6.4110   -5.1390   21.8310 N   0  0  0  0  0  0  0  0  0  0  0  0
    7.2990   -4.6810   22.9120 C   0  0  0  0  0  0  0  0  0  0  0  0
    5.6320   -6.3100   22.2000 C   0  0  0  0  0  0  0  0  0  0  0  0
    6.3070   -4.1970   23.9610 C   0  0  0  0  0  0  0  0  0  0  0  0
    4.8210   -6.0800   23.3310 C   0  0  0  0  0  0  0  0  0  0  0  0
    5.6270   -5.4320   24.4080 N   0  0  0  0  0  0  0  0  0  0  0  0
    4.8940   -5.3420   25.9220 S   0  0  0  0  0  0  0  0  0  0  0  0
    5.9390   -5.1700   26.9020 O   0  0  0  0  0  0  0  0  0  0  0  0
    3.9530   -6.4350   26.0080 O   0  0  0  0  0  0  0  0  0  0  0  0
    4.0180   -3.8670   25.9890 C   0  0  0  0  0  0  0  0  0  0  0  0
    4.6670   -2.4710   26.0730 C   0  0  0  0  0  0  0  0  0  0  0  0
    2.2850   -3.8440   25.9680 S   0  0  0  0  0  0  0  0  0  0  0  0
    3.5210   -1.4910   26.1110 C   0  0  0  0  0  0  0  0  0  0  0  0
    2.1370   -2.1250   26.0630 C   0  0  0  0  0  0  0  0  0  0  0  0
    0.9320   -1.3800   26.0980 C   0  0  0  0  0  0  0  0  0  0  0  0
   -0.2310   -1.8390   25.6590 N   0  0  0  0  0  0  0  0  0  0  0  0
   -0.2170   -3.1620   25.2620 C   0  0  0  0  0  0  0  0  0  0  0  0
   -1.3560   -1.6340   26.5970 C   0  0  0  0  0  0  0  0  0  0  0  0
   -1.4010   -3.5310   24.6160 C   0  0  0  0  0  0  0  0  0  0  0  0
   -2.7080   -2.1250   26.0500 C   0  0  0  0  0  0  0  0  0  0  0  0
   -2.5370   -2.6880   24.6710 N   0  0  0  0  0  0  0  0  0  0  0  0
   -3.9730   -3.4050   24.0690 S   0  0  0  0  0  0  0  0  0  0  0  0
   -4.3350   -2.6520   22.8880 O   0  0  0  0  0  0  0  0  0  0  0  0
   -3.7790   -4.8370   24.0320 O   0  0  0  0  0  0  0  0  0  0  0  0
   -5.1580   -3.0650   25.3670 C   0  0  0  0  0  0  0  0  0  0  0  0
   -5.5220   -4.1560   26.3300 C   0  0  0  0  0  0  0  0  0  0  0  0
   -5.7660   -1.7660   25.5050 C   0  0  0  0  0  0  0  0  0  0  0  0
   -6.4960   -3.8910   27.4090 C   0  0  0  0  0  0  0  0  0  0  0  0
   -6.7060   -1.5300   26.5590 C   0  0  0  0  0  0  0  0  0  0  0  0
   -5.5160   -0.6750   24.6810 C   0  0  0  0  0  0  0  0  0  0  0  0
   -7.0770   -2.5200   27.4830 C   0  0  0  0  0  0  0  0  0  0  0  0
   -7.3050   -0.2570   26.6990 C   0  0  0  0  0  0  0  0  0  0  0  0
   -6.1020    0.6050   24.7980 C   0  0  0  0  0  0  0  0  0  0  0  0
   -7.0190    0.8070   25.8400 C   0  0  0  0  0  0  0  0  0  0  0  0
   -5.7280    1.5750   23.8690 C   0  0  0  0  0  0  0  0  0  0  0  0
   -7.6640    2.0260   26.0580 C   0  0  0  0  0  0  0  0  0  0  0  0
   -6.4780    1.4300   22.6920 C   0  0  0  0  0  0  0  0  0  0  0  0
   -9.0520    1.8560   25.9430 C   0  0  0  0  0  0  0  0  0  0  0  0
   -6.9680    0.2560   22.1520 C   0  0  0  0  0  0  0  0  0  0  0  0
   -6.8850    2.8040   21.7500 S   0  0  0  0  0  0  0  0  0  0  0  0
   -9.4070    0.6930   25.2560 C   0  0  0  0  0  0  0  0  0  0  0  0
   -7.6620    0.4870   20.9890 C   0  0  0  0  0  0  0  0  0  0  0  0
   -7.7280    1.8240   20.6030 C   0  0  0  0  0  0  0  0  0  0  0  0
   -9.2120    0.4760   23.9030 C   0  0  0  0  0  0  0  0  0  0  0  0
  -10.1650   -0.7240   25.9510 S   0  0  0  0  0  0  0  0  0  0  0  0
   -9.6530   -0.7630   23.4820 C   0  0  0  0  0  0  0  0  0  0  0  0
  -10.1980   -1.5430   24.4620 C   0  0  0  0  0  0  0  0  0  0  0  0
  -10.8490   -3.1240   24.3190 Cl  0  0  0  0  0  0  0  0  0  0  0  0
  1  2  1  0
  2  3  1  0
  3  4  2  0
  3  5  1  0
  5  6  1  0
  5  7  1  0
  6  8  1  0
  7  9  1  0
  8 10  1  0
  9 10  1  0
 10 11  1  0
 11 12  2  0
 11 13  2  0
 11 14  1  0
 14 15  2  0
 14 16  1  0
 15 17  1  0
 16 18  1  0
 17 18  2  0
 18 19  1  0
 19 20  1  0
 20 21  1  0
 20 22  1  0
 21 23  1  0
 22 24  1  0
 23 25  1  0
 24 25  1  0
 25 26  1  0
 26 27  2  0
 26 28  2  0
 26 29  1  0
 29 30  2  0
 29 31  1  0
 30 32  1  0
 31 33  2  0
 31 34  1  0
 32 35  2  0
 33 35  1  0
 33 36  1  0
 34 37  2  0
 36 38  2  0
 37 38  1  0
 37 39  1  0
 38 40  1  0
 39 41  1  0
 40 42  1  0
 41 43  2  0
 41 44  1  0
 42 45  1  0
 43 46  1  0
 44 47  1  0
 46 47  2  0
 45 48  2  0
 45 49  1  0
 48 50  1  0
 49 51  1  0
 50 51  2  0
 51 52  1  0
M  END
