MAK-UNK-cd94b63c-1-acrylamide
     RDKit          3D

 24 25  0  0  0  0  0  0  0  0999 V2000
    7.3490   -2.8430   18.2690 C   0  0  0  0  0  0  0  0  0  0  0  0
    6.5700   -2.1640   19.0790 C   0  0  0  0  0  0  0  0  0  0  0  0
    5.8740   -2.9690   20.1430 C   0  0  0  0  0  0  0  0  0  0  0  0
    5.1570   -3.9840   19.9140 O   0  0  0  0  0  0  0  0  0  0  0  0
    6.1290   -2.4700   21.4000 N   0  0  0  0  0  0  0  0  0  0  0  0
    6.1000   -3.3800   22.5310 C   0  0  0  0  0  0  0  0  0  0  0  0
    7.1330   -1.3720   21.4720 C   0  0  0  0  0  0  0  0  0  0  0  0
    7.4290   -3.4160   23.2900 C   0  0  0  0  0  0  0  0  0  0  0  0
    8.3720   -1.7850   21.9820 C   0  0  0  0  0  0  0  0  0  0  0  0
    8.2230   -2.1720   23.2590 N   0  0  0  0  0  0  0  0  0  0  0  0
    9.4770   -2.3110   24.0120 C   0  0  0  0  0  0  0  0  0  0  0  0
   10.4870   -1.3890   23.7200 C   0  0  0  0  0  0  0  0  0  0  0  0
   11.7740   -1.7990   23.3070 C   0  0  0  0  0  0  0  0  0  0  0  0
   10.2500   -0.0240   23.8340 C   0  0  0  0  0  0  0  0  0  0  0  0
   12.7960   -0.8830   23.0160 C   0  0  0  0  0  0  0  0  0  0  0  0
   11.3630    0.9770   23.5110 C   0  0  0  0  0  0  0  0  0  0  0  0
   12.6030    0.5060   23.1150 C   0  0  0  0  0  0  0  0  0  0  0  0
   10.9880    2.4720   23.6520 C   0  0  0  0  0  0  0  0  0  0  0  0
   10.0390    2.7320   24.3710 O   0  0  0  0  0  0  0  0  0  0  0  0
   11.8550    3.6840   22.7820 S   0  0  0  0  0  0  0  0  0  0  0  0
   11.2590    4.9310   23.7640 C   0  0  0  0  0  0  0  0  0  0  0  0
   11.4130    6.3580   23.2010 C   0  0  0  0  0  0  0  0  0  0  0  0
   11.2430    7.2650   24.2320 N   0  0  0  0  0  0  0  0  0  0  0  0
   11.8040    7.1170   25.5910 C   0  0  0  0  0  0  0  0  0  0  0  0
  1  2  1  0
  2  3  1  0
  3  4  2  0
  3  5  1  0
  5  6  1  0
  5  7  1  0
  6  8  1  0
  7  9  1  0
  8 10  1  0
  9 10  1  0
 10 11  1  0
 11 12  1  0
 12 13  2  0
 12 14  1  0
 13 15  1  0
 14 16  2  0
 15 17  2  0
 16 17  1  0
 16 18  1  0
 18 19  2  0
 18 20  1  0
 20 21  1  0
 21 22  1  0
 22 23  1  0
 23 24  1  0
M  END
