MAK-UNK-3c359d2a-1-nitrile
     RDKit          3D

 24 26  0  0  0  0  0  0  0  0999 V2000
    7.0480   -3.3150   19.4600 C   0  0  0  0  0  0  0  0  0  0  0  0
    6.2930   -3.0560   18.4660 N   0  0  0  0  0  0  0  0  0  0  0  0
    6.8280   -2.7470   20.6920 N   0  0  0  0  0  0  0  0  0  0  0  0
    6.4180   -3.5120   21.8400 C   0  0  0  0  0  0  0  0  0  0  0  0
    7.4000   -1.4400   20.9980 C   0  0  0  0  0  0  0  0  0  0  0  0
    7.5840   -3.6840   22.8360 C   0  0  0  0  0  0  0  0  0  0  0  0
    8.6430   -1.6790   21.8470 C   0  0  0  0  0  0  0  0  0  0  0  0
    8.3660   -2.4540   23.0710 N   0  0  0  0  0  0  0  0  0  0  0  0
    9.5110   -2.4610   23.8520 C   0  0  0  0  0  0  0  0  0  0  0  0
   10.5320   -1.3940   23.5390 C   0  0  0  0  0  0  0  0  0  0  0  0
   11.9940   -1.7280   23.3660 C   0  0  0  0  0  0  0  0  0  0  0  0
   10.0980   -0.0780   23.4080 C   0  0  0  0  0  0  0  0  0  0  0  0
   12.9010   -0.5510   23.0560 C   0  0  0  0  0  0  0  0  0  0  0  0
   10.9530    0.9840   23.1190 C   0  0  0  0  0  0  0  0  0  0  0  0
   12.3100    0.8090   22.9450 C   0  0  0  0  0  0  0  0  0  0  0  0
   10.3770    2.0830   23.0380 O   0  0  0  0  0  0  0  0  0  0  0  0
   10.9780    3.2460   23.4610 C   0  0  2  0  0  0  0  0  0  0  0  0
   10.1720    4.0470   24.2860 C   0  0  0  0  0  0  0  0  0  0  0  0
   11.4000    3.8970   22.2980 C   0  0  0  0  0  0  0  0  0  0  0  0
   10.8290    5.2650   24.7410 C   0  0  0  0  0  0  0  0  0  0  0  0
   11.5690    5.3020   22.4440 C   0  0  1  0  0  0  0  0  0  0  0  0
   11.8140    5.7160   23.8980 C   0  0  0  0  0  0  0  0  0  0  0  0
   12.3860    5.6440   21.6020 O   0  0  0  0  0  0  0  0  0  0  0  0
   13.6770    5.1490   21.9040 C   0  0  0  0  0  0  0  0  0  0  0  0
  1  2  2  3
  1  3  1  0
  3  4  1  0
  3  5  1  0
  4  6  1  0
  5  7  1  0
  6  8  1  0
  7  8  1  0
  8  9  1  0
  9 10  1  0
 10 11  2  0
 10 12  1  0
 11 13  1  0
 12 14  2  0
 13 15  2  0
 14 15  1  0
 14 16  1  0
 17 16  1  6
 17 18  1  0
 17 19  1  0
 18 20  1  0
 19 21  1  0
 20 22  1  0
 21 22  1  0
 21 23  1  6
 23 24  1  0
M  END
