MAK-UNK-849bee6c-18-vinylsulfonamide
     RDKit          3D

 30 32  0  0  0  0  0  0  0  0999 V2000
    7.8440   -3.3900   19.6240 C   0  0  0  0  0  0  0  0  0  0  0  0
    6.9630   -2.4610   18.8520 C   0  0  0  0  0  0  0  0  0  0  0  0
    5.5280   -2.5430   19.8320 S   0  0  0  0  0  0  0  0  0  0  0  0
    5.0590   -3.9200   19.7580 O   0  0  0  0  0  0  0  0  0  0  0  0
    4.7290   -1.3960   19.4680 O   0  0  0  0  0  0  0  0  0  0  0  0
    6.1540   -2.2360   21.3710 N   0  0  0  0  0  0  0  0  0  0  0  0
    7.0930   -1.1550   21.4830 C   0  0  0  0  0  0  0  0  0  0  0  0
    6.1920   -3.3580   22.3220 C   0  0  0  0  0  0  0  0  0  0  0  0
    8.4880   -1.6770   21.7680 C   0  0  0  0  0  0  0  0  0  0  0  0
    7.5350   -3.6020   23.0390 C   0  0  0  0  0  0  0  0  0  0  0  0
    8.5450   -2.5280   22.9540 N   0  0  0  0  0  0  0  0  0  0  0  0
    9.8430   -2.7400   23.5350 C   0  0  0  0  0  0  0  0  0  0  0  0
   10.5020   -1.4320   23.5350 C   0  0  0  0  0  0  0  0  0  0  0  0
    9.6730   -0.3750   24.1880 C   0  0  0  0  0  0  0  0  0  0  0  0
   11.7670   -1.1550   22.9460 C   0  0  0  0  0  0  0  0  0  0  0  0
   10.1990    0.9510   24.1860 C   0  0  0  0  0  0  0  0  0  0  0  0
   12.2400    0.1710   22.9740 C   0  0  0  0  0  0  0  0  0  0  0  0
    9.5290    2.0270   24.7210 C   0  0  0  0  0  0  0  0  0  0  0  0
   11.5190    1.1640   23.5560 C   0  0  0  0  0  0  0  0  0  0  0  0
   13.3620    0.7690   22.4760 N   0  0  0  0  0  0  0  0  0  0  0  0
   13.0390    2.1680   22.4620 C   0  0  0  0  0  0  0  0  0  0  0  0
   11.9510    2.5640   23.2370 C   0  0  0  0  0  0  0  0  0  0  0  0
   13.6470    3.2100   21.7840 C   0  0  0  0  0  0  0  0  0  0  0  0
   11.5560    3.8770   23.3150 C   0  0  0  0  0  0  0  0  0  0  0  0
   13.2510    4.5470   21.8610 C   0  0  0  0  0  0  0  0  0  0  0  0
   14.7950    2.9300   20.9130 C   0  0  0  0  0  0  0  0  0  0  0  0
   12.1830    4.9530   22.6420 C   0  0  0  0  0  0  0  0  0  0  0  0
   15.0070    4.0210   19.9390 N   0  0  0  0  0  0  0  0  0  0  0  0
   11.8330    6.2400   22.7170 N   0  0  0  0  0  0  0  0  0  0  0  0
   11.9730    7.1410   23.7220 C   0  0  0  0  0  0  0  0  0  0  0  0
  1  2  1  0
  3  2  1  0
  3  4  2  0
  3  5  2  0
  3  6  1  0
  6  7  1  0
  6  8  1  0
  7  9  1  0
  8 10  1  0
  9 11  1  0
 10 11  1  0
 11 12  1  0
 12 13  1  0
 13 14  2  0
 13 15  1  0
 14 16  1  0
 15 17  2  0
 16 18  1  0
 16 19  2  0
 17 19  1  0
 17 20  1  0
 20 21  1  0
 21 22  2  0
 21 23  1  0
 22 24  1  0
 23 25  2  0
 23 26  1  0
 24 27  2  0
 25 27  1  0
 26 28  3  0
 27 29  1  0
 29 30  1  0
M  END
