MAK-UNK-8fdbca50-41-chloroacetamide
     RDKit          3D

 39 42  0  0  0  0  0  0  0  0999 V2000
    7.5100   -3.5940   20.0950 C   0  0  0  0  0  0  0  0  0  0  0  0
    6.1050   -3.7620   19.6010 C   0  0  0  0  0  0  0  0  0  0  0  0
    4.9150   -4.0000   19.5600 O   0  0  0  0  0  0  0  0  0  0  0  0
    5.8750   -4.0870   20.9530 N   0  0  0  0  0  0  0  0  0  0  0  0
    5.7370   -3.0450   21.9740 C   0  0  0  0  0  0  0  0  0  0  0  0
    5.9140   -5.4670   21.4840 C   0  0  0  0  0  0  0  0  0  0  0  0
    4.6500   -3.3760   22.9580 C   0  0  0  0  0  0  0  0  0  0  0  0
    5.3160   -5.6180   22.7550 C   0  0  0  0  0  0  0  0  0  0  0  0
    4.3010   -4.7180   23.1580 C   0  0  0  0  0  0  0  0  0  0  0  0
    3.6790   -4.9750   24.3740 C   0  0  0  0  0  0  0  0  0  0  0  0
    2.4860   -4.3390   24.7350 O   0  0  0  0  0  0  0  0  0  0  0  0
    4.3670   -5.9760   25.2430 N   0  0  0  0  0  0  0  0  0  0  0  0
    3.8640   -7.3600   24.9750 C   0  0  0  0  0  0  0  0  0  0  0  0
    4.5400   -5.5830   26.6800 C   0  0  0  0  0  0  0  0  0  0  0  0
    4.6920   -6.7830   27.4470 C   0  0  0  0  0  0  0  0  0  0  0  0
    3.2450   -4.9070   27.1330 C   0  0  0  0  0  0  0  0  0  0  0  0
    5.5270   -4.7440   27.0620 N   0  0  0  0  0  0  0  0  0  0  0  0
    6.7970   -5.2420   27.0220 C   0  0  0  0  0  0  0  0  0  0  0  0
    7.6330   -4.4280   26.2590 C   0  0  0  0  0  0  0  0  0  0  0  0
    9.0860   -4.3170   26.4890 C   0  0  0  0  0  0  0  0  0  0  0  0
    7.4030   -3.5590   25.1710 C   0  0  0  0  0  0  0  0  0  0  0  0
    9.6710   -3.4580   25.6170 C   0  0  0  0  0  0  0  0  0  0  0  0
    8.6050   -2.9650   24.7640 N   0  0  0  0  0  0  0  0  0  0  0  0
   10.9800   -3.0820   25.5100 C   0  0  0  0  0  0  0  0  0  0  0  0
    8.7060   -1.8480   23.4590 S   0  0  0  0  0  0  0  0  0  0  0  0
   11.9630   -3.9670   25.9200 C   0  0  0  0  0  0  0  0  0  0  0  0
   11.3670   -1.8220   25.0160 C   0  0  0  0  0  0  0  0  0  0  0  0
    8.5060   -2.6290   22.2610 O   0  0  0  0  0  0  0  0  0  0  0  0
    7.8120   -0.7600   23.8090 O   0  0  0  0  0  0  0  0  0  0  0  0
   10.3190   -1.1400   23.3200 C   0  0  0  0  0  0  0  0  0  0  0  0
   13.3200   -3.7680   25.9120 C   0  0  0  0  0  0  0  0  0  0  0  0
   12.8620   -1.5250   24.9700 C   0  0  0  0  0  0  0  0  0  0  0  0
   10.4690   -0.9260   24.6180 F   0  0  0  0  0  0  0  0  0  0  0  0
   11.2700   -1.6750   22.4370 C   0  0  0  0  0  0  0  0  0  0  0  0
   10.6780   -0.0200   24.0780 C   0  0  0  0  0  0  0  0  0  0  0  0
   13.8150   -2.5840   25.4550 C   0  0  0  0  0  0  0  0  0  0  0  0
   12.5240   -1.0750   22.3370 C   0  0  0  0  0  0  0  0  0  0  0  0
   11.9030    0.5780   23.9820 N   0  0  0  0  0  0  0  0  0  0  0  0
   12.7920    0.0400   23.1150 C   0  0  0  0  0  0  0  0  0  0  0  0
  1  2  1  0
  2  3  2  0
  2  4  1  0
  4  5  1  0
  4  6  1  0
  5  7  1  0
  6  8  1  0
  7  9  1  0
  8  9  1  0
  9 10  1  0
 10 11  2  0
 10 12  1  0
 12 13  1  0
 14 12  1  0
 14 15  1  0
 14 16  1  0
 14 17  1  0
 17 18  1  0
 18 19  1  0
 19 20  1  0
 19 21  2  0
 20 22  2  0
 21 23  1  0
 22 23  1  0
 22 24  1  0
 23 25  1  0
 24 26  2  0
 24 27  1  0
 25 28  2  0
 25 29  2  0
 25 30  1  0
 26 31  1  0
 27 32  2  0
 27 33  1  0
 30 34  2  0
 30 35  1  0
 31 36  2  0
 32 36  1  0
 34 37  1  0
 35 38  2  0
 37 39  2  0
 38 39  1  0
M  END
