MAK-UNK-e4a48a85-8-nitrile
     RDKit          3D

 29 32  0  0  0  0  0  0  0  0999 V2000
    6.7810   -3.3150   19.5190 C   0  0  0  0  0  0  0  0  0  0  0  0
    5.9580   -3.0320   18.5930 N   0  0  0  0  0  0  0  0  0  0  0  0
    6.7350   -2.6860   20.7510 N   0  0  0  0  0  0  0  0  0  0  0  0
    6.3360   -3.3330   22.0030 C   0  0  0  0  0  0  0  0  0  0  0  0
    7.4070   -1.4060   20.9630 C   0  0  0  0  0  0  0  0  0  0  0  0
    7.4230   -3.4790   22.8800 C   0  0  0  0  0  0  0  0  0  0  0  0
    8.5390   -1.5870   21.7590 C   0  0  0  0  0  0  0  0  0  0  0  0
    8.3110   -2.2950   22.9300 N   0  0  0  0  0  0  0  0  0  0  0  0
    9.3180   -2.2230   23.8770 C   0  0  0  0  0  0  0  0  0  0  0  0
   10.5260   -1.3480   23.5650 C   0  0  0  0  0  0  0  0  0  0  0  0
   11.8520   -1.9850   23.2950 C   0  0  0  0  0  0  0  0  0  0  0  0
   10.5000    0.0590   23.5090 C   0  0  0  0  0  0  0  0  0  0  0  0
   12.9450   -1.1900   23.0200 C   0  0  0  0  0  0  0  0  0  0  0  0
   11.6700    0.7910   23.2250 C   0  0  0  0  0  0  0  0  0  0  0  0
   12.8380    0.1970   22.9920 C   0  0  0  0  0  0  0  0  0  0  0  0
   11.7280    2.1960   23.1700 N   0  0  0  0  0  0  0  0  0  0  0  0
   10.6420    2.9280   22.8790 C   0  0  0  0  0  0  0  0  0  0  0  0
    9.7310    2.5940   22.1280 O   0  0  0  0  0  0  0  0  0  0  0  0
   10.6810    4.2490   23.6080 C   0  0  0  0  0  0  0  0  0  0  0  0
    9.7700    4.6360   24.7180 C   0  0  0  0  0  0  0  0  0  0  0  0
   11.7690    5.5750   23.3250 S   0  0  0  0  0  0  0  0  0  0  0  0
    9.9200    5.8560   25.2790 N   0  0  0  0  0  0  0  0  0  0  0  0
   11.0160    6.5070   24.5930 C   0  0  0  0  0  0  0  0  0  0  0  0
   11.3870    7.8100   24.9760 C   0  0  0  0  0  0  0  0  0  0  0  0
   11.7910    7.8290   26.4250 C   0  0  0  0  0  0  0  0  0  0  0  0
   11.6690    6.5390   27.2450 C   0  0  0  0  0  0  0  0  0  0  0  0
   12.2650    8.9650   27.0470 C   0  0  0  0  0  0  0  0  0  0  0  0
   12.2020    7.1910   28.5200 C   0  0  0  0  0  0  0  0  0  0  0  0
   12.6760    8.8130   28.6580 S   0  0  0  0  0  0  0  0  0  0  0  0
  1  2  2  3
  1  3  1  0
  3  4  1  0
  3  5  1  0
  4  6  1  0
  5  7  1  0
  6  8  1  0
  7  8  1  0
  8  9  1  0
  9 10  1  0
 10 11  2  0
 10 12  1  0
 11 13  1  0
 12 14  2  0
 13 15  2  0
 14 15  1  0
 14 16  1  0
 16 17  1  0
 17 18  2  0
 17 19  1  0
 19 20  2  0
 19 21  1  0
 20 22  1  0
 21 23  1  0
 22 23  2  0
 23 24  1  0
 24 25  1  0
 25 26  1  0
 25 27  2  0
 26 28  2  0
 27 29  1  0
 28 29  1  0
M  END
