MAK-UNK-516d8086-19-nitrile
     RDKit          3D

 22 24  0  0  0  0  0  0  0  0999 V2000
    7.3320   -3.1490   19.6950 C   0  0  0  0  0  0  0  0  0  0  0  0
    6.1680   -3.3530   19.2080 N   0  0  0  0  0  0  0  0  0  0  0  0
    7.6710   -1.8560   20.4960 C   0  0  0  0  0  0  0  0  0  0  0  0
    6.5810   -0.7820   20.6390 C   0  0  0  0  0  0  0  0  0  0  0  0
    8.9080   -1.4750   21.1660 C   0  0  0  0  0  0  0  0  0  0  0  0
    6.7590    0.3760   21.3160 N   0  0  0  0  0  0  0  0  0  0  0  0
    9.0620   -0.2030   21.8730 C   0  0  0  0  0  0  0  0  0  0  0  0
    7.9450    0.6650   21.9150 C   0  0  0  0  0  0  0  0  0  0  0  0
   10.3890    0.2550   22.5920 C   0  0  0  0  0  0  0  0  0  0  0  0
    8.0680    1.8700   22.6200 N   0  0  0  0  0  0  0  0  0  0  0  0
   10.8880   -0.8100   23.5060 C   0  0  0  0  0  0  0  0  0  0  0  0
    8.5400    3.0750   21.9700 C   0  0  0  0  0  0  0  0  0  0  0  0
   12.3290   -1.0370   24.0140 C   0  0  0  0  0  0  0  0  0  0  0  0
    9.8650   -1.5440   23.7970 N   0  0  0  0  0  0  0  0  0  0  0  0
    9.9040    3.2250   22.2470 C   0  0  0  0  0  0  0  0  0  0  0  0
   12.4610   -2.1660   24.8400 C   0  0  0  0  0  0  0  0  0  0  0  0
   10.1070   -2.5360   24.5550 C   0  0  0  0  0  0  0  0  0  0  0  0
   11.3020   -2.9410   25.1080 C   0  0  0  0  0  0  0  0  0  0  0  0
    9.0370   -3.3000   24.8610 C   0  0  0  0  0  0  0  0  0  0  0  0
    7.8360   -3.0290   24.8510 O   0  0  0  0  0  0  0  0  0  0  0  0
    9.6140   -4.4450   25.1990 N   0  0  0  0  0  0  0  0  0  0  0  0
   10.8540   -4.1520   25.8420 C   0  0  0  0  0  0  0  0  0  0  0  0
  1  2  2  3
  1  3  1  0
  3  4  2  0
  3  5  1  0
  4  6  1  0
  5  7  2  0
  6  8  2  0
  7  8  1  0
  7  9  1  0
  8 10  1  0
  9 11  1  0
 10 12  1  0
 11 13  2  0
 11 14  1  0
 12 15  1  0
 13 16  1  0
 14 17  2  0
 16 18  2  0
 17 18  1  0
 17 19  1  0
 19 20  2  0
 19 21  1  0
 18 22  1  0
 21 22  1  0
M  END
