MAK-UNK-8fdbca50-9-nitrile
     RDKit          3D

 38 41  0  0  0  0  0  0  0  0999 V2000
    6.3560   -4.6500   20.4300 C   0  0  0  0  0  0  0  0  0  0  0  0
    5.1800   -4.6440   19.9720 N   0  0  0  0  0  0  0  0  0  0  0  0
    6.5210   -4.1930   21.7510 N   0  0  0  0  0  0  0  0  0  0  0  0
    5.3410   -3.6990   22.5210 C   0  0  0  0  0  0  0  0  0  0  0  0
    7.7930   -4.2660   22.5000 C   0  0  0  0  0  0  0  0  0  0  0  0
    5.6320   -2.4010   23.3100 C   0  0  0  0  0  0  0  0  0  0  0  0
    7.8650   -3.3150   23.5210 C   0  0  0  0  0  0  0  0  0  0  0  0
    7.0820   -2.0520   23.1360 C   0  0  0  0  0  0  0  0  0  0  0  0
    7.6860   -0.8990   23.7260 C   0  0  0  0  0  0  0  0  0  0  0  0
    8.8440   -0.9720   24.1290 O   0  0  0  0  0  0  0  0  0  0  0  0
    6.8130    0.3590   23.7460 N   0  0  0  0  0  0  0  0  0  0  0  0
    6.4590    0.9030   25.0710 C   0  0  0  0  0  0  0  0  0  0  0  0
    6.6580    1.1430   22.4860 C   0  0  2  0  0  0  0  0  0  0  0  0
    5.1720    1.4160   22.3330 C   0  0  0  0  0  0  0  0  0  0  0  0
    7.0870    0.1740   21.3650 C   0  0  0  0  0  0  0  0  0  0  0  0
    7.2470   -1.1800   21.9340 C   0  0  0  0  0  0  0  0  0  0  0  0
    7.3170    0.4280   20.0010 C   0  0  0  0  0  0  0  0  0  0  0  0
    7.6640   -2.2440   20.9700 C   0  0  0  0  0  0  0  0  0  0  0  0
    7.7110   -0.6480   19.1630 C   0  0  0  0  0  0  0  0  0  0  0  0
    7.8590   -1.9190   19.6820 C   0  0  0  0  0  0  0  0  0  0  0  0
    8.0570   -0.4820   17.3710 S   0  0  0  0  0  0  0  0  0  0  0  0
    8.4050   -1.7120   16.7260 O   0  0  0  0  0  0  0  0  0  0  0  0
    8.8530    0.2240   16.5170 O   0  0  0  0  0  0  0  0  0  0  0  0
    7.0620    0.7150   17.1250 N   0  0  0  0  0  0  0  0  0  0  0  0
    6.2860    1.2170   18.2660 C   0  0  0  0  0  0  0  0  0  0  0  0
    6.8410    1.3020   15.9960 C   0  0  0  0  0  0  0  0  0  0  0  0
    5.3570    2.1510   18.0520 C   0  0  0  0  0  0  0  0  0  0  0  0
    5.6200    2.2770   16.5260 C   0  0  0  0  0  0  0  0  0  0  0  0
    7.5700    0.9620   14.6970 C   0  0  0  0  0  0  0  0  0  0  0  0
    4.5060    2.7010   19.0170 C   0  0  0  0  0  0  0  0  0  0  0  0
    8.8470    0.4610   14.8860 C   0  0  0  0  0  0  0  0  0  0  0  0
    7.2860    1.0130   13.2240 C   0  0  0  0  0  0  0  0  0  0  0  0
    3.1720    2.3690   18.9610 N   0  0  0  0  0  0  0  0  0  0  0  0
    9.7440    0.1020   13.8890 C   0  0  0  0  0  0  0  0  0  0  0  0
    8.1980    0.6470   12.2310 C   0  0  0  0  0  0  0  0  0  0  0  0
    6.1870    1.4160   12.5930 F   0  0  0  0  0  0  0  0  0  0  0  0
    2.7420    1.7160   20.0170 C   0  0  0  0  0  0  0  0  0  0  0  0
    9.4500    0.1930   12.5600 C   0  0  0  0  0  0  0  0  0  0  0  0
  1  2  2  3
  1  3  1  0
  3  4  1  0
  3  5  1  0
  4  6  1  0
  5  7  1  0
  6  8  1  0
  7  8  1  0
  8  9  1  0
  9 10  2  0
  9 11  1  0
 11 12  1  0
 11 13  1  0
 13 14  1  6
 13 15  1  0
 15 16  2  0
 15 17  1  0
 16 18  1  0
 17 19  2  0
 18 20  2  0
 19 20  1  0
 21 19  1  0
 21 22  2  0
 21 23  2  0
 21 24  1  0
 24 25  1  0
 24 26  1  0
 25 27  2  0
 26 28  2  0
 27 28  1  0
 26 29  1  0
 27 30  1  0
 29 31  2  0
 29 32  1  0
 30 33  1  0
 31 34  1  0
 32 35  2  0
 32 36  1  0
 33 37  1  0
 34 38  2  0
 35 38  1  0
M  END
