MAK-UNK-30aad1f1-16-nitrile
     RDKit          3D

 25 27  0  0  0  0  0  0  0  0999 V2000
    6.7880   -3.5950   19.4670 C   0  0  0  0  0  0  0  0  0  0  0  0
    5.9810   -4.4930   19.9060 N   0  0  0  0  0  0  0  0  0  0  0  0
    6.3450   -2.2490   19.2400 C   0  0  0  0  0  0  0  0  0  0  0  0
    7.0900   -1.2420   18.3730 C   0  0  0  0  0  0  0  0  0  0  0  0
    5.2020   -1.8680   19.8310 C   0  0  0  0  0  0  0  0  0  0  0  0
    6.4860    0.1540   18.2120 C   0  0  0  0  0  0  0  0  0  0  0  0
    4.6320   -0.6540   19.7260 N   0  0  0  0  0  0  0  0  0  0  0  0
    5.2010    0.2950   18.9800 C   0  0  0  0  0  0  0  0  0  0  0  0
    4.5250    1.5580   18.9790 N   0  0  0  0  0  0  0  0  0  0  0  0
    5.0260    1.7640   20.3130 C   0  0  0  0  0  0  0  0  0  0  0  0
    6.4240    1.5900   20.4160 C   0  0  0  0  0  0  0  0  0  0  0  0
    4.2290    2.0710   21.3920 C   0  0  0  0  0  0  0  0  0  0  0  0
    7.0110    1.7380   21.6450 N   0  0  0  0  0  0  0  0  0  0  0  0
    4.8040    2.2220   22.6230 C   0  0  0  0  0  0  0  0  0  0  0  0
    6.1960    2.0520   22.7210 C   0  0  0  0  0  0  0  0  0  0  0  0
    4.0950    2.5230   23.7260 N   0  0  0  0  0  0  0  0  0  0  0  0
    2.7620    2.3280   23.8810 C   0  0  0  0  0  0  0  0  0  0  0  0
    2.2640    1.5720   24.7100 O   0  0  0  0  0  0  0  0  0  0  0  0
    1.8950    3.0430   23.0260 N   0  0  0  0  0  0  0  0  0  0  0  0
    0.6270    3.5290   23.5760 C   0  0  0  0  0  0  0  0  0  0  0  0
   -0.6090    2.8060   23.0570 C   0  0  0  0  0  0  0  0  0  0  0  0
    0.5970    4.5690   24.4930 C   0  0  0  0  0  0  0  0  0  0  0  0
   -1.9750    3.2350   23.5590 C   0  0  0  0  0  0  0  0  0  0  0  0
   -0.7700    5.0480   25.0380 C   0  0  0  0  0  0  0  0  0  0  0  0
   -2.0690    4.3680   24.5600 C   0  0  0  0  0  0  0  0  0  0  0  0
  1  2  2  3
  1  3  1  0
  3  4  2  0
  3  5  1  0
  4  6  1  0
  5  7  2  0
  6  8  2  0
  7  8  1  0
  8  9  1  0
  9 10  1  0
 10 11  2  0
 10 12  1  0
 11 13  1  0
 12 14  2  0
 13 15  2  0
 14 15  1  0
 14 16  1  0
 16 17  1  0
 17 18  2  0
 17 19  1  0
 19 20  1  0
 20 21  2  0
 20 22  1  0
 21 23  1  0
 22 24  2  0
 23 25  2  0
 24 25  1  0
M  END
