MAK-UNK-9955b1f3-5-chloroacetamide
     RDKit          3D

 16 16  0  0  0  0  0  0  0  0999 V2000
    7.2760   -3.4700   20.1430 C   0  0  0  0  0  0  0  0  0  0  0  0
    7.7750   -2.0990   19.7850 C   0  0  0  0  0  0  0  0  0  0  0  0
    7.0560   -2.5920   18.7400 O   0  0  0  0  0  0  0  0  0  0  0  0
    8.3150   -2.2790   21.2440 C   0  0  0  0  0  0  0  0  0  0  0  0
    7.3740   -2.1050   22.5150 C   0  0  0  0  0  0  0  0  0  0  0  0
    9.7300   -2.6990   21.5650 N   0  0  0  0  0  0  0  0  0  0  0  0
    7.8260   -2.4340   23.9570 C   0  0  0  0  0  0  0  0  0  0  0  0
   10.1060   -3.0110   22.9340 C   0  0  0  0  0  0  0  0  0  0  0  0
    9.2590   -2.9280   23.9900 C   0  0  0  0  0  0  0  0  0  0  0  0
    9.5050   -3.3390   25.4540 C   0  0  0  0  0  0  0  0  0  0  0  0
    9.6460   -4.7330   25.4870 N   0  0  0  0  0  0  0  0  0  0  0  0
    9.6620   -5.3970   26.7780 C   0  0  0  0  0  0  0  0  0  0  0  0
    9.2000   -5.3680   24.3550 C   0  0  0  0  0  0  0  0  0  0  0  0
    7.8020   -5.4660   24.2940 C   0  0  0  0  0  0  0  0  0  0  0  0
    7.2840   -5.1760   25.6400 N   0  0  0  0  0  0  0  0  0  0  0  0
    7.0280   -5.7570   23.2680 N   0  0  0  0  0  0  0  0  0  0  0  0
  1  2  1  0
  2  3  2  0
  2  4  1  0
  4  5  2  0
  4  6  1  0
  5  7  1  0
  6  8  2  0
  7  9  2  0
  8  9  1  0
  9 10  1  0
 10 11  1  0
 11 12  1  0
 11 13  1  0
 13 14  1  0
 14 15  2  3
 14 16  1  0
M  END
