MAK-UNK-194150d3-8
     RDKit          3D

 19 19  0  0  0  0  0  0  0  0999 V2000
    1.8770   -5.9930   26.0330 O   0  0  0  0  0  0  0  0  0  0  0  0
    1.9180   -5.2510   25.0580 C   0  0  0  0  0  0  0  0  0  0  0  0
    2.3650   -5.8030   23.4560 S   0  0  0  0  0  0  0  0  0  0  0  0
    4.1720   -5.5440   23.4730 C   0  0  0  0  0  0  0  0  0  0  0  0
    4.6050   -4.1320   23.0750 C   0  0  0  0  0  0  0  0  0  0  0  0
    5.6420   -4.1130   22.0650 N   0  0  0  0  0  0  0  0  0  0  0  0
    5.5080   -3.3580   20.8130 C   0  0  0  0  0  0  0  0  0  0  0  0
    5.2350   -3.8990   19.7330 O   0  0  0  0  0  0  0  0  0  0  0  0
    5.7610   -1.8540   20.9900 C   0  0  0  0  0  0  0  0  0  0  0  0
    7.1460   -1.5050   21.5890 C   0  0  0  0  0  0  0  0  0  0  0  0
    7.4470   -0.0640   21.4870 N   0  0  0  0  0  0  0  0  0  0  0  0
    8.8740    0.2010   21.7310 C   0  0  0  0  0  0  0  0  0  0  0  0
    9.2420   -0.1600   23.1670 C   0  0  0  0  0  0  0  0  0  0  0  0
   10.5680   -0.6150   23.3210 C   0  0  0  0  0  0  0  0  0  0  0  0
   11.2460   -1.2880   22.2930 C   0  0  0  0  0  0  0  0  0  0  0  0
   11.2180   -0.3910   24.5350 C   0  0  0  0  0  0  0  0  0  0  0  0
   12.5470   -1.7330   22.4820 C   0  0  0  0  0  0  0  0  0  0  0  0
   12.5200   -0.8330   24.7240 C   0  0  0  0  0  0  0  0  0  0  0  0
   13.1850   -1.5090   23.6950 C   0  0  0  0  0  0  0  0  0  0  0  0
  1  2  2  0
  2  3  1  0
  3  4  1  0
  4  5  1  0
  5  6  1  0
  6  7  1  0
  7  8  2  0
  7  9  1  0
  9 10  1  0
 10 11  1  0
 11 12  1  0
 12 13  1  0
 13 14  1  0
 14 15  2  0
 14 16  1  0
 15 17  1  0
 16 18  2  0
 17 19  2  0
 18 19  1  0
M  END
