MAK-UNK-72659d64-4-nitrile
     RDKit          3D

 12 12  0  0  0  0  0  0  0  0999 V2000
    7.2840   -3.3590   19.3700 C   0  0  0  0  0  0  0  0  0  0  0  0
    6.3480   -3.1140   18.5280 N   0  0  0  0  0  0  0  0  0  0  0  0
    7.0310   -3.6170   20.6550 N   0  0  0  0  0  0  0  0  0  0  0  0
    6.5010   -4.9170   20.8980 C   0  0  0  0  0  0  0  0  0  0  0  0
    5.9580   -5.0180   22.2640 C   0  0  0  0  0  0  0  0  0  0  0  0
    6.5420   -4.4440   23.5440 C   0  0  0  0  0  0  0  0  0  0  0  0
    4.7810   -5.7070   22.4680 N   0  0  0  0  0  0  0  0  0  0  0  0
    6.0070   -4.5350   24.9240 C   0  0  0  0  0  0  0  0  0  0  0  0
    4.2570   -5.8210   23.7070 C   0  0  0  0  0  0  0  0  0  0  0  0
    4.8170   -5.2650   24.9480 N   0  0  0  0  0  0  0  0  0  0  0  0
    2.9620   -6.5950   23.8850 C   0  0  0  0  0  0  0  0  0  0  0  0
    1.8230   -7.2890   24.0340 N   0  0  0  0  0  0  0  0  0  0  0  0
  1  2  2  3
  1  3  1  0
  3  4  1  0
  4  5  1  0
  5  6  2  0
  5  7  1  0
  6  8  1  0
  7  9  2  0
  8 10  2  0
  9 10  1  0
  9 11  1  0
 11 12  3  0
M  END
