MAK-UNK-8fdbca50-7-acrylamide
     RDKit          3D

 40 43  0  0  0  0  0  0  0  0999 V2000
    6.8590   -3.0820   19.0300 C   0  0  0  0  0  0  0  0  0  0  0  0
    5.7800   -3.7490   19.8590 C   0  0  0  0  0  0  0  0  0  0  0  0
    5.7510   -3.3460   21.3160 C   0  0  0  0  0  0  0  0  0  0  0  0
    4.6660   -3.3550   21.8850 O   0  0  0  0  0  0  0  0  0  0  0  0
    6.9040   -3.0380   22.0180 N   0  0  0  0  0  0  0  0  0  0  0  0
    7.1110   -3.4280   23.4060 C   0  0  0  0  0  0  0  0  0  0  0  0
    7.7370   -1.9060   21.6520 C   0  0  0  0  0  0  0  0  0  0  0  0
    8.4510   -3.6450   23.7300 C   0  0  0  0  0  0  0  0  0  0  0  0
    9.2050   -2.1620   22.0200 C   0  0  0  0  0  0  0  0  0  0  0  0
    9.3870   -2.6250   23.4860 C   0  0  0  0  0  0  0  0  0  0  0  0
   10.7350   -3.0500   23.6910 C   0  0  0  0  0  0  0  0  0  0  0  0
   10.9170   -3.8340   24.6160 O   0  0  0  0  0  0  0  0  0  0  0  0
   11.8890   -2.5390   22.8140 N   0  0  0  0  0  0  0  0  0  0  0  0
   11.4890   -2.1560   21.4620 C   0  0  0  0  0  0  0  0  0  0  0  0
   12.8430   -1.6690   23.4410 C   0  0  2  0  0  0  0  0  0  0  0  0
   13.3370   -2.2560   24.7280 C   0  0  0  0  0  0  0  0  0  0  0  0
   11.8870   -0.5590   23.7360 C   0  0  0  0  0  0  0  0  0  0  0  0
   12.3700    0.7680   23.4340 C   0  0  0  0  0  0  0  0  0  0  0  0
   10.5940   -0.8720   24.2660 C   0  0  0  0  0  0  0  0  0  0  0  0
   11.6880    1.9980   23.5910 N   0  0  0  0  0  0  0  0  0  0  0  0
   10.6280    0.4340   24.1360 C   0  0  0  0  0  0  0  0  0  0  0  0
   10.4670    1.7190   24.0800 C   0  0  0  0  0  0  0  0  0  0  0  0
    8.9470    0.3130   24.7420 S   0  0  0  0  0  0  0  0  0  0  0  0
    8.9690   -0.6830   25.7960 O   0  0  0  0  0  0  0  0  0  0  0  0
    8.1740    0.0390   23.5490 O   0  0  0  0  0  0  0  0  0  0  0  0
    8.0890    1.6760   25.3030 N   0  0  0  0  0  0  0  0  0  0  0  0
    7.0260    1.4580   26.2700 C   0  0  0  0  0  0  0  0  0  0  0  0
    8.0760    3.1600   25.0890 C   0  0  0  0  0  0  0  0  0  0  0  0
    6.2910    2.5090   26.7560 C   0  0  0  0  0  0  0  0  0  0  0  0
    6.9370    3.6610   26.0160 C   0  0  0  0  0  0  0  0  0  0  0  0
    8.7980    4.0900   24.3160 C   0  0  0  0  0  0  0  0  0  0  0  0
    5.2670    2.4100   27.6700 C   0  0  0  0  0  0  0  0  0  0  0  0
    7.5010    4.5740   23.8820 C   0  0  0  0  0  0  0  0  0  0  0  0
    8.9580    5.1260   23.4540 C   0  0  0  0  0  0  0  0  0  0  0  0
    4.2260    2.9860   26.9960 N   0  0  0  0  0  0  0  0  0  0  0  0
    7.1560    5.6590   22.9650 C   0  0  0  0  0  0  0  0  0  0  0  0
    9.2600    6.1330   22.6200 C   0  0  0  0  0  0  0  0  0  0  0  0
   10.2860    4.9990   23.5890 F   0  0  0  0  0  0  0  0  0  0  0  0
    4.4880    4.3220   26.8870 C   0  0  0  0  0  0  0  0  0  0  0  0
    8.0290    6.5350   22.2520 C   0  0  0  0  0  0  0  0  0  0  0  0
  1  2  1  0
  2  3  1  0
  3  4  2  0
  3  5  1  0
  5  6  1  0
  5  7  1  0
  6  8  1  0
  7  9  1  0
  8 10  1  0
  9 10  1  0
 10 11  1  0
 11 12  2  0
 11 13  1  0
 13 14  1  0
 13 15  1  0
 15 16  1  1
 15 17  1  0
 17 18  2  0
 17 19  1  0
 18 20  1  0
 19 21  2  0
 20 22  2  0
 21 22  1  0
 23 21  1  0
 23 24  2  0
 23 25  2  0
 23 26  1  0
 26 27  1  0
 26 28  1  0
 27 29  2  0
 28 30  2  0
 29 30  1  0
 28 31  1  0
 29 32  1  0
 31 33  2  0
 31 34  1  0
 32 35  1  0
 33 36  1  0
 34 37  2  0
 34 38  1  0
 35 39  1  0
 36 40  2  0
 37 40  1  0
M  END
