MAK-UNK-9e4a73aa-16
     RDKit          3D

 26 29  0  0  0  0  0  0  0  0999 V2000
    8.5070    0.2150   23.6280 O   0  0  0  0  0  0  0  0  0  0  0  0
    8.4010   -0.8670   23.0320 C   0  0  0  0  0  0  0  0  0  0  0  0
    7.6260   -0.9510   21.7880 C   0  0  0  0  0  0  0  0  0  0  0  0
    8.9510   -2.0410   23.4300 N   0  0  0  0  0  0  0  0  0  0  0  0
    7.5840    0.3030   21.0340 C   0  0  0  0  0  0  0  0  0  0  0  0
    6.9990   -2.1250   21.3990 C   0  0  0  0  0  0  0  0  0  0  0  0
    8.2690   -3.2170   23.2370 C   0  0  0  0  0  0  0  0  0  0  0  0
   10.3190   -1.8630   23.5940 C   0  0  0  0  0  0  0  0  0  0  0  0
    6.8780    0.2790   19.8930 C   0  0  0  0  0  0  0  0  0  0  0  0
    6.2720   -2.1020   20.2020 C   0  0  0  0  0  0  0  0  0  0  0  0
    7.1780   -3.2210   22.2850 N   0  0  0  0  0  0  0  0  0  0  0  0
    8.5110   -4.2380   23.8670 O   0  0  0  0  0  0  0  0  0  0  0  0
   10.7670   -0.5530   23.1210 C   0  0  0  0  0  0  0  0  0  0  0  0
   11.4460   -2.6960   24.1560 C   0  0  0  0  0  0  0  0  0  0  0  0
    6.7710    1.3680   19.1340 F   0  0  0  0  0  0  0  0  0  0  0  0
    6.2340   -0.8850   19.4740 C   0  0  0  0  0  0  0  0  0  0  0  0
    6.2070   -4.1730   22.5450 C   0  0  0  0  0  0  0  0  0  0  0  0
   12.1080   -0.2110   23.2050 C   0  0  0  0  0  0  0  0  0  0  0  0
   12.7270   -2.2100   24.1820 N   0  0  0  0  0  0  0  0  0  0  0  0
    5.4010   -0.6820   18.0300 Cl  0  0  0  0  0  0  0  0  0  0  0  0
    4.7240   -3.8230   22.8460 C   0  0  0  0  0  0  0  0  0  0  0  0
    6.5120   -5.5230   22.5580 C   0  0  0  0  0  0  0  0  0  0  0  0
   13.0490   -0.9910   23.7070 N   0  0  0  0  0  0  0  0  0  0  0  0
    3.7140   -4.9160   23.1300 C   0  0  0  0  0  0  0  0  0  0  0  0
    5.5850   -6.5480   22.8180 C   0  0  0  0  0  0  0  0  0  0  0  0
    4.2400   -6.3390   23.0980 C   0  0  0  0  0  0  0  0  0  0  0  0
  1  2  2  0
  2  3  1  0
  2  4  1  0
  3  5  2  0
  3  6  1  0
  4  7  1  0
  4  8  1  0
  5  9  1  0
  6 10  2  0
  6 11  1  0
  7 11  1  0
  7 12  2  0
  8 13  2  0
  8 14  1  0
  9 15  1  0
  9 16  2  0
 10 16  1  0
 11 17  1  0
 13 18  1  0
 14 19  2  0
 16 20  1  0
 17 21  2  0
 17 22  1  0
 18 23  2  0
 19 23  1  0
 21 24  1  0
 22 25  2  0
 24 26  2  0
 25 26  1  0
M  END
