MAK-UNK-10799360-23-bromoalkyne
     RDKit          3D

 30 34  0  0  0  0  0  0  0  0999 V2000
    6.9290   -3.6090   19.8540 C   0  0  0  0  0  0  0  0  0  0  0  0
    6.2680   -2.8640   18.7000 C   0  0  0  0  0  0  0  0  0  0  0  0
    6.5940   -3.1780   21.1180 N   0  0  0  0  0  0  0  0  0  0  0  0
    6.3140   -3.9360   22.3450 C   0  0  0  0  0  0  0  0  0  0  0  0
    6.9090   -1.8040   21.5330 C   0  0  1  0  0  0  0  0  0  0  0  0
    6.9110   -2.9750   23.4020 C   0  0  2  0  0  0  0  0  0  0  0  0
    6.2510   -1.6930   22.9100 C   0  0  0  0  0  0  0  0  0  0  0  0
    8.3850   -1.8130   21.9430 C   0  0  0  0  0  0  0  0  0  0  0  0
    8.3530   -2.7390   23.1040 N   0  0  0  0  0  0  0  0  0  0  0  0
    9.2290   -2.4230   24.2420 C   0  0  0  0  0  0  0  0  0  0  0  0
   10.2300   -1.3820   23.7740 C   0  0  0  0  0  0  0  0  0  0  0  0
   11.3050   -1.8220   23.0320 C   0  0  0  0  0  0  0  0  0  0  0  0
   10.0930    0.0380   24.0390 C   0  0  0  0  0  0  0  0  0  0  0  0
   12.2360   -0.9520   22.5500 C   0  0  0  0  0  0  0  0  0  0  0  0
   11.1140    0.8910   23.5070 C   0  0  0  0  0  0  0  0  0  0  0  0
    9.0180    0.6830   24.7730 C   0  0  0  0  0  0  0  0  0  0  0  0
   13.4520   -1.6080   21.6190 Cl  0  0  0  0  0  0  0  0  0  0  0  0
   12.1750    0.4000   22.7850 C   0  0  0  0  0  0  0  0  0  0  0  0
   11.0280    2.3670   23.7120 C   0  0  0  0  0  0  0  0  0  0  0  0
    8.9410    2.0710   24.9560 C   0  0  0  0  0  0  0  0  0  0  0  0
    8.0490   -0.1340   25.2880 O   0  0  0  0  0  0  0  0  0  0  0  0
    9.8940    2.9430   24.4530 C   0  0  0  0  0  0  0  0  0  0  0  0
    7.7350   -0.0610   26.6780 C   0  0  0  0  0  0  0  0  0  0  0  0
    6.6090   -0.8540   26.8960 C   0  0  0  0  0  0  0  0  0  0  0  0
    5.9910   -0.7870   28.2260 N   0  0  0  0  0  0  0  0  0  0  0  0
    5.0530   -1.8000   28.4430 C   0  0  0  0  0  0  0  0  0  0  0  0
    7.0270   -0.7620   29.2930 C   0  0  0  0  0  0  0  0  0  0  0  0
    5.2360   -2.3160   29.7310 C   0  0  0  0  0  0  0  0  0  0  0  0
    6.4180   -0.4420   30.5240 C   0  0  0  0  0  0  0  0  0  0  0  0
    5.2560   -1.2580   30.7030 O   0  0  0  0  0  0  0  0  0  0  0  0
  1  2  2  3
  1  3  1  0
  3  4  1  0
  3  5  1  0
  6  4  1  6
  5  7  1  0
  6  7  1  0
  5  8  1  1
  6  9  1  0
  8  9  1  0
  9 10  1  0
 10 11  1  0
 11 12  2  0
 11 13  1  0
 12 14  1  0
 13 15  2  0
 13 16  1  0
 14 17  1  0
 14 18  2  0
 15 18  1  0
 15 19  1  0
 16 20  2  0
 16 21  1  0
 19 22  2  0
 20 22  1  0
 21 23  1  0
 23 24  1  0
 24 25  1  0
 25 26  1  0
 25 27  1  0
 26 28  1  0
 27 29  1  0
 28 30  1  0
 29 30  1  0
M  END
