MAK-UNK-702fb7d3-8-chloroacetamide
     RDKit          3D

 42 47  0  0  0  0  0  0  0  0999 V2000
    8.6840   -3.5160   20.3230 C   0  0  0  0  0  0  0  0  0  0  0  0
    7.4720   -4.0000   21.0020 C   0  0  0  0  0  0  0  0  0  0  0  0
    6.4250   -4.3110   20.1900 O   0  0  0  0  0  0  0  0  0  0  0  0
    7.7500   -4.0000   22.5180 N   0  0  0  0  0  0  0  0  0  0  0  0
    6.7680   -3.7920   23.5940 C   0  0  0  0  0  0  0  0  0  0  0  0
    9.0450   -3.5450   23.1150 C   0  0  0  0  0  0  0  0  0  0  0  0
    7.2420   -4.4650   24.9230 C   0  0  0  0  0  0  0  0  0  0  0  0
    9.5520   -4.3660   24.3390 C   0  0  2  0  0  0  0  0  0  0  0  0
    6.1570   -4.8530   25.8870 C   0  0  0  0  0  0  0  0  0  0  0  0
    8.5870   -4.7340   25.2610 C   0  0  0  0  0  0  0  0  0  0  0  0
   10.9040   -3.8130   24.7010 C   0  0  0  0  0  0  0  0  0  0  0  0
    4.7600   -4.5310   25.4540 N   0  0  0  0  0  0  0  0  0  0  0  0
    6.5590   -5.4810   27.1000 C   0  0  0  0  0  0  0  0  0  0  0  0
    8.9180   -5.3560   26.4580 C   0  0  0  0  0  0  0  0  0  0  0  0
   11.5400   -2.8160   23.7510 C   0  0  0  0  0  0  0  0  0  0  0  0
   11.6010   -4.1950   25.8360 C   0  0  0  0  0  0  0  0  0  0  0  0
    3.7750   -5.3760   25.9810 C   0  0  0  0  0  0  0  0  0  0  0  0
    7.9130   -5.7270   27.3760 C   0  0  0  0  0  0  0  0  0  0  0  0
   12.8120   -2.3260   24.0330 C   0  0  0  0  0  0  0  0  0  0  0  0
   12.8710   -3.6840   26.0470 C   0  0  0  0  0  0  0  0  0  0  0  0
    2.5530   -4.7530   26.2300 C   0  0  0  0  0  0  0  0  0  0  0  0
   13.4700   -2.7730   25.1820 C   0  0  0  0  0  0  0  0  0  0  0  0
    2.2790   -3.2600   26.0780 C   0  0  0  0  0  0  0  0  0  0  0  0
    1.2910   -5.2310   26.6610 C   0  0  0  0  0  0  0  0  0  0  0  0
    0.9050   -2.9400   26.4200 C   0  0  0  0  0  0  0  0  0  0  0  0
    0.3320   -4.1940   26.7740 N   0  0  0  0  0  0  0  0  0  0  0  0
    0.3430   -1.6480   26.3840 C   0  0  0  0  0  0  0  0  0  0  0  0
   -1.2690   -4.4390   27.2650 S   0  0  0  0  0  0  0  0  0  0  0  0
   -0.7040   -1.3820   25.4970 C   0  0  0  0  0  0  0  0  0  0  0  0
    0.8080   -0.5980   27.2220 C   0  0  0  0  0  0  0  0  0  0  0  0
   -1.4490   -3.6960   28.4950 O   0  0  0  0  0  0  0  0  0  0  0  0
   -1.5730   -5.8530   27.2280 O   0  0  0  0  0  0  0  0  0  0  0  0
   -2.2450   -3.6330   26.0530 C   0  0  0  0  0  0  0  0  0  0  0  0
   -1.3130   -0.1410   25.4000 C   0  0  0  0  0  0  0  0  0  0  0  0
    0.2320    0.6930   27.1750 C   0  0  0  0  0  0  0  0  0  0  0  0
    1.8130   -0.8110   28.0870 F   0  0  0  0  0  0  0  0  0  0  0  0
   -2.9980   -2.3700   26.3300 C   0  0  0  0  0  0  0  0  0  0  0  0
   -2.3610   -4.1470   24.7490 C   0  0  0  0  0  0  0  0  0  0  0  0
   -0.8130    1.0050   26.3110 C   0  0  0  0  0  0  0  0  0  0  0  0
   -3.7480   -1.7990   25.3060 C   0  0  0  0  0  0  0  0  0  0  0  0
   -3.1020   -3.5760   23.7580 N   0  0  0  0  0  0  0  0  0  0  0  0
   -3.7560   -2.4370   24.0740 C   0  0  0  0  0  0  0  0  0  0  0  0
  1  2  1  0
  2  3  2  0
  2  4  1  0
  4  5  1  0
  4  6  1  0
  5  7  1  0
  6  8  1  0
  7  9  1  0
  7 10  2  0
  8 10  1  0
  8 11  1  1
  9 12  1  0
  9 13  2  0
 10 14  1  0
 11 15  2  0
 11 16  1  0
 12 17  1  0
 13 18  1  0
 14 18  2  0
 15 19  1  0
 16 20  2  0
 17 21  1  0
 19 22  2  0
 20 22  1  0
 21 23  1  0
 21 24  2  0
 23 25  2  0
 24 26  1  0
 25 26  1  0
 25 27  1  0
 26 28  1  0
 27 29  2  0
 27 30  1  0
 28 31  2  0
 28 32  2  0
 28 33  1  0
 29 34  1  0
 30 35  2  0
 30 36  1  0
 33 37  2  0
 33 38  1  0
 34 39  2  0
 35 39  1  0
 37 40  1  0
 38 41  2  0
 40 42  2  0
 41 42  1  0
M  END
