MAK-UNK-8fdbca50-27-bromoalkyne
     RDKit          3D

 38 41  0  0  0  0  0  0  0  0999 V2000
    6.4360   -4.0720   19.8950 C   0  0  0  0  0  0  0  0  0  0  0  0
    5.7310   -5.3920   20.0840 C   0  0  0  0  0  0  0  0  0  0  0  0
    6.1670   -3.0230   20.7420 N   0  0  0  0  0  0  0  0  0  0  0  0
    6.0480   -1.6190   20.3240 C   0  0  0  0  0  0  0  0  0  0  0  0
    6.0830   -3.2240   22.1930 C   0  0  0  0  0  0  0  0  0  0  0  0
    6.3400   -0.6980   21.4850 C   0  0  0  0  0  0  0  0  0  0  0  0
    6.9990   -2.4420   22.9050 C   0  0  0  0  0  0  0  0  0  0  0  0
    7.2550   -1.1220   22.4810 C   0  0  0  0  0  0  0  0  0  0  0  0
    7.4760   -0.2120   23.5310 C   0  0  0  0  0  0  0  0  0  0  0  0
    6.7660    0.7880   23.6260 O   0  0  0  0  0  0  0  0  0  0  0  0
    8.6040   -0.5390   24.4860 N   0  0  0  0  0  0  0  0  0  0  0  0
    9.9480   -0.4450   23.8250 C   0  0  0  0  0  0  0  0  0  0  0  0
    8.3810   -1.1970   25.7830 C   0  0  0  0  0  0  0  0  0  0  0  0
   10.6650   -1.6410   23.2840 C   0  0  0  0  0  0  0  0  0  0  0  0
   10.5690    0.7690   23.6620 C   0  0  0  0  0  0  0  0  0  0  0  0
    9.1080   -0.5610   26.9660 C   0  0  0  0  0  0  0  0  0  0  0  0
    8.5760   -2.7090   25.6330 C   0  0  0  0  0  0  0  0  0  0  0  0
   11.9270   -1.5060   22.6460 C   0  0  0  0  0  0  0  0  0  0  0  0
   11.8020    0.9940   23.0340 C   0  0  0  0  0  0  0  0  0  0  0  0
    9.9020    1.8240   24.1450 F   0  0  0  0  0  0  0  0  0  0  0  0
   12.5340   -0.1320   22.5130 C   0  0  0  0  0  0  0  0  0  0  0  0
   12.0290    2.3980   23.0530 C   0  0  0  0  0  0  0  0  0  0  0  0
   11.0080    3.3300   23.6180 C   0  0  0  0  0  0  0  0  0  0  0  0
   13.1010    3.2860   22.6100 N   0  0  0  0  0  0  0  0  0  0  0  0
   11.4210    4.6380   23.5380 C   0  0  0  0  0  0  0  0  0  0  0  0
   12.7120    4.5820   22.9170 C   0  0  0  0  0  0  0  0  0  0  0  0
   14.5790    2.9480   21.8520 S   0  0  0  0  0  0  0  0  0  0  0  0
   10.6630    5.7170   23.9950 C   0  0  0  0  0  0  0  0  0  0  0  0
   15.7160    3.6140   22.4480 O   0  0  0  0  0  0  0  0  0  0  0  0
   14.5790    1.5740   21.4640 O   0  0  0  0  0  0  0  0  0  0  0  0
   14.7700    4.1370   20.7180 C   0  0  0  0  0  0  0  0  0  0  0  0
   11.0200    6.9520   23.5150 N   0  0  0  0  0  0  0  0  0  0  0  0
   13.9600    5.2120   20.7850 C   0  0  0  0  0  0  0  0  0  0  0  0
   15.7650    3.9980   19.8210 C   0  0  0  0  0  0  0  0  0  0  0  0
   12.2180    7.2870   24.0170 C   0  0  0  0  0  0  0  0  0  0  0  0
   14.2280    6.1760   19.9150 C   0  0  0  0  0  0  0  0  0  0  0  0
   16.0320    4.9380   18.9530 N   0  0  0  0  0  0  0  0  0  0  0  0
   15.2940    5.9910   19.0160 C   0  0  0  0  0  0  0  0  0  0  0  0
  1  2  2  3
  1  3  1  0
  3  4  1  0
  3  5  1  0
  4  6  1  0
  5  7  1  0
  6  8  1  0
  7  8  1  0
  8  9  1  0
  9 10  2  0
  9 11  1  0
 11 12  1  0
 11 13  1  0
 12 14  2  0
 12 15  1  0
 13 16  1  0
 13 17  1  0
 14 18  1  0
 15 19  2  0
 15 20  1  0
 18 21  2  0
 19 21  1  0
 19 22  1  0
 22 23  2  0
 22 24  1  0
 23 25  1  0
 24 26  1  0
 25 26  2  0
 24 27  1  0
 25 28  1  0
 27 29  2  0
 27 30  2  0
 27 31  1  0
 28 32  1  0
 31 33  2  0
 31 34  1  0
 32 35  1  0
 33 36  1  0
 34 37  2  0
 36 38  2  0
 37 38  1  0
M  END
