MAK-UNK-f2409524-4
     RDKit          3D

 26 28  0  0  0  0  0  0  0  0999 V2000
    2.0210    0.0400   27.3570 O   0  0  0  0  0  0  0  0  0  0  0  0
    2.3610    0.8430   26.5010 C   0  0  0  0  0  0  0  0  0  0  0  0
    3.3260    0.6440   25.5410 N   0  0  0  0  0  0  0  0  0  0  0  0
    1.8160    2.1080   26.3780 N   0  0  0  0  0  0  0  0  0  0  0  0
    3.2420   -0.1890   24.4030 C   0  0  0  0  0  0  0  0  0  0  0  0
    0.4560    2.3230   26.4890 C   0  0  0  0  0  0  0  0  0  0  0  0
    4.3790   -0.1390   23.3560 C   0  0  0  0  0  0  0  0  0  0  0  0
    0.1910    3.6810   26.6700 C   0  0  0  0  0  0  0  0  0  0  0  0
   -0.1540    1.7920   25.3370 C   0  0  0  0  0  0  0  0  0  0  0  0
    4.1930    0.9720   22.3450 C   0  0  2  0  0  0  0  0  0  0  0  0
   -1.1320    4.0460   26.4380 C   0  0  0  0  0  0  0  0  0  0  0  0
   -1.4490    2.1950   24.9630 C   0  0  0  0  0  0  0  0  0  0  0  0
    2.8430    0.9550   21.8730 O   0  0  0  0  0  0  0  0  0  0  0  0
    5.1930    0.8730   21.1600 C   0  0  1  0  0  0  0  0  0  0  0  0
   -1.7910    3.4940   25.3470 C   0  0  0  0  0  0  0  0  0  0  0  0
    2.5580    1.9560   20.8980 C   0  0  0  0  0  0  0  0  0  0  0  0
    4.9590    1.9630   20.3150 C   0  0  1  0  0  0  0  0  0  0  0  0
    6.4650    0.7910   21.6600 O   0  0  0  0  0  0  0  0  0  0  0  0
    3.4820    1.8880   19.8600 C   0  0  2  0  0  0  0  0  0  0  0  0
    5.2240    3.1680   21.0460 O   0  0  0  0  0  0  0  0  0  0  0  0
    3.2200    2.8590   18.8800 C   0  0  0  0  0  0  0  0  0  0  0  0
    4.1900    3.1300   17.7440 C   0  0  0  0  0  0  0  0  0  0  0  0
    2.0680    3.6530   18.8310 C   0  0  0  0  0  0  0  0  0  0  0  0
    3.9250    4.0830   16.7460 N   0  0  0  0  0  0  0  0  0  0  0  0
    1.7620    4.6130   17.8760 N   0  0  0  0  0  0  0  0  0  0  0  0
    2.6660    4.7930   16.8960 C   0  0  0  0  0  0  0  0  0  0  0  0
  1  2  2  0
  2  3  1  0
  2  4  1  0
  3  5  1  0
  4  6  1  0
  5  7  1  0
  6  8  1  0
  6  9  1  0
 10  7  1  1
  8 11  1  0
  9 12  1  0
 10 13  1  0
 10 14  1  0
 11 15  1  0
 12 15  1  0
 13 16  1  0
 14 17  1  0
 14 18  1  1
 16 19  1  0
 17 19  1  0
 17 20  1  1
 19 21  1  6
 21 22  2  0
 21 23  1  0
 22 24  1  0
 23 25  2  0
 24 26  2  0
 25 26  1  0
M  END
