MAK-UNK-9a6be56d-30
     RDKit          3D

 38 42  0  0  0  0  0  0  0  0999 V2000
    8.9070    1.2600   25.0920 C   0  0  0  0  0  0  0  0  0  0  0  0
    9.7340    1.4230   23.9100 N   0  0  0  0  0  0  0  0  0  0  0  0
   10.3130    0.1520   23.4670 C   0  0  0  0  0  0  0  0  0  0  0  0
   10.4680    2.5750   23.6670 C   0  0  0  0  0  0  0  0  0  0  0  0
   11.6980    0.0330   23.6060 C   0  0  2  0  0  0  0  0  0  0  0  0
   11.7770    2.4650   23.2030 C   0  0  0  0  0  0  0  0  0  0  0  0
    9.9690    3.9750   23.8610 C   0  0  0  0  0  0  0  0  0  0  0  0
   12.3330   -0.2720   24.7750 N   0  0  0  0  0  0  0  0  0  0  0  0
   12.3990    1.2440   22.9840 C   0  0  0  0  0  0  0  0  0  0  0  0
   12.6380    3.5060   22.9020 C   0  0  0  0  0  0  0  0  0  0  0  0
   10.8310    5.0110   23.5740 C   0  0  0  0  0  0  0  0  0  0  0  0
   12.7730   -1.5370   24.9210 C   0  0  0  0  0  0  0  0  0  0  0  0
   12.1280    4.7810   23.1040 C   0  0  0  0  0  0  0  0  0  0  0  0
   10.2940    6.6740   23.8110 S   0  0  0  0  0  0  0  0  0  0  0  0
   12.7310   -2.2170   23.7760 C   0  0  0  0  0  0  0  0  0  0  0  0
   11.7050    7.4170   24.3510 N   0  0  0  0  0  0  0  0  0  0  0  0
    9.9950    7.2520   22.5270 O   0  0  0  0  0  0  0  0  0  0  0  0
    9.3390    6.7200   24.8980 O   0  0  0  0  0  0  0  0  0  0  0  0
   11.6680   -2.3540   23.0300 C   0  0  0  0  0  0  0  0  0  0  0  0
   13.6730   -2.9550   23.0420 C   0  0  0  0  0  0  0  0  0  0  0  0
   11.8120   -3.1360   21.8410 C   0  0  0  0  0  0  0  0  0  0  0  0
   13.1570   -3.5410   21.8210 N   0  0  0  0  0  0  0  0  0  0  0  0
   10.7650   -3.3410   21.0380 C   0  0  0  0  0  0  0  0  0  0  0  0
   14.0620   -4.5380   20.6770 S   0  0  0  0  0  0  0  0  0  0  0  0
   10.8340   -4.3020   19.8950 C   0  0  0  0  0  0  0  0  0  0  0  0
    9.5830   -2.5840   21.3410 C   0  0  0  0  0  0  0  0  0  0  0  0
   13.2170   -5.6440   20.4570 O   0  0  0  0  0  0  0  0  0  0  0  0
   14.3970   -3.6520   19.7340 O   0  0  0  0  0  0  0  0  0  0  0  0
   15.6550   -5.0520   21.5080 C   0  0  0  0  0  0  0  0  0  0  0  0
    9.6110   -4.4020   19.0190 C   0  0  0  0  0  0  0  0  0  0  0  0
    8.3670   -2.6220   20.5510 C   0  0  0  0  0  0  0  0  0  0  0  0
    9.5560   -1.7700   22.3930 F   0  0  0  0  0  0  0  0  0  0  0  0
   15.9150   -4.7650   22.9210 C   0  0  0  0  0  0  0  0  0  0  0  0
   16.7150   -5.6650   20.8830 C   0  0  0  0  0  0  0  0  0  0  0  0
    8.3410   -3.5200   19.3210 C   0  0  0  0  0  0  0  0  0  0  0  0
   17.0810   -5.0710   23.4960 C   0  0  0  0  0  0  0  0  0  0  0  0
   17.9100   -5.9580   21.5050 N   0  0  0  0  0  0  0  0  0  0  0  0
   18.0750   -5.6440   22.8160 C   0  0  0  0  0  0  0  0  0  0  0  0
  1  2  1  0
  2  3  1  0
  2  4  1  0
  3  5  1  0
  4  6  2  0
  4  7  1  0
  5  8  1  1
  5  9  1  0
  6  9  1  0
  6 10  1  0
  7 11  2  0
  8 12  1  0
 10 13  2  0
 11 13  1  0
 11 14  1  0
 12 15  1  0
 14 16  1  0
 14 17  2  0
 14 18  2  0
 15 19  1  0
 15 20  2  0
 19 21  2  0
 20 22  1  0
 21 22  1  0
 21 23  1  0
 22 24  1  0
 23 25  2  0
 23 26  1  0
 24 27  2  0
 24 28  2  0
 24 29  1  0
 25 30  1  0
 26 31  2  0
 26 32  1  0
 29 33  2  0
 29 34  1  0
 30 35  2  0
 31 35  1  0
 33 36  1  0
 34 37  2  0
 36 38  2  0
 37 38  1  0
M  END
