MAK-UNK-849bee6c-7-chloroacetamide
     RDKit          3D

 24 26  0  0  0  0  0  0  0  0999 V2000
    7.1910   -2.9550   18.7180 C   0  0  0  0  0  0  0  0  0  0  0  0
    6.2430   -3.2450   19.8430 C   0  0  0  0  0  0  0  0  0  0  0  0
    5.4110   -4.1550   19.7580 O   0  0  0  0  0  0  0  0  0  0  0  0
    6.3590   -2.4370   20.9920 N   0  0  0  0  0  0  0  0  0  0  0  0
    6.0050   -3.0330   22.2530 C   0  0  0  0  0  0  0  0  0  0  0  0
    7.3530   -1.3500   21.0540 C   0  0  0  0  0  0  0  0  0  0  0  0
    7.2480   -3.3920   23.0750 C   0  0  0  0  0  0  0  0  0  0  0  0
    8.4990   -1.7680   21.7580 C   0  0  0  0  0  0  0  0  0  0  0  0
    8.2250   -2.3040   23.1110 N   0  0  0  0  0  0  0  0  0  0  0  0
    9.4220   -2.4430   23.8970 C   0  0  0  0  0  0  0  0  0  0  0  0
   10.4940   -1.4030   23.6590 C   0  0  0  0  0  0  0  0  0  0  0  0
   11.8950   -1.8420   23.2950 C   0  0  0  0  0  0  0  0  0  0  0  0
   10.2130   -0.0380   23.7650 C   0  0  0  0  0  0  0  0  0  0  0  0
   12.8830   -0.7660   23.0760 C   0  0  0  0  0  0  0  0  0  0  0  0
   11.1940    0.9410   23.5390 C   0  0  0  0  0  0  0  0  0  0  0  0
   12.5050    0.5800   23.2030 C   0  0  0  0  0  0  0  0  0  0  0  0
   10.8540    2.2850   23.6320 C   0  0  0  0  0  0  0  0  0  0  0  0
   11.6750    3.4290   23.1690 C   0  0  0  0  0  0  0  0  0  0  0  0
    9.4920    2.6950   24.2530 C   0  0  0  0  0  0  0  0  0  0  0  0
   11.1200    4.7530   23.3480 N   0  0  0  0  0  0  0  0  0  0  0  0
    9.0060    3.9810   24.3980 N   0  0  0  0  0  0  0  0  0  0  0  0
    9.8070    4.9540   23.9550 C   0  0  0  0  0  0  0  0  0  0  0  0
    9.3920    6.2690   24.0630 C   0  0  0  0  0  0  0  0  0  0  0  0
    9.5000    7.1840   23.0760 N   0  0  0  0  0  0  0  0  0  0  0  0
  1  2  1  0
  2  3  2  0
  2  4  1  0
  4  5  1  0
  4  6  1  0
  5  7  1  0
  6  8  1  0
  7  9  1  0
  8  9  1  0
  9 10  1  0
 10 11  1  0
 11 12  2  0
 11 13  1  0
 12 14  1  0
 13 15  2  0
 14 16  2  0
 15 16  1  0
 15 17  1  0
 17 18  2  0
 17 19  1  0
 18 20  1  0
 19 21  2  0
 20 22  2  0
 21 22  1  0
 22 23  1  0
 23 24  3  0
M  END
