MAK-UNK-ec98eaf6-47-vinylsulfonamide
     RDKit          3D

 28 31  0  0  0  0  0  0  0  0999 V2000
    6.3870   -3.6490   19.5770 C   0  0  0  0  0  0  0  0  0  0  0  0
    6.2940   -2.6800   20.7450 C   0  0  0  0  0  0  0  0  0  0  0  0
    5.8450   -3.5710   22.2250 S   0  0  0  0  0  0  0  0  0  0  0  0
    4.4010   -3.6060   22.2980 O   0  0  0  0  0  0  0  0  0  0  0  0
    6.5590   -4.8330   22.2460 O   0  0  0  0  0  0  0  0  0  0  0  0
    6.5110   -2.6140   23.4890 N   0  0  0  0  0  0  0  0  0  0  0  0
    6.9950   -3.4210   24.5940 C   0  0  0  0  0  0  0  0  0  0  0  0
    7.8100   -1.9420   23.1220 C   0  0  2  0  0  0  0  0  0  0  0  0
    8.4550   -3.6520   24.2760 C   0  0  1  0  0  0  0  0  0  0  0  0
    8.6000   -3.2010   22.8170 C   0  0  0  0  0  0  0  0  0  0  0  0
    8.5860   -1.4910   24.3710 C   0  0  0  0  0  0  0  0  0  0  0  0
    9.2620   -2.5930   24.9440 N   0  0  0  0  0  0  0  0  0  0  0  0
   10.7070   -2.8780   24.7260 C   0  0  0  0  0  0  0  0  0  0  0  0
   11.5560   -1.7720   24.1390 C   0  0  0  0  0  0  0  0  0  0  0  0
   11.6960   -0.6200   24.8340 C   0  0  0  0  0  0  0  0  0  0  0  0
   12.2180   -1.8480   22.8880 C   0  0  0  0  0  0  0  0  0  0  0  0
   12.4750    0.3540   24.2950 C   0  0  0  0  0  0  0  0  0  0  0  0
   12.9960   -0.8360   22.3300 C   0  0  0  0  0  0  0  0  0  0  0  0
   12.2800   -2.8210   21.9610 N   0  0  0  0  0  0  0  0  0  0  0  0
   13.1100    0.2320   23.1130 C   0  0  0  0  0  0  0  0  0  0  0  0
   13.5160   -1.1720   20.9590 C   0  0  0  0  0  0  0  0  0  0  0  0
   13.0380   -2.4760   20.8140 C   0  0  0  0  0  0  0  0  0  0  0  0
   14.2650   -0.5580   19.8700 C   0  0  0  0  0  0  0  0  0  0  0  0
   14.8770    0.8870   19.7860 C   0  0  0  0  0  0  0  0  0  0  0  0
   15.0900    1.9430   19.4690 N   0  0  0  0  0  0  0  0  0  0  0  0
   15.3760    2.3160   18.1700 C   0  0  0  0  0  0  0  0  0  0  0  0
   15.7730    1.1130   17.2790 C   0  0  0  0  0  0  0  0  0  0  0  0
   15.3130    3.4880   17.8510 O   0  0  0  0  0  0  0  0  0  0  0  0
  1  2  1  0
  3  2  1  0
  3  4  2  0
  3  5  2  0
  3  6  1  0
  6  7  1  0
  6  8  1  0
  9  7  1  1
  8 10  1  0
  9 10  1  0
  8 11  1  1
  9 12  1  0
 11 12  1  0
 12 13  1  0
 13 14  1  0
 14 15  1  0
 14 16  2  0
 15 17  2  0
 16 18  1  0
 16 19  1  0
 17 20  1  0
 18 20  2  0
 18 21  1  0
 19 22  1  0
 21 22  2  0
 21 23  1  0
 23 24  1  0
 24 25  1  0
 25 26  1  0
 26 27  1  0
 26 28  2  0
M  END
