MAK-UNK-8fdbca50-3-chloroacetamide
     RDKit          3D

 39 42  0  0  0  0  0  0  0  0999 V2000
    8.0330   -5.9820   20.7900 C   0  0  0  0  0  0  0  0  0  0  0  0
    8.0880   -6.2830   19.5100 C   0  0  0  0  0  0  0  0  0  0  0  0
    6.9230   -6.5480   19.0610 O   0  0  0  0  0  0  0  0  0  0  0  0
    9.4050   -6.0960   18.9700 N   0  0  0  0  0  0  0  0  0  0  0  0
   10.1170   -5.0000   18.5050 C   0  0  0  0  0  0  0  0  0  0  0  0
   10.4960   -5.9140   19.8070 C   0  0  0  0  0  0  0  0  0  0  0  0
   10.9050   -4.2650   19.6040 C   0  0  0  0  0  0  0  0  0  0  0  0
   10.3550   -5.0730   20.7100 C   0  0  0  0  0  0  0  0  0  0  0  0
   10.4490   -3.6960   20.7190 C   0  0  0  0  0  0  0  0  0  0  0  0
    9.4700   -2.6450   21.3460 C   0  0  0  0  0  0  0  0  0  0  0  0
    9.2990   -2.6350   22.7280 O   0  0  0  0  0  0  0  0  0  0  0  0
    8.5860   -1.4850   20.7330 N   0  0  0  0  0  0  0  0  0  0  0  0
    9.1680   -0.2870   21.3880 C   0  0  0  0  0  0  0  0  0  0  0  0
    7.0300   -1.3940   20.9220 C   0  0  1  0  0  0  0  0  0  0  0  0
    6.7210   -1.7990   22.2780 C   0  0  0  0  0  0  0  0  0  0  0  0
    6.4490    0.0280   20.9160 C   0  0  2  0  0  0  0  0  0  0  0  0
    6.4160    0.7410   19.7480 N   0  0  0  0  0  0  0  0  0  0  0  0
    7.2850    0.7310   21.9270 C   0  0  0  0  0  0  0  0  0  0  0  0
    6.8450   -0.0380   18.7230 C   0  0  0  0  0  0  0  0  0  0  0  0
    8.4700   -0.0130   22.2950 C   0  0  0  0  0  0  0  0  0  0  0  0
    7.3220    1.8990   22.6640 C   0  0  0  0  0  0  0  0  0  0  0  0
    9.2300    0.5980   23.1770 C   0  0  0  0  0  0  0  0  0  0  0  0
    8.4880    1.8560   23.4340 N   0  0  0  0  0  0  0  0  0  0  0  0
   10.4350    0.0450   23.6270 C   0  0  0  0  0  0  0  0  0  0  0  0
    8.8880    3.1130   24.4620 S   0  0  0  0  0  0  0  0  0  0  0  0
   11.3200   -0.1750   22.5820 C   0  0  0  0  0  0  0  0  0  0  0  0
   10.8470   -0.3230   24.9210 C   0  0  0  0  0  0  0  0  0  0  0  0
    9.1440    2.3650   25.6510 O   0  0  0  0  0  0  0  0  0  0  0  0
    7.8150    4.0850   24.3810 O   0  0  0  0  0  0  0  0  0  0  0  0
   10.3400    3.8180   23.7700 C   0  0  0  0  0  0  0  0  0  0  0  0
   12.5850   -0.7050   22.5630 C   0  0  0  0  0  0  0  0  0  0  0  0
   12.2740   -0.9270   24.9810 C   0  0  0  0  0  0  0  0  0  0  0  0
   10.0710   -0.1710   26.0030 F   0  0  0  0  0  0  0  0  0  0  0  0
   11.3890    3.0370   23.2830 C   0  0  0  0  0  0  0  0  0  0  0  0
   10.4570    5.1990   23.6990 C   0  0  0  0  0  0  0  0  0  0  0  0
   13.1020   -1.0980   23.7520 C   0  0  0  0  0  0  0  0  0  0  0  0
   12.5100    3.6610   22.7450 C   0  0  0  0  0  0  0  0  0  0  0  0
   11.5440    5.8320   23.1740 N   0  0  0  0  0  0  0  0  0  0  0  0
   12.5480    5.0490   22.7090 C   0  0  0  0  0  0  0  0  0  0  0  0
  1  2  1  0
  2  3  2  0
  2  4  1  0
  4  5  1  0
  4  6  1  0
  5  7  1  0
  6  8  1  0
  7  9  1  0
  8  9  1  0
  9 10  1  0
 10 11  2  0
 10 12  1  0
 12 13  1  0
 12 14  1  0
 14 15  1  1
 14 16  1  0
 16 17  1  6
 16 18  1  0
 17 19  1  0
 18 20  1  0
 18 21  2  0
 20 22  2  0
 21 23  1  0
 22 23  1  0
 22 24  1  0
 23 25  1  0
 24 26  2  0
 24 27  1  0
 25 28  2  0
 25 29  2  0
 25 30  1  0
 26 31  1  0
 27 32  2  0
 27 33  1  0
 30 34  2  0
 30 35  1  0
 31 36  2  0
 32 36  1  0
 34 37  1  0
 35 38  2  0
 37 39  2  0
 38 39  1  0
M  END
