MAK-UNK-ec98eaf6-3-chloroacetamide
     RDKit          3D

 21 24  0  0  0  0  0  0  0  0999 V2000
    7.3490   -3.0210   18.9030 C   0  0  0  0  0  0  0  0  0  0  0  0
    6.3210   -3.3620   19.9830 C   0  0  0  0  0  0  0  0  0  0  0  0
    5.4120   -4.1700   19.7590 O   0  0  0  0  0  0  0  0  0  0  0  0
    6.4290   -2.7700   21.2130 N   0  0  0  0  0  0  0  0  0  0  0  0
    6.2430   -3.5460   22.4370 C   0  0  0  0  0  0  0  0  0  0  0  0
    7.0930   -1.5020   21.5950 C   0  0  1  0  0  0  0  0  0  0  0  0
    7.0260   -2.6980   23.4630 C   0  0  2  0  0  0  0  0  0  0  0  0
    6.5710   -1.3040   23.0180 C   0  0  0  0  0  0  0  0  0  0  0  0
    8.5730   -1.7630   21.9410 C   0  0  0  0  0  0  0  0  0  0  0  0
    8.4570   -2.7330   23.0620 N   0  0  0  0  0  0  0  0  0  0  0  0
    9.5070   -2.8250   24.1010 C   0  0  1  0  0  0  0  0  0  0  0  0
   10.5630   -1.7460   23.8330 C   0  0  0  0  0  0  0  0  0  0  0  0
    9.1440   -3.1020   25.5800 C   0  0  0  0  0  0  0  0  0  0  0  0
   10.1270   -4.1180   24.0650 O   0  0  0  0  0  0  0  0  0  0  0  0
   10.7210   -0.5140   24.5070 C   0  0  0  0  0  0  0  0  0  0  0  0
   11.4520   -2.0150   22.8060 C   0  0  0  0  0  0  0  0  0  0  0  0
    8.9790   -4.4230   24.8320 C   0  0  0  0  0  0  0  0  0  0  0  0
   11.7400    0.3800   24.1280 C   0  0  0  0  0  0  0  0  0  0  0  0
   12.4380   -1.1380   22.4530 C   0  0  0  0  0  0  0  0  0  0  0  0
   12.6080    0.0700   23.0990 C   0  0  0  0  0  0  0  0  0  0  0  0
   13.4290   -1.6140   21.1760 Cl  0  0  0  0  0  0  0  0  0  0  0  0
  1  2  1  0
  2  3  2  0
  2  4  1  0
  4  5  1  0
  4  6  1  0
  7  5  1  6
  6  8  1  0
  7  8  1  0
  6  9  1  1
  7 10  1  0
  9 10  1  0
 10 11  1  0
 11 12  1  1
 11 13  1  0
 11 14  1  0
 12 15  2  0
 12 16  1  0
 13 17  1  0
 14 17  1  0
 15 18  1  0
 16 19  2  0
 18 20  2  0
 19 20  1  0
 19 21  1  0
M  END
