MAK-UNK-5d2caa6f-10-bromoalkyne
     RDKit          3D

 19 22  0  0  0  0  0  0  0  0999 V2000
    6.7340   -3.4830   19.8420 C   0  0  0  0  0  0  0  0  0  0  0  0
    5.5950   -3.1130   18.9530 C   0  0  0  0  0  0  0  0  0  0  0  0
    6.6140   -3.5290   21.2180 N   0  0  0  0  0  0  0  0  0  0  0  0
    5.7290   -4.3650   21.8550 C   0  0  0  0  0  0  0  0  0  0  0  0
    7.3830   -2.7810   22.2500 C   0  0  2  0  0  0  0  0  0  0  0  0
    6.2900   -4.2330   23.2110 C   0  0  1  0  0  0  0  0  0  0  0  0
    6.4140   -1.9530   23.1750 C   0  0  1  0  0  0  0  0  0  0  0  0
    8.6070   -1.9410   21.9870 C   0  0  0  0  0  0  0  0  0  0  0  0
    7.7400   -3.9950   23.1410 C   0  0  0  0  0  0  0  0  0  0  0  0
    5.6690   -2.9910   23.7400 C   0  0  0  0  0  0  0  0  0  0  0  0
    7.4320   -1.3620   23.9350 C   0  0  0  0  0  0  0  0  0  0  0  0
    8.7210   -1.6920   23.4160 N   0  0  0  0  0  0  0  0  0  0  0  0
    9.8400   -2.0080   24.1470 C   0  0  0  0  0  0  0  0  0  0  0  0
    9.8620   -2.8120   25.0720 O   0  0  0  0  0  0  0  0  0  0  0  0
   11.0600   -1.2500   23.6930 C   0  0  0  0  0  0  0  0  0  0  0  0
   11.9120   -1.7590   22.7330 C   0  0  0  0  0  0  0  0  0  0  0  0
   11.5320   -0.0070   24.0830 N   0  0  0  0  0  0  0  0  0  0  0  0
   12.9190   -0.9010   22.4770 C   0  0  0  0  0  0  0  0  0  0  0  0
   12.6980    0.2780   23.3560 C   0  0  0  0  0  0  0  0  0  0  0  0
  1  2  2  3
  1  3  1  0
  3  4  1  0
  5  3  1  0
  6  4  1  6
  5  7  1  0
  5  8  1  6
  5  9  1  0
  6  9  1  0
  6 10  1  0
  7 10  1  1
  7 11  1  0
  8 12  1  0
 11 12  1  0
 12 13  1  0
 13 14  2  0
 13 15  1  0
 15 16  2  0
 15 17  1  0
 16 18  1  0
 17 19  1  0
 18 19  2  0
M  END
