MAK-UNK-e4a48a85-19-nitrile
     RDKit          3D

 33 36  0  0  0  0  0  0  0  0999 V2000
    6.8400   -3.9390   20.1880 C   0  0  0  0  0  0  0  0  0  0  0  0
    5.7100   -3.8090   19.5990 N   0  0  0  0  0  0  0  0  0  0  0  0
    7.1020   -3.3710   21.4140 N   0  0  0  0  0  0  0  0  0  0  0  0
    7.4590   -1.9490   21.5570 C   0  0  0  0  0  0  0  0  0  0  0  0
    7.0860   -4.1260   22.6720 C   0  0  0  0  0  0  0  0  0  0  0  0
    8.7220   -1.8220   22.0070 C   0  0  0  0  0  0  0  0  0  0  0  0
    8.3060   -3.7130   23.5150 C   0  0  0  0  0  0  0  0  0  0  0  0
    9.3130   -2.9870   22.7160 N   0  0  0  0  0  0  0  0  0  0  0  0
   10.5180   -2.5930   23.4770 C   0  0  0  0  0  0  0  0  0  0  0  0
   10.5020   -1.0910   23.6170 C   0  0  0  0  0  0  0  0  0  0  0  0
   11.3470   -0.2520   22.8920 C   0  0  0  0  0  0  0  0  0  0  0  0
    9.5890   -0.5220   24.4920 C   0  0  0  0  0  0  0  0  0  0  0  0
   11.2460    1.1470   23.0430 C   0  0  0  0  0  0  0  0  0  0  0  0
    9.4780    0.8560   24.6540 C   0  0  0  0  0  0  0  0  0  0  0  0
   10.3040    1.7330   23.9150 C   0  0  0  0  0  0  0  0  0  0  0  0
    8.4320    1.2920   25.6390 C   0  0  0  0  0  0  0  0  0  0  0  0
   10.2020    3.1220   24.0260 C   0  0  2  0  0  0  0  0  0  0  0  0
    9.1230    3.5350   24.8930 O   0  0  0  0  0  0  0  0  0  0  0  0
    9.9820    3.8490   22.6860 C   0  0  1  0  0  0  0  0  0  0  0  0
    8.0980    4.1720   24.1010 C   0  0  1  0  0  0  0  0  0  0  0  0
    8.8780    4.8710   22.9990 C   0  0  1  0  0  0  0  0  0  0  0  0
   11.1720    4.4990   22.2310 O   0  0  0  0  0  0  0  0  0  0  0  0
    7.0800    3.2280   23.7370 C   0  0  0  0  0  0  0  0  0  0  0  0
    9.2500    6.2210   23.3460 O   0  0  0  0  0  0  0  0  0  0  0  0
    5.8810    3.8730   23.3020 O   0  0  0  0  0  0  0  0  0  0  0  0
   10.0740    6.3750   24.5110 C   0  0  0  0  0  0  0  0  0  0  0  0
    9.4670    7.2320   25.5540 N   0  0  0  0  0  0  0  0  0  0  0  0
   10.1820    7.0960   26.8350 C   0  0  0  0  0  0  0  0  0  0  0  0
    9.3610    8.6360   25.1110 C   0  0  0  0  0  0  0  0  0  0  0  0
   11.6060    7.5990   26.6690 C   0  0  0  0  0  0  0  0  0  0  0  0
   10.3490    9.4840   25.6080 C   0  0  0  0  0  0  0  0  0  0  0  0
   11.6650    8.7450   25.8850 C   0  0  0  0  0  0  0  0  0  0  0  0
   12.2890    8.4070   24.6410 O   0  0  0  0  0  0  0  0  0  0  0  0
  1  2  2  3
  1  3  1  0
  3  4  1  0
  3  5  1  0
  4  6  1  0
  5  7  1  0
  6  8  1  0
  7  8  1  0
  8  9  1  0
  9 10  1  0
 10 11  2  0
 10 12  1  0
 11 13  1  0
 12 14  2  0
 13 15  2  0
 14 15  1  0
 14 16  1  0
 17 15  1  6
 17 18  1  0
 17 19  1  0
 18 20  1  0
 19 21  1  0
 20 21  1  0
 19 22  1  1
 20 23  1  6
 21 24  1  1
 23 25  1  0
 24 26  1  0
 26 27  1  0
 27 28  1  0
 27 29  1  0
 28 30  1  0
 29 31  1  0
 30 32  1  0
 31 32  1  0
 32 33  1  0
M  END
