MAK-UNK-8fdbca50-6-chloroacetamide
     RDKit          3D

 39 42  0  0  0  0  0  0  0  0999 V2000
    7.4640   -4.3870   20.9790 C   0  0  0  0  0  0  0  0  0  0  0  0
    7.7710   -3.0610   20.3300 C   0  0  0  0  0  0  0  0  0  0  0  0
    7.2120   -2.9970   19.1150 O   0  0  0  0  0  0  0  0  0  0  0  0
    8.6170   -2.0540   21.1530 N   0  0  0  0  0  0  0  0  0  0  0  0
    8.1330   -0.9390   22.0230 C   0  0  0  0  0  0  0  0  0  0  0  0
   10.0650   -2.2090   21.5650 C   0  0  0  0  0  0  0  0  0  0  0  0
    9.1240   -0.6650   23.1230 C   0  0  0  0  0  0  0  0  0  0  0  0
   10.3040   -2.4810   22.9200 C   0  0  0  0  0  0  0  0  0  0  0  0
    9.5220   -1.7750   23.8020 C   0  0  0  0  0  0  0  0  0  0  0  0
    8.4720   -2.5120   24.3570 C   0  0  0  0  0  0  0  0  0  0  0  0
    8.4210   -3.9090   24.2450 O   0  0  0  0  0  0  0  0  0  0  0  0
    7.3840   -1.7280   25.0820 N   0  0  0  0  0  0  0  0  0  0  0  0
    6.3460   -2.6550   25.6420 C   0  0  0  0  0  0  0  0  0  0  0  0
    6.8060   -0.4310   24.5410 C   0  0  2  0  0  0  0  0  0  0  0  0
    7.8410    0.5250   24.2750 C   0  0  0  0  0  0  0  0  0  0  0  0
    5.9430    0.2220   25.6290 C   0  0  0  0  0  0  0  0  0  0  0  0
    6.1830   -0.3630   27.0110 C   0  0  0  0  0  0  0  0  0  0  0  0
    5.0070    1.2590   25.4800 C   0  0  0  0  0  0  0  0  0  0  0  0
    5.4630    0.1520   28.0690 C   0  0  0  0  0  0  0  0  0  0  0  0
    4.2950    1.7520   26.5920 C   0  0  0  0  0  0  0  0  0  0  0  0
    4.6230    2.0410   23.9350 S   0  0  0  0  0  0  0  0  0  0  0  0
    4.5430    1.1700   27.9110 N   0  0  0  0  0  0  0  0  0  0  0  0
    3.6940    3.1190   24.2030 O   0  0  0  0  0  0  0  0  0  0  0  0
    4.2580    0.9850   23.0130 O   0  0  0  0  0  0  0  0  0  0  0  0
    6.0600    2.6570   23.2920 N   0  0  0  0  0  0  0  0  0  0  0  0
    7.1140    3.3230   24.0520 C   0  0  0  0  0  0  0  0  0  0  0  0
    6.5430    2.6600   21.8960 C   0  0  0  0  0  0  0  0  0  0  0  0
    8.2480    3.7820   23.3950 C   0  0  0  0  0  0  0  0  0  0  0  0
    7.9130    3.3640   21.9760 C   0  0  0  0  0  0  0  0  0  0  0  0
    5.9880    2.1690   20.7050 C   0  0  0  0  0  0  0  0  0  0  0  0
    9.3150    4.4240   23.9830 C   0  0  0  0  0  0  0  0  0  0  0  0
    4.8240    2.6700   20.1350 C   0  0  0  0  0  0  0  0  0  0  0  0
    6.5960    1.1240   20.0110 C   0  0  0  0  0  0  0  0  0  0  0  0
   10.2650    4.5060   22.9880 N   0  0  0  0  0  0  0  0  0  0  0  0
    4.2960    2.1580   18.9470 C   0  0  0  0  0  0  0  0  0  0  0  0
    6.0870    0.6000   18.8300 C   0  0  0  0  0  0  0  0  0  0  0  0
    7.7150    0.5820   20.4760 F   0  0  0  0  0  0  0  0  0  0  0  0
   10.9350    3.3200   22.9070 C   0  0  0  0  0  0  0  0  0  0  0  0
    4.9170    1.1050   18.2640 C   0  0  0  0  0  0  0  0  0  0  0  0
  1  2  1  0
  2  3  2  0
  2  4  1  0
  4  5  1  0
  4  6  1  0
  5  7  1  0
  6  8  1  0
  7  9  1  0
  8  9  1  0
  9 10  1  0
 10 11  2  0
 10 12  1  0
 12 13  1  0
 12 14  1  0
 14 15  1  1
 14 16  1  0
 16 17  2  0
 16 18  1  0
 17 19  1  0
 18 20  2  0
 21 18  1  0
 19 22  2  0
 20 22  1  0
 21 23  2  0
 21 24  2  0
 21 25  1  0
 25 26  1  0
 25 27  1  0
 26 28  2  0
 27 29  2  0
 28 29  1  0
 27 30  1  0
 28 31  1  0
 30 32  2  0
 30 33  1  0
 31 34  1  0
 32 35  1  0
 33 36  2  0
 33 37  1  0
 34 38  1  0
 35 39  2  0
 36 39  1  0
M  END
