MAK-UNK-5d2caa6f-17-chloroacetamide
     RDKit          3D

 25 28  0  0  0  0  0  0  0  0999 V2000
    7.3220   -3.0380   18.8100 C   0  0  0  0  0  0  0  0  0  0  0  0
    6.4270   -3.3780   19.9630 C   0  0  0  0  0  0  0  0  0  0  0  0
    5.5080   -4.2110   19.8160 O   0  0  0  0  0  0  0  0  0  0  0  0
    6.7360   -2.6920   21.1320 N   0  0  0  0  0  0  0  0  0  0  0  0
    6.3850   -3.1120   22.3990 C   0  0  0  0  0  0  0  0  0  0  0  0
    6.7800   -1.3040   21.1340 C   0  0  1  0  0  0  0  0  0  0  0  0
    5.7190   -1.8370   22.7770 C   0  0  2  0  0  0  0  0  0  0  0  0
    5.4230   -1.1660   21.4430 C   0  0  0  0  0  0  0  0  0  0  0  0
    7.6390   -1.0130   22.1680 C   0  0  0  0  0  0  0  0  0  0  0  0
    6.7700   -0.7980   23.2800 C   0  0  2  0  0  0  0  0  0  0  0  0
    7.3890   -1.1410   24.6330 C   0  0  0  0  0  0  0  0  0  0  0  0
    6.8470   -2.3120   25.2600 O   0  0  0  0  0  0  0  0  0  0  0  0
    8.3810   -0.3310   25.1350 N   0  0  0  0  0  0  0  0  0  0  0  0
    9.6210   -0.3510   24.5440 C   0  0  0  0  0  0  0  0  0  0  0  0
   10.1200   -1.5490   24.1380 C   0  0  0  0  0  0  0  0  0  0  0  0
   10.3850    0.8310   24.3350 C   0  0  0  0  0  0  0  0  0  0  0  0
   11.4300   -1.5670   23.5000 C   0  0  0  0  0  0  0  0  0  0  0  0
   11.7670    0.7730   23.6570 C   0  0  0  0  0  0  0  0  0  0  0  0
   12.2420   -0.4730   23.2550 C   0  0  0  0  0  0  0  0  0  0  0  0
   13.4130   -0.9180   22.6400 N   0  0  0  0  0  0  0  0  0  0  0  0
   13.4780   -2.1780   23.1270 C   0  0  0  0  0  0  0  0  0  0  0  0
   13.4810   -1.2550   21.1460 C   0  0  0  0  0  0  0  0  0  0  0  0
   12.8120   -2.9790   22.0660 C   0  0  0  0  0  0  0  0  0  0  0  0
   12.6180   -2.3740   20.9150 N   0  0  0  0  0  0  0  0  0  0  0  0
   14.2010   -0.7100   20.0530 O   0  0  0  0  0  0  0  0  0  0  0  0
  1  2  1  0
  2  3  2  0
  2  4  1  0
  4  5  1  0
  4  6  1  0
  7  5  1  6
  6  8  1  0
  7  8  1  0
  6  9  1  1
  7 10  1  0
  9 10  1  0
 10 11  1  1
 11 12  2  0
 11 13  1  0
 13 14  1  0
 14 15  2  0
 14 16  1  0
 15 17  1  0
 16 18  2  0
 17 19  2  0
 18 19  1  0
 19 20  1  0
 20 21  1  0
 20 22  1  0
 21 23  1  0
 22 24  1  0
 23 24  1  0
 22 25  2  0
M  END
