MAK-UNK-30aad1f1-15-bromoalkyne
     RDKit          3D

 25 27  0  0  0  0  0  0  0  0999 V2000
    6.8150   -3.2340   18.8010 C   0  0  0  0  0  0  0  0  0  0  0  0
    6.5330   -2.8090   17.5940 C   0  0  0  0  0  0  0  0  0  0  0  0
    6.2640   -2.5540   19.9720 C   0  0  0  0  0  0  0  0  0  0  0  0
    5.9870   -2.9200   21.3120 C   0  0  0  0  0  0  0  0  0  0  0  0
    5.7940   -1.2840   20.2880 C   0  0  0  0  0  0  0  0  0  0  0  0
    5.7150   -3.2840   22.6280 C   0  0  0  0  0  0  0  0  0  0  0  0
    5.3170   -0.9880   21.6370 N   0  0  0  0  0  0  0  0  0  0  0  0
    5.2380   -1.8590   22.8100 C   0  0  0  0  0  0  0  0  0  0  0  0
    4.7310   -1.3180   23.9900 N   0  0  0  0  0  0  0  0  0  0  0  0
    5.5700   -0.4340   24.8340 C   0  0  0  0  0  0  0  0  0  0  0  0
    6.2130   -1.1190   25.8620 C   0  0  0  0  0  0  0  0  0  0  0  0
    5.7900    0.9680   24.7190 C   0  0  0  0  0  0  0  0  0  0  0  0
    7.0600   -0.3950   26.7590 C   0  0  0  0  0  0  0  0  0  0  0  0
    6.6400    1.5890   25.6640 C   0  0  0  0  0  0  0  0  0  0  0  0
    5.2110    1.7120   23.7350 N   0  0  0  0  0  0  0  0  0  0  0  0
    7.2790    0.9500   26.6820 N   0  0  0  0  0  0  0  0  0  0  0  0
    3.9780    2.3480   23.7560 C   0  0  0  0  0  0  0  0  0  0  0  0
    3.5420    2.8920   22.7270 O   0  0  0  0  0  0  0  0  0  0  0  0
    3.3040    2.3690   24.9960 N   0  0  0  0  0  0  0  0  0  0  0  0
    1.9360    2.8790   25.0470 C   0  0  0  0  0  0  0  0  0  0  0  0
    1.2300    3.1410   23.7090 C   0  0  0  0  0  0  0  0  0  0  0  0
    1.2840    3.1180   26.2260 C   0  0  0  0  0  0  0  0  0  0  0  0
   -0.0360    3.6000   23.7240 C   0  0  0  0  0  0  0  0  0  0  0  0
   -0.1580    3.6470   26.2110 C   0  0  0  0  0  0  0  0  0  0  0  0
   -0.8250    3.8970   24.9820 C   0  0  0  0  0  0  0  0  0  0  0  0
  1  2  2  3
  1  3  1  0
  3  4  2  0
  3  5  1  0
  4  6  1  0
  5  7  2  0
  6  8  2  0
  7  8  1  0
  8  9  1  0
  9 10  1  0
 10 11  2  0
 10 12  1  0
 11 13  1  0
 12 14  2  0
 12 15  1  0
 13 16  2  0
 14 16  1  0
 15 17  1  0
 17 18  2  0
 17 19  1  0
 19 20  1  0
 20 21  2  0
 20 22  1  0
 21 23  1  0
 22 24  2  0
 23 25  2  0
 24 25  1  0
M  END
