MAK-UNK-176ca439-6-acrylamide
     RDKit          3D

 34 37  0  0  0  0  0  0  0  0999 V2000
    7.7770   -2.6280   18.6530 C   0  0  0  0  0  0  0  0  0  0  0  0
    6.3070   -2.7870   18.7160 C   0  0  0  0  0  0  0  0  0  0  0  0
    5.8660   -3.3790   19.9920 C   0  0  0  0  0  0  0  0  0  0  0  0
    5.2210   -4.4230   20.0170 O   0  0  0  0  0  0  0  0  0  0  0  0
    6.2120   -2.7010   21.1400 N   0  0  0  0  0  0  0  0  0  0  0  0
    7.0210   -1.5780   21.1220 C   0  0  0  0  0  0  0  0  0  0  0  0
    6.1430   -3.4250   22.4010 C   0  0  0  0  0  0  0  0  0  0  0  0
    8.3920   -1.8020   21.7750 C   0  0  0  0  0  0  0  0  0  0  0  0
    7.4950   -3.4640   23.1390 C   0  0  0  0  0  0  0  0  0  0  0  0
    8.3360   -2.2700   23.0150 N   0  0  0  0  0  0  0  0  0  0  0  0
    9.6680   -2.3580   23.6680 C   0  0  0  0  0  0  0  0  0  0  0  0
   10.5670   -1.1420   23.5400 C   0  0  0  0  0  0  0  0  0  0  0  0
   11.9820   -1.4610   23.0890 C   0  0  0  0  0  0  0  0  0  0  0  0
   10.1970    0.1900   23.7880 C   0  0  0  0  0  0  0  0  0  0  0  0
   12.9190   -0.2870   22.9340 C   0  0  0  0  0  0  0  0  0  0  0  0
   11.1970    1.3660   23.6070 C   0  0  0  0  0  0  0  0  0  0  0  0
   12.4750    1.0060   23.1950 C   0  0  0  0  0  0  0  0  0  0  0  0
   10.5940    2.6250   23.9050 C   0  0  0  0  0  0  0  0  0  0  0  0
   11.0120    3.8980   23.3680 C   0  0  1  0  0  0  0  0  0  0  0  0
   11.9500    4.8220   23.8830 C   0  0  0  0  0  0  0  0  0  0  0  0
   11.5130    3.7030   21.9820 C   0  0  0  0  0  0  0  0  0  0  0  0
    9.7260    4.7520   23.3380 C   0  0  0  0  0  0  0  0  0  0  0  0
   11.9410    4.7620   21.5690 O   0  0  0  0  0  0  0  0  0  0  0  0
    9.9810    6.0670   23.8690 O   0  0  0  0  0  0  0  0  0  0  0  0
    9.5660    6.2260   25.2300 C   0  0  0  0  0  0  0  0  0  0  0  0
    8.2970    5.8600   25.7270 C   0  0  0  0  0  0  0  0  0  0  0  0
   10.3700    6.8020   26.4000 C   0  0  0  0  0  0  0  0  0  0  0  0
    8.2550    6.1560   27.0650 N   0  0  0  0  0  0  0  0  0  0  0  0
    9.4790    6.7100   27.4660 C   0  0  0  0  0  0  0  0  0  0  0  0
   11.7480    7.3910   26.6920 C   0  0  0  0  0  0  0  0  0  0  0  0
    9.7700    7.1260   28.7940 C   0  0  0  0  0  0  0  0  0  0  0  0
   12.0230    7.8010   28.0120 C   0  0  0  0  0  0  0  0  0  0  0  0
   11.0670    7.6750   29.0440 C   0  0  0  0  0  0  0  0  0  0  0  0
   13.2150    8.3290   28.3120 F   0  0  0  0  0  0  0  0  0  0  0  0
  1  2  1  0
  2  3  1  0
  3  4  2  0
  3  5  1  0
  5  6  1  0
  5  7  1  0
  6  8  1  0
  7  9  1  0
  8 10  1  0
  9 10  1  0
 10 11  1  0
 11 12  1  0
 12 13  2  0
 12 14  1  0
 13 15  1  0
 14 16  2  0
 15 17  2  0
 16 17  1  0
 16 18  1  0
 19 18  1  0
 19 20  1  1
 19 21  1  0
 19 22  1  0
 21 23  1  0
 22 24  1  0
 24 25  1  0
 25 26  2  0
 25 27  1  0
 26 28  1  0
 27 29  2  0
 28 29  1  0
 27 30  1  0
 29 31  1  0
 30 32  2  0
 31 33  2  0
 32 33  1  0
 32 34  1  0
M  END
