MAK-UNK-ec98eaf6-6-chloroacetamide
     RDKit          3D

 25 28  0  0  0  0  0  0  0  0999 V2000
    7.2530   -3.0120   18.7600 C   0  0  0  0  0  0  0  0  0  0  0  0
    6.3910   -3.3710   19.9300 C   0  0  0  0  0  0  0  0  0  0  0  0
    5.4740   -4.2030   19.7870 O   0  0  0  0  0  0  0  0  0  0  0  0
    6.6690   -2.7510   21.1260 N   0  0  0  0  0  0  0  0  0  0  0  0
    6.9980   -1.2960   21.3010 C   0  0  0  0  0  0  0  0  0  0  0  0
    7.4990   -3.4240   22.1540 C   0  0  1  0  0  0  0  0  0  0  0  0
    8.2560   -1.4720   22.2010 C   0  0  2  0  0  0  0  0  0  0  0  0
    8.8770   -2.7940   21.9260 C   0  0  0  0  0  0  0  0  0  0  0  0
    7.0110   -3.0470   23.3930 C   0  0  0  0  0  0  0  0  0  0  0  0
    7.8890   -1.8400   23.5890 N   0  0  0  0  0  0  0  0  0  0  0  0
    9.0770   -2.0900   24.4120 C   0  0  2  0  0  0  0  0  0  0  0  0
    8.7960   -1.6920   25.7290 C   0  0  0  0  0  0  0  0  0  0  0  0
   10.3000   -1.3030   23.8960 C   0  0  0  0  0  0  0  0  0  0  0  0
    7.9200   -2.5090   26.5280 C   0  0  0  0  0  0  0  0  0  0  0  0
    9.3240   -0.5460   26.2930 C   0  0  0  0  0  0  0  0  0  0  0  0
   10.5720   -0.0380   24.4080 C   0  0  0  0  0  0  0  0  0  0  0  0
   11.1670   -1.8000   22.9330 C   0  0  0  0  0  0  0  0  0  0  0  0
    7.5440   -2.1660   27.9820 C   0  0  0  0  0  0  0  0  0  0  0  0
    9.0410   -0.1690   27.5720 C   0  0  0  0  0  0  0  0  0  0  0  0
   11.6790    0.7180   23.9870 C   0  0  0  0  0  0  0  0  0  0  0  0
   12.2850   -1.0830   22.4840 C   0  0  0  0  0  0  0  0  0  0  0  0
    8.1430   -0.8870   28.5810 C   0  0  0  0  0  0  0  0  0  0  0  0
   12.6150    0.1640   22.9540 C   0  0  0  0  0  0  0  0  0  0  0  0
   13.2610   -1.8120   21.3050 Cl  0  0  0  0  0  0  0  0  0  0  0  0
    7.8430   -0.3190   30.1760 Cl  0  0  0  0  0  0  0  0  0  0  0  0
  1  2  1  0
  2  3  2  0
  2  4  1  0
  4  5  1  0
  4  6  1  0
  7  5  1  6
  6  8  1  0
  7  8  1  0
  6  9  1  1
  7 10  1  0
  9 10  1  0
 10 11  1  0
 11 12  1  1
 11 13  1  0
 12 14  2  0
 12 15  1  0
 13 16  2  0
 13 17  1  0
 14 18  1  0
 15 19  2  0
 16 20  1  0
 17 21  2  0
 18 22  2  0
 19 22  1  0
 20 23  2  0
 21 23  1  0
 21 24  1  0
 22 25  1  0
M  END
