MAK-UNK-8145c7a0-1
     RDKit          3D

 26 28  0  0  0  0  0  0  0  0999 V2000
    8.0460   -6.9100   26.8230 O   0  0  0  0  0  0  0  0  0  0  0  0
    9.4690   -7.0440   26.6250 S   0  0  0  0  0  0  0  0  0  0  0  0
   10.0770   -6.1640   27.5620 O   0  0  0  0  0  0  0  0  0  0  0  0
    9.6300   -6.1330   25.0940 C   0  0  0  0  0  0  0  0  0  0  0  0
    9.9380   -9.1890   26.6960 N   0  0  0  0  0  0  0  0  0  0  0  0
    9.0900   -4.7130   24.9800 C   0  0  0  0  0  0  0  0  0  0  0  0
    9.6260  -10.7150   27.9970 C   0  0  0  0  0  0  0  0  0  0  0  0
    8.1680   -4.2270   25.8890 N   0  0  0  0  0  0  0  0  0  0  0  0
    9.6160   -3.6740   23.7230 S   0  0  0  0  0  0  0  0  0  0  0  0
   10.3970  -11.3030   29.1360 C   0  0  0  0  0  0  0  0  0  0  0  0
    7.9220   -2.9570   25.5070 N   0  0  0  0  0  0  0  0  0  0  0  0
    8.5950   -2.5080   24.4130 C   0  0  0  0  0  0  0  0  0  0  0  0
    9.8040  -11.8930   30.2140 C   0  0  0  0  0  0  0  0  0  0  0  0
    8.5120   -1.1200   23.8110 C   0  0  0  0  0  0  0  0  0  0  0  0
   10.6410  -12.5910   31.0700 C   0  0  0  0  0  0  0  0  0  0  0  0
    8.5000  -11.8220   30.5460 C   0  0  0  0  0  0  0  0  0  0  0  0
    9.7070   -0.5240   23.6610 N   0  0  0  0  0  0  0  0  0  0  0  0
   10.1420  -13.1890   32.2310 C   0  0  0  0  0  0  0  0  0  0  0  0
    7.9820  -12.4140   31.7440 C   0  0  0  0  0  0  0  0  0  0  0  0
    9.9030    0.8510   24.1430 C   0  0  0  0  0  0  0  0  0  0  0  0
   10.2970   -0.8150   22.3890 C   0  0  0  0  0  0  0  0  0  0  0  0
    8.8130  -13.1100   32.5910 C   0  0  0  0  0  0  0  0  0  0  0  0
   10.9840    1.6530   23.4060 C   0  0  0  0  0  0  0  0  0  0  0  0
   11.8100   -0.6450   22.5570 C   0  0  0  0  0  0  0  0  0  0  0  0
   12.1670    0.7250   23.1260 C   0  0  0  0  0  0  0  0  0  0  0  0
   12.7950   -1.5440   22.2610 F   0  0  0  0  0  0  0  0  0  0  0  0
  1  2  2  0
  2  3  2  0
  2  4  1  0
  2  5  1  0
  4  6  1  0
  5  7  1  0
  6  8  2  0
  6  9  1  0
  7 10  1  0
  8 11  1  0
  9 12  1  0
 11 12  2  0
 10 13  1  0
 12 14  1  0
 13 15  2  0
 13 16  1  0
 14 17  1  0
 15 18  1  0
 16 19  2  0
 17 20  1  0
 17 21  1  0
 18 22  2  0
 19 22  1  0
 20 23  1  0
 21 24  1  0
 23 25  1  0
 24 25  2  0
 24 26  1  0
M  END
