MAK-UNK-27459e11-16
     RDKit          3D

 16 16  0  0  0  0  0  0  0  0999 V2000
    6.6450   -5.5830   27.1270 C   0  0  0  0  0  0  0  0  0  0  0  0
    8.0760   -4.8750   26.3450 S   0  0  0  0  0  0  0  0  0  0  0  0
    9.0150   -5.9090   26.0050 O   0  0  0  0  0  0  0  0  0  0  0  0
    8.4380   -3.7240   27.0950 O   0  0  0  0  0  0  0  0  0  0  0  0
    7.4200   -4.3090   24.9290 N   0  0  0  0  0  0  0  0  0  0  0  0
    8.2340   -3.7800   23.9800 C   0  0  0  0  0  0  0  0  0  0  0  0
    8.5740   -2.3620   24.3290 C   0  0  0  0  0  0  0  0  0  0  0  0
    9.8720   -1.9220   23.7990 C   0  0  0  0  0  0  0  0  0  0  0  0
   10.9330   -1.4340   24.7650 C   0  0  0  0  0  0  0  0  0  0  0  0
   10.0790   -1.9720   22.4480 C   0  0  0  0  0  0  0  0  0  0  0  0
   12.2350   -0.9730   24.1260 C   0  0  0  0  0  0  0  0  0  0  0  0
   11.2230   -1.5700   21.9100 C   0  0  0  0  0  0  0  0  0  0  0  0
   12.2080   -1.0990   22.6560 C   0  0  0  0  0  0  0  0  0  0  0  0
   13.3600   -0.6490   21.9650 C   0  0  0  0  0  0  0  0  0  0  0  0
   13.8000   -1.2850   20.9030 N   0  0  0  0  0  0  0  0  0  0  0  0
   13.8510    0.5010   22.4930 N   0  0  0  0  0  0  0  0  0  0  0  0
  1  2  1  0
  2  3  2  0
  2  4  2  0
  2  5  1  0
  5  6  1  0
  6  7  1  0
  7  8  1  0
  8  9  2  0
  8 10  1  0
  9 11  1  0
 10 12  2  0
 11 13  2  0
 12 13  1  0
 13 14  1  0
 14 15  2  3
 14 16  1  0
M  END
