MAK-UNK-9a6be56d-21
     RDKit          3D

 38 42  0  0  0  0  0  0  0  0999 V2000
    2.8610    1.7720   19.9160 C   0  0  0  0  0  0  0  0  0  0  0  0
    3.4530    1.9300   21.2360 N   0  0  0  0  0  0  0  0  0  0  0  0
    3.1770    0.7510   22.0660 C   0  0  0  0  0  0  0  0  0  0  0  0
    3.8550    0.8560   23.2600 C   0  0  0  0  0  0  0  0  0  0  0  0
    5.1460    0.4360   23.3470 C   0  0  0  0  0  0  0  0  0  0  0  0
    3.5110    1.3420   24.5320 C   0  0  0  0  0  0  0  0  0  0  0  0
    5.6250    0.6390   24.5880 C   0  0  0  0  0  0  0  0  0  0  0  0
    4.6280    1.2080   25.3690 N   0  0  0  0  0  0  0  0  0  0  0  0
    6.8950    0.3830   25.1430 C   0  0  0  0  0  0  0  0  0  0  0  0
    4.6110    1.7090   27.0120 S   0  0  0  0  0  0  0  0  0  0  0  0
    7.1390    0.2860   26.6360 C   0  0  0  0  0  0  0  0  0  0  0  0
    8.0310    0.2080   24.3100 C   0  0  0  0  0  0  0  0  0  0  0  0
    3.2580    2.1750   27.2080 O   0  0  0  0  0  0  0  0  0  0  0  0
    5.1660    0.6750   27.8580 O   0  0  0  0  0  0  0  0  0  0  0  0
    5.6380    3.1300   27.0130 C   0  0  0  0  0  0  0  0  0  0  0  0
    8.3960    0.0470   27.1340 C   0  0  0  0  0  0  0  0  0  0  0  0
    9.3310   -0.0390   24.8350 C   0  0  0  0  0  0  0  0  0  0  0  0
    7.8700    0.2830   22.9760 F   0  0  0  0  0  0  0  0  0  0  0  0
    6.6110    3.2660   26.0320 C   0  0  0  0  0  0  0  0  0  0  0  0
    5.4270    4.0770   28.0090 C   0  0  0  0  0  0  0  0  0  0  0  0
    9.5520   -0.1230   26.1980 C   0  0  0  0  0  0  0  0  0  0  0  0
   10.5380   -0.2050   24.0560 N   0  0  0  0  0  0  0  0  0  0  0  0
    7.3660    4.4200   26.1010 C   0  0  0  0  0  0  0  0  0  0  0  0
    6.1370    5.2160   28.1160 N   0  0  0  0  0  0  0  0  0  0  0  0
   11.1280   -1.4490   23.9090 C   0  0  0  0  0  0  0  0  0  0  0  0
   11.2450    0.9480   23.6310 C   0  0  0  0  0  0  0  0  0  0  0  0
    7.1530    5.3660   27.0900 C   0  0  0  0  0  0  0  0  0  0  0  0
   12.2030   -1.4470   22.7890 C   0  0  0  0  0  0  0  0  0  0  0  0
   12.5280    0.9000   23.0830 C   0  0  0  0  0  0  0  0  0  0  0  0
   10.6060    2.1870   23.7830 C   0  0  0  0  0  0  0  0  0  0  0  0
   13.1620   -0.2690   22.9250 C   0  0  0  0  0  0  0  0  0  0  0  0
   13.1410    2.1030   22.7030 C   0  0  0  0  0  0  0  0  0  0  0  0
   11.2350    3.3810   23.3910 C   0  0  0  0  0  0  0  0  0  0  0  0
   12.5120    3.3330   22.8450 C   0  0  0  0  0  0  0  0  0  0  0  0
   10.3730    4.9170   23.6140 S   0  0  0  0  0  0  0  0  0  0  0  0
   11.2360    5.9940   22.6560 N   0  0  0  0  0  0  0  0  0  0  0  0
    9.0690    4.8200   23.0100 O   0  0  0  0  0  0  0  0  0  0  0  0
   10.5320    5.3640   24.9750 O   0  0  0  0  0  0  0  0  0  0  0  0
  1  2  1  0
  2  3  1  0
  3  4  1  0
  4  5  1  0
  4  6  2  0
  5  7  2  0
  6  8  1  0
  7  8  1  0
  7  9  1  0
  8 10  1  0
  9 11  2  0
  9 12  1  0
 10 13  2  0
 10 14  2  0
 10 15  1  0
 11 16  1  0
 12 17  2  0
 12 18  1  0
 15 19  2  0
 15 20  1  0
 16 21  2  0
 17 21  1  0
 17 22  1  0
 19 23  1  0
 20 24  2  0
 22 25  1  0
 22 26  1  0
 23 27  2  0
 24 27  1  0
 25 28  1  0
 26 29  2  0
 26 30  1  0
 28 31  1  0
 29 31  1  0
 29 32  1  0
 30 33  2  0
 32 34  2  0
 33 34  1  0
 33 35  1  0
 35 36  1  0
 35 37  2  0
 35 38  2  0
M  END
