MAK-UNK-8fdbca50-38-bromoalkyne
     RDKit          3D

 38 41  0  0  0  0  0  0  0  0999 V2000
    6.8570   -4.0900   20.2810 C   0  0  0  0  0  0  0  0  0  0  0  0
    5.6880   -3.4960   19.5250 C   0  0  0  0  0  0  0  0  0  0  0  0
    7.7830   -3.2050   20.8240 N   0  0  0  0  0  0  0  0  0  0  0  0
    7.7360   -1.7630   20.5200 C   0  0  0  0  0  0  0  0  0  0  0  0
    8.4690   -3.4920   22.1040 C   0  0  0  0  0  0  0  0  0  0  0  0
    8.7290   -0.9560   21.3490 C   0  0  0  0  0  0  0  0  0  0  0  0
    8.3500   -2.4860   23.0670 C   0  0  0  0  0  0  0  0  0  0  0  0
    8.7920   -1.2020   22.7210 C   0  0  0  0  0  0  0  0  0  0  0  0
   10.1950   -1.0920   23.3010 N   0  0  0  0  0  0  0  0  0  0  0  0
    7.9410   -0.2210   23.6340 C   0  0  0  0  0  0  0  0  0  0  0  0
   11.4260   -1.2680   22.4950 C   0  0  0  0  0  0  0  0  0  0  0  0
    6.9260    0.3110   23.1530 O   0  0  0  0  0  0  0  0  0  0  0  0
    8.3140    0.0410   24.9170 N   0  0  0  0  0  0  0  0  0  0  0  0
   12.3570   -1.9280   23.3060 C   0  0  0  0  0  0  0  0  0  0  0  0
    9.6200    0.0140   25.3190 C   0  0  0  0  0  0  0  0  0  0  0  0
    7.3350    0.5100   25.7250 C   0  0  0  0  0  0  0  0  0  0  0  0
   13.5670   -2.7340   22.9680 C   0  0  0  0  0  0  0  0  0  0  0  0
   12.4290   -2.0520   24.6910 C   0  0  0  0  0  0  0  0  0  0  0  0
    6.7870    1.8570   25.2610 C   0  0  0  0  0  0  0  0  0  0  0  0
    6.2170   -0.5090   25.9700 C   0  0  0  0  0  0  0  0  0  0  0  0
   14.2720   -3.2940   24.0700 C   0  0  0  0  0  0  0  0  0  0  0  0
   13.6260   -2.9050   24.9870 N   0  0  0  0  0  0  0  0  0  0  0  0
   15.5110   -4.2490   24.7240 C   0  0  0  0  0  0  0  0  0  0  0  0
   14.3340   -3.4860   26.2200 S   0  0  0  0  0  0  0  0  0  0  0  0
   17.0100   -4.4870   24.4170 C   0  0  0  0  0  0  0  0  0  0  0  0
   15.0790   -5.0550   25.7810 C   0  0  0  0  0  0  0  0  0  0  0  0
   13.2820   -4.0720   26.9230 O   0  0  0  0  0  0  0  0  0  0  0  0
   15.0770   -2.3430   26.6570 O   0  0  0  0  0  0  0  0  0  0  0  0
   15.4520   -4.8890   25.7000 C   0  0  0  0  0  0  0  0  0  0  0  0
   17.8250   -5.3780   25.0600 C   0  0  0  0  0  0  0  0  0  0  0  0
   15.9150   -6.0140   26.4580 C   0  0  0  0  0  0  0  0  0  0  0  0
   13.8370   -4.9410   26.1980 F   0  0  0  0  0  0  0  0  0  0  0  0
   15.5830   -5.9910   26.5400 C   0  0  0  0  0  0  0  0  0  0  0  0
   16.2090   -4.9660   24.5400 C   0  0  0  0  0  0  0  0  0  0  0  0
   17.2690   -6.2300   26.1580 C   0  0  0  0  0  0  0  0  0  0  0  0
   16.3790   -7.0930   26.2010 C   0  0  0  0  0  0  0  0  0  0  0  0
   16.9820   -6.0400   24.2510 N   0  0  0  0  0  0  0  0  0  0  0  0
   17.0820   -7.1000   25.0290 C   0  0  0  0  0  0  0  0  0  0  0  0
  1  2  2  3
  1  3  1  0
  3  4  1  0
  3  5  1  0
  4  6  1  0
  5  7  1  0
  6  8  1  0
  7  8  1  0
  8  9  1  0
  8 10  1  0
  9 11  1  0
 10 12  2  0
 10 13  1  0
 11 14  1  0
 13 15  1  0
 13 16  1  0
 14 17  1  0
 14 18  2  0
 16 19  1  0
 16 20  1  0
 17 21  2  0
 18 22  1  0
 21 22  1  0
 21 23  1  0
 22 24  1  0
 23 25  2  0
 23 26  1  0
 24 27  2  0
 24 28  2  0
 24 29  1  0
 25 30  1  0
 26 31  2  0
 26 32  1  0
 29 33  2  0
 29 34  1  0
 30 35  2  0
 31 35  1  0
 33 36  1  0
 34 37  2  0
 36 38  2  0
 37 38  1  0
M  END
