MAK-UNK-8fdbca50-25-chloroacetamide
     RDKit          3D

 39 42  0  0  0  0  0  0  0  0999 V2000
    7.5140   -2.9190   18.8320 C   0  0  0  0  0  0  0  0  0  0  0  0
    6.2770   -2.8920   19.7010 C   0  0  0  0  0  0  0  0  0  0  0  0
    5.5000   -3.8690   19.6600 O   0  0  0  0  0  0  0  0  0  0  0  0
    6.0480   -1.7250   20.4860 N   0  0  0  0  0  0  0  0  0  0  0  0
    5.6260   -1.7470   21.9040 C   0  0  0  0  0  0  0  0  0  0  0  0
    6.3120   -0.3650   19.9260 C   0  0  0  0  0  0  0  0  0  0  0  0
    5.9300   -0.4330   22.5890 C   0  0  0  0  0  0  0  0  0  0  0  0
    6.8940    0.5940   20.8030 C   0  0  0  0  0  0  0  0  0  0  0  0
    7.0790    0.2510   22.1570 C   0  0  0  0  0  0  0  0  0  0  0  0
    7.6410    1.2300   23.0250 C   0  0  0  0  0  0  0  0  0  0  0  0
    7.2660    2.5750   22.9350 O   0  0  0  0  0  0  0  0  0  0  0  0
    8.6660    0.7260   24.0650 N   0  0  0  0  0  0  0  0  0  0  0  0
   10.0630    0.3950   23.5480 C   0  0  0  0  0  0  0  0  0  0  0  0
    8.3680    0.2680   25.4670 C   0  0  0  0  0  0  0  0  0  0  0  0
   11.1850    1.2050   23.7130 N   0  0  0  0  0  0  0  0  0  0  0  0
   10.1690   -0.8140   22.8730 C   0  0  0  0  0  0  0  0  0  0  0  0
    7.3750   -0.8920   25.5940 C   0  0  0  0  0  0  0  0  0  0  0  0
    7.9390    1.3950   26.4050 C   0  0  0  0  0  0  0  0  0  0  0  0
   12.4890    0.7550   23.1620 C   0  0  0  0  0  0  0  0  0  0  0  0
   11.3860   -1.2310   22.3570 C   0  0  0  0  0  0  0  0  0  0  0  0
    8.7090   -1.7500   22.7090 S   0  0  0  0  0  0  0  0  0  0  0  0
   12.5330   -0.4910   22.4850 C   0  0  0  0  0  0  0  0  0  0  0  0
    7.7880   -1.1520   23.6340 O   0  0  0  0  0  0  0  0  0  0  0  0
    8.3660   -1.8580   21.3080 O   0  0  0  0  0  0  0  0  0  0  0  0
    8.8490   -3.3220   23.1860 N   0  0  0  0  0  0  0  0  0  0  0  0
    7.8850   -4.0990   22.8350 C   0  0  0  0  0  0  0  0  0  0  0  0
    9.8060   -4.0170   23.8960 C   0  0  0  0  0  0  0  0  0  0  0  0
    8.1570   -5.4390   23.3250 C   0  0  0  0  0  0  0  0  0  0  0  0
    9.3820   -5.3560   24.0100 C   0  0  0  0  0  0  0  0  0  0  0  0
   11.0390   -3.6820   24.4650 C   0  0  0  0  0  0  0  0  0  0  0  0
    7.2230   -6.3710   23.0060 C   0  0  0  0  0  0  0  0  0  0  0  0
   11.4310   -4.1580   25.7100 C   0  0  0  0  0  0  0  0  0  0  0  0
   11.9320   -2.8800   23.7480 C   0  0  0  0  0  0  0  0  0  0  0  0
    6.7080   -6.1070   21.7790 N   0  0  0  0  0  0  0  0  0  0  0  0
   12.7080   -3.8430   26.1820 C   0  0  0  0  0  0  0  0  0  0  0  0
   13.1930   -2.5490   24.2280 C   0  0  0  0  0  0  0  0  0  0  0  0
   11.5810   -2.4200   22.5510 F   0  0  0  0  0  0  0  0  0  0  0  0
    5.3700   -6.2500   21.7450 C   0  0  0  0  0  0  0  0  0  0  0  0
   13.5840   -3.0420   25.4530 C   0  0  0  0  0  0  0  0  0  0  0  0
  1  2  1  0
  2  3  2  0
  2  4  1  0
  4  5  1  0
  4  6  1  0
  5  7  1  0
  6  8  1  0
  7  9  1  0
  8  9  1  0
  9 10  1  0
 10 11  2  0
 10 12  1  0
 12 13  1  0
 12 14  1  0
 13 15  2  0
 13 16  1  0
 14 17  1  0
 14 18  1  0
 15 19  1  0
 16 20  2  0
 21 16  1  0
 19 22  2  0
 20 22  1  0
 21 23  2  0
 21 24  2  0
 21 25  1  0
 25 26  1  0
 25 27  1  0
 26 28  2  0
 27 29  2  0
 28 29  1  0
 27 30  1  0
 28 31  1  0
 30 32  2  0
 30 33  1  0
 31 34  1  0
 32 35  1  0
 33 36  2  0
 33 37  1  0
 34 38  1  0
 35 39  2  0
 36 39  1  0
M  END
