MAK-UNK-ec98eaf6-52-bromoalkyne
     RDKit          3D

 30 33  0  0  0  0  0  0  0  0999 V2000
    6.7940   -3.5780   19.8210 C   0  0  0  0  0  0  0  0  0  0  0  0
    6.2100   -2.8320   18.6450 C   0  0  0  0  0  0  0  0  0  0  0  0
    6.6780   -2.9560   21.0660 N   0  0  0  0  0  0  0  0  0  0  0  0
    6.7540   -3.6610   22.3250 C   0  0  0  0  0  0  0  0  0  0  0  0
    7.6240   -1.8120   21.3540 C   0  0  2  0  0  0  0  0  0  0  0  0
    8.1510   -3.3380   22.7590 C   0  0  1  0  0  0  0  0  0  0  0  0
    8.8560   -2.6590   21.5550 C   0  0  0  0  0  0  0  0  0  0  0  0
    7.5310   -1.2460   22.7620 C   0  0  0  0  0  0  0  0  0  0  0  0
    7.9870   -2.2090   23.6770 N   0  0  0  0  0  0  0  0  0  0  0  0
    9.0970   -2.0910   24.6180 C   0  0  2  0  0  0  0  0  0  0  0  0
    8.4620   -1.8530   25.9790 C   0  0  0  0  0  0  0  0  0  0  0  0
   10.1570   -1.2840   24.1270 C   0  0  0  0  0  0  0  0  0  0  0  0
    8.7670   -0.6580   26.6180 C   0  0  0  0  0  0  0  0  0  0  0  0
   10.4030    0.1540   24.6170 C   0  0  0  0  0  0  0  0  0  0  0  0
   11.0430   -1.8120   23.1340 C   0  0  0  0  0  0  0  0  0  0  0  0
    7.8530   -0.4410   27.6490 C   0  0  0  0  0  0  0  0  0  0  0  0
   11.4410    0.9220   24.1260 C   0  0  0  0  0  0  0  0  0  0  0  0
   12.1160   -1.0290   22.6250 C   0  0  0  0  0  0  0  0  0  0  0  0
    6.6360    0.1730   27.4030 C   0  0  0  0  0  0  0  0  0  0  0  0
    8.1120   -0.8290   28.9860 C   0  0  0  0  0  0  0  0  0  0  0  0
   12.3700    0.3870   23.1050 C   0  0  0  0  0  0  0  0  0  0  0  0
   13.0060   -1.5830   21.6000 C   0  0  0  0  0  0  0  0  0  0  0  0
    5.7090    0.3790   28.5440 C   0  0  0  0  0  0  0  0  0  0  0  0
    7.2250   -0.6310   30.0760 C   0  0  0  0  0  0  0  0  0  0  0  0
   13.6180   -1.9940   20.7630 N   0  0  0  0  0  0  0  0  0  0  0  0
    5.9390   -0.0110   29.9700 C   0  0  0  0  0  0  0  0  0  0  0  0
    5.1070    0.1720   31.0070 C   0  0  0  0  0  0  0  0  0  0  0  0
    4.0970    1.0500   30.7260 F   0  0  0  0  0  0  0  0  0  0  0  0
    5.7200    0.6630   32.1210 F   0  0  0  0  0  0  0  0  0  0  0  0
    4.4990   -0.9810   31.3930 F   0  0  0  0  0  0  0  0  0  0  0  0
  1  2  2  3
  1  3  1  0
  3  4  1  0
  3  5  1  0
  6  4  1  6
  5  7  1  0
  6  7  1  0
  5  8  1  1
  6  9  1  0
  8  9  1  0
  9 10  1  0
 10 11  1  1
 10 12  1  0
 11 13  1  0
 12 14  2  0
 12 15  1  0
 13 16  1  0
 14 17  1  0
 15 18  2  0
 16 19  2  0
 16 20  1  0
 17 21  2  0
 18 21  1  0
 18 22  1  0
 19 23  1  0
 20 24  2  0
 22 25  3  0
 23 26  2  0
 24 26  1  0
 26 27  1  0
 27 28  1  0
 27 29  1  0
 27 30  1  0
M  END
