MAK-UNK-849bee6c-21-bromoalkyne
     RDKit          3D

 28 30  0  0  0  0  0  0  0  0999 V2000
    6.8320   -3.3630   19.6350 C   0  0  0  0  0  0  0  0  0  0  0  0
    5.8670   -2.8340   18.6580 C   0  0  0  0  0  0  0  0  0  0  0  0
    6.7530   -2.9590   20.9530 N   0  0  0  0  0  0  0  0  0  0  0  0
    6.5050   -3.8010   22.0850 C   0  0  0  0  0  0  0  0  0  0  0  0
    7.1320   -1.5990   21.3020 C   0  0  0  0  0  0  0  0  0  0  0  0
    7.6100   -3.7230   23.1720 C   0  0  0  0  0  0  0  0  0  0  0  0
    8.4720   -1.6220   21.9850 C   0  0  0  0  0  0  0  0  0  0  0  0
    8.6030   -2.6240   23.0690 N   0  0  0  0  0  0  0  0  0  0  0  0
    9.9610   -2.6980   23.5590 C   0  0  0  0  0  0  0  0  0  0  0  0
   10.5200   -1.3140   23.5700 C   0  0  0  0  0  0  0  0  0  0  0  0
    9.6280   -0.2500   24.1620 C   0  0  0  0  0  0  0  0  0  0  0  0
   11.7920   -0.9800   23.0410 C   0  0  0  0  0  0  0  0  0  0  0  0
   10.1540    1.0990   24.1370 C   0  0  0  0  0  0  0  0  0  0  0  0
   12.2350    0.3650   23.0580 C   0  0  0  0  0  0  0  0  0  0  0  0
    9.4680    2.1990   24.6060 C   0  0  0  0  0  0  0  0  0  0  0  0
   11.4870    1.3560   23.5700 C   0  0  0  0  0  0  0  0  0  0  0  0
   13.3980    0.8790   22.5780 N   0  0  0  0  0  0  0  0  0  0  0  0
   13.4400    2.2580   22.1620 C   0  0  0  0  0  0  0  0  0  0  0  0
   14.5350    2.5720   21.4930 C   0  0  0  0  0  0  0  0  0  0  0  0
   12.5110    3.3270   22.3380 C   0  0  0  0  0  0  0  0  0  0  0  0
   14.8700    3.7760   20.9700 C   0  0  0  0  0  0  0  0  0  0  0  0
   12.8420    4.5960   21.7920 C   0  0  0  0  0  0  0  0  0  0  0  0
   16.0750    4.0020   20.2450 C   0  0  0  0  0  0  0  0  0  0  0  0
   13.9930    4.8030   21.1390 N   0  0  0  0  0  0  0  0  0  0  0  0
   12.0000    5.6590   21.8970 N   0  0  0  0  0  0  0  0  0  0  0  0
   16.3960    5.0520   19.4910 N   0  0  0  0  0  0  0  0  0  0  0  0
   11.8060    6.3600   23.1560 C   0  0  0  0  0  0  0  0  0  0  0  0
   12.0860    5.4190   24.3100 C   0  0  0  0  0  0  0  0  0  0  0  0
  1  2  2  3
  1  3  1  0
  3  4  1  0
  3  5  1  0
  4  6  1  0
  5  7  1  0
  6  8  1  0
  7  8  1  0
  8  9  1  0
  9 10  1  0
 10 11  2  0
 10 12  1  0
 11 13  1  0
 12 14  2  0
 13 15  1  0
 13 16  2  0
 14 16  1  0
 14 17  1  0
 17 18  1  0
 18 19  2  0
 18 20  1  0
 19 21  1  0
 20 22  2  0
 21 23  1  0
 21 24  2  0
 22 24  1  0
 22 25  1  0
 23 26  3  0
 25 27  1  0
 27 28  1  0
M  END
