MAK-UNK-69bf97dd-1-vinylsulfonamide
     RDKit          3D

 30 32  0  0  0  0  0  0  0  0999 V2000
    8.0770   -3.4720   19.8070 C   0  0  0  0  0  0  0  0  0  0  0  0
    6.7990   -2.8340   19.3290 C   0  0  0  0  0  0  0  0  0  0  0  0
    5.7400   -3.7660   20.3520 S   0  0  0  0  0  0  0  0  0  0  0  0
    4.7880   -2.9610   21.0240 O   0  0  0  0  0  0  0  0  0  0  0  0
    5.3310   -4.9370   19.6460 O   0  0  0  0  0  0  0  0  0  0  0  0
    6.8150   -4.2110   21.5090 N   0  0  0  0  0  0  0  0  0  0  0  0
    7.7210   -3.1780   22.0680 C   0  0  0  0  0  0  0  0  0  0  0  0
    6.5870   -5.4500   22.2380 C   0  0  0  0  0  0  0  0  0  0  0  0
    7.3750   -3.0570   23.5830 C   0  0  0  0  0  0  0  0  0  0  0  0
    5.8150   -5.0890   23.4840 C   0  0  0  0  0  0  0  0  0  0  0  0
    5.9160   -3.5740   23.6780 C   0  0  0  0  0  0  0  0  0  0  0  0
    5.5900   -3.2090   25.1220 C   0  0  0  0  0  0  0  0  0  0  0  0
    4.5160   -3.4680   25.6400 O   0  0  0  0  0  0  0  0  0  0  0  0
    6.5890   -2.5680   25.7960 N   0  0  0  0  0  0  0  0  0  0  0  0
    6.3370   -2.1760   27.1640 C   0  0  0  0  0  0  0  0  0  0  0  0
    6.3640   -0.6680   27.2580 C   0  0  0  0  0  0  0  0  0  0  0  0
    6.1030    0.2560   26.1010 C   0  0  0  0  0  0  0  0  0  0  0  0
    6.6560   -0.1150   28.5020 C   0  0  0  0  0  0  0  0  0  0  0  0
    6.1810    1.7370   26.3460 C   0  0  0  0  0  0  0  0  0  0  0  0
    6.7190    1.2580   28.6940 C   0  0  0  0  0  0  0  0  0  0  0  0
    6.4940    2.1520   27.6600 C   0  0  0  0  0  0  0  0  0  0  0  0
    7.0910    1.8640   30.2520 S   0  0  0  0  0  0  0  0  0  0  0  0
    7.3260    3.2870   30.1140 O   0  0  0  0  0  0  0  0  0  0  0  0
    8.0940    0.9890   30.8270 O   0  0  0  0  0  0  0  0  0  0  0  0
    5.6460    1.6300   31.1400 N   0  0  0  0  0  0  0  0  0  0  0  0
    4.6570    2.5460   31.0280 C   0  0  0  0  0  0  0  0  0  0  0  0
    5.7830    0.9710   32.4810 C   0  0  0  0  0  0  0  0  0  0  0  0
    3.4170    1.8780   31.5790 C   0  0  0  0  0  0  0  0  0  0  0  0
    4.8390    1.5480   33.5340 C   0  0  0  0  0  0  0  0  0  0  0  0
    3.3900    1.5330   33.0670 C   0  0  0  0  0  0  0  0  0  0  0  0
  1  2  1  0
  3  2  1  0
  3  4  2  0
  3  5  2  0
  3  6  1  0
  6  7  1  0
  6  8  1  0
  7  9  1  0
  8 10  1  0
  9 11  1  0
 10 11  1  0
 11 12  1  0
 12 13  2  0
 12 14  1  0
 14 15  1  0
 15 16  1  0
 16 17  2  0
 16 18  1  0
 17 19  1  0
 18 20  2  0
 19 21  2  0
 20 21  1  0
 22 20  1  0
 22 23  2  0
 22 24  2  0
 22 25  1  0
 25 26  1  0
 25 27  1  0
 26 28  1  0
 27 29  1  0
 28 30  1  0
 29 30  1  0
M  END
