MAK-UNK-ec98eaf6-14-chloroacetamide
     RDKit          3D

 21 23  0  0  0  0  0  0  0  0999 V2000
    7.2110   -3.0000   18.9080 C   0  0  0  0  0  0  0  0  0  0  0  0
    6.2510   -3.3930   19.9860 C   0  0  0  0  0  0  0  0  0  0  0  0
    5.3100   -4.1450   19.7300 O   0  0  0  0  0  0  0  0  0  0  0  0
    6.4480   -2.9530   21.2690 N   0  0  0  0  0  0  0  0  0  0  0  0
    6.2330   -3.7600   22.5130 C   0  0  0  0  0  0  0  0  0  0  0  0
    7.1050   -1.6620   21.6640 C   0  0  1  0  0  0  0  0  0  0  0  0
    6.8620   -2.7350   23.4690 C   0  0  2  0  0  0  0  0  0  0  0  0
    6.4110   -1.3750   22.9920 C   0  0  0  0  0  0  0  0  0  0  0  0
    8.4560   -1.9000   21.8780 C   0  0  0  0  0  0  0  0  0  0  0  0
    8.3230   -2.6450   23.1730 N   0  0  0  0  0  0  0  0  0  0  0  0
    9.2170   -2.2660   24.2590 C   0  0  0  0  0  0  0  0  0  0  0  0
   10.1650   -1.3990   23.7930 C   0  0  0  0  0  0  0  0  0  0  0  0
   11.1840   -1.9010   22.9400 C   0  0  0  0  0  0  0  0  0  0  0  0
   10.1820    0.0800   24.1170 C   0  0  0  0  0  0  0  0  0  0  0  0
   12.2780   -1.0680   22.3390 C   0  0  0  0  0  0  0  0  0  0  0  0
   11.1690    0.8600   23.5720 C   0  0  0  0  0  0  0  0  0  0  0  0
   13.3920   -1.7860   21.3170 Cl  0  0  0  0  0  0  0  0  0  0  0  0
   12.2890    0.3980   22.6800 C   0  0  0  0  0  0  0  0  0  0  0  0
   11.4210    2.3300   23.6550 C   0  0  0  0  0  0  0  0  0  0  0  0
   10.8740    2.9270   22.4860 O   0  0  0  0  0  0  0  0  0  0  0  0
    9.4540    2.9720   22.5060 C   0  0  0  0  0  0  0  0  0  0  0  0
  1  2  1  0
  2  3  2  0
  2  4  1  0
  4  5  1  0
  4  6  1  0
  7  5  1  6
  6  8  1  0
  7  8  1  0
  6  9  1  1
  7 10  1  0
  9 10  1  0
 10 11  1  0
 11 12  1  0
 12 13  2  0
 12 14  1  0
 13 15  1  0
 14 16  2  0
 15 17  1  0
 15 18  2  0
 16 18  1  0
 16 19  1  0
 19 20  1  0
 20 21  1  0
M  END
