MAK-UNK-30aad1f1-15-nitrile
     RDKit          3D

 25 27  0  0  0  0  0  0  0  0999 V2000
    7.0760   -2.9310   18.6660 C   0  0  0  0  0  0  0  0  0  0  0  0
    6.0800   -3.1050   17.9360 N   0  0  0  0  0  0  0  0  0  0  0  0
    6.8670   -1.6190   19.2430 C   0  0  0  0  0  0  0  0  0  0  0  0
    6.0310   -0.6240   18.4000 C   0  0  0  0  0  0  0  0  0  0  0  0
    7.3380   -1.2350   20.4750 C   0  0  0  0  0  0  0  0  0  0  0  0
    5.7370    0.7430   18.9730 C   0  0  0  0  0  0  0  0  0  0  0  0
    7.0980   -0.0280   21.0170 N   0  0  0  0  0  0  0  0  0  0  0  0
    6.3600    0.8860   20.3560 C   0  0  0  0  0  0  0  0  0  0  0  0
    6.1380    2.1210   21.0610 N   0  0  0  0  0  0  0  0  0  0  0  0
    6.0840    1.7900   22.5030 C   0  0  0  0  0  0  0  0  0  0  0  0
    7.2600    1.3840   23.1360 C   0  0  0  0  0  0  0  0  0  0  0  0
    4.9130    1.8590   23.2850 C   0  0  0  0  0  0  0  0  0  0  0  0
    7.1750    1.0810   24.4840 C   0  0  0  0  0  0  0  0  0  0  0  0
    5.0390    1.5060   24.6490 C   0  0  0  0  0  0  0  0  0  0  0  0
    3.7680    2.2490   22.7050 N   0  0  0  0  0  0  0  0  0  0  0  0
    6.0250    1.1620   25.1930 N   0  0  0  0  0  0  0  0  0  0  0  0
    2.5590    2.3560   23.3040 C   0  0  0  0  0  0  0  0  0  0  0  0
    2.2580    1.7000   24.3040 O   0  0  0  0  0  0  0  0  0  0  0  0
    1.6840    3.2670   22.6970 N   0  0  0  0  0  0  0  0  0  0  0  0
    0.5040    3.6860   23.4430 C   0  0  0  0  0  0  0  0  0  0  0  0
   -0.7630    2.9240   23.0680 C   0  0  0  0  0  0  0  0  0  0  0  0
    0.4360    4.6800   24.4190 C   0  0  0  0  0  0  0  0  0  0  0  0
   -2.0800    3.2400   23.7430 C   0  0  0  0  0  0  0  0  0  0  0  0
   -0.8060    4.9700   25.0470 C   0  0  0  0  0  0  0  0  0  0  0  0
   -2.0750    4.2040   24.6660 C   0  0  0  0  0  0  0  0  0  0  0  0
  1  2  2  3
  1  3  1  0
  3  4  2  0
  3  5  1  0
  4  6  1  0
  5  7  2  0
  6  8  2  0
  7  8  1  0
  8  9  1  0
  9 10  1  0
 10 11  2  0
 10 12  1  0
 11 13  1  0
 12 14  2  0
 12 15  1  0
 13 16  2  0
 14 16  1  0
 15 17  1  0
 17 18  2  0
 17 19  1  0
 19 20  1  0
 20 21  2  0
 20 22  1  0
 21 23  1  0
 22 24  2  0
 23 25  2  0
 24 25  1  0
M  END
