MAK-UNK-7c9d1431-15-nitrile
     RDKit          3D

 17 18  0  0  0  0  0  0  0  0999 V2000
    7.9680   -3.3270   19.7390 C   0  0  0  0  0  0  0  0  0  0  0  0
    6.6670   -3.4210   19.4470 N   0  0  0  0  0  0  0  0  0  0  0  0
    8.5750   -2.8730   21.1220 N   0  0  0  0  0  0  0  0  0  0  0  0
    9.7590   -2.0470   21.6660 C   0  0  0  0  0  0  0  0  0  0  0  0
    7.6780   -2.8300   22.2500 C   0  0  1  0  0  0  0  0  0  0  0  0
   11.1620   -2.2860   21.5180 C   0  0  0  0  0  0  0  0  0  0  0  0
    9.5260   -0.8650   22.4760 C   0  0  0  0  0  0  0  0  0  0  0  0
    6.9380   -1.6810   22.1200 C   0  0  0  0  0  0  0  0  0  0  0  0
    6.6990   -3.9820   22.3150 C   0  0  0  0  0  0  0  0  0  0  0  0
   12.1860   -1.5010   22.0740 C   0  0  0  0  0  0  0  0  0  0  0  0
   10.5720   -0.0640   23.0390 C   0  0  0  0  0  0  0  0  0  0  0  0
    5.6630   -1.7120   21.6470 C   0  0  0  0  0  0  0  0  0  0  0  0
    5.3250   -3.3820   21.3470 S   0  0  0  0  0  0  0  0  0  0  0  0
   11.8900   -0.4250   22.8110 C   0  0  0  0  0  0  0  0  0  0  0  0
   10.2910    1.1690   23.8820 C   0  0  0  0  0  0  0  0  0  0  0  0
    4.1380   -3.7670   22.0570 O   0  0  0  0  0  0  0  0  0  0  0  0
    5.5040   -3.6960   19.9330 O   0  0  0  0  0  0  0  0  0  0  0  0
  1  2  2  3
  1  3  1  0
  3  4  1  0
  5  3  1  6
  4  6  2  0
  4  7  1  0
  5  8  1  0
  5  9  1  0
  6 10  1  0
  7 11  2  0
  8 12  2  0
  9 13  1  0
 13 12  1  0
 10 14  2  0
 11 14  1  0
 11 15  1  0
 13 16  2  0
 13 17  2  0
M  END
