MAK-UNK-8fdbca50-28-nitrile
     RDKit          3D

 38 41  0  0  0  0  0  0  0  0999 V2000
    6.5610   -4.3570   20.4630 C   0  0  0  0  0  0  0  0  0  0  0  0
    5.5870   -5.0720   20.0600 N   0  0  0  0  0  0  0  0  0  0  0  0
    6.5850   -3.7300   21.7020 N   0  0  0  0  0  0  0  0  0  0  0  0
    6.2610   -4.4630   22.9440 C   0  0  0  0  0  0  0  0  0  0  0  0
    6.4880   -2.2580   21.7890 C   0  0  0  0  0  0  0  0  0  0  0  0
    6.9630   -3.8830   24.1950 C   0  0  0  0  0  0  0  0  0  0  0  0
    6.1190   -1.8610   23.0840 C   0  0  0  0  0  0  0  0  0  0  0  0
    7.0960   -2.3730   24.1550 C   0  0  0  0  0  0  0  0  0  0  0  0
    6.8750   -1.6560   25.3730 C   0  0  0  0  0  0  0  0  0  0  0  0
    6.0590   -2.0540   26.1950 O   0  0  0  0  0  0  0  0  0  0  0  0
    7.7220   -0.3930   25.5530 N   0  0  0  0  0  0  0  0  0  0  0  0
    8.9730   -0.3490   24.7450 C   0  0  0  0  0  0  0  0  0  0  0  0
    7.5390    0.5690   26.6570 C   0  0  0  0  0  0  0  0  0  0  0  0
   10.1970   -0.1920   25.3960 C   0  0  0  0  0  0  0  0  0  0  0  0
    9.0370   -0.4680   23.3690 C   0  0  0  0  0  0  0  0  0  0  0  0
    7.4960    1.8660   26.1700 C   0  0  0  0  0  0  0  0  0  0  0  0
    8.6470    0.4310   27.7060 C   0  0  0  0  0  0  0  0  0  0  0  0
   11.5270   -0.1870   24.6260 C   0  0  0  0  0  0  0  0  0  0  0  0
   10.2540   -0.4710   22.6730 C   0  0  0  0  0  0  0  0  0  0  0  0
   11.5630   -0.3580   23.2170 C   0  0  0  0  0  0  0  0  0  0  0  0
   10.1160   -0.6110   21.3630 F   0  0  0  0  0  0  0  0  0  0  0  0
   12.6090   -0.4980   22.1220 C   0  0  0  0  0  0  0  0  0  0  0  0
   13.6760    0.3240   21.4460 C   0  0  0  0  0  0  0  0  0  0  0  0
   12.6120   -1.5980   21.5420 N   0  0  0  0  0  0  0  0  0  0  0  0
   14.1500   -0.5700   20.2760 C   0  0  0  0  0  0  0  0  0  0  0  0
   13.4350   -1.7210   20.5890 C   0  0  0  0  0  0  0  0  0  0  0  0
   11.7430   -2.8660   21.7960 S   0  0  0  0  0  0  0  0  0  0  0  0
   15.1820   -0.2060   19.0800 C   0  0  0  0  0  0  0  0  0  0  0  0
   10.3470   -2.5390   21.7080 O   0  0  0  0  0  0  0  0  0  0  0  0
   12.5090   -3.6900   20.8950 O   0  0  0  0  0  0  0  0  0  0  0  0
   12.4240   -2.5430   23.3240 C   0  0  0  0  0  0  0  0  0  0  0  0
   16.0080   -1.0230   18.3290 N   0  0  0  0  0  0  0  0  0  0  0  0
   13.6370   -2.9480   23.6960 C   0  0  0  0  0  0  0  0  0  0  0  0
   11.6740   -1.8070   24.1310 C   0  0  0  0  0  0  0  0  0  0  0  0
   16.4040   -0.6730   16.9710 C   0  0  0  0  0  0  0  0  0  0  0  0
   14.0060   -2.5330   24.9360 C   0  0  0  0  0  0  0  0  0  0  0  0
   12.0420   -1.3990   25.3040 N   0  0  0  0  0  0  0  0  0  0  0  0
   13.2220   -1.7840   25.6600 C   0  0  0  0  0  0  0  0  0  0  0  0
  1  2  2  3
  1  3  1  0
  3  4  1  0
  3  5  1  0
  4  6  1  0
  5  7  1  0
  6  8  1  0
  7  8  1  0
  8  9  1  0
  9 10  2  0
  9 11  1  0
 11 12  1  0
 11 13  1  0
 12 14  2  0
 12 15  1  0
 13 16  1  0
 13 17  1  0
 14 18  1  0
 15 19  2  0
 18 20  2  0
 19 20  1  0
 19 21  1  0
 20 22  1  0
 22 23  2  0
 22 24  1  0
 23 25  1  0
 24 26  1  0
 25 26  2  0
 24 27  1  0
 25 28  1  0
 27 29  2  0
 27 30  2  0
 27 31  1  0
 28 32  1  0
 31 33  2  0
 31 34  1  0
 32 35  1  0
 33 36  1  0
 34 37  2  0
 36 38  2  0
 37 38  1  0
M  END
