MAK-UNK-69bf97dd-8-vinylsulfonamide
     RDKit          3D

 29 31  0  0  0  0  0  0  0  0999 V2000
    8.1180   -3.7050   20.3550 C   0  0  0  0  0  0  0  0  0  0  0  0
    6.9080   -2.8090   20.4050 C   0  0  0  0  0  0  0  0  0  0  0  0
    5.6610   -3.8870   20.9950 S   0  0  0  0  0  0  0  0  0  0  0  0
    4.6560   -3.1240   21.6580 O   0  0  0  0  0  0  0  0  0  0  0  0
    5.2950   -4.7770   19.9140 O   0  0  0  0  0  0  0  0  0  0  0  0
    6.3820   -4.7990   22.1730 N   0  0  0  0  0  0  0  0  0  0  0  0
    5.5980   -5.8820   22.7930 C   0  0  0  0  0  0  0  0  0  0  0  0
    7.2660   -3.9950   23.0350 C   0  0  0  0  0  0  0  0  0  0  0  0
    5.8730   -5.7250   24.3230 C   0  0  0  0  0  0  0  0  0  0  0  0
    6.4990   -3.3190   24.1570 C   0  0  0  0  0  0  0  0  0  0  0  0
    5.4250   -4.2820   24.6470 C   0  0  0  0  0  0  0  0  0  0  0  0
    5.4050   -4.4180   26.1820 C   0  0  0  0  0  0  0  0  0  0  0  0
    5.8110   -5.4170   26.7620 O   0  0  0  0  0  0  0  0  0  0  0  0
    4.8860   -3.3300   26.8450 N   0  0  0  0  0  0  0  0  0  0  0  0
    5.4120   -1.9770   26.6500 C   0  0  0  0  0  0  0  0  0  0  0  0
    6.5320   -1.7110   27.6840 C   0  0  0  0  0  0  0  0  0  0  0  0
    5.6580   -1.0500   28.7220 C   0  0  0  0  0  0  0  0  0  0  0  0
    6.8390   -1.2000   28.8740 C   0  0  0  0  0  0  0  0  0  0  0  0
    6.2540   -0.5000   30.1310 C   0  0  0  0  0  0  0  0  0  0  0  0
    7.9450   -1.1090   29.5380 C   0  0  0  0  0  0  0  0  0  0  0  0
    5.4220   -0.4620   29.7510 S   0  0  0  0  0  0  0  0  0  0  0  0
    7.6440   -0.5000   30.6940 C   0  0  0  0  0  0  0  0  0  0  0  0
    5.1750   -1.2280   30.9780 O   0  0  0  0  0  0  0  0  0  0  0  0
    4.3200   -0.2550   28.8180 O   0  0  0  0  0  0  0  0  0  0  0  0
    5.9520    1.1560   30.1000 N   0  0  0  0  0  0  0  0  0  0  0  0
    6.8370    1.7080   29.2160 C   0  0  0  0  0  0  0  0  0  0  0  0
    6.4060    1.5250   31.4900 C   0  0  0  0  0  0  0  0  0  0  0  0
    8.0960    2.2750   29.8880 C   0  0  0  0  0  0  0  0  0  0  0  0
    7.7740    2.1730   31.3770 C   0  0  0  0  0  0  0  0  0  0  0  0
  1  2  1  0
  3  2  1  0
  3  4  2  0
  3  5  2  0
  3  6  1  0
  6  7  1  0
  6  8  1  0
  7  9  1  0
  8 10  1  0
  9 11  1  0
 10 11  1  0
 11 12  1  0
 12 13  2  0
 12 14  1  0
 14 15  1  0
 15 16  1  0
 16 17  2  0
 16 18  1  0
 17 19  1  0
 18 20  2  0
 21 18  1  0
 19 22  2  0
 20 22  1  0
 21 23  2  0
 21 24  2  0
 21 25  1  0
 25 26  1  0
 25 27  1  0
 26 28  1  0
 27 29  1  0
 28 29  1  0
M  END
