MAK-UNK-ec98eaf6-25-nitrile
     RDKit          3D

 28 31  0  0  0  0  0  0  0  0999 V2000
    6.5140   -4.1220   20.1170 C   0  0  0  0  0  0  0  0  0  0  0  0
    5.5010   -3.6720   19.5010 N   0  0  0  0  0  0  0  0  0  0  0  0
    6.5950   -4.0180   21.4740 N   0  0  0  0  0  0  0  0  0  0  0  0
    5.4180   -3.9640   22.3870 C   0  0  0  0  0  0  0  0  0  0  0  0
    7.6900   -3.4190   22.2700 C   0  0  2  0  0  0  0  0  0  0  0  0
    6.2070   -3.7420   23.7200 C   0  0  1  0  0  0  0  0  0  0  0  0
    7.6220   -4.3440   23.4960 C   0  0  0  0  0  0  0  0  0  0  0  0
    7.2400   -2.1130   22.4990 C   0  0  0  0  0  0  0  0  0  0  0  0
    6.6740   -2.3310   23.8570 N   0  0  0  0  0  0  0  0  0  0  0  0
    7.7170   -2.1500   24.8700 C   0  0  0  0  0  0  0  0  0  0  0  0
    8.4930   -1.0190   24.6150 C   0  0  0  0  0  0  0  0  0  0  0  0
    7.9030    0.2420   24.8030 C   0  0  0  0  0  0  0  0  0  0  0  0
    9.8640   -1.1370   24.1680 C   0  0  0  0  0  0  0  0  0  0  0  0
    8.5140    1.5060   24.6020 C   0  0  0  0  0  0  0  0  0  0  0  0
   10.4930    0.1100   23.9630 C   0  0  0  0  0  0  0  0  0  0  0  0
   10.4430   -2.3940   23.9760 C   0  0  0  0  0  0  0  0  0  0  0  0
    7.6920    2.7470   24.8590 C   0  0  0  0  0  0  0  0  0  0  0  0
    9.9240    1.5230   24.1470 C   0  0  0  0  0  0  0  0  0  0  0  0
   11.3620   -2.7090   25.0700 N   0  0  0  0  0  0  0  0  0  0  0  0
    7.0540    3.6990   25.0440 N   0  0  0  0  0  0  0  0  0  0  0  0
   12.7290   -2.8060   24.9360 C   0  0  0  0  0  0  0  0  0  0  0  0
   13.4600   -3.5250   25.6150 O   0  0  0  0  0  0  0  0  0  0  0  0
   13.1880   -2.0080   23.9570 N   0  0  0  0  0  0  0  0  0  0  0  0
   12.7590   -0.6330   24.1780 C   0  0  0  0  0  0  0  0  0  0  0  0
   12.9630   -2.5150   22.6120 C   0  0  0  0  0  0  0  0  0  0  0  0
   12.8940    0.1090   22.8750 C   0  0  0  0  0  0  0  0  0  0  0  0
   12.8210   -1.5110   21.6830 C   0  0  0  0  0  0  0  0  0  0  0  0
   12.2400   -0.5040   22.0630 O   0  0  0  0  0  0  0  0  0  0  0  0
  1  2  2  3
  1  3  1  0
  3  4  1  0
  3  5  1  0
  6  4  1  6
  5  7  1  0
  6  7  1  0
  5  8  1  1
  6  9  1  0
  8  9  1  0
  9 10  1  0
 10 11  1  0
 11 12  2  0
 11 13  1  0
 12 14  1  0
 13 15  2  0
 13 16  1  0
 14 17  1  0
 14 18  2  0
 15 18  1  0
 16 19  1  0
 17 20  3  0
 19 21  1  0
 21 22  2  0
 21 23  1  0
 23 24  1  0
 23 25  1  0
 24 26  1  0
 25 27  1  0
 26 28  1  0
 27 28  1  0
M  END
