MAK-UNK-de9577cf-8
     RDKit          3D

 37 40  0  0  0  0  0  0  0  0999 V2000
   21.3490   -2.1050   21.8230 C   0  0  0  0  0  0  0  0  0  0  0  0
   21.7810   -1.9980   23.2220 N   0  0  0  0  0  0  0  0  0  0  0  0
   20.8460   -2.3930   24.2060 C   0  0  0  0  0  0  0  0  0  0  0  0
   19.7970   -3.2730   23.9300 C   0  0  0  0  0  0  0  0  0  0  0  0
   18.6880   -3.4600   24.7340 C   0  0  0  0  0  0  0  0  0  0  0  0
   19.5350   -4.1390   22.8770 C   0  0  0  0  0  0  0  0  0  0  0  0
   17.6490   -4.4410   24.2380 C   0  0  0  0  0  0  0  0  0  0  0  0
   18.2180   -4.8600   23.0410 N   0  0  0  0  0  0  0  0  0  0  0  0
   16.4080   -4.6940   25.0350 C   0  0  0  0  0  0  0  0  0  0  0  0
   17.6090   -5.8970   21.9450 S   0  0  0  0  0  0  0  0  0  0  0  0
   15.2250   -3.8550   25.0440 C   0  0  0  0  0  0  0  0  0  0  0  0
   16.4520   -5.7820   25.8620 C   0  0  0  0  0  0  0  0  0  0  0  0
   18.6880   -6.6450   21.5380 O   0  0  0  0  0  0  0  0  0  0  0  0
   16.3010   -6.3500   22.2990 O   0  0  0  0  0  0  0  0  0  0  0  0
   17.6980   -4.8350   20.6740 C   0  0  0  0  0  0  0  0  0  0  0  0
   14.2080   -3.9180   25.8260 C   0  0  0  0  0  0  0  0  0  0  0  0
   15.4210   -5.8870   26.6560 C   0  0  0  0  0  0  0  0  0  0  0  0
   17.4450   -6.6600   25.9320 F   0  0  0  0  0  0  0  0  0  0  0  0
   16.6140   -4.5870   19.4620 C   0  0  0  0  0  0  0  0  0  0  0  0
   18.9770   -3.9620   20.6180 C   0  0  0  0  0  0  0  0  0  0  0  0
   13.1730   -3.0340   25.8320 O   0  0  0  0  0  0  0  0  0  0  0  0
   14.2670   -4.8760   26.6590 C   0  0  0  0  0  0  0  0  0  0  0  0
   17.0390   -3.4340   18.2760 C   0  0  0  0  0  0  0  0  0  0  0  0
   19.2400   -2.9860   19.5670 N   0  0  0  0  0  0  0  0  0  0  0  0
   12.1520   -2.9090   24.8850 C   0  0  0  0  0  0  0  0  0  0  0  0
   18.3520   -2.7390   18.4610 C   0  0  0  0  0  0  0  0  0  0  0  0
   11.4740   -3.7730   24.3520 O   0  0  0  0  0  0  0  0  0  0  0  0
   11.7830   -1.5930   24.5180 C   0  0  0  0  0  0  0  0  0  0  0  0
   12.7220   -0.6840   23.7660 C   0  0  0  0  0  0  0  0  0  0  0  0
   10.4980   -1.1400   24.8730 C   0  0  0  0  0  0  0  0  0  0  0  0
   12.2870    0.7200   23.3940 C   0  0  0  0  0  0  0  0  0  0  0  0
    9.9900    0.2710   24.5290 C   0  0  0  0  0  0  0  0  0  0  0  0
   10.9120    1.2260   23.7680 C   0  0  0  0  0  0  0  0  0  0  0  0
   10.3620    2.8760   23.3550 S   0  0  0  0  0  0  0  0  0  0  0  0
    9.5370    2.6930   21.9020 N   0  0  0  0  0  0  0  0  0  0  0  0
   11.5350    3.6760   23.0970 O   0  0  0  0  0  0  0  0  0  0  0  0
    9.3530    3.3100   24.3030 O   0  0  0  0  0  0  0  0  0  0  0  0
  1  2  1  0
  2  3  1  0
  3  4  1  0
  4  5  1  0
  4  6  2  0
  5  7  2  0
  6  8  1  0
  7  8  1  0
  7  9  1  0
  8 10  1  0
  9 11  2  0
  9 12  1  0
 10 13  2  0
 10 14  2  0
 10 15  1  0
 11 16  1  0
 12 17  2  0
 12 18  1  0
 15 19  2  0
 15 20  1  0
 16 21  1  0
 16 22  2  0
 17 22  1  0
 19 23  1  0
 20 24  2  0
 21 25  1  0
 23 26  2  0
 24 26  1  0
 25 27  2  0
 25 28  1  0
 28 29  2  0
 28 30  1  0
 29 31  1  0
 30 32  2  0
 31 33  2  0
 32 33  1  0
 33 34  1  0
 34 35  1  0
 34 36  2  0
 34 37  2  0
M  END
