MAK-UNK-6ca90168-12-bromoalkyne
     RDKit          3D

 21 23  0  0  0  0  0  0  0  0999 V2000
    8.1660   -3.4400   19.6610 C   0  0  0  0  0  0  0  0  0  0  0  0
    7.0450   -3.0960   18.6760 C   0  0  0  0  0  0  0  0  0  0  0  0
    7.9100   -2.9790   20.9230 N   0  0  0  0  0  0  0  0  0  0  0  0
    6.9600   -3.5130   21.9040 C   0  0  0  0  0  0  0  0  0  0  0  0
    7.7280   -1.5410   20.8270 C   0  0  0  0  0  0  0  0  0  0  0  0
    6.6230   -2.2930   22.8710 C   0  0  0  0  0  0  0  0  0  0  0  0
    8.4130   -0.8690   21.9720 C   0  0  0  0  0  0  0  0  0  0  0  0
    7.8360   -1.4330   23.1920 N   0  0  0  0  0  0  0  0  0  0  0  0
    8.8540   -1.9560   24.0910 C   0  0  0  0  0  0  0  0  0  0  0  0
    8.5670   -3.4220   23.8630 C   0  0  0  0  0  0  0  0  0  0  0  0
   10.2360   -1.3450   23.7590 C   0  0  0  0  0  0  0  0  0  0  0  0
    9.4840   -3.9970   22.7630 C   0  0  0  0  0  0  0  0  0  0  0  0
    7.5550   -4.0590   24.5950 C   0  0  0  0  0  0  0  0  0  0  0  0
   10.3070    0.0870   24.1210 C   0  0  0  0  0  0  0  0  0  0  0  0
   11.3560   -1.9840   23.1760 C   0  0  0  0  0  0  0  0  0  0  0  0
    9.0750   -5.4690   22.5730 C   0  0  0  0  0  0  0  0  0  0  0  0
    7.1850   -5.5060   24.3850 C   0  0  0  0  0  0  0  0  0  0  0  0
   11.5230    0.9570   23.9030 C   0  0  0  0  0  0  0  0  0  0  0  0
   12.6540   -1.2170   22.9010 C   0  0  0  0  0  0  0  0  0  0  0  0
    7.9880   -6.2280   23.3160 C   0  0  0  0  0  0  0  0  0  0  0  0
   12.7330    0.2720   23.2680 C   0  0  0  0  0  0  0  0  0  0  0  0
  1  2  2  3
  1  3  1  0
  3  4  1  0
  3  5  1  0
  4  6  1  0
  5  7  1  0
  6  8  1  0
  7  8  1  0
  8  9  1  0
  9 10  1  0
  9 11  1  0
 10 12  2  0
 10 13  1  0
 11 14  2  0
 11 15  1  0
 12 16  1  0
 13 17  2  0
 14 18  1  0
 15 19  2  0
 16 20  2  0
 17 20  1  0
 18 21  2  0
 19 21  1  0
M  END
