MAK-UNK-72b7ba6b-1-nitrile
     RDKit          3D

 32 35  0  0  0  0  0  0  0  0999 V2000
    6.5420   -3.9600   20.0480 C   0  0  0  0  0  0  0  0  0  0  0  0
    5.7960   -4.9980   20.0400 N   0  0  0  0  0  0  0  0  0  0  0  0
    6.5100   -3.0880   21.1220 N   0  0  0  0  0  0  0  0  0  0  0  0
    6.9680   -1.7180   21.0170 C   0  0  0  0  0  0  0  0  0  0  0  0
    6.3900   -3.5600   22.5070 C   0  0  0  0  0  0  0  0  0  0  0  0
    8.2890   -1.5440   21.7880 C   0  0  0  0  0  0  0  0  0  0  0  0
    7.5660   -3.4780   23.1530 C   0  0  0  0  0  0  0  0  0  0  0  0
    8.2590   -2.1680   23.1220 N   0  0  0  0  0  0  0  0  0  0  0  0
    9.3610   -2.1320   23.9670 C   0  0  0  0  0  0  0  0  0  0  0  0
   10.4190   -1.1290   23.5770 C   0  0  0  0  0  0  0  0  0  0  0  0
   10.2060    0.3170   23.9790 C   0  0  0  0  0  0  0  0  0  0  0  0
   11.5630   -1.4980   22.8590 C   0  0  0  0  0  0  0  0  0  0  0  0
   11.2590    1.3360   23.5670 C   0  0  0  0  0  0  0  0  0  0  0  0
   12.5880   -0.4510   22.4690 C   0  0  0  0  0  0  0  0  0  0  0  0
   12.4550    0.9040   22.7900 C   0  0  0  0  0  0  0  0  0  0  0  0
   13.3760    1.8850   22.4170 C   0  0  0  0  0  0  0  0  0  0  0  0
   14.4040    2.3320   22.0640 N   0  0  0  0  0  0  0  0  0  0  0  0
   14.4380    3.7930   22.0170 C   0  0  0  0  0  0  0  0  0  0  0  0
   13.3900    4.4110   21.8110 O   0  0  0  0  0  0  0  0  0  0  0  0
   15.6160    4.5450   22.2040 C   0  0  0  0  0  0  0  0  0  0  0  0
   16.8340    4.0170   22.6150 N   0  0  0  0  0  0  0  0  0  0  0  0
   17.4030    4.6380   23.7020 C   0  0  0  0  0  0  0  0  0  0  0  0
   18.7720    4.6090   24.0880 C   0  0  0  0  0  0  0  0  0  0  0  0
   19.3650    3.5150   24.6000 C   0  0  0  0  0  0  0  0  0  0  0  0
   19.8150    5.5800   24.1160 C   0  0  0  0  0  0  0  0  0  0  0  0
   20.6470    3.6690   24.9300 N   0  0  0  0  0  0  0  0  0  0  0  0
   20.9450    4.9470   24.6350 C   0  0  0  0  0  0  0  0  0  0  0  0
   19.9130    7.0510   23.7280 C   0  0  0  0  0  0  0  0  0  0  0  0
   22.2440    5.6760   24.8010 C   0  0  0  0  0  0  0  0  0  0  0  0
   21.2250    7.8780   23.8710 C   0  0  0  0  0  0  0  0  0  0  0  0
   22.3450    7.1640   24.4010 C   0  0  0  0  0  0  0  0  0  0  0  0
   21.2980    9.1700   23.5210 F   0  0  0  0  0  0  0  0  0  0  0  0
  1  2  2  3
  1  3  1  0
  3  4  1  0
  3  5  1  0
  4  6  1  0
  5  7  1  0
  6  8  1  0
  7  8  1  0
  8  9  1  0
  9 10  1  0
 10 11  2  0
 10 12  1  0
 11 13  1  0
 12 14  2  0
 13 15  2  0
 14 15  1  0
 15 16  1  0
 16 17  1  0
 17 18  1  0
 18 19  2  0
 18 20  1  0
 20 21  1  0
 21 22  1  0
 22 23  1  0
 23 24  2  0
 23 25  1  0
 24 26  1  0
 25 27  2  0
 26 27  1  0
 25 28  1  0
 27 29  1  0
 28 30  2  0
 29 31  2  0
 30 31  1  0
 30 32  1  0
M  END
