MAK-UNK-ec98eaf6-58-vinylsulfonamide
     RDKit          3D

 28 31  0  0  0  0  0  0  0  0999 V2000
    7.9160   -3.5220   19.9770 C   0  0  0  0  0  0  0  0  0  0  0  0
    6.9720   -2.4570   19.4480 C   0  0  0  0  0  0  0  0  0  0  0  0
    5.8520   -1.9700   20.7340 S   0  0  0  0  0  0  0  0  0  0  0  0
    4.9380   -3.1210   20.9600 O   0  0  0  0  0  0  0  0  0  0  0  0
    5.2960   -0.6750   20.3970 O   0  0  0  0  0  0  0  0  0  0  0  0
    6.9060   -1.7060   22.0940 N   0  0  0  0  0  0  0  0  0  0  0  0
    6.5890   -0.7430   23.1300 C   0  0  0  0  0  0  0  0  0  0  0  0
    8.4400   -1.7920   22.1080 C   0  0  1  0  0  0  0  0  0  0  0  0
    7.9140   -0.5070   23.8000 C   0  0  2  0  0  0  0  0  0  0  0  0
    8.8780   -0.4160   22.6290 C   0  0  0  0  0  0  0  0  0  0  0  0
    8.7620   -2.7360   23.2770 C   0  0  1  0  0  0  0  0  0  0  0  0
   10.0940   -3.4100   23.4860 C   0  0  0  0  0  0  0  0  0  0  0  0
    8.4050   -1.8340   24.4780 C   0  0  2  0  0  0  0  0  0  0  0  0
   11.0730   -2.7660   24.4270 C   0  0  0  0  0  0  0  0  0  0  0  0
    7.2610   -2.4800   25.2870 C   0  0  0  0  0  0  0  0  0  0  0  0
   11.7110   -1.6550   23.9200 C   0  0  0  0  0  0  0  0  0  0  0  0
    6.9280   -2.0760   26.3980 O   0  0  0  0  0  0  0  0  0  0  0  0
    6.5830   -3.5580   24.7060 N   0  0  0  0  0  0  0  0  0  0  0  0
   11.4800   -0.3940   24.4990 C   0  0  0  0  0  0  0  0  0  0  0  0
   12.5890   -1.7770   22.8090 C   0  0  0  0  0  0  0  0  0  0  0  0
    7.3120   -4.8750   24.4410 C   0  0  0  0  0  0  0  0  0  0  0  0
    5.1320   -3.6490   24.5680 C   0  0  0  0  0  0  0  0  0  0  0  0
   12.1160    0.7240   23.9770 C   0  0  0  0  0  0  0  0  0  0  0  0
   13.2210   -0.6670   22.2910 C   0  0  0  0  0  0  0  0  0  0  0  0
    6.9790   -5.3470   22.9860 C   0  0  0  0  0  0  0  0  0  0  0  0
    4.8170   -4.1180   23.1560 C   0  0  0  0  0  0  0  0  0  0  0  0
   13.0230    0.5740   22.8320 C   0  0  0  0  0  0  0  0  0  0  0  0
    6.0080   -4.5910   22.3350 C   0  0  0  0  0  0  0  0  0  0  0  0
  1  2  1  0
  3  2  1  0
  3  4  2  0
  3  5  2  0
  3  6  1  0
  6  7  1  0
  8  6  1  1
  9  7  1  6
  8 10  1  0
  9 10  1  0
  8 11  1  0
 11 12  1  1
  9 13  1  0
 11 13  1  0
 12 14  1  0
 13 15  1  6
 14 16  1  0
 15 17  2  0
 15 18  1  0
 16 19  2  0
 16 20  1  0
 18 21  1  0
 18 22  1  0
 19 23  1  0
 20 24  2  0
 21 25  1  0
 22 26  1  0
 23 27  2  0
 24 27  1  0
 25 28  1  0
 26 28  1  0
M  END
