MAK-UNK-849bee6c-18-acrylamide
     RDKit          3D

 29 31  0  0  0  0  0  0  0  0999 V2000
    7.8980   -3.2620   19.0320 C   0  0  0  0  0  0  0  0  0  0  0  0
    6.6690   -2.4460   18.7590 C   0  0  0  0  0  0  0  0  0  0  0  0
    5.7440   -2.7790   19.8610 C   0  0  0  0  0  0  0  0  0  0  0  0
    4.8910   -3.6290   19.6430 O   0  0  0  0  0  0  0  0  0  0  0  0
    6.0020   -2.1460   21.0670 N   0  0  0  0  0  0  0  0  0  0  0  0
    5.8430   -2.9320   22.2900 C   0  0  0  0  0  0  0  0  0  0  0  0
    7.0160   -1.0830   21.1370 C   0  0  0  0  0  0  0  0  0  0  0  0
    7.1600   -3.3520   22.9560 C   0  0  0  0  0  0  0  0  0  0  0  0
    8.3170   -1.5770   21.7590 C   0  0  0  0  0  0  0  0  0  0  0  0
    8.0860   -2.2300   23.0490 N   0  0  0  0  0  0  0  0  0  0  0  0
    9.1000   -2.0550   23.9690 C   0  0  0  0  0  0  0  0  0  0  0  0
    9.8130   -0.7370   23.7440 C   0  0  0  0  0  0  0  0  0  0  0  0
    9.2750    0.5210   24.2770 C   0  0  0  0  0  0  0  0  0  0  0  0
   10.9860   -0.6260   23.0260 C   0  0  0  0  0  0  0  0  0  0  0  0
    9.8740    1.7720   24.0900 C   0  0  0  0  0  0  0  0  0  0  0  0
   11.5980    0.6410   22.8430 C   0  0  0  0  0  0  0  0  0  0  0  0
    9.4260    2.9890   24.5330 C   0  0  0  0  0  0  0  0  0  0  0  0
   11.1700    1.8190   23.2940 C   0  0  0  0  0  0  0  0  0  0  0  0
   12.7700    0.7090   22.1530 N   0  0  0  0  0  0  0  0  0  0  0  0
   12.9900   -0.4570   22.7210 C   0  0  0  0  0  0  0  0  0  0  0  0
   12.9820   -0.1950   24.0240 C   0  0  0  0  0  0  0  0  0  0  0  0
   13.1470   -1.7140   22.3050 C   0  0  0  0  0  0  0  0  0  0  0  0
   13.1440   -1.1110   25.0130 C   0  0  0  0  0  0  0  0  0  0  0  0
   13.3450   -2.7450   23.2570 C   0  0  0  0  0  0  0  0  0  0  0  0
   13.1770   -2.5350   21.0890 C   0  0  0  0  0  0  0  0  0  0  0  0
   13.3520   -2.4820   24.5550 C   0  0  0  0  0  0  0  0  0  0  0  0
   13.1770   -3.3890   20.3470 N   0  0  0  0  0  0  0  0  0  0  0  0
   13.5580   -3.4410   25.3180 N   0  0  0  0  0  0  0  0  0  0  0  0
   14.3690   -3.0950   26.2840 C   0  0  0  0  0  0  0  0  0  0  0  0
  1  2  1  0
  2  3  1  0
  3  4  2  0
  3  5  1  0
  5  6  1  0
  5  7  1  0
  6  8  1  0
  7  9  1  0
  8 10  1  0
  9 10  1  0
 10 11  1  0
 11 12  1  0
 12 13  2  0
 12 14  1  0
 13 15  1  0
 14 16  2  0
 15 17  1  0
 15 18  2  0
 16 18  1  0
 16 19  1  0
 19 20  1  0
 20 21  2  0
 20 22  1  0
 21 23  1  0
 22 24  2  0
 22 25  1  0
 23 26  2  0
 24 26  1  0
 25 27  3  0
 26 28  1  0
 28 29  1  0
M  END
