MAK-UNK-5d2caa6f-13-acrylamide
     RDKit          3D

 25 28  0  0  0  0  0  0  0  0999 V2000
    7.3040   -2.8470   18.3020 C   0  0  0  0  0  0  0  0  0  0  0  0
    6.2590   -2.2270   19.1520 C   0  0  0  0  0  0  0  0  0  0  0  0
    5.7930   -3.1120   20.2360 C   0  0  0  0  0  0  0  0  0  0  0  0
    5.2310   -4.2100   20.0490 O   0  0  0  0  0  0  0  0  0  0  0  0
    6.0960   -2.5260   21.4210 N   0  0  0  0  0  0  0  0  0  0  0  0
    7.0590   -1.4880   21.3240 C   0  0  0  0  0  0  0  0  0  0  0  0
    6.1370   -3.2040   22.7310 C   0  0  2  0  0  0  0  0  0  0  0  0
    7.2960   -1.5870   22.7950 C   0  0  1  0  0  0  0  0  0  0  0  0
    5.9910   -1.9850   23.4300 C   0  0  0  0  0  0  0  0  0  0  0  0
    7.4120   -3.7880   23.0050 C   0  0  0  0  0  0  0  0  0  0  0  0
    8.2410   -2.5400   23.0510 C   0  0  2  0  0  0  0  0  0  0  0  0
    8.5670   -2.2860   24.3430 C   0  0  0  0  0  0  0  0  0  0  0  0
    7.6110   -2.5810   25.3730 O   0  0  0  0  0  0  0  0  0  0  0  0
    9.7860   -1.6980   24.5000 N   0  0  0  0  0  0  0  0  0  0  0  0
    9.9050   -0.3510   24.3900 C   0  0  0  0  0  0  0  0  0  0  0  0
    8.8450    0.6540   24.8260 C   0  0  0  0  0  0  0  0  0  0  0  0
   11.0640    0.0580   23.8320 C   0  0  0  0  0  0  0  0  0  0  0  0
    9.0720    2.0290   24.6370 C   0  0  0  0  0  0  0  0  0  0  0  0
   11.2970    1.4280   23.6460 C   0  0  0  0  0  0  0  0  0  0  0  0
   11.9220   -0.9910   23.4880 C   0  0  0  0  0  0  0  0  0  0  0  0
    7.9530    3.2650   25.0680 Cl  0  0  0  0  0  0  0  0  0  0  0  0
   10.3220    2.4070   24.0380 N   0  0  0  0  0  0  0  0  0  0  0  0
   12.6100    1.7750   23.0170 C   0  0  0  0  0  0  0  0  0  0  0  0
   13.2380   -0.7390   22.8540 C   0  0  0  0  0  0  0  0  0  0  0  0
   13.5900    0.6850   22.6190 C   0  0  0  0  0  0  0  0  0  0  0  0
  1  2  1  0
  2  3  1  0
  3  4  2  0
  3  5  1  0
  5  6  1  0
  5  7  1  0
  8  6  1  6
  7  9  1  0
  8  9  1  0
  7 10  1  1
  8 11  1  0
 10 11  1  0
 11 12  1  1
 12 13  2  0
 12 14  1  0
 14 15  1  0
 15 16  2  0
 15 17  1  0
 16 18  1  0
 17 19  2  0
 17 20  1  0
 18 21  1  0
 18 22  2  0
 19 22  1  0
 19 23  1  0
 20 24  2  0
 23 25  2  0
 24 25  1  0
M  END
