MAK-UNK-212f693e-24-acrylamide
     RDKit          3D

 16 17  0  0  0  0  0  0  0  0999 V2000
    8.9160   -4.4100   20.7180 C   0  0  0  0  0  0  0  0  0  0  0  0
    7.7030   -3.4450   20.6120 C   0  0  0  0  0  0  0  0  0  0  0  0
    6.3430   -4.0460   20.2260 C   0  0  0  0  0  0  0  0  0  0  0  0
    5.2510   -4.6290   20.1410 O   0  0  0  0  0  0  0  0  0  0  0  0
    6.3780   -4.6550   21.5190 N   0  0  0  0  0  0  0  0  0  0  0  0
    6.5120   -3.8280   22.7400 C   0  0  0  0  0  0  0  0  0  0  0  0
    5.7740   -5.8650   21.8510 C   0  0  0  0  0  0  0  0  0  0  0  0
    6.7300   -4.6490   24.0090 C   0  0  0  0  0  0  0  0  0  0  0  0
    4.9000   -5.7190   22.9510 C   0  0  0  0  0  0  0  0  0  0  0  0
    5.2460   -4.6030   23.7370 C   0  0  0  0  0  0  0  0  0  0  0  0
    4.6790   -4.7840   24.8250 O   0  0  0  0  0  0  0  0  0  0  0  0
    3.6900   -3.8840   25.1720 C   0  0  0  0  0  0  0  0  0  0  0  0
    3.7800   -2.4060   25.6180 C   0  0  0  0  0  0  0  0  0  0  0  0
    2.3290   -4.2130   25.1670 C   0  0  0  0  0  0  0  0  0  0  0  0
    2.4910   -1.7490   25.9100 C   0  0  0  0  0  0  0  0  0  0  0  0
    1.2210   -2.8610   25.6620 S   0  0  0  0  0  0  0  0  0  0  0  0
  1  2  1  0
  2  3  1  0
  3  4  2  0
  3  5  1  0
  5  6  1  0
  5  7  1  0
  6  8  1  0
  7  9  1  0
  8 10  1  0
  9 10  1  0
 10 11  1  0
 11 12  1  0
 12 13  1  0
 12 14  2  0
 13 15  2  0
 14 16  1  0
 15 16  1  0
M  END
