MAK-UNK-ec98eaf6-28-nitrile
     RDKit          3D

 26 29  0  0  0  0  0  0  0  0999 V2000
    6.6850   -3.9520   20.1840 C   0  0  0  0  0  0  0  0  0  0  0  0
    5.5540   -3.8730   19.5970 N   0  0  0  0  0  0  0  0  0  0  0  0
    6.8290   -3.8380   21.5430 N   0  0  0  0  0  0  0  0  0  0  0  0
    5.6910   -3.7510   22.5060 C   0  0  0  0  0  0  0  0  0  0  0  0
    7.9500   -3.1650   22.2560 C   0  0  2  0  0  0  0  0  0  0  0  0
    6.5180   -3.3740   23.7830 C   0  0  1  0  0  0  0  0  0  0  0  0
    7.9470   -3.9580   23.5670 C   0  0  0  0  0  0  0  0  0  0  0  0
    7.5200   -1.8360   22.4020 C   0  0  0  0  0  0  0  0  0  0  0  0
    6.9200   -1.9300   23.7710 N   0  0  0  0  0  0  0  0  0  0  0  0
    7.8750   -1.5270   24.8270 C   0  0  0  0  0  0  0  0  0  0  0  0
    8.5110   -0.3260   24.5140 C   0  0  0  0  0  0  0  0  0  0  0  0
    7.9260    0.9100   24.7840 C   0  0  0  0  0  0  0  0  0  0  0  0
    9.7520   -0.2880   23.9160 C   0  0  0  0  0  0  0  0  0  0  0  0
    8.4300    2.2370   24.5220 C   0  0  0  0  0  0  0  0  0  0  0  0
   10.4130    1.0140   23.5560 C   0  0  0  0  0  0  0  0  0  0  0  0
   10.5990   -1.3320   23.5460 N   0  0  0  0  0  0  0  0  0  0  0  0
    7.7130    3.3190   24.8610 F   0  0  0  0  0  0  0  0  0  0  0  0
    9.7880    2.3950   23.8460 C   0  0  0  0  0  0  0  0  0  0  0  0
   11.6590   -0.7690   23.0110 C   0  0  0  0  0  0  0  0  0  0  0  0
   11.6870    0.6290   22.8850 C   0  0  2  0  0  0  0  0  0  0  0  0
   12.8380    1.2590   23.3110 C   0  0  0  0  0  0  0  0  0  0  0  0
   13.6520    1.8450   22.2640 C   0  0  0  0  0  0  0  0  0  0  0  0
   14.2710    3.2010   22.5300 N   0  0  0  0  0  0  0  0  0  0  0  0
   15.4810    3.7270   21.9400 C   0  0  0  0  0  0  0  0  0  0  0  0
   16.7570    3.8870   22.8280 C   0  0  0  0  0  0  0  0  0  0  0  0
   15.5820    4.0730   20.7620 O   0  0  0  0  0  0  0  0  0  0  0  0
  1  2  2  3
  1  3  1  0
  3  4  1  0
  3  5  1  0
  6  4  1  6
  5  7  1  0
  6  7  1  0
  5  8  1  1
  6  9  1  0
  8  9  1  0
  9 10  1  0
 10 11  1  0
 11 12  1  0
 11 13  2  0
 12 14  2  0
 13 15  1  0
 13 16  1  0
 14 17  1  0
 14 18  1  0
 15 18  2  0
 16 19  2  0
 15 20  1  0
 19 20  1  0
 20 21  1  1
 21 22  1  0
 22 23  1  0
 23 24  1  0
 24 25  1  0
 24 26  2  0
M  END
