MAK-UNK-148caf23-15-nitrile
     RDKit          3D

 34 37  0  0  0  0  0  0  0  0999 V2000
    8.1380   -3.3360   19.7930 C   0  0  0  0  0  0  0  0  0  0  0  0
    7.7610   -2.7380   18.6960 N   0  0  0  0  0  0  0  0  0  0  0  0
    8.8380   -2.6110   21.1660 C   0  0  0  0  0  0  0  0  0  0  0  0
    7.9550   -2.5930   22.3520 C   0  0  0  0  0  0  0  0  0  0  0  0
   10.1490   -1.9380   21.5980 C   0  0  0  0  0  0  0  0  0  0  0  0
    8.3070   -2.0260   23.6420 C   0  0  0  0  0  0  0  0  0  0  0  0
   10.5130   -1.3620   22.8610 N   0  0  0  0  0  0  0  0  0  0  0  0
    9.6170   -1.3940   23.8890 C   0  0  0  0  0  0  0  0  0  0  0  0
    9.6640   -0.9040   25.2810 N   0  0  0  0  0  0  0  0  0  0  0  0
    8.4340   -0.3530   25.7230 C   0  0  0  0  0  0  0  0  0  0  0  0
    7.9630   -1.0210   26.8310 C   0  0  0  0  0  0  0  0  0  0  0  0
    7.9840   -2.3930   26.5850 C   0  0  0  0  0  0  0  0  0  0  0  0
    7.5100   -0.4120   28.0280 C   0  0  0  0  0  0  0  0  0  0  0  0
    7.4980   -3.2280   27.6290 C   0  0  0  0  0  0  0  0  0  0  0  0
    7.0100   -1.3870   29.0800 C   0  0  0  0  0  0  0  0  0  0  0  0
    7.4840    1.2970   28.3550 S   0  0  0  0  0  0  0  0  0  0  0  0
    6.9920   -2.7130   28.9070 N   0  0  0  0  0  0  0  0  0  0  0  0
    8.8360    1.7150   28.6240 O   0  0  0  0  0  0  0  0  0  0  0  0
    6.7070    1.9110   27.3020 O   0  0  0  0  0  0  0  0  0  0  0  0
    6.6850    1.7930   29.7820 N   0  0  0  0  0  0  0  0  0  0  0  0
    5.4410    1.2070   30.3130 C   0  0  0  0  0  0  0  0  0  0  0  0
    7.1130    2.8120   30.6210 C   0  0  0  0  0  0  0  0  0  0  0  0
    5.1560    1.9030   31.4680 C   0  0  0  0  0  0  0  0  0  0  0  0
    6.2330    2.9450   31.6780 C   0  0  0  0  0  0  0  0  0  0  0  0
    8.3710    3.5900   30.3130 C   0  0  0  0  0  0  0  0  0  0  0  0
    4.0310    1.6080   32.2410 C   0  0  0  0  0  0  0  0  0  0  0  0
    8.4960    4.2390   28.9730 C   0  0  0  0  0  0  0  0  0  0  0  0
    9.4430    3.7540   31.2060 C   0  0  0  0  0  0  0  0  0  0  0  0
    4.4360    0.8840   33.3420 N   0  0  0  0  0  0  0  0  0  0  0  0
    9.6420    4.9710   28.6560 C   0  0  0  0  0  0  0  0  0  0  0  0
   10.5850    4.4990   30.8530 C   0  0  0  0  0  0  0  0  0  0  0  0
    9.4040    3.2030   32.4270 F   0  0  0  0  0  0  0  0  0  0  0  0
    5.4050   -0.0820   33.2720 C   0  0  0  0  0  0  0  0  0  0  0  0
   10.6850    5.1090   29.5790 C   0  0  0  0  0  0  0  0  0  0  0  0
  1  2  2  3
  1  3  1  0
  3  4  2  0
  3  5  1  0
  4  6  1  0
  5  7  2  0
  6  8  2  0
  7  8  1  0
  8  9  1  0
  9 10  1  0
 10 11  1  0
 11 12  2  0
 11 13  1  0
 12 14  1  0
 13 15  2  0
 16 13  1  0
 14 17  2  0
 15 17  1  0
 16 18  2  0
 16 19  2  0
 16 20  1  0
 20 21  1  0
 20 22  1  0
 21 23  2  0
 22 24  2  0
 23 24  1  0
 22 25  1  0
 23 26  1  0
 25 27  2  0
 25 28  1  0
 26 29  1  0
 27 30  1  0
 28 31  2  0
 28 32  1  0
 29 33  1  0
 30 34  2  0
 31 34  1  0
M  END
