MAK-UNK-ec98eaf6-36-chloroacetamide
     RDKit          3D

 25 28  0  0  0  0  0  0  0  0999 V2000
    6.8570   -3.1520   19.3810 C   0  0  0  0  0  0  0  0  0  0  0  0
    5.9180   -3.9560   20.2460 C   0  0  0  0  0  0  0  0  0  0  0  0
    4.9420   -4.4160   19.7420 O   0  0  0  0  0  0  0  0  0  0  0  0
    6.1360   -4.2260   21.5660 N   0  0  0  0  0  0  0  0  0  0  0  0
    6.5090   -5.5690   22.1430 C   0  0  0  0  0  0  0  0  0  0  0  0
    6.3820   -3.1900   22.6160 C   0  0  1  0  0  0  0  0  0  0  0  0
    7.0670   -4.9900   23.4520 C   0  0  2  0  0  0  0  0  0  0  0  0
    6.0690   -3.9420   23.8970 C   0  0  0  0  0  0  0  0  0  0  0  0
    7.7240   -2.9780   22.5610 C   0  0  0  0  0  0  0  0  0  0  0  0
    8.3020   -4.1830   22.9000 C   0  0  1  0  0  0  0  0  0  0  0  0
    9.4080   -4.0530   23.8140 N   0  0  0  0  0  0  0  0  0  0  0  0
   10.3880   -3.0830   23.6490 C   0  0  0  0  0  0  0  0  0  0  0  0
   10.6620   -2.3790   24.8450 C   0  0  0  0  0  0  0  0  0  0  0  0
   11.0720   -2.7810   22.4420 C   0  0  0  0  0  0  0  0  0  0  0  0
   11.6820   -1.2990   24.8070 C   0  0  0  0  0  0  0  0  0  0  0  0
   12.0490   -1.8120   22.3180 C   0  0  0  0  0  0  0  0  0  0  0  0
   12.2980   -1.1250   23.4540 C   0  0  0  0  0  0  0  0  0  0  0  0
   12.7710   -1.4850   21.1010 C   0  0  0  0  0  0  0  0  0  0  0  0
   13.1940   -0.0690   23.6350 C   0  0  0  0  0  0  0  0  0  0  0  0
   13.7340   -0.3480   21.0580 C   0  0  0  0  0  0  0  0  0  0  0  0
   13.8500    0.2220   22.3370 C   0  0  0  0  0  0  0  0  0  0  0  0
   14.7520    0.4720   19.5240 S   0  0  0  0  0  0  0  0  0  0  0  0
   14.6890    2.1480   19.2640 N   0  0  0  0  0  0  0  0  0  0  0  0
   16.0890    0.7970   19.5690 O   0  0  0  0  0  0  0  0  0  0  0  0
   14.2800   -0.0590   18.3160 O   0  0  0  0  0  0  0  0  0  0  0  0
  1  2  1  0
  2  3  2  0
  2  4  1  0
  4  5  1  0
  4  6  1  0
  7  5  1  6
  6  8  1  0
  7  8  1  0
  6  9  1  1
  7 10  1  0
  9 10  1  0
 10 11  1  1
 11 12  1  0
 12 13  2  0
 12 14  1  0
 13 15  1  0
 14 16  2  0
 15 17  2  0
 16 17  1  0
 16 18  1  0
 17 19  1  0
 18 20  2  0
 19 21  2  0
 20 21  1  0
 20 22  1  0
 22 23  1  0
 22 24  2  0
 22 25  2  0
M  END
