MAK-UNK-a7992eb3-19
     RDKit          3D

 32 36  0  0  0  0  0  0  0  0999 V2000
    7.0130   -0.2880   19.5650 C   0  0  0  0  0  0  0  0  0  0  0  0
    7.7670   -0.8230   20.7450 C   0  0  0  0  0  0  0  0  0  0  0  0
    7.5110   -2.2270   21.2990 C   0  0  0  0  0  0  0  0  0  0  0  0
    6.0490   -1.0670   18.9400 C   0  0  0  0  0  0  0  0  0  0  0  0
    5.7390   -2.3650   19.3690 C   0  0  0  0  0  0  0  0  0  0  0  0
    6.4480   -3.0240   20.5710 C   0  0  0  0  0  0  0  0  0  0  0  0
    5.9950   -4.3340   20.8430 C   0  0  0  0  0  0  0  0  0  0  0  0
    6.6200   -5.1460   21.7150 N   0  0  0  0  0  0  0  0  0  0  0  0
    5.8810   -6.2270   22.0480 C   0  0  0  0  0  0  0  0  0  0  0  0
    7.1630   -4.4880   22.8940 C   0  0  0  0  0  0  0  0  0  0  0  0
    4.9640   -6.0430   23.0800 C   0  0  0  0  0  0  0  0  0  0  0  0
    6.2730   -4.6050   24.1490 C   0  0  2  0  0  0  0  0  0  0  0  0
    5.4940   -5.8120   24.1590 O   0  0  0  0  0  0  0  0  0  0  0  0
    5.3290   -3.5480   24.2520 C   0  0  0  0  0  0  0  0  0  0  0  0
    4.1990   -3.8850   24.6210 O   0  0  0  0  0  0  0  0  0  0  0  0
    3.5240   -2.8840   25.3820 C   0  0  0  0  0  0  0  0  0  0  0  0
    3.8480   -1.4730   24.9110 C   0  0  0  0  0  0  0  0  0  0  0  0
    2.6650   -3.1150   26.4370 C   0  0  0  0  0  0  0  0  0  0  0  0
    3.2740   -0.3890   25.5530 C   0  0  0  0  0  0  0  0  0  0  0  0
    2.0900   -2.0060   27.0760 C   0  0  0  0  0  0  0  0  0  0  0  0
    2.3490   -4.3950   26.8940 C   0  0  0  0  0  0  0  0  0  0  0  0
    2.3460   -0.6850   26.6940 C   0  0  0  0  0  0  0  0  0  0  0  0
    0.9730   -4.6110   26.4570 N   0  0  0  0  0  0  0  0  0  0  0  0
    0.3340   -5.6770   27.2460 C   0  0  0  0  0  0  0  0  0  0  0  0
    0.5290   -6.0650   28.6410 N   0  0  0  0  0  0  0  0  0  0  0  0
   -0.6110   -6.5020   26.6860 N   0  0  0  0  0  0  0  0  0  0  0  0
   -0.3160   -7.0940   28.8110 C   0  0  0  0  0  0  0  0  0  0  0  0
   -1.0330   -7.3920   27.6350 C   0  0  0  0  0  0  0  0  0  0  0  0
   -0.5260   -7.8390   29.9760 C   0  0  0  0  0  0  0  0  0  0  0  0
   -1.9580   -8.4300   27.6150 C   0  0  0  0  0  0  0  0  0  0  0  0
   -1.4580   -8.8790   29.9450 C   0  0  0  0  0  0  0  0  0  0  0  0
   -2.1710   -9.1740   28.7750 C   0  0  0  0  0  0  0  0  0  0  0  0
  1  2  2  0
  2  3  1  0
  1  4  1  0
  4  5  2  0
  3  6  2  0
  5  6  1  0
  6  7  1  0
  7  8  1  0
  8  9  1  0
  8 10  1  0
  9 11  1  0
 10 12  1  0
 11 13  1  0
 12 13  1  0
 12 14  1  6
 14 15  1  0
 15 16  1  0
 16 17  2  0
 16 18  1  0
 17 19  1  0
 18 20  2  0
 18 21  1  0
 19 22  2  0
 20 22  1  0
 21 23  1  0
 23 24  1  0
 24 25  2  0
 24 26  1  0
 25 27  1  0
 26 28  1  0
 27 28  2  0
 27 29  1  0
 28 30  1  0
 29 31  2  0
 30 32  2  0
 31 32  1  0
M  END
