MAK-UNK-72659d64-10-acrylamide
     RDKit          3D

 18 18  0  0  0  0  0  0  0  0999 V2000
    7.4730   -2.9680   18.5570 C   0  0  0  0  0  0  0  0  0  0  0  0
    6.7620   -2.9450   19.8760 C   0  0  0  0  0  0  0  0  0  0  0  0
    6.0370   -4.2460   19.9190 C   0  0  0  0  0  0  0  0  0  0  0  0
    5.1670   -5.0550   20.2240 O   0  0  0  0  0  0  0  0  0  0  0  0
    5.2900   -3.5560   20.7210 N   0  0  0  0  0  0  0  0  0  0  0  0
    5.4520   -4.0450   22.0270 C   0  0  0  0  0  0  0  0  0  0  0  0
    4.3420   -4.7530   22.7350 C   0  0  0  0  0  0  0  0  0  0  0  0
    6.6340   -3.8060   22.5140 N   0  0  0  0  0  0  0  0  0  0  0  0
    4.7080   -5.1610   24.1010 C   0  0  0  0  0  0  0  0  0  0  0  0
    6.9310   -4.1890   23.7290 C   0  0  0  0  0  0  0  0  0  0  0  0
    3.6910   -5.7680   24.7820 N   0  0  0  0  0  0  0  0  0  0  0  0
    6.0410   -4.9110   24.6960 N   0  0  0  0  0  0  0  0  0  0  0  0
    8.2370   -3.7760   23.9430 C   0  0  0  0  0  0  0  0  0  0  0  0
    3.5160   -6.9570   24.3040 C   0  0  0  0  0  0  0  0  0  0  0  0
    9.3230   -3.3700   24.0010 N   0  0  0  0  0  0  0  0  0  0  0  0
    4.2840   -7.9400   24.9630 O   0  0  0  0  0  0  0  0  0  0  0  0
    2.5550   -7.2260   23.2130 C   0  0  0  0  0  0  0  0  0  0  0  0
    1.0210   -6.4610   23.2740 Cl  0  0  0  0  0  0  0  0  0  0  0  0
  1  2  1  0
  2  3  1  0
  3  4  2  0
  3  5  1  0
  5  6  1  0
  6  7  2  0
  6  8  1  0
  7  9  1  0
  8 10  2  0
  9 11  1  0
  9 12  2  0
 10 12  1  0
 10 13  1  0
 11 14  1  0
 13 15  3  0
 14 16  2  0
 14 17  1  0
 17 18  1  0
M  END
