MAK-UNK-10dfa458-38-chloroacetamide
     RDKit          3D

 27 29  0  0  0  0  0  0  0  0999 V2000
    7.0020   -3.3860   19.8390 C   0  0  0  0  0  0  0  0  0  0  0  0
    6.2340   -4.5080   20.5030 C   0  0  0  0  0  0  0  0  0  0  0  0
    5.2840   -5.0200   19.9670 O   0  0  0  0  0  0  0  0  0  0  0  0
    6.5900   -5.0010   21.7620 N   0  0  0  0  0  0  0  0  0  0  0  0
    5.8820   -6.1840   22.2470 C   0  0  0  0  0  0  0  0  0  0  0  0
    7.0580   -4.1560   22.8570 C   0  0  0  0  0  0  0  0  0  0  0  0
    4.7030   -5.8710   23.1800 C   0  0  0  0  0  0  0  0  0  0  0  0
    6.5270   -4.6190   24.2300 C   0  0  0  0  0  0  0  0  0  0  0  0
    5.0850   -4.9480   24.2360 N   0  0  0  0  0  0  0  0  0  0  0  0
    4.4950   -4.8930   25.4860 C   0  0  0  0  0  0  0  0  0  0  0  0
    3.3720   -3.9220   25.5640 C   0  0  0  0  0  0  0  0  0  0  0  0
    3.7810   -2.4680   25.8900 C   0  0  0  0  0  0  0  0  0  0  0  0
    1.9840   -4.1820   25.3770 C   0  0  0  0  0  0  0  0  0  0  0  0
    2.7880   -1.5050   25.9910 C   0  0  0  0  0  0  0  0  0  0  0  0
    1.0340   -3.1310   25.5020 C   0  0  0  0  0  0  0  0  0  0  0  0
    1.5060   -5.5170   25.0690 C   0  0  0  0  0  0  0  0  0  0  0  0
    1.4430   -1.8180   25.8060 C   0  0  0  0  0  0  0  0  0  0  0  0
   -0.3320   -3.3820   25.3310 C   0  0  0  0  0  0  0  0  0  0  0  0
    1.4450   -6.2870   26.0240 O   0  0  0  0  0  0  0  0  0  0  0  0
    1.1390   -5.8850   23.7610 N   0  0  0  0  0  0  0  0  0  0  0  0
   -1.3130   -2.4590   25.5310 N   0  0  0  0  0  0  0  0  0  0  0  0
    1.7620   -7.1270   23.2550 C   0  0  0  0  0  0  0  0  0  0  0  0
   -0.1430   -5.5330   23.1270 C   0  0  0  0  0  0  0  0  0  0  0  0
    0.8950   -8.0070   22.5130 C   0  0  0  0  0  0  0  0  0  0  0  0
   -1.0330   -6.5950   23.2500 C   0  0  0  0  0  0  0  0  0  0  0  0
   -0.4880   -7.8860   22.6720 C   0  0  0  0  0  0  0  0  0  0  0  0
   -0.9390   -8.9810   23.4680 O   0  0  0  0  0  0  0  0  0  0  0  0
  1  2  1  0
  2  3  2  0
  2  4  1  0
  4  5  1  0
  4  6  1  0
  5  7  1  0
  6  8  1  0
  7  9  1  0
  8  9  1  0
  9 10  1  0
 10 11  1  0
 11 12  2  0
 11 13  1  0
 12 14  1  0
 13 15  2  0
 13 16  1  0
 14 17  2  0
 15 17  1  0
 15 18  1  0
 16 19  2  0
 16 20  1  0
 18 21  3  0
 20 22  1  0
 20 23  1  0
 22 24  1  0
 23 25  1  0
 24 26  1  0
 25 26  1  0
 26 27  1  0
M  END
