MAK-UNK-516d8086-7-chloroacetamide
     RDKit          3D

 22 24  0  0  0  0  0  0  0  0999 V2000
    8.3780   -3.7050   20.2480 C   0  0  0  0  0  0  0  0  0  0  0  0
    7.4100   -4.6380   20.9090 C   0  0  0  0  0  0  0  0  0  0  0  0
    6.3580   -5.0910   20.2260 O   0  0  0  0  0  0  0  0  0  0  0  0
    7.8800   -4.8540   22.3840 C   0  0  0  0  0  0  0  0  0  0  0  0
    7.2750   -5.7650   23.4730 C   0  0  0  0  0  0  0  0  0  0  0  0
    8.9810   -4.1680   22.8860 C   0  0  0  0  0  0  0  0  0  0  0  0
    7.7770   -5.8670   24.7420 N   0  0  0  0  0  0  0  0  0  0  0  0
    9.4920   -4.2910   24.2280 C   0  0  0  0  0  0  0  0  0  0  0  0
    8.9240   -5.1210   25.1420 C   0  0  0  0  0  0  0  0  0  0  0  0
   10.6430   -3.3840   24.4330 C   0  0  0  0  0  0  0  0  0  0  0  0
    9.4530   -5.2480   26.5130 N   0  0  0  0  0  0  0  0  0  0  0  0
   11.9670   -3.4000   25.2260 C   0  0  0  0  0  0  0  0  0  0  0  0
   10.2980   -2.3590   23.6930 C   0  0  0  0  0  0  0  0  0  0  0  0
    8.6070   -5.6390   27.6330 C   0  0  0  0  0  0  0  0  0  0  0  0
   12.7320   -2.2510   25.0550 C   0  0  0  0  0  0  0  0  0  0  0  0
   11.0210   -1.3780   23.5980 C   0  0  0  0  0  0  0  0  0  0  0  0
    7.9780   -4.3850   28.2510 C   0  0  0  0  0  0  0  0  0  0  0  0
   12.1870   -1.2710   24.2180 C   0  0  0  0  0  0  0  0  0  0  0  0
   10.6800   -0.3450   22.8620 C   0  0  0  0  0  0  0  0  0  0  0  0
    9.7120   -0.0040   22.1760 O   0  0  0  0  0  0  0  0  0  0  0  0
   11.8690    0.4890   23.0350 N   0  0  0  0  0  0  0  0  0  0  0  0
   12.7580   -0.0810   23.9230 C   0  0  0  0  0  0  0  0  0  0  0  0
  1  2  1  0
  2  3  2  0
  2  4  1  0
  4  5  2  0
  4  6  1  0
  5  7  1  0
  6  8  2  0
  7  9  2  0
  8  9  1  0
  8 10  1  0
  9 11  1  0
 10 12  2  0
 10 13  1  0
 11 14  1  0
 12 15  1  0
 13 16  2  0
 14 17  1  0
 15 18  2  0
 16 18  1  0
 16 19  1  0
 19 20  2  0
 19 21  1  0
 18 22  1  0
 21 22  1  0
M  END
