MAK-UNK-10dfa458-13-bromoalkyne
     RDKit          3D

 28 30  0  0  0  0  0  0  0  0999 V2000
    6.5630   -4.6360   20.3070 C   0  0  0  0  0  0  0  0  0  0  0  0
    6.0930   -3.4870   19.4440 C   0  0  0  0  0  0  0  0  0  0  0  0
    6.2170   -4.8660   21.6570 N   0  0  0  0  0  0  0  0  0  0  0  0
    5.6140   -6.1400   22.1080 C   0  0  0  0  0  0  0  0  0  0  0  0
    6.9300   -4.1770   22.7410 C   0  0  0  0  0  0  0  0  0  0  0  0
    4.7180   -6.0870   23.3540 C   0  0  0  0  0  0  0  0  0  0  0  0
    6.5110   -4.6940   24.1360 C   0  0  0  0  0  0  0  0  0  0  0  0
    5.0720   -5.0010   24.2610 N   0  0  0  0  0  0  0  0  0  0  0  0
    4.5490   -4.7990   25.5350 C   0  0  0  0  0  0  0  0  0  0  0  0
    3.6920   -3.5830   25.6050 C   0  0  0  0  0  0  0  0  0  0  0  0
    2.3970   -3.6390   26.4020 C   0  0  0  0  0  0  0  0  0  0  0  0
    3.9700   -2.3720   24.9980 C   0  0  0  0  0  0  0  0  0  0  0  0
    1.5640   -2.5210   26.4850 C   0  0  0  0  0  0  0  0  0  0  0  0
    3.1150   -1.2500   25.1080 C   0  0  0  0  0  0  0  0  0  0  0  0
    0.3700   -2.5670   27.2090 C   0  0  0  0  0  0  0  0  0  0  0  0
    1.9360   -1.3420   25.8380 C   0  0  0  0  0  0  0  0  0  0  0  0
    3.5280   -0.1000   24.4830 N   0  0  0  0  0  0  0  0  0  0  0  0
    2.9490    0.4160   23.3800 C   0  0  0  0  0  0  0  0  0  0  0  0
    3.5560    0.3350   22.1080 C   0  0  0  0  0  0  0  0  0  0  0  0
    1.7130    1.0730   23.4230 C   0  0  0  0  0  0  0  0  0  0  0  0
    2.9150    0.8970   20.9620 C   0  0  0  0  0  0  0  0  0  0  0  0
    1.1360    1.5990   22.2690 C   0  0  0  0  0  0  0  0  0  0  0  0
    0.9750    1.2360   24.6880 C   0  0  0  0  0  0  0  0  0  0  0  0
    1.6410    1.5780   20.9390 C   0  0  0  0  0  0  0  0  0  0  0  0
    0.3740    1.4000   25.6680 N   0  0  0  0  0  0  0  0  0  0  0  0
    0.7560    2.1430   20.4380 N   0  0  0  0  0  0  0  0  0  0  0  0
    0.9560    3.3000   19.6710 C   0  0  0  0  0  0  0  0  0  0  0  0
    1.6760    4.3810   20.4650 C   0  0  0  0  0  0  0  0  0  0  0  0
  1  2  2  3
  1  3  1  0
  3  4  1  0
  3  5  1  0
  4  6  1  0
  5  7  1  0
  6  8  1  0
  7  8  1  0
  8  9  1  0
  9 10  1  0
 10 11  2  0
 10 12  1  0
 11 13  1  0
 12 14  2  0
 13 15  1  0
 13 16  2  0
 14 16  1  0
 14 17  1  0
 17 18  1  0
 18 19  2  0
 18 20  1  0
 19 21  1  0
 20 22  2  0
 20 23  1  0
 21 24  2  0
 22 24  1  0
 23 25  3  0
 24 26  1  0
 26 27  1  0
 27 28  1  0
M  END
