MAK-UNK-f983951f-5-vinylsulfonamide
     RDKit          3D

 16 16  0  0  0  0  0  0  0  0999 V2000
    6.3040   -4.6060   20.0820 C   0  0  0  0  0  0  0  0  0  0  0  0
    7.0910   -3.3540   20.3050 C   0  0  0  0  0  0  0  0  0  0  0  0
    5.7640   -2.2640   20.5700 S   0  0  0  0  0  0  0  0  0  0  0  0
    4.6810   -3.0080   19.9530 O   0  0  0  0  0  0  0  0  0  0  0  0
    6.1200   -0.9090   20.2170 O   0  0  0  0  0  0  0  0  0  0  0  0
    5.5660   -2.3860   22.2220 N   0  0  0  0  0  0  0  0  0  0  0  0
    5.2600   -3.7270   22.7240 C   0  0  0  0  0  0  0  0  0  0  0  0
    4.6090   -4.4980   21.8470 O   0  0  0  0  0  0  0  0  0  0  0  0
    5.6280   -4.0380   23.9710 O   0  0  0  0  0  0  0  0  0  0  0  0
    4.5890   -4.7500   24.6490 C   0  0  0  0  0  0  0  0  0  0  0  0
    3.6240   -3.7190   25.1940 C   0  0  0  0  0  0  0  0  0  0  0  0
    4.4310   -2.6540   25.9080 C   0  0  0  0  0  0  0  0  0  0  0  0
    2.2480   -3.7020   25.0790 C   0  0  0  0  0  0  0  0  0  0  0  0
    3.6880   -1.4850   26.5280 C   0  0  0  0  0  0  0  0  0  0  0  0
    1.5640   -2.6400   25.6410 C   0  0  0  0  0  0  0  0  0  0  0  0
    2.1610   -1.5670   26.3290 C   0  0  0  0  0  0  0  0  0  0  0  0
  1  2  1  0
  2  3  1  0
  3  4  2  0
  3  5  2  0
  3  6  1  0
  6  7  1  0
  7  8  2  0
  7  9  1  0
  9 10  1  0
 10 11  1  0
 11 12  2  0
 11 13  1  0
 12 14  1  0
 13 15  2  0
 14 16  2  0
 15 16  1  0
M  END
