MAK-UNK-6ca90168-11-bromoalkyne
     RDKit          3D

 21 23  0  0  0  0  0  0  0  0999 V2000
    7.8870   -3.3540   19.6290 C   0  0  0  0  0  0  0  0  0  0  0  0
    6.7790   -3.0280   18.6410 C   0  0  0  0  0  0  0  0  0  0  0  0
    7.6870   -2.8870   20.8800 N   0  0  0  0  0  0  0  0  0  0  0  0
    7.6230   -1.4430   21.0150 C   0  0  0  0  0  0  0  0  0  0  0  0
    6.8080   -3.5090   21.8330 C   0  0  0  0  0  0  0  0  0  0  0  0
    8.7190   -1.3020   22.0710 C   0  0  0  0  0  0  0  0  0  0  0  0
    6.6870   -2.6130   23.0870 C   0  0  0  0  0  0  0  0  0  0  0  0
    7.8460   -1.5860   23.3270 C   0  0  0  0  0  0  0  0  0  0  0  0
    8.9500   -2.1080   24.2310 C   0  0  0  0  0  0  0  0  0  0  0  0
    8.7650   -3.5840   23.8550 C   0  0  0  0  0  0  0  0  0  0  0  0
   10.2670   -1.3910   23.8660 C   0  0  0  0  0  0  0  0  0  0  0  0
    7.2710   -3.9540   24.0320 C   0  0  0  0  0  0  0  0  0  0  0  0
    9.7060   -4.7160   23.3560 C   0  0  0  0  0  0  0  0  0  0  0  0
   10.2810    0.0910   24.2510 C   0  0  0  0  0  0  0  0  0  0  0  0
   11.3830   -1.9780   23.2320 C   0  0  0  0  0  0  0  0  0  0  0  0
    6.6990   -5.3460   23.7170 C   0  0  0  0  0  0  0  0  0  0  0  0
    9.1680   -5.9800   23.0820 C   0  0  0  0  0  0  0  0  0  0  0  0
   11.5120    0.9460   23.9390 C   0  0  0  0  0  0  0  0  0  0  0  0
   12.6330   -1.1510   22.9060 C   0  0  0  0  0  0  0  0  0  0  0  0
    7.7030   -6.3680   23.2190 C   0  0  0  0  0  0  0  0  0  0  0  0
   12.7210    0.3220   23.2500 C   0  0  0  0  0  0  0  0  0  0  0  0
  1  2  2  3
  1  3  1  0
  3  4  1  0
  3  5  1  0
  4  6  1  0
  5  7  1  0
  6  8  1  0
  7  8  1  0
  8  9  1  0
  9 10  1  0
  9 11  1  0
 10 12  2  0
 10 13  1  0
 11 14  2  0
 11 15  1  0
 12 16  1  0
 13 17  2  0
 14 18  1  0
 15 19  2  0
 16 20  2  0
 17 20  1  0
 18 21  2  0
 19 21  1  0
M  END
