MAK-UNK-849bee6c-4-chloroacetamide
     RDKit          3D

 25 27  0  0  0  0  0  0  0  0999 V2000
    7.1630   -2.9720   18.7690 C   0  0  0  0  0  0  0  0  0  0  0  0
    6.1680   -3.2600   19.8590 C   0  0  0  0  0  0  0  0  0  0  0  0
    5.3400   -4.1660   19.7450 O   0  0  0  0  0  0  0  0  0  0  0  0
    6.2460   -2.4560   21.0120 N   0  0  0  0  0  0  0  0  0  0  0  0
    7.1110   -1.2940   20.9340 C   0  0  0  0  0  0  0  0  0  0  0  0
    6.1390   -3.0750   22.3310 C   0  0  0  0  0  0  0  0  0  0  0  0
    8.4530   -1.5200   21.6410 C   0  0  0  0  0  0  0  0  0  0  0  0
    7.4100   -3.3460   22.8600 C   0  0  0  0  0  0  0  0  0  0  0  0
    8.2730   -2.1480   22.9440 N   0  0  0  0  0  0  0  0  0  0  0  0
    9.3710   -2.3640   23.8400 C   0  0  0  0  0  0  0  0  0  0  0  0
   10.5370   -1.4340   23.5670 C   0  0  0  0  0  0  0  0  0  0  0  0
   11.9240   -1.9610   23.4950 C   0  0  0  0  0  0  0  0  0  0  0  0
   10.3220   -0.0640   23.3750 C   0  0  0  0  0  0  0  0  0  0  0  0
   12.9360   -0.9430   23.2250 C   0  0  0  0  0  0  0  0  0  0  0  0
   11.2840    0.9560   23.1070 C   0  0  0  0  0  0  0  0  0  0  0  0
   12.5860    0.4050   23.0530 C   0  0  0  0  0  0  0  0  0  0  0  0
   10.4650    1.7900   23.0630 N   0  0  0  0  0  0  0  0  0  0  0  0
   10.9170    3.1780   23.2320 C   0  0  0  0  0  0  0  0  0  0  0  0
   12.1420    3.7660   22.6780 C   0  0  0  0  0  0  0  0  0  0  0  0
   10.2150    4.3070   24.0130 C   0  0  0  0  0  0  0  0  0  0  0  0
   12.5720    5.0310   22.8140 N   0  0  0  0  0  0  0  0  0  0  0  0
   10.6550    5.5730   24.1440 N   0  0  0  0  0  0  0  0  0  0  0  0
   11.8130    5.8720   23.5360 C   0  0  0  0  0  0  0  0  0  0  0  0
   12.2610    7.1640   23.6720 C   0  0  0  0  0  0  0  0  0  0  0  0
   11.9010    7.8140   24.8360 N   0  0  0  0  0  0  0  0  0  0  0  0
  1  2  1  0
  2  3  2  0
  2  4  1  0
  4  5  1  0
  4  6  1  0
  5  7  1  0
  6  8  1  0
  7  9  1  0
  8  9  1  0
  9 10  1  0
 10 11  1  0
 11 12  2  0
 11 13  1  0
 12 14  1  0
 13 15  2  0
 14 16  2  0
 15 16  1  0
 15 17  1  0
 17 18  1  0
 18 19  2  0
 18 20  1  0
 19 21  1  0
 20 22  2  0
 21 23  2  0
 22 23  1  0
 23 24  1  0
 24 25  3  0
M  END
