MAK-UNK-ec98eaf6-36-vinylsulfonamide
     RDKit          3D

 27 30  0  0  0  0  0  0  0  0999 V2000
    7.4880   -3.2050   19.2470 C   0  0  0  0  0  0  0  0  0  0  0  0
    7.3020   -3.2580   20.7470 C   0  0  0  0  0  0  0  0  0  0  0  0
    6.3630   -4.7130   21.1400 S   0  0  0  0  0  0  0  0  0  0  0  0
    5.2400   -4.7700   20.2200 O   0  0  0  0  0  0  0  0  0  0  0  0
    7.2970   -5.8090   21.2380 O   0  0  0  0  0  0  0  0  0  0  0  0
    5.8850   -4.5510   22.7110 N   0  0  0  0  0  0  0  0  0  0  0  0
    6.5730   -5.5170   23.6380 C   0  0  0  0  0  0  0  0  0  0  0  0
    5.9380   -3.2370   23.4080 C   0  0  1  0  0  0  0  0  0  0  0  0
    6.8690   -4.5340   24.7960 C   0  0  2  0  0  0  0  0  0  0  0  0
    5.6520   -3.6390   24.8540 C   0  0  0  0  0  0  0  0  0  0  0  0
    7.2610   -2.8670   23.3150 C   0  0  0  0  0  0  0  0  0  0  0  0
    7.9870   -3.5370   24.2810 C   0  0  2  0  0  0  0  0  0  0  0  0
    9.2270   -4.0820   23.7000 N   0  0  0  0  0  0  0  0  0  0  0  0
   10.2730   -3.1630   23.5350 C   0  0  0  0  0  0  0  0  0  0  0  0
   10.5980   -2.4700   24.7250 C   0  0  0  0  0  0  0  0  0  0  0  0
   10.9970   -2.8470   22.3580 C   0  0  0  0  0  0  0  0  0  0  0  0
   11.6490   -1.4160   24.7920 C   0  0  0  0  0  0  0  0  0  0  0  0
   12.0110   -1.8910   22.2870 C   0  0  0  0  0  0  0  0  0  0  0  0
   12.2800   -1.2290   23.4500 C   0  0  0  0  0  0  0  0  0  0  0  0
   12.7320   -1.5700   21.0720 C   0  0  0  0  0  0  0  0  0  0  0  0
   13.2070   -0.1920   23.6630 C   0  0  0  0  0  0  0  0  0  0  0  0
   13.7090   -0.4400   21.0660 C   0  0  0  0  0  0  0  0  0  0  0  0
   13.8300    0.0880   22.3510 C   0  0  0  0  0  0  0  0  0  0  0  0
   14.7070    0.4220   19.5450 S   0  0  0  0  0  0  0  0  0  0  0  0
   14.7040    2.1220   19.4530 N   0  0  0  0  0  0  0  0  0  0  0  0
   14.2370   -0.0310   18.3010 O   0  0  0  0  0  0  0  0  0  0  0  0
   16.0490    0.7570   19.5760 O   0  0  0  0  0  0  0  0  0  0  0  0
  1  2  1  0
  3  2  1  0
  3  4  2  0
  3  5  2  0
  3  6  1  0
  6  7  1  0
  6  8  1  0
  9  7  1  6
  8 10  1  0
  9 10  1  0
  8 11  1  1
  9 12  1  0
 11 12  1  0
 12 13  1  6
 13 14  1  0
 14 15  2  0
 14 16  1  0
 15 17  1  0
 16 18  2  0
 17 19  2  0
 18 19  1  0
 18 20  1  0
 19 21  1  0
 20 22  2  0
 21 23  2  0
 22 23  1  0
 22 24  1  0
 24 25  1  0
 24 26  2  0
 24 27  2  0
M  END
