MAK-UNK-3e0761f8-6-nitrile
     RDKit          3D

 20 23  0  0  0  0  0  0  0  0999 V2000
    8.2980   -3.5880   19.9150 C   0  0  0  0  0  0  0  0  0  0  0  0
    7.0450   -3.5990   19.4040 N   0  0  0  0  0  0  0  0  0  0  0  0
    8.6880   -2.7400   21.0090 N   0  0  0  0  0  0  0  0  0  0  0  0
    9.4710   -3.1190   22.2150 C   0  0  0  0  0  0  0  0  0  0  0  0
    8.6310   -1.2640   21.1350 C   0  0  2  0  0  0  0  0  0  0  0  0
    9.8770   -1.7630   22.9340 C   0  0  1  0  0  0  0  0  0  0  0  0
   10.0580   -0.9250   21.6770 C   0  0  0  0  0  0  0  0  0  0  0  0
    7.7490   -0.8670   22.3360 C   0  0  0  0  0  0  0  0  0  0  0  0
    8.7510   -0.8790   23.5130 C   0  0  1  0  0  0  0  0  0  0  0  0
    7.8910   -1.5740   24.5760 C   0  0  0  0  0  0  0  0  0  0  0  0
    7.3690   -2.9120   24.1430 C   0  0  0  0  0  0  0  0  0  0  0  0
    8.0910   -3.9610   23.9160 N   0  0  0  0  0  0  0  0  0  0  0  0
    6.0130   -3.1790   23.9040 N   0  0  0  0  0  0  0  0  0  0  0  0
    7.1840   -4.9240   23.4940 C   0  0  0  0  0  0  0  0  0  0  0  0
    5.8790   -4.4880   23.4790 C   0  0  0  0  0  0  0  0  0  0  0  0
    7.5170   -6.2000   23.1110 C   0  0  0  0  0  0  0  0  0  0  0  0
    4.7870   -5.1590   23.1360 N   0  0  0  0  0  0  0  0  0  0  0  0
    8.8420   -6.6320   23.1220 C   0  0  0  0  0  0  0  0  0  0  0  0
    6.4200   -6.9760   22.7180 C   0  0  0  0  0  0  0  0  0  0  0  0
    5.1170   -6.4180   22.7560 C   0  0  0  0  0  0  0  0  0  0  0  0
  1  2  2  3
  1  3  1  0
  3  4  1  0
  3  5  1  0
  6  4  1  6
  5  7  1  0
  6  7  1  0
  5  8  1  1
  6  9  1  0
  8  9  1  0
  9 10  1  1
 10 11  1  0
 11 12  2  0
 11 13  1  0
 12 14  1  0
 13 15  1  0
 14 15  2  0
 14 16  1  0
 15 17  1  0
 16 18  1  0
 16 19  2  0
 17 20  2  0
 19 20  1  0
M  END
