MAK-UNK-de9577cf-17
     RDKit          3D

 37 40  0  0  0  0  0  0  0  0999 V2000
   12.9560   -2.3070   21.7040 C   0  0  0  0  0  0  0  0  0  0  0  0
   13.4390   -2.6300   23.0560 N   0  0  0  0  0  0  0  0  0  0  0  0
   12.6690   -2.1770   24.1300 C   0  0  0  0  0  0  0  0  0  0  0  0
   11.7870   -1.1310   23.9250 C   0  0  0  0  0  0  0  0  0  0  0  0
   12.1820    0.2130   23.7590 C   0  0  0  0  0  0  0  0  0  0  0  0
   10.3860   -1.1190   23.8230 C   0  0  0  0  0  0  0  0  0  0  0  0
   11.0670    1.1740   23.5410 C   0  0  0  0  0  0  0  0  0  0  0  0
    9.8950    0.2830   23.5810 N   0  0  0  0  0  0  0  0  0  0  0  0
   11.2350    2.6620   23.3350 C   0  0  0  0  0  0  0  0  0  0  0  0
    8.2800    0.7750   23.3750 S   0  0  0  0  0  0  0  0  0  0  0  0
   12.4190    3.0650   22.7470 C   0  0  0  0  0  0  0  0  0  0  0  0
   10.3080    3.6490   23.6870 C   0  0  0  0  0  0  0  0  0  0  0  0
    8.2890    2.1160   22.8300 O   0  0  0  0  0  0  0  0  0  0  0  0
    7.6310   -0.2780   22.6140 O   0  0  0  0  0  0  0  0  0  0  0  0
    7.3330    0.9840   24.7840 C   0  0  0  0  0  0  0  0  0  0  0  0
   12.7400    4.3950   22.4820 C   0  0  0  0  0  0  0  0  0  0  0  0
   10.6390    4.9940   23.4170 C   0  0  0  0  0  0  0  0  0  0  0  0
    9.1400    3.3510   24.2660 F   0  0  0  0  0  0  0  0  0  0  0  0
    7.5770    0.4870   26.1350 C   0  0  0  0  0  0  0  0  0  0  0  0
    6.1360    1.6960   24.7960 C   0  0  0  0  0  0  0  0  0  0  0  0
   11.8330    5.3840   22.8220 C   0  0  0  0  0  0  0  0  0  0  0  0
    7.1400    0.3950   27.4780 N   0  0  0  0  0  0  0  0  0  0  0  0
    5.4330    1.7850   26.0470 C   0  0  0  0  0  0  0  0  0  0  0  0
    5.9720    1.1160   27.3720 C   0  0  0  0  0  0  0  0  0  0  0  0
    4.3730    2.4110   26.0460 O   0  0  0  0  0  0  0  0  0  0  0  0
    4.5160    3.7330   26.4000 C   0  0  0  0  0  0  0  0  0  0  0  0
    4.0290    4.2210   27.4230 O   0  0  0  0  0  0  0  0  0  0  0  0
    5.3010    4.6280   25.4800 C   0  0  0  0  0  0  0  0  0  0  0  0
    6.8090    4.5160   25.3790 C   0  0  0  0  0  0  0  0  0  0  0  0
    4.6340    5.5870   24.6960 C   0  0  0  0  0  0  0  0  0  0  0  0
    7.5830    5.4270   24.4470 C   0  0  0  0  0  0  0  0  0  0  0  0
    5.3050    6.4630   23.8070 C   0  0  0  0  0  0  0  0  0  0  0  0
    6.7100    6.4110   23.6660 C   0  0  0  0  0  0  0  0  0  0  0  0
    7.4830    7.5410   22.5330 S   0  0  0  0  0  0  0  0  0  0  0  0
    7.4700    6.6570   21.1050 N   0  0  0  0  0  0  0  0  0  0  0  0
    6.5670    8.6330   22.3140 O   0  0  0  0  0  0  0  0  0  0  0  0
    8.8510    7.7490   22.9380 O   0  0  0  0  0  0  0  0  0  0  0  0
  1  2  1  0
  2  3  1  0
  3  4  1  0
  4  5  1  0
  4  6  2  0
  5  7  2  0
  6  8  1  0
  7  8  1  0
  7  9  1  0
  8 10  1  0
  9 11  2  0
  9 12  1  0
 10 13  2  0
 10 14  2  0
 10 15  1  0
 11 16  1  0
 12 17  2  0
 12 18  1  0
 15 19  2  0
 15 20  1  0
 16 21  2  0
 17 21  1  0
 19 22  1  0
 20 23  2  0
 22 24  2  0
 23 24  1  0
 23 25  1  0
 25 26  1  0
 26 27  2  0
 26 28  1  0
 28 29  2  0
 28 30  1  0
 29 31  1  0
 30 32  2  0
 31 33  2  0
 32 33  1  0
 33 34  1  0
 34 35  1  0
 34 36  2  0
 34 37  2  0
M  END
