MAK-UNK-148caf23-8-acrylamide
     RDKit          3D

 36 39  0  0  0  0  0  0  0  0999 V2000
    7.2170   -3.4400   19.0460 C   0  0  0  0  0  0  0  0  0  0  0  0
    7.6890   -2.5910   20.1310 C   0  0  0  0  0  0  0  0  0  0  0  0
    6.7220   -2.8250   21.2900 C   0  0  0  0  0  0  0  0  0  0  0  0
    5.2220   -3.4690   21.1800 O   0  0  0  0  0  0  0  0  0  0  0  0
    7.7230   -2.2080   22.4310 C   0  0  0  0  0  0  0  0  0  0  0  0
    7.9380   -2.7130   23.8380 C   0  0  0  0  0  0  0  0  0  0  0  0
    8.5670   -1.0420   22.2050 C   0  0  0  0  0  0  0  0  0  0  0  0
    8.7630   -2.1000   24.7630 C   0  0  0  0  0  0  0  0  0  0  0  0
    9.3910   -0.4410   23.1480 N   0  0  0  0  0  0  0  0  0  0  0  0
    9.4350   -0.9650   24.3790 C   0  0  0  0  0  0  0  0  0  0  0  0
   10.1300   -0.3870   25.4130 N   0  0  0  0  0  0  0  0  0  0  0  0
    9.0650    0.2230   26.2300 C   0  0  0  0  0  0  0  0  0  0  0  0
    9.1190    0.0830   27.6240 C   0  0  0  0  0  0  0  0  0  0  0  0
    8.2990   -0.8580   28.0480 N   0  0  0  0  0  0  0  0  0  0  0  0
    7.1660   -0.1890   28.6990 C   0  0  0  0  0  0  0  0  0  0  0  0
    7.4480    0.8530   29.8100 C   0  0  0  0  0  0  0  0  0  0  0  0
    8.1010    0.0920   30.8930 C   0  0  0  0  0  0  0  0  0  0  0  0
    7.3630    2.1880   30.2480 C   0  0  0  0  0  0  0  0  0  0  0  0
    8.3600    0.9780   31.8730 C   0  0  0  0  0  0  0  0  0  0  0  0
    7.9430    2.2370   31.5430 N   0  0  0  0  0  0  0  0  0  0  0  0
    8.9760    0.7380   33.1110 C   0  0  0  0  0  0  0  0  0  0  0  0
    8.0590    3.6750   32.4580 S   0  0  0  0  0  0  0  0  0  0  0  0
    8.1380    0.2910   34.1730 C   0  0  0  0  0  0  0  0  0  0  0  0
   10.3520    0.9520   33.1970 C   0  0  0  0  0  0  0  0  0  0  0  0
    7.0960    4.5820   31.8720 O   0  0  0  0  0  0  0  0  0  0  0  0
    8.0120    3.3370   33.8600 O   0  0  0  0  0  0  0  0  0  0  0  0
    9.6730    4.2590   32.1030 C   0  0  0  0  0  0  0  0  0  0  0  0
    8.8520    0.0210   35.5560 C   0  0  0  0  0  0  0  0  0  0  0  0
   11.0360    0.7440   34.3550 C   0  0  0  0  0  0  0  0  0  0  0  0
   11.0340    1.3710   32.1240 F   0  0  0  0  0  0  0  0  0  0  0  0
   10.5460    3.5500   31.2660 C   0  0  0  0  0  0  0  0  0  0  0  0
   10.1460    5.4620   32.6460 C   0  0  0  0  0  0  0  0  0  0  0  0
   10.3670    0.3060   35.4890 C   0  0  0  0  0  0  0  0  0  0  0  0
   11.8180    4.0460   31.0070 C   0  0  0  0  0  0  0  0  0  0  0  0
   11.3790    5.9680   32.4080 N   0  0  0  0  0  0  0  0  0  0  0  0
   12.1830    5.2470   31.5940 C   0  0  0  0  0  0  0  0  0  0  0  0
  1  2  1  0
  2  3  1  0
  3  4  2  0
  3  5  1  0
  5  6  2  0
  5  7  1  0
  6  8  1  0
  7  9  2  0
  8 10  2  0
  9 10  1  0
 10 11  1  0
 11 12  1  0
 12 13  1  0
 13 14  1  0
 14 15  1  0
 15 16  1  0
 16 17  1  0
 16 18  2  0
 17 19  2  0
 18 20  1  0
 19 20  1  0
 19 21  1  0
 20 22  1  0
 21 23  2  0
 21 24  1  0
 22 25  2  0
 22 26  2  0
 22 27  1  0
 23 28  1  0
 24 29  2  0
 24 30  1  0
 27 31  2  0
 27 32  1  0
 28 33  2  0
 29 33  1  0
 31 34  1  0
 32 35  2  0
 34 36  2  0
 35 36  1  0
M  END
