MAK-UNK-148caf23-3-nitrile
     RDKit          3D

 34 37  0  0  0  0  0  0  0  0999 V2000
    7.8730   -3.3990   19.7110 C   0  0  0  0  0  0  0  0  0  0  0  0
    7.4570   -2.8110   18.6570 N   0  0  0  0  0  0  0  0  0  0  0  0
    8.2130   -2.6050   21.0910 C   0  0  0  0  0  0  0  0  0  0  0  0
    6.8230   -2.3090   21.7850 C   0  0  0  0  0  0  0  0  0  0  0  0
    9.5730   -2.0990   21.8130 C   0  0  0  0  0  0  0  0  0  0  0  0
    7.1980   -1.5560   23.0830 C   0  0  0  0  0  0  0  0  0  0  0  0
    9.6600   -1.4380   22.9950 N   0  0  0  0  0  0  0  0  0  0  0  0
   10.8840   -2.1210   21.5600 N   0  0  0  0  0  0  0  0  0  0  0  0
    8.5170   -1.1840   23.5770 C   0  0  0  0  0  0  0  0  0  0  0  0
   11.7470   -1.2580   22.2650 C   0  0  0  0  0  0  0  0  0  0  0  0
    8.4640   -0.4440   24.8490 N   0  0  0  0  0  0  0  0  0  0  0  0
   11.2440    0.0950   22.4540 C   0  0  0  0  0  0  0  0  0  0  0  0
    7.2860   -0.6600   25.5890 C   0  0  0  0  0  0  0  0  0  0  0  0
   11.9130    1.2930   22.7630 C   0  0  0  0  0  0  0  0  0  0  0  0
    9.9110    0.5780   22.3450 C   0  0  0  0  0  0  0  0  0  0  0  0
    6.8620    0.4810   26.2620 C   0  0  0  0  0  0  0  0  0  0  0  0
   11.0690    2.3880   22.8170 C   0  0  0  0  0  0  0  0  0  0  0  0
    9.8130    1.9430   22.5630 N   0  0  0  0  0  0  0  0  0  0  0  0
   11.4960    3.8760   23.1010 C   0  0  0  0  0  0  0  0  0  0  0  0
    8.3170    2.7280   22.4680 S   0  0  0  0  0  0  0  0  0  0  0  0
   11.0630    4.5310   24.4490 C   0  0  0  0  0  0  0  0  0  0  0  0
   12.2470    4.6460   22.1780 C   0  0  0  0  0  0  0  0  0  0  0  0
    7.4230    1.9440   23.2880 O   0  0  0  0  0  0  0  0  0  0  0  0
    8.0730    2.8600   21.0480 O   0  0  0  0  0  0  0  0  0  0  0  0
    8.4020    4.3180   23.2230 C   0  0  0  0  0  0  0  0  0  0  0  0
   11.4730    5.9370   24.6830 C   0  0  0  0  0  0  0  0  0  0  0  0
   12.6120    5.9660   22.4370 C   0  0  0  0  0  0  0  0  0  0  0  0
   12.6310    4.1270   21.0170 F   0  0  0  0  0  0  0  0  0  0  0  0
    8.2250    5.4760   22.4680 C   0  0  0  0  0  0  0  0  0  0  0  0
    8.6380    4.4410   24.5670 C   0  0  0  0  0  0  0  0  0  0  0  0
   12.2720    6.6500   23.6220 C   0  0  0  0  0  0  0  0  0  0  0  0
    8.2480    6.9680   22.8520 C   0  0  0  0  0  0  0  0  0  0  0  0
    8.7040    5.6340   25.1530 N   0  0  0  0  0  0  0  0  0  0  0  0
    8.5370    6.7540   24.4100 C   0  0  0  0  0  0  0  0  0  0  0  0
  1  2  2  3
  1  3  1  0
  3  4  2  0
  3  5  1  0
  4  6  1  0
  5  7  2  0
  5  8  1  0
  6  9  2  0
  7  9  1  0
  8 10  1  0
  9 11  1  0
 10 12  1  0
 11 13  1  0
 12 14  1  0
 12 15  2  0
 13 16  1  0
 14 17  2  0
 15 18  1  0
 17 18  1  0
 17 19  1  0
 18 20  1  0
 19 21  2  0
 19 22  1  0
 20 23  2  0
 20 24  2  0
 20 25  1  0
 21 26  1  0
 22 27  2  0
 22 28  1  0
 25 29  2  0
 25 30  1  0
 26 31  2  0
 27 31  1  0
 29 32  1  0
 30 33  2  0
 32 34  2  0
 33 34  1  0
M  END
