MAK-UNK-ec98eaf6-23-vinylsulfonamide
     RDKit          3D

 24 26  0  0  0  0  0  0  0  0999 V2000
    7.4560   -2.8890   18.1540 C   0  0  0  0  0  0  0  0  0  0  0  0
    6.7700   -1.8390   18.9390 C   0  0  0  0  0  0  0  0  0  0  0  0
    5.6270   -2.4700   20.1380 S   0  0  0  0  0  0  0  0  0  0  0  0
    5.1070   -3.8330   19.8790 O   0  0  0  0  0  0  0  0  0  0  0  0
    4.7820   -1.3300   20.3740 O   0  0  0  0  0  0  0  0  0  0  0  0
    6.6930   -2.4340   21.3690 N   0  0  0  0  0  0  0  0  0  0  0  0
    7.6490   -1.2790   21.3120 C   0  0  0  0  0  0  0  0  0  0  0  0
    6.4150   -2.7890   22.7870 C   0  0  2  0  0  0  0  0  0  0  0  0
    7.8440   -1.2020   22.8060 C   0  0  1  0  0  0  0  0  0  0  0  0
    6.4890   -1.4160   23.4420 C   0  0  0  0  0  0  0  0  0  0  0  0
    7.4960   -3.5530   23.1820 C   0  0  0  0  0  0  0  0  0  0  0  0
    8.5280   -2.4640   23.1830 N   0  0  0  0  0  0  0  0  0  0  0  0
    9.4010   -2.3270   24.3200 C   0  0  0  0  0  0  0  0  0  0  0  0
   10.4280   -1.4470   24.0120 C   0  0  0  0  0  0  0  0  0  0  0  0
   11.5200   -1.9330   23.2510 C   0  0  0  0  0  0  0  0  0  0  0  0
   10.4790   -0.0780   24.3860 C   0  0  0  0  0  0  0  0  0  0  0  0
   12.6380   -1.0190   22.8880 C   0  0  0  0  0  0  0  0  0  0  0  0
   11.5490    0.7830   24.0460 N   0  0  0  0  0  0  0  0  0  0  0  0
    9.4710    0.5050   25.0970 N   0  0  0  0  0  0  0  0  0  0  0  0
   13.6990   -1.3700   22.1630 O   0  0  0  0  0  0  0  0  0  0  0  0
   12.5750    0.2950   23.3220 C   0  0  0  0  0  0  0  0  0  0  0  0
    9.2830    0.1280   26.4870 C   0  0  0  0  0  0  0  0  0  0  0  0
   13.3130   -1.9350   20.9410 C   0  0  0  0  0  0  0  0  0  0  0  0
    7.9840   -0.3450   26.6780 C   0  0  0  0  0  0  0  0  0  0  0  0
  1  2  1  0
  3  2  1  0
  3  4  2  0
  3  5  2  0
  3  6  1  0
  6  7  1  0
  6  8  1  0
  9  7  1  6
  8 10  1  0
  9 10  1  0
  8 11  1  1
  9 12  1  0
 11 12  1  0
 12 13  1  0
 13 14  1  0
 14 15  2  0
 14 16  1  0
 15 17  1  0
 16 18  2  0
 16 19  1  0
 17 20  1  0
 17 21  2  0
 18 21  1  0
 19 22  1  0
 20 23  1  0
 22 24  1  0
M  END
