MAK-UNK-702fb7d3-14-chloroacetamide
     RDKit          3D

 42 47  0  0  0  0  0  0  0  0999 V2000
    7.3490   -5.3690   21.1120 C   0  0  0  0  0  0  0  0  0  0  0  0
    7.2880   -3.9070   21.0920 C   0  0  0  0  0  0  0  0  0  0  0  0
    6.8920   -3.4590   19.8570 O   0  0  0  0  0  0  0  0  0  0  0  0
    7.5610   -3.3830   22.5000 N   0  0  0  0  0  0  0  0  0  0  0  0
    8.8490   -2.9800   23.1470 C   0  0  0  0  0  0  0  0  0  0  0  0
    6.7800   -4.0570   23.5830 C   0  0  0  0  0  0  0  0  0  0  0  0
    8.6160   -2.7360   24.6840 C   0  0  0  0  0  0  0  0  0  0  0  0
    7.5570   -4.7860   24.7450 C   0  0  1  0  0  0  0  0  0  0  0  0
    9.1270   -1.3740   25.1640 C   0  0  0  0  0  0  0  0  0  0  0  0
    7.9810   -3.7110   25.4290 C   0  0  0  0  0  0  0  0  0  0  0  0
    6.5720   -5.4760   25.4660 C   0  0  0  0  0  0  0  0  0  0  0  0
    8.7280   -1.4750   26.6490 C   0  0  0  0  0  0  0  0  0  0  0  0
    7.7470   -3.5850   26.7510 C   0  0  0  0  0  0  0  0  0  0  0  0
    5.3460   -5.7970   24.8500 C   0  0  0  0  0  0  0  0  0  0  0  0
    6.8130   -5.8370   26.8170 C   0  0  0  0  0  0  0  0  0  0  0  0
    8.1040   -2.4660   27.4080 C   0  0  0  0  0  0  0  0  0  0  0  0
    4.2460   -6.5500   25.6490 C   0  0  0  0  0  0  0  0  0  0  0  0
    5.8820   -6.5120   27.6130 C   0  0  0  0  0  0  0  0  0  0  0  0
    4.6400   -6.8810   27.1160 C   0  0  0  0  0  0  0  0  0  0  0  0
    3.6750   -7.5430   27.8170 N   0  0  0  0  0  0  0  0  0  0  0  0
    2.5690   -6.9010   28.3460 C   0  0  0  0  0  0  0  0  0  0  0  0
    1.9360   -7.4310   29.6210 C   0  0  0  0  0  0  0  0  0  0  0  0
    0.5090   -7.1760   29.8810 C   0  0  0  0  0  0  0  0  0  0  0  0
    2.3640   -8.1720   30.7390 C   0  0  0  0  0  0  0  0  0  0  0  0
    0.1770   -7.7470   31.0710 C   0  0  0  0  0  0  0  0  0  0  0  0
    1.2670   -8.3530   31.6110 N   0  0  0  0  0  0  0  0  0  0  0  0
   -1.1180   -7.6730   31.5840 C   0  0  0  0  0  0  0  0  0  0  0  0
    1.3570   -9.2030   33.0770 S   0  0  0  0  0  0  0  0  0  0  0  0
   -1.7530   -8.8590   31.9370 C   0  0  0  0  0  0  0  0  0  0  0  0
   -1.7510   -6.4690   31.7380 C   0  0  0  0  0  0  0  0  0  0  0  0
    2.7560   -9.2930   33.4430 O   0  0  0  0  0  0  0  0  0  0  0  0
    0.4020   -8.6650   34.0170 O   0  0  0  0  0  0  0  0  0  0  0  0
    0.8530  -10.8210   32.6270 C   0  0  0  0  0  0  0  0  0  0  0  0
   -3.1500   -9.1750   32.5230 C   0  0  0  0  0  0  0  0  0  0  0  0
   -3.0250   -6.4670   32.2490 C   0  0  0  0  0  0  0  0  0  0  0  0
   -1.1620   -5.3120   31.4060 F   0  0  0  0  0  0  0  0  0  0  0  0
    0.5250  -11.1180   31.3040 C   0  0  0  0  0  0  0  0  0  0  0  0
    0.7860  -11.8080   33.6100 C   0  0  0  0  0  0  0  0  0  0  0  0
   -3.6770   -7.6570   32.6090 C   0  0  0  0  0  0  0  0  0  0  0  0
    0.1000  -12.5250   30.9610 C   0  0  0  0  0  0  0  0  0  0  0  0
    0.4130  -13.0980   33.3920 N   0  0  0  0  0  0  0  0  0  0  0  0
    0.0790  -13.4750   32.1380 C   0  0  0  0  0  0  0  0  0  0  0  0
  1  2  1  0
  2  3  2  0
  2  4  1  0
  4  5  1  0
  4  6  1  0
  5  7  1  0
  6  8  1  0
  7  9  1  0
  7 10  2  0
  8 10  1  0
  8 11  1  1
  9 12  2  0
 10 13  1  0
 11 14  2  0
 11 15  1  0
 12 16  1  0
 13 16  2  0
 14 17  1  0
 15 18  2  0
 17 19  2  0
 18 19  1  0
 19 20  1  0
 20 21  1  0
 21 22  1  0
 22 23  1  0
 22 24  2  0
 23 25  2  0
 24 26  1  0
 25 26  1  0
 25 27  1  0
 26 28  1  0
 27 29  2  0
 27 30  1  0
 28 31  2  0
 28 32  2  0
 28 33  1  0
 29 34  1  0
 30 35  2  0
 30 36  1  0
 33 37  2  0
 33 38  1  0
 34 39  2  0
 35 39  1  0
 37 40  1  0
 38 41  2  0
 40 42  2  0
 41 42  1  0
M  END
