MAK-UNK-30aad1f1-4-nitrile
     RDKit          3D

 26 28  0  0  0  0  0  0  0  0999 V2000
    6.2420   -4.1940   19.6930 C   0  0  0  0  0  0  0  0  0  0  0  0
    5.0440   -4.4610   19.8320 N   0  0  0  0  0  0  0  0  0  0  0  0
    6.5590   -2.7720   19.7180 C   0  0  0  0  0  0  0  0  0  0  0  0
    7.6960   -2.2270   20.5770 C   0  0  0  0  0  0  0  0  0  0  0  0
    5.7790   -1.8860   18.9570 C   0  0  0  0  0  0  0  0  0  0  0  0
    7.8600   -0.7150   20.5650 C   0  0  0  0  0  0  0  0  0  0  0  0
    5.8950   -0.5620   18.9060 N   0  0  0  0  0  0  0  0  0  0  0  0
    6.8280   -0.0230   19.6570 C   0  0  0  0  0  0  0  0  0  0  0  0
    6.7960    1.3950   19.6150 N   0  0  0  0  0  0  0  0  0  0  0  0
    5.4790    1.6590   20.2610 C   0  0  0  0  0  0  0  0  0  0  0  0
    5.3060    0.8960   21.4690 C   0  0  0  0  0  0  0  0  0  0  0  0
    5.6830   -0.4150   21.6180 C   0  0  0  0  0  0  0  0  0  0  0  0
    4.7230    1.3640   22.6980 C   0  0  0  0  0  0  0  0  0  0  0  0
    5.3780   -0.8230   22.9050 C   0  0  0  0  0  0  0  0  0  0  0  0
    4.6010    0.5220   23.8730 C   0  0  0  0  0  0  0  0  0  0  0  0
    4.2260    2.6010   22.9040 N   0  0  0  0  0  0  0  0  0  0  0  0
    4.9570   -0.5990   23.9270 N   0  0  0  0  0  0  0  0  0  0  0  0
    2.8600    2.5760   23.4410 C   0  0  0  0  0  0  0  0  0  0  0  0
    2.6090    1.8890   24.4320 O   0  0  0  0  0  0  0  0  0  0  0  0
    1.8290    3.3550   22.7890 N   0  0  0  0  0  0  0  0  0  0  0  0
    0.6250    3.6280   23.3880 C   0  0  0  0  0  0  0  0  0  0  0  0
    0.4640    4.7320   24.4430 C   0  0  0  0  0  0  0  0  0  0  0  0
   -0.5090    2.9040   23.0400 C   0  0  0  0  0  0  0  0  0  0  0  0
   -0.7410    4.9820   25.0010 C   0  0  0  0  0  0  0  0  0  0  0  0
   -1.8610    3.2170   23.6950 C   0  0  0  0  0  0  0  0  0  0  0  0
   -1.9820    4.2370   24.6570 C   0  0  0  0  0  0  0  0  0  0  0  0
  1  2  2  3
  1  3  1  0
  3  4  2  0
  3  5  1  0
  4  6  1  0
  5  7  2  0
  6  8  2  0
  7  8  1  0
  8  9  1  0
  9 10  1  0
 10 11  1  0
 11 12  2  0
 11 13  1  0
 12 14  1  0
 13 15  2  0
 13 16  1  0
 14 17  2  0
 15 17  1  0
 16 18  1  0
 18 19  2  0
 18 20  1  0
 20 21  1  0
 21 22  2  0
 21 23  1  0
 22 24  1  0
 23 25  2  0
 24 26  2  0
 25 26  1  0
M  END
