MAK-UNK-148caf23-2-acrylamide
     RDKit          3D

 36 39  0  0  0  0  0  0  0  0999 V2000
    9.0010   -4.0360   20.6130 C   0  0  0  0  0  0  0  0  0  0  0  0
    7.5560   -3.4230   20.4490 C   0  0  0  0  0  0  0  0  0  0  0  0
    6.5190   -4.2090   21.3010 C   0  0  0  0  0  0  0  0  0  0  0  0
    5.2630   -4.0290   21.2150 O   0  0  0  0  0  0  0  0  0  0  0  0
    7.0830   -5.2580   22.2240 C   0  0  0  0  0  0  0  0  0  0  0  0
    6.7330   -6.5300   22.4100 C   0  0  0  0  0  0  0  0  0  0  0  0
    8.2480   -5.3600   23.2670 C   0  0  0  0  0  0  0  0  0  0  0  0
    7.8240   -6.2460   23.2100 N   0  0  0  0  0  0  0  0  0  0  0  0
    9.2500   -4.6210   23.8560 C   0  0  0  0  0  0  0  0  0  0  0  0
    8.3400   -4.0240   22.8730 N   0  0  0  0  0  0  0  0  0  0  0  0
    8.1800   -4.7560   23.0570 C   0  0  0  0  0  0  0  0  0  0  0  0
    9.4140   -3.0860   23.2250 C   0  0  0  0  0  0  0  0  0  0  0  0
    7.4990   -3.8040   22.3110 N   0  0  0  0  0  0  0  0  0  0  0  0
    8.8660   -1.8170   23.4530 C   0  0  0  0  0  0  0  0  0  0  0  0
    6.6190   -3.1120   23.1530 C   0  0  0  0  0  0  0  0  0  0  0  0
   10.1430   -1.0100   23.0290 C   0  0  0  0  0  0  0  0  0  0  0  0
    8.8600   -0.4580   23.4950 C   0  0  0  0  0  0  0  0  0  0  0  0
    6.7100   -3.1400   24.7230 C   0  0  0  0  0  0  0  0  0  0  0  0
    9.8280    0.5550   23.1880 C   0  0  0  0  0  0  0  0  0  0  0  0
    8.5700    0.8380   23.6360 N   0  0  0  0  0  0  0  0  0  0  0  0
   10.8100    1.6540   22.8970 C   0  0  0  0  0  0  0  0  0  0  0  0
    6.9640    0.5960   24.1910 S   0  0  0  0  0  0  0  0  0  0  0  0
   12.1970    1.7200   22.8520 C   0  0  0  0  0  0  0  0  0  0  0  0
   10.5620    3.0940   22.5740 C   0  0  0  0  0  0  0  0  0  0  0  0
    6.9100   -0.7210   24.7950 O   0  0  0  0  0  0  0  0  0  0  0  0
    6.0920    1.0000   23.1070 O   0  0  0  0  0  0  0  0  0  0  0  0
    6.8600    1.7730   25.5300 C   0  0  0  0  0  0  0  0  0  0  0  0
   12.3730    3.0480   22.5440 C   0  0  0  0  0  0  0  0  0  0  0  0
   11.6440    4.1850   22.3000 C   0  0  0  0  0  0  0  0  0  0  0  0
    9.2840    3.4950   22.5160 F   0  0  0  0  0  0  0  0  0  0  0  0
    6.5490    2.7520   26.7690 C   0  0  0  0  0  0  0  0  0  0  0  0
    5.5970    1.1000   25.5020 C   0  0  0  0  0  0  0  0  0  0  0  0
   13.1290    3.9980   22.3110 C   0  0  0  0  0  0  0  0  0  0  0  0
    5.3830    2.8440   27.5220 C   0  0  0  0  0  0  0  0  0  0  0  0
    4.4480    1.1860   26.2380 N   0  0  0  0  0  0  0  0  0  0  0  0
    4.3490    2.0430   27.2280 C   0  0  0  0  0  0  0  0  0  0  0  0
  1  2  1  0
  2  3  1  0
  3  4  2  0
  3  5  1  0
  5  6  2  0
  5  7  1  0
  6  8  1  0
  7  9  2  0
  7 10  1  0
  8 11  2  0
  9 11  1  0
 10 12  1  0
 11 13  1  0
 12 14  1  0
 13 15  1  0
 14 16  1  0
 14 17  2  0
 15 18  1  0
 16 19  2  0
 17 20  1  0
 19 20  1  0
 19 21  1  0
 20 22  1  0
 21 23  2  0
 21 24  1  0
 22 25  2  0
 22 26  2  0
 22 27  1  0
 23 28  1  0
 24 29  2  0
 24 30  1  0
 27 31  2  0
 27 32  1  0
 28 33  2  0
 29 33  1  0
 31 34  1  0
 32 35  2  0
 34 36  2  0
 35 36  1  0
M  END
