MAK-UNK-9955b1f3-15
     RDKit          3D

 15 16  0  0  0  0  0  0  0  0999 V2000
    8.9190    2.8710   21.6830 N   0  0  0  0  0  0  0  0  0  0  0  0
    8.5060    3.4490   22.8530 C   0  0  0  0  0  0  0  0  0  0  0  0
    8.7530    4.8890   23.2520 C   0  0  0  0  0  0  0  0  0  0  0  0
    7.7990    2.8890   23.9120 N   0  0  0  0  0  0  0  0  0  0  0  0
    8.1930    5.0700   24.4750 N   0  0  0  0  0  0  0  0  0  0  0  0
    7.8050    3.8220   25.0020 C   0  0  0  0  0  0  0  0  0  0  0  0
    7.6130    1.4880   24.1980 C   0  0  0  0  0  0  0  0  0  0  0  0
    7.5380    3.6270   26.1760 O   0  0  0  0  0  0  0  0  0  0  0  0
    6.2770    0.9640   23.8370 N   0  0  0  0  0  0  0  0  0  0  0  0
    5.4090    0.7900   25.0070 C   0  0  0  0  0  0  0  0  0  0  0  0
    5.6200    1.5880   22.6840 C   0  0  0  0  0  0  0  0  0  0  0  0
    4.3210   -0.0850   24.8530 C   0  0  0  0  0  0  0  0  0  0  0  0
    4.3250    1.1130   22.4070 C   0  0  0  0  0  0  0  0  0  0  0  0
    3.1030    0.4120   24.3660 C   0  0  0  0  0  0  0  0  0  0  0  0
    3.3030    1.3990   23.3720 O   0  0  0  0  0  0  0  0  0  0  0  0
  1  2  1  0
  2  3  2  0
  2  4  1  0
  3  5  1  0
  4  6  1  0
  5  6  1  0
  4  7  1  0
  6  8  2  0
  7  9  1  0
  9 10  1  0
  9 11  1  0
 10 12  1  0
 11 13  1  0
 12 14  1  0
 13 15  1  0
 14 15  1  0
M  END
