MAK-UNK-27459e11-8
     RDKit          3D

 16 16  0  0  0  0  0  0  0  0999 V2000
    6.5240   -5.2210   26.6450 C   0  0  0  0  0  0  0  0  0  0  0  0
    8.1450   -4.5310   26.3640 S   0  0  0  0  0  0  0  0  0  0  0  0
    8.9930   -5.5560   25.8160 O   0  0  0  0  0  0  0  0  0  0  0  0
    8.4950   -3.7820   27.5290 O   0  0  0  0  0  0  0  0  0  0  0  0
    7.8590   -3.3870   25.1750 N   0  0  0  0  0  0  0  0  0  0  0  0
    8.8630   -3.0340   24.2980 C   0  0  0  0  0  0  0  0  0  0  0  0
    9.0380   -1.5160   24.1180 C   0  0  0  0  0  0  0  0  0  0  0  0
   10.4160   -1.0130   23.6980 C   0  0  0  0  0  0  0  0  0  0  0  0
   10.8420    0.3630   24.1340 C   0  0  0  0  0  0  0  0  0  0  0  0
   11.2040   -1.8390   22.9390 C   0  0  0  0  0  0  0  0  0  0  0  0
   12.2140    0.8510   23.7000 C   0  0  0  0  0  0  0  0  0  0  0  0
   12.6030   -1.4180   22.4680 C   0  0  0  0  0  0  0  0  0  0  0  0
   10.5670   -3.0000   22.7070 C   0  0  0  0  0  0  0  0  0  0  0  0
   13.1160   -0.0340   22.8590 C   0  0  0  0  0  0  0  0  0  0  0  0
    9.9000   -3.2890   21.5760 N   0  0  0  0  0  0  0  0  0  0  0  0
   10.6550   -3.8340   23.8150 N   0  0  0  0  0  0  0  0  0  0  0  0
  1  2  1  0
  2  3  2  0
  2  4  2  0
  2  5  1  0
  5  6  1  0
  6  7  1  0
  7  8  1  0
  8  9  2  0
  8 10  1  0
  9 11  1  0
 10 12  2  0
 10 13  1  0
 11 14  2  0
 12 14  1  0
 13 15  2  3
 13 16  1  0
M  END
