MAK-UNK-0d6072ac-23
     RDKit          3D

 20 22  0  0  0  0  0  0  0  0999 V2000
    5.6700   -5.0470   21.7880 C   0  0  0  0  0  0  0  0  0  0  0  0
    5.9230   -5.4060   23.2250 C   0  0  0  0  0  0  0  0  0  0  0  0
    4.7300   -5.5020   24.1720 C   0  0  0  0  0  0  0  0  0  0  0  0
    5.4820   -6.8210   23.4650 C   0  0  0  0  0  0  0  0  0  0  0  0
    7.1560   -4.9980   23.7210 C   0  0  0  0  0  0  0  0  0  0  0  0
    4.6690   -7.2980   24.2740 O   0  0  0  0  0  0  0  0  0  0  0  0
    6.0510   -7.5760   22.7030 O   0  0  0  0  0  0  0  0  0  0  0  0
    7.9150   -5.5340   24.7650 C   0  0  0  0  0  0  0  0  0  0  0  0
    7.7320   -3.8930   23.1030 C   0  0  0  0  0  0  0  0  0  0  0  0
    9.1540   -5.0580   25.1550 C   0  0  0  0  0  0  0  0  0  0  0  0
    8.9520   -3.3790   23.4690 C   0  0  0  0  0  0  0  0  0  0  0  0
    9.7040   -3.9770   24.5110 C   0  0  0  0  0  0  0  0  0  0  0  0
    9.5970   -2.2890   22.9260 N   0  0  0  0  0  0  0  0  0  0  0  0
   10.8320   -2.1840   23.6270 C   0  0  0  0  0  0  0  0  0  0  0  0
   10.9090   -3.2750   24.6360 C   0  0  0  0  0  0  0  0  0  0  0  0
   11.8540   -1.1140   23.3340 C   0  0  0  0  0  0  0  0  0  0  0  0
   12.1490   -3.3120   25.4240 C   0  0  0  0  0  0  0  0  0  0  0  0
   13.1170   -1.1620   24.1420 C   0  0  0  0  0  0  0  0  0  0  0  0
   13.2010   -2.3000   25.1680 C   0  0  0  0  0  0  0  0  0  0  0  0
   14.5220   -2.5830   26.1640 Cl  0  0  0  0  0  0  0  0  0  0  0  0
  1  2  1  0
  2  3  1  0
  2  4  1  0
  2  5  1  0
  4  6  2  0
  4  7  1  0
  5  8  2  0
  5  9  1  0
  8 10  1  0
  9 11  2  0
 10 12  2  0
 11 12  1  0
 11 13  1  0
 13 14  1  0
 12 15  1  0
 14 15  2  0
 14 16  1  0
 15 17  1  0
 16 18  2  0
 17 19  2  0
 18 19  1  0
 19 20  1  0
M  END
