MAK-UNK-5d2caa6f-14-acrylamide
     RDKit          3D

 27 31  0  0  0  0  0  0  0  0999 V2000
    7.1970   -3.1590   19.2680 C   0  0  0  0  0  0  0  0  0  0  0  0
    5.8160   -2.6560   19.6700 C   0  0  0  0  0  0  0  0  0  0  0  0
    5.5860   -2.8880   21.1480 C   0  0  0  0  0  0  0  0  0  0  0  0
    5.0700   -3.8930   21.6050 O   0  0  0  0  0  0  0  0  0  0  0  0
    5.9880   -1.9260   22.0180 N   0  0  0  0  0  0  0  0  0  0  0  0
    5.2810   -1.8490   23.2320 C   0  0  0  0  0  0  0  0  0  0  0  0
    7.3930   -1.9030   22.3800 C   0  0  2  0  0  0  0  0  0  0  0  0
    6.4070   -2.6050   23.9590 C   0  0  1  0  0  0  0  0  0  0  0  0
    7.2960   -3.2190   22.9300 C   0  0  0  0  0  0  0  0  0  0  0  0
    7.6430   -0.9150   23.3960 C   0  0  0  0  0  0  0  0  0  0  0  0
    7.2300   -1.7280   24.6090 C   0  0  1  0  0  0  0  0  0  0  0  0
    6.7280   -0.9190   25.6410 C   0  0  0  0  0  0  0  0  0  0  0  0
    5.3510   -0.7960   26.0400 O   0  0  0  0  0  0  0  0  0  0  0  0
    7.8230   -0.2900   26.1790 N   0  0  0  0  0  0  0  0  0  0  0  0
    8.8250   -0.5190   25.3410 C   0  0  0  0  0  0  0  0  0  0  0  0
    8.7530   -1.8550   24.6850 C   0  0  0  0  0  0  0  0  0  0  0  0
    9.8480    0.3780   25.0590 C   0  0  0  0  0  0  0  0  0  0  0  0
    9.6970   -2.1610   23.7930 C   0  0  0  0  0  0  0  0  0  0  0  0
   10.7960   -0.0160   24.1210 C   0  0  0  0  0  0  0  0  0  0  0  0
   10.6610   -1.2790   23.5210 C   0  0  0  0  0  0  0  0  0  0  0  0
   11.9100    0.6620   23.6360 N   0  0  0  0  0  0  0  0  0  0  0  0
   12.4380   -0.2780   22.6660 C   0  0  0  0  0  0  0  0  0  0  0  0
   11.6580   -1.4030   22.6360 C   0  0  0  0  0  0  0  0  0  0  0  0
   13.5100   -0.1410   21.8670 C   0  0  0  0  0  0  0  0  0  0  0  0
   11.9530   -2.4260   21.7750 C   0  0  0  0  0  0  0  0  0  0  0  0
   13.7690   -1.3230   20.8850 C   0  0  0  0  0  0  0  0  0  0  0  0
   12.9320   -2.5020   20.8940 C   0  0  0  0  0  0  0  0  0  0  0  0
  1  2  1  0
  2  3  1  0
  3  4  2  0
  3  5  1  0
  5  6  1  0
  5  7  1  0
  8  6  1  6
  7  9  1  0
  8  9  1  0
  7 10  1  1
  8 11  1  0
 10 11  1  0
 11 12  1  1
 12 13  2  0
 12 14  1  0
 14 15  1  0
 15 16  2  0
 15 17  1  0
 16 18  1  0
 17 19  2  0
 18 20  2  0
 19 20  1  0
 19 21  1  0
 21 22  1  0
 20 23  1  0
 22 23  2  0
 22 24  1  0
 23 25  1  0
 24 26  2  0
 25 27  2  0
 26 27  1  0
M  END
