MAK-UNK-702fb7d3-12-chloroacetamide
     RDKit          3D

 42 47  0  0  0  0  0  0  0  0999 V2000
    8.5530   -4.1080   20.5380 C   0  0  0  0  0  0  0  0  0  0  0  0
    7.3850   -3.3570   20.9080 C   0  0  0  0  0  0  0  0  0  0  0  0
    6.3880   -3.5770   19.9550 O   0  0  0  0  0  0  0  0  0  0  0  0
    7.6070   -2.5370   22.1760 N   0  0  0  0  0  0  0  0  0  0  0  0
    8.7830   -1.6850   22.2570 C   0  0  0  0  0  0  0  0  0  0  0  0
    7.2810   -2.7280   23.6040 C   0  0  0  0  0  0  0  0  0  0  0  0
    9.9200   -2.2420   23.0960 C   0  0  0  0  0  0  0  0  0  0  0  0
    8.3180   -3.5800   24.3710 C   0  0  2  0  0  0  0  0  0  0  0  0
   11.2110   -1.5550   22.5450 C   0  0  0  0  0  0  0  0  0  0  0  0
    9.6820   -3.1670   24.1020 C   0  0  0  0  0  0  0  0  0  0  0  0
    7.9600   -4.7570   23.8610 C   0  0  0  0  0  0  0  0  0  0  0  0
   12.2200   -2.2120   23.4580 C   0  0  0  0  0  0  0  0  0  0  0  0
   10.8250   -3.5750   24.7190 C   0  0  0  0  0  0  0  0  0  0  0  0
    8.9360   -5.6510   23.6830 C   0  0  0  0  0  0  0  0  0  0  0  0
    6.6100   -4.9780   23.5360 C   0  0  0  0  0  0  0  0  0  0  0  0
   12.0690   -3.1290   24.4450 C   0  0  0  0  0  0  0  0  0  0  0  0
    8.5570   -6.9700   23.0790 C   0  0  0  0  0  0  0  0  0  0  0  0
    6.1720   -6.1600   22.9630 C   0  0  0  0  0  0  0  0  0  0  0  0
    5.5930   -3.9680   23.7850 N   0  0  0  0  0  0  0  0  0  0  0  0
    7.0560   -7.1750   22.7020 C   0  0  0  0  0  0  0  0  0  0  0  0
    4.4560   -3.9260   22.9130 C   0  0  0  0  0  0  0  0  0  0  0  0
    3.3610   -4.5710   23.4800 C   0  0  0  0  0  0  0  0  0  0  0  0
    2.9750   -5.8720   23.1430 C   0  0  0  0  0  0  0  0  0  0  0  0
    2.4380   -4.0970   24.4490 C   0  0  0  0  0  0  0  0  0  0  0  0
    1.8630   -6.2210   23.8270 C   0  0  0  0  0  0  0  0  0  0  0  0
    1.4950   -5.0890   24.6710 N   0  0  0  0  0  0  0  0  0  0  0  0
    1.1780   -7.5620   23.6720 C   0  0  0  0  0  0  0  0  0  0  0  0
    0.1470   -5.0650   25.6800 S   0  0  0  0  0  0  0  0  0  0  0  0
    1.8330   -7.8900   25.0270 C   0  0  0  0  0  0  0  0  0  0  0  0
    0.3610   -8.3620   22.8920 C   0  0  0  0  0  0  0  0  0  0  0  0
   -0.0070   -6.3810   26.2660 O   0  0  0  0  0  0  0  0  0  0  0  0
    0.1640   -3.8810   26.5090 O   0  0  0  0  0  0  0  0  0  0  0  0
   -1.0940   -4.8850   24.4530 C   0  0  0  0  0  0  0  0  0  0  0  0
    1.5150   -9.1770   25.4720 C   0  0  0  0  0  0  0  0  0  0  0  0
    0.1130   -9.6260   23.4440 C   0  0  0  0  0  0  0  0  0  0  0  0
   -0.1600   -7.9770   21.7150 F   0  0  0  0  0  0  0  0  0  0  0  0
   -0.7950   -5.1990   23.0000 C   0  0  0  0  0  0  0  0  0  0  0  0
   -2.3660   -4.4490   24.7720 C   0  0  0  0  0  0  0  0  0  0  0  0
    0.6720  -10.0150   24.6920 C   0  0  0  0  0  0  0  0  0  0  0  0
   -1.8100   -5.0280   22.0740 C   0  0  0  0  0  0  0  0  0  0  0  0
   -3.3420   -4.2940   23.8360 N   0  0  0  0  0  0  0  0  0  0  0  0
   -3.0510   -4.5790   22.5350 C   0  0  0  0  0  0  0  0  0  0  0  0
  1  2  1  0
  2  3  2  0
  2  4  1  0
  4  5  1  0
  4  6  1  0
  5  7  1  0
  6  8  1  0
  7  9  1  0
  7 10  2  0
  8 10  1  0
  8 11  1  6
  9 12  2  0
 10 13  1  0
 11 14  2  0
 11 15  1  0
 12 16  1  0
 13 16  2  0
 14 17  1  0
 15 18  2  0
 15 19  1  0
 17 20  2  0
 18 20  1  0
 19 21  1  0
 21 22  1  0
 22 23  1  0
 22 24  2  0
 23 25  2  0
 24 26  1  0
 25 26  1  0
 25 27  1  0
 26 28  1  0
 27 29  2  0
 27 30  1  0
 28 31  2  0
 28 32  2  0
 28 33  1  0
 29 34  1  0
 30 35  2  0
 30 36  1  0
 33 37  2  0
 33 38  1  0
 34 39  2  0
 35 39  1  0
 37 40  1  0
 38 41  2  0
 40 42  2  0
 41 42  1  0
M  END
