MAK-UNK-516d8086-32-vinylsulfonamide
     RDKit          3D

 25 27  0  0  0  0  0  0  0  0999 V2000
    7.5690   -3.2440   19.6610 C   0  0  0  0  0  0  0  0  0  0  0  0
    7.4450   -3.7070   20.9220 C   0  0  0  0  0  0  0  0  0  0  0  0
    5.8620   -3.6920   21.6550 S   0  0  0  0  0  0  0  0  0  0  0  0
    4.9400   -3.1150   20.7220 O   0  0  0  0  0  0  0  0  0  0  0  0
    5.5700   -5.0150   22.1660 O   0  0  0  0  0  0  0  0  0  0  0  0
    6.0030   -2.6290   23.0370 C   0  0  0  0  0  0  0  0  0  0  0  0
    4.8250   -1.7540   23.4590 C   0  0  0  0  0  0  0  0  0  0  0  0
    7.1570   -2.5310   23.8090 C   0  0  0  0  0  0  0  0  0  0  0  0
    4.8570   -0.9270   24.5120 N   0  0  0  0  0  0  0  0  0  0  0  0
    7.1590   -1.6730   24.9060 C   0  0  0  0  0  0  0  0  0  0  0  0
    6.0170   -0.8990   25.2250 C   0  0  0  0  0  0  0  0  0  0  0  0
    8.4000   -1.6200   25.7310 C   0  0  0  0  0  0  0  0  0  0  0  0
    5.9760    0.0350   26.4040 C   0  0  0  0  0  0  0  0  0  0  0  0
    9.7640   -1.6750   25.0910 C   0  0  0  0  0  0  0  0  0  0  0  0
    6.6090    1.2660   26.4910 C   0  0  0  0  0  0  0  0  0  0  0  0
   10.4310   -2.8720   24.8610 C   0  0  0  0  0  0  0  0  0  0  0  0
   10.3460   -0.4670   24.7110 C   0  0  0  0  0  0  0  0  0  0  0  0
    7.8560    1.3130   25.8030 C   0  0  0  0  0  0  0  0  0  0  0  0
   11.6280   -2.8360   24.2450 C   0  0  0  0  0  0  0  0  0  0  0  0
   11.5330   -0.4970   24.0970 C   0  0  0  0  0  0  0  0  0  0  0  0
   12.1650   -1.6620   23.8690 C   0  0  0  0  0  0  0  0  0  0  0  0
   12.3170    0.5800   23.5660 C   0  0  0  0  0  0  0  0  0  0  0  0
   12.1520    1.7550   23.7800 O   0  0  0  0  0  0  0  0  0  0  0  0
   13.3260   -0.0420   22.6860 C   0  0  0  0  0  0  0  0  0  0  0  0
   13.4300   -1.4810   23.1960 C   0  0  0  0  0  0  0  0  0  0  0  0
  1  2  1  0
  3  2  1  0
  3  4  2  0
  3  5  2  0
  3  6  1  0
  6  7  2  0
  6  8  1  0
  7  9  1  0
  8 10  2  0
  9 11  2  0
 10 11  1  0
 10 12  1  0
 11 13  1  0
 12 14  1  0
 13 15  1  0
 14 16  2  0
 14 17  1  0
 15 18  1  0
 16 19  1  0
 17 20  2  0
 19 21  2  0
 20 21  1  0
 20 22  1  0
 22 23  2  0
 22 24  1  0
 21 25  1  0
 24 25  1  0
M  END
