MAK-UNK-e05327b2-1-vinylsulfonamide
     RDKit          3D

 53 59  0  0  0  0  0  0  0  0999 V2000
    7.4040   -3.4360   19.2660 C   0  0  0  0  0  0  0  0  0  0  0  0
    7.6620   -2.8210   20.6200 C   0  0  0  0  0  0  0  0  0  0  0  0
    6.2590   -3.3130   21.5560 S   0  0  0  0  0  0  0  0  0  0  0  0
    5.1660   -3.5120   20.6210 O   0  0  0  0  0  0  0  0  0  0  0  0
    6.2110   -2.3540   22.6140 O   0  0  0  0  0  0  0  0  0  0  0  0
    6.6430   -4.8220   22.2060 N   0  0  0  0  0  0  0  0  0  0  0  0
    7.6650   -4.9240   23.2220 C   0  0  0  0  0  0  0  0  0  0  0  0
    5.5920   -5.8350   22.2380 C   0  0  0  0  0  0  0  0  0  0  0  0
    6.8390   -4.4930   24.4510 C   0  0  0  0  0  0  0  0  0  0  0  0
    4.8230   -5.6850   23.4110 C   0  0  0  0  0  0  0  0  0  0  0  0
    5.7220   -5.4720   24.5840 N   0  0  0  0  0  0  0  0  0  0  0  0
    4.9720   -5.3940   26.0840 S   0  0  0  0  0  0  0  0  0  0  0  0
    3.9590   -6.4260   26.1200 O   0  0  0  0  0  0  0  0  0  0  0  0
    6.0150   -5.3010   27.0770 O   0  0  0  0  0  0  0  0  0  0  0  0
    4.1040   -3.8560   26.1490 C   0  0  0  0  0  0  0  0  0  0  0  0
    4.5910   -2.3960   26.2660 C   0  0  0  0  0  0  0  0  0  0  0  0
    2.3970   -3.9690   26.0650 S   0  0  0  0  0  0  0  0  0  0  0  0
    3.3790   -1.4570   26.2780 C   0  0  0  0  0  0  0  0  0  0  0  0
    2.1010   -2.2830   26.1710 C   0  0  0  0  0  0  0  0  0  0  0  0
    0.6830   -1.7080   26.1540 C   0  0  0  0  0  0  0  0  0  0  0  0
   -0.1660   -1.9510   27.1330 N   0  0  0  0  0  0  0  0  0  0  0  0
   -1.3570   -1.3100   26.7720 C   0  0  0  0  0  0  0  0  0  0  0  0
   -0.3600   -3.3820   27.4310 C   0  0  0  0  0  0  0  0  0  0  0  0
   -2.5120   -2.1020   26.9530 C   0  0  0  0  0  0  0  0  0  0  0  0
   -1.1700   -4.0980   26.3910 C   0  0  0  0  0  0  0  0  0  0  0  0
   -2.3950   -3.3010   26.0950 N   0  0  0  0  0  0  0  0  0  0  0  0
   -2.8780   -3.2200   24.4420 S   0  0  0  0  0  0  0  0  0  0  0  0
   -2.2000   -2.1250   23.7720 O   0  0  0  0  0  0  0  0  0  0  0  0
   -2.7650   -4.5640   23.9080 O   0  0  0  0  0  0  0  0  0  0  0  0
   -4.6140   -2.7980   24.4490 C   0  0  0  0  0  0  0  0  0  0  0  0
   -5.4130   -3.4400   25.3740 C   0  0  0  0  0  0  0  0  0  0  0  0
   -5.1920   -1.8360   23.5420 C   0  0  0  0  0  0  0  0  0  0  0  0
   -6.8780   -3.1830   25.4880 C   0  0  0  0  0  0  0  0  0  0  0  0
   -6.5940   -1.5590   23.6170 C   0  0  0  0  0  0  0  0  0  0  0  0
   -4.4970   -1.1180   22.5600 C   0  0  0  0  0  0  0  0  0  0  0  0
   -7.4420   -2.1890   24.5410 C   0  0  0  0  0  0  0  0  0  0  0  0
   -7.2070   -0.5430   22.6620 C   0  0  0  0  0  0  0  0  0  0  0  0
   -5.0250   -0.1630   21.6520 C   0  0  0  0  0  0  0  0  0  0  0  0
   -6.4370    0.1390   21.7060 C   0  0  0  0  0  0  0  0  0  0  0  0
   -4.1150    0.4220   20.7640 C   0  0  0  0  0  0  0  0  0  0  0  0
   -7.0670    1.0650   20.8660 C   0  0  0  0  0  0  0  0  0  0  0  0
   -4.6830    0.9130   19.5870 C   0  0  0  0  0  0  0  0  0  0  0  0
   -7.9430    1.8690   21.5970 C   0  0  0  0  0  0  0  0  0  0  0  0
   -5.5940    0.2200   18.7880 C   0  0  0  0  0  0  0  0  0  0  0  0
   -4.3480    2.4730   18.9210 S   0  0  0  0  0  0  0  0  0  0  0  0
   -7.6720    1.8930   22.9730 C   0  0  0  0  0  0  0  0  0  0  0  0
   -5.9940    0.9370   17.6820 C   0  0  0  0  0  0  0  0  0  0  0  0
   -5.4090    2.1910   17.5990 C   0  0  0  0  0  0  0  0  0  0  0  0
   -6.4050    2.0130   23.5260 C   0  0  0  0  0  0  0  0  0  0  0  0
   -8.8640    1.7740   24.2110 S   0  0  0  0  0  0  0  0  0  0  0  0
   -6.4110    2.0070   24.8980 C   0  0  0  0  0  0  0  0  0  0  0  0
   -7.6890    1.8830   25.4440 C   0  0  0  0  0  0  0  0  0  0  0  0
   -8.1370    1.8330   27.1000 Cl  0  0  0  0  0  0  0  0  0  0  0  0
  1  2  1  0
  3  2  1  0
  3  4  2  0
  3  5  2  0
  3  6  1  0
  6  7  1  0
  6  8  1  0
  7  9  1  0
  8 10  1  0
  9 11  1  0
 10 11  1  0
 11 12  1  0
 12 13  2  0
 12 14  2  0
 12 15  1  0
 15 16  2  0
 15 17  1  0
 16 18  1  0
 17 19  1  0
 18 19  2  0
 19 20  1  0
 20 21  1  0
 21 22  1  0
 21 23  1  0
 22 24  1  0
 23 25  1  0
 24 26  1  0
 25 26  1  0
 26 27  1  0
 27 28  2  0
 27 29  2  0
 27 30  1  0
 30 31  2  0
 30 32  1  0
 31 33  1  0
 32 34  2  0
 32 35  1  0
 33 36  2  0
 34 36  1  0
 34 37  1  0
 35 38  2  0
 37 39  2  0
 38 39  1  0
 38 40  1  0
 39 41  1  0
 40 42  1  0
 41 43  1  0
 42 44  2  0
 42 45  1  0
 43 46  1  0
 44 47  1  0
 45 48  1  0
 47 48  2  0
 46 49  2  0
 46 50  1  0
 49 51  1  0
 50 52  1  0
 51 52  2  0
 52 53  1  0
M  END
