MAK-UNK-a7992eb3-27
     RDKit          3D

 34 34  0  0  0  0  0  0  0  0999 V2000
    5.2670   -5.8300   21.6120 C   0  0  0  0  0  0  0  0  0  0  0  0
    4.2600   -5.3670   22.6370 C   0  0  0  0  0  0  0  0  0  0  0  0
    4.1930   -4.1750   22.8840 O   0  0  0  0  0  0  0  0  0  0  0  0
    3.4050   -6.4130   23.2290 N   0  0  0  0  0  0  0  0  0  0  0  0
    2.0290   -5.9010   23.3620 C   0  0  2  0  0  0  0  0  0  0  0  0
    1.7010   -5.4170   24.7630 C   0  0  0  0  0  0  0  0  0  0  0  0
    1.0370   -6.9860   22.8710 C   0  0  0  0  0  0  0  0  0  0  0  0
    2.3420   -4.2430   25.2420 C   0  0  0  0  0  0  0  0  0  0  0  0
    1.4120   -8.0300   22.3490 O   0  0  0  0  0  0  0  0  0  0  0  0
   -0.2770   -6.7000   23.0420 N   0  0  0  0  0  0  0  0  0  0  0  0
    1.6180   -3.0690   25.5350 C   0  0  0  0  0  0  0  0  0  0  0  0
    3.7500   -4.1950   25.4540 C   0  0  0  0  0  0  0  0  0  0  0  0
   -0.7240   -6.4080   21.7980 C   0  0  0  0  0  0  0  0  0  0  0  0
    2.2240   -1.8960   26.0040 C   0  0  0  0  0  0  0  0  0  0  0  0
    4.4370   -2.9150   25.9670 C   0  0  0  0  0  0  0  0  0  0  0  0
   -1.7750   -5.5050   21.6340 C   0  0  0  0  0  0  0  0  0  0  0  0
    3.7030   -1.7850   26.2410 C   0  0  0  0  0  0  0  0  0  0  0  0
   -2.3660   -5.3630   20.3750 C   0  0  0  0  0  0  0  0  0  0  0  0
    4.2680   -0.7630   26.6410 O   0  0  0  0  0  0  0  0  0  0  0  0
   -3.1760   -5.1990   18.6570 Br  0  0  0  0  0  0  0  0  0  0  0  0
    5.3330   -0.3500   25.7580 C   0  0  2  0  0  0  0  0  0  0  0  0
    6.6520   -1.0090   26.0820 C   0  0  0  0  0  0  0  0  0  0  0  0
    5.5470    1.1420   26.0600 C   0  0  2  0  0  0  0  0  0  0  0  0
    5.4780    1.4300   27.4870 N   0  0  0  0  0  0  0  0  0  0  0  0
    4.5570    1.9420   25.4080 C   0  0  0  0  0  0  0  0  0  0  0  0
    6.5200    2.0520   28.1490 C   0  0  0  0  0  0  0  0  0  0  0  0
    3.4860    2.2330   25.9390 O   0  0  0  0  0  0  0  0  0  0  0  0
    4.9070    2.3990   24.0640 N   0  0  0  0  0  0  0  0  0  0  0  0
    7.8880    1.5230   27.8050 C   0  0  0  0  0  0  0  0  0  0  0  0
    6.3640    2.9620   28.9580 O   0  0  0  0  0  0  0  0  0  0  0  0
    4.1080    2.1580   22.9610 C   0  0  0  0  0  0  0  0  0  0  0  0
    2.7660    2.4880   23.1340 C   0  0  0  0  0  0  0  0  0  0  0  0
    1.8990    2.4260   22.0670 C   0  0  0  0  0  0  0  0  0  0  0  0
    0.6330    2.3720   20.6430 Br  0  0  0  0  0  0  0  0  0  0  0  0
  1  2  1  0
  2  3  2  0
  2  4  1  0
  4  5  1  0
  5  6  1  1
  5  7  1  0
  6  8  1  0
  7  9  2  0
  7 10  1  0
  8 11  2  0
  8 12  1  0
 10 13  1  0
 11 14  1  0
 12 15  2  0
 13 16  1  0
 14 17  2  0
 15 17  1  0
 16 18  3  0
 17 19  1  0
 18 20  1  0
 19 21  1  0
 21 22  1  1
 21 23  1  0
 23 24  1  1
 23 25  1  0
 24 26  1  0
 25 27  2  0
 25 28  1  0
 26 29  1  0
 26 30  2  0
 28 31  1  0
 31 32  1  0
 32 33  3  0
 33 34  1  0
M  END
