MAK-UNK-10dfa458-12-acrylamide
     RDKit          3D

 22 23  0  0  0  0  0  0  0  0999 V2000
    8.1370   -3.7310   20.3230 C   0  0  0  0  0  0  0  0  0  0  0  0
    6.7980   -3.0970   20.2850 C   0  0  0  0  0  0  0  0  0  0  0  0
    5.9360   -4.2630   20.6060 C   0  0  0  0  0  0  0  0  0  0  0  0
    5.1110   -4.6600   19.8080 O   0  0  0  0  0  0  0  0  0  0  0  0
    6.1840   -4.9120   21.8140 N   0  0  0  0  0  0  0  0  0  0  0  0
    7.0700   -4.3910   22.8490 C   0  0  0  0  0  0  0  0  0  0  0  0
    5.1310   -5.7550   22.3200 C   0  0  2  0  0  0  0  0  0  0  0  0
    6.4810   -4.5940   24.2500 C   0  0  0  0  0  0  0  0  0  0  0  0
    4.2440   -4.9020   23.1780 C   0  0  0  0  0  0  0  0  0  0  0  0
    5.7150   -6.9780   22.9680 C   0  0  0  0  0  0  0  0  0  0  0  0
    5.0470   -4.2730   24.3180 C   0  0  1  0  0  0  0  0  0  0  0  0
    6.8100   -7.4350   22.6760 O   0  0  0  0  0  0  0  0  0  0  0  0
    4.7960   -7.5150   23.9610 O   0  0  0  0  0  0  0  0  0  0  0  0
    4.4050   -4.5850   25.6780 C   0  0  0  0  0  0  0  0  0  0  0  0
    3.4010   -7.3800   23.6690 C   0  0  0  0  0  0  0  0  0  0  0  0
    3.3520   -3.6780   25.7880 C   0  0  0  0  0  0  0  0  0  0  0  0
    3.5580   -2.3730   26.2530 C   0  0  0  0  0  0  0  0  0  0  0  0
    2.0600   -4.0520   25.4180 C   0  0  0  0  0  0  0  0  0  0  0  0
    2.4910   -1.4780   26.3470 C   0  0  0  0  0  0  0  0  0  0  0  0
    0.9920   -3.1600   25.5090 C   0  0  0  0  0  0  0  0  0  0  0  0
    1.2030   -1.8660   25.9780 C   0  0  0  0  0  0  0  0  0  0  0  0
   -0.3170   -3.5820   25.1170 C   0  0  0  0  0  0  0  0  0  0  0  0
  1  2  1  0
  2  3  1  0
  3  4  2  0
  3  5  1  0
  5  6  1  0
  5  7  1  0
  6  8  1  0
  7  9  1  0
  7 10  1  1
  8 11  1  0
  9 11  1  0
 10 12  2  0
 10 13  1  0
 11 14  1  1
 13 15  1  0
 14 16  1  0
 16 17  2  0
 16 18  1  0
 17 19  1  0
 18 20  2  0
 19 21  2  0
 20 21  1  0
 20 22  1  0
M  END
