MAK-UNK-ec98eaf6-9-vinylsulfonamide
     RDKit          3D

 27 30  0  0  0  0  0  0  0  0999 V2000
    9.1390   -3.9070   20.2480 C   0  0  0  0  0  0  0  0  0  0  0  0
    7.9630   -4.5620   20.9790 C   0  0  0  0  0  0  0  0  0  0  0  0
    6.3650   -3.9450   20.4120 S   0  0  0  0  0  0  0  0  0  0  0  0
    5.2860   -4.7960   20.8910 O   0  0  0  0  0  0  0  0  0  0  0  0
    6.4260   -3.5190   19.0500 O   0  0  0  0  0  0  0  0  0  0  0  0
    6.3470   -2.6610   21.3940 N   0  0  0  0  0  0  0  0  0  0  0  0
    7.1800   -1.4620   21.0380 C   0  0  0  0  0  0  0  0  0  0  0  0
    6.8010   -3.0760   22.7300 C   0  0  1  0  0  0  0  0  0  0  0  0
    8.2550   -1.6660   22.1380 C   0  0  2  0  0  0  0  0  0  0  0  0
    8.3020   -3.1230   22.4790 C   0  0  0  0  0  0  0  0  0  0  0  0
    6.4580   -2.0760   23.5880 C   0  0  0  0  0  0  0  0  0  0  0  0
    7.7000   -1.2600   23.4560 N   0  0  0  0  0  0  0  0  0  0  0  0
    8.6380   -1.3940   24.5570 C   0  0  2  0  0  0  0  0  0  0  0  0
    9.9010   -1.1130   24.0510 C   0  0  0  0  0  0  0  0  0  0  0  0
    8.3930   -2.6400   25.3960 C   0  0  0  0  0  0  0  0  0  0  0  0
   10.6910   -1.9460   23.1590 C   0  0  0  0  0  0  0  0  0  0  0  0
   10.3810    0.1180   24.4540 C   0  0  0  0  0  0  0  0  0  0  0  0
    7.3060   -2.6610   26.3010 C   0  0  0  0  0  0  0  0  0  0  0  0
    9.2100   -3.7550   25.2930 C   0  0  0  0  0  0  0  0  0  0  0  0
   12.0330   -1.5140   22.6210 C   0  0  0  0  0  0  0  0  0  0  0  0
   11.5700    0.6090   24.0340 C   0  0  0  0  0  0  0  0  0  0  0  0
    7.0370   -3.8760   27.1550 C   0  0  0  0  0  0  0  0  0  0  0  0
    8.9980   -4.9040   26.0530 C   0  0  0  0  0  0  0  0  0  0  0  0
   12.2980   -0.1680   23.1870 C   0  0  0  0  0  0  0  0  0  0  0  0
    7.9600   -5.0320   26.9840 C   0  0  0  0  0  0  0  0  0  0  0  0
    9.9360   -5.9990   25.8220 C   0  0  0  0  0  0  0  0  0  0  0  0
   13.5670    0.0720   22.5750 C   0  0  0  0  0  0  0  0  0  0  0  0
  1  2  1  0
  3  2  1  0
  3  4  2  0
  3  5  2  0
  3  6  1  0
  6  7  1  0
  6  8  1  0
  9  7  1  6
  8 10  1  0
  9 10  1  0
  8 11  1  1
  9 12  1  0
 11 12  1  0
 12 13  1  0
 13 14  1  6
 13 15  1  0
 14 16  2  0
 14 17  1  0
 15 18  2  0
 15 19  1  0
 16 20  1  0
 17 21  2  0
 18 22  1  0
 19 23  2  0
 20 24  2  0
 21 24  1  0
 22 25  2  0
 23 25  1  0
 23 26  1  0
 24 27  1  0
M  END
