MAK-UNK-212f693e-23
     RDKit          3D

 15 16  0  0  0  0  0  0  0  0999 V2000
    6.4720   -2.9640   20.9260 N   0  0  0  0  0  0  0  0  0  0  0  0
    6.0760   -4.2410   20.9030 C   0  0  0  0  0  0  0  0  0  0  0  0
    5.3830   -4.7760   19.7910 O   0  0  0  0  0  0  0  0  0  0  0  0
    6.3940   -4.9880   21.9690 N   0  0  0  0  0  0  0  0  0  0  0  0
    7.1950   -4.4310   23.0630 C   0  0  0  0  0  0  0  0  0  0  0  0
    5.4590   -6.0510   22.3520 C   0  0  0  0  0  0  0  0  0  0  0  0
    6.2280   -4.0770   24.1870 C   0  0  0  0  0  0  0  0  0  0  0  0
    4.5310   -5.6350   23.3370 C   0  0  0  0  0  0  0  0  0  0  0  0
    5.2050   -5.1640   24.4750 C   0  0  0  0  0  0  0  0  0  0  0  0
    4.4180   -5.0260   25.4200 O   0  0  0  0  0  0  0  0  0  0  0  0
    3.5580   -3.9660   25.5080 C   0  0  0  0  0  0  0  0  0  0  0  0
    3.7520   -2.5120   25.7310 C   0  0  0  0  0  0  0  0  0  0  0  0
    2.1780   -4.1890   25.3850 C   0  0  0  0  0  0  0  0  0  0  0  0
    2.6360   -1.7400   25.7720 C   0  0  0  0  0  0  0  0  0  0  0  0
    1.1760   -2.7010   25.5440 S   0  0  0  0  0  0  0  0  0  0  0  0
  1  2  1  0
  2  3  2  0
  2  4  1  0
  4  5  1  0
  4  6  1  0
  5  7  1  0
  6  8  1  0
  7  9  1  0
  8  9  1  0
  9 10  1  0
 10 11  1  0
 11 12  1  0
 11 13  2  0
 12 14  2  0
 13 15  1  0
 14 15  1  0
M  END
