MAK-UNK-ec98eaf6-28-bromoalkyne
     RDKit          3D

 26 29  0  0  0  0  0  0  0  0999 V2000
    6.6550   -4.0440   20.1400 C   0  0  0  0  0  0  0  0  0  0  0  0
    6.0680   -3.1590   19.0530 C   0  0  0  0  0  0  0  0  0  0  0  0
    6.1850   -3.9070   21.4350 N   0  0  0  0  0  0  0  0  0  0  0  0
    6.8300   -4.5560   22.6450 C   0  0  0  0  0  0  0  0  0  0  0  0
    5.7910   -2.5440   21.9090 C   0  0  1  0  0  0  0  0  0  0  0  0
    6.7900   -3.3140   23.5640 C   0  0  2  0  0  0  0  0  0  0  0  0
    5.4290   -2.7180   23.3760 C   0  0  0  0  0  0  0  0  0  0  0  0
    6.9410   -1.7970   21.7380 C   0  0  0  0  0  0  0  0  0  0  0  0
    7.6440   -2.1950   23.0030 N   0  0  0  0  0  0  0  0  0  0  0  0
    9.0260   -2.6260   22.7100 C   0  0  0  0  0  0  0  0  0  0  0  0
    9.9760   -1.6180   22.8960 C   0  0  0  0  0  0  0  0  0  0  0  0
    9.6160   -0.5290   23.7200 C   0  0  0  0  0  0  0  0  0  0  0  0
   11.2390   -1.6820   22.2970 C   0  0  0  0  0  0  0  0  0  0  0  0
   10.5840    0.5920   24.0040 C   0  0  0  0  0  0  0  0  0  0  0  0
   12.2330   -0.7440   22.4280 C   0  0  0  0  0  0  0  0  0  0  0  0
   11.6760   -2.6920   21.5150 N   0  0  0  0  0  0  0  0  0  0  0  0
   10.2330    1.6110   24.7780 F   0  0  0  0  0  0  0  0  0  0  0  0
   11.9590    0.4670   23.3480 C   0  0  0  0  0  0  0  0  0  0  0  0
   12.9280   -2.4000   21.1820 C   0  0  0  0  0  0  0  0  0  0  0  0
   13.4810   -1.1800   21.5730 C   0  0  1  0  0  0  0  0  0  0  0  0
   13.9640   -0.6580   20.2090 C   0  0  0  0  0  0  0  0  0  0  0  0
   14.8000    0.6920   19.7860 C   0  0  0  0  0  0  0  0  0  0  0  0
   14.7610    1.1400   18.4700 N   0  0  0  0  0  0  0  0  0  0  0  0
   15.2930    2.3030   18.2290 C   0  0  0  0  0  0  0  0  0  0  0  0
   15.1870    3.3790   19.2390 C   0  0  0  0  0  0  0  0  0  0  0  0
   15.8330    2.4020   17.2060 O   0  0  0  0  0  0  0  0  0  0  0  0
  1  2  2  3
  1  3  1  0
  3  4  1  0
  3  5  1  0
  6  4  1  6
  5  7  1  0
  6  7  1  0
  5  8  1  1
  6  9  1  0
  8  9  1  0
  9 10  1  0
 10 11  1  0
 11 12  1  0
 11 13  2  0
 12 14  2  0
 13 15  1  0
 13 16  1  0
 14 17  1  0
 14 18  1  0
 15 18  2  0
 16 19  2  0
 15 20  1  0
 19 20  1  0
 20 21  1  6
 21 22  1  0
 22 23  1  0
 23 24  1  0
 24 25  1  0
 24 26  2  0
M  END
