MAK-UNK-ec98eaf6-5-vinylsulfonamide
     RDKit          3D

 35 39  0  0  0  0  0  0  0  0999 V2000
    7.4460   -2.9310   18.7400 C   0  0  0  0  0  0  0  0  0  0  0  0
    6.2650   -2.3340   19.4890 C   0  0  0  0  0  0  0  0  0  0  0  0
    5.8680   -3.2110   20.9840 S   0  0  0  0  0  0  0  0  0  0  0  0
    5.3320   -4.5310   20.6440 O   0  0  0  0  0  0  0  0  0  0  0  0
    5.0320   -2.3250   21.7490 O   0  0  0  0  0  0  0  0  0  0  0  0
    7.3300   -3.3000   21.8030 N   0  0  0  0  0  0  0  0  0  0  0  0
    7.3180   -3.5420   23.2720 C   0  0  0  0  0  0  0  0  0  0  0  0
    8.3430   -2.2250   21.5320 C   0  0  2  0  0  0  0  0  0  0  0  0
    8.2620   -2.3780   23.6440 C   0  0  1  0  0  0  0  0  0  0  0  0
    9.3820   -2.4200   22.6430 C   0  0  0  0  0  0  0  0  0  0  0  0
    7.6460   -1.1050   21.8560 C   0  0  0  0  0  0  0  0  0  0  0  0
    7.4120   -1.1010   23.2260 C   0  0  2  0  0  0  0  0  0  0  0  0
    7.5770    0.0900   23.9490 C   0  0  0  0  0  0  0  0  0  0  0  0
    8.6820    0.4670   24.3190 O   0  0  0  0  0  0  0  0  0  0  0  0
    6.3660    0.7720   24.2250 N   0  0  0  0  0  0  0  0  0  0  0  0
    5.5840    1.1800   23.1600 C   0  0  0  0  0  0  0  0  0  0  0  0
    4.4010    1.2070   22.3540 C   0  0  0  0  0  0  0  0  0  0  0  0
    4.5200    0.3100   23.7110 C   0  0  0  0  0  0  0  0  0  0  0  0
    3.5590    1.6290   21.2450 C   0  0  0  0  0  0  0  0  0  0  0  0
    3.6690    0.7160   22.5860 C   0  0  0  0  0  0  0  0  0  0  0  0
    5.5140    0.1040   24.6410 O   0  0  0  0  0  0  0  0  0  0  0  0
    2.4710    0.7560   21.7560 C   0  0  0  0  0  0  0  0  0  0  0  0
    5.1820   -0.6440   25.8470 C   0  0  0  0  0  0  0  0  0  0  0  0
    6.2490   -1.3710   26.3510 C   0  0  0  0  0  0  0  0  0  0  0  0
    4.0150   -1.4490   25.5360 C   0  0  0  0  0  0  0  0  0  0  0  0
    5.9540   -2.8160   26.1040 C   0  0  0  0  0  0  0  0  0  0  0  0
    4.2650   -2.8930   24.9520 C   0  0  0  0  0  0  0  0  0  0  0  0
    5.3930   -3.6280   25.5430 N   0  0  0  0  0  0  0  0  0  0  0  0
    6.2620   -4.2940   24.5310 C   0  0  0  0  0  0  0  0  0  0  0  0
    7.3370   -3.3680   23.9760 C   0  0  0  0  0  0  0  0  0  0  0  0
    8.8000   -3.6420   23.8520 C   0  0  0  0  0  0  0  0  0  0  0  0
    6.8630   -2.1510   23.5380 C   0  0  0  0  0  0  0  0  0  0  0  0
    9.6660   -2.7020   23.3230 C   0  0  0  0  0  0  0  0  0  0  0  0
    7.7950   -1.2310   23.0110 C   0  0  0  0  0  0  0  0  0  0  0  0
    9.1680   -1.4840   22.9030 C   0  0  0  0  0  0  0  0  0  0  0  0
  1  2  1  0
  3  2  1  0
  3  4  2  0
  3  5  2  0
  3  6  1  0
  6  7  1  0
  6  8  1  0
  9  7  1  6
  8 10  1  0
  9 10  1  0
  8 11  1  1
  9 12  1  0
 11 12  1  0
 12 13  1  1
 13 14  2  0
 13 15  1  0
 15 16  1  0
 16 17  2  0
 16 18  1  0
 17 19  1  0
 18 20  2  0
 18 21  1  0
 19 22  2  0
 20 22  1  0
 21 23  1  0
 23 24  1  0
 23 25  1  0
 24 26  1  0
 25 27  1  0
 26 28  1  0
 27 28  1  0
 28 29  1  0
 29 30  1  0
 30 31  2  0
 30 32  1  0
 31 33  1  0
 32 34  2  0
 33 35  2  0
 34 35  1  0
M  END
