MAK-UNK-95198336-12
     RDKit          3D

 10 10  0  0  0  0  0  0  0  0999 V2000
    5.3900   -5.1340   24.1820 C   0  0  0  0  0  0  0  0  0  0  0  0
    4.4700   -4.7910   25.6590 S   0  0  0  0  0  0  0  0  0  0  0  0
    5.3890   -4.1630   26.5900 O   0  0  0  0  0  0  0  0  0  0  0  0
    3.7950   -6.0250   26.0170 O   0  0  0  0  0  0  0  0  0  0  0  0
    3.2440   -3.6240   25.0430 C   0  0  2  0  0  0  0  0  0  0  0  0
    2.8320   -2.5350   25.7890 C   0  0  0  0  0  0  0  0  0  0  0  0
    1.7550   -4.0600   25.2740 C   0  0  0  0  0  0  0  0  0  0  0  0
    1.4560   -2.6600   25.9200 C   0  0  1  0  0  0  0  0  0  0  0  0
    0.8700   -2.6520   27.3230 C   0  0  0  0  0  0  0  0  0  0  0  0
    0.4180   -2.6290   28.3920 N   0  0  0  0  0  0  0  0  0  0  0  0
  2  1  1  0
  2  3  2  0
  2  4  2  0
  5  2  1  1
  5  6  1  0
  5  7  1  0
  6  8  1  0
  7  8  1  0
  8  9  1  1
  9 10  3  0
M  END
