MAK-UNK-72659d64-5-chloroacetamide
     RDKit          3D

 13 13  0  0  0  0  0  0  0  0999 V2000
    6.7070   -3.3800   19.6910 C   0  0  0  0  0  0  0  0  0  0  0  0
    6.0190   -4.4240   20.5680 C   0  0  0  0  0  0  0  0  0  0  0  0
    5.3430   -5.2830   20.0320 O   0  0  0  0  0  0  0  0  0  0  0  0
    6.1850   -4.3370   21.9880 N   0  0  0  0  0  0  0  0  0  0  0  0
    7.4730   -4.5870   22.5600 C   0  0  0  0  0  0  0  0  0  0  0  0
    5.2120   -4.5770   23.0460 C   0  0  0  0  0  0  0  0  0  0  0  0
    4.9560   -5.9770   23.4710 C   0  0  0  0  0  0  0  0  0  0  0  0
    4.5170   -3.6060   23.7590 N   0  0  0  0  0  0  0  0  0  0  0  0
    4.0220   -6.2690   24.6170 C   0  0  0  0  0  0  0  0  0  0  0  0
    3.7060   -3.9510   24.7680 C   0  0  0  0  0  0  0  0  0  0  0  0
    3.4000   -5.2320   25.2710 N   0  0  0  0  0  0  0  0  0  0  0  0
    3.0450   -2.8020   25.4530 C   0  0  0  0  0  0  0  0  0  0  0  0
    2.4270   -1.7680   26.0420 N   0  0  0  0  0  0  0  0  0  0  0  0
  1  2  1  0
  2  3  2  0
  2  4  1  0
  4  5  1  0
  4  6  1  0
  6  7  2  0
  6  8  1  0
  7  9  1  0
  8 10  2  0
  9 11  2  0
 10 11  1  0
 10 12  1  0
 12 13  3  0
M  END
