MAK-UNK-8fdbca50-2-nitrile
     RDKit          3D

 38 41  0  0  0  0  0  0  0  0999 V2000
    6.5170   -3.8710   20.1970 C   0  0  0  0  0  0  0  0  0  0  0  0
    5.4480   -3.7360   19.5200 N   0  0  0  0  0  0  0  0  0  0  0  0
    6.9580   -2.9330   21.0950 N   0  0  0  0  0  0  0  0  0  0  0  0
    6.1850   -2.5610   22.2880 C   0  0  0  0  0  0  0  0  0  0  0  0
    8.0880   -2.0870   20.7680 C   0  0  0  0  0  0  0  0  0  0  0  0
    6.0550   -1.0330   22.4090 C   0  0  0  0  0  0  0  0  0  0  0  0
    8.4950   -1.2490   21.8130 C   0  0  0  0  0  0  0  0  0  0  0  0
    7.4040   -0.3330   22.4040 C   0  0  0  0  0  0  0  0  0  0  0  0
    7.8780    0.1990   23.6340 C   0  0  0  0  0  0  0  0  0  0  0  0
    7.1920    0.1900   24.6510 O   0  0  0  0  0  0  0  0  0  0  0  0
    9.2810    0.7660   23.5310 N   0  0  0  0  0  0  0  0  0  0  0  0
    9.4150    2.0140   22.7710 C   0  0  0  0  0  0  0  0  0  0  0  0
   10.4340    0.0650   24.1540 C   0  0  2  0  0  0  0  0  0  0  0  0
   11.6550    0.8950   23.8150 C   0  0  0  0  0  0  0  0  0  0  0  0
   10.5660   -1.3330   23.4870 C   0  0  2  0  0  0  0  0  0  0  0  0
    9.3910   -2.1450   23.9110 C   0  0  0  0  0  0  0  0  0  0  0  0
   11.8480   -2.0300   23.9790 C   0  0  0  0  0  0  0  0  0  0  0  0
   12.4680   -2.7720   22.9480 C   0  0  0  0  0  0  0  0  0  0  0  0
   11.8870   -3.2730   21.6650 C   0  0  0  0  0  0  0  0  0  0  0  0
   13.7650   -3.2540   22.8050 C   0  0  0  0  0  0  0  0  0  0  0  0
   12.8980   -3.9470   20.9170 C   0  0  0  0  0  0  0  0  0  0  0  0
   13.9280   -3.9930   21.5290 N   0  0  0  0  0  0  0  0  0  0  0  0
   13.2550   -4.5190   19.7430 C   0  0  0  0  0  0  0  0  0  0  0  0
   15.1510   -5.0170   20.6550 S   0  0  0  0  0  0  0  0  0  0  0  0
   14.6730   -4.7490   19.4110 C   0  0  0  0  0  0  0  0  0  0  0  0
   12.3500   -4.7480   18.8540 C   0  0  0  0  0  0  0  0  0  0  0  0
   14.3090   -6.1680   20.4440 O   0  0  0  0  0  0  0  0  0  0  0  0
   16.0690   -5.4630   21.6480 O   0  0  0  0  0  0  0  0  0  0  0  0
   15.5480   -4.6480   18.8940 C   0  0  0  0  0  0  0  0  0  0  0  0
   15.3300   -5.1760   18.1890 C   0  0  0  0  0  0  0  0  0  0  0  0
   13.0220   -5.1870   17.1380 C   0  0  0  0  0  0  0  0  0  0  0  0
   11.0740   -4.5900   19.2390 F   0  0  0  0  0  0  0  0  0  0  0  0
   15.4200   -5.7140   18.0670 C   0  0  0  0  0  0  0  0  0  0  0  0
   15.9050   -3.4840   18.1600 C   0  0  0  0  0  0  0  0  0  0  0  0
   14.5940   -5.4070   16.9770 C   0  0  0  0  0  0  0  0  0  0  0  0
   15.5230   -5.5920   16.6970 C   0  0  0  0  0  0  0  0  0  0  0  0
   16.0410   -3.3200   16.8950 N   0  0  0  0  0  0  0  0  0  0  0  0
   15.8110   -4.3370   16.2170 C   0  0  0  0  0  0  0  0  0  0  0  0
  1  2  2  3
  1  3  1  0
  3  4  1  0
  3  5  1  0
  4  6  1  0
  5  7  1  0
  6  8  1  0
  7  8  1  0
  8  9  1  0
  9 10  2  0
  9 11  1  0
 11 12  1  0
 11 13  1  0
 13 14  1  6
 13 15  1  0
 15 16  1  1
 15 17  1  0
 17 18  1  0
 18 19  1  0
 18 20  2  0
 19 21  2  0
 20 22  1  0
 21 22  1  0
 21 23  1  0
 22 24  1  0
 23 25  2  0
 23 26  1  0
 24 27  2  0
 24 28  2  0
 24 29  1  0
 25 30  1  0
 26 31  2  0
 26 32  1  0
 29 33  2  0
 29 34  1  0
 30 35  2  0
 31 35  1  0
 33 36  1  0
 34 37  2  0
 36 38  2  0
 37 38  1  0
M  END
