MAK-UNK-e05327b2-6-chloroacetamide
     RDKit          3D

 60 67  0  0  0  0  0  0  0  0999 V2000
    7.0080   -3.4900   19.9770 C   0  0  0  0  0  0  0  0  0  0  0  0
    6.2600   -4.6660   20.5990 C   0  0  0  0  0  0  0  0  0  0  0  0
    5.3170   -5.1370   19.9950 O   0  0  0  0  0  0  0  0  0  0  0  0
    6.6260   -5.2180   21.7990 N   0  0  0  0  0  0  0  0  0  0  0  0
    5.9410   -6.4220   22.2720 C   0  0  0  0  0  0  0  0  0  0  0  0
    7.3680   -4.5100   22.8520 C   0  0  0  0  0  0  0  0  0  0  0  0
    4.9230   -5.8820   23.3160 C   0  0  0  0  0  0  0  0  0  0  0  0
    6.4560   -4.1190   24.0210 C   0  0  0  0  0  0  0  0  0  0  0  0
    5.7240   -5.3280   24.4430 N   0  0  0  0  0  0  0  0  0  0  0  0
    4.9840   -5.3470   25.9680 S   0  0  0  0  0  0  0  0  0  0  0  0
    4.0240   -6.4270   25.9910 O   0  0  0  0  0  0  0  0  0  0  0  0
    6.0300   -5.2440   26.9570 O   0  0  0  0  0  0  0  0  0  0  0  0
    4.0700   -3.8240   26.0110 C   0  0  0  0  0  0  0  0  0  0  0  0
    4.7080   -2.4360   25.8550 C   0  0  0  0  0  0  0  0  0  0  0  0
    2.3680   -3.7790   26.2320 S   0  0  0  0  0  0  0  0  0  0  0  0
    3.5990   -1.3820   25.9320 C   0  0  0  0  0  0  0  0  0  0  0  0
    2.2430   -2.0570   26.1400 C   0  0  0  0  0  0  0  0  0  0  0  0
    0.9110   -1.2950   26.2600 C   0  0  0  0  0  0  0  0  0  0  0  0
    0.2850   -0.9270   25.1550 N   0  0  0  0  0  0  0  0  0  0  0  0
    0.7470    0.3120   24.7070 C   0  0  0  0  0  0  0  0  0  0  0  0
   -1.1840   -1.0070   25.2760 C   0  0  0  0  0  0  0  0  0  0  0  0
   -0.1900    1.1030   23.9960 C   0  0  0  0  0  0  0  0  0  0  0  0
   -1.9190   -0.6480   23.9860 C   0  0  0  0  0  0  0  0  0  0  0  0
   -1.0310    0.2140   23.1700 N   0  0  0  0  0  0  0  0  0  0  0  0
   -1.7900    0.8030   21.7420 S   0  0  0  0  0  0  0  0  0  0  0  0
   -1.0120    0.2950   20.6350 O   0  0  0  0  0  0  0  0  0  0  0  0
   -3.2040    0.5240   21.8590 O   0  0  0  0  0  0  0  0  0  0  0  0
   -1.6760    2.5880   21.6790 C   0  0  0  0  0  0  0  0  0  0  0  0
   -1.3130    3.2820   22.8330 C   0  0  0  0  0  0  0  0  0  0  0  0
   -1.9640    3.2630   20.4330 C   0  0  0  0  0  0  0  0  0  0  0  0
   -1.2160    4.7780   22.7670 C   0  0  0  0  0  0  0  0  0  0  0  0
   -1.8730    4.6810   20.3660 C   0  0  0  0  0  0  0  0  0  0  0  0
   -2.3470    2.6080   19.2230 C   0  0  0  0  0  0  0  0  0  0  0  0
   -1.5130    5.4400   21.4760 C   0  0  0  0  0  0  0  0  0  0  0  0
   -2.1750    5.3990   19.0550 C   0  0  0  0  0  0  0  0  0  0  0  0
   -2.6330    3.2730   17.9970 C   0  0  0  0  0  0  0  0  0  0  0  0
   -2.5470    4.6790   17.9090 C   0  0  0  0  0  0  0  0  0  0  0  0
   -2.9980    2.4640   16.9180 C   0  0  0  0  0  0  0  0  0  0  0  0
   -2.8210    5.3650   16.7170 C   0  0  0  0  0  0  0  0  0  0  0  0
   -2.2300    2.6260   15.7630 C   0  0  0  0  0  0  0  0  0  0  0  0
   -3.0340    6.7680   17.0210 N   0  0  0  0  0  0  0  0  0  0  0  0
   -2.2630    1.6210   14.7960 C   0  0  0  0  0  0  0  0  0  0  0  0
   -2.0880    7.8150   16.5680 C   0  0  0  0  0  0  0  0  0  0  0  0
   -4.4440    7.1490   16.8030 C   0  0  0  0  0  0  0  0  0  0  0  0
   -1.0960    1.2480   13.9600 C   0  0  0  0  0  0  0  0  0  0  0  0
   -3.3310    0.8110   14.4450 C   0  0  0  0  0  0  0  0  0  0  0  0
   -2.7450    8.8540   15.8840 C   0  0  0  0  0  0  0  0  0  0  0  0
   -4.7050    8.4130   17.3820 C   0  0  0  0  0  0  0  0  0  0  0  0
   -1.3290    0.2020   13.0380 C   0  0  0  0  0  0  0  0  0  0  0  0
   -2.9550   -0.3180   13.1950 S   0  0  0  0  0  0  0  0  0  0  0  0
   -3.7910    9.4160   16.7780 N   0  0  0  0  0  0  0  0  0  0  0  0
   -4.4320   10.9600   16.4430 S   0  0  0  0  0  0  0  0  0  0  0  0
   -3.3190   11.8770   16.3020 O   0  0  0  0  0  0  0  0  0  0  0  0
   -5.5110   11.2270   17.3740 O   0  0  0  0  0  0  0  0  0  0  0  0
   -5.2550   10.9090   14.8550 C   0  0  1  0  0  0  0  0  0  0  0  0
   -6.6330   10.7910   14.7040 C   0  0  0  0  0  0  0  0  0  0  0  0
   -4.7990   12.2430   13.8720 S   0  0  0  0  0  0  0  0  0  0  0  0
   -6.9710   11.1690   13.4000 C   0  0  0  0  0  0  0  0  0  0  0  0
   -6.2740   12.2970   13.0460 C   0  0  2  0  0  0  0  0  0  0  0  0
   -6.0950   12.6660   11.3800 Cl  0  0  0  0  0  0  0  0  0  0  0  0
  1  2  1  0
  2  3  2  0
  2  4  1  0
  4  5  1  0
  4  6  1  0
  5  7  1  0
  6  8  1  0
  7  9  1  0
  8  9  1  0
  9 10  1  0
 10 11  2  0
 10 12  2  0
 10 13  1  0
 13 14  2  0
 13 15  1  0
 14 16  1  0
 15 17  1  0
 16 17  2  0
 17 18  1  0
 18 19  1  0
 19 20  1  0
 19 21  1  0
 20 22  1  0
 21 23  1  0
 22 24  1  0
 23 24  1  0
 24 25  1  0
 25 26  2  0
 25 27  2  0
 25 28  1  0
 28 29  2  0
 28 30  1  0
 29 31  1  0
 30 32  2  0
 30 33  1  0
 31 34  2  0
 32 34  1  0
 32 35  1  0
 33 36  2  0
 35 37  2  0
 36 37  1  0
 36 38  1  0
 37 39  1  0
 38 40  1  0
 39 41  1  0
 40 42  1  0
 41 43  1  0
 41 44  1  0
 42 45  1  0
 42 46  2  0
 43 47  1  0
 44 48  1  0
 45 49  2  0
 46 50  1  0
 49 50  1  0
 47 51  1  0
 48 51  1  0
 52 51  1  0
 52 53  2  0
 52 54  2  0
 55 52  1  1
 55 56  1  0
 55 57  1  0
 56 58  1  0
 57 59  1  0
 58 59  1  0
 59 60  1  6
M  END
