MAK-UNK-0d6072ac-10
     RDKit          3D

 19 21  0  0  0  0  0  0  0  0999 V2000
    4.9920   -6.2690   23.0000 C   0  0  0  0  0  0  0  0  0  0  0  0
    5.5250   -5.1330   22.1770 C   0  0  2  0  0  0  0  0  0  0  0  0
    5.6140   -5.3540   20.8860 C   0  0  0  0  0  0  0  0  0  0  0  0
    6.8610   -4.6940   22.7060 C   0  0  0  0  0  0  0  0  0  0  0  0
    6.1050   -6.2880   20.3540 O   0  0  0  0  0  0  0  0  0  0  0  0
    5.0950   -4.3940   20.1200 O   0  0  0  0  0  0  0  0  0  0  0  0
    7.6720   -5.6150   23.5680 C   0  0  0  0  0  0  0  0  0  0  0  0
    7.2770   -3.4650   22.3780 N   0  0  0  0  0  0  0  0  0  0  0  0
    8.9050   -5.2100   24.0830 C   0  0  0  0  0  0  0  0  0  0  0  0
    8.5890   -3.1280   22.9640 C   0  0  0  0  0  0  0  0  0  0  0  0
    9.3960   -3.9150   23.7800 C   0  0  0  0  0  0  0  0  0  0  0  0
    9.3250   -1.8400   22.7870 N   0  0  0  0  0  0  0  0  0  0  0  0
   10.5570   -1.9210   23.5180 C   0  0  0  0  0  0  0  0  0  0  0  0
   10.6130   -3.1430   24.1230 C   0  0  0  0  0  0  0  0  0  0  0  0
   11.4700   -0.8990   23.5510 C   0  0  0  0  0  0  0  0  0  0  0  0
   11.8980   -3.3320   24.9530 C   0  0  0  0  0  0  0  0  0  0  0  0
   12.6620   -1.1040   24.3150 C   0  0  0  0  0  0  0  0  0  0  0  0
   12.8350   -2.3240   24.9990 C   0  0  0  0  0  0  0  0  0  0  0  0
   14.1950   -2.6590   25.9290 Cl  0  0  0  0  0  0  0  0  0  0  0  0
  2  1  1  1
  2  3  1  0
  2  4  1  0
  3  5  2  0
  3  6  1  0
  4  7  2  0
  4  8  1  0
  7  9  1  0
  8 10  2  0
  9 11  2  0
 10 11  1  0
 10 12  1  0
 12 13  1  0
 11 14  1  0
 13 14  2  0
 13 15  1  0
 14 16  1  0
 15 17  2  0
 16 18  2  0
 17 18  1  0
 18 19  1  0
M  END
