MAK-UNK-f2409524-21
     RDKit          3D

 26 27  0  0  0  0  0  0  0  0999 V2000
    9.9180   -0.6690   22.2510 C   0  0  0  0  0  0  0  0  0  0  0  0
    8.8140    0.0550   21.5090 C   0  0  0  0  0  0  0  0  0  0  0  0
    8.9800    1.2400   21.1810 O   0  0  0  0  0  0  0  0  0  0  0  0
    7.6090   -0.7680   21.2490 N   0  0  0  0  0  0  0  0  0  0  0  0
    6.6570   -0.1450   20.3100 C   0  0  0  0  0  0  0  0  0  0  0  0
    6.9900   -0.2950   18.8610 C   0  0  0  0  0  0  0  0  0  0  0  0
    5.5080    0.5470   20.6870 C   0  0  0  0  0  0  0  0  0  0  0  0
    6.1320    0.2830   17.8060 N   0  0  0  0  0  0  0  0  0  0  0  0
    4.7050    1.0890   19.6760 C   0  0  0  0  0  0  0  0  0  0  0  0
    5.0810    0.7480   22.1220 C   0  0  0  0  0  0  0  0  0  0  0  0
    5.0380    0.9440   18.3380 C   0  0  0  0  0  0  0  0  0  0  0  0
    5.0630    2.0230   22.7820 C   0  0  1  0  0  0  0  0  0  0  0  0
    5.9610    3.1540   22.3400 C   0  0  0  0  0  0  0  0  0  0  0  0
    3.7250    2.4980   22.4500 O   0  0  0  0  0  0  0  0  0  0  0  0
    6.2070    4.1730   23.3390 O   0  0  0  0  0  0  0  0  0  0  0  0
    2.7440    2.3290   23.3760 C   0  0  0  0  0  0  0  0  0  0  0  0
    6.9610    5.2250   22.7190 C   0  0  0  0  0  0  0  0  0  0  0  0
    2.7620    1.5030   24.2720 O   0  0  0  0  0  0  0  0  0  0  0  0
    1.7270    3.2480   23.1280 N   0  0  0  0  0  0  0  0  0  0  0  0
    7.4610    6.4740   23.2160 O   0  0  0  0  0  0  0  0  0  0  0  0
    0.6150    3.2740   23.9500 C   0  0  0  0  0  0  0  0  0  0  0  0
   -0.4900    2.8650   23.2040 C   0  0  0  0  0  0  0  0  0  0  0  0
    0.4850    4.5400   24.5470 C   0  0  0  0  0  0  0  0  0  0  0  0
   -1.7610    3.2680   23.6270 C   0  0  0  0  0  0  0  0  0  0  0  0
   -0.7810    4.9790   24.9840 C   0  0  0  0  0  0  0  0  0  0  0  0
   -1.8830    4.5000   24.2670 C   0  0  0  0  0  0  0  0  0  0  0  0
  1  2  1  0
  2  3  2  0
  2  4  1  0
  4  5  1  0
  5  6  2  0
  5  7  1  0
  6  8  1  0
  7  9  2  0
  7 10  1  0
  8 11  2  0
  9 11  1  0
 12 10  1  6
 12 13  1  0
 12 14  1  0
 13 15  1  0
 14 16  1  0
 15 17  1  0
 16 18  2  0
 16 19  1  0
 17 20  2  0
 19 21  1  0
 21 22  1  0
 21 23  1  0
 22 24  1  0
 23 25  1  0
 24 26  1  0
 25 26  1  0
M  END
