MAK-UNK-6ca90168-9-bromoalkyne
     RDKit          3D

 19 20  0  0  0  0  0  0  0  0999 V2000
    6.5830   -4.0640   19.9840 C   0  0  0  0  0  0  0  0  0  0  0  0
    5.1560   -3.8320   19.6150 C   0  0  0  0  0  0  0  0  0  0  0  0
    7.4560   -3.0290   19.8790 N   0  0  0  0  0  0  0  0  0  0  0  0
    7.3070   -2.0620   18.7690 C   0  0  0  0  0  0  0  0  0  0  0  0
    8.0810   -2.4970   21.0820 C   0  0  0  0  0  0  0  0  0  0  0  0
    6.1580   -1.1120   19.2930 C   0  0  0  0  0  0  0  0  0  0  0  0
    7.2160   -1.3540   21.5710 C   0  0  0  0  0  0  0  0  0  0  0  0
    6.7750   -0.4440   20.4880 N   0  0  0  0  0  0  0  0  0  0  0  0
    6.3680    0.9700   20.7050 C   0  0  0  0  0  0  0  0  0  0  0  0
    6.6400    1.8840   19.8940 O   0  0  0  0  0  0  0  0  0  0  0  0
    5.5990    1.1640   22.0440 C   0  0  0  0  0  0  0  0  0  0  0  0
    5.6680    2.7050   22.1500 C   0  0  0  0  0  0  0  0  0  0  0  0
    7.0590    3.2440   21.6750 C   0  0  0  0  0  0  0  0  0  0  0  0
    4.5720    3.7160   22.6860 C   0  0  0  0  0  0  0  0  0  0  0  0
    6.5370    4.5270   21.9940 C   0  0  0  0  0  0  0  0  0  0  0  0
    4.7150    5.1410   22.7600 C   0  0  0  0  0  0  0  0  0  0  0  0
    3.2930    3.0920   23.1390 C   0  0  0  0  0  0  0  0  0  0  0  0
    5.9540    5.9600   22.3510 C   0  0  0  0  0  0  0  0  0  0  0  0
    2.0210    2.4800   23.5390 N   0  0  0  0  0  0  0  0  0  0  0  0
  1  2  2  3
  1  3  1  0
  3  4  1  0
  3  5  1  0
  4  6  1  0
  5  7  1  0
  6  8  1  0
  7  8  1  0
  8  9  1  0
  9 10  2  0
  9 11  1  0
 11 12  1  0
 12 13  2  0
 12 14  1  0
 13 15  1  0
 14 16  2  0
 14 17  1  0
 15 18  2  0
 16 18  1  0
 17 19  3  0
M  END
