MAK-UNK-176ca439-5-acrylamide
     RDKit          3D

 34 37  0  0  0  0  0  0  0  0999 V2000
    7.1650   -2.8090   18.5450 C   0  0  0  0  0  0  0  0  0  0  0  0
    6.1850   -2.3290   19.5890 C   0  0  0  0  0  0  0  0  0  0  0  0
    5.7020   -3.4040   20.5200 C   0  0  0  0  0  0  0  0  0  0  0  0
    5.2540   -4.4940   20.1380 O   0  0  0  0  0  0  0  0  0  0  0  0
    5.7710   -3.1030   21.8670 N   0  0  0  0  0  0  0  0  0  0  0  0
    6.7760   -3.6240   22.6430 C   0  0  0  0  0  0  0  0  0  0  0  0
    5.4050   -1.7750   22.3500 C   0  0  0  0  0  0  0  0  0  0  0  0
    7.9600   -2.6580   22.8350 C   0  0  0  0  0  0  0  0  0  0  0  0
    6.4790   -0.8480   22.3400 C   0  0  0  0  0  0  0  0  0  0  0  0
    7.6900   -1.3540   23.0040 N   0  0  0  0  0  0  0  0  0  0  0  0
    8.9040   -0.4880   22.8440 C   0  0  0  0  0  0  0  0  0  0  0  0
   10.1840   -1.0780   23.4190 C   0  0  0  0  0  0  0  0  0  0  0  0
   10.8140   -0.2530   24.5370 C   0  0  0  0  0  0  0  0  0  0  0  0
   10.7920   -2.2630   23.0230 C   0  0  0  0  0  0  0  0  0  0  0  0
   12.0820   -0.7510   25.2200 C   0  0  0  0  0  0  0  0  0  0  0  0
   12.0600   -2.7150   23.7450 C   0  0  0  0  0  0  0  0  0  0  0  0
   12.6800   -1.9240   24.8750 C   0  0  0  0  0  0  0  0  0  0  0  0
   13.8560   -2.5810   25.4320 C   0  0  0  0  0  0  0  0  0  0  0  0
   14.4070   -2.0260   26.5740 N   0  0  0  0  0  0  0  0  0  0  0  0
   15.7890   -1.5940   26.9550 C   0  0  0  0  0  0  0  0  0  0  0  0
   16.6610   -2.1330   26.2810 O   0  0  0  0  0  0  0  0  0  0  0  0
   16.5250    0.0630   27.8870 C   0  0  0  0  0  0  0  0  0  0  0  0
   18.1660    1.5410   28.2250 N   0  0  0  0  0  0  0  0  0  0  0  0
   18.4300    2.9180   28.0430 C   0  0  0  0  0  0  0  0  0  0  0  0
   19.0510    3.6070   29.1200 C   0  0  0  0  0  0  0  0  0  0  0  0
   18.3640    4.2250   30.3340 C   0  0  0  0  0  0  0  0  0  0  0  0
   20.5580    3.8830   29.2930 C   0  0  0  0  0  0  0  0  0  0  0  0
   19.4100    4.7940   31.1200 N   0  0  0  0  0  0  0  0  0  0  0  0
   20.7300    4.5950   30.5060 C   0  0  0  0  0  0  0  0  0  0  0  0
   21.7580    3.6330   28.6100 C   0  0  0  0  0  0  0  0  0  0  0  0
   21.9480    5.0440   31.0490 C   0  0  0  0  0  0  0  0  0  0  0  0
   23.0210    4.0510   29.0890 C   0  0  0  0  0  0  0  0  0  0  0  0
   23.1320    4.7530   30.3000 C   0  0  0  0  0  0  0  0  0  0  0  0
   24.1280    3.7790   28.3850 F   0  0  0  0  0  0  0  0  0  0  0  0
  1  2  1  0
  2  3  1  0
  3  4  2  0
  3  5  1  0
  5  6  1  0
  5  7  1  0
  6  8  1  0
  7  9  1  0
  8 10  1  0
  9 10  1  0
 10 11  1  0
 11 12  1  0
 12 13  2  0
 12 14  1  0
 13 15  1  0
 14 16  2  0
 15 17  2  0
 16 17  1  0
 17 18  1  0
 18 19  1  0
 19 20  1  0
 20 21  2  0
 20 22  1  0
 22 23  1  0
 23 24  1  0
 24 25  1  0
 25 26  2  0
 25 27  1  0
 26 28  1  0
 27 29  2  0
 28 29  1  0
 27 30  1  0
 29 31  1  0
 30 32  2  0
 31 33  2  0
 32 33  1  0
 32 34  1  0
M  END
