MAK-UNK-10799360-9-vinylsulfonamide
     RDKit          3D

 30 33  0  0  0  0  0  0  0  0999 V2000
    7.2320   -3.5680   19.6770 C   0  0  0  0  0  0  0  0  0  0  0  0
    5.9140   -2.9600   20.1610 C   0  0  0  0  0  0  0  0  0  0  0  0
    5.7400   -3.2370   21.9110 S   0  0  0  0  0  0  0  0  0  0  0  0
    4.3230   -3.2910   22.1720 O   0  0  0  0  0  0  0  0  0  0  0  0
    6.5270   -4.3570   22.3450 O   0  0  0  0  0  0  0  0  0  0  0  0
    6.4510   -1.8560   22.5880 N   0  0  0  0  0  0  0  0  0  0  0  0
    6.5770   -1.8190   24.0530 C   0  0  0  0  0  0  0  0  0  0  0  0
    7.8040   -1.5400   22.0990 C   0  0  1  0  0  0  0  0  0  0  0  0
    8.0090   -1.2290   24.2790 C   0  0  2  0  0  0  0  0  0  0  0  0
    8.1650   -0.3740   23.0250 C   0  0  0  0  0  0  0  0  0  0  0  0
    8.7990   -2.6620   22.5490 C   0  0  0  0  0  0  0  0  0  0  0  0
    9.1280   -2.2900   24.0050 C   0  0  2  0  0  0  0  0  0  0  0  0
    9.4280   -3.3360   25.1230 C   0  0  0  0  0  0  0  0  0  0  0  0
    8.3930   -4.3680   25.4770 N   0  0  0  0  0  0  0  0  0  0  0  0
    7.5060   -4.7510   24.4400 C   0  0  0  0  0  0  0  0  0  0  0  0
    7.9410   -4.3090   26.7880 C   0  0  0  0  0  0  0  0  0  0  0  0
    6.1570   -4.9560   24.7690 C   0  0  0  0  0  0  0  0  0  0  0  0
    6.5900   -4.0010   26.9750 C   0  0  0  0  0  0  0  0  0  0  0  0
    5.6820   -4.3380   25.9340 C   0  0  0  0  0  0  0  0  0  0  0  0
    6.0970   -3.3760   28.1320 C   0  0  0  0  0  0  0  0  0  0  0  0
    4.3240   -4.0560   26.0720 C   0  0  0  0  0  0  0  0  0  0  0  0
    4.7520   -3.0580   28.3440 C   0  0  0  0  0  0  0  0  0  0  0  0
    3.8290   -3.3850   27.3340 C   0  0  0  0  0  0  0  0  0  0  0  0
    4.2500   -2.2580   29.8590 S   0  0  0  0  0  0  0  0  0  0  0  0
    2.3690   -3.0790   27.4910 C   0  0  0  0  0  0  0  0  0  0  0  0
    5.5970   -1.4030   30.3480 N   0  0  0  0  0  0  0  0  0  0  0  0
    3.9640   -3.2780   30.8450 O   0  0  0  0  0  0  0  0  0  0  0  0
    3.2450   -1.2790   29.5080 O   0  0  0  0  0  0  0  0  0  0  0  0
    1.6110   -4.2090   27.4710 F   0  0  0  0  0  0  0  0  0  0  0  0
    1.9170   -2.3430   26.4420 F   0  0  0  0  0  0  0  0  0  0  0  0
  1  2  1  0
  3  2  1  0
  3  4  2  0
  3  5  2  0
  3  6  1  0
  6  7  1  0
  6  8  1  0
  9  7  1  6
  8 10  1  0
  9 10  1  0
  8 11  1  1
  9 12  1  0
 11 12  1  0
 12 13  1  1
 13 14  1  0
 14 15  1  0
 14 16  1  0
 15 17  1  0
 16 18  1  0
 17 19  1  0
 18 19  2  0
 18 20  1  0
 19 21  1  0
 20 22  2  0
 21 23  2  0
 22 23  1  0
 22 24  1  0
 23 25  1  0
 24 26  1  0
 24 27  2  0
 24 28  2  0
 25 29  1  0
 25 30  1  0
M  END
