MAK-UNK-72659d64-10-chloroacetamide
     RDKit          3D

 17 17  0  0  0  0  0  0  0  0999 V2000
    7.5040   -4.3950   20.7090 C   0  0  0  0  0  0  0  0  0  0  0  0
    6.0570   -4.0550   20.7790 C   0  0  0  0  0  0  0  0  0  0  0  0
    5.2430   -4.3750   19.8880 O   0  0  0  0  0  0  0  0  0  0  0  0
    5.8030   -3.3150   21.9570 N   0  0  0  0  0  0  0  0  0  0  0  0
    5.0320   -3.8380   23.0530 C   0  0  0  0  0  0  0  0  0  0  0  0
    4.1360   -2.9480   24.0120 C   0  0  0  0  0  0  0  0  0  0  0  0
    5.0030   -5.1590   23.3590 N   0  0  0  0  0  0  0  0  0  0  0  0
    3.3780   -3.5910   25.1080 C   0  0  0  0  0  0  0  0  0  0  0  0
    4.2470   -5.5720   24.3880 C   0  0  0  0  0  0  0  0  0  0  0  0
    2.5650   -2.7310   25.9430 N   0  0  0  0  0  0  0  0  0  0  0  0
    3.4680   -4.9460   25.2680 N   0  0  0  0  0  0  0  0  0  0  0  0
    4.1550   -6.8840   24.6710 C   0  0  0  0  0  0  0  0  0  0  0  0
    1.2420   -2.4100   25.6840 C   0  0  0  0  0  0  0  0  0  0  0  0
    3.9380   -7.9560   24.9620 N   0  0  0  0  0  0  0  0  0  0  0  0
    0.4760   -3.1000   25.0140 O   0  0  0  0  0  0  0  0  0  0  0  0
    0.7130   -1.1100   26.2700 C   0  0  0  0  0  0  0  0  0  0  0  0
   -1.0550   -1.2500   26.4240 Cl  0  0  0  0  0  0  0  0  0  0  0  0
  1  2  1  0
  2  3  2  0
  2  4  1  0
  4  5  1  0
  5  6  2  0
  5  7  1  0
  6  8  1  0
  7  9  2  0
  8 10  1  0
  8 11  2  0
  9 11  1  0
  9 12  1  0
 10 13  1  0
 12 14  3  0
 13 15  2  0
 13 16  1  0
 16 17  1  0
M  END
