MAK-UNK-af83ef51-22-acrylamide
     RDKit          3D

 30 32  0  0  0  0  0  0  0  0999 V2000
    6.6400   -4.3100   20.5590 C   0  0  0  0  0  0  0  0  0  0  0  0
    6.9490   -4.3110   22.0910 C   0  0  0  0  0  0  0  0  0  0  0  0
    5.7710   -4.1540   23.0890 C   0  0  0  0  0  0  0  0  0  0  0  0
    4.9420   -4.2850   22.0060 O   0  0  0  0  0  0  0  0  0  0  0  0
    6.8840   -4.0400   24.0600 N   0  0  0  0  0  0  0  0  0  0  0  0
    8.2250   -4.6300   24.0470 C   0  0  0  0  0  0  0  0  0  0  0  0
    6.7680   -3.1610   25.2180 C   0  0  0  0  0  0  0  0  0  0  0  0
    9.3070   -3.5440   24.1880 C   0  0  0  0  0  0  0  0  0  0  0  0
    7.6020   -2.0280   25.1510 C   0  0  0  0  0  0  0  0  0  0  0  0
    8.8890   -2.1410   24.4140 N   0  0  0  0  0  0  0  0  0  0  0  0
    9.7970   -1.2040   24.7910 C   0  0  0  0  0  0  0  0  0  0  0  0
   10.9850   -1.1120   23.8230 C   0  0  0  0  0  0  0  0  0  0  0  0
   11.4120   -2.1500   22.8840 C   0  0  0  0  0  0  0  0  0  0  0  0
   11.7560    0.0360   23.7660 C   0  0  0  0  0  0  0  0  0  0  0  0
   12.5630   -1.9060   21.9750 C   0  0  0  0  0  0  0  0  0  0  0  0
   12.8440    0.2420   22.8910 C   0  0  0  0  0  0  0  0  0  0  0  0
   13.1810   -2.5910   21.0140 C   0  0  0  0  0  0  0  0  0  0  0  0
   13.2500   -0.6480   22.0380 C   0  0  0  0  0  0  0  0  0  0  0  0
   13.4760    1.4370   22.9030 N   0  0  0  0  0  0  0  0  0  0  0  0
   12.4920    2.2590   23.0690 C   0  0  0  0  0  0  0  0  0  0  0  0
   11.5640    1.3400   23.6950 C   0  0  0  0  0  0  0  0  0  0  0  0
   12.1450    3.5650   22.8380 C   0  0  0  0  0  0  0  0  0  0  0  0
   10.3760    1.6090   24.0910 C   0  0  0  0  0  0  0  0  0  0  0  0
   10.8710    3.8860   23.2620 C   0  0  0  0  0  0  0  0  0  0  0  0
   12.9900    4.6040   22.1970 C   0  0  0  0  0  0  0  0  0  0  0  0
    9.9290    3.0420   23.8740 C   0  0  0  0  0  0  0  0  0  0  0  0
   13.6750    5.5850   21.6050 N   0  0  0  0  0  0  0  0  0  0  0  0
    8.7010    3.4770   24.2470 N   0  0  0  0  0  0  0  0  0  0  0  0
    8.1710    4.6310   23.7810 C   0  0  0  0  0  0  0  0  0  0  0  0
    9.0850    5.8040   24.2030 C   0  0  0  0  0  0  0  0  0  0  0  0
  1  2  1  0
  2  3  1  0
  3  4  2  0
  3  5  1  0
  5  6  1  0
  5  7  1  0
  6  8  1  0
  7  9  1  0
  8 10  1  0
  9 10  1  0
 10 11  1  0
 11 12  1  0
 12 13  2  0
 12 14  1  0
 13 15  1  0
 14 16  2  0
 15 17  1  0
 15 18  2  0
 16 18  1  0
 16 19  1  0
 19 20  1  0
 20 21  2  0
 20 22  1  0
 21 23  1  0
 22 24  2  0
 22 25  1  0
 23 26  2  0
 24 26  1  0
 25 27  3  0
 26 28  1  0
 28 29  1  0
 29 30  1  0
M  END
