MAK-UNK-df1a028e-4-bromoalkyne
     RDKit          3D

 19 21  0  0  0  0  0  0  0  0999 V2000
    8.0800   -3.7980   20.0300 C   0  0  0  0  0  0  0  0  0  0  0  0
    6.7840   -3.9470   19.9130 C   0  0  0  0  0  0  0  0  0  0  0  0
    8.7360   -3.5170   21.2450 N   0  0  0  0  0  0  0  0  0  0  0  0
    8.0560   -3.9810   22.3760 C   0  0  0  0  0  0  0  0  0  0  0  0
    9.0320   -2.0940   21.6710 C   0  0  2  0  0  0  0  0  0  0  0  0
    7.4310   -2.8490   22.7220 C   0  0  1  0  0  0  0  0  0  0  0  0
    8.5420   -1.9930   23.1200 C   0  0  0  0  0  0  0  0  0  0  0  0
    7.9800   -1.4560   21.0460 C   0  0  0  0  0  0  0  0  0  0  0  0
    7.0070   -2.2380   21.5100 N   0  0  0  0  0  0  0  0  0  0  0  0
    5.6800   -2.3810   21.0210 C   0  0  2  0  0  0  0  0  0  0  0  0
    5.5310   -2.0200   19.6460 C   0  0  0  0  0  0  0  0  0  0  0  0
    4.9850   -1.4530   22.0060 C   0  0  0  0  0  0  0  0  0  0  0  0
    5.1780    0.0620   21.9540 C   0  0  0  0  0  0  0  0  0  0  0  0
    4.9390    0.8340   20.6640 C   0  0  0  0  0  0  0  0  0  0  0  0
    5.7700    0.6250   19.5590 C   0  0  0  0  0  0  0  0  0  0  0  0
    3.8940    1.7590   20.5780 C   0  0  0  0  0  0  0  0  0  0  0  0
    5.5820    1.3180   18.3650 C   0  0  0  0  0  0  0  0  0  0  0  0
    3.6920    2.5090   19.2830 C   0  0  0  0  0  0  0  0  0  0  0  0
    4.5690    2.2370   18.2280 C   0  0  0  0  0  0  0  0  0  0  0  0
  1  2  2  3
  1  3  1  0
  3  4  1  0
  3  5  1  0
  6  4  1  6
  5  7  1  0
  6  7  1  0
  5  8  1  6
  6  9  1  0
  8  9  1  0
  9 10  1  0
 10 11  1  6
 10 12  1  0
 12 13  1  0
 13 14  1  0
 14 15  2  0
 14 16  1  0
 15 17  1  0
 16 18  2  0
 17 19  2  0
 18 19  1  0
M  END
