MAK-UNK-ec98eaf6-53-chloroacetamide
     RDKit          3D

 28 31  0  0  0  0  0  0  0  0999 V2000
    7.2820   -3.0020   18.7390 C   0  0  0  0  0  0  0  0  0  0  0  0
    6.3290   -3.2590   19.8680 C   0  0  0  0  0  0  0  0  0  0  0  0
    5.4950   -4.1740   19.7710 O   0  0  0  0  0  0  0  0  0  0  0  0
    6.4280   -2.4390   20.9820 N   0  0  0  0  0  0  0  0  0  0  0  0
    7.7000   -1.7610   21.2320 C   0  0  0  0  0  0  0  0  0  0  0  0
    5.8950   -2.5770   22.3610 C   0  0  2  0  0  0  0  0  0  0  0  0
    7.6050   -1.2810   22.6510 C   0  0  1  0  0  0  0  0  0  0  0  0
    6.0880   -1.1270   22.8520 C   0  0  0  0  0  0  0  0  0  0  0  0
    6.9300   -3.3210   23.1780 C   0  0  0  0  0  0  0  0  0  0  0  0
    7.9070   -2.4130   23.5950 N   0  0  0  0  0  0  0  0  0  0  0  0
    9.3000   -2.8330   23.7110 C   0  0  2  0  0  0  0  0  0  0  0  0
    9.4570   -3.7850   24.8640 C   0  0  0  0  0  0  0  0  0  0  0  0
   10.2230   -1.7770   23.5990 C   0  0  0  0  0  0  0  0  0  0  0  0
    8.2540   -4.2140   25.4200 C   0  0  0  0  0  0  0  0  0  0  0  0
   10.1620   -0.4350   24.3750 C   0  0  0  0  0  0  0  0  0  0  0  0
   11.2650   -1.9860   22.6930 C   0  0  0  0  0  0  0  0  0  0  0  0
    7.9600   -3.3430   26.4630 C   0  0  0  0  0  0  0  0  0  0  0  0
   11.1270    0.5530   24.1820 C   0  0  0  0  0  0  0  0  0  0  0  0
   12.2410   -1.0170   22.4770 C   0  0  0  0  0  0  0  0  0  0  0  0
    8.8040   -3.3130   27.5410 C   0  0  0  0  0  0  0  0  0  0  0  0
    6.8370   -2.4780   26.4560 C   0  0  0  0  0  0  0  0  0  0  0  0
   12.2340    0.3080   23.2150 C   0  0  0  0  0  0  0  0  0  0  0  0
   13.2580   -1.3200   21.4810 C   0  0  0  0  0  0  0  0  0  0  0  0
    8.5040   -2.3760   28.6290 C   0  0  0  0  0  0  0  0  0  0  0  0
    6.5680   -1.5820   27.5330 C   0  0  0  0  0  0  0  0  0  0  0  0
   13.8960   -1.5100   20.5860 N   0  0  0  0  0  0  0  0  0  0  0  0
    7.3640   -1.4390   28.7130 C   0  0  0  0  0  0  0  0  0  0  0  0
    7.0990   -0.5920   29.7130 C   0  0  0  0  0  0  0  0  0  0  0  0
  1  2  1  0
  2  3  2  0
  2  4  1  0
  4  5  1  0
  4  6  1  0
  7  5  1  6
  6  8  1  0
  7  8  1  0
  6  9  1  1
  7 10  1  0
  9 10  1  0
 10 11  1  0
 11 12  1  1
 11 13  1  0
 12 14  1  0
 13 15  2  0
 13 16  1  0
 14 17  1  0
 15 18  1  0
 16 19  2  0
 17 20  2  0
 17 21  1  0
 18 22  2  0
 19 22  1  0
 19 23  1  0
 20 24  1  0
 21 25  2  0
 23 26  3  0
 24 27  2  0
 25 27  1  0
 27 28  1  0
M  END
