MAK-UNK-9955b1f3-10-nitrile
     RDKit          3D

 13 13  0  0  0  0  0  0  0  0999 V2000
    7.5040   -3.1530   19.9660 C   0  0  0  0  0  0  0  0  0  0  0  0
    6.7620   -2.6910   19.0080 N   0  0  0  0  0  0  0  0  0  0  0  0
    8.3270   -2.0070   20.7220 C   0  0  0  0  0  0  0  0  0  0  0  0
    8.9510   -1.8620   22.2010 C   0  0  0  0  0  0  0  0  0  0  0  0
    8.9270   -1.6320   21.8510 N   0  0  0  0  0  0  0  0  0  0  0  0
    9.1170   -2.5510   23.4710 C   0  0  0  0  0  0  0  0  0  0  0  0
    8.6890   -2.9020   22.7240 C   0  0  0  0  0  0  0  0  0  0  0  0
    8.8060   -3.7130   24.0130 C   0  0  0  0  0  0  0  0  0  0  0  0
    8.2310   -4.9810   23.9630 C   0  0  2  0  0  0  0  0  0  0  0  0
    7.2210   -5.3400   23.1130 C   0  0  0  0  0  0  0  0  0  0  0  0
    7.8340   -5.3120   25.4000 C   0  0  0  0  0  0  0  0  0  0  0  0
    8.6220   -6.1030   26.1880 N   0  0  0  0  0  0  0  0  0  0  0  0
    6.8460   -4.8760   25.8910 O   0  0  0  0  0  0  0  0  0  0  0  0
  1  2  2  3
  1  3  1  0
  3  4  2  0
  3  5  1  0
  4  6  1  0
  5  7  2  0
  6  8  2  0
  7  8  1  0
  8  9  1  0
  9 10  1  6
  9 11  1  0
 11 12  1  0
 11 13  2  0
M  END
