MAK-UNK-5d2caa6f-18-bromoalkyne
     RDKit          3D

 27 31  0  0  0  0  0  0  0  0999 V2000
    7.6240   -3.2890   19.7440 C   0  0  0  0  0  0  0  0  0  0  0  0
    6.1370   -3.3010   19.2910 C   0  0  0  0  0  0  0  0  0  0  0  0
    8.1010   -3.0180   21.0710 N   0  0  0  0  0  0  0  0  0  0  0  0
    8.1910   -3.9130   22.1160 C   0  0  0  0  0  0  0  0  0  0  0  0
    8.8400   -1.8300   21.4530 C   0  0  2  0  0  0  0  0  0  0  0  0
    9.2440   -3.2000   22.8800 C   0  0  1  0  0  0  0  0  0  0  0  0
   10.0440   -2.4080   21.8730 C   0  0  0  0  0  0  0  0  0  0  0  0
    8.1680   -1.2840   22.5110 C   0  0  0  0  0  0  0  0  0  0  0  0
    8.4940   -2.0740   23.6570 C   0  0  1  0  0  0  0  0  0  0  0  0
    7.2170   -2.6690   24.2370 C   0  0  0  0  0  0  0  0  0  0  0  0
    7.2030   -3.9330   24.7260 O   0  0  0  0  0  0  0  0  0  0  0  0
    6.0860   -1.8840   24.2290 N   0  0  0  0  0  0  0  0  0  0  0  0
    5.6120   -1.0560   23.1780 C   0  0  0  0  0  0  0  0  0  0  0  0
    5.4020   -1.4960   21.8530 C   0  0  0  0  0  0  0  0  0  0  0  0
    5.3420    0.2990   23.5220 C   0  0  0  0  0  0  0  0  0  0  0  0
    4.8910   -0.5270   20.8180 C   0  0  0  0  0  0  0  0  0  0  0  0
    4.8600    1.2500   22.5850 C   0  0  0  0  0  0  0  0  0  0  0  0
    4.6190    0.7930   21.1310 C   0  0  0  0  0  0  0  0  0  0  0  0
    4.5890    2.6990   23.0210 C   0  0  0  0  0  0  0  0  0  0  0  0
    3.3160    3.1340   23.4450 N   0  0  0  0  0  0  0  0  0  0  0  0
    5.6260    3.7970   23.0630 C   0  0  2  0  0  0  0  0  0  0  0  0
    3.4360    4.5160   23.7610 N   0  0  0  0  0  0  0  0  0  0  0  0
    4.8030    4.8430   23.5100 C   0  0  0  0  0  0  0  0  0  0  0  0
    6.2820    4.1650   21.8770 C   0  0  0  0  0  0  0  0  0  0  0  0
    5.3280    6.1250   23.6650 C   0  0  0  0  0  0  0  0  0  0  0  0
    6.4980    5.5380   21.6740 C   0  0  0  0  0  0  0  0  0  0  0  0
    6.3750    6.4140   22.7840 C   0  0  0  0  0  0  0  0  0  0  0  0
  1  2  2  3
  1  3  1  0
  3  4  1  0
  3  5  1  0
  6  4  1  6
  5  7  1  0
  6  7  1  0
  5  8  1  1
  6  9  1  0
  8  9  1  0
  9 10  1  6
 10 11  2  0
 10 12  1  0
 12 13  1  0
 13 14  2  0
 13 15  1  0
 14 16  1  0
 15 17  2  0
 16 18  2  0
 17 18  1  0
 17 19  1  0
 19 20  2  0
 19 21  1  0
 20 22  1  0
 21 23  1  0
 22 23  2  0
 21 24  1  6
 23 25  1  0
 24 26  1  0
 25 27  1  0
 26 27  1  0
M  END
