MAK-UNK-90d0606b-9-bromoalkyne
     RDKit          3D

 19 21  0  0  0  0  0  0  0  0999 V2000
    7.6240   -3.2010   19.9110 C   0  0  0  0  0  0  0  0  0  0  0  0
    6.8180   -2.5650   18.9840 C   0  0  0  0  0  0  0  0  0  0  0  0
    8.4950   -2.4720   21.0750 N   0  0  0  0  0  0  0  0  0  0  0  0
    9.5420   -3.0430   21.8560 C   0  0  0  0  0  0  0  0  0  0  0  0
    9.0770   -1.0060   21.4110 C   0  0  2  0  0  0  0  0  0  0  0  0
   10.2950   -2.1930   22.6560 C   0  0  1  0  0  0  0  0  0  0  0  0
   10.6120   -1.1350   21.8280 C   0  0  0  0  0  0  0  0  0  0  0  0
    8.8060   -0.4350   22.7850 C   0  0  0  0  0  0  0  0  0  0  0  0
    9.4200   -1.4090   23.6970 C   0  0  1  0  0  0  0  0  0  0  0  0
    8.2070   -2.0840   24.2770 C   0  0  0  0  0  0  0  0  0  0  0  0
    7.7730   -1.8280   25.3910 O   0  0  0  0  0  0  0  0  0  0  0  0
    7.6620   -2.8920   23.3420 N   0  0  0  0  0  0  0  0  0  0  0  0
    7.4010   -4.2660   23.4320 C   0  0  0  0  0  0  0  0  0  0  0  0
    8.3600   -5.1290   24.1260 N   0  0  0  0  0  0  0  0  0  0  0  0
    6.2340   -4.7600   22.8510 C   0  0  0  0  0  0  0  0  0  0  0  0
    8.0240   -6.5600   24.1670 C   0  0  0  0  0  0  0  0  0  0  0  0
    6.0010   -6.1530   22.9430 C   0  0  0  0  0  0  0  0  0  0  0  0
    5.2970   -3.9810   22.1850 C   0  0  0  0  0  0  0  0  0  0  0  0
    6.8660   -7.0570   23.5810 C   0  0  0  0  0  0  0  0  0  0  0  0
  1  2  2  3
  1  3  1  0
  3  4  1  0
  3  5  1  0
  6  4  1  6
  5  7  1  0
  6  7  1  0
  5  8  1  1
  6  9  1  0
  8  9  1  0
  9 10  1  6
 10 11  2  0
 10 12  1  0
 12 13  1  0
 13 14  2  0
 13 15  1  0
 14 16  1  0
 15 17  2  0
 15 18  1  0
 16 19  2  0
 17 19  1  0
M  END
