MAK-UNK-ec98eaf6-16-nitrile
     RDKit          3D

 21 23  0  0  0  0  0  0  0  0999 V2000
    6.8580   -3.5010   19.8800 C   0  0  0  0  0  0  0  0  0  0  0  0
    5.8620   -3.3140   19.1060 N   0  0  0  0  0  0  0  0  0  0  0  0
    7.0640   -2.7150   20.9890 N   0  0  0  0  0  0  0  0  0  0  0  0
    8.0940   -1.6480   21.0880 C   0  0  0  0  0  0  0  0  0  0  0  0
    6.4990   -2.8790   22.3670 C   0  0  2  0  0  0  0  0  0  0  0  0
    7.8020   -1.2010   22.5310 C   0  0  1  0  0  0  0  0  0  0  0  0
    6.2660   -1.4180   22.7610 C   0  0  0  0  0  0  0  0  0  0  0  0
    7.5230   -3.4390   23.1490 C   0  0  0  0  0  0  0  0  0  0  0  0
    8.3090   -2.2060   23.5270 N   0  0  0  0  0  0  0  0  0  0  0  0
    9.7690   -2.4670   23.5150 C   0  0  0  0  0  0  0  0  0  0  0  0
   10.6120   -1.3490   23.4040 C   0  0  0  0  0  0  0  0  0  0  0  0
   10.2350   -0.0710   23.7690 C   0  0  0  0  0  0  0  0  0  0  0  0
   11.9270   -1.5010   22.8780 C   0  0  0  0  0  0  0  0  0  0  0  0
   11.0760    1.0620   23.6350 C   0  0  0  0  0  0  0  0  0  0  0  0
   12.7020   -0.3460   22.7840 C   0  0  0  0  0  0  0  0  0  0  0  0
   12.3670   -2.7110   22.4900 C   0  0  0  0  0  0  0  0  0  0  0  0
   10.4990    2.4010   24.0320 C   0  0  0  0  0  0  0  0  0  0  0  0
   12.3210    0.9570   23.1520 N   0  0  0  0  0  0  0  0  0  0  0  0
   12.9940   -2.6470   21.1850 N   0  0  0  0  0  0  0  0  0  0  0  0
   10.1660    2.7990   22.6120 C   0  0  0  0  0  0  0  0  0  0  0  0
    9.2870    3.9180   22.6500 O   0  0  0  0  0  0  0  0  0  0  0  0
  1  2  2  3
  1  3  1  0
  3  4  1  0
  3  5  1  0
  6  4  1  6
  5  7  1  0
  6  7  1  0
  5  8  1  1
  6  9  1  0
  8  9  1  0
  9 10  1  0
 10 11  1  0
 11 12  2  0
 11 13  1  0
 12 14  1  0
 13 15  2  0
 13 16  1  0
 14 17  1  0
 14 18  2  0
 15 18  1  0
 16 19  3  0
 17 20  1  0
 20 21  1  0
M  END
