MAK-UNK-ec98eaf6-26-nitrile
     RDKit          3D

 26 30  0  0  0  0  0  0  0  0999 V2000
    7.9650   -3.3660   19.9430 C   0  0  0  0  0  0  0  0  0  0  0  0
    6.8920   -2.8350   19.3350 N   0  0  0  0  0  0  0  0  0  0  0  0
    8.8620   -2.8900   21.2540 N   0  0  0  0  0  0  0  0  0  0  0  0
   10.4110   -2.4360   21.4440 C   0  0  1  0  0  0  0  0  0  0  0  0
    8.4870   -2.3340   22.6800 C   0  0  2  0  0  0  0  0  0  0  0  0
    9.9760   -0.9610   21.5320 C   0  0  0  0  0  0  0  0  0  0  0  0
    9.2470   -0.8990   22.8390 C   0  0  1  0  0  0  0  0  0  0  0  0
   11.2980   -1.9440   22.6100 C   0  0  0  0  0  0  0  0  0  0  0  0
    9.1540   -3.2430   23.6860 C   0  0  0  0  0  0  0  0  0  0  0  0
    8.4140    0.2980   22.9170 C   0  0  0  0  0  0  0  0  0  0  0  0
   10.6480   -1.0190   23.4200 C   0  0  0  0  0  0  0  0  0  0  0  0
   12.6110   -2.2440   22.9230 C   0  0  0  0  0  0  0  0  0  0  0  0
    8.2990   -3.5440   24.8830 C   0  0  0  0  0  0  0  0  0  0  0  0
    7.5370    0.3160   21.8810 C   0  0  0  0  0  0  0  0  0  0  0  0
    8.4200    1.3340   23.8590 C   0  0  0  0  0  0  0  0  0  0  0  0
   11.3160   -0.3580   24.5630 C   0  0  0  0  0  0  0  0  0  0  0  0
   13.2560   -1.6940   23.9990 C   0  0  0  0  0  0  0  0  0  0  0  0
    6.9720   -2.8790   25.0690 C   0  0  0  0  0  0  0  0  0  0  0  0
    8.7040   -4.4470   25.8680 C   0  0  0  0  0  0  0  0  0  0  0  0
    6.6370    1.3320   21.7160 C   0  0  0  0  0  0  0  0  0  0  0  0
    7.5130    2.3910   23.7230 C   0  0  0  0  0  0  0  0  0  0  0  0
   12.7240   -0.7660   24.8670 C   0  0  0  0  0  0  0  0  0  0  0  0
    6.2070   -3.2500   26.3010 C   0  0  0  0  0  0  0  0  0  0  0  0
    7.9840   -4.7650   26.9760 N   0  0  0  0  0  0  0  0  0  0  0  0
    6.6130    2.3860   22.6370 C   0  0  0  0  0  0  0  0  0  0  0  0
    6.7760   -4.1790   27.1790 C   0  0  0  0  0  0  0  0  0  0  0  0
  1  2  2  3
  1  3  1  0
  4  3  1  1
  3  5  1  0
  4  6  1  0
  5  7  1  0
  6  7  1  0
  4  8  1  0
  5  9  1  1
  7 10  1  1
  7 11  1  0
  8 11  2  0
  8 12  1  0
  9 13  1  0
 10 14  2  0
 10 15  1  0
 11 16  1  0
 12 17  2  0
 13 18  2  0
 13 19  1  0
 14 20  1  0
 15 21  2  0
 16 22  2  0
 17 22  1  0
 18 23  1  0
 19 24  2  0
 20 25  2  0
 21 25  1  0
 23 26  2  0
 24 26  1  0
M  END
