MAK-UNK-f2409524-19
     RDKit          3D

 24 25  0  0  0  0  0  0  0  0999 V2000
    9.9610   -0.6020   22.3000 C   0  0  0  0  0  0  0  0  0  0  0  0
    8.8760    0.0970   21.5130 C   0  0  0  0  0  0  0  0  0  0  0  0
    9.0050    1.2960   21.2280 O   0  0  0  0  0  0  0  0  0  0  0  0
    7.7310   -0.7650   21.1510 N   0  0  0  0  0  0  0  0  0  0  0  0
    6.7280   -0.0760   20.3260 C   0  0  0  0  0  0  0  0  0  0  0  0
    6.9610   -0.1170   18.8460 C   0  0  0  0  0  0  0  0  0  0  0  0
    5.6060    0.5950   20.7980 C   0  0  0  0  0  0  0  0  0  0  0  0
    6.0320    0.5450   17.9030 N   0  0  0  0  0  0  0  0  0  0  0  0
    4.7370    1.2180   19.9020 C   0  0  0  0  0  0  0  0  0  0  0  0
    5.3160    0.6610   22.1400 N   0  0  0  0  0  0  0  0  0  0  0  0
    4.9810    1.1690   18.5360 C   0  0  0  0  0  0  0  0  0  0  0  0
    5.0230    1.9900   22.7300 C   0  0  2  0  0  0  0  0  0  0  0  0
    5.3240    2.0330   24.1350 C   0  0  0  0  0  0  0  0  0  0  0  0
    3.7500    2.3520   22.3980 N   0  0  0  0  0  0  0  0  0  0  0  0
    6.1000    2.8290   24.6760 O   0  0  0  0  0  0  0  0  0  0  0  0
    2.7360    2.3020   23.3270 C   0  0  0  0  0  0  0  0  0  0  0  0
    2.7080    1.3850   24.3400 O   0  0  0  0  0  0  0  0  0  0  0  0
    1.8190    3.2320   23.1110 N   0  0  0  0  0  0  0  0  0  0  0  0
    0.6920    3.2770   23.8700 C   0  0  0  0  0  0  0  0  0  0  0  0
    0.5890    4.5810   24.3750 C   0  0  0  0  0  0  0  0  0  0  0  0
   -0.3810    2.8650   23.0910 C   0  0  0  0  0  0  0  0  0  0  0  0
   -0.7270    4.8630   25.0610 C   0  0  0  0  0  0  0  0  0  0  0  0
   -1.6220    3.2100   23.6520 C   0  0  0  0  0  0  0  0  0  0  0  0
   -1.7740    4.4700   24.2370 C   0  0  0  0  0  0  0  0  0  0  0  0
  1  2  1  0
  2  3  2  0
  2  4  1  0
  4  5  1  0
  5  6  2  0
  5  7  1  0
  6  8  1  0
  7  9  2  0
  7 10  1  0
  8 11  2  0
  9 11  1  0
 10 12  1  0
 12 13  1  1
 12 14  1  0
 13 15  2  0
 14 16  1  0
 16 17  2  0
 16 18  1  0
 18 19  1  0
 19 20  1  0
 19 21  1  0
 20 22  1  0
 21 23  1  0
 22 24  1  0
 23 24  1  0
M  END
