MAK-UNK-e4a48a85-7-acrylamide
     RDKit          3D

 30 32  0  0  0  0  0  0  0  0999 V2000
    7.7290   -2.8130   18.4550 C   0  0  0  0  0  0  0  0  0  0  0  0
    6.2630   -2.6820   18.7970 C   0  0  0  0  0  0  0  0  0  0  0  0
    5.8910   -3.2970   20.0970 C   0  0  0  0  0  0  0  0  0  0  0  0
    5.2450   -4.3510   20.0790 O   0  0  0  0  0  0  0  0  0  0  0  0
    6.3240   -2.6150   21.2260 N   0  0  0  0  0  0  0  0  0  0  0  0
    7.2230   -1.4390   21.1710 C   0  0  0  0  0  0  0  0  0  0  0  0
    6.2140   -3.2380   22.5470 C   0  0  0  0  0  0  0  0  0  0  0  0
    8.5580   -1.6420   21.8750 C   0  0  0  0  0  0  0  0  0  0  0  0
    7.4670   -3.5090   23.1230 C   0  0  0  0  0  0  0  0  0  0  0  0
    8.3790   -2.3310   23.1770 N   0  0  0  0  0  0  0  0  0  0  0  0
    9.6020   -2.6380   23.5220 C   0  0  0  0  0  0  0  0  0  0  0  0
   10.5450   -1.6130   23.4530 C   0  0  0  0  0  0  0  0  0  0  0  0
   11.8710   -1.8810   23.0930 C   0  0  0  0  0  0  0  0  0  0  0  0
   10.1570   -0.2840   23.7480 C   0  0  0  0  0  0  0  0  0  0  0  0
   12.8100   -0.8500   23.0200 C   0  0  0  0  0  0  0  0  0  0  0  0
   11.0880    0.7660   23.6730 C   0  0  0  0  0  0  0  0  0  0  0  0
   12.3950    0.4470   23.3130 C   0  0  0  0  0  0  0  0  0  0  0  0
   10.6810    2.1760   23.9640 C   0  0  0  0  0  0  0  0  0  0  0  0
    9.5130    2.8640   22.7460 S   0  0  0  0  0  0  0  0  0  0  0  0
    8.3540    3.7180   23.8600 C   0  0  0  0  0  0  0  0  0  0  0  0
    7.1550    3.0390   24.1480 C   0  0  0  0  0  0  0  0  0  0  0  0
    6.1300    3.2510   23.4860 O   0  0  0  0  0  0  0  0  0  0  0  0
    7.1100    2.0360   25.2810 C   0  0  0  0  0  0  0  0  0  0  0  0
    6.8440    1.5110   26.2880 N   0  0  0  0  0  0  0  0  0  0  0  0
    7.4370    0.2390   26.6720 C   0  0  0  0  0  0  0  0  0  0  0  0
    5.4660    1.5760   26.6000 C   0  0  0  0  0  0  0  0  0  0  0  0
    6.8200   -0.5120   27.8110 C   0  0  0  0  0  0  0  0  0  0  0  0
    5.1830    1.2450   27.9400 C   0  0  0  0  0  0  0  0  0  0  0  0
    5.4790   -0.0030   28.3410 C   0  0  0  0  0  0  0  0  0  0  0  0
    4.4180   -0.8510   27.8860 O   0  0  0  0  0  0  0  0  0  0  0  0
  1  2  1  0
  2  3  1  0
  3  4  2  0
  3  5  1  0
  5  6  1  0
  5  7  1  0
  6  8  1  0
  7  9  1  0
  8 10  1  0
  9 10  1  0
 10 11  1  0
 11 12  1  0
 12 13  2  0
 12 14  1  0
 13 15  1  0
 14 16  2  0
 15 17  2  0
 16 17  1  0
 16 18  1  0
 18 19  1  0
 19 20  1  0
 20 21  1  0
 21 22  2  0
 21 23  1  0
 23 24  1  0
 24 25  1  0
 24 26  1  0
 25 27  1  0
 26 28  1  0
 27 29  1  0
 28 29  1  0
 29 30  1  0
M  END
