MAK-UNK-10dfa458-38-nitrile
     RDKit          3D

 26 28  0  0  0  0  0  0  0  0999 V2000
    6.4950   -4.2980   20.2110 C   0  0  0  0  0  0  0  0  0  0  0  0
    5.4300   -3.8750   19.6960 N   0  0  0  0  0  0  0  0  0  0  0  0
    6.5580   -4.9070   21.4810 N   0  0  0  0  0  0  0  0  0  0  0  0
    7.2700   -4.2810   22.6140 C   0  0  0  0  0  0  0  0  0  0  0  0
    5.6310   -5.9780   21.9250 C   0  0  0  0  0  0  0  0  0  0  0  0
    6.3780   -3.9950   23.8330 C   0  0  0  0  0  0  0  0  0  0  0  0
    4.7400   -5.5680   22.9330 C   0  0  0  0  0  0  0  0  0  0  0  0
    5.4320   -5.0770   24.1540 N   0  0  0  0  0  0  0  0  0  0  0  0
    4.6400   -4.9440   25.4390 C   0  0  0  0  0  0  0  0  0  0  0  0
    3.4930   -3.8840   25.5450 C   0  0  0  0  0  0  0  0  0  0  0  0
    2.1650   -4.4450   25.2910 C   0  0  0  0  0  0  0  0  0  0  0  0
    3.5820   -2.4900   25.8630 C   0  0  0  0  0  0  0  0  0  0  0  0
    0.9500   -3.5110   25.3890 C   0  0  0  0  0  0  0  0  0  0  0  0
    2.4260   -1.6550   25.9480 C   0  0  0  0  0  0  0  0  0  0  0  0
    4.8090   -1.8940   26.1040 C   0  0  0  0  0  0  0  0  0  0  0  0
    1.1560   -2.1880   25.7130 C   0  0  0  0  0  0  0  0  0  0  0  0
    2.5300   -0.2960   26.2700 C   0  0  0  0  0  0  0  0  0  0  0  0
    5.4350   -2.2570   27.0980 O   0  0  0  0  0  0  0  0  0  0  0  0
    5.2150   -0.9240   25.1900 N   0  0  0  0  0  0  0  0  0  0  0  0
    2.5930    0.8290   26.5510 N   0  0  0  0  0  0  0  0  0  0  0  0
    6.3250   -0.0570   25.5550 C   0  0  0  0  0  0  0  0  0  0  0  0
    4.5300   -0.6480   23.9180 C   0  0  0  0  0  0  0  0  0  0  0  0
    6.0220    1.3300   25.3500 C   0  0  0  0  0  0  0  0  0  0  0  0
    5.1790    0.5190   23.1760 C   0  0  0  0  0  0  0  0  0  0  0  0
    5.7130    1.6810   24.0050 C   0  0  0  0  0  0  0  0  0  0  0  0
    6.8920    2.1640   23.3640 O   0  0  0  0  0  0  0  0  0  0  0  0
  1  2  2  3
  1  3  1  0
  3  4  1  0
  3  5  1  0
  4  6  1  0
  5  7  1  0
  6  8  1  0
  7  8  1  0
  8  9  1  0
  9 10  1  0
 10 11  2  0
 10 12  1  0
 11 13  1  0
 12 14  2  0
 12 15  1  0
 13 16  2  0
 14 16  1  0
 14 17  1  0
 15 18  2  0
 15 19  1  0
 17 20  3  0
 19 21  1  0
 19 22  1  0
 21 23  1  0
 22 24  1  0
 23 25  1  0
 24 25  1  0
 25 26  1  0
M  END
