MAK-UNK-148caf23-17-nitrile
     RDKit          3D

 34 37  0  0  0  0  0  0  0  0999 V2000
    8.0610   -3.2470   19.7880 C   0  0  0  0  0  0  0  0  0  0  0  0
    7.7170   -2.6690   18.6670 N   0  0  0  0  0  0  0  0  0  0  0  0
    8.7290   -2.4290   21.1480 C   0  0  0  0  0  0  0  0  0  0  0  0
    8.4590   -2.7580   22.5500 C   0  0  0  0  0  0  0  0  0  0  0  0
    9.6610   -1.2530   21.4630 C   0  0  0  0  0  0  0  0  0  0  0  0
    8.7490   -2.3380   23.9070 C   0  0  0  0  0  0  0  0  0  0  0  0
   10.0750   -0.6570   22.7420 N   0  0  0  0  0  0  0  0  0  0  0  0
    9.6390   -1.1240   23.9680 C   0  0  0  0  0  0  0  0  0  0  0  0
    9.8610   -0.6350   25.3650 N   0  0  0  0  0  0  0  0  0  0  0  0
    8.7340   -1.0620   26.1140 C   0  0  0  0  0  0  0  0  0  0  0  0
    8.4260   -0.3290   27.2520 C   0  0  0  0  0  0  0  0  0  0  0  0
    8.5290   -1.1720   28.3520 C   0  0  0  0  0  0  0  0  0  0  0  0
    8.0610    0.9900   27.2670 N   0  0  0  0  0  0  0  0  0  0  0  0
    8.2140   -0.5730   29.5880 C   0  0  0  0  0  0  0  0  0  0  0  0
    7.7470    1.5940   28.4810 C   0  0  0  0  0  0  0  0  0  0  0  0
    7.7920    0.8980   29.6670 C   0  0  0  0  0  0  0  0  0  0  0  0
    7.3810    1.6540   31.1800 S   0  0  0  0  0  0  0  0  0  0  0  0
    6.3130    0.9090   31.8150 O   0  0  0  0  0  0  0  0  0  0  0  0
    8.6800    1.8240   31.7890 O   0  0  0  0  0  0  0  0  0  0  0  0
    6.7600    3.2130   30.7730 N   0  0  0  0  0  0  0  0  0  0  0  0
    5.4810    3.6020   30.6010 C   0  0  0  0  0  0  0  0  0  0  0  0
    7.4620    4.3390   30.5470 C   0  0  0  0  0  0  0  0  0  0  0  0
    5.3060    5.0650   30.2400 C   0  0  0  0  0  0  0  0  0  0  0  0
    6.6770    5.4600   30.2310 C   0  0  0  0  0  0  0  0  0  0  0  0
    8.9080    4.8370   30.5160 C   0  0  0  0  0  0  0  0  0  0  0  0
    4.1110    5.7420   30.0020 C   0  0  0  0  0  0  0  0  0  0  0  0
    9.9850    3.7960   30.4720 C   0  0  0  0  0  0  0  0  0  0  0  0
    9.2920    6.2010   30.5270 C   0  0  0  0  0  0  0  0  0  0  0  0
    2.9690    5.8650   29.8300 N   0  0  0  0  0  0  0  0  0  0  0  0
   11.3900    4.2640   30.4380 C   0  0  0  0  0  0  0  0  0  0  0  0
   10.6570    6.5890   30.4950 C   0  0  0  0  0  0  0  0  0  0  0  0
    8.3730    7.1760   30.5700 F   0  0  0  0  0  0  0  0  0  0  0  0
    2.4090    7.1070   29.6380 C   0  0  0  0  0  0  0  0  0  0  0  0
   11.6770    5.6300   30.4500 C   0  0  0  0  0  0  0  0  0  0  0  0
  1  2  2  3
  1  3  1  0
  3  4  2  0
  3  5  1  0
  4  6  1  0
  5  7  2  0
  6  8  2  0
  7  8  1  0
  8  9  1  0
  9 10  1  0
 10 11  1  0
 11 12  2  0
 11 13  1  0
 12 14  1  0
 13 15  2  0
 14 16  2  0
 15 16  1  0
 17 16  1  0
 17 18  2  0
 17 19  2  0
 17 20  1  0
 20 21  1  0
 20 22  1  0
 21 23  2  0
 22 24  2  0
 23 24  1  0
 22 25  1  0
 23 26  1  0
 25 27  2  0
 25 28  1  0
 26 29  1  0
 27 30  1  0
 28 31  2  0
 28 32  1  0
 29 33  1  0
 30 34  2  0
 31 34  1  0
M  END
