MAK-UNK-8fdbca50-19-acrylamide
     RDKit          3D

 40 43  0  0  0  0  0  0  0  0999 V2000
    6.5570   -3.6860   20.9280 C   0  0  0  0  0  0  0  0  0  0  0  0
    6.3910   -3.8740   22.4020 C   0  0  0  0  0  0  0  0  0  0  0  0
    5.2740   -2.9510   22.7960 C   0  0  0  0  0  0  0  0  0  0  0  0
    4.5770   -3.8540   22.2620 O   0  0  0  0  0  0  0  0  0  0  0  0
    6.3990   -2.2250   23.2570 N   0  0  0  0  0  0  0  0  0  0  0  0
    7.3110   -2.5550   24.3740 C   0  0  0  0  0  0  0  0  0  0  0  0
    6.7250   -0.9240   22.7010 C   0  0  0  0  0  0  0  0  0  0  0  0
    8.6300   -1.9560   24.3830 C   0  0  0  0  0  0  0  0  0  0  0  0
    8.0530   -0.8820   22.2900 C   0  0  0  0  0  0  0  0  0  0  0  0
    9.0430   -0.9580   23.4730 C   0  0  0  0  0  0  0  0  0  0  0  0
   10.4810   -0.8960   23.1170 C   0  0  0  0  0  0  0  0  0  0  0  0
   11.0270    0.0650   23.6660 O   0  0  0  0  0  0  0  0  0  0  0  0
   11.4010   -1.8380   22.2000 N   0  0  0  0  0  0  0  0  0  0  0  0
   12.8150   -1.5870   22.6790 C   0  0  0  0  0  0  0  0  0  0  0  0
   11.0030   -2.7540   21.1250 C   0  0  1  0  0  0  0  0  0  0  0  0
   12.9550   -1.7320   24.1090 C   0  0  0  0  0  0  0  0  0  0  0  0
   13.2080   -0.1630   22.3710 C   0  0  0  0  0  0  0  0  0  0  0  0
    9.6070   -1.7290   21.6780 S   0  0  0  0  0  0  0  0  0  0  0  0
   12.4930   -2.4570   20.7860 C   0  0  0  0  0  0  0  0  0  0  0  0
   11.2250   -4.5030   20.7190 C   0  0  0  0  0  0  0  0  0  0  0  0
    8.8270   -2.5010   22.6430 O   0  0  0  0  0  0  0  0  0  0  0  0
   10.3870   -0.6030   22.1380 O   0  0  0  0  0  0  0  0  0  0  0  0
    8.4370   -0.6370   20.8330 C   0  0  0  0  0  0  0  0  0  0  0  0
   13.1940   -3.6580   20.4610 C   0  0  0  0  0  0  0  0  0  0  0  0
   12.4170   -4.7400   20.4680 C   0  0  0  0  0  0  0  0  0  0  0  0
   10.9080   -5.9630   20.4280 C   0  0  0  0  0  0  0  0  0  0  0  0
    7.4680   -0.9460   19.7240 C   0  0  0  0  0  0  0  0  0  0  0  0
    8.4120    0.7190   21.2730 C   0  0  0  0  0  0  0  0  0  0  0  0
   14.4170   -3.9730   20.1070 C   0  0  0  0  0  0  0  0  0  0  0  0
   11.2430   -7.1950   21.1180 C   0  0  0  0  0  0  0  0  0  0  0  0
   10.3230   -6.3710   19.2930 C   0  0  0  0  0  0  0  0  0  0  0  0
    6.6810    0.0830   19.2630 C   0  0  0  0  0  0  0  0  0  0  0  0
    7.5910    1.7140   20.7660 N   0  0  0  0  0  0  0  0  0  0  0  0
   14.5790   -5.0920   19.3980 N   0  0  0  0  0  0  0  0  0  0  0  0
   10.9360   -8.7150   20.7620 C   0  0  0  0  0  0  0  0  0  0  0  0
    9.9030   -7.9700   18.8230 C   0  0  0  0  0  0  0  0  0  0  0  0
   10.0990   -5.4580   18.5060 F   0  0  0  0  0  0  0  0  0  0  0  0
    6.7270    1.3620   19.7520 C   0  0  0  0  0  0  0  0  0  0  0  0
   15.9530   -5.1920   19.0540 C   0  0  0  0  0  0  0  0  0  0  0  0
   10.2130   -9.1280   19.5580 C   0  0  0  0  0  0  0  0  0  0  0  0
  1  2  1  0
  2  3  1  0
  3  4  2  0
  3  5  1  0
  5  6  1  0
  5  7  1  0
  6  8  1  0
  7  9  1  0
  8 10  1  0
  9 10  1  0
 10 11  1  0
 11 12  2  0
 11 13  1  0
 13 14  1  0
 15 13  1  1
 14 16  1  0
 14 17  1  0
 15 18  1  0
 15 19  1  0
 15 20  1  0
 18 21  2  0
 18 22  2  0
 18 23  1  0
 19 24  2  0
 20 25  2  0
 24 25  1  0
 20 26  1  0
 23 27  2  0
 23 28  1  0
 24 29  1  0
 26 30  2  0
 26 31  1  0
 27 32  1  0
 28 33  2  0
 29 34  1  0
 30 35  1  0
 31 36  2  0
 31 37  1  0
 32 38  2  0
 33 38  1  0
 34 39  1  0
 35 40  2  0
 36 40  1  0
M  END
