MAK-UNK-ec98eaf6-23-nitrile
     RDKit          3D

 21 23  0  0  0  0  0  0  0  0999 V2000
    6.9280   -3.6480   19.8150 C   0  0  0  0  0  0  0  0  0  0  0  0
    6.4180   -3.1010   18.7730 N   0  0  0  0  0  0  0  0  0  0  0  0
    6.8890   -3.0310   21.0240 N   0  0  0  0  0  0  0  0  0  0  0  0
    7.1140   -1.5620   21.0720 C   0  0  0  0  0  0  0  0  0  0  0  0
    7.6080   -3.5140   22.2310 C   0  0  1  0  0  0  0  0  0  0  0  0
    8.4200   -1.5940   21.9110 C   0  0  2  0  0  0  0  0  0  0  0  0
    9.0100   -3.0260   21.8360 C   0  0  0  0  0  0  0  0  0  0  0  0
    7.1030   -2.8210   23.3270 C   0  0  0  0  0  0  0  0  0  0  0  0
    8.0810   -1.6830   23.3380 N   0  0  0  0  0  0  0  0  0  0  0  0
    9.2130   -1.9430   24.2170 C   0  0  0  0  0  0  0  0  0  0  0  0
   10.3650   -1.2190   23.9080 C   0  0  0  0  0  0  0  0  0  0  0  0
   11.4180   -1.7440   23.1650 C   0  0  0  0  0  0  0  0  0  0  0  0
   10.5240    0.0950   24.3430 C   0  0  0  0  0  0  0  0  0  0  0  0
   12.5880   -1.0050   22.8540 C   0  0  0  0  0  0  0  0  0  0  0  0
   11.6510    0.9160   24.0820 N   0  0  0  0  0  0  0  0  0  0  0  0
    9.4920    0.6650   25.1030 N   0  0  0  0  0  0  0  0  0  0  0  0
   13.6470   -1.4200   22.1490 O   0  0  0  0  0  0  0  0  0  0  0  0
   12.6520    0.3870   23.3580 C   0  0  0  0  0  0  0  0  0  0  0  0
    8.6030    1.6110   24.4310 C   0  0  0  0  0  0  0  0  0  0  0  0
   13.3140   -1.8870   20.8820 C   0  0  0  0  0  0  0  0  0  0  0  0
    9.3840    2.5880   23.8480 C   0  0  0  0  0  0  0  0  0  0  0  0
  1  2  2  3
  1  3  1  0
  3  4  1  0
  3  5  1  0
  6  4  1  6
  5  7  1  0
  6  7  1  0
  5  8  1  1
  6  9  1  0
  8  9  1  0
  9 10  1  0
 10 11  1  0
 11 12  2  0
 11 13  1  0
 12 14  1  0
 13 15  2  0
 13 16  1  0
 14 17  1  0
 14 18  2  0
 15 18  1  0
 16 19  1  0
 17 20  1  0
 19 21  1  0
M  END
