MAK-UNK-f2409524-1
     RDKit          3D

 22 23  0  0  0  0  0  0  0  0999 V2000
    9.8420   -0.5460   22.4090 C   0  0  0  0  0  0  0  0  0  0  0  0
    8.8680    0.1390   21.4800 C   0  0  0  0  0  0  0  0  0  0  0  0
    9.0300    1.3410   21.2140 O   0  0  0  0  0  0  0  0  0  0  0  0
    7.7880   -0.7420   20.9820 N   0  0  0  0  0  0  0  0  0  0  0  0
    6.7220   -0.0730   20.2170 C   0  0  0  0  0  0  0  0  0  0  0  0
    6.8770   -0.0320   18.7310 C   0  0  0  0  0  0  0  0  0  0  0  0
    5.6120    0.5020   20.8020 C   0  0  0  0  0  0  0  0  0  0  0  0
    5.8640    0.6230   17.8690 N   0  0  0  0  0  0  0  0  0  0  0  0
    4.6590    1.1160   19.9790 C   0  0  0  0  0  0  0  0  0  0  0  0
    5.4170    0.4790   22.2980 C   0  0  0  0  0  0  0  0  0  0  0  0
    4.8230    1.1490   18.6020 C   0  0  0  0  0  0  0  0  0  0  0  0
    5.2650    1.6380   23.1200 C   0  0  0  0  0  0  0  0  0  0  0  0
    4.1260    2.5770   22.8390 C   0  0  0  0  0  0  0  0  0  0  0  0
    4.5190    3.7330   23.4720 N   0  0  0  0  0  0  0  0  0  0  0  0
    3.4270    4.5010   23.7440 C   0  0  0  0  0  0  0  0  0  0  0  0
    3.5270    5.7270   24.3830 N   0  0  0  0  0  0  0  0  0  0  0  0
    2.9030    6.8210   24.0080 C   0  0  0  0  0  0  0  0  0  0  0  0
    3.7090    7.3920   22.8700 C   0  0  0  0  0  0  0  0  0  0  0  0
    2.8070    7.6170   25.1360 C   0  0  0  0  0  0  0  0  0  0  0  0
    3.3100    8.7120   22.6680 C   0  0  0  0  0  0  0  0  0  0  0  0
    3.2160    8.9530   25.0470 C   0  0  0  0  0  0  0  0  0  0  0  0
    3.4390    9.5200   23.7920 C   0  0  0  0  0  0  0  0  0  0  0  0
  1  2  1  0
  2  3  2  0
  2  4  1  0
  4  5  1  0
  5  6  2  0
  5  7  1  0
  6  8  1  0
  7  9  2  0
  7 10  1  0
  8 11  2  0
  9 11  1  0
 10 12  1  0
 12 13  1  0
 13 14  1  0
 14 15  2  3
 15 16  1  0
 16 17  1  0
 17 18  1  0
 17 19  1  0
 18 20  1  0
 19 21  1  0
 20 22  1  0
 21 22  1  0
M  END
