MAK-UNK-ec98eaf6-18-acrylamide
     RDKit          3D

 22 24  0  0  0  0  0  0  0  0999 V2000
    7.7890   -2.7440   18.6820 C   0  0  0  0  0  0  0  0  0  0  0  0
    6.3150   -2.9200   18.9140 C   0  0  0  0  0  0  0  0  0  0  0  0
    5.9150   -3.5660   20.1950 C   0  0  0  0  0  0  0  0  0  0  0  0
    5.2520   -4.5950   20.1480 O   0  0  0  0  0  0  0  0  0  0  0  0
    6.3230   -2.9280   21.3500 N   0  0  0  0  0  0  0  0  0  0  0  0
    7.2910   -1.8300   21.2320 C   0  0  0  0  0  0  0  0  0  0  0  0
    6.7600   -3.6300   22.5900 C   0  0  1  0  0  0  0  0  0  0  0  0
    8.3850   -2.5010   21.9990 C   0  0  2  0  0  0  0  0  0  0  0  0
    8.1890   -3.9030   22.2020 C   0  0  0  0  0  0  0  0  0  0  0  0
    6.8100   -2.7140   23.6220 C   0  0  2  0  0  0  0  0  0  0  0  0
    5.7650   -1.7920   23.7110 C   0  0  0  0  0  0  0  0  0  0  0  0
    8.0620   -2.0020   23.3590 N   0  0  0  0  0  0  0  0  0  0  0  0
    9.1120   -2.1300   24.2670 C   0  0  0  0  0  0  0  0  0  0  0  0
    9.1760   -3.4160   24.6350 F   0  0  0  0  0  0  0  0  0  0  0  0
    8.6580   -1.5130   25.3780 F   0  0  0  0  0  0  0  0  0  0  0  0
   10.3690   -1.4570   23.7500 C   0  0  0  0  0  0  0  0  0  0  0  0
   10.4910   -0.1350   24.4970 C   0  0  0  0  0  0  0  0  0  0  0  0
   11.2310   -1.9500   22.7670 C   0  0  0  0  0  0  0  0  0  0  0  0
   11.7120    0.6920   24.0720 C   0  0  0  0  0  0  0  0  0  0  0  0
   12.3100   -1.1850   22.4120 C   0  0  0  0  0  0  0  0  0  0  0  0
   12.5170    0.0160   23.0180 C   0  0  0  0  0  0  0  0  0  0  0  0
   13.3610   -1.7310   21.2190 Cl  0  0  0  0  0  0  0  0  0  0  0  0
  1  2  1  0
  2  3  1  0
  3  4  2  0
  3  5  1  0
  5  6  1  0
  7  5  1  6
  8  6  1  6
  7  9  1  0
  8  9  1  0
  7 10  1  0
 10 11  1  6
  8 12  1  0
 10 12  1  0
 12 13  1  0
 13 14  1  0
 13 15  1  0
 13 16  1  0
 16 17  2  0
 16 18  1  0
 17 19  1  0
 18 20  2  0
 19 21  2  0
 20 21  1  0
 20 22  1  0
M  END
