MAK-UNK-10799360-6-vinylsulfonamide
     RDKit          3D

 26 28  0  0  0  0  0  0  0  0999 V2000
    6.8860   -5.0050   19.9280 C   0  0  0  0  0  0  0  0  0  0  0  0
    6.9900   -3.5080   19.6210 C   0  0  0  0  0  0  0  0  0  0  0  0
    5.6290   -3.0230   20.5200 S   0  0  0  0  0  0  0  0  0  0  0  0
    5.2380   -4.1720   21.2950 O   0  0  0  0  0  0  0  0  0  0  0  0
    4.7750   -2.4370   19.5580 O   0  0  0  0  0  0  0  0  0  0  0  0
    6.2560   -1.9610   21.6180 N   0  0  0  0  0  0  0  0  0  0  0  0
    6.2240   -2.5270   22.9560 C   0  0  0  0  0  0  0  0  0  0  0  0
    7.6750   -1.6990   21.4050 C   0  0  2  0  0  0  0  0  0  0  0  0
    7.6410   -3.1620   23.0610 C   0  0  1  0  0  0  0  0  0  0  0  0
    8.1700   -3.1120   21.6330 C   0  0  0  0  0  0  0  0  0  0  0  0
    8.3230   -1.0160   22.6350 C   0  0  0  0  0  0  0  0  0  0  0  0
    8.5170   -2.1300   23.6170 N   0  0  0  0  0  0  0  0  0  0  0  0
    9.8830   -2.6240   23.8400 C   0  0  0  0  0  0  0  0  0  0  0  0
   10.9110   -1.5340   23.6260 C   0  0  0  0  0  0  0  0  0  0  0  0
   11.9580   -1.7440   22.7260 C   0  0  0  0  0  0  0  0  0  0  0  0
   10.8530   -0.3100   24.2940 C   0  0  0  0  0  0  0  0  0  0  0  0
   12.9060   -0.7560   22.5050 C   0  0  0  0  0  0  0  0  0  0  0  0
   11.8220    0.6820   24.0540 N   0  0  0  0  0  0  0  0  0  0  0  0
    9.7850   -0.0380   25.2460 N   0  0  0  0  0  0  0  0  0  0  0  0
   12.8600    0.4780   23.1620 C   0  0  0  0  0  0  0  0  0  0  0  0
    8.9820    1.0700   25.1410 C   0  0  0  0  0  0  0  0  0  0  0  0
    7.9840    1.0320   26.2630 C   0  0  0  0  0  0  0  0  0  0  0  0
    6.8230    2.3090   26.2880 S   0  0  0  0  0  0  0  0  0  0  0  0
    7.2670    3.2690   24.9850 N   0  0  0  0  0  0  0  0  0  0  0  0
    5.5160    1.7790   25.9520 O   0  0  0  0  0  0  0  0  0  0  0  0
    7.0120    3.1310   27.4600 O   0  0  0  0  0  0  0  0  0  0  0  0
  1  2  1  0
  3  2  1  0
  3  4  2  0
  3  5  2  0
  3  6  1  0
  6  7  1  0
  6  8  1  0
  9  7  1  6
  8 10  1  0
  9 10  1  0
  8 11  1  1
  9 12  1  0
 11 12  1  0
 12 13  1  0
 13 14  1  0
 14 15  2  0
 14 16  1  0
 15 17  1  0
 16 18  2  0
 16 19  1  0
 17 20  2  0
 18 20  1  0
 19 21  1  0
 21 22  1  0
 22 23  1  0
 23 24  1  0
 23 25  2  0
 23 26  2  0
M  END
