MAK-UNK-7c9d1431-29-chloroacetamide
     RDKit          3D

 17 18  0  0  0  0  0  0  0  0999 V2000
    7.0500   -3.4550   19.7980 C   0  0  0  0  0  0  0  0  0  0  0  0
    6.3090   -4.5410   20.5300 C   0  0  0  0  0  0  0  0  0  0  0  0
    5.3280   -5.0560   20.0140 O   0  0  0  0  0  0  0  0  0  0  0  0
    6.7900   -4.9590   21.7470 N   0  0  0  0  0  0  0  0  0  0  0  0
    6.3300   -6.2330   22.2790 C   0  0  0  0  0  0  0  0  0  0  0  0
    7.2800   -3.9790   22.7400 C   0  0  0  0  0  0  0  0  0  0  0  0
    5.3000   -5.9600   23.3770 C   0  0  0  0  0  0  0  0  0  0  0  0
    6.4050   -3.8390   23.8280 C   0  0  0  0  0  0  0  0  0  0  0  0
    5.9630   -5.1390   24.3780 N   0  0  0  0  0  0  0  0  0  0  0  0
    5.3310   -5.0500   25.7070 C   0  0  0  0  0  0  0  0  0  0  0  0
    4.2090   -4.0060   25.8150 C   0  0  0  0  0  0  0  0  0  0  0  0
    2.8110   -4.6490   25.7590 C   0  0  0  0  0  0  0  0  0  0  0  0
    4.4290   -2.6420   25.9550 C   0  0  0  0  0  0  0  0  0  0  0  0
    1.6420   -3.6450   25.8860 C   0  0  0  0  0  0  0  0  0  0  0  0
    3.2690   -1.6660   26.0780 C   0  0  0  0  0  0  0  0  0  0  0  0
    1.9640   -2.1460   26.0520 C   0  0  0  0  0  0  0  0  0  0  0  0
    0.6700   -1.0350   26.2170 Cl  0  0  0  0  0  0  0  0  0  0  0  0
  1  2  1  0
  2  3  2  0
  2  4  1  0
  4  5  1  0
  4  6  1  0
  5  7  1  0
  6  8  1  0
  7  9  1  0
  8  9  1  0
  9 10  1  0
 10 11  1  0
 11 12  2  0
 11 13  1  0
 12 14  1  0
 13 15  2  0
 14 16  2  0
 15 16  1  0
 16 17  1  0
M  END
