MAK-UNK-8fdbca50-14-acrylamide
     RDKit          3D

 40 43  0  0  0  0  0  0  0  0999 V2000
    7.5130   -5.0220   20.2540 C   0  0  0  0  0  0  0  0  0  0  0  0
    7.3020   -6.0510   21.3350 C   0  0  0  0  0  0  0  0  0  0  0  0
    5.8710   -5.8770   21.7840 C   0  0  0  0  0  0  0  0  0  0  0  0
    5.0250   -5.4220   21.0000 O   0  0  0  0  0  0  0  0  0  0  0  0
    5.5820   -6.1880   23.0970 N   0  0  0  0  0  0  0  0  0  0  0  0
    6.4570   -5.7220   24.1590 C   0  0  0  0  0  0  0  0  0  0  0  0
    4.2140   -5.9260   23.4990 C   0  0  0  0  0  0  0  0  0  0  0  0
    6.4960   -4.3210   24.1970 C   0  0  0  0  0  0  0  0  0  0  0  0
    4.1710   -4.6510   24.3740 C   0  0  0  0  0  0  0  0  0  0  0  0
    5.2820   -3.6650   23.9500 C   0  0  0  0  0  0  0  0  0  0  0  0
    4.9700   -3.4830   22.6000 C   0  0  0  0  0  0  0  0  0  0  0  0
    3.9200   -3.9570   22.2270 O   0  0  0  0  0  0  0  0  0  0  0  0
    5.9300   -2.7290   21.7060 N   0  0  0  0  0  0  0  0  0  0  0  0
    5.5930   -2.8270   20.2420 C   0  0  0  0  0  0  0  0  0  0  0  0
    7.0720   -1.9200   22.1830 C   0  0  2  0  0  0  0  0  0  0  0  0
    8.2910   -2.2980   21.3840 C   0  0  0  0  0  0  0  0  0  0  0  0
    7.3790   -2.0850   23.6880 C   0  0  0  0  0  0  0  0  0  0  0  0
    7.8110   -0.6420   24.0030 C   0  0  0  0  0  0  0  0  0  0  0  0
    7.8280   -1.9650   24.8290 C   0  0  0  0  0  0  0  0  0  0  0  0
    8.7300    0.3100   25.0510 C   0  0  0  0  0  0  0  0  0  0  0  0
    9.1710   -1.5820   24.5850 C   0  0  0  0  0  0  0  0  0  0  0  0
    9.6390   -0.6740   25.2330 C   0  0  0  0  0  0  0  0  0  0  0  0
    9.9800   -2.3450   23.7070 C   0  0  0  0  0  0  0  0  0  0  0  0
   10.8330   -0.3270   25.7170 F   0  0  0  0  0  0  0  0  0  0  0  0
    9.9090   -2.9560   24.9700 C   0  0  0  0  0  0  0  0  0  0  0  0
    9.5470   -1.2930   23.4400 N   0  0  0  0  0  0  0  0  0  0  0  0
    9.7590   -4.0440   24.9090 C   0  0  0  0  0  0  0  0  0  0  0  0
    9.2640   -2.6510   24.1300 C   0  0  0  0  0  0  0  0  0  0  0  0
   10.7730   -0.4660   22.5860 S   0  0  0  0  0  0  0  0  0  0  0  0
    9.6630   -5.3240   25.4270 C   0  0  0  0  0  0  0  0  0  0  0  0
   11.9130   -0.4000   23.4740 O   0  0  0  0  0  0  0  0  0  0  0  0
   10.8960   -1.1400   21.3140 O   0  0  0  0  0  0  0  0  0  0  0  0
   10.1980    1.2040   22.4140 C   0  0  0  0  0  0  0  0  0  0  0  0
    9.0910   -4.9980   26.7320 N   0  0  0  0  0  0  0  0  0  0  0  0
    9.7170    2.6040   22.2700 C   0  0  0  0  0  0  0  0  0  0  0  0
    9.3080    0.3180   21.7610 C   0  0  0  0  0  0  0  0  0  0  0  0
    8.6730   -6.1160   27.3750 C   0  0  0  0  0  0  0  0  0  0  0  0
    8.5100    2.6940   21.5300 C   0  0  0  0  0  0  0  0  0  0  0  0
    8.1740    0.4050   21.0670 N   0  0  0  0  0  0  0  0  0  0  0  0
    7.7520    1.5800   20.9360 C   0  0  0  0  0  0  0  0  0  0  0  0
  1  2  1  0
  2  3  1  0
  3  4  2  0
  3  5  1  0
  5  6  1  0
  5  7  1  0
  6  8  1  0
  7  9  1  0
  8 10  1  0
  9 10  1  0
 10 11  1  0
 11 12  2  0
 11 13  1  0
 13 14  1  0
 13 15  1  0
 15 16  1  6
 15 17  1  0
 17 18  2  0
 17 19  1  0
 18 20  1  0
 19 21  2  0
 20 22  2  0
 21 22  1  0
 21 23  1  0
 22 24  1  0
 23 25  2  0
 23 26  1  0
 25 27  1  0
 26 28  1  0
 27 28  2  0
 26 29  1  0
 27 30  1  0
 29 31  2  0
 29 32  2  0
 29 33  1  0
 30 34  1  0
 33 35  2  0
 33 36  1  0
 34 37  1  0
 35 38  1  0
 36 39  2  0
 38 40  2  0
 39 40  1  0
M  END
