MAK-UNK-849bee6c-1-nitrile
     RDKit          3D

 25 27  0  0  0  0  0  0  0  0999 V2000
    6.7540   -3.5070   19.5530 C   0  0  0  0  0  0  0  0  0  0  0  0
    6.0080   -3.1130   18.5920 N   0  0  0  0  0  0  0  0  0  0  0  0
    6.4670   -3.1890   20.8620 N   0  0  0  0  0  0  0  0  0  0  0  0
    6.5280   -1.7930   21.1870 C   0  0  0  0  0  0  0  0  0  0  0  0
    6.7320   -4.0670   22.0170 C   0  0  0  0  0  0  0  0  0  0  0  0
    7.9620   -1.4210   21.5700 C   0  0  0  0  0  0  0  0  0  0  0  0
    7.9160   -3.4980   22.8300 C   0  0  0  0  0  0  0  0  0  0  0  0
    8.7340   -2.5920   21.9950 N   0  0  0  0  0  0  0  0  0  0  0  0
   10.0110   -2.3970   22.4850 C   0  0  0  0  0  0  0  0  0  0  0  0
    9.9580   -1.1200   23.2350 C   0  0  0  0  0  0  0  0  0  0  0  0
    9.5540   -1.2500   24.6060 C   0  0  0  0  0  0  0  0  0  0  0  0
   10.2330    0.1310   22.6920 C   0  0  0  0  0  0  0  0  0  0  0  0
    9.4790    0.0280   25.3060 C   0  0  0  0  0  0  0  0  0  0  0  0
   10.1560    1.3990   23.3660 C   0  0  0  0  0  0  0  0  0  0  0  0
    9.0670    0.0460   26.6960 C   0  0  0  0  0  0  0  0  0  0  0  0
    9.7720    1.2030   24.6700 C   0  0  0  0  0  0  0  0  0  0  0  0
   10.4490    2.0620   22.5030 N   0  0  0  0  0  0  0  0  0  0  0  0
   11.2270    3.2390   22.5710 C   0  0  0  0  0  0  0  0  0  0  0  0
   10.8710    4.6510   22.5480 C   0  0  0  0  0  0  0  0  0  0  0  0
   12.7090    3.1600   22.6910 C   0  0  0  0  0  0  0  0  0  0  0  0
   11.8000    5.6790   22.6120 C   0  0  0  0  0  0  0  0  0  0  0  0
   13.6610    4.1790   22.7540 N   0  0  0  0  0  0  0  0  0  0  0  0
   13.1810    1.7260   22.7540 C   0  0  0  0  0  0  0  0  0  0  0  0
   13.1640    5.4660   22.7080 C   0  0  0  0  0  0  0  0  0  0  0  0
   13.4400    0.4000   22.8200 N   0  0  0  0  0  0  0  0  0  0  0  0
  1  2  2  3
  1  3  1  0
  3  4  1  0
  3  5  1  0
  4  6  1  0
  5  7  1  0
  6  8  1  0
  7  8  1  0
  8  9  1  0
  9 10  1  0
 10 11  2  0
 10 12  1  0
 11 13  1  0
 12 14  2  0
 13 15  1  0
 13 16  2  0
 14 16  1  0
 14 17  1  0
 17 18  1  0
 18 19  2  0
 18 20  1  0
 19 21  1  0
 20 22  2  0
 20 23  1  0
 21 24  2  0
 22 24  1  0
 23 25  3  0
M  END
