MAK-UNK-10799360-14-chloroacetamide
     RDKit          3D

 31 35  0  0  0  0  0  0  0  0999 V2000
    7.3930   -3.1050   18.8970 C   0  0  0  0  0  0  0  0  0  0  0  0
    6.2260   -3.1800   19.8730 C   0  0  0  0  0  0  0  0  0  0  0  0
    5.2880   -3.9640   19.6540 O   0  0  0  0  0  0  0  0  0  0  0  0
    6.3190   -2.3690   20.9850 N   0  0  0  0  0  0  0  0  0  0  0  0
    7.2210   -2.8710   21.9910 C   0  0  1  0  0  0  0  0  0  0  0  0
    6.7800   -0.9510   20.9520 C   0  0  2  0  0  0  0  0  0  0  0  0
    8.4450   -2.0360   21.5210 C   0  0  0  0  0  0  0  0  0  0  0  0
    7.8620   -0.7730   22.0580 C   0  0  2  0  0  0  0  0  0  0  0  0
    5.7330    0.1650   21.1930 C   0  0  0  0  0  0  0  0  0  0  0  0
    6.6790   -2.4050   23.3160 C   0  0  0  0  0  0  0  0  0  0  0  0
    4.8450    0.2950   19.9700 C   0  0  0  0  0  0  0  0  0  0  0  0
    5.5200    1.0040   22.2830 C   0  0  0  0  0  0  0  0  0  0  0  0
    7.6510   -1.2950   23.4620 N   0  0  0  0  0  0  0  0  0  0  0  0
    3.7770    1.3740   20.0600 C   0  0  0  0  0  0  0  0  0  0  0  0
    4.4570    2.0440   22.3190 N   0  0  0  0  0  0  0  0  0  0  0  0
    8.8500   -1.8240   23.8980 C   0  0  0  0  0  0  0  0  0  0  0  0
    3.5790    2.2190   21.1760 C   0  0  0  0  0  0  0  0  0  0  0  0
    9.8850   -0.9120   23.7340 C   0  0  0  0  0  0  0  0  0  0  0  0
    9.7000    0.3960   24.4330 C   0  0  0  0  0  0  0  0  0  0  0  0
   11.0980   -1.1300   22.9460 C   0  0  0  0  0  0  0  0  0  0  0  0
   10.7470    1.4150   24.3070 C   0  0  0  0  0  0  0  0  0  0  0  0
   12.0760   -0.0970   22.8980 C   0  0  0  0  0  0  0  0  0  0  0  0
   11.3800   -2.2990   22.2090 C   0  0  0  0  0  0  0  0  0  0  0  0
   11.9520    1.1220   23.5260 C   0  0  0  0  0  0  0  0  0  0  0  0
   13.2210   -0.2750   22.1810 C   0  0  0  0  0  0  0  0  0  0  0  0
   12.5640   -2.4480   21.4680 C   0  0  0  0  0  0  0  0  0  0  0  0
   13.4380   -1.4250   21.4760 C   0  0  0  0  0  0  0  0  0  0  0  0
   13.1210   -3.8150   20.4270 S   0  0  0  0  0  0  0  0  0  0  0  0
   14.1690   -5.0530   20.7610 N   0  0  0  0  0  0  0  0  0  0  0  0
   12.1140   -4.3390   19.5590 O   0  0  0  0  0  0  0  0  0  0  0  0
   14.3080   -3.2330   19.9770 O   0  0  0  0  0  0  0  0  0  0  0  0
  1  2  1  0
  2  3  2  0
  2  4  1  0
  4  5  1  0
  4  6  1  0
  5  7  1  0
  6  8  1  0
  7  8  1  0
  6  9  1  1
  5 10  1  1
  9 11  2  0
  9 12  1  0
  8 13  1  1
 10 13  1  0
 11 14  1  0
 12 15  2  0
 13 16  1  0
 14 17  2  0
 15 17  1  0
 16 18  1  0
 18 19  2  0
 18 20  1  0
 19 21  1  0
 20 22  2  0
 20 23  1  0
 21 24  2  0
 22 24  1  0
 22 25  1  0
 23 26  2  0
 25 27  2  0
 26 27  1  0
 26 28  1  0
 28 29  1  0
 28 30  2  0
 28 31  2  0
M  END
