MAK-UNK-c74072e5-7-bromoalkyne
     RDKit          3D

 40 43  0  0  0  0  0  0  0  0999 V2000
    7.7810   -3.7780   19.9790 C   0  0  0  0  0  0  0  0  0  0  0  0
    6.2610   -3.7900   19.6450 C   0  0  0  0  0  0  0  0  0  0  0  0
    8.4180   -3.9580   21.2340 N   0  0  0  0  0  0  0  0  0  0  0  0
    7.7400   -4.2990   22.3740 C   0  0  0  0  0  0  0  0  0  0  0  0
    9.6250   -3.1220   21.4720 C   0  0  0  0  0  0  0  0  0  0  0  0
    8.8090   -5.0010   23.1790 C   0  0  0  0  0  0  0  0  0  0  0  0
   10.1980   -3.0970   22.8820 C   0  0  0  0  0  0  0  0  0  0  0  0
    9.7260   -4.1390   23.7920 N   0  0  0  0  0  0  0  0  0  0  0  0
    9.6300   -3.5280   25.0570 C   0  0  0  0  0  0  0  0  0  0  0  0
    8.7080   -2.3500   25.1120 C   0  0  0  0  0  0  0  0  0  0  0  0
    9.0430   -1.0200   24.9840 C   0  0  0  0  0  0  0  0  0  0  0  0
    7.3760   -2.6430   25.3090 C   0  0  0  0  0  0  0  0  0  0  0  0
    8.0360    0.0040   25.0600 C   0  0  0  0  0  0  0  0  0  0  0  0
    6.3300   -1.7050   25.3960 C   0  0  0  0  0  0  0  0  0  0  0  0
    6.5840   -0.3640   25.2840 C   0  0  0  0  0  0  0  0  0  0  0  0
    5.1370   -2.3330   25.5840 C   0  0  0  0  0  0  0  0  0  0  0  0
    5.3390   -3.5220   26.4340 C   0  0  0  0  0  0  0  0  0  0  0  0
    3.8560   -2.0360   25.0840 C   0  0  0  0  0  0  0  0  0  0  0  0
    4.2920   -4.3330   26.6930 C   0  0  0  0  0  0  0  0  0  0  0  0
    2.7990   -2.9130   25.3810 C   0  0  0  0  0  0  0  0  0  0  0  0
    3.0590   -4.0480   26.1680 C   0  0  0  0  0  0  0  0  0  0  0  0
    1.8720   -5.2480   26.5470 S   0  0  0  0  0  0  0  0  0  0  0  0
    2.0420   -5.5960   27.9370 O   0  0  0  0  0  0  0  0  0  0  0  0
    0.6140   -4.8770   25.9480 O   0  0  0  0  0  0  0  0  0  0  0  0
    2.6300   -6.4500   25.5690 N   0  0  0  0  0  0  0  0  0  0  0  0
    2.1700   -6.6070   24.1710 C   0  0  0  0  0  0  0  0  0  0  0  0
    4.1030   -6.6600   25.6860 C   0  0  0  0  0  0  0  0  0  0  0  0
    2.9530   -5.7470   23.1720 C   0  0  0  0  0  0  0  0  0  0  0  0
    4.9050   -5.9850   24.5450 C   0  0  0  0  0  0  0  0  0  0  0  0
    4.1040   -5.0310   23.7640 N   0  0  0  0  0  0  0  0  0  0  0  0
    4.9740   -4.3550   22.7620 C   0  0  0  0  0  0  0  0  0  0  0  0
    4.8110   -2.9590   22.7690 C   0  0  0  0  0  0  0  0  0  0  0  0
    5.1620   -2.3770   21.4970 O   0  0  0  0  0  0  0  0  0  0  0  0
    5.3980   -0.7000   21.3300 Si  0  0  0  0  0  4  0  0  0  0  0  0
    4.3910    0.1100   19.9500 C   0  0  0  0  0  0  0  0  0  0  0  0
    5.1070    0.1340   22.9750 C   0  0  0  0  0  0  0  0  0  0  0  0
    7.1310   -0.3340   20.7340 C   0  0  0  0  0  0  0  0  0  0  0  0
    7.3610    1.1930   20.6840 C   0  0  0  0  0  0  0  0  0  0  0  0
    8.1690   -0.9370   21.6950 C   0  0  0  0  0  0  0  0  0  0  0  0
    7.2260   -0.9110   19.3080 C   0  0  0  0  0  0  0  0  0  0  0  0
  1  2  2  3
  1  3  1  0
  3  4  1  0
  3  5  1  0
  4  6  1  0
  5  7  1  0
  6  8  1  0
  7  8  1  0
  8  9  1  0
  9 10  1  0
 10 11  2  0
 10 12  1  0
 11 13  1  0
 12 14  2  0
 13 15  2  0
 14 15  1  0
 14 16  1  0
 16 17  2  0
 16 18  1  0
 17 19  1  0
 18 20  2  0
 19 21  2  0
 20 21  1  0
 22 21  1  0
 22 23  2  0
 22 24  2  0
 22 25  1  0
 25 26  1  0
 25 27  1  0
 26 28  1  0
 27 29  1  0
 28 30  1  0
 29 30  1  0
 30 31  1  0
 31 32  1  0
 32 33  1  0
 34 33  1  0
 34 35  1  0
 34 36  1  0
 34 37  1  0
 37 38  1  0
 37 39  1  0
 37 40  1  0
M  END
