MAK-UNK-f983951f-23-bromoalkyne
     RDKit          3D

 12 12  0  0  0  0  0  0  0  0999 V2000
    6.0930   -4.5410   20.3810 C   0  0  0  0  0  0  0  0  0  0  0  0
    5.3730   -5.8080   20.1170 C   0  0  0  0  0  0  0  0  0  0  0  0
    5.4740   -3.3450   20.2610 N   0  0  0  0  0  0  0  0  0  0  0  0
    5.4900   -2.3890   21.3730 C   0  0  0  0  0  0  0  0  0  0  0  0
    4.8230   -3.0080   22.6280 C   0  0  0  0  0  0  0  0  0  0  0  0
    4.6810   -4.5410   22.5460 C   0  0  0  0  0  0  0  0  0  0  0  0
    4.3820   -2.2500   23.7350 C   0  0  0  0  0  0  0  0  0  0  0  0
    4.0130   -5.1890   23.7610 C   0  0  0  0  0  0  0  0  0  0  0  0
    3.7720   -2.8510   24.8440 C   0  0  0  0  0  0  0  0  0  0  0  0
    3.5890   -4.2310   24.8720 C   0  0  0  0  0  0  0  0  0  0  0  0
    2.9460   -5.0640   25.9830 C   0  0  0  0  0  0  0  0  0  0  0  0
    2.4660   -5.6920   26.8290 N   0  0  0  0  0  0  0  0  0  0  0  0
  1  2  2  3
  1  3  1  0
  3  4  1  0
  4  5  1  0
  5  6  2  0
  5  7  1  0
  6  8  1  0
  7  9  2  0
  8 10  2  0
  9 10  1  0
 10 11  1  0
 11 12  3  0
M  END
