MAK-UNK-acefcb18-17
     RDKit          3D

 19 20  0  0  0  0  0  0  0  0999 V2000
   13.7260   -3.7120   20.6630 C   0  0  0  0  0  0  0  0  0  0  0  0
   13.3170   -2.8220   21.8150 C   0  0  0  0  0  0  0  0  0  0  0  0
   12.3340   -1.8660   21.2760 C   0  0  0  0  0  0  0  0  0  0  0  0
   13.7710   -2.8500   23.1430 C   0  0  0  0  0  0  0  0  0  0  0  0
   11.8050   -0.8290   22.2410 C   0  0  0  0  0  0  0  0  0  0  0  0
   13.3460   -1.9540   24.0730 C   0  0  0  0  0  0  0  0  0  0  0  0
   12.3530   -0.9140   23.6200 C   0  0  0  0  0  0  0  0  0  0  0  0
   11.9190   -0.0350   24.4560 O   0  0  0  0  0  0  0  0  0  0  0  0
   10.6190    0.0680   23.9580 C   0  0  0  0  0  0  0  0  0  0  0  0
    9.8030   -0.7940   24.9000 C   0  0  0  0  0  0  0  0  0  0  0  0
    9.0100   -1.7580   24.0100 C   0  0  1  0  0  0  0  0  0  0  0  0
    9.5650   -2.0340   22.5990 C   0  0  0  0  0  0  0  0  0  0  0  0
    8.9790   -3.0750   24.7050 N   0  0  0  0  0  0  0  0  0  0  0  0
    7.7130   -3.2920   25.4170 C   0  0  0  0  0  0  0  0  0  0  0  0
   10.1920   -3.3300   25.5120 C   0  0  0  0  0  0  0  0  0  0  0  0
    7.7120   -4.5820   25.9250 C   0  0  0  0  0  0  0  0  0  0  0  0
   10.0100   -4.5330   26.2420 C   0  0  0  0  0  0  0  0  0  0  0  0
    8.7670   -4.8080   26.7840 C   0  0  0  0  0  0  0  0  0  0  0  0
    8.5330   -4.3520   28.0440 O   0  0  0  0  0  0  0  0  0  0  0  0
  1  2  1  0
  2  3  2  0
  2  4  1  0
  3  5  1  0
  4  6  2  0
  5  7  2  0
  6  7  1  0
  7  8  1  0
  8  9  1  0
  9 10  1  0
 10 11  1  0
 11 12  1  6
 11 13  1  0
 13 14  1  0
 13 15  1  0
 14 16  1  0
 15 17  1  0
 16 18  1  0
 17 18  1  0
 18 19  1  0
M  END
