MAK-UNK-8fdbca50-20-chloroacetamide
     RDKit          3D

 39 42  0  0  0  0  0  0  0  0999 V2000
    8.7750   -4.0280   20.5220 C   0  0  0  0  0  0  0  0  0  0  0  0
    7.8800   -2.9120   20.5660 C   0  0  0  0  0  0  0  0  0  0  0  0
    6.8340   -3.0800   19.5830 O   0  0  0  0  0  0  0  0  0  0  0  0
    8.4490   -1.9180   21.7190 N   0  0  0  0  0  0  0  0  0  0  0  0
    8.6400   -2.2080   23.1900 C   0  0  0  0  0  0  0  0  0  0  0  0
    9.6290   -0.9980   21.6210 C   0  0  0  0  0  0  0  0  0  0  0  0
    9.8860   -3.0140   23.3870 C   0  0  0  0  0  0  0  0  0  0  0  0
   11.0590   -1.4090   22.0920 C   0  0  0  0  0  0  0  0  0  0  0  0
   11.1270   -2.3800   23.2830 C   0  0  0  0  0  0  0  0  0  0  0  0
   11.7430   -1.7570   24.3480 C   0  0  0  0  0  0  0  0  0  0  0  0
   12.5400   -2.4320   25.2710 O   0  0  0  0  0  0  0  0  0  0  0  0
   11.4930   -0.3040   24.3420 N   0  0  0  0  0  0  0  0  0  0  0  0
   10.2230    0.0790   25.0740 C   0  0  0  0  0  0  0  0  0  0  0  0
   11.9440    0.3720   23.0950 C   0  0  0  0  0  0  0  0  0  0  0  0
    8.6350    0.7080   24.5140 S   0  0  0  0  0  0  0  0  0  0  0  0
   12.0560    1.8710   23.2010 C   0  0  0  0  0  0  0  0  0  0  0  0
   13.2460   -0.3050   22.5700 C   0  0  0  0  0  0  0  0  0  0  0  0
    9.1680    0.6740   23.1770 O   0  0  0  0  0  0  0  0  0  0  0  0
    7.8630    1.1220   22.9710 C   0  0  0  0  0  0  0  0  0  0  0  0
    7.2710    1.1070   25.4030 N   0  0  0  0  0  0  0  0  0  0  0  0
    6.5300    0.7140   22.7140 C   0  0  0  0  0  0  0  0  0  0  0  0
    8.5050    1.8430   21.9610 C   0  0  0  0  0  0  0  0  0  0  0  0
    6.7000    0.2880   26.3340 C   0  0  0  0  0  0  0  0  0  0  0  0
    6.5770    2.2320   25.3240 C   0  0  0  0  0  0  0  0  0  0  0  0
    5.8710    1.0410   21.4360 C   0  0  0  0  0  0  0  0  0  0  0  0
    7.9270    2.1780   20.7380 N   0  0  0  0  0  0  0  0  0  0  0  0
    5.5900    0.8730   26.8970 C   0  0  0  0  0  0  0  0  0  0  0  0
    5.5010    2.1420   26.2460 C   0  0  0  0  0  0  0  0  0  0  0  0
    6.8170    3.3400   24.4940 C   0  0  0  0  0  0  0  0  0  0  0  0
    6.6370    1.8290   20.3820 C   0  0  0  0  0  0  0  0  0  0  0  0
    4.7810    0.2990   27.8750 C   0  0  0  0  0  0  0  0  0  0  0  0
    8.1100    3.5730   24.0200 C   0  0  0  0  0  0  0  0  0  0  0  0
    5.7910    4.2280   24.1200 C   0  0  0  0  0  0  0  0  0  0  0  0
    3.7670   -0.5060   27.3910 N   0  0  0  0  0  0  0  0  0  0  0  0
    8.3760    4.6670   23.1850 C   0  0  0  0  0  0  0  0  0  0  0  0
    6.0530    5.3220   23.2870 C   0  0  0  0  0  0  0  0  0  0  0  0
    4.5330    4.0470   24.5540 F   0  0  0  0  0  0  0  0  0  0  0  0
    3.6280   -0.5300   26.0820 C   0  0  0  0  0  0  0  0  0  0  0  0
    7.3490    5.5380   22.8190 C   0  0  0  0  0  0  0  0  0  0  0  0
  1  2  1  0
  2  3  2  0
  2  4  1  0
  4  5  1  0
  4  6  1  0
  5  7  1  0
  6  8  1  0
  7  9  1  0
  8  9  1  0
  9 10  1  0
 10 11  2  0
 10 12  1  0
 12 13  1  0
 12 14  1  0
 13 15  2  0
 14 16  1  0
 14 17  1  0
 15 18  2  0
 15 19  1  0
 15 20  1  0
 19 21  2  0
 19 22  1  0
 20 23  1  0
 20 24  1  0
 21 25  1  0
 22 26  2  0
 23 27  2  0
 24 28  2  0
 27 28  1  0
 24 29  1  0
 25 30  2  0
 26 30  1  0
 27 31  1  0
 29 32  2  0
 29 33  1  0
 31 34  1  0
 32 35  1  0
 33 36  2  0
 33 37  1  0
 34 38  1  0
 35 39  2  0
 36 39  1  0
M  END
