MAK-UNK-1cb0e944-7
     RDKit          3D

 20 20  0  0  0  0  0  0  0  0999 V2000
    7.9220    1.6720   23.3720 N   0  0  0  0  0  0  0  0  0  0  0  0
    8.4900    1.2960   21.8290 S   0  0  0  0  0  0  0  0  0  0  0  0
    8.8550    2.5320   21.1960 O   0  0  0  0  0  0  0  0  0  0  0  0
    7.4920    0.4270   21.2510 O   0  0  0  0  0  0  0  0  0  0  0  0
    9.9680    0.3500   22.1470 C   0  0  0  0  0  0  0  0  0  0  0  0
    9.9550   -0.8260   21.8210 O   0  0  0  0  0  0  0  0  0  0  0  0
   11.1110    1.0860   22.7680 N   0  0  0  0  0  0  0  0  0  0  0  0
   12.4030    0.3410   22.6950 C   0  0  0  0  0  0  0  0  0  0  0  0
   12.6720   -0.3500   23.9970 C   0  0  0  0  0  0  0  0  0  0  0  0
   11.4150   -0.9490   24.5630 C   0  0  0  0  0  0  0  0  0  0  0  0
   10.9610   -0.6620   25.6500 O   0  0  0  0  0  0  0  0  0  0  0  0
   10.8430   -1.8130   23.6900 N   0  0  0  0  0  0  0  0  0  0  0  0
    9.4520   -2.0770   23.8500 C   0  0  0  0  0  0  0  0  0  0  0  0
    9.3340   -3.3350   24.5630 N   0  0  0  0  0  0  0  0  0  0  0  0
   10.3480   -3.5020   25.3890 C   0  0  0  0  0  0  0  0  0  0  0  0
    8.1550   -3.3090   25.2220 C   0  0  0  0  0  0  0  0  0  0  0  0
   10.2550   -4.7610   26.0370 C   0  0  0  0  0  0  0  0  0  0  0  0
    7.9340   -4.5170   25.8720 C   0  0  0  0  0  0  0  0  0  0  0  0
    9.0090   -5.0850   26.5450 C   0  0  0  0  0  0  0  0  0  0  0  0
    8.9760   -4.5000   27.8430 O   0  0  0  0  0  0  0  0  0  0  0  0
  1  2  1  0
  2  3  2  0
  2  4  2  0
  2  5  1  0
  5  6  2  0
  5  7  1  0
  7  8  1  0
  8  9  1  0
  9 10  1  0
 10 11  2  0
 10 12  1  0
 12 13  1  0
 13 14  1  0
 14 15  1  0
 14 16  1  0
 15 17  1  0
 16 18  1  0
 17 19  1  0
 18 19  1  0
 19 20  1  0
M  END
