MAK-UNK-849bee6c-24-vinylsulfonamide
     RDKit          3D

 33 35  0  0  0  0  0  0  0  0999 V2000
    7.3150   -2.9970   18.9430 C   0  0  0  0  0  0  0  0  0  0  0  0
    6.8690   -2.6610   20.3490 C   0  0  0  0  0  0  0  0  0  0  0  0
    5.9870   -4.0600   21.0230 S   0  0  0  0  0  0  0  0  0  0  0  0
    5.1830   -4.6400   19.9630 O   0  0  0  0  0  0  0  0  0  0  0  0
    6.9540   -4.8940   21.7390 O   0  0  0  0  0  0  0  0  0  0  0  0
    4.9260   -3.3660   22.1430 N   0  0  0  0  0  0  0  0  0  0  0  0
    5.0480   -1.9340   22.3130 C   0  0  0  0  0  0  0  0  0  0  0  0
    4.7380   -4.0630   23.4110 C   0  0  0  0  0  0  0  0  0  0  0  0
    6.3250   -1.5880   23.0820 C   0  0  0  0  0  0  0  0  0  0  0  0
    5.8090   -3.5950   24.3930 C   0  0  0  0  0  0  0  0  0  0  0  0
    6.8630   -2.7730   23.7590 N   0  0  0  0  0  0  0  0  0  0  0  0
    8.0570   -2.7970   24.5420 C   0  0  0  0  0  0  0  0  0  0  0  0
    9.1270   -1.7290   24.3880 C   0  0  0  0  0  0  0  0  0  0  0  0
    8.7400   -0.2870   24.5980 C   0  0  0  0  0  0  0  0  0  0  0  0
   10.4730   -2.0480   24.0530 C   0  0  0  0  0  0  0  0  0  0  0  0
    9.8060    0.7000   24.4510 C   0  0  0  0  0  0  0  0  0  0  0  0
   11.5050   -1.1030   23.9080 C   0  0  0  0  0  0  0  0  0  0  0  0
    9.5780    2.0650   24.5970 C   0  0  0  0  0  0  0  0  0  0  0  0
   11.2070    0.2200   24.1160 C   0  0  0  0  0  0  0  0  0  0  0  0
   12.8360   -1.4680   23.5340 N   0  0  0  0  0  0  0  0  0  0  0  0
   13.4180   -0.8150   22.3900 C   0  0  0  0  0  0  0  0  0  0  0  0
   13.9330    0.4180   22.5510 C   0  0  0  0  0  0  0  0  0  0  0  0
   13.5220   -1.2790   21.1160 C   0  0  0  0  0  0  0  0  0  0  0  0
   14.5390    1.2860   21.5230 C   0  0  0  0  0  0  0  0  0  0  0  0
   14.1580   -0.4110   19.9260 C   0  0  0  0  0  0  0  0  0  0  0  0
   13.0510   -2.6430   20.7600 C   0  0  0  0  0  0  0  0  0  0  0  0
   14.6580    0.9070   20.1380 C   0  0  0  0  0  0  0  0  0  0  0  0
   12.8050   -3.7130   20.4620 N   0  0  0  0  0  0  0  0  0  0  0  0
   15.1910    1.5830   19.1660 N   0  0  0  0  0  0  0  0  0  0  0  0
   15.1400    2.7820   18.6840 C   0  0  0  0  0  0  0  0  0  0  0  0
   15.5360    2.9120   17.5930 O   0  0  0  0  0  0  0  0  0  0  0  0
   14.6760    4.0260   19.3910 C   0  0  0  0  0  0  0  0  0  0  0  0
   15.7180    5.3480   18.8880 Cl  0  0  0  0  0  0  0  0  0  0  0  0
  1  2  1  0
  3  2  1  0
  3  4  2  0
  3  5  2  0
  3  6  1  0
  6  7  1  0
  6  8  1  0
  7  9  1  0
  8 10  1  0
  9 11  1  0
 10 11  1  0
 11 12  1  0
 12 13  1  0
 13 14  2  0
 13 15  1  0
 14 16  1  0
 15 17  2  0
 16 18  1  0
 16 19  2  0
 17 19  1  0
 17 20  1  0
 20 21  1  0
 21 22  2  0
 21 23  1  0
 22 24  1  0
 23 25  2  0
 23 26  1  0
 24 27  2  0
 25 27  1  0
 26 28  3  0
 27 29  1  0
 29 30  1  0
 30 31  2  0
 30 32  1  0
 32 33  1  0
M  END
