MAK-UNK-702fb7d3-11-acrylamide
     RDKit          3D

 43 48  0  0  0  0  0  0  0  0999 V2000
    7.1000   -3.6150   19.9490 C   0  0  0  0  0  0  0  0  0  0  0  0
    7.4310   -4.0390   21.3550 C   0  0  0  0  0  0  0  0  0  0  0  0
    6.3550   -3.5970   22.2990 C   0  0  0  0  0  0  0  0  0  0  0  0
    4.9950   -3.7170   21.8530 O   0  0  0  0  0  0  0  0  0  0  0  0
    7.0680   -3.1470   23.5390 N   0  0  0  0  0  0  0  0  0  0  0  0
    8.5570   -3.3730   23.7390 C   0  0  0  0  0  0  0  0  0  0  0  0
    6.4120   -2.8400   24.8410 C   0  0  0  0  0  0  0  0  0  0  0  0
    8.6980   -3.9130   25.1270 C   0  0  0  0  0  0  0  0  0  0  0  0
    6.5050   -3.9500   25.9470 C   0  0  2  0  0  0  0  0  0  0  0  0
   10.1480   -4.0220   24.9690 C   0  0  0  0  0  0  0  0  0  0  0  0
    7.8670   -4.2100   26.1820 C   0  0  0  0  0  0  0  0  0  0  0  0
    5.7170   -5.1040   25.3400 C   0  0  0  0  0  0  0  0  0  0  0  0
   10.7360   -4.5200   26.1030 C   0  0  0  0  0  0  0  0  0  0  0  0
    8.4230   -4.7140   27.3700 C   0  0  0  0  0  0  0  0  0  0  0  0
    5.9710   -5.5340   24.0320 C   0  0  0  0  0  0  0  0  0  0  0  0
    4.7100   -5.7510   26.0770 C   0  0  0  0  0  0  0  0  0  0  0  0
    9.8170   -4.8750   27.3400 C   0  0  0  0  0  0  0  0  0  0  0  0
    7.6410   -5.0340   28.5440 N   0  0  0  0  0  0  0  0  0  0  0  0
    5.2270   -6.5780   23.4690 C   0  0  0  0  0  0  0  0  0  0  0  0
    3.9810   -6.7880   25.5120 C   0  0  0  0  0  0  0  0  0  0  0  0
    6.8120   -6.2220   28.6090 C   0  0  0  0  0  0  0  0  0  0  0  0
    4.2260   -7.2080   24.2120 C   0  0  0  0  0  0  0  0  0  0  0  0
    5.8730   -6.2710   29.6440 C   0  0  0  0  0  0  0  0  0  0  0  0
    4.9130   -5.3260   29.8450 C   0  0  0  0  0  0  0  0  0  0  0  0
    5.6680   -7.1980   30.6680 C   0  0  0  0  0  0  0  0  0  0  0  0
    4.0310   -5.6340   31.0600 C   0  0  0  0  0  0  0  0  0  0  0  0
    4.6040   -6.8130   31.4730 N   0  0  0  0  0  0  0  0  0  0  0  0
    2.8350   -4.7750   31.6040 C   0  0  0  0  0  0  0  0  0  0  0  0
    4.1120   -7.7370   32.8120 S   0  0  0  0  0  0  0  0  0  0  0  0
    1.8020   -5.3840   32.4990 C   0  0  0  0  0  0  0  0  0  0  0  0
    2.6960   -3.4060   31.2720 C   0  0  0  0  0  0  0  0  0  0  0  0
    5.0780   -8.7990   33.0250 O   0  0  0  0  0  0  0  0  0  0  0  0
    3.7430   -6.8690   33.9080 O   0  0  0  0  0  0  0  0  0  0  0  0
    2.6250   -8.5050   32.2690 C   0  0  0  0  0  0  0  0  0  0  0  0
    0.6360   -4.6180   33.0540 C   0  0  0  0  0  0  0  0  0  0  0  0
    1.6210   -2.6450   31.7660 C   0  0  0  0  0  0  0  0  0  0  0  0
    3.5940   -2.8120   30.4740 F   0  0  0  0  0  0  0  0  0  0  0  0
    1.8750   -9.3310   33.3450 C   0  0  0  0  0  0  0  0  0  0  0  0
    2.2700   -8.2970   30.9240 C   0  0  0  0  0  0  0  0  0  0  0  0
    0.6580   -3.1970   32.5960 C   0  0  0  0  0  0  0  0  0  0  0  0
    0.6640   -9.8080   32.4160 C   0  0  0  0  0  0  0  0  0  0  0  0
    1.1960   -8.7860   30.3100 N   0  0  0  0  0  0  0  0  0  0  0  0
    0.4250   -9.5280   31.0740 C   0  0  0  0  0  0  0  0  0  0  0  0
  1  2  1  0
  2  3  1  0
  3  4  2  0
  3  5  1  0
  5  6  1  0
  5  7  1  0
  6  8  1  0
  7  9  1  0
  8 10  1  0
  8 11  2  0
  9 11  1  0
  9 12  1  6
 10 13  2  0
 11 14  1  0
 12 15  2  0
 12 16  1  0
 13 17  1  0
 14 17  2  0
 14 18  1  0
 15 19  1  0
 16 20  2  0
 18 21  1  0
 19 22  2  0
 20 22  1  0
 21 23  1  0
 23 24  1  0
 23 25  2  0
 24 26  2  0
 25 27  1  0
 26 27  1  0
 26 28  1  0
 27 29  1  0
 28 30  2  0
 28 31  1  0
 29 32  2  0
 29 33  2  0
 29 34  1  0
 30 35  1  0
 31 36  2  0
 31 37  1  0
 34 38  2  0
 34 39  1  0
 35 40  2  0
 36 40  1  0
 38 41  1  0
 39 42  2  0
 41 43  2  0
 42 43  1  0
M  END
