MAK-UNK-8fdbca50-27-nitrile
     RDKit          3D

 38 41  0  0  0  0  0  0  0  0999 V2000
    6.4520   -4.9040   20.8100 C   0  0  0  0  0  0  0  0  0  0  0  0
    5.5510   -5.4610   20.0930 N   0  0  0  0  0  0  0  0  0  0  0  0
    6.1790   -4.3550   22.0980 N   0  0  0  0  0  0  0  0  0  0  0  0
    6.2670   -5.1280   23.3510 C   0  0  0  0  0  0  0  0  0  0  0  0
    5.3610   -3.1300   22.2880 C   0  0  0  0  0  0  0  0  0  0  0  0
    6.5930   -4.1770   24.5360 C   0  0  0  0  0  0  0  0  0  0  0  0
    4.5980   -3.1480   23.4970 C   0  0  0  0  0  0  0  0  0  0  0  0
    5.3730   -3.3510   24.8500 C   0  0  0  0  0  0  0  0  0  0  0  0
    5.4210   -2.0920   25.5870 C   0  0  0  0  0  0  0  0  0  0  0  0
    4.4240   -1.3750   25.5990 O   0  0  0  0  0  0  0  0  0  0  0  0
    6.7150   -1.7190   26.3520 N   0  0  0  0  0  0  0  0  0  0  0  0
    7.5740   -0.6900   25.7020 C   0  0  0  0  0  0  0  0  0  0  0  0
    7.1140   -2.1190   27.7270 C   0  0  0  0  0  0  0  0  0  0  0  0
    7.3230    0.6640   25.9450 C   0  0  0  0  0  0  0  0  0  0  0  0
    8.6220   -0.9630   24.8410 C   0  0  0  0  0  0  0  0  0  0  0  0
    8.1200   -1.2800   28.2190 C   0  0  0  0  0  0  0  0  0  0  0  0
    7.6480   -3.5580   27.7520 C   0  0  0  0  0  0  0  0  0  0  0  0
    8.1790    1.7160   25.2670 C   0  0  0  0  0  0  0  0  0  0  0  0
    9.4150    0.0070   24.1970 C   0  0  0  0  0  0  0  0  0  0  0  0
    8.8850   -2.2510   24.5980 F   0  0  0  0  0  0  0  0  0  0  0  0
    9.2300    1.3560   24.3900 C   0  0  0  0  0  0  0  0  0  0  0  0
   10.4230   -0.5950   23.2800 C   0  0  0  0  0  0  0  0  0  0  0  0
   11.7640   -0.5830   23.1330 C   0  0  0  0  0  0  0  0  0  0  0  0
    9.7360   -1.3470   22.4190 N   0  0  0  0  0  0  0  0  0  0  0  0
   11.9660   -1.5260   22.0020 C   0  0  0  0  0  0  0  0  0  0  0  0
   10.6350   -1.9290   21.6630 C   0  0  0  0  0  0  0  0  0  0  0  0
    8.0290   -1.4730   22.3870 S   0  0  0  0  0  0  0  0  0  0  0  0
   13.2090   -1.8300   21.5270 C   0  0  0  0  0  0  0  0  0  0  0  0
    7.5610   -0.6170   23.4420 O   0  0  0  0  0  0  0  0  0  0  0  0
    7.7120   -2.8830   22.4360 O   0  0  0  0  0  0  0  0  0  0  0  0
    7.3880   -0.6120   20.9720 C   0  0  0  0  0  0  0  0  0  0  0  0
   13.2210   -3.2920   21.3460 N   0  0  0  0  0  0  0  0  0  0  0  0
    6.8290    0.6650   21.1750 C   0  0  0  0  0  0  0  0  0  0  0  0
    7.3910   -1.1070   19.6710 C   0  0  0  0  0  0  0  0  0  0  0  0
   12.1050   -3.8680   20.5970 C   0  0  0  0  0  0  0  0  0  0  0  0
    6.3040    1.3790   20.0990 C   0  0  0  0  0  0  0  0  0  0  0  0
    6.8760   -0.4120   18.6040 N   0  0  0  0  0  0  0  0  0  0  0  0
    6.3470    0.8070   18.8390 C   0  0  0  0  0  0  0  0  0  0  0  0
  1  2  2  3
  1  3  1  0
  3  4  1  0
  3  5  1  0
  4  6  1  0
  5  7  1  0
  6  8  1  0
  7  8  1  0
  8  9  1  0
  9 10  2  0
  9 11  1  0
 11 12  1  0
 11 13  1  0
 12 14  2  0
 12 15  1  0
 13 16  1  0
 13 17  1  0
 14 18  1  0
 15 19  2  0
 15 20  1  0
 18 21  2  0
 19 21  1  0
 19 22  1  0
 22 23  2  0
 22 24  1  0
 23 25  1  0
 24 26  1  0
 25 26  2  0
 24 27  1  0
 25 28  1  0
 27 29  2  0
 27 30  2  0
 27 31  1  0
 28 32  1  0
 31 33  2  0
 31 34  1  0
 32 35  1  0
 33 36  1  0
 34 37  2  0
 36 38  2  0
 37 38  1  0
M  END
