MAK-UNK-8fdbca50-14-nitrile
     RDKit          3D

 38 41  0  0  0  0  0  0  0  0999 V2000
    8.0550   -3.1490   19.9260 C   0  0  0  0  0  0  0  0  0  0  0  0
    7.0660   -2.7510   19.0740 N   0  0  0  0  0  0  0  0  0  0  0  0
    8.8770   -2.3700   21.1400 N   0  0  0  0  0  0  0  0  0  0  0  0
   10.3830   -2.1160   21.5470 C   0  0  0  0  0  0  0  0  0  0  0  0
    8.3680   -1.2860   21.9790 C   0  0  0  0  0  0  0  0  0  0  0  0
   10.9020   -2.5470   22.9190 C   0  0  0  0  0  0  0  0  0  0  0  0
    9.3880   -0.9510   22.9010 C   0  0  0  0  0  0  0  0  0  0  0  0
    9.8570   -2.1300   23.7790 C   0  0  0  0  0  0  0  0  0  0  0  0
    9.0610   -3.2940   23.9660 C   0  0  0  0  0  0  0  0  0  0  0  0
    9.6650   -4.3410   24.1490 O   0  0  0  0  0  0  0  0  0  0  0  0
    7.5580   -3.2430   23.9240 N   0  0  0  0  0  0  0  0  0  0  0  0
    6.8930   -2.3620   24.8970 C   0  0  0  0  0  0  0  0  0  0  0  0
    6.9140   -4.4510   23.3320 C   0  0  1  0  0  0  0  0  0  0  0  0
    8.0260   -5.4890   23.2200 C   0  0  0  0  0  0  0  0  0  0  0  0
    5.8260   -5.1590   24.2000 C   0  0  0  0  0  0  0  0  0  0  0  0
    4.9360   -6.0300   23.3640 C   0  0  0  0  0  0  0  0  0  0  0  0
    5.6150   -5.0840   25.5960 C   0  0  0  0  0  0  0  0  0  0  0  0
    3.8480   -6.7800   24.1130 C   0  0  0  0  0  0  0  0  0  0  0  0
    4.5890   -5.8160   26.2270 C   0  0  0  0  0  0  0  0  0  0  0  0
    3.7230   -6.6450   25.4890 C   0  0  0  0  0  0  0  0  0  0  0  0
    4.3200   -5.8160   27.6090 C   0  0  0  0  0  0  0  0  0  0  0  0
    2.7440   -7.3330   26.0900 F   0  0  0  0  0  0  0  0  0  0  0  0
    3.7040   -6.8580   28.2750 C   0  0  0  0  0  0  0  0  0  0  0  0
    4.5850   -4.8510   28.6120 N   0  0  0  0  0  0  0  0  0  0  0  0
    3.5160   -6.7090   29.6180 C   0  0  0  0  0  0  0  0  0  0  0  0
    4.1230   -5.3330   29.8250 C   0  0  0  0  0  0  0  0  0  0  0  0
    5.3290   -3.3090   28.5960 S   0  0  0  0  0  0  0  0  0  0  0  0
    2.9270   -7.6280   30.4490 C   0  0  0  0  0  0  0  0  0  0  0  0
    6.7430   -3.5500   28.5600 O   0  0  0  0  0  0  0  0  0  0  0  0
    4.7480   -2.6020   29.7190 O   0  0  0  0  0  0  0  0  0  0  0  0
    4.8160   -2.4410   27.1630 C   0  0  0  0  0  0  0  0  0  0  0  0
    1.5500   -7.6560   30.3740 N   0  0  0  0  0  0  0  0  0  0  0  0
    3.9590   -2.9830   26.1990 C   0  0  0  0  0  0  0  0  0  0  0  0
    5.2830   -1.1480   26.9820 C   0  0  0  0  0  0  0  0  0  0  0  0
    1.1510   -8.5760   29.5240 C   0  0  0  0  0  0  0  0  0  0  0  0
    3.6130   -2.2060   25.0980 C   0  0  0  0  0  0  0  0  0  0  0  0
    4.9550   -0.3700   25.9150 N   0  0  0  0  0  0  0  0  0  0  0  0
    4.1260   -0.9140   24.9930 C   0  0  0  0  0  0  0  0  0  0  0  0
  1  2  2  3
  1  3  1  0
  3  4  1  0
  3  5  1  0
  4  6  1  0
  5  7  1  0
  6  8  1  0
  7  8  1  0
  8  9  1  0
  9 10  2  0
  9 11  1  0
 11 12  1  0
 11 13  1  0
 13 14  1  1
 13 15  1  0
 15 16  2  0
 15 17  1  0
 16 18  1  0
 17 19  2  0
 18 20  2  0
 19 20  1  0
 19 21  1  0
 20 22  1  0
 21 23  2  0
 21 24  1  0
 23 25  1  0
 24 26  1  0
 25 26  2  0
 24 27  1  0
 25 28  1  0
 27 29  2  0
 27 30  2  0
 27 31  1  0
 28 32  1  0
 31 33  2  0
 31 34  1  0
 32 35  1  0
 33 36  1  0
 34 37  2  0
 36 38  2  0
 37 38  1  0
M  END
