MAK-UNK-987948f6-1-chloroacetamide
     RDKit          3D

 26 28  0  0  0  0  0  0  0  0999 V2000
    8.4060   -3.9320   20.1300 C   0  0  0  0  0  0  0  0  0  0  0  0
    7.1800   -3.2090   19.6450 C   0  0  0  0  0  0  0  0  0  0  0  0
    6.6170   -3.3320   18.5530 O   0  0  0  0  0  0  0  0  0  0  0  0
    6.6490   -2.3620   20.5500 N   0  0  0  0  0  0  0  0  0  0  0  0
    7.3460   -1.2270   20.9480 C   0  0  0  0  0  0  0  0  0  0  0  0
    5.6510   -2.9280   21.4090 C   0  0  0  0  0  0  0  0  0  0  0  0
    6.8900   -0.0450   20.4350 C   0  0  0  0  0  0  0  0  0  0  0  0
    5.9250   -4.1840   21.9120 C   0  0  2  0  0  0  0  0  0  0  0  0
    6.1750   -0.0150   19.3390 C   0  0  0  0  0  0  0  0  0  0  0  0
    6.9890    1.2890   20.8110 N   0  0  0  0  0  0  0  0  0  0  0  0
    4.9510   -4.3010   22.8890 C   0  0  2  0  0  0  0  0  0  0  0  0
    6.5590   -5.0180   22.3350 N   0  0  0  0  0  0  0  0  0  0  0  0
    5.8220    1.3150   19.0250 C   0  0  0  0  0  0  0  0  0  0  0  0
    6.2820    2.0830   19.8620 O   0  0  0  0  0  0  0  0  0  0  0  0
    3.7450   -3.7900   22.6290 O   0  0  0  0  0  0  0  0  0  0  0  0
    5.3490   -3.6210   24.0130 C   0  0  0  0  0  0  0  0  0  0  0  0
    7.3390   -4.6200   23.3700 C   0  0  0  0  0  0  0  0  0  0  0  0
    5.7530   -6.2220   22.2760 C   0  0  0  0  0  0  0  0  0  0  0  0
    5.0020    1.7230   17.8400 C   0  0  0  0  0  0  0  0  0  0  0  0
    6.6480   -3.7470   24.2450 C   0  0  0  0  0  0  0  0  0  0  0  0
    4.7510   -6.3130   23.4890 C   0  0  0  0  0  0  0  0  0  0  0  0
    3.8670   -6.5950   22.5920 C   0  0  0  0  0  0  0  0  0  0  0  0
    5.7330   -6.0190   24.2900 C   0  0  0  0  0  0  0  0  0  0  0  0
    3.2930   -6.5930   23.8910 C   0  0  0  0  0  0  0  0  0  0  0  0
    5.3530   -5.9680   25.6050 C   0  0  0  0  0  0  0  0  0  0  0  0
    3.9840   -6.3140   25.1650 C   0  0  0  0  0  0  0  0  0  0  0  0
  1  2  1  0
  2  3  2  0
  2  4  1  0
  4  5  1  0
  4  6  1  0
  5  7  1  0
  8  6  1  1
  7  9  1  0
  7 10  2  0
  8 11  1  0
  8 12  1  0
  9 13  2  0
 10 14  1  0
 13 14  1  0
 11 15  1  6
 11 16  1  0
 12 17  1  0
 12 18  1  0
 13 19  1  0
 16 20  1  0
 17 20  1  0
 18 21  1  0
 21 22  2  0
 21 23  1  0
 22 24  1  0
 23 25  2  0
 24 26  2  0
 25 26  1  0
M  END
