MAK-UNK-ec98eaf6-45-chloroacetamide
     RDKit          3D

 22 24  0  0  0  0  0  0  0  0999 V2000
    7.3870   -3.0470   18.7160 C   0  0  0  0  0  0  0  0  0  0  0  0
    6.3840   -3.3400   19.8030 C   0  0  0  0  0  0  0  0  0  0  0  0
    5.3720   -4.0140   19.6030 O   0  0  0  0  0  0  0  0  0  0  0  0
    6.6450   -2.8930   21.0510 N   0  0  0  0  0  0  0  0  0  0  0  0
    7.0850   -1.5230   21.2120 C   0  0  0  0  0  0  0  0  0  0  0  0
    7.5090   -3.6160   21.9990 C   0  0  1  0  0  0  0  0  0  0  0  0
    8.2780   -1.6240   22.1150 C   0  0  2  0  0  0  0  0  0  0  0  0
    8.8980   -2.9700   21.8360 C   0  0  0  0  0  0  0  0  0  0  0  0
    7.1500   -3.1340   23.3490 C   0  0  1  0  0  0  0  0  0  0  0  0
    7.3420   -4.1690   24.4490 C   0  0  0  0  0  0  0  0  0  0  0  0
    7.8490   -1.8950   23.5090 N   0  0  0  0  0  0  0  0  0  0  0  0
    8.1110   -5.4100   23.9820 C   0  0  0  0  0  0  0  0  0  0  0  0
    9.0660   -2.0340   24.2790 C   0  0  0  0  0  0  0  0  0  0  0  0
    7.3630   -6.5270   23.5590 C   0  0  0  0  0  0  0  0  0  0  0  0
    8.9330   -5.9790   25.1530 C   0  0  0  0  0  0  0  0  0  0  0  0
   10.2880   -1.2630   23.8430 C   0  0  0  0  0  0  0  0  0  0  0  0
   10.6780    0.0750   24.3660 C   0  0  0  0  0  0  0  0  0  0  0  0
   11.1620   -1.7900   22.8800 C   0  0  0  0  0  0  0  0  0  0  0  0
   11.7510    0.7730   23.9940 C   0  0  0  0  0  0  0  0  0  0  0  0
   12.3050   -1.1100   22.4480 C   0  0  0  0  0  0  0  0  0  0  0  0
   12.6400    0.1400   22.9600 C   0  0  0  0  0  0  0  0  0  0  0  0
   13.2870   -1.8210   21.2730 Cl  0  0  0  0  0  0  0  0  0  0  0  0
  1  2  1  0
  2  3  2  0
  2  4  1  0
  4  5  1  0
  6  4  1  6
  7  5  1  6
  6  8  1  0
  7  8  1  0
  6  9  1  0
  9 10  1  1
  7 11  1  0
  9 11  1  0
 10 12  1  0
 11 13  1  0
 12 14  1  0
 12 15  1  0
 13 16  1  0
 16 17  2  0
 16 18  1  0
 17 19  1  0
 18 20  2  0
 19 21  2  0
 20 21  1  0
 20 22  1  0
M  END
