MAK-UNK-10799360-7-vinylsulfonamide
     RDKit          3D

 28 31  0  0  0  0  0  0  0  0999 V2000
    6.3280   -5.5180   19.8700 C   0  0  0  0  0  0  0  0  0  0  0  0
    6.2760   -5.2720   21.3710 C   0  0  0  0  0  0  0  0  0  0  0  0
    5.5730   -3.6680   21.3250 S   0  0  0  0  0  0  0  0  0  0  0  0
    4.4800   -3.6600   22.2560 O   0  0  0  0  0  0  0  0  0  0  0  0
    5.3340   -3.3960   19.9090 O   0  0  0  0  0  0  0  0  0  0  0  0
    6.7780   -2.6560   21.9200 N   0  0  0  0  0  0  0  0  0  0  0  0
    8.0800   -2.5590   21.2620 C   0  0  0  0  0  0  0  0  0  0  0  0
    7.0140   -2.6630   23.3740 C   0  0  1  0  0  0  0  0  0  0  0  0
    9.0180   -2.3900   22.4880 C   0  0  2  0  0  0  0  0  0  0  0  0
    8.3680   -3.3440   23.4820 C   0  0  0  0  0  0  0  0  0  0  0  0
    7.3960   -1.2320   23.8370 C   0  0  0  0  0  0  0  0  0  0  0  0
    8.7480   -0.9830   23.1350 C   0  0  2  0  0  0  0  0  0  0  0  0
    8.9340    0.1940   22.1580 C   0  0  0  0  0  0  0  0  0  0  0  0
    8.4290    1.5170   22.6430 N   0  0  0  0  0  0  0  0  0  0  0  0
    8.0830    1.5290   24.0870 C   0  0  0  0  0  0  0  0  0  0  0  0
    7.2300    1.7950   22.1500 C   0  0  0  0  0  0  0  0  0  0  0  0
    6.6610    1.7610   24.5290 C   0  0  0  0  0  0  0  0  0  0  0  0
    6.9240    1.7850   23.4750 C   0  0  0  0  0  0  0  0  0  0  0  0
    5.6480    1.8180   23.4650 C   0  0  0  0  0  0  0  0  0  0  0  0
    6.1680    1.7860   24.7600 C   0  0  0  0  0  0  0  0  0  0  0  0
    5.1450    1.8640   22.1130 C   0  0  0  0  0  0  0  0  0  0  0  0
    4.7050    1.8250   24.6700 C   0  0  0  0  0  0  0  0  0  0  0  0
    4.3720    1.8610   23.3380 C   0  0  0  0  0  0  0  0  0  0  0  0
    3.5950    1.8280   26.0670 S   0  0  0  0  0  0  0  0  0  0  0  0
    5.8270    1.8090   23.5070 C   0  0  0  0  0  0  0  0  0  0  0  0
    2.8560    3.3300   25.9780 N   0  0  0  0  0  0  0  0  0  0  0  0
    4.3780    1.7870   27.2860 O   0  0  0  0  0  0  0  0  0  0  0  0
    2.5780    0.8220   25.8090 O   0  0  0  0  0  0  0  0  0  0  0  0
  1  2  1  0
  3  2  1  0
  3  4  2  0
  3  5  2  0
  3  6  1  0
  6  7  1  0
  6  8  1  0
  9  7  1  6
  8 10  1  0
  9 10  1  0
  8 11  1  6
  9 12  1  0
 11 12  1  0
 12 13  1  6
 13 14  1  0
 14 15  1  0
 14 16  1  0
 15 17  1  0
 16 18  1  0
 17 19  1  0
 18 19  2  0
 18 20  1  0
 19 21  1  0
 20 22  2  0
 21 23  2  0
 22 23  1  0
 22 24  1  0
 23 25  1  0
 24 26  1  0
 24 27  2  0
 24 28  2  0
M  END
