MAK-UNK-69bf97dd-7-vinylsulfonamide
     RDKit          3D

 30 32  0  0  0  0  0  0  0  0999 V2000
    7.5390   -2.9160   18.2850 C   0  0  0  0  0  0  0  0  0  0  0  0
    6.7240   -2.3580   19.4200 C   0  0  0  0  0  0  0  0  0  0  0  0
    5.8740   -3.6380   20.3080 S   0  0  0  0  0  0  0  0  0  0  0  0
    4.8380   -3.0250   21.0150 O   0  0  0  0  0  0  0  0  0  0  0  0
    5.4890   -4.7600   19.5060 O   0  0  0  0  0  0  0  0  0  0  0  0
    6.9090   -4.1450   21.4680 N   0  0  0  0  0  0  0  0  0  0  0  0
    7.7340   -3.1350   22.1590 C   0  0  0  0  0  0  0  0  0  0  0  0
    6.5010   -5.3290   22.2180 C   0  0  0  0  0  0  0  0  0  0  0  0
    6.7150   -2.5270   23.1590 C   0  0  0  0  0  0  0  0  0  0  0  0
    5.8380   -4.8990   23.5170 C   0  0  0  0  0  0  0  0  0  0  0  0
    6.6110   -3.7250   24.1370 C   0  0  0  0  0  0  0  0  0  0  0  0
    5.8300   -3.0840   25.2870 C   0  0  0  0  0  0  0  0  0  0  0  0
    4.6090   -3.0250   25.3130 O   0  0  0  0  0  0  0  0  0  0  0  0
    6.6220   -2.5980   26.3010 N   0  0  0  0  0  0  0  0  0  0  0  0
    7.1930   -1.2490   26.3360 C   0  0  0  0  0  0  0  0  0  0  0  0
    6.2220   -0.3300   27.0320 C   0  0  0  0  0  0  0  0  0  0  0  0
    4.8340   -0.1620   26.4790 C   0  0  0  0  0  0  0  0  0  0  0  0
    6.5260    0.4030   28.2030 C   0  0  0  0  0  0  0  0  0  0  0  0
    3.8640    0.7390   27.1840 C   0  0  0  0  0  0  0  0  0  0  0  0
    5.6120    1.2210   28.8220 C   0  0  0  0  0  0  0  0  0  0  0  0
    8.1010    0.3880   29.0490 S   0  0  0  0  0  0  0  0  0  0  0  0
    4.3290    1.3860   28.3420 C   0  0  0  0  0  0  0  0  0  0  0  0
    8.6280   -0.9510   29.0330 O   0  0  0  0  0  0  0  0  0  0  0  0
    8.8650    1.5240   28.5830 O   0  0  0  0  0  0  0  0  0  0  0  0
    7.7020    0.8010   30.6670 N   0  0  0  0  0  0  0  0  0  0  0  0
    6.7460    0.0720   31.2800 C   0  0  0  0  0  0  0  0  0  0  0  0
    7.7240    2.2660   30.9430 C   0  0  0  0  0  0  0  0  0  0  0  0
    6.7140    0.2230   32.8090 C   0  0  0  0  0  0  0  0  0  0  0  0
    6.5580    2.5590   31.8960 C   0  0  0  0  0  0  0  0  0  0  0  0
    6.8670    1.7130   33.1250 C   0  0  0  0  0  0  0  0  0  0  0  0
  1  2  1  0
  3  2  1  0
  3  4  2  0
  3  5  2  0
  3  6  1  0
  6  7  1  0
  6  8  1  0
  7  9  1  0
  8 10  1  0
  9 11  1  0
 10 11  1  0
 11 12  1  0
 12 13  2  0
 12 14  1  0
 14 15  1  0
 15 16  1  0
 16 17  2  0
 16 18  1  0
 17 19  1  0
 18 20  2  0
 21 18  1  0
 19 22  2  0
 20 22  1  0
 21 23  2  0
 21 24  2  0
 21 25  1  0
 25 26  1  0
 25 27  1  0
 26 28  1  0
 27 29  1  0
 28 30  1  0
 29 30  1  0
M  END
