MAK-UNK-72659d64-8-bromoalkyne
     RDKit          3D

 13 13  0  0  0  0  0  0  0  0999 V2000
    7.4590   -3.2970   19.4260 C   0  0  0  0  0  0  0  0  0  0  0  0
    6.2440   -2.9570   18.5870 C   0  0  0  0  0  0  0  0  0  0  0  0
    7.2600   -3.6820   20.6750 N   0  0  0  0  0  0  0  0  0  0  0  0
    7.8330   -2.9400   21.7810 C   0  0  0  0  0  0  0  0  0  0  0  0
    5.9600   -4.2200   20.8320 C   0  0  0  0  0  0  0  0  0  0  0  0
    5.7260   -4.7120   22.2010 C   0  0  0  0  0  0  0  0  0  0  0  0
    5.0440   -6.0380   22.4430 C   0  0  0  0  0  0  0  0  0  0  0  0
    6.1100   -3.9600   23.2900 N   0  0  0  0  0  0  0  0  0  0  0  0
    4.8340   -6.4020   23.8860 C   0  0  0  0  0  0  0  0  0  0  0  0
    5.8680   -4.3840   24.5340 C   0  0  0  0  0  0  0  0  0  0  0  0
    5.2490   -5.5650   24.9060 N   0  0  0  0  0  0  0  0  0  0  0  0
    6.2560   -3.5670   25.6070 C   0  0  0  0  0  0  0  0  0  0  0  0
    5.6480   -3.8900   26.8960 N   0  0  0  0  0  0  0  0  0  0  0  0
  1  2  2  3
  1  3  1  0
  3  4  1  0
  3  5  1  0
  5  6  1  0
  6  7  2  0
  6  8  1  0
  7  9  1  0
  8 10  2  0
  9 11  2  0
 10 11  1  0
 10 12  1  0
 12 13  3  0
M  END
