MAK-UNK-10dfa458-36
     RDKit          3D

 19 20  0  0  0  0  0  0  0  0999 V2000
    7.1120   -1.7510   19.3730 C   0  0  0  0  0  0  0  0  0  0  0  0
    7.2930   -2.8130   20.1660 C   0  0  0  0  0  0  0  0  0  0  0  0
    6.2290   -3.8670   20.4600 C   0  0  0  0  0  0  0  0  0  0  0  0
    5.6640   -4.5060   19.5830 O   0  0  0  0  0  0  0  0  0  0  0  0
    5.8360   -4.1070   21.7540 N   0  0  0  0  0  0  0  0  0  0  0  0
    6.5030   -4.8090   22.8340 C   0  0  0  0  0  0  0  0  0  0  0  0
    4.6210   -3.6360   22.1600 N   0  0  0  0  0  0  0  0  0  0  0  0
    5.4900   -4.6850   23.9380 C   0  0  0  0  0  0  0  0  0  0  0  0
    4.4300   -3.9760   23.4230 C   0  0  0  0  0  0  0  0  0  0  0  0
    5.6950   -5.2460   25.2250 C   0  0  0  0  0  0  0  0  0  0  0  0
    6.1990   -5.5220   26.2200 N   0  0  0  0  0  0  0  0  0  0  0  0
    5.6830   -5.0480   27.4120 C   0  0  0  0  0  0  0  0  0  0  0  0
    5.5120   -3.8500   27.6310 O   0  0  0  0  0  0  0  0  0  0  0  0
    5.3060   -5.9190   28.4280 C   0  0  0  0  0  0  0  0  0  0  0  0
    4.3550   -6.9210   28.2410 C   0  0  0  0  0  0  0  0  0  0  0  0
    5.8690   -5.8230   29.7120 C   0  0  0  0  0  0  0  0  0  0  0  0
    4.0410   -7.7290   29.3210 C   0  0  0  0  0  0  0  0  0  0  0  0
    5.6180   -6.4970   30.6430 N   0  0  0  0  0  0  0  0  0  0  0  0
    4.7060   -7.4740   30.5110 C   0  0  0  0  0  0  0  0  0  0  0  0
  1  2  2  3
  2  3  1  0
  3  4  2  0
  3  5  1  0
  5  6  1  0
  5  7  1  0
  6  8  2  0
  7  9  2  0
  8  9  1  0
  8 10  1  0
 10 11  1  0
 11 12  1  0
 12 13  2  0
 12 14  1  0
 14 15  2  0
 14 16  1  0
 15 17  1  0
 16 18  2  0
 17 19  2  0
 18 19  1  0
M  END
