MAK-UNK-ec98eaf6-14-bromoalkyne
     RDKit          3D

 20 22  0  0  0  0  0  0  0  0999 V2000
    7.0570   -3.3900   19.7300 C   0  0  0  0  0  0  0  0  0  0  0  0
    5.8230   -3.0620   18.9520 C   0  0  0  0  0  0  0  0  0  0  0  0
    7.1950   -3.3150   21.1050 N   0  0  0  0  0  0  0  0  0  0  0  0
    6.1380   -3.2040   22.1780 C   0  0  0  0  0  0  0  0  0  0  0  0
    8.4100   -2.8610   21.8110 C   0  0  2  0  0  0  0  0  0  0  0  0
    7.1310   -3.1770   23.4010 C   0  0  1  0  0  0  0  0  0  0  0  0
    8.3700   -3.8680   22.9660 C   0  0  0  0  0  0  0  0  0  0  0  0
    8.1800   -1.5520   22.1680 C   0  0  0  0  0  0  0  0  0  0  0  0
    7.8100   -1.8540   23.5800 N   0  0  0  0  0  0  0  0  0  0  0  0
    8.9950   -1.9120   24.4570 C   0  0  0  0  0  0  0  0  0  0  0  0
   10.0410   -1.1930   23.9110 C   0  0  0  0  0  0  0  0  0  0  0  0
   11.0330   -1.8280   23.0920 C   0  0  0  0  0  0  0  0  0  0  0  0
   10.1680    0.2980   24.1350 C   0  0  0  0  0  0  0  0  0  0  0  0
   12.1930   -1.0790   22.4490 C   0  0  0  0  0  0  0  0  0  0  0  0
   11.2010    0.9860   23.5560 C   0  0  0  0  0  0  0  0  0  0  0  0
   13.3100   -1.8580   21.4710 Cl  0  0  0  0  0  0  0  0  0  0  0  0
   12.2880    0.4000   22.7050 C   0  0  0  0  0  0  0  0  0  0  0  0
   11.5470    2.4440   23.5560 C   0  0  0  0  0  0  0  0  0  0  0  0
   11.1800    3.0430   22.3160 O   0  0  0  0  0  0  0  0  0  0  0  0
   12.1130    4.0390   21.9070 C   0  0  0  0  0  0  0  0  0  0  0  0
  1  2  2  3
  1  3  1  0
  3  4  1  0
  3  5  1  0
  6  4  1  6
  5  7  1  0
  6  7  1  0
  5  8  1  1
  6  9  1  0
  8  9  1  0
  9 10  1  0
 10 11  1  0
 11 12  2  0
 11 13  1  0
 12 14  1  0
 13 15  2  0
 14 16  1  0
 14 17  2  0
 15 17  1  0
 15 18  1  0
 18 19  1  0
 19 20  1  0
M  END
