MAK-UNK-ec98eaf6-16-chloroacetamide
     RDKit          3D

 22 24  0  0  0  0  0  0  0  0999 V2000
    7.1910   -3.0290   18.9320 C   0  0  0  0  0  0  0  0  0  0  0  0
    6.2500   -3.4330   20.0190 C   0  0  0  0  0  0  0  0  0  0  0  0
    5.3060   -4.1880   19.7640 O   0  0  0  0  0  0  0  0  0  0  0  0
    6.4870   -2.9860   21.2970 N   0  0  0  0  0  0  0  0  0  0  0  0
    6.8910   -3.8020   22.4910 C   0  0  0  0  0  0  0  0  0  0  0  0
    6.9030   -1.6110   21.6460 C   0  0  1  0  0  0  0  0  0  0  0  0
    7.1300   -2.6240   23.4760 C   0  0  2  0  0  0  0  0  0  0  0  0
    6.2270   -1.5020   23.0200 C   0  0  0  0  0  0  0  0  0  0  0  0
    8.2970   -1.6270   21.7340 C   0  0  0  0  0  0  0  0  0  0  0  0
    8.3750   -1.8390   23.2080 N   0  0  0  0  0  0  0  0  0  0  0  0
    9.6870   -2.3070   23.6970 C   0  0  0  0  0  0  0  0  0  0  0  0
   10.6170   -1.2840   23.4750 C   0  0  0  0  0  0  0  0  0  0  0  0
   10.2150    0.0860   23.6180 C   0  0  0  0  0  0  0  0  0  0  0  0
   11.9490   -1.5300   23.0980 C   0  0  0  0  0  0  0  0  0  0  0  0
   11.3040    1.0930   23.3180 C   0  0  0  0  0  0  0  0  0  0  0  0
   12.8510   -0.5190   22.8490 C   0  0  0  0  0  0  0  0  0  0  0  0
   12.4770   -2.7730   22.9470 C   0  0  0  0  0  0  0  0  0  0  0  0
   10.7580    2.5030   23.4690 C   0  0  0  0  0  0  0  0  0  0  0  0
   12.5660    0.8350   22.9500 N   0  0  0  0  0  0  0  0  0  0  0  0
   13.6490   -2.9100   23.7070 N   0  0  0  0  0  0  0  0  0  0  0  0
    9.3090    2.2220   23.7750 C   0  0  0  0  0  0  0  0  0  0  0  0
    8.6990    3.3720   24.3520 O   0  0  0  0  0  0  0  0  0  0  0  0
  1  2  1  0
  2  3  2  0
  2  4  1  0
  4  5  1  0
  4  6  1  0
  7  5  1  6
  6  8  1  0
  7  8  1  0
  6  9  1  1
  7 10  1  0
  9 10  1  0
 10 11  1  0
 11 12  1  0
 12 13  2  0
 12 14  1  0
 13 15  1  0
 14 16  2  0
 14 17  1  0
 15 18  1  0
 15 19  2  0
 16 19  1  0
 17 20  3  0
 18 21  1  0
 21 22  1  0
M  END
