MAK-UNK-ec98eaf6-48-vinylsulfonamide
     RDKit          3D

 26 28  0  0  0  0  0  0  0  0999 V2000
    6.1560   -5.9050   19.8470 C   0  0  0  0  0  0  0  0  0  0  0  0
    5.8450   -4.5930   20.4720 C   0  0  0  0  0  0  0  0  0  0  0  0
    5.2990   -5.1110   22.0930 S   0  0  0  0  0  0  0  0  0  0  0  0
    4.2100   -4.3010   22.5600 O   0  0  0  0  0  0  0  0  0  0  0  0
    5.2960   -6.5410   22.2540 O   0  0  0  0  0  0  0  0  0  0  0  0
    6.6040   -4.5460   22.8980 N   0  0  0  0  0  0  0  0  0  0  0  0
    6.8100   -3.1830   22.5660 C   0  0  0  0  0  0  0  0  0  0  0  0
    7.9510   -5.1920   22.7300 C   0  0  1  0  0  0  0  0  0  0  0  0
    8.2500   -3.0150   22.8720 C   0  0  2  0  0  0  0  0  0  0  0  0
    8.7830   -4.0950   22.0030 C   0  0  0  0  0  0  0  0  0  0  0  0
    8.5130   -5.0330   24.0950 C   0  0  0  0  0  0  0  0  0  0  0  0
    8.5540   -3.5680   24.3560 C   0  0  2  0  0  0  0  0  0  0  0  0
    7.5820   -2.9960   25.3420 C   0  0  0  0  0  0  0  0  0  0  0  0
    7.6540   -1.5480   25.3400 N   0  0  0  0  0  0  0  0  0  0  0  0
    8.6150   -1.0180   24.3730 C   0  0  0  0  0  0  0  0  0  0  0  0
    6.2350   -0.6140   25.5980 S   0  0  0  0  0  0  0  0  0  0  0  0
    9.8290   -1.7070   24.4610 C   0  0  0  0  0  0  0  0  0  0  0  0
    5.3060   -0.8480   24.0880 C   0  0  0  0  0  0  0  0  0  0  0  0
    5.4960   -1.2440   26.6670 O   0  0  0  0  0  0  0  0  0  0  0  0
    6.6380    0.7780   25.6750 O   0  0  0  0  0  0  0  0  0  0  0  0
   10.9180   -1.0810   23.9280 C   0  0  0  0  0  0  0  0  0  0  0  0
   11.1730    0.3440   24.1360 C   0  0  0  0  0  0  0  0  0  0  0  0
   11.8490   -1.7860   23.1460 C   0  0  0  0  0  0  0  0  0  0  0  0
   12.3470    0.9790   23.5500 C   0  0  0  0  0  0  0  0  0  0  0  0
   12.9650   -1.0840   22.6160 C   0  0  0  0  0  0  0  0  0  0  0  0
   13.2100    0.2920   22.8230 C   0  0  0  0  0  0  0  0  0  0  0  0
  1  2  1  0
  3  2  1  0
  3  4  2  0
  3  5  2  0
  3  6  1  0
  6  7  1  0
  6  8  1  0
  9  7  1  1
  8 10  1  0
  9 10  1  0
  8 11  1  1
  9 12  1  0
 11 12  1  0
 12 13  1  1
 13 14  1  0
 14 15  1  0
 16 14  1  0
 15 17  1  0
 16 18  1  0
 16 19  2  0
 16 20  2  0
 17 21  1  0
 21 22  2  0
 21 23  1  0
 22 24  1  0
 23 25  2  0
 24 26  2  0
 25 26  1  0
M  END
