MAK-UNK-198e6d85-15
     RDKit          3D

 24 26  0  0  0  0  0  0  0  0999 V2000
    9.6320   -5.5120   27.8140 N   0  0  0  0  0  0  0  0  0  0  0  0
    9.8850   -4.7180   26.7780 C   0  0  0  0  0  0  0  0  0  0  0  0
    9.8650   -4.0780   25.3970 C   0  0  2  0  0  0  0  0  0  0  0  0
    9.5370   -4.7320   24.4260 O   0  0  0  0  0  0  0  0  0  0  0  0
   11.0400   -3.2290   24.9970 C   0  0  0  0  0  0  0  0  0  0  0  0
    9.0540   -3.9800   23.3810 C   0  0  1  0  0  0  0  0  0  0  0  0
   10.6930   -2.3580   24.0000 C   0  0  0  0  0  0  0  0  0  0  0  0
   12.4700   -3.2720   25.5610 C   0  0  0  0  0  0  0  0  0  0  0  0
    7.6490   -4.3980   22.9590 C   0  0  1  0  0  0  0  0  0  0  0  0
    9.3700   -2.5040   23.6100 C   0  0  0  0  0  0  0  0  0  0  0  0
   13.4260   -2.2590   24.9170 C   0  0  0  0  0  0  0  0  0  0  0  0
   11.5670   -1.4390   23.4180 C   0  0  0  0  0  0  0  0  0  0  0  0
    7.0590   -5.3610   23.9760 C   0  0  2  0  0  0  0  0  0  0  0  0
    6.7370   -3.4530   22.4990 C   0  0  2  0  0  0  0  0  0  0  0  0
   12.9010   -1.3650   23.8440 C   0  0  0  0  0  0  0  0  0  0  0  0
   11.0630   -0.6470   22.4360 O   0  0  0  0  0  0  0  0  0  0  0  0
    8.0220   -5.5530   25.0260 O   0  0  0  0  0  0  0  0  0  0  0  0
    6.9420   -5.9230   22.5770 C   0  0  1  0  0  0  0  0  0  0  0  0
    5.6980   -4.0720   21.8380 C   0  0  2  0  0  0  0  0  0  0  0  0
    7.2980   -2.4840   21.6090 O   0  0  0  0  0  0  0  0  0  0  0  0
   13.5620   -0.4120   23.1470 O   0  0  0  0  0  0  0  0  0  0  0  0
    6.7950   -7.1430   22.6060 O   0  0  0  0  0  0  0  0  0  0  0  0
    5.8290   -5.4510   21.8750 C   0  0  0  0  0  0  0  0  0  0  0  0
    5.6540   -3.6010   20.5590 O   0  0  0  0  0  0  0  0  0  0  0  0
  1  2  1  0
  3  2  1  1
  3  4  1  0
  3  5  1  0
  4  6  1  0
  5  7  2  0
  5  8  1  0
  9  6  1  1
  6 10  1  1
  7 10  1  0
  8 11  2  0
  7 12  1  0
  9 13  1  0
  9 14  1  0
 11 15  1  0
 12 15  2  0
 12 16  1  0
 13 17  1  1
 13 18  1  0
 14 19  1  0
 14 20  1  6
 15 21  1  0
 18 22  1  1
 18 23  1  0
 19 23  1  0
 19 24  1  6
M  END
