MAK-UNK-8fdbca50-20-nitrile
     RDKit          3D

 38 41  0  0  0  0  0  0  0  0999 V2000
    8.2670   -3.3410   20.1220 C   0  0  0  0  0  0  0  0  0  0  0  0
    6.9880   -3.2520   19.5110 N   0  0  0  0  0  0  0  0  0  0  0  0
    9.1490   -2.4560   21.2620 N   0  0  0  0  0  0  0  0  0  0  0  0
    8.7960   -1.2720   22.1900 C   0  0  0  0  0  0  0  0  0  0  0  0
   10.6910   -2.3910   21.4170 C   0  0  0  0  0  0  0  0  0  0  0  0
    9.1930   -1.4460   23.6630 C   0  0  0  0  0  0  0  0  0  0  0  0
   11.3010   -2.2850   22.6600 C   0  0  0  0  0  0  0  0  0  0  0  0
   10.2970   -2.4250   23.8030 C   0  0  0  0  0  0  0  0  0  0  0  0
    9.8760   -3.7590   23.9550 C   0  0  0  0  0  0  0  0  0  0  0  0
   10.5520   -4.5630   24.5370 O   0  0  0  0  0  0  0  0  0  0  0  0
    8.5110   -4.0320   23.3680 N   0  0  0  0  0  0  0  0  0  0  0  0
    7.7270   -2.8160   23.1120 C   0  0  0  0  0  0  0  0  0  0  0  0
    7.9580   -5.3790   23.5270 C   0  0  0  0  0  0  0  0  0  0  0  0
    6.0790   -2.4020   23.5940 S   0  0  0  0  0  0  0  0  0  0  0  0
    7.1150   -5.8260   22.3320 C   0  0  0  0  0  0  0  0  0  0  0  0
    9.1810   -6.2820   23.6160 C   0  0  0  0  0  0  0  0  0  0  0  0
    4.9340   -2.9350   24.3040 O   0  0  0  0  0  0  0  0  0  0  0  0
    5.7930   -3.9150   24.3810 C   0  0  0  0  0  0  0  0  0  0  0  0
    5.3480   -0.9510   23.2510 N   0  0  0  0  0  0  0  0  0  0  0  0
    5.3800   -5.3270   24.8440 C   0  0  0  0  0  0  0  0  0  0  0  0
    5.0920   -3.9250   23.0960 C   0  0  0  0  0  0  0  0  0  0  0  0
    4.8480   -0.6140   21.9330 C   0  0  0  0  0  0  0  0  0  0  0  0
    5.1280    0.0820   24.0560 C   0  0  0  0  0  0  0  0  0  0  0  0
    4.5930   -6.3370   24.2640 C   0  0  0  0  0  0  0  0  0  0  0  0
    4.2830   -4.8720   22.4250 N   0  0  0  0  0  0  0  0  0  0  0  0
    4.2930    0.7570   22.0250 C   0  0  0  0  0  0  0  0  0  0  0  0
    4.4900    1.1560   23.3850 C   0  0  0  0  0  0  0  0  0  0  0  0
    5.5090    0.0790   25.4260 C   0  0  0  0  0  0  0  0  0  0  0  0
    4.0250   -6.0610   22.9750 C   0  0  0  0  0  0  0  0  0  0  0  0
    3.7410    1.3520   20.8930 C   0  0  0  0  0  0  0  0  0  0  0  0
    5.8620   -1.1110   26.0860 C   0  0  0  0  0  0  0  0  0  0  0  0
    5.5400    1.2890   26.1480 C   0  0  0  0  0  0  0  0  0  0  0  0
    4.8940    1.5760   20.0170 N   0  0  0  0  0  0  0  0  0  0  0  0
    6.2320   -1.0710   27.4320 C   0  0  0  0  0  0  0  0  0  0  0  0
    5.9100    1.3210   27.4910 C   0  0  0  0  0  0  0  0  0  0  0  0
    5.2120    2.4510   25.5610 F   0  0  0  0  0  0  0  0  0  0  0  0
    4.6010    1.1770   18.6500 C   0  0  0  0  0  0  0  0  0  0  0  0
    6.2550    0.1380   28.1320 C   0  0  0  0  0  0  0  0  0  0  0  0
  1  2  2  3
  1  3  1  0
  3  4  1  0
  3  5  1  0
  4  6  1  0
  5  7  1  0
  6  8  1  0
  7  8  1  0
  8  9  1  0
  9 10  2  0
  9 11  1  0
 11 12  1  0
 11 13  1  0
 12 14  2  0
 13 15  1  0
 13 16  1  0
 14 17  2  0
 14 18  1  0
 14 19  1  0
 18 20  2  0
 18 21  1  0
 19 22  1  0
 19 23  1  0
 20 24  1  0
 21 25  2  0
 22 26  2  0
 23 27  2  0
 26 27  1  0
 23 28  1  0
 24 29  2  0
 25 29  1  0
 26 30  1  0
 28 31  2  0
 28 32  1  0
 30 33  1  0
 31 34  1  0
 32 35  2  0
 32 36  1  0
 33 37  1  0
 34 38  2  0
 35 38  1  0
M  END
