MAK-UNK-6ca90168-10-vinylsulfonamide
     RDKit          3D

 21 22  0  0  0  0  0  0  0  0999 V2000
    8.4870   -4.2250   20.8430 C   0  0  0  0  0  0  0  0  0  0  0  0
    7.0530   -4.7330   21.0590 C   0  0  0  0  0  0  0  0  0  0  0  0
    6.2340   -4.1660   22.5290 S   0  0  0  0  0  0  0  0  0  0  0  0
    4.8130   -4.0120   22.0930 O   0  0  0  0  0  0  0  0  0  0  0  0
    6.6310   -5.0640   23.5950 O   0  0  0  0  0  0  0  0  0  0  0  0
    6.8460   -2.7040   23.0430 N   0  0  0  0  0  0  0  0  0  0  0  0
    5.9570   -1.5590   23.0980 C   0  0  0  0  0  0  0  0  0  0  0  0
    8.1570   -2.3410   22.5480 C   0  0  0  0  0  0  0  0  0  0  0  0
    5.4200   -1.5860   21.6380 C   0  0  0  0  0  0  0  0  0  0  0  0
    7.9250   -1.5070   21.3160 C   0  0  0  0  0  0  0  0  0  0  0  0
    6.5800   -1.7300   20.7190 N   0  0  0  0  0  0  0  0  0  0  0  0
    6.2870   -2.1350   19.3120 C   0  0  0  0  0  0  0  0  0  0  0  0
    5.4640   -2.9100   19.8110 O   0  0  0  0  0  0  0  0  0  0  0  0
    7.3770   -1.0640   19.2250 C   0  0  0  0  0  0  0  0  0  0  0  0
    6.5830    0.2170   19.5810 C   0  0  0  0  0  0  0  0  0  0  0  0
    5.2520    0.2400   18.7270 C   0  0  0  0  0  0  0  0  0  0  0  0
    6.9120    1.4250   20.6220 C   0  0  0  0  0  0  0  0  0  0  0  0
    4.2550    1.3900   18.8710 C   0  0  0  0  0  0  0  0  0  0  0  0
    5.9890    2.4830   20.7550 C   0  0  0  0  0  0  0  0  0  0  0  0
    8.1820    1.3620   21.4000 C   0  0  0  0  0  0  0  0  0  0  0  0
    5.4460    1.5420   19.7510 C   0  0  0  0  0  0  0  0  0  0  0  0
  1  2  1  0
  3  2  1  0
  3  4  2  0
  3  5  2  0
  3  6  1  0
  6  7  1  0
  6  8  1  0
  7  9  1  0
  8 10  1  0
  9 11  1  0
 10 11  1  0
 11 12  1  0
 12 13  2  0
 12 14  1  0
 14 15  1  0
 15 16  2  0
 15 17  1  0
 16 18  1  0
 17 19  2  0
 17 20  1  0
 18 21  2  0
 19 21  1  0
M  END
