MAK-UNK-8fdbca50-11-bromoalkyne
     RDKit          3D

 38 41  0  0  0  0  0  0  0  0999 V2000
    8.6200   -5.0600   20.2900 C   0  0  0  0  0  0  0  0  0  0  0  0
    7.1770   -5.4820   19.8380 C   0  0  0  0  0  0  0  0  0  0  0  0
    8.5370   -3.8240   20.9470 N   0  0  0  0  0  0  0  0  0  0  0  0
    7.4790   -2.8660   20.6190 C   0  0  0  0  0  0  0  0  0  0  0  0
    9.5840   -3.1740   21.7430 C   0  0  0  0  0  0  0  0  0  0  0  0
    6.8590   -2.3050   21.8700 C   0  0  0  0  0  0  0  0  0  0  0  0
    9.1350   -1.8230   22.3190 C   0  0  0  0  0  0  0  0  0  0  0  0
    7.7070   -1.8440   22.8970 C   0  0  0  0  0  0  0  0  0  0  0  0
    7.4490   -0.6060   23.4950 C   0  0  0  0  0  0  0  0  0  0  0  0
    7.5730    0.4310   22.8480 O   0  0  0  0  0  0  0  0  0  0  0  0
    7.0220   -0.6670   24.9400 N   0  0  0  0  0  0  0  0  0  0  0  0
    7.2370    0.5990   25.7170 C   0  0  0  0  0  0  0  0  0  0  0  0
    5.7800   -1.4450   25.2520 C   0  0  2  0  0  0  0  0  0  0  0  0
    4.8320   -0.5660   25.8600 C   0  0  0  0  0  0  0  0  0  0  0  0
    6.1350   -2.5360   26.2630 C   0  0  0  0  0  0  0  0  0  0  0  0
    7.0840   -3.4740   25.5240 C   0  0  0  0  0  0  0  0  0  0  0  0
    8.4590   -3.2460   25.3690 C   0  0  0  0  0  0  0  0  0  0  0  0
    6.4580   -4.5890   25.0020 C   0  0  0  0  0  0  0  0  0  0  0  0
    9.3030   -4.2340   24.6020 C   0  0  0  0  0  0  0  0  0  0  0  0
    7.2710   -5.4750   24.2910 C   0  0  0  0  0  0  0  0  0  0  0  0
    5.1030   -4.8760   25.1400 C   0  0  0  0  0  0  0  0  0  0  0  0
    8.6450   -5.3390   24.0770 C   0  0  0  0  0  0  0  0  0  0  0  0
    4.2200   -5.0410   24.0920 C   0  0  0  0  0  0  0  0  0  0  0  0
    4.3400   -5.0670   26.2850 N   0  0  0  0  0  0  0  0  0  0  0  0
    2.9380   -5.3300   24.5360 C   0  0  0  0  0  0  0  0  0  0  0  0
    3.0400   -5.3390   25.9340 C   0  0  0  0  0  0  0  0  0  0  0  0
    4.8630   -4.9990   27.9190 S   0  0  0  0  0  0  0  0  0  0  0  0
    1.8360   -5.5550   23.7170 C   0  0  0  0  0  0  0  0  0  0  0  0
    4.2440   -3.8220   28.4880 O   0  0  0  0  0  0  0  0  0  0  0  0
    4.6050   -6.3090   28.4830 O   0  0  0  0  0  0  0  0  0  0  0  0
    6.5970   -4.7910   27.8600 C   0  0  0  0  0  0  0  0  0  0  0  0
    1.4930   -6.9610   23.9470 N   0  0  0  0  0  0  0  0  0  0  0  0
    7.1720   -3.6310   28.3640 C   0  0  0  0  0  0  0  0  0  0  0  0
    7.3530   -5.8050   27.3010 C   0  0  0  0  0  0  0  0  0  0  0  0
    2.3770   -7.8030   23.2940 C   0  0  0  0  0  0  0  0  0  0  0  0
    8.6860   -3.5450   28.2670 C   0  0  0  0  0  0  0  0  0  0  0  0
    8.6990   -5.8000   27.1750 N   0  0  0  0  0  0  0  0  0  0  0  0
    9.3590   -4.7290   27.6330 C   0  0  0  0  0  0  0  0  0  0  0  0
  1  2  2  3
  1  3  1  0
  3  4  1  0
  3  5  1  0
  4  6  1  0
  5  7  1  0
  6  8  1  0
  7  8  1  0
  8  9  1  0
  9 10  2  0
  9 11  1  0
 11 12  1  0
 11 13  1  0
 13 14  1  1
 13 15  1  0
 15 16  1  0
 16 17  2  0
 16 18  1  0
 17 19  1  0
 18 20  2  0
 18 21  1  0
 19 22  2  0
 20 22  1  0
 21 23  2  0
 21 24  1  0
 23 25  1  0
 24 26  1  0
 25 26  2  0
 24 27  1  0
 25 28  1  0
 27 29  2  0
 27 30  2  0
 27 31  1  0
 28 32  1  0
 31 33  2  0
 31 34  1  0
 32 35  1  0
 33 36  1  0
 34 37  2  0
 36 38  2  0
 37 38  1  0
M  END
