MAK-UNK-c8c8f7e2-9
     RDKit          3D

 16 17  0  0  0  0  0  0  0  0999 V2000
    6.6860    0.6640   18.6950 C   0  0  0  0  0  0  0  0  0  0  0  0
    7.2920    0.7580   20.0750 C   0  0  0  0  0  0  0  0  0  0  0  0
    7.2700    1.7950   20.7350 O   0  0  0  0  0  0  0  0  0  0  0  0
    7.8730   -0.4150   20.5080 N   0  0  0  0  0  0  0  0  0  0  0  0
    7.0950   -1.6290   20.4040 C   0  0  0  0  0  0  0  0  0  0  0  0
    6.0670   -1.7450   19.3040 C   0  0  0  0  0  0  0  0  0  0  0  0
    7.2970   -2.7550   21.3400 N   0  0  0  0  0  0  0  0  0  0  0  0
    5.3080   -3.0240   19.2160 C   0  0  0  0  0  0  0  0  0  0  0  0
    6.5040   -3.9960   21.1950 C   0  0  0  0  0  0  0  0  0  0  0  0
    5.5630   -4.1420   20.1860 C   0  0  0  0  0  0  0  0  0  0  0  0
    6.6640   -5.0200   22.0420 N   0  0  0  0  0  0  0  0  0  0  0  0
    5.5760   -5.7960   22.2340 C   0  0  0  0  0  0  0  0  0  0  0  0
    7.0630   -4.7260   23.3040 C   0  0  0  0  0  0  0  0  0  0  0  0
    4.9390   -5.4690   23.4580 C   0  0  0  0  0  0  0  0  0  0  0  0
    5.9520   -4.7330   24.1580 C   0  0  0  0  0  0  0  0  0  0  0  0
    8.2670   -4.4250   23.8430 O   0  0  0  0  0  0  0  0  0  0  0  0
  1  2  1  0
  2  3  2  0
  2  4  1  0
  4  5  1  0
  5  6  2  0
  5  7  1  0
  6  8  1  0
  7  9  2  0
  8 10  2  0
  9 10  1  0
  9 11  1  0
 11 12  1  0
 11 13  1  0
 12 14  1  0
 13 15  1  0
 14 15  1  0
 13 16  2  0
M  END
