MAK-UNK-516d8086-25-chloroacetamide
     RDKit          3D

 24 26  0  0  0  0  0  0  0  0999 V2000
    7.5160   -3.6810   19.9140 C   0  0  0  0  0  0  0  0  0  0  0  0
    6.7360   -4.5390   20.5810 C   0  0  0  0  0  0  0  0  0  0  0  0
    5.7120   -5.0260   20.0730 O   0  0  0  0  0  0  0  0  0  0  0  0
    7.1130   -4.9440   21.9690 C   0  0  0  0  0  0  0  0  0  0  0  0
    6.0200   -5.3500   22.9550 C   0  0  0  0  0  0  0  0  0  0  0  0
    8.4250   -4.9810   22.4550 C   0  0  0  0  0  0  0  0  0  0  0  0
    6.3240   -5.7280   24.2840 N   0  0  0  0  0  0  0  0  0  0  0  0
    8.7200   -5.3640   23.7830 C   0  0  0  0  0  0  0  0  0  0  0  0
    7.7320   -5.7100   24.6620 C   0  0  0  0  0  0  0  0  0  0  0  0
    9.9970   -5.4020   24.1710 C   0  0  0  0  0  0  0  0  0  0  0  0
    8.1020   -6.0880   26.0520 N   0  0  0  0  0  0  0  0  0  0  0  0
   10.3410   -5.0340   25.5080 C   0  0  0  0  0  0  0  0  0  0  0  0
    7.8660   -5.0370   27.0550 C   0  0  0  0  0  0  0  0  0  0  0  0
   11.1330   -3.9240   25.2780 C   0  0  0  0  0  0  0  0  0  0  0  0
    8.9470   -4.9720   27.9520 C   0  0  0  0  0  0  0  0  0  0  0  0
   12.5720   -3.3950   25.6110 C   0  0  0  0  0  0  0  0  0  0  0  0
   10.3470   -3.1800   24.5400 C   0  0  0  0  0  0  0  0  0  0  0  0
   12.9350   -2.0090   25.0230 C   0  0  0  0  0  0  0  0  0  0  0  0
   10.7180   -2.0400   24.0820 C   0  0  0  0  0  0  0  0  0  0  0  0
   11.8400   -1.3420   24.1930 C   0  0  0  0  0  0  0  0  0  0  0  0
    9.6690   -1.4390   23.2860 C   0  0  0  0  0  0  0  0  0  0  0  0
    8.5830   -1.9340   23.0750 O   0  0  0  0  0  0  0  0  0  0  0  0
   10.2760   -0.2810   22.9120 N   0  0  0  0  0  0  0  0  0  0  0  0
   11.6480   -0.1850   23.4850 C   0  0  0  0  0  0  0  0  0  0  0  0
  1  2  1  0
  2  3  2  0
  2  4  1  0
  4  5  2  0
  4  6  1  0
  5  7  1  0
  6  8  2  0
  7  9  2  0
  8  9  1  0
  8 10  1  0
  9 11  1  0
 10 12  1  0
 11 13  1  0
 12 14  1  0
 13 15  1  0
 14 16  2  0
 14 17  1  0
 16 18  1  0
 17 19  2  0
 18 20  2  0
 19 20  1  0
 19 21  1  0
 21 22  2  0
 21 23  1  0
 20 24  1  0
 23 24  1  0
M  END
