MAK-UNK-849bee6c-7-acrylamide
     RDKit          3D

 25 27  0  0  0  0  0  0  0  0999 V2000
    7.9860   -3.3990   19.6910 C   0  0  0  0  0  0  0  0  0  0  0  0
    6.8880   -2.6480   19.0150 C   0  0  0  0  0  0  0  0  0  0  0  0
    5.8700   -2.9950   20.0100 C   0  0  0  0  0  0  0  0  0  0  0  0
    5.0540   -3.8860   19.7620 O   0  0  0  0  0  0  0  0  0  0  0  0
    6.0260   -2.2860   21.1970 N   0  0  0  0  0  0  0  0  0  0  0  0
    5.9180   -3.0270   22.4350 C   0  0  0  0  0  0  0  0  0  0  0  0
    6.9920   -1.1620   21.2950 C   0  0  0  0  0  0  0  0  0  0  0  0
    7.2800   -3.4190   22.9840 C   0  0  0  0  0  0  0  0  0  0  0  0
    8.3720   -1.5890   21.8670 C   0  0  0  0  0  0  0  0  0  0  0  0
    8.1510   -2.2580   23.1580 N   0  0  0  0  0  0  0  0  0  0  0  0
    9.2060   -2.2300   24.0710 C   0  0  0  0  0  0  0  0  0  0  0  0
   10.3800   -1.3070   23.7640 C   0  0  0  0  0  0  0  0  0  0  0  0
   11.7340   -1.8000   23.4200 C   0  0  0  0  0  0  0  0  0  0  0  0
   10.1980    0.0890   23.8040 C   0  0  0  0  0  0  0  0  0  0  0  0
   12.7730   -0.9120   23.1510 C   0  0  0  0  0  0  0  0  0  0  0  0
   11.2610    0.9740   23.5220 C   0  0  0  0  0  0  0  0  0  0  0  0
   12.5200    0.4540   23.2060 C   0  0  0  0  0  0  0  0  0  0  0  0
   11.0370    2.4280   23.5460 C   0  0  0  0  0  0  0  0  0  0  0  0
    9.8520    2.9670   24.0570 C   0  0  0  0  0  0  0  0  0  0  0  0
   11.9940    3.3340   23.0470 C   0  0  0  0  0  0  0  0  0  0  0  0
    9.6710    4.3380   24.0530 N   0  0  0  0  0  0  0  0  0  0  0  0
   11.8730    4.6760   23.0210 N   0  0  0  0  0  0  0  0  0  0  0  0
   10.7110    5.1710   23.5240 C   0  0  0  0  0  0  0  0  0  0  0  0
   10.4880    6.5920   23.5370 C   0  0  0  0  0  0  0  0  0  0  0  0
    9.2970    7.2220   23.4380 N   0  0  0  0  0  0  0  0  0  0  0  0
  1  2  1  0
  2  3  1  0
  3  4  2  0
  3  5  1  0
  5  6  1  0
  5  7  1  0
  6  8  1  0
  7  9  1  0
  8 10  1  0
  9 10  1  0
 10 11  1  0
 11 12  1  0
 12 13  2  0
 12 14  1  0
 13 15  1  0
 14 16  2  0
 15 17  2  0
 16 17  1  0
 16 18  1  0
 18 19  2  0
 18 20  1  0
 19 21  1  0
 20 22  2  0
 21 23  2  0
 22 23  1  0
 23 24  1  0
 24 25  3  0
M  END
