MAK-UNK-5d2caa6f-10-acrylamide
     RDKit          3D

 21 24  0  0  0  0  0  0  0  0999 V2000
    8.6830   -3.8880   20.2260 C   0  0  0  0  0  0  0  0  0  0  0  0
    7.4780   -3.1260   19.6000 C   0  0  0  0  0  0  0  0  0  0  0  0
    6.2050   -3.4370   20.3970 C   0  0  0  0  0  0  0  0  0  0  0  0
    5.1990   -4.0850   19.9520 O   0  0  0  0  0  0  0  0  0  0  0  0
    6.2140   -2.9620   21.7020 N   0  0  0  0  0  0  0  0  0  0  0  0
    4.9640   -2.6690   22.2220 C   0  0  0  0  0  0  0  0  0  0  0  0
    7.2010   -2.4210   22.6870 C   0  0  1  0  0  0  0  0  0  0  0  0
    5.4670   -2.7090   23.6460 C   0  0  2  0  0  0  0  0  0  0  0  0
    7.5740   -3.3990   23.8440 C   0  0  1  0  0  0  0  0  0  0  0  0
    8.4910   -2.0340   22.2610 C   0  0  0  0  0  0  0  0  0  0  0  0
    6.3320   -1.5770   23.5880 C   0  0  0  0  0  0  0  0  0  0  0  0
    6.3210   -3.8920   23.9270 C   0  0  0  0  0  0  0  0  0  0  0  0
    8.5400   -4.0120   23.0670 C   0  0  0  0  0  0  0  0  0  0  0  0
    9.3130   -3.0690   22.5880 N   0  0  0  0  0  0  0  0  0  0  0  0
   10.4070   -2.9440   23.3360 C   0  0  0  0  0  0  0  0  0  0  0  0
   10.7580   -3.9350   24.2970 O   0  0  0  0  0  0  0  0  0  0  0  0
   11.2720   -1.8960   23.2320 C   0  0  0  0  0  0  0  0  0  0  0  0
   12.2470   -1.8340   22.2550 C   0  0  0  0  0  0  0  0  0  0  0  0
   11.4090   -0.7160   24.0010 N   0  0  0  0  0  0  0  0  0  0  0  0
   12.9780   -0.6100   22.4430 C   0  0  0  0  0  0  0  0  0  0  0  0
   12.4620    0.0640   23.5030 C   0  0  0  0  0  0  0  0  0  0  0  0
  1  2  1  0
  2  3  1  0
  3  4  2  0
  3  5  1  0
  5  6  1  0
  7  5  1  0
  8  6  1  6
  7  9  1  0
  7 10  1  6
  7 11  1  0
  8 11  1  0
  8 12  1  0
  9 12  1  6
  9 13  1  0
 10 14  1  0
 13 14  1  0
 14 15  1  0
 15 16  2  0
 15 17  1  0
 17 18  2  0
 17 19  1  0
 18 20  1  0
 19 21  1  0
 20 21  2  0
M  END
