MAK-UNK-c8c8f7e2-27
     RDKit          3D

 16 17  0  0  0  0  0  0  0  0999 V2000
    5.1540   -6.4880   22.3810 C   0  0  0  0  0  0  0  0  0  0  0  0
    6.0840   -6.1000   21.2710 C   0  0  0  0  0  0  0  0  0  0  0  0
    7.2870   -6.3030   21.3800 O   0  0  0  0  0  0  0  0  0  0  0  0
    5.5150   -5.4530   20.1980 N   0  0  0  0  0  0  0  0  0  0  0  0
    5.6260   -4.0590   20.5120 C   0  0  0  0  0  0  0  0  0  0  0  0
    5.2610   -2.8760   19.6110 C   0  0  0  0  0  0  0  0  0  0  0  0
    6.1240   -3.8780   21.7400 C   0  0  0  0  0  0  0  0  0  0  0  0
    5.5130   -1.4900   20.2260 C   0  0  0  0  0  0  0  0  0  0  0  0
    6.3440   -2.6620   22.2700 C   0  0  0  0  0  0  0  0  0  0  0  0
    6.0910   -1.4340   21.6390 C   0  0  0  0  0  0  0  0  0  0  0  0
    6.8430   -2.8790   23.4920 N   0  0  0  0  0  0  0  0  0  0  0  0
    6.2490   -2.2810   24.5410 C   0  0  0  0  0  0  0  0  0  0  0  0
    7.0310   -4.1950   23.8820 C   0  0  0  0  0  0  0  0  0  0  0  0
    5.7280   -3.2380   25.4360 C   0  0  0  0  0  0  0  0  0  0  0  0
    5.9300   -4.4490   24.7440 C   0  0  1  0  0  0  0  0  0  0  0  0
    4.9090   -4.7940   24.1740 O   0  0  0  0  0  0  0  0  0  0  0  0
  1  2  1  0
  2  3  2  0
  2  4  1  0
  4  5  1  0
  5  6  2  0
  5  7  1  0
  6  8  1  0
  7  9  2  0
  8 10  2  0
  9 10  1  0
  9 11  1  0
 11 12  1  0
 11 13  1  0
 12 14  1  0
 13 15  1  0
 14 15  1  0
 15 16  1  6
M  END
