MAK-UNK-8fdbca50-24-acrylamide
     RDKit          3D

 40 43  0  0  0  0  0  0  0  0999 V2000
    6.7860   -5.5870   20.4900 C   0  0  0  0  0  0  0  0  0  0  0  0
    6.4960   -4.8340   21.7700 C   0  0  0  0  0  0  0  0  0  0  0  0
    6.1780   -3.4310   21.3680 C   0  0  0  0  0  0  0  0  0  0  0  0
    4.9620   -3.1850   21.0320 O   0  0  0  0  0  0  0  0  0  0  0  0
    7.2980   -2.5240   21.3710 N   0  0  0  0  0  0  0  0  0  0  0  0
    8.7000   -2.9290   21.8020 C   0  0  0  0  0  0  0  0  0  0  0  0
    7.0700   -1.1170   21.6720 C   0  0  0  0  0  0  0  0  0  0  0  0
    8.9880   -2.5680   23.1160 C   0  0  0  0  0  0  0  0  0  0  0  0
    7.3120   -0.8570   23.0180 C   0  0  0  0  0  0  0  0  0  0  0  0
    8.7080   -1.2640   23.5050 C   0  0  0  0  0  0  0  0  0  0  0  0
    8.6500   -1.2820   24.8390 C   0  0  0  0  0  0  0  0  0  0  0  0
    7.6890   -1.8410   25.3870 O   0  0  0  0  0  0  0  0  0  0  0  0
    9.7350   -0.5500   25.5460 N   0  0  0  0  0  0  0  0  0  0  0  0
   10.8240    0.0290   24.6580 C   0  0  0  0  0  0  0  0  0  0  0  0
    9.0330    0.1130   26.6320 C   0  0  0  0  0  0  0  0  0  0  0  0
   11.0140    1.1740   24.1970 C   0  0  0  0  0  0  0  0  0  0  0  0
   12.1100   -0.1400   23.8410 C   0  0  0  0  0  0  0  0  0  0  0  0
    7.6840   -0.0420   26.7090 C   0  0  0  0  0  0  0  0  0  0  0  0
    9.5110   -0.0900   28.0210 C   0  0  0  0  0  0  0  0  0  0  0  0
   12.1470    0.4000   23.6630 C   0  0  0  0  0  0  0  0  0  0  0  0
   12.9570   -1.1750   23.6160 C   0  0  0  0  0  0  0  0  0  0  0  0
   11.9900   -1.1800   24.2310 C   0  0  0  0  0  0  0  0  0  0  0  0
   13.2500   -2.8690   24.0360 S   0  0  0  0  0  0  0  0  0  0  0  0
   11.9600   -3.4890   24.2080 O   0  0  0  0  0  0  0  0  0  0  0  0
   14.2700   -3.0210   25.0730 O   0  0  0  0  0  0  0  0  0  0  0  0
   13.9480   -3.3640   22.6250 N   0  0  0  0  0  0  0  0  0  0  0  0
   14.9850   -4.3350   22.3240 C   0  0  0  0  0  0  0  0  0  0  0  0
   13.6170   -2.8970   21.5360 C   0  0  0  0  0  0  0  0  0  0  0  0
   15.5460   -4.7610   21.0740 C   0  0  0  0  0  0  0  0  0  0  0  0
   14.4920   -3.6150   20.4910 C   0  0  0  0  0  0  0  0  0  0  0  0
   12.5800   -1.9570   21.6470 C   0  0  0  0  0  0  0  0  0  0  0  0
   16.0840   -5.1690   19.8740 C   0  0  0  0  0  0  0  0  0  0  0  0
   11.0580   -2.3130   21.6860 C   0  0  0  0  0  0  0  0  0  0  0  0
   12.7340   -0.6400   21.7860 C   0  0  0  0  0  0  0  0  0  0  0  0
   15.7210   -6.3760   19.5080 N   0  0  0  0  0  0  0  0  0  0  0  0
    9.8260   -1.3870   21.8190 C   0  0  0  0  0  0  0  0  0  0  0  0
   11.6830   -1.4640   21.7320 C   0  0  0  0  0  0  0  0  0  0  0  0
   13.9930   -0.6850   21.7480 F   0  0  0  0  0  0  0  0  0  0  0  0
   14.7580   -6.2890   20.2520 C   0  0  0  0  0  0  0  0  0  0  0  0
   10.8460   -0.5340   21.8530 C   0  0  0  0  0  0  0  0  0  0  0  0
  1  2  1  0
  2  3  1  0
  3  4  2  0
  3  5  1  0
  5  6  1  0
  5  7  1  0
  6  8  1  0
  7  9  1  0
  8 10  1  0
  9 10  1  0
 10 11  1  0
 11 12  2  0
 11 13  1  0
 13 14  1  0
 13 15  1  0
 14 16  2  0
 14 17  1  0
 15 18  1  0
 15 19  1  0
 16 20  1  0
 17 21  2  0
 20 22  2  0
 21 22  1  0
 23 21  1  0
 23 24  2  0
 23 25  2  0
 23 26  1  0
 26 27  1  0
 26 28  1  0
 27 29  2  0
 28 30  2  0
 29 30  1  0
 28 31  1  0
 29 32  1  0
 31 33  2  0
 31 34  1  0
 32 35  1  0
 33 36  1  0
 34 37  2  0
 34 38  1  0
 35 39  1  0
 36 40  2  0
 37 40  1  0
M  END
