MAK-UNK-acefcb18-5
     RDKit          3D

 22 24  0  0  0  0  0  0  0  0999 V2000
    7.4210   -4.2480   25.3710 C   0  0  0  0  0  0  0  0  0  0  0  0
    8.3870   -4.6900   26.4460 C   0  0  0  0  0  0  0  0  0  0  0  0
    9.8260   -4.3090   26.2280 C   0  0  0  0  0  0  0  0  0  0  0  0
    8.0200   -5.3870   27.5420 C   0  0  0  0  0  0  0  0  0  0  0  0
   10.8360   -4.7570   27.3210 C   0  0  0  0  0  0  0  0  0  0  0  0
    8.8920   -5.7990   28.5300 C   0  0  0  0  0  0  0  0  0  0  0  0
   10.5240   -5.6010   28.7100 C   0  0  0  0  0  0  0  0  0  0  0  0
   12.0200   -6.3950   30.4690 O   0  0  0  0  0  0  0  0  0  0  0  0
   12.9450   -8.3650   31.6470 C   0  0  1  0  0  0  0  0  0  0  0  0
   13.0770   -8.5690   33.2830 C   0  0  2  0  0  0  0  0  0  0  0  0
   12.7260   -9.9470   31.4960 C   0  0  2  0  0  0  0  0  0  0  0  0
   13.0220   -7.3930   34.1040 O   0  0  0  0  0  0  0  0  0  0  0  0
   14.1050   -9.1500   33.6660 O   0  0  0  0  0  0  0  0  0  0  0  0
   12.7020  -10.7660   32.6330 C   0  0  2  0  0  0  0  0  0  0  0  0
   13.9630  -10.4050   30.9590 O   0  0  0  0  0  0  0  0  0  0  0  0
   14.0320  -10.5460   33.3680 C   0  0  2  0  0  0  0  0  0  0  0  0
   12.6830  -12.0550   31.9980 O   0  0  0  0  0  0  0  0  0  0  0  0
   14.2300  -11.4200   34.6140 C   0  0  0  0  0  0  0  0  0  0  0  0
   13.2720  -11.7230   35.5770 C   0  0  0  0  0  0  0  0  0  0  0  0
   15.4930  -12.0090   34.8690 C   0  0  0  0  0  0  0  0  0  0  0  0
   13.7270  -12.5360   36.5930 C   0  0  0  0  0  0  0  0  0  0  0  0
   15.4440  -12.9880   36.4000 S   0  0  0  0  0  0  0  0  0  0  0  0
  1  2  1  0
  2  3  2  0
  2  4  1  0
  3  5  1  0
  4  6  2  0
  5  7  2  0
  6  7  1  0
  7  8  1  0
  9  8  1  1
  9 10  1  0
  9 11  1  0
 10 12  1  1
 10 13  1  0
 11 14  1  0
 11 15  1  6
 13 16  1  0
 14 16  1  0
 14 17  1  6
 16 18  1  1
 18 19  1  0
 18 20  2  0
 19 21  2  0
 20 22  1  0
 21 22  1  0
M  END
