MAK-UNK-212f693e-22
     RDKit          3D

 16 17  0  0  0  0  0  0  0  0999 V2000
    6.6180   -2.1010   19.6140 C   0  0  0  0  0  0  0  0  0  0  0  0
    7.0960   -3.0000   20.7540 C   0  0  0  0  0  0  0  0  0  0  0  0
    6.1590   -4.2060   20.8900 C   0  0  0  0  0  0  0  0  0  0  0  0
    5.2980   -4.4230   20.0350 O   0  0  0  0  0  0  0  0  0  0  0  0
    6.4500   -4.9880   22.0230 N   0  0  0  0  0  0  0  0  0  0  0  0
    5.2800   -5.7810   22.4330 C   0  0  0  0  0  0  0  0  0  0  0  0
    7.1080   -4.3970   23.0820 C   0  0  0  0  0  0  0  0  0  0  0  0
    4.1560   -4.8940   22.9510 C   0  0  0  0  0  0  0  0  0  0  0  0
    6.1520   -4.1230   24.0620 C   0  0  0  0  0  0  0  0  0  0  0  0
    5.1870   -5.1430   24.0320 C   0  0  0  0  0  0  0  0  0  0  0  0
    4.6150   -5.0400   25.1320 O   0  0  0  0  0  0  0  0  0  0  0  0
    3.6780   -4.0370   25.3330 C   0  0  0  0  0  0  0  0  0  0  0  0
    3.8620   -2.5250   25.6500 C   0  0  0  0  0  0  0  0  0  0  0  0
    2.3080   -4.2960   25.2690 C   0  0  0  0  0  0  0  0  0  0  0  0
    2.5720   -1.7860   25.7930 C   0  0  0  0  0  0  0  0  0  0  0  0
    1.2650   -2.8570   25.5670 S   0  0  0  0  0  0  0  0  0  0  0  0
  1  2  3  0
  2  3  1  0
  3  4  2  0
  3  5  1  0
  5  6  1  0
  5  7  1  0
  6  8  1  0
  7  9  1  0
  8 10  1  0
  9 10  1  0
 10 11  1  0
 11 12  1  0
 12 13  1  0
 12 14  2  0
 13 15  2  0
 14 16  1  0
 15 16  1  0
M  END
