MAK-UNK-148caf23-11-bromoalkyne
     RDKit          3D

 34 37  0  0  0  0  0  0  0  0999 V2000
    7.8120   -3.4000   19.9430 C   0  0  0  0  0  0  0  0  0  0  0  0
    7.4690   -2.6520   18.6590 C   0  0  0  0  0  0  0  0  0  0  0  0
    9.1110   -2.9930   20.8390 C   0  0  0  0  0  0  0  0  0  0  0  0
    9.5260   -2.2580   22.1230 C   0  0  0  0  0  0  0  0  0  0  0  0
    8.8140   -2.3110   21.9030 C   0  0  0  0  0  0  0  0  0  0  0  0
    8.8770   -1.4180   23.4240 C   0  0  0  0  0  0  0  0  0  0  0  0
    9.1720   -1.6720   23.0280 N   0  0  0  0  0  0  0  0  0  0  0  0
    9.9530   -1.1650   24.0100 C   0  0  0  0  0  0  0  0  0  0  0  0
    9.4990   -0.5070   25.1370 N   0  0  0  0  0  0  0  0  0  0  0  0
    8.5310   -1.2110   25.9920 C   0  0  0  0  0  0  0  0  0  0  0  0
    8.0360   -0.3580   26.9500 C   0  0  0  0  0  0  0  0  0  0  0  0
    7.5320   -1.6710   27.3090 C   0  0  0  0  0  0  0  0  0  0  0  0
    7.3460    0.2400   28.1190 C   0  0  0  0  0  0  0  0  0  0  0  0
    7.7900   -3.0040   26.5320 C   0  0  0  0  0  0  0  0  0  0  0  0
    6.7650   -1.8030   28.3910 C   0  0  0  0  0  0  0  0  0  0  0  0
    6.6080   -0.6480   28.9380 N   0  0  0  0  0  0  0  0  0  0  0  0
    7.4120    1.7190   28.4040 C   0  0  0  0  0  0  0  0  0  0  0  0
    7.9740   -4.2250   27.3560 N   0  0  0  0  0  0  0  0  0  0  0  0
    5.7110   -0.1990   30.3380 S   0  0  0  0  0  0  0  0  0  0  0  0
    7.6380    3.0960   28.7580 C   0  0  0  0  0  0  0  0  0  0  0  0
    8.6430    1.1980   28.9770 C   0  0  0  0  0  0  0  0  0  0  0  0
    8.6890   -5.2650   26.8430 C   0  0  0  0  0  0  0  0  0  0  0  0
    5.2300   -1.4160   30.9630 O   0  0  0  0  0  0  0  0  0  0  0  0
    4.7700    0.8080   29.8970 O   0  0  0  0  0  0  0  0  0  0  0  0
    6.8700    0.5440   31.4450 C   0  0  0  0  0  0  0  0  0  0  0  0
    8.6490    3.7920   29.4150 C   0  0  0  0  0  0  0  0  0  0  0  0
    9.7110    1.8090   29.6520 C   0  0  0  0  0  0  0  0  0  0  0  0
    8.8320   -0.1240   28.8540 F   0  0  0  0  0  0  0  0  0  0  0  0
    8.2200    0.2280   31.4340 C   0  0  0  0  0  0  0  0  0  0  0  0
    6.4600    1.4850   32.3780 C   0  0  0  0  0  0  0  0  0  0  0  0
    9.7250    3.1410   29.8800 C   0  0  0  0  0  0  0  0  0  0  0  0
    9.2610    0.7350   32.2470 C   0  0  0  0  0  0  0  0  0  0  0  0
    7.3120    2.1000   33.2680 N   0  0  0  0  0  0  0  0  0  0  0  0
    8.6560    1.7800   33.2470 C   0  0  0  0  0  0  0  0  0  0  0  0
  1  2  2  3
  1  3  1  0
  3  4  2  0
  3  5  1  0
  4  6  1  0
  5  7  2  0
  6  8  2  0
  7  8  1  0
  8  9  1  0
  9 10  1  0
 10 11  1  0
 11 12  1  0
 11 13  2  0
 12 14  1  0
 12 15  2  0
 13 16  1  0
 15 16  1  0
 13 17  1  0
 14 18  1  0
 16 19  1  0
 17 20  2  0
 17 21  1  0
 18 22  1  0
 19 23  2  0
 19 24  2  0
 19 25  1  0
 20 26  1  0
 21 27  2  0
 21 28  1  0
 25 29  2  0
 25 30  1  0
 26 31  2  0
 27 31  1  0
 29 32  1  0
 30 33  2  0
 32 34  2  0
 33 34  1  0
M  END
