MAK-UNK-148caf23-9-vinylsulfonamide
     RDKit          3D

 37 40  0  0  0  0  0  0  0  0999 V2000
    8.0150   -3.3430   19.3400 C   0  0  0  0  0  0  0  0  0  0  0  0
    6.9810   -2.2770   19.4510 C   0  0  0  0  0  0  0  0  0  0  0  0
    6.4450   -2.3060   21.1160 S   0  0  0  0  0  0  0  0  0  0  0  0
    5.2150   -3.4610   21.1320 O   0  0  0  0  0  0  0  0  0  0  0  0
    5.8760   -0.9810   21.2310 O   0  0  0  0  0  0  0  0  0  0  0  0
    8.0410   -1.9500   22.2030 C   0  0  0  0  0  0  0  0  0  0  0  0
    9.5690   -2.6130   22.0750 C   0  0  0  0  0  0  0  0  0  0  0  0
    7.7890   -0.9610   23.2070 C   0  0  0  0  0  0  0  0  0  0  0  0
   10.4950   -1.9160   23.3000 C   0  0  0  0  0  0  0  0  0  0  0  0
    8.9220   -1.3000   23.3230 N   0  0  0  0  0  0  0  0  0  0  0  0
    9.8290   -1.0670   24.0330 C   0  0  0  0  0  0  0  0  0  0  0  0
    9.9680   -0.2250   25.1580 N   0  0  0  0  0  0  0  0  0  0  0  0
    8.6650   -0.1500   25.8650 C   0  0  0  0  0  0  0  0  0  0  0  0
    8.7900    0.4930   27.0770 C   0  0  1  0  0  0  0  0  0  0  0  0
    8.3100    1.7540   26.6640 C   0  0  0  0  0  0  0  0  0  0  0  0
    7.7580   -0.1530   28.0010 C   0  0  0  0  0  0  0  0  0  0  0  0
    7.6240    0.2940   29.4800 C   0  0  0  0  0  0  0  0  0  0  0  0
    7.3100    1.7440   29.4640 C   0  0  0  0  0  0  0  0  0  0  0  0
    7.6670   -0.0830   30.8280 C   0  0  0  0  0  0  0  0  0  0  0  0
    7.1820    2.1470   30.7500 C   0  0  0  0  0  0  0  0  0  0  0  0
    7.3860    1.0860   31.6040 N   0  0  0  0  0  0  0  0  0  0  0  0
    6.8810    3.4580   31.1350 C   0  0  0  0  0  0  0  0  0  0  0  0
    7.3240    1.0900   33.3170 S   0  0  0  0  0  0  0  0  0  0  0  0
    5.6250    3.6590   31.7810 C   0  0  0  0  0  0  0  0  0  0  0  0
    7.8180    4.4530   30.8600 C   0  0  0  0  0  0  0  0  0  0  0  0
    6.6020    2.2900   33.6900 O   0  0  0  0  0  0  0  0  0  0  0  0
    6.8340   -0.2120   33.7200 O   0  0  0  0  0  0  0  0  0  0  0  0
    8.9840    1.2340   33.8640 C   0  0  0  0  0  0  0  0  0  0  0  0
    5.3170    5.1460   32.2000 C   0  0  0  0  0  0  0  0  0  0  0  0
    7.6100    5.7610   31.1970 C   0  0  0  0  0  0  0  0  0  0  0  0
    8.9670    4.1390   30.2460 F   0  0  0  0  0  0  0  0  0  0  0  0
    9.8680    2.1550   33.4040 C   0  0  0  0  0  0  0  0  0  0  0  0
    9.5290    0.4290   34.8110 C   0  0  0  0  0  0  0  0  0  0  0  0
    6.4340    6.1340   31.8360 C   0  0  0  0  0  0  0  0  0  0  0  0
   11.1790    2.2260   33.8820 C   0  0  0  0  0  0  0  0  0  0  0  0
   10.8110    0.5550   35.2300 N   0  0  0  0  0  0  0  0  0  0  0  0
   11.8250    1.4250   34.8680 C   0  0  0  0  0  0  0  0  0  0  0  0
  1  2  1  0
  3  2  1  0
  3  4  2  0
  3  5  2  0
  3  6  1  0
  6  7  2  0
  6  8  1  0
  7  9  1  0
  8 10  2  0
  9 11  2  0
 10 11  1  0
 11 12  1  0
 12 13  1  0
 13 14  1  0
 14 15  1  6
 14 16  1  0
 16 17  1  0
 17 18  1  0
 17 19  2  0
 18 20  2  0
 19 21  1  0
 20 21  1  0
 20 22  1  0
 21 23  1  0
 22 24  2  0
 22 25  1  0
 23 26  2  0
 23 27  2  0
 23 28  1  0
 24 29  1  0
 25 30  2  0
 25 31  1  0
 28 32  2  0
 28 33  1  0
 29 34  2  0
 30 34  1  0
 32 35  1  0
 33 36  2  0
 35 37  2  0
 36 37  1  0
M  END
