MAK-UNK-72659d64-2-chloroacetamide
     RDKit          3D

 13 13  0  0  0  0  0  0  0  0999 V2000
    7.7040   -3.6880   20.5330 C   0  0  0  0  0  0  0  0  0  0  0  0
    6.3510   -4.3320   20.7330 C   0  0  0  0  0  0  0  0  0  0  0  0
    5.4750   -4.4590   19.8790 O   0  0  0  0  0  0  0  0  0  0  0  0
    6.0810   -4.7740   22.0280 N   0  0  0  0  0  0  0  0  0  0  0  0
    4.7170   -4.5100   22.3930 C   0  0  0  0  0  0  0  0  0  0  0  0
    4.4330   -4.3200   23.8720 C   0  0  0  0  0  0  0  0  0  0  0  0
    5.2330   -5.0440   24.9150 C   0  0  0  0  0  0  0  0  0  0  0  0
    3.3930   -3.4500   24.3490 C   0  0  0  0  0  0  0  0  0  0  0  0
    4.7360   -4.7280   26.2450 N   0  0  0  0  0  0  0  0  0  0  0  0
    3.0450   -3.2340   25.6250 N   0  0  0  0  0  0  0  0  0  0  0  0
    3.6860   -3.8640   26.5060 C   0  0  0  0  0  0  0  0  0  0  0  0
    3.2730   -3.6660   27.9250 C   0  0  0  0  0  0  0  0  0  0  0  0
    2.9450   -3.5190   29.0290 N   0  0  0  0  0  0  0  0  0  0  0  0
  1  2  1  0
  2  3  2  0
  2  4  1  0
  4  5  1  0
  5  6  1  0
  6  7  2  0
  6  8  1  0
  7  9  1  0
  8 10  2  0
  9 11  2  0
 10 11  1  0
 11 12  1  0
 12 13  3  0
M  END
