MAK-UNK-e4a48a85-7-vinylsulfonamide
     RDKit          3D

 31 33  0  0  0  0  0  0  0  0999 V2000
    7.9380   -3.4030   19.6120 C   0  0  0  0  0  0  0  0  0  0  0  0
    6.9460   -2.6260   18.8220 C   0  0  0  0  0  0  0  0  0  0  0  0
    5.5850   -2.8150   19.8630 S   0  0  0  0  0  0  0  0  0  0  0  0
    5.1700   -4.2010   19.8960 O   0  0  0  0  0  0  0  0  0  0  0  0
    4.7010   -1.8090   19.4550 O   0  0  0  0  0  0  0  0  0  0  0  0
    6.2940   -2.3240   21.2960 N   0  0  0  0  0  0  0  0  0  0  0  0
    7.3070   -1.2500   21.2440 C   0  0  0  0  0  0  0  0  0  0  0  0
    6.1540   -3.1120   22.5290 C   0  0  0  0  0  0  0  0  0  0  0  0
    8.4740   -1.6440   21.9170 C   0  0  0  0  0  0  0  0  0  0  0  0
    7.3820   -3.4740   23.1130 C   0  0  0  0  0  0  0  0  0  0  0  0
    8.3870   -2.3890   23.0900 N   0  0  0  0  0  0  0  0  0  0  0  0
    9.3910   -2.3020   24.0460 C   0  0  0  0  0  0  0  0  0  0  0  0
   10.5120   -1.3560   23.7530 C   0  0  0  0  0  0  0  0  0  0  0  0
   11.7860   -1.7470   23.3880 C   0  0  0  0  0  0  0  0  0  0  0  0
   10.2950    0.0200   23.8340 C   0  0  0  0  0  0  0  0  0  0  0  0
   12.8300   -0.8720   23.1040 C   0  0  0  0  0  0  0  0  0  0  0  0
   11.2980    0.9400   23.5570 C   0  0  0  0  0  0  0  0  0  0  0  0
   12.5660    0.4950   23.1950 C   0  0  0  0  0  0  0  0  0  0  0  0
   10.9530    2.3930   23.6560 C   0  0  0  0  0  0  0  0  0  0  0  0
   12.0050    3.5560   22.9590 S   0  0  0  0  0  0  0  0  0  0  0  0
   10.7940    4.8960   22.7490 C   0  0  0  0  0  0  0  0  0  0  0  0
   10.2160    5.4020   24.0400 C   0  0  0  0  0  0  0  0  0  0  0  0
    9.3100    4.5550   24.6020 O   0  0  0  0  0  0  0  0  0  0  0  0
   10.5420    6.6450   24.6130 C   0  0  0  0  0  0  0  0  0  0  0  0
    9.4130    7.4000   24.9280 N   0  0  0  0  0  0  0  0  0  0  0  0
    8.8080    8.3900   24.1690 C   0  0  0  0  0  0  0  0  0  0  0  0
    9.3740    7.7820   26.2960 C   0  0  0  0  0  0  0  0  0  0  0  0
    7.3120    8.6220   24.2180 C   0  0  0  0  0  0  0  0  0  0  0  0
    8.4380    8.7140   26.4940 C   0  0  0  0  0  0  0  0  0  0  0  0
    7.9350    9.3820   25.3790 C   0  0  0  0  0  0  0  0  0  0  0  0
    8.9210   10.2860   24.8780 O   0  0  0  0  0  0  0  0  0  0  0  0
  1  2  1  0
  3  2  1  0
  3  4  2  0
  3  5  2  0
  3  6  1  0
  6  7  1  0
  6  8  1  0
  7  9  1  0
  8 10  1  0
  9 11  1  0
 10 11  1  0
 11 12  1  0
 12 13  1  0
 13 14  2  0
 13 15  1  0
 14 16  1  0
 15 17  2  0
 16 18  2  0
 17 18  1  0
 17 19  1  0
 19 20  1  0
 20 21  1  0
 21 22  1  0
 22 23  2  0
 22 24  1  0
 24 25  1  0
 25 26  1  0
 25 27  1  0
 26 28  1  0
 27 29  1  0
 28 30  1  0
 29 30  1  0
 30 31  1  0
M  END
