MAK-UNK-10799360-34-bromoalkyne
     RDKit          3D

 24 27  0  0  0  0  0  0  0  0999 V2000
    6.6740   -4.1370   20.2450 C   0  0  0  0  0  0  0  0  0  0  0  0
    5.6150   -3.4360   19.4850 C   0  0  0  0  0  0  0  0  0  0  0  0
    7.3280   -3.3720   21.1400 N   0  0  0  0  0  0  0  0  0  0  0  0
    6.6130   -2.2420   21.7870 C   0  0  0  0  0  0  0  0  0  0  0  0
    8.4630   -2.6960   20.6240 C   0  0  1  0  0  0  0  0  0  0  0  0
    7.1840   -0.9730   21.1110 C   0  0  2  0  0  0  0  0  0  0  0  0
    7.6770   -1.6270   19.8510 C   0  0  0  0  0  0  0  0  0  0  0  0
    9.2650   -1.9810   21.7240 C   0  0  0  0  0  0  0  0  0  0  0  0
    8.4210   -0.7400   22.0340 C   0  0  1  0  0  0  0  0  0  0  0  0
    9.4010    0.3950   21.9600 N   0  0  0  0  0  0  0  0  0  0  0  0
   10.5010   -0.0940   22.7510 C   0  0  0  0  0  0  0  0  0  0  0  0
    8.9350    1.5500   22.6600 C   0  0  0  0  0  0  0  0  0  0  0  0
   11.6990    0.5980   22.9040 C   0  0  0  0  0  0  0  0  0  0  0  0
   10.2830   -1.2760   23.3690 C   0  0  0  0  0  0  0  0  0  0  0  0
    9.1150    2.9390   22.0830 C   0  0  0  0  0  0  0  0  0  0  0  0
    8.3040    1.4710   23.9180 C   0  0  0  0  0  0  0  0  0  0  0  0
   12.6410    0.0160   23.7200 C   0  0  0  0  0  0  0  0  0  0  0  0
   11.1860   -1.8370   24.1580 C   0  0  0  0  0  0  0  0  0  0  0  0
    8.6600    4.0550   22.7960 C   0  0  0  0  0  0  0  0  0  0  0  0
    7.8710    2.6170   24.5880 C   0  0  0  0  0  0  0  0  0  0  0  0
   12.4010   -1.2050   24.3650 C   0  0  0  0  0  0  0  0  0  0  0  0
   10.7430   -3.1230   24.7360 C   0  0  0  0  0  0  0  0  0  0  0  0
    8.0440    3.8920   24.0410 C   0  0  0  0  0  0  0  0  0  0  0  0
    7.2510    2.4840   25.8390 N   0  0  0  0  0  0  0  0  0  0  0  0
  1  2  2  3
  1  3  1  0
  3  4  1  0
  3  5  1  0
  6  4  1  1
  5  7  1  0
  6  7  1  0
  5  8  1  1
  6  9  1  0
  8  9  1  0
  9 10  1  6
 10 11  1  0
 10 12  1  0
 11 13  2  0
 11 14  1  0
 12 15  2  0
 12 16  1  0
 13 17  1  0
 14 18  2  0
 15 19  1  0
 16 20  2  0
 17 21  2  0
 18 21  1  0
 18 22  1  0
 19 23  2  0
 20 23  1  0
 20 24  1  0
M  END
