MAK-UNK-72659d64-7-bromoalkyne
     RDKit          3D

 12 12  0  0  0  0  0  0  0  0999 V2000
    6.5820   -4.2300   19.9380 C   0  0  0  0  0  0  0  0  0  0  0  0
    6.5930   -3.1620   18.8630 C   0  0  0  0  0  0  0  0  0  0  0  0
    5.5880   -4.1500   20.8460 N   0  0  0  0  0  0  0  0  0  0  0  0
    5.1990   -2.7740   20.9490 C   0  0  0  0  0  0  0  0  0  0  0  0
    5.7240   -4.6130   22.1640 C   0  0  0  0  0  0  0  0  0  0  0  0
    4.4300   -4.8010   22.9190 C   0  0  0  0  0  0  0  0  0  0  0  0
    6.9510   -4.8420   22.7170 C   0  0  0  0  0  0  0  0  0  0  0  0
    4.7620   -5.2120   24.2410 N   0  0  0  0  0  0  0  0  0  0  0  0
    7.1220   -5.2430   23.9890 N   0  0  0  0  0  0  0  0  0  0  0  0
    6.0400   -5.3930   24.6790 C   0  0  0  0  0  0  0  0  0  0  0  0
    6.0690   -5.8010   26.0970 C   0  0  0  0  0  0  0  0  0  0  0  0
    6.0680   -6.1110   27.2220 N   0  0  0  0  0  0  0  0  0  0  0  0
  1  2  2  3
  1  3  1  0
  3  4  1  0
  3  5  1  0
  5  6  2  0
  5  7  1  0
  6  8  1  0
  7  9  2  0
  8 10  2  0
  9 10  1  0
 10 11  1  0
 11 12  3  0
M  END
