MAK-UNK-af83ef51-18-bromoalkyne
     RDKit          3D

 36 39  0  0  0  0  0  0  0  0999 V2000
    6.5540   -4.5950   20.9170 C   0  0  0  0  0  0  0  0  0  0  0  0
    5.8280   -3.7650   20.0010 C   0  0  0  0  0  0  0  0  0  0  0  0
    7.2580   -4.1370   22.2370 N   0  0  0  0  0  0  0  0  0  0  0  0
    8.0630   -4.9170   23.2600 C   0  0  0  0  0  0  0  0  0  0  0  0
    6.5950   -3.1820   23.1640 C   0  0  0  0  0  0  0  0  0  0  0  0
    9.1750   -4.1520   23.7460 C   0  0  0  0  0  0  0  0  0  0  0  0
    7.2760   -3.0900   24.5620 C   0  0  0  0  0  0  0  0  0  0  0  0
    8.7350   -3.0540   24.5230 N   0  0  0  0  0  0  0  0  0  0  0  0
    9.1700   -1.7730   24.0200 C   0  0  0  0  0  0  0  0  0  0  0  0
   10.5920   -1.5000   23.5570 C   0  0  0  0  0  0  0  0  0  0  0  0
   11.1800   -1.9650   22.3680 C   0  0  0  0  0  0  0  0  0  0  0  0
   11.3860   -0.6860   24.3710 C   0  0  0  0  0  0  0  0  0  0  0  0
   12.6070   -1.4710   22.1460 C   0  0  0  0  0  0  0  0  0  0  0  0
   12.6670   -0.2940   24.0820 C   0  0  0  0  0  0  0  0  0  0  0  0
   10.8400   -0.2630   25.5100 O   0  0  0  0  0  0  0  0  0  0  0  0
   12.9870   -2.0810   20.8570 C   0  0  0  0  0  0  0  0  0  0  0  0
   13.2850   -0.6770   22.9550 C   0  0  0  0  0  0  0  0  0  0  0  0
    9.5770    0.2480   25.5880 C   0  0  0  0  0  0  0  0  0  0  0  0
    9.0650    0.2530   26.9160 C   0  0  0  0  0  0  0  0  0  0  0  0
    8.7840    0.7510   24.5110 C   0  0  0  0  0  0  0  0  0  0  0  0
    7.7820    0.7440   27.2260 C   0  0  0  0  0  0  0  0  0  0  0  0
    8.2250    0.7800   25.7670 C   0  0  0  0  0  0  0  0  0  0  0  0
    9.8030    0.4950   23.5290 N   0  0  0  0  0  0  0  0  0  0  0  0
    7.4240    0.7130   28.5420 O   0  0  0  0  0  0  0  0  0  0  0  0
    7.0020    1.2220   26.1830 C   0  0  0  0  0  0  0  0  0  0  0  0
    9.2110    0.0660   22.2510 C   0  0  0  0  0  0  0  0  0  0  0  0
   10.7450    1.5140   23.3510 C   0  0  0  0  0  0  0  0  0  0  0  0
   10.2880    2.7570   23.5770 C   0  0  0  0  0  0  0  0  0  0  0  0
   12.0330    1.3340   22.9710 N   0  0  0  0  0  0  0  0  0  0  0  0
   11.1420    3.7790   23.4050 C   0  0  0  0  0  0  0  0  0  0  0  0
   12.8010    2.4270   22.8310 C   0  0  0  0  0  0  0  0  0  0  0  0
   10.4720    5.3820   23.7270 S   0  0  0  0  0  0  0  0  0  0  0  0
   12.4250    3.6940   23.0220 N   0  0  0  0  0  0  0  0  0  0  0  0
   11.6220    6.4650   23.1660 N   0  0  0  0  0  0  0  0  0  0  0  0
    9.3060    5.5390   22.8900 O   0  0  0  0  0  0  0  0  0  0  0  0
   10.3590    5.5740   25.1480 O   0  0  0  0  0  0  0  0  0  0  0  0
  1  2  2  3
  1  3  1  0
  3  4  1  0
  3  5  1  0
  4  6  1  0
  5  7  1  0
  6  8  1  0
  7  8  1  0
  8  9  1  0
  9 10  1  0
 10 11  2  0
 10 12  1  0
 11 13  1  0
 12 14  2  0
 12 15  1  0
 13 16  1  0
 13 17  2  0
 14 17  1  0
 15 18  1  0
 18 19  2  0
 18 20  1  0
 19 21  1  0
 20 22  2  0
 20 23  1  0
 21 24  1  0
 21 25  2  0
 22 25  1  0
 23 26  1  0
 23 27  1  0
 27 28  2  0
 27 29  1  0
 28 30  1  0
 29 31  2  0
 30 32  1  0
 30 33  2  0
 31 33  1  0
 32 34  1  0
 32 35  2  0
 32 36  2  0
M  END
