MAK-UNK-849bee6c-17-acrylamide
     RDKit          3D

 26 28  0  0  0  0  0  0  0  0999 V2000
    8.0050   -3.4220   19.7240 C   0  0  0  0  0  0  0  0  0  0  0  0
    6.9080   -2.6660   19.0470 C   0  0  0  0  0  0  0  0  0  0  0  0
    5.8630   -3.0260   20.0140 C   0  0  0  0  0  0  0  0  0  0  0  0
    5.0500   -3.9140   19.7420 O   0  0  0  0  0  0  0  0  0  0  0  0
    5.9810   -2.3390   21.2140 N   0  0  0  0  0  0  0  0  0  0  0  0
    6.9260   -1.2250   21.2090 C   0  0  0  0  0  0  0  0  0  0  0  0
    5.9140   -2.9960   22.5280 C   0  0  0  0  0  0  0  0  0  0  0  0
    8.2950   -1.5830   21.7790 C   0  0  0  0  0  0  0  0  0  0  0  0
    7.3230   -3.3930   23.0230 C   0  0  0  0  0  0  0  0  0  0  0  0
    8.1640   -2.1850   23.1000 N   0  0  0  0  0  0  0  0  0  0  0  0
    9.1970   -2.2610   24.0280 C   0  0  0  0  0  0  0  0  0  0  0  0
   10.3920   -1.3690   23.7270 C   0  0  0  0  0  0  0  0  0  0  0  0
   11.7240   -1.8880   23.3260 C   0  0  0  0  0  0  0  0  0  0  0  0
   10.2590    0.0290   23.8250 C   0  0  0  0  0  0  0  0  0  0  0  0
   12.7800   -1.0250   23.0610 C   0  0  0  0  0  0  0  0  0  0  0  0
   11.3430    0.8840   23.5450 C   0  0  0  0  0  0  0  0  0  0  0  0
   12.5740    0.3430   23.1740 C   0  0  0  0  0  0  0  0  0  0  0  0
   11.1860    2.6490   23.6460 S   0  0  0  0  0  0  0  0  0  0  0  0
    9.5810    2.9560   22.9410 C   0  0  0  0  0  0  0  0  0  0  0  0
    8.9770    1.9870   22.1160 C   0  0  0  0  0  0  0  0  0  0  0  0
    9.0330    4.1530   23.2630 N   0  0  0  0  0  0  0  0  0  0  0  0
    7.7240    2.1600   21.5330 C   0  0  0  0  0  0  0  0  0  0  0  0
    7.7370    4.3770   22.6770 C   0  0  0  0  0  0  0  0  0  0  0  0
    7.0950    3.4030   21.8350 N   0  0  0  0  0  0  0  0  0  0  0  0
    7.2640    5.7490   23.1200 C   0  0  0  0  0  0  0  0  0  0  0  0
    8.0420    6.8780   23.2070 N   0  0  0  0  0  0  0  0  0  0  0  0
  1  2  1  0
  2  3  1  0
  3  4  2  0
  3  5  1  0
  5  6  1  0
  5  7  1  0
  6  8  1  0
  7  9  1  0
  8 10  1  0
  9 10  1  0
 10 11  1  0
 11 12  1  0
 12 13  2  0
 12 14  1  0
 13 15  1  0
 14 16  2  0
 15 17  2  0
 16 17  1  0
 16 18  1  0
 18 19  1  0
 19 20  2  0
 19 21  1  0
 20 22  1  0
 21 23  2  0
 22 24  2  0
 23 24  1  0
 23 25  1  0
 25 26  3  0
M  END
