MAK-UNK-3c359d2a-1-acrylamide
     RDKit          3D

 26 28  0  0  0  0  0  0  0  0999 V2000
    7.3900   -2.8040   18.2710 C   0  0  0  0  0  0  0  0  0  0  0  0
    6.2100   -2.2260   19.0020 C   0  0  0  0  0  0  0  0  0  0  0  0
    5.7880   -3.0560   20.1580 C   0  0  0  0  0  0  0  0  0  0  0  0
    5.2110   -4.1530   19.9980 O   0  0  0  0  0  0  0  0  0  0  0  0
    6.1200   -2.4720   21.3600 N   0  0  0  0  0  0  0  0  0  0  0  0
    6.9970   -1.3000   21.3230 C   0  0  0  0  0  0  0  0  0  0  0  0
    6.1130   -3.2650   22.5850 C   0  0  0  0  0  0  0  0  0  0  0  0
    8.3920   -1.5650   21.8500 C   0  0  0  0  0  0  0  0  0  0  0  0
    7.5030   -3.3740   23.2270 C   0  0  0  0  0  0  0  0  0  0  0  0
    8.3080   -2.1410   23.1790 N   0  0  0  0  0  0  0  0  0  0  0  0
    9.3530   -2.1950   24.0740 C   0  0  0  0  0  0  0  0  0  0  0  0
   10.4620   -1.2000   23.7900 C   0  0  0  0  0  0  0  0  0  0  0  0
   11.7530   -1.6100   23.1950 C   0  0  0  0  0  0  0  0  0  0  0  0
   10.2940    0.1750   24.0900 C   0  0  0  0  0  0  0  0  0  0  0  0
   12.7480   -0.6740   22.9430 C   0  0  0  0  0  0  0  0  0  0  0  0
   11.3130    1.1180   23.8270 C   0  0  0  0  0  0  0  0  0  0  0  0
   12.5140    0.6650   23.2600 C   0  0  0  0  0  0  0  0  0  0  0  0
   11.0530    2.3030   24.1270 O   0  0  0  0  0  0  0  0  0  0  0  0
   11.1280    3.2440   23.0980 C   0  0  2  0  0  0  0  0  0  0  0  0
   12.3720    3.4630   22.5260 C   0  0  0  0  0  0  0  0  0  0  0  0
   10.5190    4.4470   23.5400 C   0  0  0  0  0  0  0  0  0  0  0  0
   12.5920    4.6880   21.9400 C   0  0  0  0  0  0  0  0  0  0  0  0
   11.4520    5.4800   23.7830 C   0  0  1  0  0  0  0  0  0  0  0  0
   12.0610    5.8070   22.6410 C   0  0  0  0  0  0  0  0  0  0  0  0
   10.8950    6.4350   24.3180 O   0  0  0  0  0  0  0  0  0  0  0  0
   11.8030    7.2500   25.0530 C   0  0  0  0  0  0  0  0  0  0  0  0
  1  2  1  0
  2  3  1  0
  3  4  2  0
  3  5  1  0
  5  6  1  0
  5  7  1  0
  6  8  1  0
  7  9  1  0
  8 10  1  0
  9 10  1  0
 10 11  1  0
 11 12  1  0
 12 13  2  0
 12 14  1  0
 13 15  1  0
 14 16  2  0
 15 17  2  0
 16 17  1  0
 16 18  1  0
 19 18  1  1
 19 20  1  0
 19 21  1  0
 20 22  1  0
 21 23  1  0
 22 24  1  0
 23 24  1  0
 23 25  1  6
 25 26  1  0
M  END
