MAK-UNK-3e0761f8-2-acrylamide
     RDKit          3D

 21 24  0  0  0  0  0  0  0  0999 V2000
    7.7720   -2.8130   18.8530 C   0  0  0  0  0  0  0  0  0  0  0  0
    6.2920   -2.6910   19.0940 C   0  0  0  0  0  0  0  0  0  0  0  0
    5.8690   -3.4560   20.2820 C   0  0  0  0  0  0  0  0  0  0  0  0
    5.2400   -4.4900   20.0800 O   0  0  0  0  0  0  0  0  0  0  0  0
    6.2510   -3.0020   21.5370 N   0  0  0  0  0  0  0  0  0  0  0  0
    6.6170   -1.6300   21.9640 C   0  0  1  0  0  0  0  0  0  0  0  0
    6.5660   -3.9430   22.6200 C   0  0  1  0  0  0  0  0  0  0  0  0
    6.5190   -1.8390   23.5370 C   0  0  0  0  0  0  0  0  0  0  0  0
    7.3570   -3.0780   23.6590 C   0  0  2  0  0  0  0  0  0  0  0  0
    8.0780   -1.2820   22.1810 C   0  0  0  0  0  0  0  0  0  0  0  0
    5.4680   -4.5830   23.2160 C   0  0  0  0  0  0  0  0  0  0  0  0
    8.4590   -2.1320   23.1780 C   0  0  0  0  0  0  0  0  0  0  0  0
    9.0010   -0.3660   21.6770 C   0  0  0  0  0  0  0  0  0  0  0  0
    5.3560   -4.9740   24.4780 N   0  0  0  0  0  0  0  0  0  0  0  0
    4.3420   -4.8740   22.4390 O   0  0  0  0  0  0  0  0  0  0  0  0
    9.8150   -2.1810   23.8290 C   0  0  0  0  0  0  0  0  0  0  0  0
   10.3220   -0.3390   22.2280 C   0  0  0  0  0  0  0  0  0  0  0  0
    4.1350   -5.5710   24.6280 N   0  0  0  0  0  0  0  0  0  0  0  0
    3.5610   -5.4990   23.3930 C   0  0  0  0  0  0  0  0  0  0  0  0
   10.7860   -1.1850   23.2660 C   0  0  0  0  0  0  0  0  0  0  0  0
    2.1500   -6.0750   23.0740 C   0  0  0  0  0  0  0  0  0  0  0  0
  1  2  1  0
  2  3  1  0
  3  4  2  0
  3  5  1  0
  6  5  1  6
  5  7  1  0
  6  8  1  0
  7  9  1  0
  8  9  1  0
  6 10  1  0
  7 11  1  1
  9 12  1  6
 10 12  2  0
 10 13  1  0
 11 14  2  0
 11 15  1  0
 12 16  1  0
 13 17  2  0
 14 18  1  0
 15 19  1  0
 18 19  2  0
 16 20  2  0
 17 20  1  0
 19 21  1  0
M  END
