MAK-UNK-8fdbca50-2-vinylsulfonamide
     RDKit          3D

 41 44  0  0  0  0  0  0  0  0999 V2000
    7.2500   -4.5520   20.7910 C   0  0  0  0  0  0  0  0  0  0  0  0
    6.7870   -5.0150   22.1570 C   0  0  0  0  0  0  0  0  0  0  0  0
    5.8200   -3.7060   22.8440 S   0  0  0  0  0  0  0  0  0  0  0  0
    4.6270   -3.5280   22.0540 O   0  0  0  0  0  0  0  0  0  0  0  0
    6.6970   -2.6010   23.1280 O   0  0  0  0  0  0  0  0  0  0  0  0
    5.2870   -4.3390   24.2970 N   0  0  0  0  0  0  0  0  0  0  0  0
    6.0440   -3.9840   25.4930 C   0  0  0  0  0  0  0  0  0  0  0  0
    3.8400   -4.2530   24.4620 C   0  0  0  0  0  0  0  0  0  0  0  0
    5.0870   -3.5720   26.5900 C   0  0  0  0  0  0  0  0  0  0  0  0
    3.4240   -2.8890   25.0190 C   0  0  0  0  0  0  0  0  0  0  0  0
    4.1680   -2.5260   26.3260 C   0  0  0  0  0  0  0  0  0  0  0  0
    4.6410   -1.2050   26.2940 C   0  0  0  0  0  0  0  0  0  0  0  0
    5.4640   -0.8120   27.1290 O   0  0  0  0  0  0  0  0  0  0  0  0
    4.0850   -0.3050   25.2160 N   0  0  0  0  0  0  0  0  0  0  0  0
    4.6710   -0.5460   23.8530 C   0  0  0  0  0  0  0  0  0  0  0  0
    3.9810    1.1440   25.5960 C   0  0  2  0  0  0  0  0  0  0  0  0
    3.4280    1.8860   24.4990 C   0  0  0  0  0  0  0  0  0  0  0  0
    5.3640    1.6940   25.9810 C   0  0  2  0  0  0  0  0  0  0  0  0
    5.4300    1.9390   27.4910 C   0  0  0  0  0  0  0  0  0  0  0  0
    5.7960    2.9580   25.2190 C   0  0  0  0  0  0  0  0  0  0  0  0
    7.0900    2.7570   24.4710 C   0  0  0  0  0  0  0  0  0  0  0  0
    7.9360    3.7560   24.3290 C   0  0  0  0  0  0  0  0  0  0  0  0
    7.7080    1.6960   23.8170 C   0  0  0  0  0  0  0  0  0  0  0  0
    8.9780    3.2740   23.6310 C   0  0  0  0  0  0  0  0  0  0  0  0
    9.0060    1.9300   23.2040 N   0  0  0  0  0  0  0  0  0  0  0  0
   10.0870    4.0710   23.2940 C   0  0  0  0  0  0  0  0  0  0  0  0
    8.8250    0.2770   22.7930 S   0  0  0  0  0  0  0  0  0  0  0  0
    9.9640    5.4580   23.2970 C   0  0  0  0  0  0  0  0  0  0  0  0
   11.3440    3.4760   22.9500 C   0  0  0  0  0  0  0  0  0  0  0  0
    7.9910   -0.3050   23.8160 O   0  0  0  0  0  0  0  0  0  0  0  0
    8.5110    0.2220   21.3800 O   0  0  0  0  0  0  0  0  0  0  0  0
   10.4630   -0.2370   23.0360 C   0  0  0  0  0  0  0  0  0  0  0  0
   11.0420    6.2990   22.9690 C   0  0  0  0  0  0  0  0  0  0  0  0
   12.4440    4.2750   22.6170 C   0  0  0  0  0  0  0  0  0  0  0  0
   11.4940    2.1510   22.9410 F   0  0  0  0  0  0  0  0  0  0  0  0
   11.1490   -1.1030   22.2010 C   0  0  0  0  0  0  0  0  0  0  0  0
   11.0880    0.2870   24.1410 C   0  0  0  0  0  0  0  0  0  0  0  0
   12.2720    5.7870   22.6310 C   0  0  0  0  0  0  0  0  0  0  0  0
   12.4510   -1.4830   22.3860 C   0  0  0  0  0  0  0  0  0  0  0  0
   12.3690   -0.0100   24.4420 N   0  0  0  0  0  0  0  0  0  0  0  0
   13.0320   -0.8440   23.6260 C   0  0  0  0  0  0  0  0  0  0  0  0
  1  2  1  0
  3  2  1  0
  3  4  2  0
  3  5  2  0
  3  6  1  0
  6  7  1  0
  6  8  1  0
  7  9  1  0
  8 10  1  0
  9 11  1  0
 10 11  1  0
 11 12  1  0
 12 13  2  0
 12 14  1  0
 14 15  1  0
 14 16  1  0
 16 17  1  6
 16 18  1  0
 18 19  1  1
 18 20  1  0
 20 21  1  0
 21 22  1  0
 21 23  2  0
 22 24  2  0
 23 25  1  0
 24 25  1  0
 24 26  1  0
 25 27  1  0
 26 28  2  0
 26 29  1  0
 27 30  2  0
 27 31  2  0
 27 32  1  0
 28 33  1  0
 29 34  2  0
 29 35  1  0
 32 36  2  0
 32 37  1  0
 33 38  2  0
 34 38  1  0
 36 39  1  0
 37 40  2  0
 39 41  2  0
 40 41  1  0
M  END
