MAK-UNK-27459e11-1
     RDKit          3D

 17 17  0  0  0  0  0  0  0  0999 V2000
    5.4800   -5.8930   29.8520 N   0  0  0  0  0  0  0  0  0  0  0  0
    6.2560   -5.6360   28.8490 C   0  0  0  0  0  0  0  0  0  0  0  0
    7.4520   -6.2350   28.6700 N   0  0  0  0  0  0  0  0  0  0  0  0
    5.9110   -4.6300   27.7500 C   0  0  0  0  0  0  0  0  0  0  0  0
    6.4240   -4.9670   26.3520 C   0  0  0  0  0  0  0  0  0  0  0  0
    8.1620   -4.5640   26.1890 S   0  0  0  0  0  0  0  0  0  0  0  0
    8.5170   -3.7210   27.2920 O   0  0  0  0  0  0  0  0  0  0  0  0
    8.9040   -5.7400   25.8520 O   0  0  0  0  0  0  0  0  0  0  0  0
    8.1500   -3.6320   24.7930 N   0  0  0  0  0  0  0  0  0  0  0  0
    9.2690   -2.9240   24.4630 C   0  0  0  0  0  0  0  0  0  0  0  0
    9.2070   -2.0020   23.2450 C   0  0  0  0  0  0  0  0  0  0  0  0
   10.5930   -1.3870   23.0980 C   0  0  0  0  0  0  0  0  0  0  0  0
   10.7240   -0.1170   23.9270 C   0  0  0  0  0  0  0  0  0  0  0  0
   11.6370   -1.8810   22.3180 C   0  0  0  0  0  0  0  0  0  0  0  0
   12.0530    0.6180   23.8720 C   0  0  0  0  0  0  0  0  0  0  0  0
   12.8500   -1.2350   22.2570 C   0  0  0  0  0  0  0  0  0  0  0  0
   13.0560   -0.0650   22.9770 C   0  0  0  0  0  0  0  0  0  0  0  0
  1  2  2  3
  2  3  1  0
  2  4  1  0
  4  5  1  0
  5  6  1  0
  6  7  2  0
  6  8  2  0
  6  9  1  0
  9 10  1  0
 10 11  1  0
 11 12  1  0
 12 13  2  0
 12 14  1  0
 13 15  1  0
 14 16  2  0
 15 17  2  0
 16 17  1  0
M  END
