MAK-UNK-a7992eb3-14
     RDKit          3D

 27 28  0  0  0  0  0  0  0  0999 V2000
    0.3320   -3.0570   25.1780 C   0  0  0  0  0  0  0  0  0  0  0  0
    1.5670   -3.9130   25.2140 C   0  0  0  0  0  0  0  0  0  0  0  0
    1.5410   -5.0170   24.6850 O   0  0  0  0  0  0  0  0  0  0  0  0
    2.7090   -3.2920   25.9120 N   0  0  0  0  0  0  0  0  0  0  0  0
    3.3880   -4.1920   26.8600 C   0  0  2  0  0  0  0  0  0  0  0  0
    3.4870   -3.4240   28.1570 C   0  0  0  0  0  0  0  0  0  0  0  0
    4.5990   -4.7940   26.4300 C   0  0  1  0  0  0  0  0  0  0  0  0
    2.8110   -4.0320   29.2680 O   0  0  0  0  0  0  0  0  0  0  0  0
    4.2570   -2.1580   28.1380 N   0  0  0  0  0  0  0  0  0  0  0  0
    5.2660   -5.7880   27.2270 C   0  0  0  0  0  0  0  0  0  0  0  0
    4.3330   -5.4320   25.1710 O   0  0  0  0  0  0  0  0  0  0  0  0
    5.6190   -2.4200   28.2210 C   0  0  0  0  0  0  0  0  0  0  0  0
    4.9130   -4.8130   24.0150 C   0  0  0  0  0  0  0  0  0  0  0  0
    6.3370   -2.1940   29.3870 C   0  0  0  0  0  0  0  0  0  0  0  0
    6.4290   -4.6330   24.1060 C   0  0  0  0  0  0  0  0  0  0  0  0
    4.6090   -5.6740   22.9730 C   0  0  0  0  0  0  0  0  0  0  0  0
    7.2840   -1.1700   29.4510 C   0  0  0  0  0  0  0  0  0  0  0  0
    6.9660   -4.1290   22.9320 C   0  0  0  0  0  0  0  0  0  0  0  0
    5.7760   -5.8550   21.9730 C   0  0  0  0  0  0  0  0  0  0  0  0
    8.5720    0.2250   29.5780 Br  0  0  0  0  0  0  0  0  0  0  0  0
    6.4720   -4.6940   21.7710 N   0  0  0  0  0  0  0  0  0  0  0  0
    6.0650   -3.9170   20.7070 C   0  0  0  0  0  0  0  0  0  0  0  0
    6.3020   -2.6000   21.0380 C   0  0  0  0  0  0  0  0  0  0  0  0
    5.5860   -1.6510   21.7060 C   0  0  0  0  0  0  0  0  0  0  0  0
    7.5740   -2.0990   20.5880 C   0  0  0  0  0  0  0  0  0  0  0  0
    6.1970   -0.4380   21.8180 C   0  0  0  0  0  0  0  0  0  0  0  0
    7.7890   -0.4090   21.0550 S   0  0  0  0  0  0  0  0  0  0  0  0
  1  2  1  0
  2  3  2  0
  2  4  1  0
  5  4  1  6
  5  6  1  0
  5  7  1  0
  6  8  2  0
  6  9  1  0
  7 10  1  1
  7 11  1  0
  9 12  1  0
 11 13  1  0
 12 14  1  0
 13 15  1  0
 13 16  1  0
 14 17  3  0
 15 18  1  0
 16 19  1  0
 17 20  1  0
 18 21  1  0
 19 21  1  0
 21 22  1  0
 22 23  1  0
 23 24  1  0
 23 25  2  0
 24 26  2  0
 25 27  1  0
 26 27  1  0
M  END
