MAK-UNK-ec98eaf6-6-nitrile
     RDKit          3D

 24 27  0  0  0  0  0  0  0  0999 V2000
    6.9430   -3.3230   19.5370 C   0  0  0  0  0  0  0  0  0  0  0  0
    5.9650   -3.1290   18.7440 N   0  0  0  0  0  0  0  0  0  0  0  0
    7.0090   -2.7410   20.7690 N   0  0  0  0  0  0  0  0  0  0  0  0
    5.9750   -2.7480   21.8430 C   0  0  0  0  0  0  0  0  0  0  0  0
    8.2540   -2.4600   21.5000 C   0  0  2  0  0  0  0  0  0  0  0  0
    6.9470   -2.9740   23.0490 C   0  0  1  0  0  0  0  0  0  0  0  0
    8.1710   -3.6770   22.4440 C   0  0  0  0  0  0  0  0  0  0  0  0
    8.0480   -1.2330   22.1050 C   0  0  0  0  0  0  0  0  0  0  0  0
    7.7770   -1.7960   23.4390 N   0  0  0  0  0  0  0  0  0  0  0  0
    9.0200   -2.3060   24.0060 C   0  0  2  0  0  0  0  0  0  0  0  0
    8.6010   -2.8860   25.1940 C   0  0  0  0  0  0  0  0  0  0  0  0
   10.2280   -1.3880   23.7740 C   0  0  0  0  0  0  0  0  0  0  0  0
    8.6410   -4.2820   25.2490 C   0  0  0  0  0  0  0  0  0  0  0  0
    8.1210   -2.1950   26.2800 C   0  0  0  0  0  0  0  0  0  0  0  0
   10.3830   -0.1950   24.4510 C   0  0  0  0  0  0  0  0  0  0  0  0
   11.1920   -1.7670   22.8300 C   0  0  0  0  0  0  0  0  0  0  0  0
    8.1960   -5.0970   26.3520 C   0  0  0  0  0  0  0  0  0  0  0  0
    7.6170   -2.9570   27.5080 C   0  0  0  0  0  0  0  0  0  0  0  0
   11.5180    0.5860   24.1450 C   0  0  0  0  0  0  0  0  0  0  0  0
   12.2900   -1.0260   22.5370 C   0  0  0  0  0  0  0  0  0  0  0  0
    7.6100   -4.4920   27.6110 C   0  0  0  0  0  0  0  0  0  0  0  0
   12.4780    0.1810   23.1970 C   0  0  0  0  0  0  0  0  0  0  0  0
   13.3610   -1.6200   21.3720 Cl  0  0  0  0  0  0  0  0  0  0  0  0
    7.0280   -5.4230   28.9200 Cl  0  0  0  0  0  0  0  0  0  0  0  0
  1  2  2  3
  1  3  1  0
  3  4  1  0
  3  5  1  0
  6  4  1  6
  5  7  1  0
  6  7  1  0
  5  8  1  1
  6  9  1  0
  8  9  1  0
  9 10  1  0
 10 11  1  1
 10 12  1  0
 11 13  2  0
 11 14  1  0
 12 15  2  0
 12 16  1  0
 13 17  1  0
 14 18  2  0
 15 19  1  0
 16 20  2  0
 17 21  2  0
 18 21  1  0
 19 22  2  0
 20 22  1  0
 20 23  1  0
 21 24  1  0
M  END
