MAK-UNK-10799360-9-nitrile
     RDKit          3D

 27 30  0  0  0  0  0  0  0  0999 V2000
    7.4690   -3.6310   20.0300 C   0  0  0  0  0  0  0  0  0  0  0  0
    6.2360   -3.8660   19.6630 N   0  0  0  0  0  0  0  0  0  0  0  0
    7.8800   -3.0060   21.2190 N   0  0  0  0  0  0  0  0  0  0  0  0
    8.3480   -3.7370   22.4250 C   0  0  0  0  0  0  0  0  0  0  0  0
    8.5920   -1.7020   21.3100 C   0  0  2  0  0  0  0  0  0  0  0  0
    9.3990   -2.7820   23.0620 C   0  0  1  0  0  0  0  0  0  0  0  0
    9.9870   -2.0970   21.8110 C   0  0  0  0  0  0  0  0  0  0  0  0
    8.0750   -0.8320   22.4910 C   0  0  0  0  0  0  0  0  0  0  0  0
    8.6460   -1.5920   23.7260 C   0  0  1  0  0  0  0  0  0  0  0  0
    7.3800   -1.9360   24.5240 C   0  0  0  0  0  0  0  0  0  0  0  0
    6.2960   -2.2590   23.5460 N   0  0  0  0  0  0  0  0  0  0  0  0
    5.3080   -1.3440   23.5680 C   0  0  0  0  0  0  0  0  0  0  0  0
    5.9980   -3.6750   23.6390 C   0  0  0  0  0  0  0  0  0  0  0  0
    4.2820   -1.6280   24.4890 C   0  0  0  0  0  0  0  0  0  0  0  0
    4.7210   -3.9990   24.0660 C   0  0  0  0  0  0  0  0  0  0  0  0
    3.8560   -2.9630   24.4930 C   0  0  0  0  0  0  0  0  0  0  0  0
    4.2800   -5.3260   24.0850 C   0  0  0  0  0  0  0  0  0  0  0  0
    2.5830   -3.3200   24.9140 C   0  0  0  0  0  0  0  0  0  0  0  0
    2.9910   -5.6330   24.5210 C   0  0  0  0  0  0  0  0  0  0  0  0
    2.1150   -4.6230   24.9440 C   0  0  0  0  0  0  0  0  0  0  0  0
    2.6940   -7.3320   24.4610 S   0  0  0  0  0  0  0  0  0  0  0  0
    0.7070   -4.9140   25.4250 C   0  0  0  0  0  0  0  0  0  0  0  0
    2.3560   -7.6340   22.8440 N   0  0  0  0  0  0  0  0  0  0  0  0
    1.4820   -7.6320   25.1960 O   0  0  0  0  0  0  0  0  0  0  0  0
    3.9440   -8.0090   24.7280 O   0  0  0  0  0  0  0  0  0  0  0  0
    0.3290   -4.0820   26.4420 F   0  0  0  0  0  0  0  0  0  0  0  0
   -0.2020   -4.6950   24.4440 F   0  0  0  0  0  0  0  0  0  0  0  0
  1  2  2  3
  1  3  1  0
  3  4  1  0
  3  5  1  0
  6  4  1  6
  5  7  1  0
  6  7  1  0
  5  8  1  1
  6  9  1  0
  8  9  1  0
  9 10  1  1
 10 11  1  0
 11 12  1  0
 11 13  1  0
 12 14  1  0
 13 15  1  0
 14 16  1  0
 15 16  2  0
 15 17  1  0
 16 18  1  0
 17 19  2  0
 18 20  2  0
 19 20  1  0
 19 21  1  0
 20 22  1  0
 21 23  1  0
 21 24  2  0
 21 25  2  0
 22 26  1  0
 22 27  1  0
M  END
