MAK-UNK-10dfa458-4-bromoalkyne
     RDKit          3D

 16 17  0  0  0  0  0  0  0  0999 V2000
    6.5530   -4.2240   20.0560 C   0  0  0  0  0  0  0  0  0  0  0  0
    5.4460   -3.4640   19.4510 C   0  0  0  0  0  0  0  0  0  0  0  0
    6.5430   -4.7370   21.3980 N   0  0  0  0  0  0  0  0  0  0  0  0
    7.2250   -4.1040   22.5400 C   0  0  0  0  0  0  0  0  0  0  0  0
    5.6790   -5.8590   21.8490 C   0  0  0  0  0  0  0  0  0  0  0  0
    6.3620   -3.9550   23.8000 C   0  0  0  0  0  0  0  0  0  0  0  0
    4.7970   -5.4360   22.8810 C   0  0  0  0  0  0  0  0  0  0  0  0
    5.5450   -5.1430   24.0220 N   0  0  0  0  0  0  0  0  0  0  0  0
    4.7070   -5.1640   25.5080 S   0  0  0  0  0  0  0  0  0  0  0  0
    5.6250   -4.7310   26.5340 O   0  0  0  0  0  0  0  0  0  0  0  0
    4.0070   -6.4230   25.6190 O   0  0  0  0  0  0  0  0  0  0  0  0
    3.5110   -3.9200   25.5440 C   0  0  0  0  0  0  0  0  0  0  0  0
    2.0820   -4.0340   25.3060 C   0  0  0  0  0  0  0  0  0  0  0  0
    3.8960   -2.2680   25.9060 S   0  0  0  0  0  0  0  0  0  0  0  0
    1.3940   -2.6960   25.4530 C   0  0  0  0  0  0  0  0  0  0  0  0
    2.2710   -1.6620   25.7770 C   0  0  0  0  0  0  0  0  0  0  0  0
  1  2  2  3
  1  3  1  0
  3  4  1  0
  3  5  1  0
  4  6  1  0
  5  7  1  0
  6  8  1  0
  7  8  1  0
  8  9  1  0
  9 10  2  0
  9 11  2  0
  9 12  1  0
 12 13  2  0
 12 14  1  0
 13 15  1  0
 14 16  1  0
 15 16  2  0
M  END
