MAK-UNK-53da93bf-3
     RDKit          3D

 18 19  0  0  0  0  0  0  0  0999 V2000
   11.9580    7.3680   26.9410 C   0  0  0  0  0  0  0  0  0  0  0  0
   11.5770    7.5240   25.4720 C   0  0  0  0  0  0  0  0  0  0  0  0
   10.6640    6.5480   25.1550 C   0  0  0  0  0  0  0  0  0  0  0  0
    9.6460    6.2980   25.7900 O   0  0  0  0  0  0  0  0  0  0  0  0
   11.0840    5.8450   23.9310 N   0  0  0  0  0  0  0  0  0  0  0  0
   10.3760    4.6660   23.6710 C   0  0  1  0  0  0  0  0  0  0  0  0
    9.6330    5.0380   22.4940 N   0  0  0  0  0  0  0  0  0  0  0  0
   11.0420    3.4310   23.4960 C   0  0  0  0  0  0  0  0  0  0  0  0
   12.3430    3.3950   23.0170 C   0  0  0  0  0  0  0  0  0  0  0  0
   10.4070    2.2080   23.8150 C   0  0  0  0  0  0  0  0  0  0  0  0
   13.0010    2.2000   22.8590 C   0  0  0  0  0  0  0  0  0  0  0  0
   11.0660    0.8570   23.6600 C   0  0  0  0  0  0  0  0  0  0  0  0
   12.4430    0.9550   23.1420 C   0  0  0  0  0  0  0  0  0  0  0  0
   10.4890   -0.3770   23.9650 N   0  0  0  0  0  0  0  0  0  0  0  0
    9.6150   -0.3860   25.1300 C   0  0  0  0  0  0  0  0  0  0  0  0
   11.2940   -1.6040   23.7600 C   0  0  0  0  0  0  0  0  0  0  0  0
   13.2080   -0.3080   22.9350 C   0  0  0  0  0  0  0  0  0  0  0  0
   12.2530   -1.4630   22.7550 C   0  0  0  0  0  0  0  0  0  0  0  0
  1  2  1  0
  2  3  1  0
  3  4  2  0
  3  5  1  0
  5  6  1  0
  6  7  1  6
  6  8  1  0
  8  9  2  0
  8 10  1  0
  9 11  1  0
 10 12  2  0
 11 13  2  0
 12 13  1  0
 12 14  1  0
 14 15  1  0
 14 16  1  0
 13 17  1  0
 16 18  1  0
 17 18  1  0
M  END
