MAK-UNK-5d2caa6f-22-vinylsulfonamide
     RDKit          3D

 26 29  0  0  0  0  0  0  0  0999 V2000
    6.9900   -3.1700   19.0840 C   0  0  0  0  0  0  0  0  0  0  0  0
    7.0390   -2.1030   20.1440 C   0  0  0  0  0  0  0  0  0  0  0  0
    6.3600   -2.6920   21.6730 S   0  0  0  0  0  0  0  0  0  0  0  0
    5.2060   -3.7570   21.3480 O   0  0  0  0  0  0  0  0  0  0  0  0
    5.8770   -1.5140   22.3530 O   0  0  0  0  0  0  0  0  0  0  0  0
    7.9760   -2.9890   22.5000 N   0  0  0  0  0  0  0  0  0  0  0  0
    8.0440   -2.4720   23.8120 C   0  0  0  0  0  0  0  0  0  0  0  0
    9.3530   -2.5640   22.1010 C   0  0  2  0  0  0  0  0  0  0  0  0
    9.5250   -2.2180   24.0190 C   0  0  1  0  0  0  0  0  0  0  0  0
   10.1550   -3.1530   23.0790 C   0  0  0  0  0  0  0  0  0  0  0  0
    9.4320   -1.2050   22.1060 C   0  0  0  0  0  0  0  0  0  0  0  0
    9.8870   -0.8660   23.4120 C   0  0  1  0  0  0  0  0  0  0  0  0
    9.0080    0.0220   24.2220 C   0  0  0  0  0  0  0  0  0  0  0  0
    9.4600    0.6200   25.1880 O   0  0  0  0  0  0  0  0  0  0  0  0
    7.7140    0.1020   23.8240 N   0  0  0  0  0  0  0  0  0  0  0  0
    7.3060    0.9650   22.8050 C   0  0  0  0  0  0  0  0  0  0  0  0
    6.8460    0.6880   21.5350 C   0  0  0  0  0  0  0  0  0  0  0  0
    7.3310    2.4110   22.9980 N   0  0  0  0  0  0  0  0  0  0  0  0
    6.5770    2.0080   20.9220 C   0  0  0  0  0  0  0  0  0  0  0  0
    6.8790    2.9690   21.8150 N   0  0  0  0  0  0  0  0  0  0  0  0
    6.8270    4.3510   21.7640 C   0  0  0  0  0  0  0  0  0  0  0  0
    5.6870    4.9920   21.2870 C   0  0  0  0  0  0  0  0  0  0  0  0
    7.9190    5.1450   22.1760 C   0  0  0  0  0  0  0  0  0  0  0  0
    5.5810    6.5210   21.1880 C   0  0  0  0  0  0  0  0  0  0  0  0
    7.9280    6.6790   22.1220 C   0  0  0  0  0  0  0  0  0  0  0  0
    6.7250    7.4390   21.6090 C   0  0  0  0  0  0  0  0  0  0  0  0
  1  2  1  0
  3  2  1  0
  3  4  2  0
  3  5  2  0
  3  6  1  0
  6  7  1  0
  6  8  1  0
  9  7  1  6
  8 10  1  0
  9 10  1  0
  8 11  1  1
  9 12  1  0
 11 12  1  0
 12 13  1  1
 13 14  2  0
 13 15  1  0
 15 16  1  0
 16 17  1  0
 16 18  2  0
 17 19  2  0
 18 20  1  0
 19 20  1  0
 20 21  1  0
 21 22  2  0
 21 23  1  0
 22 24  1  0
 23 25  2  0
 24 26  2  0
 25 26  1  0
M  END
