MAK-UNK-148caf23-12-chloroacetamide
     RDKit          3D

 35 38  0  0  0  0  0  0  0  0999 V2000
    8.8770   -3.7110   20.0670 C   0  0  0  0  0  0  0  0  0  0  0  0
    7.9880   -2.6700   20.0470 C   0  0  0  0  0  0  0  0  0  0  0  0
    6.9600   -2.7970   19.1020 O   0  0  0  0  0  0  0  0  0  0  0  0
    8.5090   -1.8250   21.3200 C   0  0  0  0  0  0  0  0  0  0  0  0
    8.3390   -2.6650   22.5010 C   0  0  0  0  0  0  0  0  0  0  0  0
    9.0940   -0.5690   21.7120 C   0  0  0  0  0  0  0  0  0  0  0  0
    8.6590   -2.2600   23.9040 C   0  0  0  0  0  0  0  0  0  0  0  0
    9.3890   -0.2010   23.0420 N   0  0  0  0  0  0  0  0  0  0  0  0
    9.1380   -1.0430   24.1130 C   0  0  0  0  0  0  0  0  0  0  0  0
    9.2930   -0.7520   25.4730 N   0  0  0  0  0  0  0  0  0  0  0  0
    8.0860   -0.0290   25.9640 C   0  0  0  0  0  0  0  0  0  0  0  0
    7.5600   -0.3860   27.2000 C   0  0  0  0  0  0  0  0  0  0  0  0
    6.7490   -1.5240   27.2610 C   0  0  0  0  0  0  0  0  0  0  0  0
    7.6290    0.1520   28.4460 N   0  0  0  0  0  0  0  0  0  0  0  0
    6.3720   -2.4490   26.0760 C   0  0  0  0  0  0  0  0  0  0  0  0
    6.2760   -1.7740   28.5250 C   0  0  0  0  0  0  0  0  0  0  0  0
    6.8140   -0.7250   29.2880 C   0  0  0  0  0  0  0  0  0  0  0  0
    8.4830    1.5660   28.9130 S   0  0  0  0  0  0  0  0  0  0  0  0
    5.6620   -3.7020   26.3970 N   0  0  0  0  0  0  0  0  0  0  0  0
    6.6690   -0.4360   30.6460 C   0  0  0  0  0  0  0  0  0  0  0  0
    8.4580    2.4250   27.7560 O   0  0  0  0  0  0  0  0  0  0  0  0
    9.7270    1.1600   29.5240 O   0  0  0  0  0  0  0  0  0  0  0  0
    7.5550    2.3750   30.1640 C   0  0  0  0  0  0  0  0  0  0  0  0
    5.7480   -4.7010   25.4850 C   0  0  0  0  0  0  0  0  0  0  0  0
    7.8510   -0.1100   31.3690 C   0  0  0  0  0  0  0  0  0  0  0  0
    5.3740   -0.4920   31.1560 C   0  0  0  0  0  0  0  0  0  0  0  0
    6.1800    2.1760   30.3450 C   0  0  0  0  0  0  0  0  0  0  0  0
    8.1910    3.2710   31.0350 C   0  0  0  0  0  0  0  0  0  0  0  0
    7.6340    0.2170   32.9080 C   0  0  0  0  0  0  0  0  0  0  0  0
    5.1110   -0.2240   32.4600 C   0  0  0  0  0  0  0  0  0  0  0  0
    4.3430   -0.8170   30.3550 F   0  0  0  0  0  0  0  0  0  0  0  0
    5.5200    2.8630   31.3640 C   0  0  0  0  0  0  0  0  0  0  0  0
    7.5690    3.9480   32.0290 N   0  0  0  0  0  0  0  0  0  0  0  0
    6.1490    0.1130   33.3140 C   0  0  0  0  0  0  0  0  0  0  0  0
    6.2450    3.7270   32.1710 C   0  0  0  0  0  0  0  0  0  0  0  0
  1  2  1  0
  2  3  2  0
  2  4  1  0
  4  5  2  0
  4  6  1  0
  5  7  1  0
  6  8  2  0
  7  9  2  0
  8  9  1  0
  9 10  1  0
 10 11  1  0
 11 12  1  0
 12 13  2  0
 12 14  1  0
 13 15  1  0
 13 16  1  0
 14 17  1  0
 16 17  2  0
 14 18  1  0
 15 19  1  0
 17 20  1  0
 18 21  2  0
 18 22  2  0
 18 23  1  0
 19 24  1  0
 20 25  2  0
 20 26  1  0
 23 27  2  0
 23 28  1  0
 25 29  1  0
 26 30  2  0
 26 31  1  0
 27 32  1  0
 28 33  2  0
 29 34  2  0
 30 34  1  0
 32 35  2  0
 33 35  1  0
M  END
