MAK-UNK-de9577cf-1
     RDKit          3D

 37 40  0  0  0  0  0  0  0  0999 V2000
   13.4410   -2.4230   24.4410 C   0  0  0  0  0  0  0  0  0  0  0  0
   12.9650   -1.0900   24.5690 O   0  0  0  0  0  0  0  0  0  0  0  0
   12.9240   -0.2970   23.4490 C   0  0  0  0  0  0  0  0  0  0  0  0
   13.4660   -0.6360   22.4090 O   0  0  0  0  0  0  0  0  0  0  0  0
   12.2650    0.9290   23.4970 C   0  0  0  0  0  0  0  0  0  0  0  0
   12.8850    2.0800   22.9560 C   0  0  0  0  0  0  0  0  0  0  0  0
   11.0030    1.1740   24.0510 C   0  0  0  0  0  0  0  0  0  0  0  0
   12.2220    3.4230   22.9890 C   0  0  0  0  0  0  0  0  0  0  0  0
   10.3300    2.4330   24.1140 C   0  0  0  0  0  0  0  0  0  0  0  0
   10.8960    3.5900   23.5980 C   0  0  0  0  0  0  0  0  0  0  0  0
   10.1020    5.1160   23.6650 S   0  0  0  0  0  0  0  0  0  0  0  0
   10.9590    6.0710   22.9920 O   0  0  0  0  0  0  0  0  0  0  0  0
    9.6750    5.3660   25.0200 O   0  0  0  0  0  0  0  0  0  0  0  0
    8.7060    4.8960   22.7510 N   0  0  0  0  0  0  0  0  0  0  0  0
    8.1590    3.6280   22.9650 N   0  0  0  0  0  0  0  0  0  0  0  0
    7.7720    3.2730   24.2710 C   0  0  0  0  0  0  0  0  0  0  0  0
    7.4840    1.8940   24.3300 C   0  0  0  0  0  0  0  0  0  0  0  0
    8.2340    0.8340   24.8650 C   0  0  0  0  0  0  0  0  0  0  0  0
    6.2950    1.2320   23.8160 C   0  0  0  0  0  0  0  0  0  0  0  0
    7.4080   -0.1710   24.5770 C   0  0  0  0  0  0  0  0  0  0  0  0
    6.4250   -0.2610   24.0850 N   0  0  0  0  0  0  0  0  0  0  0  0
    7.9590   -1.5070   25.0280 C   0  0  0  0  0  0  0  0  0  0  0  0
    5.3710   -1.5240   23.6890 S   0  0  0  0  0  0  0  0  0  0  0  0
    9.2650   -1.9770   24.4640 C   0  0  0  0  0  0  0  0  0  0  0  0
    7.3000   -2.3320   25.9520 C   0  0  0  0  0  0  0  0  0  0  0  0
    4.0580   -0.9590   23.6310 O   0  0  0  0  0  0  0  0  0  0  0  0
    5.7040   -2.6800   24.4780 O   0  0  0  0  0  0  0  0  0  0  0  0
    6.0120   -1.6920   22.0660 C   0  0  0  0  0  0  0  0  0  0  0  0
    9.9000   -3.2830   24.8400 C   0  0  0  0  0  0  0  0  0  0  0  0
    7.8940   -3.6900   26.3840 C   0  0  0  0  0  0  0  0  0  0  0  0
    6.1270   -1.9540   26.4890 F   0  0  0  0  0  0  0  0  0  0  0  0
    7.2710   -2.5010   21.8260 C   0  0  0  0  0  0  0  0  0  0  0  0
    5.3940   -1.0770   20.9830 C   0  0  0  0  0  0  0  0  0  0  0  0
    9.2460   -4.1170   25.7650 C   0  0  0  0  0  0  0  0  0  0  0  0
    7.7270   -2.5440   20.3950 C   0  0  0  0  0  0  0  0  0  0  0  0
    5.8610   -1.1360   19.5820 N   0  0  0  0  0  0  0  0  0  0  0  0
    6.9890   -1.8370   19.2670 C   0  0  0  0  0  0  0  0  0  0  0  0
  1  2  1  0
  2  3  1  0
  3  4  2  0
  3  5  1  0
  5  6  2  0
  5  7  1  0
  6  8  1  0
  7  9  2  0
  8 10  2  0
  9 10  1  0
 10 11  1  0
 11 12  2  0
 11 13  2  0
 11 14  1  0
 14 15  1  0
 15 16  1  0
 16 17  1  0
 17 18  1  0
 17 19  2  0
 18 20  2  0
 19 21  1  0
 20 21  1  0
 20 22  1  0
 21 23  1  0
 22 24  2  0
 22 25  1  0
 23 26  2  0
 23 27  2  0
 23 28  1  0
 24 29  1  0
 25 30  2  0
 25 31  1  0
 28 32  2  0
 28 33  1  0
 29 34  2  0
 30 34  1  0
 32 35  1  0
 33 36  2  0
 35 37  2  0
 36 37  1  0
M  END
