MAK-UNK-10799360-3-acrylamide
     RDKit          3D

 23 25  0  0  0  0  0  0  0  0999 V2000
    7.5540   -2.9040   18.2280 C   0  0  0  0  0  0  0  0  0  0  0  0
    6.5540   -2.2450   19.1720 C   0  0  0  0  0  0  0  0  0  0  0  0
    6.0350   -3.0980   20.2760 C   0  0  0  0  0  0  0  0  0  0  0  0
    5.2480   -4.0770   20.1190 O   0  0  0  0  0  0  0  0  0  0  0  0
    6.5780   -2.6190   21.4390 N   0  0  0  0  0  0  0  0  0  0  0  0
    6.1890   -3.0370   22.7850 C   0  0  0  0  0  0  0  0  0  0  0  0
    8.0000   -2.2590   21.5520 C   0  0  2  0  0  0  0  0  0  0  0  0
    7.5660   -3.2760   23.4330 C   0  0  1  0  0  0  0  0  0  0  0  0
    8.4400   -3.5650   22.2160 C   0  0  0  0  0  0  0  0  0  0  0  0
    8.3870   -1.2540   22.6260 C   0  0  1  0  0  0  0  0  0  0  0  0
    7.7430    0.1480   22.7270 C   0  0  0  0  0  0  0  0  0  0  0  0
    8.0810   -1.9610   23.9150 N   0  0  0  0  0  0  0  0  0  0  0  0
    8.3600    1.1470   21.9050 C   0  0  0  0  0  0  0  0  0  0  0  0
    9.3200   -2.1820   24.5150 C   0  0  0  0  0  0  0  0  0  0  0  0
    9.4310    1.8380   22.6280 N   0  0  0  0  0  0  0  0  0  0  0  0
    8.0820    1.4600   20.7420 O   0  0  0  0  0  0  0  0  0  0  0  0
   10.3760   -1.3990   24.0400 C   0  0  0  0  0  0  0  0  0  0  0  0
   10.6390   -0.1450   24.5320 C   0  0  0  0  0  0  0  0  0  0  0  0
   11.2940   -1.8820   22.9530 C   0  0  0  0  0  0  0  0  0  0  0  0
   11.7730    0.6960   24.0200 C   0  0  0  0  0  0  0  0  0  0  0  0
   12.3560   -1.1130   22.4630 C   0  0  0  0  0  0  0  0  0  0  0  0
   12.6450    0.1610   22.9500 C   0  0  0  0  0  0  0  0  0  0  0  0
   13.1600   -1.7460   21.3660 C   0  0  0  0  0  0  0  0  0  0  0  0
  1  2  1  0
  2  3  1  0
  3  4  2  0
  3  5  1  0
  5  6  1  0
  7  5  1  1
  8  6  1  6
  7  9  1  0
  8  9  1  0
  7 10  1  0
 10 11  1  6
  8 12  1  0
 10 12  1  0
 11 13  1  0
 12 14  1  0
 13 15  1  0
 13 16  2  0
 14 17  1  0
 17 18  2  0
 17 19  1  0
 18 20  1  0
 19 21  2  0
 20 22  2  0
 21 22  1  0
 21 23  1  0
M  END
