MAK-UNK-5d2caa6f-1-chloroacetamide
     RDKit          3D

 19 21  0  0  0  0  0  0  0  0999 V2000
    7.2480   -3.0070   18.7550 C   0  0  0  0  0  0  0  0  0  0  0  0
    6.3320   -3.3610   19.9000 C   0  0  0  0  0  0  0  0  0  0  0  0
    5.3880   -4.1450   19.7290 O   0  0  0  0  0  0  0  0  0  0  0  0
    6.5900   -2.8210   21.1300 N   0  0  0  0  0  0  0  0  0  0  0  0
    6.8540   -1.4130   21.4880 C   0  0  0  0  0  0  0  0  0  0  0  0
    7.4260   -3.5510   22.0430 C   0  0  1  0  0  0  0  0  0  0  0  0
    8.1810   -1.4900   22.3410 C   0  0  2  0  0  0  0  0  0  0  0  0
    8.7670   -2.7990   21.8350 C   0  0  0  0  0  0  0  0  0  0  0  0
    6.9780   -3.1780   23.4730 C   0  0  0  0  0  0  0  0  0  0  0  0
    8.0440   -2.1220   23.7290 C   0  0  1  0  0  0  0  0  0  0  0  0
    9.3790   -2.7300   24.1200 C   0  0  0  0  0  0  0  0  0  0  0  0
    9.5390   -3.9380   24.1190 O   0  0  0  0  0  0  0  0  0  0  0  0
   10.2980   -1.7840   24.4510 N   0  0  0  0  0  0  0  0  0  0  0  0
   11.2920   -1.2400   23.7020 C   0  0  0  0  0  0  0  0  0  0  0  0
   11.3320    0.1100   23.4450 C   0  0  0  0  0  0  0  0  0  0  0  0
   12.2950   -2.0460   23.1850 C   0  0  0  0  0  0  0  0  0  0  0  0
   12.3540    0.6160   22.7180 C   0  0  0  0  0  0  0  0  0  0  0  0
   13.3110   -1.5820   22.4440 N   0  0  0  0  0  0  0  0  0  0  0  0
   13.2900   -0.2610   22.2540 C   0  0  0  0  0  0  0  0  0  0  0  0
  1  2  1  0
  2  3  2  0
  2  4  1  0
  4  5  1  0
  4  6  1  0
  7  5  1  6
  6  8  1  0
  7  8  1  0
  6  9  1  1
  7 10  1  0
  9 10  1  0
 10 11  1  6
 11 12  2  0
 11 13  1  0
 13 14  1  0
 14 15  2  0
 14 16  1  0
 15 17  1  0
 16 18  2  0
 17 19  2  0
 18 19  1  0
M  END
