MAK-UNK-f983951f-11-bromoalkyne
     RDKit          3D

 13 13  0  0  0  0  0  0  0  0999 V2000
    6.3700   -3.8020   20.1220 C   0  0  0  0  0  0  0  0  0  0  0  0
    5.3040   -3.3240   19.2240 C   0  0  0  0  0  0  0  0  0  0  0  0
    6.2460   -3.5330   21.5180 N   0  0  0  0  0  0  0  0  0  0  0  0
    5.4190   -2.4650   22.2300 C   0  0  0  0  0  0  0  0  0  0  0  0
    4.7840   -2.9710   23.5980 C   0  0  0  0  0  0  0  0  0  0  0  0
    3.5030   -3.7700   23.4360 C   0  0  0  0  0  0  0  0  0  0  0  0
    5.3270   -2.7590   24.8580 C   0  0  0  0  0  0  0  0  0  0  0  0
    2.9250   -4.3050   24.7190 C   0  0  0  0  0  0  0  0  0  0  0  0
    4.7420   -3.3020   25.9980 C   0  0  0  0  0  0  0  0  0  0  0  0
    1.6350   -5.1140   24.5060 C   0  0  0  0  0  0  0  0  0  0  0  0
    3.5720   -4.0610   25.9140 C   0  0  0  0  0  0  0  0  0  0  0  0
    5.4260   -3.0660   27.2940 C   0  0  0  0  0  0  0  0  0  0  0  0
    3.0900   -4.5820   27.0520 O   0  0  0  0  0  0  0  0  0  0  0  0
  1  2  2  3
  1  3  1  0
  3  4  1  0
  4  5  1  0
  5  6  2  0
  5  7  1  0
  6  8  1  0
  7  9  2  0
  8 10  1  0
  8 11  2  0
  9 11  1  0
  9 12  1  0
 11 13  1  0
M  END
