MAK-UNK-10799360-20-bromoalkyne
     RDKit          3D

 24 27  0  0  0  0  0  0  0  0999 V2000
    6.8950   -3.6650   19.8920 C   0  0  0  0  0  0  0  0  0  0  0  0
    5.6880   -3.1100   19.1280 C   0  0  0  0  0  0  0  0  0  0  0  0
    7.2220   -3.0840   21.0850 N   0  0  0  0  0  0  0  0  0  0  0  0
    8.0210   -1.8560   21.1260 C   0  0  0  0  0  0  0  0  0  0  0  0
    6.3300   -3.0570   22.2690 C   0  0  2  0  0  0  0  0  0  0  0  0
    7.5990   -1.2530   22.4790 C   0  0  1  0  0  0  0  0  0  0  0  0
    6.0980   -1.5570   22.4450 C   0  0  0  0  0  0  0  0  0  0  0  0
    7.1510   -3.3190   23.5540 C   0  0  0  0  0  0  0  0  0  0  0  0
    8.1210   -2.2010   23.4880 N   0  0  0  0  0  0  0  0  0  0  0  0
    8.9020   -1.7190   24.6450 C   0  0  0  0  0  0  0  0  0  0  0  0
    9.8370   -0.5670   24.2910 C   0  0  0  0  0  0  0  0  0  0  0  0
    9.4850    0.7860   24.3090 C   0  0  0  0  0  0  0  0  0  0  0  0
   11.1270   -0.8790   23.9150 C   0  0  0  0  0  0  0  0  0  0  0  0
   10.3940    1.7850   23.9470 C   0  0  0  0  0  0  0  0  0  0  0  0
   12.0120    0.1130   23.5390 C   0  0  0  0  0  0  0  0  0  0  0  0
   11.5530   -2.2950   23.9120 C   0  0  0  0  0  0  0  0  0  0  0  0
   11.6730    1.4410   23.5500 C   0  0  0  0  0  0  0  0  0  0  0  0
   11.9340   -2.5410   22.5600 N   0  0  0  0  0  0  0  0  0  0  0  0
   13.3650   -0.2300   23.0920 C   0  0  0  0  0  0  0  0  0  0  0  0
   13.1210   -3.0690   22.3860 C   0  0  0  0  0  0  0  0  0  0  0  0
   11.9140   -1.3950   21.8060 C   0  0  0  0  0  0  0  0  0  0  0  0
   13.2350   -0.9950   21.9770 C   0  0  0  0  0  0  0  0  0  0  0  0
   13.4160   -3.4220   20.9260 C   0  0  0  0  0  0  0  0  0  0  0  0
   14.0150   -3.2350   23.4100 O   0  0  0  0  0  0  0  0  0  0  0  0
  1  2  2  3
  1  3  1  0
  3  4  1  0
  3  5  1  0
  6  4  1  6
  5  7  1  0
  6  7  1  0
  5  8  1  1
  6  9  1  0
  8  9  1  0
  9 10  1  0
 10 11  1  0
 11 12  2  0
 11 13  1  0
 12 14  1  0
 13 15  2  0
 13 16  1  0
 14 17  2  0
 15 17  1  0
 16 18  1  0
 15 19  1  0
 18 20  1  0
 18 21  1  0
 19 22  1  0
 21 22  1  0
 20 23  1  0
 20 24  2  0
M  END
