MAK-UNK-194150d3-14
     RDKit          3D

 33 37  0  0  0  0  0  0  0  0999 V2000
    5.2550   -1.0640   20.7650 O   0  0  0  0  0  0  0  0  0  0  0  0
    6.1290   -0.5600   21.7920 S   0  0  0  0  0  0  0  0  0  0  0  0
    6.2150   -1.2130   23.0800 O   0  0  0  0  0  0  0  0  0  0  0  0
    7.6850   -0.6000   21.1530 N   0  0  0  0  0  0  0  0  0  0  0  0
    5.8510    1.1320   21.9710 N   0  0  0  0  0  0  0  0  0  0  0  0
    8.7620    0.2340   21.7560 C   0  0  0  0  0  0  0  0  0  0  0  0
    5.5480    1.8930   20.6970 C   0  0  0  0  0  0  0  0  0  0  0  0
    5.2130    1.4780   23.2420 C   0  0  0  0  0  0  0  0  0  0  0  0
    9.0850   -0.2080   23.1770 C   0  0  0  0  0  0  0  0  0  0  0  0
    5.1040    3.2180   20.8660 C   0  0  0  0  0  0  0  0  0  0  0  0
    5.1930    2.7620   23.8140 C   0  0  0  0  0  0  0  0  0  0  0  0
    4.5710    0.4430   23.9380 C   0  0  0  0  0  0  0  0  0  0  0  0
   10.5090   -0.6770   23.3400 C   0  0  0  0  0  0  0  0  0  0  0  0
    5.7920    4.1090   21.8350 C   0  0  0  0  0  0  0  0  0  0  0  0
    5.8060    3.8560   23.1810 N   0  0  0  0  0  0  0  0  0  0  0  0
    4.5520    2.9910   25.0450 C   0  0  0  0  0  0  0  0  0  0  0  0
    3.9330    0.6750   25.1620 C   0  0  0  0  0  0  0  0  0  0  0  0
   11.2080   -1.4410   22.2010 C   0  0  0  0  0  0  0  0  0  0  0  0
   11.1730   -0.4060   24.5530 C   0  0  0  0  0  0  0  0  0  0  0  0
    6.4610    5.2210   21.5940 N   0  0  0  0  0  0  0  0  0  0  0  0
    6.5240    4.8800   23.7290 C   0  0  0  0  0  0  0  0  0  0  0  0
    3.9190    1.9530   25.7240 C   0  0  0  0  0  0  0  0  0  0  0  0
   12.6140   -1.8380   22.5530 C   0  0  0  0  0  0  0  0  0  0  0  0
   12.4880   -0.8040   24.8150 C   0  0  0  0  0  0  0  0  0  0  0  0
    6.9240    5.7060   22.7900 N   0  0  0  0  0  0  0  0  0  0  0  0
    3.2820    2.1910   26.9520 C   0  0  0  0  0  0  0  0  0  0  0  0
   13.2110   -1.5030   23.8690 C   0  0  0  0  0  0  0  0  0  0  0  0
    2.8740    3.5030   27.1370 C   0  0  0  0  0  0  0  0  0  0  0  0
    2.8900    3.8090   28.6400 C   0  0  0  0  0  0  0  0  0  0  0  0
    1.4270    3.6760   26.6300 C   0  0  0  0  0  0  0  0  0  0  0  0
    2.2190    5.1480   28.9570 C   0  0  0  0  0  0  0  0  0  0  0  0
    0.8890    5.0960   26.8110 C   0  0  0  0  0  0  0  0  0  0  0  0
    1.7860    5.9270   27.7170 C   0  0  0  0  0  0  0  0  0  0  0  0
  1  2  2  0
  2  3  2  0
  2  4  1  0
  2  5  1  0
  4  6  1  0
  5  7  1  0
  5  8  1  0
  6  9  1  0
  7 10  1  0
  8 11  2  0
  8 12  1  0
  9 13  1  0
 10 14  1  0
 11 15  1  0
 14 15  1  0
 11 16  1  0
 12 17  2  0
 13 18  2  0
 13 19  1  0
 14 20  2  0
 15 21  1  0
 16 22  2  0
 17 22  1  0
 18 23  1  0
 19 24  2  0
 20 25  1  0
 21 25  2  0
 22 26  1  0
 23 27  2  0
 24 27  1  0
 26 28  1  0
 28 29  1  0
 28 30  1  0
 29 31  1  0
 30 32  1  0
 31 33  1  0
 32 33  1  0
M  END
