MAK-UNK-702fb7d3-9-chloroacetamide
     RDKit          3D

 42 47  0  0  0  0  0  0  0  0999 V2000
    8.1010   -4.6660   20.9510 C   0  0  0  0  0  0  0  0  0  0  0  0
    7.0730   -3.5590   21.2900 C   0  0  0  0  0  0  0  0  0  0  0  0
    6.6550   -3.6140   19.9490 O   0  0  0  0  0  0  0  0  0  0  0  0
    7.7560   -3.7470   22.6770 N   0  0  0  0  0  0  0  0  0  0  0  0
    6.9700   -3.4660   23.9110 C   0  0  0  0  0  0  0  0  0  0  0  0
    9.1790   -3.4580   23.0050 C   0  0  0  0  0  0  0  0  0  0  0  0
    7.5470   -3.9860   25.2700 C   0  0  0  0  0  0  0  0  0  0  0  0
    9.8070   -3.9290   24.3800 C   0  0  2  0  0  0  0  0  0  0  0  0
    6.3770   -4.1950   26.2790 C   0  0  0  0  0  0  0  0  0  0  0  0
    8.9400   -4.1950   25.4530 C   0  0  0  0  0  0  0  0  0  0  0  0
   10.8960   -2.8790   24.4840 C   0  0  0  0  0  0  0  0  0  0  0  0
    7.1670   -4.6860   27.5120 C   0  0  0  0  0  0  0  0  0  0  0  0
    9.4310   -4.6420   26.6350 C   0  0  0  0  0  0  0  0  0  0  0  0
   10.5330   -1.5360   23.8830 C   0  0  0  0  0  0  0  0  0  0  0  0
   12.1580   -3.0400   25.0520 C   0  0  0  0  0  0  0  0  0  0  0  0
    6.2920   -4.9380   28.5620 N   0  0  0  0  0  0  0  0  0  0  0  0
    8.5430   -4.8820   27.6540 C   0  0  0  0  0  0  0  0  0  0  0  0
   11.4600   -0.5140   23.9020 C   0  0  0  0  0  0  0  0  0  0  0  0
   13.0460   -1.9770   25.0360 C   0  0  0  0  0  0  0  0  0  0  0  0
    5.6940   -6.1770   28.4770 C   0  0  0  0  0  0  0  0  0  0  0  0
   12.7020   -0.7440   24.4710 C   0  0  0  0  0  0  0  0  0  0  0  0
    4.1850   -6.4130   28.8540 C   0  0  0  0  0  0  0  0  0  0  0  0
    3.1240   -5.3810   28.7290 C   0  0  0  0  0  0  0  0  0  0  0  0
    3.4720   -7.5220   29.3600 C   0  0  0  0  0  0  0  0  0  0  0  0
    1.9110   -5.8630   29.1290 C   0  0  0  0  0  0  0  0  0  0  0  0
    2.0950   -7.1760   29.5220 N   0  0  0  0  0  0  0  0  0  0  0  0
    0.6720   -5.2090   29.1640 C   0  0  0  0  0  0  0  0  0  0  0  0
    0.8480   -8.1750   30.0980 S   0  0  0  0  0  0  0  0  0  0  0  0
   -0.4460   -5.8250   28.5960 C   0  0  0  0  0  0  0  0  0  0  0  0
    0.5920   -3.9280   29.7780 C   0  0  0  0  0  0  0  0  0  0  0  0
    1.4650   -9.2690   30.8140 O   0  0  0  0  0  0  0  0  0  0  0  0
   -0.1110   -8.4430   29.0480 O   0  0  0  0  0  0  0  0  0  0  0  0
   -0.0010   -7.2470   31.3240 C   0  0  0  0  0  0  0  0  0  0  0  0
   -1.8270   -5.1150   28.6240 C   0  0  0  0  0  0  0  0  0  0  0  0
   -0.6320   -3.2250   29.8390 C   0  0  0  0  0  0  0  0  0  0  0  0
    1.6850   -3.3650   30.3080 F   0  0  0  0  0  0  0  0  0  0  0  0
    0.4920   -6.0420   31.8350 C   0  0  0  0  0  0  0  0  0  0  0  0
   -1.2290   -7.7100   31.8400 C   0  0  0  0  0  0  0  0  0  0  0  0
   -1.8340   -3.7210   29.3130 C   0  0  0  0  0  0  0  0  0  0  0  0
   -0.2470   -5.3810   32.8040 C   0  0  0  0  0  0  0  0  0  0  0  0
   -1.9690   -7.0700   32.7980 N   0  0  0  0  0  0  0  0  0  0  0  0
   -1.4430   -5.9180   33.2450 C   0  0  0  0  0  0  0  0  0  0  0  0
  1  2  1  0
  2  3  2  0
  2  4  1  0
  4  5  1  0
  4  6  1  0
  5  7  1  0
  6  8  1  0
  7  9  1  0
  7 10  2  0
  8 10  1  0
  8 11  1  1
  9 12  2  0
 10 13  1  0
 11 14  2  0
 11 15  1  0
 12 16  1  0
 12 17  1  0
 13 17  2  0
 14 18  1  0
 15 19  2  0
 16 20  1  0
 18 21  2  0
 19 21  1  0
 20 22  1  0
 22 23  1  0
 22 24  2  0
 23 25  2  0
 24 26  1  0
 25 26  1  0
 25 27  1  0
 26 28  1  0
 27 29  2  0
 27 30  1  0
 28 31  2  0
 28 32  2  0
 28 33  1  0
 29 34  1  0
 30 35  2  0
 30 36  1  0
 33 37  2  0
 33 38  1  0
 34 39  2  0
 35 39  1  0
 37 40  1  0
 38 41  2  0
 40 42  2  0
 41 42  1  0
M  END
