MAK-UNK-148caf23-17-bromoalkyne
     RDKit          3D

 34 37  0  0  0  0  0  0  0  0999 V2000
    7.0020   -3.8480   20.0260 C   0  0  0  0  0  0  0  0  0  0  0  0
    5.6600   -3.4850   19.4250 C   0  0  0  0  0  0  0  0  0  0  0  0
    7.2390   -4.2110   21.4300 C   0  0  0  0  0  0  0  0  0  0  0  0
    6.9250   -5.5570   22.1090 C   0  0  0  0  0  0  0  0  0  0  0  0
    7.8370   -3.3460   22.4250 C   0  0  0  0  0  0  0  0  0  0  0  0
    7.1820   -5.9520   23.5640 C   0  0  0  0  0  0  0  0  0  0  0  0
    7.9180   -4.0020   23.5900 N   0  0  0  0  0  0  0  0  0  0  0  0
    7.3720   -4.8850   22.8220 C   0  0  0  0  0  0  0  0  0  0  0  0
    6.7750   -6.0010   22.1800 N   0  0  0  0  0  0  0  0  0  0  0  0
    5.3390   -6.2010   22.4090 C   0  0  0  0  0  0  0  0  0  0  0  0
    4.8450   -4.9750   22.7720 C   0  0  0  0  0  0  0  0  0  0  0  0
    4.3040   -4.3470   23.7850 C   0  0  0  0  0  0  0  0  0  0  0  0
    4.5910   -3.7280   22.4290 N   0  0  0  0  0  0  0  0  0  0  0  0
    4.1460   -2.8280   23.0910 C   0  0  0  0  0  0  0  0  0  0  0  0
    4.0560   -3.5120   23.8270 C   0  0  0  0  0  0  0  0  0  0  0  0
    3.5720   -2.2760   24.2750 C   0  0  0  0  0  0  0  0  0  0  0  0
    3.0870   -2.6830   25.8920 S   0  0  0  0  0  0  0  0  0  0  0  0
    2.3650   -1.5520   26.4340 O   0  0  0  0  0  0  0  0  0  0  0  0
    2.4330   -3.9720   25.8150 O   0  0  0  0  0  0  0  0  0  0  0  0
    4.5040   -2.8170   26.8610 N   0  0  0  0  0  0  0  0  0  0  0  0
    4.2970   -4.1570   27.2100 C   0  0  0  0  0  0  0  0  0  0  0  0
    5.3250   -3.5050   27.6460 C   0  0  0  0  0  0  0  0  0  0  0  0
    5.1900   -4.9990   28.0980 C   0  0  0  0  0  0  0  0  0  0  0  0
    6.2650   -3.8620   28.3880 C   0  0  0  0  0  0  0  0  0  0  0  0
    6.1990   -2.2750   27.7680 C   0  0  0  0  0  0  0  0  0  0  0  0
    6.1180   -5.6200   28.9300 C   0  0  0  0  0  0  0  0  0  0  0  0
    6.7010   -1.9320   29.1340 C   0  0  0  0  0  0  0  0  0  0  0  0
    6.5940   -1.4250   26.7190 C   0  0  0  0  0  0  0  0  0  0  0  0
    5.5690   -6.2300   30.1480 N   0  0  0  0  0  0  0  0  0  0  0  0
    7.5190   -0.8250   29.3260 C   0  0  0  0  0  0  0  0  0  0  0  0
    7.4230   -0.3120   26.9480 C   0  0  0  0  0  0  0  0  0  0  0  0
    6.1930   -1.6510   25.4620 F   0  0  0  0  0  0  0  0  0  0  0  0
    5.7520   -7.5710   30.3450 C   0  0  0  0  0  0  0  0  0  0  0  0
    7.8900   -0.0080   28.2560 C   0  0  0  0  0  0  0  0  0  0  0  0
  1  2  2  3
  1  3  1  0
  3  4  2  0
  3  5  1  0
  4  6  1  0
  5  7  2  0
  6  8  2  0
  7  8  1  0
  8  9  1  0
  9 10  1  0
 10 11  1  0
 11 12  2  0
 11 13  1  0
 12 14  1  0
 13 15  2  0
 14 16  2  0
 15 16  1  0
 17 16  1  0
 17 18  2  0
 17 19  2  0
 17 20  1  0
 20 21  1  0
 20 22  1  0
 21 23  2  0
 22 24  2  0
 23 24  1  0
 22 25  1  0
 23 26  1  0
 25 27  2  0
 25 28  1  0
 26 29  1  0
 27 30  1  0
 28 31  2  0
 28 32  1  0
 29 33  1  0
 30 34  2  0
 31 34  1  0
M  END
