MAK-UNK-148caf23-18-vinylsulfonamide
     RDKit          3D

 37 40  0  0  0  0  0  0  0  0999 V2000
    7.3450   -3.2600   19.6870 C   0  0  0  0  0  0  0  0  0  0  0  0
    7.5690   -3.0050   21.1760 C   0  0  0  0  0  0  0  0  0  0  0  0
    6.2080   -3.7890   22.0540 S   0  0  0  0  0  0  0  0  0  0  0  0
    5.1130   -3.5210   21.1480 O   0  0  0  0  0  0  0  0  0  0  0  0
    6.0630   -3.3950   23.4380 O   0  0  0  0  0  0  0  0  0  0  0  0
    6.4210   -5.5640   21.9390 C   0  0  0  0  0  0  0  0  0  0  0  0
    5.3610   -4.8290   21.2600 C   0  0  0  0  0  0  0  0  0  0  0  0
    7.4970   -5.5540   22.7600 C   0  0  0  0  0  0  0  0  0  0  0  0
    5.9410   -3.6130   21.9350 C   0  0  0  0  0  0  0  0  0  0  0  0
    7.8840   -4.4190   23.2570 N   0  0  0  0  0  0  0  0  0  0  0  0
    7.0920   -3.4240   22.8510 C   0  0  0  0  0  0  0  0  0  0  0  0
    7.4790   -2.1510   23.3990 N   0  0  0  0  0  0  0  0  0  0  0  0
    7.9680   -2.0330   24.8340 C   0  0  0  0  0  0  0  0  0  0  0  0
    8.7090   -0.7170   24.7990 C   0  0  0  0  0  0  0  0  0  0  0  0
    9.5640   -1.6290   24.2310 C   0  0  0  0  0  0  0  0  0  0  0  0
    7.5020   -0.5150   25.4180 C   0  0  0  0  0  0  0  0  0  0  0  0
    8.9090   -2.9510   24.3470 C   0  0  0  0  0  0  0  0  0  0  0  0
    6.8240   -1.7440   25.5660 C   0  0  0  0  0  0  0  0  0  0  0  0
    7.4780   -2.9360   25.0600 C   0  0  0  0  0  0  0  0  0  0  0  0
    5.2160   -1.8030   26.3700 S   0  0  0  0  0  0  0  0  0  0  0  0
    5.3920   -1.4580   27.7660 O   0  0  0  0  0  0  0  0  0  0  0  0
    4.2780   -1.0660   25.5510 O   0  0  0  0  0  0  0  0  0  0  0  0
    4.7620   -3.4650   26.3880 N   0  0  0  0  0  0  0  0  0  0  0  0
    3.4960   -3.8860   26.1780 C   0  0  0  0  0  0  0  0  0  0  0  0
    5.5690   -4.6650   26.6060 C   0  0  0  0  0  0  0  0  0  0  0  0
    3.4130   -5.2890   26.2440 C   0  0  0  0  0  0  0  0  0  0  0  0
    4.7300   -5.7790   26.5190 C   0  0  0  0  0  0  0  0  0  0  0  0
    6.9320   -4.7810   26.8550 C   0  0  0  0  0  0  0  0  0  0  0  0
    2.2410   -6.0200   26.0660 C   0  0  0  0  0  0  0  0  0  0  0  0
    7.4930   -4.3490   28.0400 C   0  0  0  0  0  0  0  0  0  0  0  0
    7.7580   -5.3450   25.8770 C   0  0  0  0  0  0  0  0  0  0  0  0
    2.4700   -7.2940   25.5750 N   0  0  0  0  0  0  0  0  0  0  0  0
    8.8630   -4.4810   28.2280 C   0  0  0  0  0  0  0  0  0  0  0  0
    9.1240   -5.4790   26.0600 C   0  0  0  0  0  0  0  0  0  0  0  0
    7.2140   -5.7610   24.7360 F   0  0  0  0  0  0  0  0  0  0  0  0
    3.4130   -7.3060   24.6060 C   0  0  0  0  0  0  0  0  0  0  0  0
    9.6710   -5.0370   27.2510 C   0  0  0  0  0  0  0  0  0  0  0  0
  1  2  1  0
  3  2  1  0
  3  4  2  0
  3  5  2  0
  3  6  1  0
  6  7  2  0
  6  8  1  0
  7  9  1  0
  8 10  2  0
  9 11  2  0
 10 11  1  0
 11 12  1  0
 12 13  1  0
 13 14  1  0
 14 15  2  0
 14 16  1  0
 15 17  1  0
 16 18  2  0
 17 19  2  0
 18 19  1  0
 20 18  1  0
 20 21  2  0
 20 22  2  0
 20 23  1  0
 23 24  1  0
 23 25  1  0
 24 26  2  0
 25 27  2  0
 26 27  1  0
 25 28  1  0
 26 29  1  0
 28 30  2  0
 28 31  1  0
 29 32  1  0
 30 33  1  0
 31 34  2  0
 31 35  1  0
 32 36  1  0
 33 37  2  0
 34 37  1  0
M  END
