MAK-UNK-c8c8f7e2-29
     RDKit          3D

 17 18  0  0  0  0  0  0  0  0999 V2000
    6.8500    0.5220   18.6850 C   0  0  0  0  0  0  0  0  0  0  0  0
    7.2270    0.8190   20.1100 C   0  0  0  0  0  0  0  0  0  0  0  0
    7.2140    1.9570   20.5630 O   0  0  0  0  0  0  0  0  0  0  0  0
    7.5920   -0.2810   20.8480 N   0  0  0  0  0  0  0  0  0  0  0  0
    6.9390   -1.5840   20.6440 C   0  0  0  0  0  0  0  0  0  0  0  0
    5.9990   -1.6410   19.4500 C   0  0  0  0  0  0  0  0  0  0  0  0
    7.1200   -2.7180   21.4440 C   0  0  0  0  0  0  0  0  0  0  0  0
    5.3080   -2.9590   19.2040 C   0  0  0  0  0  0  0  0  0  0  0  0
    6.4400   -3.9210   21.1680 C   0  0  0  0  0  0  0  0  0  0  0  0
    5.5630   -4.1240   20.1150 C   0  0  0  0  0  0  0  0  0  0  0  0
    6.6960   -4.9170   22.0350 N   0  0  0  0  0  0  0  0  0  0  0  0
    5.6820   -5.7870   22.2090 C   0  0  0  0  0  0  0  0  0  0  0  0
    7.1170   -4.5940   23.2950 C   0  0  1  0  0  0  0  0  0  0  0  0
    4.9830   -5.4650   23.3860 C   0  0  0  0  0  0  0  0  0  0  0  0
    5.9470   -4.6770   24.0880 C   0  0  0  0  0  0  0  0  0  0  0  0
    8.0750   -5.2950   23.9240 O   0  0  0  0  0  0  0  0  0  0  0  0
    9.1390   -4.3210   24.1350 O   0  0  0  0  0  0  0  0  0  0  0  0
  1  2  1  0
  2  3  2  0
  2  4  1  0
  4  5  1  0
  5  6  2  0
  5  7  1  0
  6  8  1  0
  7  9  2  0
  8 10  2  0
  9 10  1  0
  9 11  1  0
 11 12  1  0
 11 13  1  0
 12 14  1  0
 13 15  1  0
 14 15  1  0
 13 16  1  1
 16 17  1  0
M  END
