MAK-UNK-10dfa458-39-acrylamide
     RDKit          3D

 21 22  0  0  0  0  0  0  0  0999 V2000
    7.3390   -3.0690   19.0340 C   0  0  0  0  0  0  0  0  0  0  0  0
    6.9310   -3.0700   20.4890 C   0  0  0  0  0  0  0  0  0  0  0  0
    6.1400   -4.3270   20.7440 C   0  0  0  0  0  0  0  0  0  0  0  0
    5.2000   -4.6290   19.9990 O   0  0  0  0  0  0  0  0  0  0  0  0
    6.5060   -5.1180   21.8400 N   0  0  0  0  0  0  0  0  0  0  0  0
    7.1450   -4.5620   23.0320 C   0  0  0  0  0  0  0  0  0  0  0  0
    5.5250   -6.1540   22.2160 C   0  0  0  0  0  0  0  0  0  0  0  0
    5.9920   -4.5310   23.9960 C   0  0  0  0  0  0  0  0  0  0  0  0
    4.4270   -5.6910   23.2160 C   0  0  0  0  0  0  0  0  0  0  0  0
    4.9010   -4.7110   24.2380 N   0  0  0  0  0  0  0  0  0  0  0  0
    4.4480   -4.9600   25.6330 C   0  0  1  0  0  0  0  0  0  0  0  0
    5.5320   -4.7400   26.7270 C   0  0  0  0  0  0  0  0  0  0  0  0
    3.2650   -4.0110   25.9470 C   0  0  0  0  0  0  0  0  0  0  0  0
    5.9790   -3.3450   26.7180 N   0  0  0  0  0  0  0  0  0  0  0  0
    3.4980   -2.6470   25.6950 C   0  0  0  0  0  0  0  0  0  0  0  0
    2.3090   -1.9270   25.8920 C   0  0  0  0  0  0  0  0  0  0  0  0
    1.0610   -2.5220   25.6200 C   0  0  0  0  0  0  0  0  0  0  0  0
    2.3280   -0.6180   26.3650 C   0  0  0  0  0  0  0  0  0  0  0  0
   -0.1510   -1.8270   25.8180 C   0  0  0  0  0  0  0  0  0  0  0  0
    1.0360    0.1410   26.5820 C   0  0  0  0  0  0  0  0  0  0  0  0
   -0.1810   -0.4710   26.3070 C   0  0  0  0  0  0  0  0  0  0  0  0
  1  2  1  0
  2  3  1  0
  3  4  2  0
  3  5  1  0
  5  6  1  0
  5  7  1  0
  6  8  1  0
  7  9  1  0
  8 10  1  0
  9 10  1  0
 10 11  1  0
 11 12  1  1
 11 13  1  0
 12 14  3  0
 13 15  1  0
 15 16  1  0
 16 17  2  0
 16 18  1  0
 17 19  1  0
 18 20  2  0
 19 21  2  0
 20 21  1  0
M  END
