MAK-UNK-ec98eaf6-49-acrylamide
     RDKit          3D

 27 30  0  0  0  0  0  0  0  0999 V2000
    7.6620   -2.7800   18.4740 C   0  0  0  0  0  0  0  0  0  0  0  0
    6.1940   -2.7210   18.8270 C   0  0  0  0  0  0  0  0  0  0  0  0
    5.8480   -3.3550   20.1210 C   0  0  0  0  0  0  0  0  0  0  0  0
    5.2550   -4.4360   20.1100 O   0  0  0  0  0  0  0  0  0  0  0  0
    6.2390   -2.6240   21.2300 N   0  0  0  0  0  0  0  0  0  0  0  0
    7.1300   -1.4640   21.1990 C   0  0  0  0  0  0  0  0  0  0  0  0
    6.2900   -3.0850   22.6530 C   0  0  2  0  0  0  0  0  0  0  0  0
    7.5380   -1.4190   22.6250 C   0  0  1  0  0  0  0  0  0  0  0  0
    6.1950   -1.8440   23.2910 C   0  0  0  0  0  0  0  0  0  0  0  0
    7.6360   -3.6840   22.9340 C   0  0  0  0  0  0  0  0  0  0  0  0
    8.4760   -2.4920   23.0880 N   0  0  0  0  0  0  0  0  0  0  0  0
    9.2060   -2.2160   24.3190 C   0  0  2  0  0  0  0  0  0  0  0  0
    8.4070   -1.5760   25.2830 C   0  0  0  0  0  0  0  0  0  0  0  0
   10.2850   -1.4520   23.8930 C   0  0  0  0  0  0  0  0  0  0  0  0
    7.7930   -2.4500   26.1840 C   0  0  0  0  0  0  0  0  0  0  0  0
   10.5750   -0.0430   24.4790 C   0  0  0  0  0  0  0  0  0  0  0  0
   11.1500   -1.9300   22.9070 C   0  0  0  0  0  0  0  0  0  0  0  0
    7.4870   -1.7060   27.3270 C   0  0  0  0  0  0  0  0  0  0  0  0
   11.6500    0.7430   24.0660 C   0  0  0  0  0  0  0  0  0  0  0  0
   12.3260   -1.1220   22.4300 C   0  0  0  0  0  0  0  0  0  0  0  0
    8.1260   -1.8450   28.6640 C   0  0  0  0  0  0  0  0  0  0  0  0
    6.4810   -0.7180   27.2220 C   0  0  0  0  0  0  0  0  0  0  0  0
   12.5910    0.2470   23.0210 C   0  0  0  0  0  0  0  0  0  0  0  0
   13.3320   -1.7570   21.2300 Cl  0  0  0  0  0  0  0  0  0  0  0  0
    7.6770   -0.9600   29.7610 C   0  0  0  0  0  0  0  0  0  0  0  0
    6.1390    0.0730   28.3630 C   0  0  0  0  0  0  0  0  0  0  0  0
    6.7340   -0.0420   29.6390 C   0  0  0  0  0  0  0  0  0  0  0  0
  1  2  1  0
  2  3  1  0
  3  4  2  0
  3  5  1  0
  5  6  1  0
  5  7  1  0
  8  6  1  6
  7  9  1  0
  8  9  1  0
  7 10  1  6
  8 11  1  0
 10 11  1  0
 11 12  1  0
 12 13  1  1
 12 14  1  0
 13 15  1  0
 14 16  2  0
 14 17  1  0
 15 18  1  0
 16 19  1  0
 17 20  2  0
 18 21  2  0
 18 22  1  0
 19 23  2  0
 20 23  1  0
 20 24  1  0
 21 25  1  0
 22 26  2  0
 25 27  2  0
 26 27  1  0
M  END
