MAK-UNK-ec98eaf6-33-acrylamide
     RDKit          3D

 28 31  0  0  0  0  0  0  0  0999 V2000
    7.3530   -2.8360   18.4600 C   0  0  0  0  0  0  0  0  0  0  0  0
    6.4880   -2.2990   19.5750 C   0  0  0  0  0  0  0  0  0  0  0  0
    5.9680   -3.3690   20.5070 C   0  0  0  0  0  0  0  0  0  0  0  0
    5.2590   -4.3170   20.1130 O   0  0  0  0  0  0  0  0  0  0  0  0
    6.3540   -3.2310   21.8280 N   0  0  0  0  0  0  0  0  0  0  0  0
    5.4420   -2.8470   22.9230 C   0  0  0  0  0  0  0  0  0  0  0  0
    7.6670   -2.7150   22.2840 C   0  0  2  0  0  0  0  0  0  0  0  0
    6.5010   -2.5860   23.9640 C   0  0  1  0  0  0  0  0  0  0  0  0
    7.6720   -3.3280   23.6810 C   0  0  0  0  0  0  0  0  0  0  0  0
    7.5160   -1.3600   22.4140 C   0  0  0  0  0  0  0  0  0  0  0  0
    6.9940   -1.1060   23.6790 C   0  0  2  0  0  0  0  0  0  0  0  0
    7.8320   -0.5500   24.7270 C   0  0  0  0  0  0  0  0  0  0  0  0
    9.1730   -0.0710   24.2170 C   0  0  0  0  0  0  0  0  0  0  0  0
    9.2420    1.4550   24.3570 C   0  0  0  0  0  0  0  0  0  0  0  0
   10.1740   -0.8410   23.7020 C   0  0  0  0  0  0  0  0  0  0  0  0
   10.5790    2.0770   23.8450 C   0  0  0  0  0  0  0  0  0  0  0  0
   11.3330   -0.3080   23.2600 C   0  0  0  0  0  0  0  0  0  0  0  0
   10.2620   -2.1780   23.5150 N   0  0  0  0  0  0  0  0  0  0  0  0
   10.8510    3.3890   23.8620 F   0  0  0  0  0  0  0  0  0  0  0  0
   11.5340    1.0330   23.3210 C   0  0  0  0  0  0  0  0  0  0  0  0
   12.1310   -1.3100   22.7970 C   0  0  0  0  0  0  0  0  0  0  0  0
   11.4650   -2.4390   22.9610 C   0  0  0  0  0  0  0  0  0  0  0  0
   13.3560   -1.2910   22.2520 C   0  0  0  0  0  0  0  0  0  0  0  0
   13.2360   -2.1710   21.0200 C   0  0  0  0  0  0  0  0  0  0  0  0
   13.4240   -3.6260   21.2240 N   0  0  0  0  0  0  0  0  0  0  0  0
   14.3770   -4.2530   20.4470 C   0  0  0  0  0  0  0  0  0  0  0  0
   15.0780   -5.5680   20.6530 C   0  0  0  0  0  0  0  0  0  0  0  0
   14.7910   -3.6420   19.5720 O   0  0  0  0  0  0  0  0  0  0  0  0
  1  2  1  0
  2  3  1  0
  3  4  2  0
  3  5  1  0
  5  6  1  0
  5  7  1  0
  8  6  1  6
  7  9  1  0
  8  9  1  0
  7 10  1  1
  8 11  1  0
 10 11  1  0
 11 12  1  1
 12 13  1  0
 13 14  1  0
 13 15  2  0
 14 16  2  0
 15 17  1  0
 15 18  1  0
 16 19  1  0
 16 20  1  0
 17 20  2  0
 17 21  1  0
 18 22  1  0
 21 22  2  0
 21 23  1  0
 23 24  1  0
 24 25  1  0
 25 26  1  0
 26 27  1  0
 26 28  2  0
M  END
