MAK-UNK-3e0761f8-7-bromoalkyne
     RDKit          3D

 25 28  0  0  0  0  0  0  0  0999 V2000
    6.9740   -3.6200   19.8360 C   0  0  0  0  0  0  0  0  0  0  0  0
    5.7230   -3.0840   19.1470 C   0  0  0  0  0  0  0  0  0  0  0  0
    7.3790   -3.0220   21.0310 N   0  0  0  0  0  0  0  0  0  0  0  0
    6.6040   -1.9440   21.6740 C   0  0  0  0  0  0  0  0  0  0  0  0
    8.7650   -2.8130   21.4930 C   0  0  1  0  0  0  0  0  0  0  0  0
    7.6300   -1.3420   22.6820 C   0  0  2  0  0  0  0  0  0  0  0  0
    8.8580   -1.3090   21.7370 C   0  0  0  0  0  0  0  0  0  0  0  0
    8.9370   -3.3710   22.9330 C   0  0  0  0  0  0  0  0  0  0  0  0
    8.0810   -2.3860   23.7540 C   0  0  2  0  0  0  0  0  0  0  0  0
    6.8940   -2.8540   24.6290 C   0  0  0  0  0  0  0  0  0  0  0  0
    6.5480   -2.1290   25.5640 O   0  0  0  0  0  0  0  0  0  0  0  0
    6.2740   -4.0910   24.3190 N   0  0  0  0  0  0  0  0  0  0  0  0
    6.2640   -4.5690   22.9610 C   0  0  0  0  0  0  0  0  0  0  0  0
    4.9840   -4.4040   24.9640 C   0  0  0  0  0  0  0  0  0  0  0  0
    5.2360   -3.8660   22.3320 C   0  0  0  0  0  0  0  0  0  0  0  0
    3.9310   -5.0260   23.9880 C   0  0  2  0  0  0  0  0  0  0  0  0
    3.9940   -4.5090   22.6150 O   0  0  0  0  0  0  0  0  0  0  0  0
    2.6370   -4.7400   24.4180 C   0  0  0  0  0  0  0  0  0  0  0  0
    1.5360   -5.4250   24.1580 N   0  0  0  0  0  0  0  0  0  0  0  0
    2.3000   -3.6690   25.2030 N   0  0  0  0  0  0  0  0  0  0  0  0
    0.5580   -4.7230   24.8100 C   0  0  0  0  0  0  0  0  0  0  0  0
    0.9870   -3.6400   25.4620 N   0  0  0  0  0  0  0  0  0  0  0  0
   -0.9330   -5.1490   24.7880 C   0  0  0  0  0  0  0  0  0  0  0  0
   -1.7000   -4.6590   26.0470 C   0  0  0  0  0  0  0  0  0  0  0  0
   -1.2800   -3.2500   26.5350 C   0  0  0  0  0  0  0  0  0  0  0  0
  1  2  2  3
  1  3  1  0
  3  4  1  0
  3  5  1  0
  6  4  1  6
  5  7  1  0
  6  7  1  0
  5  8  1  1
  6  9  1  0
  8  9  1  0
  9 10  1  6
 10 11  2  0
 10 12  1  0
 12 13  1  0
 12 14  1  0
 13 15  1  0
 14 16  1  0
 15 17  1  0
 16 17  1  0
 16 18  1  1
 18 19  2  0
 18 20  1  0
 19 21  1  0
 20 22  1  0
 21 22  2  0
 21 23  1  0
 23 24  1  0
 24 25  1  0
M  END
