MAK-UNK-ec98eaf6-48-acrylamide
     RDKit          3D

 25 27  0  0  0  0  0  0  0  0999 V2000
    7.9120   -2.8160   18.7440 C   0  0  0  0  0  0  0  0  0  0  0  0
    6.3990   -2.9150   18.8300 C   0  0  0  0  0  0  0  0  0  0  0  0
    5.9000   -3.4610   20.1340 C   0  0  0  0  0  0  0  0  0  0  0  0
    5.2510   -4.5040   20.1220 O   0  0  0  0  0  0  0  0  0  0  0  0
    6.2550   -2.6880   21.2570 N   0  0  0  0  0  0  0  0  0  0  0  0
    6.3330   -3.1020   22.6740 C   0  0  0  0  0  0  0  0  0  0  0  0
    7.6240   -2.2460   21.1580 C   0  0  2  0  0  0  0  0  0  0  0  0
    7.8200   -3.4160   22.8660 C   0  0  1  0  0  0  0  0  0  0  0  0
    8.1770   -3.5300   21.4090 C   0  0  0  0  0  0  0  0  0  0  0  0
    7.9960   -1.3100   22.2440 C   0  0  0  0  0  0  0  0  0  0  0  0
    8.8410   -2.2220   23.0440 C   0  0  1  0  0  0  0  0  0  0  0  0
    9.2310   -2.0020   24.3300 C   0  0  0  0  0  0  0  0  0  0  0  0
   10.5270   -1.2590   24.2470 N   0  0  0  0  0  0  0  0  0  0  0  0
   10.4230    0.1990   24.4280 C   0  0  0  0  0  0  0  0  0  0  0  0
   11.9170   -2.0020   23.5840 S   0  0  0  0  0  0  0  0  0  0  0  0
   11.5560    0.7950   23.8990 C   0  0  0  0  0  0  0  0  0  0  0  0
   12.8050   -0.7240   22.6980 C   0  0  0  0  0  0  0  0  0  0  0  0
   12.7550   -2.4390   24.6840 O   0  0  0  0  0  0  0  0  0  0  0  0
   11.4620   -2.9300   22.5880 O   0  0  0  0  0  0  0  0  0  0  0  0
   11.4240    2.2270   23.4650 C   0  0  0  0  0  0  0  0  0  0  0  0
   12.5090    3.0450   22.8020 C   0  0  0  0  0  0  0  0  0  0  0  0
   10.2000    2.8840   23.6840 C   0  0  0  0  0  0  0  0  0  0  0  0
   12.4100    4.3240   22.4100 C   0  0  0  0  0  0  0  0  0  0  0  0
   10.0410    4.2130   23.2990 C   0  0  0  0  0  0  0  0  0  0  0  0
   11.0550    4.9450   22.6920 C   0  0  0  0  0  0  0  0  0  0  0  0
  1  2  1  0
  2  3  1  0
  3  4  2  0
  3  5  1  0
  5  6  1  0
  5  7  1  0
  8  6  1  6
  7  9  1  0
  8  9  1  0
  7 10  1  1
  8 11  1  0
 10 11  1  0
 11 12  1  1
 12 13  1  0
 13 14  1  0
 15 13  1  0
 14 16  1  0
 15 17  1  0
 15 18  2  0
 15 19  2  0
 16 20  1  0
 20 21  2  0
 20 22  1  0
 21 23  1  0
 22 24  2  0
 23 25  2  0
 24 25  1  0
M  END
