MAK-UNK-148caf23-10-nitrile
     RDKit          3D

 34 37  0  0  0  0  0  0  0  0999 V2000
    5.3880   -5.2090   19.9010 C   0  0  0  0  0  0  0  0  0  0  0  0
    5.2410   -5.9840   18.9610 N   0  0  0  0  0  0  0  0  0  0  0  0
    5.5840   -4.2420   21.0440 C   0  0  0  0  0  0  0  0  0  0  0  0
    4.4300   -4.5390   21.9780 C   0  0  0  0  0  0  0  0  0  0  0  0
    5.2570   -3.5700   22.4400 C   0  0  0  0  0  0  0  0  0  0  0  0
    4.9650   -3.5240   23.0570 C   0  0  0  0  0  0  0  0  0  0  0  0
    5.8000   -2.4990   23.2780 N   0  0  0  0  0  0  0  0  0  0  0  0
    6.2590   -2.9200   22.1280 C   0  0  0  0  0  0  0  0  0  0  0  0
    6.4100   -3.8890   20.9360 N   0  0  0  0  0  0  0  0  0  0  0  0
    6.5530   -5.1400   21.7800 C   0  0  0  0  0  0  0  0  0  0  0  0
    5.2750   -5.5130   22.1800 C   0  0  1  0  0  0  0  0  0  0  0  0
    4.5660   -6.6710   22.0130 N   0  0  0  0  0  0  0  0  0  0  0  0
    4.7760   -5.0900   23.6640 C   0  0  0  0  0  0  0  0  0  0  0  0
    4.6860   -8.0320   22.1600 C   0  0  0  0  0  0  0  0  0  0  0  0
    5.9100   -4.9160   24.7230 C   0  0  0  0  0  0  0  0  0  0  0  0
    4.5750   -4.7480   24.9040 C   0  0  0  0  0  0  0  0  0  0  0  0
    4.2740   -4.7170   24.9280 C   0  0  0  0  0  0  0  0  0  0  0  0
    3.3200   -4.6010   25.0470 N   0  0  0  0  0  0  0  0  0  0  0  0
    4.9880   -4.0930   26.3540 C   0  0  0  0  0  0  0  0  0  0  0  0
    2.6520   -4.2560   26.6690 S   0  0  0  0  0  0  0  0  0  0  0  0
    5.1940   -2.6560   26.4450 C   0  0  0  0  0  0  0  0  0  0  0  0
    4.6200   -3.3950   25.4640 C   0  0  0  0  0  0  0  0  0  0  0  0
    3.7380   -4.9780   27.2200 O   0  0  0  0  0  0  0  0  0  0  0  0
    2.2350   -2.9680   26.0230 O   0  0  0  0  0  0  0  0  0  0  0  0
    3.1330   -3.1610   28.0040 C   0  0  0  0  0  0  0  0  0  0  0  0
    5.2020   -1.3290   26.0360 C   0  0  0  0  0  0  0  0  0  0  0  0
    4.9650   -2.2450   26.0860 C   0  0  0  0  0  0  0  0  0  0  0  0
    4.3040   -4.7440   25.0660 F   0  0  0  0  0  0  0  0  0  0  0  0
    4.0860   -1.8650   28.1840 C   0  0  0  0  0  0  0  0  0  0  0  0
    2.4640   -3.6620   29.2170 C   0  0  0  0  0  0  0  0  0  0  0  0
    5.4190   -1.9170   27.3370 C   0  0  0  0  0  0  0  0  0  0  0  0
    4.3340   -1.3260   29.4630 C   0  0  0  0  0  0  0  0  0  0  0  0
    2.8590   -2.8620   30.0110 N   0  0  0  0  0  0  0  0  0  0  0  0
    3.5380   -2.2390   29.3650 C   0  0  0  0  0  0  0  0  0  0  0  0
  1  2  2  3
  1  3  1  0
  3  4  2  0
  3  5  1  0
  4  6  1  0
  5  7  2  0
  6  8  2  0
  7  8  1  0
  8  9  1  0
  9 10  1  0
 11 10  1  1
 11 12  1  0
 11 13  1  0
 12 14  1  0
 13 15  1  0
 13 16  2  0
 15 17  2  0
 16 18  1  0
 17 18  1  0
 17 19  1  0
 18 20  1  0
 19 21  2  0
 19 22  1  0
 20 23  2  0
 20 24  2  0
 20 25  1  0
 21 26  1  0
 22 27  2  0
 22 28  1  0
 25 29  2  0
 25 30  1  0
 26 31  2  0
 27 31  1  0
 29 32  1  0
 30 33  2  0
 32 34  2  0
 33 34  1  0
M  END
