MAK-UNK-69bf97dd-2-chloroacetamide
     RDKit          3D

 29 32  0  0  0  0  0  0  0  0999 V2000
    7.1360   -3.1600   19.1510 C   0  0  0  0  0  0  0  0  0  0  0  0
    6.2390   -3.8360   20.1540 C   0  0  0  0  0  0  0  0  0  0  0  0
    5.1930   -4.3650   19.7990 O   0  0  0  0  0  0  0  0  0  0  0  0
    6.6460   -3.8990   21.4620 N   0  0  0  0  0  0  0  0  0  0  0  0
    6.4740   -5.0790   22.3230 C   0  0  0  0  0  0  0  0  0  0  0  0
    7.6460   -2.9660   21.9770 C   0  0  0  0  0  0  0  0  0  0  0  0
    5.5610   -4.5900   23.5110 C   0  0  0  0  0  0  0  0  0  0  0  0
    7.4880   -2.8390   23.4670 C   0  0  0  0  0  0  0  0  0  0  0  0
    6.0230   -3.1110   23.7770 C   0  0  0  0  0  0  0  0  0  0  0  0
    5.6870   -2.9790   25.2780 C   0  0  0  0  0  0  0  0  0  0  0  0
    4.5870   -3.2840   25.7200 O   0  0  0  0  0  0  0  0  0  0  0  0
    6.6980   -2.5090   26.1030 N   0  0  0  0  0  0  0  0  0  0  0  0
    7.0520   -1.0850   26.3060 C   0  0  0  0  0  0  0  0  0  0  0  0
    7.2400   -0.7600   27.7400 C   0  0  0  0  0  0  0  0  0  0  0  0
    6.0230   -0.1510   26.1540 C   0  0  0  0  0  0  0  0  0  0  0  0
    6.1490    0.0910   27.6970 N   0  0  0  0  0  0  0  0  0  0  0  0
    5.7740    1.4280   28.6830 S   0  0  0  0  0  0  0  0  0  0  0  0
    5.9830    0.9970   30.0530 O   0  0  0  0  0  0  0  0  0  0  0  0
    4.4940    1.9510   28.2570 O   0  0  0  0  0  0  0  0  0  0  0  0
    7.0040    2.6640   28.3220 C   0  0  0  0  0  0  0  0  0  0  0  0
    8.2350    2.8350   29.2080 C   0  0  0  0  0  0  0  0  0  0  0  0
    6.8840    3.5300   27.2180 C   0  0  0  0  0  0  0  0  0  0  0  0
    9.1920    3.8190   28.9180 C   0  0  0  0  0  0  0  0  0  0  0  0
    7.8760    4.4860   26.9940 C   0  0  0  0  0  0  0  0  0  0  0  0
    8.9950    4.6380   27.8040 C   0  0  0  0  0  0  0  0  0  0  0  0
    7.7120    5.3460   25.8610 O   0  0  0  0  0  0  0  0  0  0  0  0
    8.0010    6.7040   26.1930 C   0  0  0  0  0  0  0  0  0  0  0  0
    9.9600    5.6530   27.4790 O   0  0  0  0  0  0  0  0  0  0  0  0
    9.3890    6.8050   26.8420 C   0  0  0  0  0  0  0  0  0  0  0  0
  1  2  1  0
  2  3  2  0
  2  4  1  0
  4  5  1  0
  4  6  1  0
  5  7  1  0
  6  8  1  0
  7  9  1  0
  8  9  1  0
  9 10  1  0
 10 11  2  0
 10 12  1  0
 12 13  1  0
 13 14  1  0
 13 15  1  0
 14 16  1  0
 15 16  1  0
 16 17  1  0
 17 18  2  0
 17 19  2  0
 17 20  1  0
 20 21  2  0
 20 22  1  0
 21 23  1  0
 22 24  2  0
 23 25  2  0
 24 25  1  0
 24 26  1  0
 26 27  1  0
 25 28  1  0
 27 29  1  0
 28 29  1  0
M  END
