MAK-UNK-849bee6c-1-bromoalkyne
     RDKit          3D

 25 27  0  0  0  0  0  0  0  0999 V2000
    6.7830   -3.7200   20.0930 C   0  0  0  0  0  0  0  0  0  0  0  0
    5.6440   -3.2910   19.1950 C   0  0  0  0  0  0  0  0  0  0  0  0
    7.2530   -2.9360   21.1670 N   0  0  0  0  0  0  0  0  0  0  0  0
    7.5710   -1.5480   20.9450 C   0  0  0  0  0  0  0  0  0  0  0  0
    6.7890   -3.1550   22.5450 C   0  0  0  0  0  0  0  0  0  0  0  0
    8.5520   -0.9750   21.9870 C   0  0  0  0  0  0  0  0  0  0  0  0
    7.6930   -2.5100   23.6380 C   0  0  0  0  0  0  0  0  0  0  0  0
    8.2130   -1.2460   23.4040 N   0  0  0  0  0  0  0  0  0  0  0  0
    9.1140   -0.8410   24.4800 C   0  0  0  0  0  0  0  0  0  0  0  0
   10.4740   -0.4050   23.9600 C   0  0  0  0  0  0  0  0  0  0  0  0
   10.7290    1.0610   23.6770 C   0  0  0  0  0  0  0  0  0  0  0  0
   11.4940   -1.3580   23.7270 C   0  0  0  0  0  0  0  0  0  0  0  0
   12.0600    1.3890   23.1520 C   0  0  0  0  0  0  0  0  0  0  0  0
   12.7870   -1.0620   23.2170 C   0  0  0  0  0  0  0  0  0  0  0  0
   12.3840    2.7210   22.8420 C   0  0  0  0  0  0  0  0  0  0  0  0
   13.0950    0.2770   22.9270 C   0  0  0  0  0  0  0  0  0  0  0  0
   13.6930   -2.1560   22.9860 N   0  0  0  0  0  0  0  0  0  0  0  0
   13.1370   -2.8960   21.9280 C   0  0  0  0  0  0  0  0  0  0  0  0
   11.8670   -2.4340   21.9490 C   0  0  0  0  0  0  0  0  0  0  0  0
   13.5020   -3.9250   20.9180 C   0  0  0  0  0  0  0  0  0  0  0  0
   10.9520   -2.8340   21.1510 C   0  0  0  0  0  0  0  0  0  0  0  0
   12.6230   -4.3650   20.0370 N   0  0  0  0  0  0  0  0  0  0  0  0
   14.7660   -4.7120   20.5960 C   0  0  0  0  0  0  0  0  0  0  0  0
   11.3610   -3.7870   20.2050 C   0  0  0  0  0  0  0  0  0  0  0  0
   15.8680   -5.4900   20.1910 N   0  0  0  0  0  0  0  0  0  0  0  0
  1  2  2  3
  1  3  1  0
  3  4  1  0
  3  5  1  0
  4  6  1  0
  5  7  1  0
  6  8  1  0
  7  8  1  0
  8  9  1  0
  9 10  1  0
 10 11  2  0
 10 12  1  0
 11 13  1  0
 12 14  2  0
 13 15  1  0
 13 16  2  0
 14 16  1  0
 14 17  1  0
 17 18  1  0
 18 19  2  0
 18 20  1  0
 19 21  1  0
 20 22  2  0
 20 23  1  0
 21 24  2  0
 22 24  1  0
 23 25  3  0
M  END
