MAK-UNK-90d0606b-2-nitrile
     RDKit          3D

 24 26  0  0  0  0  0  0  0  0999 V2000
    7.2150   -3.9280   20.2460 C   0  0  0  0  0  0  0  0  0  0  0  0
    5.9960   -4.2890   19.9480 N   0  0  0  0  0  0  0  0  0  0  0  0
    7.7070   -3.4790   21.5120 N   0  0  0  0  0  0  0  0  0  0  0  0
    8.9800   -2.7310   21.7870 C   0  0  0  0  0  0  0  0  0  0  0  0
    6.8980   -2.9160   22.5890 C   0  0  2  0  0  0  0  0  0  0  0  0
    8.4900   -1.3950   22.3380 C   0  0  1  0  0  0  0  0  0  0  0  0
    6.9780   -1.4750   22.1130 C   0  0  0  0  0  0  0  0  0  0  0  0
    7.7130   -2.8870   23.9260 C   0  0  0  0  0  0  0  0  0  0  0  0
    8.5270   -1.5700   23.8460 C   0  0  2  0  0  0  0  0  0  0  0  0
    7.8940   -0.3920   24.5760 C   0  0  0  0  0  0  0  0  0  0  0  0
    7.5410   -0.4770   25.7470 O   0  0  0  0  0  0  0  0  0  0  0  0
    7.7870    0.7350   23.7520 N   0  0  0  0  0  0  0  0  0  0  0  0
    6.9010    0.9260   22.6430 C   0  0  0  0  0  0  0  0  0  0  0  0
    7.3910    0.6230   21.3560 C   0  0  0  0  0  0  0  0  0  0  0  0
    5.5830    1.3830   22.7630 C   0  0  0  0  0  0  0  0  0  0  0  0
    6.5860    0.7590   20.2210 C   0  0  0  0  0  0  0  0  0  0  0  0
    4.7630    1.5320   21.6300 C   0  0  0  0  0  0  0  0  0  0  0  0
    6.9900    0.4610   18.9590 O   0  0  0  0  0  0  0  0  0  0  0  0
    5.2710    1.2140   20.3640 C   0  0  0  0  0  0  0  0  0  0  0  0
    3.4600    1.9660   21.6280 O   0  0  0  0  0  0  0  0  0  0  0  0
    6.5630   -0.8350   18.5480 C   0  0  0  0  0  0  0  0  0  0  0  0
    4.4360    1.3550   19.2730 O   0  0  0  0  0  0  0  0  0  0  0  0
    2.6730    1.5410   20.5240 C   0  0  0  0  0  0  0  0  0  0  0  0
    5.1100    1.4760   18.0190 C   0  0  0  0  0  0  0  0  0  0  0  0
  1  2  2  3
  1  3  1  0
  3  4  1  0
  3  5  1  0
  6  4  1  6
  5  7  1  0
  6  7  1  0
  5  8  1  1
  6  9  1  0
  8  9  1  0
  9 10  1  1
 10 11  2  0
 10 12  1  0
 12 13  1  0
 13 14  2  0
 13 15  1  0
 14 16  1  0
 15 17  2  0
 16 18  1  0
 16 19  2  0
 17 19  1  0
 17 20  1  0
 18 21  1  0
 19 22  1  0
 20 23  1  0
 22 24  1  0
M  END
