MAK-UNK-7c9d1431-9-chloroacetamide
     RDKit          3D

 18 19  0  0  0  0  0  0  0  0999 V2000
    7.0250   -3.4190   19.7880 C   0  0  0  0  0  0  0  0  0  0  0  0
    6.3130   -4.5370   20.5490 C   0  0  0  0  0  0  0  0  0  0  0  0
    5.3530   -5.0830   20.0150 O   0  0  0  0  0  0  0  0  0  0  0  0
    6.7630   -4.9640   21.8010 N   0  0  0  0  0  0  0  0  0  0  0  0
    6.3090   -6.2320   22.3500 C   0  0  0  0  0  0  0  0  0  0  0  0
    7.3470   -4.1350   22.7570 C   0  0  0  0  0  0  0  0  0  0  0  0
    5.3000   -5.9750   23.4590 C   0  0  0  0  0  0  0  0  0  0  0  0
    6.5080   -3.8240   23.8240 C   0  0  0  0  0  0  0  0  0  0  0  0
    5.8650   -5.0280   24.4240 N   0  0  0  0  0  0  0  0  0  0  0  0
    5.2420   -4.9690   26.0200 S   0  0  0  0  0  0  0  0  0  0  0  0
    6.2790   -4.3920   26.9440 O   0  0  0  0  0  0  0  0  0  0  0  0
    4.7500   -6.3470   26.3860 O   0  0  0  0  0  0  0  0  0  0  0  0
    3.8540   -3.8610   25.9310 C   0  0  0  0  0  0  0  0  0  0  0  0
    4.1260   -2.3580   26.0780 C   0  0  0  0  0  0  0  0  0  0  0  0
    2.5540   -4.3120   25.7420 C   0  0  0  0  0  0  0  0  0  0  0  0
    3.0050   -1.4150   26.0210 C   0  0  0  0  0  0  0  0  0  0  0  0
    1.5240   -3.3970   25.6950 C   0  0  0  0  0  0  0  0  0  0  0  0
    1.6750   -1.9210   25.8300 C   0  0  0  0  0  0  0  0  0  0  0  0
  1  2  1  0
  2  3  2  0
  2  4  1  0
  4  5  1  0
  4  6  1  0
  5  7  1  0
  6  8  1  0
  7  9  1  0
  8  9  1  0
  9 10  1  0
 10 11  2  0
 10 12  2  0
 10 13  1  0
 13 14  2  0
 13 15  1  0
 14 16  1  0
 15 17  2  0
 16 18  2  0
 17 18  1  0
M  END
