MAK-UNK-c44f4be0-2
     RDKit          3D

 32 33  0  0  0  0  0  0  0  0999 V2000
    7.6330    4.9220   22.3600 C   0  0  0  0  0  0  0  0  0  0  0  0
    7.3010    3.5780   23.0290 C   0  0  0  0  0  0  0  0  0  0  0  0
    6.4120    3.4580   23.8680 O   0  0  0  0  0  0  0  0  0  0  0  0
    8.0810    2.5260   22.6200 N   0  0  0  0  0  0  0  0  0  0  0  0
    7.8040    1.2170   23.0570 C   0  0  1  0  0  0  0  0  0  0  0  0
    6.4580    0.6620   22.6230 C   0  0  0  0  0  0  0  0  0  0  0  0
    8.9710    0.3600   22.5180 C   0  0  0  0  0  0  0  0  0  0  0  0
    6.1390    0.7520   21.1300 C   0  0  0  0  0  0  0  0  0  0  0  0
    9.9110    0.8740   21.9310 O   0  0  0  0  0  0  0  0  0  0  0  0
    8.8900   -1.0680   22.7600 N   0  0  0  0  0  0  0  0  0  0  0  0
    6.9670   -0.2540   20.3500 C   0  0  0  0  0  0  0  0  0  0  0  0
    5.2120    1.6330   20.5310 C   0  0  0  0  0  0  0  0  0  0  0  0
    9.7720   -1.9410   22.1570 C   0  0  0  0  0  0  0  0  0  0  0  0
    6.7650   -0.2880   18.8560 C   0  0  0  0  0  0  0  0  0  0  0  0
    4.9810    1.6540   19.1600 C   0  0  0  0  0  0  0  0  0  0  0  0
    4.2710    2.7730   21.4010 S   0  0  0  0  0  0  0  0  0  0  0  0
   11.1030   -1.4290   22.0880 C   0  0  0  0  0  0  0  0  0  0  0  0
    5.7520    0.6870   18.2520 C   0  0  0  0  0  0  0  0  0  0  0  0
    5.0630    3.9710   21.5110 O   0  0  0  0  0  0  0  0  0  0  0  0
    3.7110    2.1210   22.5490 O   0  0  0  0  0  0  0  0  0  0  0  0
    3.0360    3.2100   20.3860 N   0  0  0  0  0  0  0  0  0  0  0  0
   12.0330   -1.7880   23.0440 C   0  0  0  0  0  0  0  0  0  0  0  0
    5.6440    0.6030   17.0630 O   0  0  0  0  0  0  0  0  0  0  0  0
    1.7640    2.5910   20.5450 C   0  0  0  0  0  0  0  0  0  0  0  0
   13.2780   -2.2960   24.3790 Br  0  0  0  0  0  0  0  0  0  0  0  0
    0.7650    3.1900   19.7520 C   0  0  0  0  0  0  0  0  0  0  0  0
   -0.5160    2.6670   19.9710 C   0  0  0  0  0  0  0  0  0  0  0  0
   -1.7300    3.2680   19.5910 C   0  0  0  0  0  0  0  0  0  0  0  0
   -0.5520    1.4270   20.6340 C   0  0  0  0  0  0  0  0  0  0  0  0
   -2.9370    2.6470   19.8690 C   0  0  0  0  0  0  0  0  0  0  0  0
   -1.7320    0.7470   20.9430 C   0  0  0  0  0  0  0  0  0  0  0  0
   -2.9330    1.3220   20.5810 C   0  0  0  0  0  0  0  0  0  0  0  0
  1  2  1  0
  2  3  2  0
  2  4  1  0
  4  5  1  0
  5  6  1  6
  5  7  1  0
  6  8  1  0
  7  9  2  0
  7 10  1  0
  8 11  2  0
  8 12  1  0
 10 13  1  0
 11 14  1  0
 12 15  2  0
 12 16  1  0
 13 17  1  0
 14 18  2  0
 15 18  1  0
 16 19  2  0
 16 20  2  0
 16 21  1  0
 17 22  3  0
 18 23  1  0
 21 24  1  0
 22 25  1  0
 24 26  1  0
 26 27  1  0
 27 28  2  0
 27 29  1  0
 28 30  1  0
 29 31  2  0
 30 32  2  0
 31 32  1  0
M  END
