MAK-UNK-148caf23-7-bromoalkyne
     RDKit          3D

 34 37  0  0  0  0  0  0  0  0999 V2000
    8.0910   -3.2780   19.8700 C   0  0  0  0  0  0  0  0  0  0  0  0
    7.6200   -2.5060   18.6200 C   0  0  0  0  0  0  0  0  0  0  0  0
    9.0240   -2.5580   21.1320 C   0  0  0  0  0  0  0  0  0  0  0  0
    8.6660   -1.8640   22.4110 C   0  0  0  0  0  0  0  0  0  0  0  0
   10.3640   -2.2910   21.5210 C   0  0  0  0  0  0  0  0  0  0  0  0
    7.8050   -1.3270   23.4390 C   0  0  0  0  0  0  0  0  0  0  0  0
   10.5110   -1.6030   22.7420 N   0  0  0  0  0  0  0  0  0  0  0  0
    9.3660   -1.2220   23.5120 C   0  0  0  0  0  0  0  0  0  0  0  0
    9.4200   -0.5150   24.7790 N   0  0  0  0  0  0  0  0  0  0  0  0
    8.0700   -0.0060   25.1190 C   0  0  2  0  0  0  0  0  0  0  0  0
    8.1260    0.9570   26.3380 C   0  0  0  0  0  0  0  0  0  0  0  0
    7.1600   -1.0210   25.6530 N   0  0  0  0  0  0  0  0  0  0  0  0
    7.6010   -2.4020   25.6170 C   0  0  0  0  0  0  0  0  0  0  0  0
    6.9940   -3.1000   26.6760 C   0  0  0  0  0  0  0  0  0  0  0  0
    6.1110   -2.5660   27.5890 C   0  0  0  0  0  0  0  0  0  0  0  0
    7.0870   -4.4330   27.0990 C   0  0  0  0  0  0  0  0  0  0  0  0
    5.6500   -3.4260   28.5270 C   0  0  0  0  0  0  0  0  0  0  0  0
    6.2630   -4.6180   28.2230 N   0  0  0  0  0  0  0  0  0  0  0  0
    4.6550   -3.2230   29.7140 C   0  0  0  0  0  0  0  0  0  0  0  0
    6.1350   -6.1200   28.9790 S   0  0  0  0  0  0  0  0  0  0  0  0
    3.8640   -4.4790   30.1940 C   0  0  0  0  0  0  0  0  0  0  0  0
    4.4460   -1.9820   30.3590 C   0  0  0  0  0  0  0  0  0  0  0  0
    5.8340   -5.9360   30.3770 O   0  0  0  0  0  0  0  0  0  0  0  0
    7.2960   -6.8580   28.5650 O   0  0  0  0  0  0  0  0  0  0  0  0
    4.6940   -6.7820   28.2200 C   0  0  0  0  0  0  0  0  0  0  0  0
    2.9220   -4.2920   31.3250 C   0  0  0  0  0  0  0  0  0  0  0  0
    3.5470   -1.8510   31.4220 C   0  0  0  0  0  0  0  0  0  0  0  0
    5.1060   -0.8880   29.9680 F   0  0  0  0  0  0  0  0  0  0  0  0
    3.6890   -7.3590   28.9900 C   0  0  0  0  0  0  0  0  0  0  0  0
    4.5580   -6.7260   26.8590 C   0  0  0  0  0  0  0  0  0  0  0  0
    2.7830   -2.9220   31.9350 C   0  0  0  0  0  0  0  0  0  0  0  0
    2.3420   -7.9970   28.6010 C   0  0  0  0  0  0  0  0  0  0  0  0
    3.4540   -7.2260   26.2660 N   0  0  0  0  0  0  0  0  0  0  0  0
    2.4830   -7.7830   27.0220 C   0  0  0  0  0  0  0  0  0  0  0  0
  1  2  2  3
  1  3  1  0
  3  4  2  0
  3  5  1  0
  4  6  1  0
  5  7  2  0
  6  8  2  0
  7  8  1  0
  8  9  1  0
  9 10  1  0
 10 11  1  1
 10 12  1  0
 12 13  1  0
 13 14  1  0
 14 15  1  0
 14 16  2  0
 15 17  2  0
 16 18  1  0
 17 18  1  0
 17 19  1  0
 18 20  1  0
 19 21  2  0
 19 22  1  0
 20 23  2  0
 20 24  2  0
 20 25  1  0
 21 26  1  0
 22 27  2  0
 22 28  1  0
 25 29  2  0
 25 30  1  0
 26 31  2  0
 27 31  1  0
 29 32  1  0
 30 33  2  0
 32 34  2  0
 33 34  1  0
M  END
