MAK-UNK-ed378e62-6
     RDKit          3D

 10 10  0  0  0  0  0  0  0  0999 V2000
    9.7670   -2.8500   23.4910 C   0  0  0  0  0  0  0  0  0  0  0  0
    8.8470   -3.2460   22.4810 O   0  0  0  0  0  0  0  0  0  0  0  0
    7.7730   -4.0050   22.8220 C   0  0  0  0  0  0  0  0  0  0  0  0
    6.8850   -3.9690   23.9020 C   0  0  0  0  0  0  0  0  0  0  0  0
    7.2850   -5.1910   21.9500 C   0  0  0  0  0  0  0  0  0  0  0  0
    5.8260   -4.7510   24.1700 N   0  0  0  0  0  0  0  0  0  0  0  0
    6.4110   -5.9110   22.0620 N   0  0  0  0  0  0  0  0  0  0  0  0
    5.6200   -5.7550   23.1520 C   0  0  0  0  0  0  0  0  0  0  0  0
    4.4500   -6.6640   23.3350 C   0  0  0  0  0  0  0  0  0  0  0  0
    3.2010   -5.8720   23.2760 N   0  0  0  0  0  0  0  0  0  0  0  0
  1  2  1  0
  2  3  1  0
  3  4  2  0
  3  5  1  0
  4  6  1  0
  5  7  2  0
  6  8  2  0
  7  8  1  0
  8  9  1  0
  9 10  3  0
M  END
