MAK-UNK-8fdbca50-34
     RDKit          3D

 40 43  0  0  0  0  0  0  0  0999 V2000
    6.8100   -0.7450   18.7750 C   0  0  0  0  0  0  0  0  0  0  0  0
    6.7460   -0.4610   20.2530 C   0  0  0  0  0  0  0  0  0  0  0  0
    6.9160    1.0010   20.7030 C   0  0  0  0  0  0  0  0  0  0  0  0
    7.5990   -1.3510   21.0650 N   0  0  0  0  0  0  0  0  0  0  0  0
    6.8280   -2.2930   21.8960 C   0  0  0  0  0  0  0  0  0  0  0  0
    8.8720   -0.7400   21.4760 C   0  0  0  0  0  0  0  0  0  0  0  0
    9.1360    0.4230   21.2310 O   0  0  0  0  0  0  0  0  0  0  0  0
    9.7270   -1.5270   22.2420 C   0  0  0  0  0  0  0  0  0  0  0  0
   11.1380   -1.4530   22.1500 C   0  0  0  0  0  0  0  0  0  0  0  0
    9.3040   -1.0630   23.6150 C   0  0  0  0  0  0  0  0  0  0  0  0
   11.8290   -0.2330   22.7600 C   0  0  0  0  0  0  0  0  0  0  0  0
    9.8320    0.3590   23.7700 C   0  0  0  0  0  0  0  0  0  0  0  0
   11.2370    0.2030   23.9190 N   0  0  0  0  0  0  0  0  0  0  0  0
   11.3660   -0.6100   25.0540 C   0  0  0  0  0  0  0  0  0  0  0  0
   10.2390   -0.3540   26.0520 C   0  0  0  0  0  0  0  0  0  0  0  0
   12.5390   -1.6040   25.1420 C   0  0  0  0  0  0  0  0  0  0  0  0
    9.2930    0.5630   25.6880 N   0  0  0  0  0  0  0  0  0  0  0  0
   13.2840   -2.1240   23.6140 Cl  0  0  0  0  0  0  0  0  0  0  0  0
    8.1160   -0.1360   25.6390 C   0  0  0  0  0  0  0  0  0  0  0  0
    7.2620    0.1790   26.6920 C   0  0  0  0  0  0  0  0  0  0  0  0
    7.4920   -0.1820   28.1170 C   0  0  0  0  0  0  0  0  0  0  0  0
    6.0410    0.8680   26.7080 C   0  0  0  0  0  0  0  0  0  0  0  0
    6.4850    0.2610   28.9180 C   0  0  0  0  0  0  0  0  0  0  0  0
    5.5530    0.9370   28.0090 N   0  0  0  0  0  0  0  0  0  0  0  0
    6.2730    0.1640   30.2930 C   0  0  0  0  0  0  0  0  0  0  0  0
    4.0760    1.7160   28.3980 S   0  0  0  0  0  0  0  0  0  0  0  0
    7.2270    0.6720   31.2080 C   0  0  0  0  0  0  0  0  0  0  0  0
    5.0900   -0.4430   30.8080 C   0  0  0  0  0  0  0  0  0  0  0  0
    3.1790    0.6810   28.8580 O   0  0  0  0  0  0  0  0  0  0  0  0
    3.7340    2.5260   27.2450 O   0  0  0  0  0  0  0  0  0  0  0  0
    4.4520    2.8040   29.7250 C   0  0  0  0  0  0  0  0  0  0  0  0
    7.1520    0.6570   32.5920 C   0  0  0  0  0  0  0  0  0  0  0  0
    4.9380   -0.4930   32.3290 C   0  0  0  0  0  0  0  0  0  0  0  0
    4.1380   -0.9550   30.0140 F   0  0  0  0  0  0  0  0  0  0  0  0
    5.7470    2.9260   30.2270 C   0  0  0  0  0  0  0  0  0  0  0  0
    3.4430    3.5670   30.2950 C   0  0  0  0  0  0  0  0  0  0  0  0
    6.0350    0.0920   33.2030 C   0  0  0  0  0  0  0  0  0  0  0  0
    5.9940    3.8000   31.2810 C   0  0  0  0  0  0  0  0  0  0  0  0
    3.6580    4.4320   31.3280 N   0  0  0  0  0  0  0  0  0  0  0  0
    4.9270    4.5270   31.7960 C   0  0  0  0  0  0  0  0  0  0  0  0
  1  2  1  0
  2  3  1  0
  2  4  1  0
  4  5  1  0
  4  6  1  0
  6  7  2  0
  6  8  1  0
  8  9  1  0
  8 10  1  0
  9 11  1  0
 10 12  1  0
 11 13  1  0
 12 13  1  0
 13 14  1  0
 14 15  2  3
 14 16  1  0
 15 17  1  0
 16 18  1  0
 17 19  1  0
 19 20  1  0
 20 21  1  0
 20 22  2  0
 21 23  2  0
 22 24  1  0
 23 24  1  0
 23 25  1  0
 24 26  1  0
 25 27  2  0
 25 28  1  0
 26 29  2  0
 26 30  2  0
 26 31  1  0
 27 32  1  0
 28 33  2  0
 28 34  1  0
 31 35  2  0
 31 36  1  0
 32 37  2  0
 33 37  1  0
 35 38  1  0
 36 39  2  0
 38 40  2  0
 39 40  1  0
M  END
