MAK-UNK-849bee6c-23-acrylamide
     RDKit          3D

 30 32  0  0  0  0  0  0  0  0999 V2000
    7.8810   -3.1930   19.2220 C   0  0  0  0  0  0  0  0  0  0  0  0
    6.6730   -2.3320   18.9240 C   0  0  0  0  0  0  0  0  0  0  0  0
    5.5870   -2.6170   19.9040 C   0  0  0  0  0  0  0  0  0  0  0  0
    4.7830   -3.4880   19.5890 O   0  0  0  0  0  0  0  0  0  0  0  0
    5.5960   -1.9130   21.1100 N   0  0  0  0  0  0  0  0  0  0  0  0
    6.6400   -0.9250   21.3000 C   0  0  0  0  0  0  0  0  0  0  0  0
    5.2680   -2.6230   22.3460 C   0  0  0  0  0  0  0  0  0  0  0  0
    7.9240   -1.5440   21.8420 C   0  0  0  0  0  0  0  0  0  0  0  0
    6.5160   -3.1350   23.0760 C   0  0  0  0  0  0  0  0  0  0  0  0
    7.7020   -2.2370   23.1170 N   0  0  0  0  0  0  0  0  0  0  0  0
    8.6920   -2.9410   23.8200 C   0  0  0  0  0  0  0  0  0  0  0  0
   10.0940   -2.3260   23.9760 C   0  0  0  0  0  0  0  0  0  0  0  0
   10.5090   -1.0510   23.3410 C   0  0  0  0  0  0  0  0  0  0  0  0
   11.0580   -2.9910   24.7720 C   0  0  0  0  0  0  0  0  0  0  0  0
   11.7880   -0.5030   23.5050 C   0  0  0  0  0  0  0  0  0  0  0  0
   12.3580   -2.4980   24.9960 C   0  0  0  0  0  0  0  0  0  0  0  0
   12.2920    0.6770   22.9600 C   0  0  0  0  0  0  0  0  0  0  0  0
   12.7640   -1.3090   24.4100 C   0  0  0  0  0  0  0  0  0  0  0  0
   13.4250   -3.0980   25.8280 N   0  0  0  0  0  0  0  0  0  0  0  0
   14.5000   -3.9010   25.2680 C   0  0  0  0  0  0  0  0  0  0  0  0
   15.2440   -4.9570   25.8840 N   0  0  0  0  0  0  0  0  0  0  0  0
   14.7860   -3.5880   23.9160 C   0  0  0  0  0  0  0  0  0  0  0  0
   16.2260   -5.6410   25.2850 C   0  0  0  0  0  0  0  0  0  0  0  0
   16.0360   -4.5320   23.4770 C   0  0  0  0  0  0  0  0  0  0  0  0
   13.9900   -2.5510   23.2870 N   0  0  0  0  0  0  0  0  0  0  0  0
   16.8670   -6.7270   25.9060 C   0  0  0  0  0  0  0  0  0  0  0  0
   16.6730   -5.4520   24.1180 N   0  0  0  0  0  0  0  0  0  0  0  0
   12.8350   -2.5390   22.5430 C   0  0  0  0  0  0  0  0  0  0  0  0
   17.3710   -7.9040   26.3440 N   0  0  0  0  0  0  0  0  0  0  0  0
   13.0470   -2.4810   21.0500 C   0  0  0  0  0  0  0  0  0  0  0  0
  1  2  1  0
  2  3  1  0
  3  4  2  0
  3  5  1  0
  5  6  1  0
  5  7  1  0
  6  8  1  0
  7  9  1  0
  8 10  1  0
  9 10  1  0
 10 11  1  0
 11 12  1  0
 12 13  2  0
 12 14  1  0
 13 15  1  0
 14 16  2  0
 15 17  1  0
 15 18  2  0
 16 18  1  0
 16 19  1  0
 19 20  1  0
 20 21  2  0
 20 22  1  0
 21 23  1  0
 22 24  2  0
 22 25  1  0
 23 26  1  0
 23 27  2  0
 24 27  1  0
 25 28  1  0
 26 29  3  0
 28 30  1  0
M  END
