MAK-UNK-3e0761f8-4-chloroacetamide
     RDKit          3D

 24 26  0  0  0  0  0  0  0  0999 V2000
    7.2140   -3.0070   18.8840 C   0  0  0  0  0  0  0  0  0  0  0  0
    6.2400   -3.4040   19.9620 C   0  0  0  0  0  0  0  0  0  0  0  0
    5.2930   -4.1540   19.7220 O   0  0  0  0  0  0  0  0  0  0  0  0
    6.4500   -2.9490   21.2260 N   0  0  0  0  0  0  0  0  0  0  0  0
    6.7160   -3.7440   22.4190 C   0  0  0  0  0  0  0  0  0  0  0  0
    6.7920   -1.5720   21.5780 C   0  0  1  0  0  0  0  0  0  0  0  0
    6.8410   -2.6410   23.5140 C   0  0  2  0  0  0  0  0  0  0  0  0
    6.0080   -1.4820   22.8850 C   0  0  0  0  0  0  0  0  0  0  0  0
    8.2690   -1.5050   22.0520 C   0  0  0  0  0  0  0  0  0  0  0  0
    8.1810   -2.0360   23.4410 N   0  0  0  0  0  0  0  0  0  0  0  0
    9.3590   -2.7240   23.9780 C   0  0  2  0  0  0  0  0  0  0  0  0
    9.2780   -3.2540   25.4140 C   0  0  0  0  0  0  0  0  0  0  0  0
   10.5290   -1.7720   23.7430 C   0  0  0  0  0  0  0  0  0  0  0  0
    8.1490   -3.2710   26.1140 N   0  0  0  0  0  0  0  0  0  0  0  0
   10.8260   -0.6190   24.4860 C   0  0  0  0  0  0  0  0  0  0  0  0
   11.3650   -2.0520   22.6930 C   0  0  0  0  0  0  0  0  0  0  0  0
    7.7950   -4.4630   27.2380 S   0  0  0  0  0  0  0  0  0  0  0  0
   11.9240    0.2010   24.1600 C   0  0  0  0  0  0  0  0  0  0  0  0
   12.4370   -1.2720   22.3580 C   0  0  0  0  0  0  0  0  0  0  0  0
    9.3870   -5.0110   27.8020 C   0  0  0  0  0  0  0  0  0  0  0  0
    7.1960   -5.5500   26.4970 O   0  0  0  0  0  0  0  0  0  0  0  0
    7.1070   -3.8510   28.3560 O   0  0  0  0  0  0  0  0  0  0  0  0
   12.7460   -0.1280   23.0790 C   0  0  0  0  0  0  0  0  0  0  0  0
   13.2550   -1.7130   21.1600 C   0  0  0  0  0  0  0  0  0  0  0  0
  1  2  1  0
  2  3  2  0
  2  4  1  0
  4  5  1  0
  4  6  1  0
  7  5  1  6
  6  8  1  0
  7  8  1  0
  6  9  1  1
  7 10  1  0
  9 10  1  0
 10 11  1  0
 11 12  1  1
 11 13  1  0
 12 14  1  0
 13 15  2  0
 13 16  1  0
 17 14  1  0
 15 18  1  0
 16 19  2  0
 17 20  1  0
 17 21  2  0
 17 22  2  0
 18 23  2  0
 19 23  1  0
 19 24  1  0
M  END
