MAK-UNK-df1a028e-3
     RDKit          3D

 26 30  0  0  0  0  0  0  0  0999 V2000
    9.2530   -4.6990   24.1030 O   0  0  0  0  0  0  0  0  0  0  0  0
    8.8240   -3.5780   23.9240 C   0  0  0  0  0  0  0  0  0  0  0  0
    9.4330   -2.5700   23.1540 C   0  0  0  0  0  0  0  0  0  0  0  0
    7.6790   -3.0830   24.4400 N   0  0  0  0  0  0  0  0  0  0  0  0
    8.6100   -2.1310   22.1250 C   0  0  0  0  0  0  0  0  0  0  0  0
   10.7060   -1.9540   23.4080 C   0  0  0  0  0  0  0  0  0  0  0  0
    6.3690   -3.8030   24.5340 C   0  0  0  0  0  0  0  0  0  0  0  0
    7.3490   -1.6500   24.2040 C   0  0  2  0  0  0  0  0  0  0  0  0
    9.0010   -1.0790   21.3520 C   0  0  0  0  0  0  0  0  0  0  0  0
   11.1110   -1.0420   22.4650 C   0  0  0  0  0  0  0  0  0  0  0  0
   11.4680   -2.2390   24.5170 C   0  0  0  0  0  0  0  0  0  0  0  0
    5.5480   -2.7680   24.3220 C   0  0  1  0  0  0  0  0  0  0  0  0
    6.0650   -1.6530   24.9290 C   0  0  0  0  0  0  0  0  0  0  0  0
    6.9280   -1.4330   22.7910 C   0  0  0  0  0  0  0  0  0  0  0  0
    8.1890   -0.4070   20.7170 O   0  0  0  0  0  0  0  0  0  0  0  0
   10.3210   -0.8260   21.3590 N   0  0  0  0  0  0  0  0  0  0  0  0
   12.3460   -0.3310   22.6390 C   0  0  0  0  0  0  0  0  0  0  0  0
   12.6600   -1.5950   24.7300 C   0  0  0  0  0  0  0  0  0  0  0  0
    5.7820   -2.3890   22.8740 N   0  0  0  0  0  0  0  0  0  0  0  0
   13.1230   -0.6420   23.8320 C   0  0  0  0  0  0  0  0  0  0  0  0
    5.7290   -3.3500   21.9380 C   0  0  0  0  0  0  0  0  0  0  0  0
    5.8350   -4.6940   22.2940 C   0  0  0  0  0  0  0  0  0  0  0  0
    5.5680   -3.0180   20.6220 C   0  0  0  0  0  0  0  0  0  0  0  0
    5.7760   -5.6920   21.3720 C   0  0  0  0  0  0  0  0  0  0  0  0
    5.5030   -3.9940   19.6980 C   0  0  0  0  0  0  0  0  0  0  0  0
    5.6080   -5.3570   20.0690 C   0  0  0  0  0  0  0  0  0  0  0  0
  1  2  2  0
  2  3  1  0
  2  4  1  0
  3  5  2  0
  3  6  1  0
  4  7  1  0
  4  8  1  0
  5  9  1  0
  6 10  2  0
  6 11  1  0
 12  7  1  1
  8 13  1  0
 12 13  1  0
  8 14  1  6
  9 15  2  0
  9 16  1  0
 10 16  1  0
 10 17  1  0
 11 18  2  0
 12 19  1  0
 14 19  1  0
 17 20  2  0
 18 20  1  0
 19 21  1  0
 21 22  2  0
 21 23  1  0
 22 24  1  0
 23 25  2  0
 24 26  2  0
 25 26  1  0
M  END
