MAK-UNK-c7aa8293-7
     RDKit          3D

 21 23  0  0  0  0  0  0  0  0999 V2000
    7.4610    1.7640   21.2350 N   0  0  0  0  0  0  0  0  0  0  0  0
    8.5930    1.9010   21.9310 C   0  0  0  0  0  0  0  0  0  0  0  0
    9.5840    2.0380   23.0870 C   0  0  1  0  0  0  0  0  0  0  0  0
   10.1490    1.0200   23.5050 O   0  0  0  0  0  0  0  0  0  0  0  0
   10.4940    3.2270   22.9110 C   0  0  0  0  0  0  0  0  0  0  0  0
   11.3370    0.6110   22.9450 C   0  0  2  0  0  0  0  0  0  0  0  0
   11.8820    3.0400   22.8750 C   0  0  0  0  0  0  0  0  0  0  0  0
    9.9020    4.6520   22.7690 C   0  0  0  0  0  0  0  0  0  0  0  0
   11.7660   -0.7780   23.4470 C   0  0  1  0  0  0  0  0  0  0  0  0
   12.3420    1.7250   23.0370 C   0  0  0  0  0  0  0  0  0  0  0  0
   10.9220    5.8130   22.5690 C   0  0  0  0  0  0  0  0  0  0  0  0
   12.7640    4.1430   22.6850 C   0  0  0  0  0  0  0  0  0  0  0  0
   13.1130   -1.0280   24.1900 C   0  0  0  0  0  0  0  0  0  0  0  0
   10.6160   -1.2960   23.9380 C   0  0  0  0  0  0  0  0  0  0  0  0
   12.3730    5.4940   22.5250 C   0  0  0  0  0  0  0  0  0  0  0  0
   14.1770    4.0450   22.6300 O   0  0  0  0  0  0  0  0  0  0  0  0
   12.8040   -2.4940   23.8610 C   0  0  0  0  0  0  0  0  0  0  0  0
   10.5730   -2.5560   23.6250 C   0  0  1  0  0  0  0  0  0  0  0  0
   13.2270    6.3360   22.3580 O   0  0  0  0  0  0  0  0  0  0  0  0
   11.6130   -3.0340   24.3260 C   0  0  0  0  0  0  0  0  0  0  0  0
    9.4020   -3.1120   23.9670 N   0  0  0  0  0  0  0  0  0  0  0  0
  1  2  1  0
  3  2  1  6
  3  4  1  0
  3  5  1  0
  4  6  1  0
  5  7  2  0
  5  8  1  0
  6  9  1  0
  6 10  1  1
  7 10  1  0
  8 11  2  0
  7 12  1  0
  9 13  1  1
  9 14  1  0
 11 15  1  0
 12 15  2  0
 12 16  1  0
 13 17  1  0
 14 18  1  0
 15 19  1  0
 17 20  1  0
 18 20  1  0
 18 21  1  1
M  END
