MAK-UNK-10dfa458-19-nitrile
     RDKit          3D

 28 30  0  0  0  0  0  0  0  0999 V2000
    6.5300   -4.4480   20.3130 C   0  0  0  0  0  0  0  0  0  0  0  0
    5.4250   -4.1300   19.8270 N   0  0  0  0  0  0  0  0  0  0  0  0
    6.6820   -5.0480   21.5580 N   0  0  0  0  0  0  0  0  0  0  0  0
    5.7990   -6.1470   22.0010 C   0  0  0  0  0  0  0  0  0  0  0  0
    7.2260   -4.2620   22.6900 C   0  0  0  0  0  0  0  0  0  0  0  0
    4.7620   -5.7760   23.0820 C   0  0  0  0  0  0  0  0  0  0  0  0
    6.6680   -4.6780   24.0700 C   0  0  0  0  0  0  0  0  0  0  0  0
    5.1990   -4.7550   24.0590 N   0  0  0  0  0  0  0  0  0  0  0  0
    4.5570   -4.8220   25.4160 C   0  0  0  0  0  0  0  0  0  0  0  0
    3.4600   -3.7460   25.5770 C   0  0  0  0  0  0  0  0  0  0  0  0
    2.1360   -4.2040   25.2310 C   0  0  0  0  0  0  0  0  0  0  0  0
    3.6800   -2.4150   26.0150 C   0  0  0  0  0  0  0  0  0  0  0  0
    1.0310   -3.1890   25.3730 C   0  0  0  0  0  0  0  0  0  0  0  0
    2.7340   -1.3500   26.1960 C   0  0  0  0  0  0  0  0  0  0  0  0
   -0.3080   -3.4650   25.0780 C   0  0  0  0  0  0  0  0  0  0  0  0
    1.4290   -1.8030   25.8610 C   0  0  0  0  0  0  0  0  0  0  0  0
    3.4800   -0.5390   26.5550 N   0  0  0  0  0  0  0  0  0  0  0  0
    3.2440    0.6750   27.3260 C   0  0  0  0  0  0  0  0  0  0  0  0
    2.2430    0.7070   28.2970 C   0  0  0  0  0  0  0  0  0  0  0  0
    4.0230    1.8340   27.1020 C   0  0  0  0  0  0  0  0  0  0  0  0
    2.0000    1.8940   29.0590 C   0  0  0  0  0  0  0  0  0  0  0  0
    3.7820    2.9960   27.8500 C   0  0  0  0  0  0  0  0  0  0  0  0
    5.0960    1.8590   26.0890 C   0  0  0  0  0  0  0  0  0  0  0  0
    2.7850    3.0650   28.8310 C   0  0  0  0  0  0  0  0  0  0  0  0
    6.3960    2.5490   26.1920 C   0  0  0  0  0  0  0  0  0  0  0  0
    2.6120    4.2630   29.5250 N   0  0  0  0  0  0  0  0  0  0  0  0
    1.5610    5.2020   29.1510 C   0  0  0  0  0  0  0  0  0  0  0  0
    0.9440    4.8030   27.9650 C   0  0  0  0  0  0  0  0  0  0  0  0
  1  2  2  3
  1  3  1  0
  3  4  1  0
  3  5  1  0
  4  6  1  0
  5  7  1  0
  6  8  1  0
  7  8  1  0
  8  9  1  0
  9 10  1  0
 10 11  2  0
 10 12  1  0
 11 13  1  0
 12 14  2  0
 13 15  1  0
 13 16  2  0
 14 16  1  0
 14 17  1  0
 17 18  1  0
 18 19  2  0
 18 20  1  0
 19 21  1  0
 20 22  2  0
 20 23  1  0
 21 24  2  0
 22 24  1  0
 23 25  2  3
 24 26  1  0
 26 27  1  0
 27 28  1  0
M  END
