MAK-UNK-148caf23-19-acrylamide
     RDKit          3D

 36 39  0  0  0  0  0  0  0  0999 V2000
    6.7400   -3.5440   19.6580 C   0  0  0  0  0  0  0  0  0  0  0  0
    6.7490   -3.0550   21.0970 C   0  0  0  0  0  0  0  0  0  0  0  0
    6.1130   -4.0930   22.0270 C   0  0  0  0  0  0  0  0  0  0  0  0
    4.8830   -4.3010   22.0180 O   0  0  0  0  0  0  0  0  0  0  0  0
    7.0530   -4.8680   22.9780 C   0  0  0  0  0  0  0  0  0  0  0  0
    6.7640   -5.6660   22.0170 C   0  0  0  0  0  0  0  0  0  0  0  0
    7.8050   -5.8760   23.4770 C   0  0  0  0  0  0  0  0  0  0  0  0
    6.1940   -4.3850   21.9930 C   0  0  0  0  0  0  0  0  0  0  0  0
    7.7410   -4.7780   24.1150 N   0  0  0  0  0  0  0  0  0  0  0  0
    6.8830   -4.0030   23.3120 C   0  0  0  0  0  0  0  0  0  0  0  0
    6.6290   -2.7260   23.7880 N   0  0  0  0  0  0  0  0  0  0  0  0
    6.3110   -2.3740   25.1210 C   0  0  0  0  0  0  0  0  0  0  0  0
    6.4140   -1.0140   25.5730 C   0  0  0  0  0  0  0  0  0  0  0  0
    7.0820   -0.0370   25.0500 N   0  0  0  0  0  0  0  0  0  0  0  0
    5.9220   -0.2970   26.5830 C   0  0  0  0  0  0  0  0  0  0  0  0
    6.6570    1.0020   26.1060 C   0  0  0  0  0  0  0  0  0  0  0  0
    5.1330   -0.6380   27.5460 C   0  0  0  0  0  0  0  0  0  0  0  0
    6.3440    1.4650   26.7500 S   0  0  0  0  0  0  0  0  0  0  0  0
    5.6530    0.6620   27.3760 C   0  0  0  0  0  0  0  0  0  0  0  0
    7.3050    1.8580   25.7330 O   0  0  0  0  0  0  0  0  0  0  0  0
    5.0770    2.2050   26.7980 O   0  0  0  0  0  0  0  0  0  0  0  0
    7.1410    1.7590   28.2550 N   0  0  0  0  0  0  0  0  0  0  0  0
    7.5020    3.0460   28.6370 C   0  0  0  0  0  0  0  0  0  0  0  0
    7.5340    0.8530   29.2570 C   0  0  0  0  0  0  0  0  0  0  0  0
    8.1450    3.1310   29.8750 C   0  0  0  0  0  0  0  0  0  0  0  0
    8.2010    1.6970   30.3550 C   0  0  0  0  0  0  0  0  0  0  0  0
    7.4090   -0.5450   29.3630 C   0  0  0  0  0  0  0  0  0  0  0  0
    8.6070    4.3060   30.4650 C   0  0  0  0  0  0  0  0  0  0  0  0
    6.1280   -0.1290   29.8920 C   0  0  0  0  0  0  0  0  0  0  0  0
    8.6890   -0.5160   28.8200 C   0  0  0  0  0  0  0  0  0  0  0  0
    9.5420    4.1350   31.4750 N   0  0  0  0  0  0  0  0  0  0  0  0
    6.0160   -1.3230   29.9820 C   0  0  0  0  0  0  0  0  0  0  0  0
    7.8220    0.3080   29.1610 C   0  0  0  0  0  0  0  0  0  0  0  0
    9.6200    0.3500   28.3960 F   0  0  0  0  0  0  0  0  0  0  0  0
   10.6260    3.4590   30.9620 C   0  0  0  0  0  0  0  0  0  0  0  0
    7.3200   -1.1750   29.4250 C   0  0  0  0  0  0  0  0  0  0  0  0
  1  2  1  0
  2  3  1  0
  3  4  2  0
  3  5  1  0
  5  6  2  0
  5  7  1  0
  6  8  1  0
  7  9  2  0
  8 10  2  0
  9 10  1  0
 10 11  1  0
 11 12  1  0
 12 13  1  0
 13 14  2  0
 13 15  1  0
 14 16  1  0
 15 17  2  0
 18 15  1  0
 16 19  2  0
 17 19  1  0
 18 20  2  0
 18 21  2  0
 18 22  1  0
 22 23  1  0
 22 24  1  0
 23 25  2  0
 24 26  2  0
 25 26  1  0
 24 27  1  0
 25 28  1  0
 27 29  2  0
 27 30  1  0
 28 31  1  0
 29 32  1  0
 30 33  2  0
 30 34  1  0
 31 35  1  0
 32 36  2  0
 33 36  1  0
M  END
