MAK-UNK-f203cb68-20
     RDKit          3D

 29 31  0  0  0  0  0  0  0  0999 V2000
    5.3440    0.6060   17.6840 C   0  0  0  0  0  0  0  0  0  0  0  0
    6.5280   -0.0220   17.0430 C   0  0  0  0  0  0  0  0  0  0  0  0
    7.2990    0.8200   16.2870 C   0  0  0  0  0  0  0  0  0  0  0  0
    6.8850   -1.3720   17.1500 C   0  0  0  0  0  0  0  0  0  0  0  0
    8.3950    0.3470   15.6550 C   0  0  0  0  0  0  0  0  0  0  0  0
    8.0180   -1.7520   16.4840 C   0  0  0  0  0  0  0  0  0  0  0  0
    6.1110   -2.2640   17.8910 N   0  0  0  0  0  0  0  0  0  0  0  0
    8.7620   -0.9120   15.7570 N   0  0  0  0  0  0  0  0  0  0  0  0
    5.7200   -2.1310   19.1780 C   0  0  0  0  0  0  0  0  0  0  0  0
    5.3330   -3.0070   19.9630 O   0  0  0  0  0  0  0  0  0  0  0  0
    5.7700   -0.7030   19.5510 C   0  0  0  0  0  0  0  0  0  0  0  0
    4.8020   -0.0080   18.8870 N   0  0  0  0  0  0  0  0  0  0  0  0
    6.6320   -0.0950   20.4400 C   0  0  0  0  0  0  0  0  0  0  0  0
    4.6750    1.3150   19.1250 C   0  0  0  0  0  0  0  0  0  0  0  0
    6.4630    1.2430   20.6710 C   0  0  0  0  0  0  0  0  0  0  0  0
    7.7730   -0.4630   21.2990 N   0  0  0  0  0  0  0  0  0  0  0  0
    5.4810    1.9860   20.0170 C   0  0  0  0  0  0  0  0  0  0  0  0
    7.0700    2.2970   21.5110 C   0  0  0  0  0  0  0  0  0  0  0  0
    8.8190    0.3320   21.7220 C   0  0  0  0  0  0  0  0  0  0  0  0
    9.1570    1.3870   21.1880 O   0  0  0  0  0  0  0  0  0  0  0  0
    9.5290   -0.1610   22.9500 C   0  0  1  0  0  0  0  0  0  0  0  0
   10.9970    0.2970   22.9830 C   0  0  0  0  0  0  0  0  0  0  0  0
    8.7870    0.3130   24.1880 C   0  0  0  0  0  0  0  0  0  0  0  0
    8.4310   -0.5530   25.2240 C   0  0  0  0  0  0  0  0  0  0  0  0
    8.4340    1.6670   24.2970 C   0  0  0  0  0  0  0  0  0  0  0  0
    7.7410   -0.0860   26.3430 C   0  0  0  0  0  0  0  0  0  0  0  0
    7.7410    2.1300   25.4110 C   0  0  0  0  0  0  0  0  0  0  0  0
    7.3930    1.2590   26.4360 C   0  0  0  0  0  0  0  0  0  0  0  0
    7.3110    3.7990   25.5130 Cl  0  0  0  0  0  0  0  0  0  0  0  0
  1  2  1  0
  2  3  2  0
  2  4  1  0
  3  5  1  0
  4  6  2  0
  4  7  1  0
  5  8  2  0
  6  8  1  0
  7  9  1  0
  9 10  2  0
  9 11  1  0
 11 12  2  0
 11 13  1  0
 12 14  1  0
 13 15  2  0
 13 16  1  0
 14 17  2  0
 15 17  1  0
 15 18  1  0
 16 19  1  0
 19 20  2  0
 19 21  1  0
 21 22  1  1
 21 23  1  0
 23 24  2  0
 23 25  1  0
 24 26  1  0
 25 27  2  0
 26 28  2  0
 27 28  1  0
 27 29  1  0
M  END
