MAK-UNK-ec98eaf6-34-vinylsulfonamide
     RDKit          3D

 29 32  0  0  0  0  0  0  0  0999 V2000
    7.7020   -3.5230   20.1430 C   0  0  0  0  0  0  0  0  0  0  0  0
    6.8870   -2.4980   19.3710 C   0  0  0  0  0  0  0  0  0  0  0  0
    5.5690   -1.9070   20.4190 S   0  0  0  0  0  0  0  0  0  0  0  0
    4.9010   -3.0810   21.0580 O   0  0  0  0  0  0  0  0  0  0  0  0
    4.7850   -1.0810   19.5380 O   0  0  0  0  0  0  0  0  0  0  0  0
    6.2320   -0.7570   21.5060 N   0  0  0  0  0  0  0  0  0  0  0  0
    6.3260    0.6900   21.1140 C   0  0  0  0  0  0  0  0  0  0  0  0
    7.4780   -0.8570   22.3200 C   0  0  1  0  0  0  0  0  0  0  0  0
    7.8860    0.8730   21.2070 C   0  0  2  0  0  0  0  0  0  0  0  0
    8.4830   -0.5260   21.2330 C   0  0  0  0  0  0  0  0  0  0  0  0
    7.4560    0.2440   23.2230 C   0  0  0  0  0  0  0  0  0  0  0  0
    8.1040    1.3800   22.6810 C   0  0  1  0  0  0  0  0  0  0  0  0
    9.5310    1.6560   23.1210 N   0  0  0  0  0  0  0  0  0  0  0  0
   10.4070    0.5830   23.1860 C   0  0  0  0  0  0  0  0  0  0  0  0
   11.7200    0.4630   22.6710 C   0  0  0  0  0  0  0  0  0  0  0  0
    9.9340   -0.4850   23.7880 C   0  0  0  0  0  0  0  0  0  0  0  0
   12.5820   -0.8130   22.7240 C   0  0  0  0  0  0  0  0  0  0  0  0
   10.5840   -1.6320   23.8800 C   0  0  0  0  0  0  0  0  0  0  0  0
    8.7220   -0.6400   24.4090 N   0  0  0  0  0  0  0  0  0  0  0  0
   13.7770   -0.8530   22.2050 F   0  0  0  0  0  0  0  0  0  0  0  0
   11.9580   -2.0390   23.4020 C   0  0  0  0  0  0  0  0  0  0  0  0
    9.7250   -2.6110   24.5620 C   0  0  0  0  0  0  0  0  0  0  0  0
    8.5770   -1.8930   24.8800 C   0  0  0  0  0  0  0  0  0  0  0  0
    9.7070   -3.8890   24.9130 C   0  0  0  0  0  0  0  0  0  0  0  0
    8.5640   -4.1660   24.1240 C   0  0  0  0  0  0  0  0  0  0  0  0
    8.0060   -5.3710   24.3010 N   0  0  0  0  0  0  0  0  0  0  0  0
    6.6490   -5.5080   24.0770 C   0  0  0  0  0  0  0  0  0  0  0  0
    6.2870   -6.2840   22.8180 C   0  0  0  0  0  0  0  0  0  0  0  0
    5.7870   -5.0610   24.8290 O   0  0  0  0  0  0  0  0  0  0  0  0
  1  2  1  0
  3  2  1  0
  3  4  2  0
  3  5  2  0
  3  6  1  0
  6  7  1  0
  6  8  1  0
  9  7  1  1
  8 10  1  0
  9 10  1  0
  8 11  1  1
  9 12  1  0
 11 12  1  0
 12 13  1  1
 13 14  1  0
 14 15  1  0
 14 16  2  0
 15 17  2  0
 16 18  1  0
 16 19  1  0
 17 20  1  0
 17 21  1  0
 18 21  2  0
 18 22  1  0
 19 23  1  0
 22 23  2  0
 22 24  1  0
 24 25  1  0
 25 26  1  0
 26 27  1  0
 27 28  1  0
 27 29  2  0
M  END
