MAK-UNK-148caf23-20-chloroacetamide
     RDKit          3D

 35 38  0  0  0  0  0  0  0  0999 V2000
    8.6890   -3.7790   19.3950 C   0  0  0  0  0  0  0  0  0  0  0  0
    8.0250   -2.7710   20.0930 C   0  0  0  0  0  0  0  0  0  0  0  0
    6.8120   -2.8500   19.3640 O   0  0  0  0  0  0  0  0  0  0  0  0
    8.7680   -2.0310   21.4310 C   0  0  0  0  0  0  0  0  0  0  0  0
    8.3820   -2.6340   22.7350 C   0  0  0  0  0  0  0  0  0  0  0  0
    9.7180   -0.9420   21.6500 C   0  0  0  0  0  0  0  0  0  0  0  0
    8.8980   -2.1080   23.9340 C   0  0  0  0  0  0  0  0  0  0  0  0
   10.2050   -0.4590   22.8890 N   0  0  0  0  0  0  0  0  0  0  0  0
    9.7660   -1.0510   24.0250 C   0  0  0  0  0  0  0  0  0  0  0  0
   10.1720   -0.5790   25.2800 N   0  0  0  0  0  0  0  0  0  0  0  0
    9.1120    0.2540   25.8880 C   0  0  0  0  0  0  0  0  0  0  0  0
    8.0590   -0.4780   26.7000 C   0  0  0  0  0  0  0  0  0  0  0  0
    7.1150   -1.4890   26.3250 C   0  0  0  0  0  0  0  0  0  0  0  0
    8.0150   -0.0730   28.0490 C   0  0  0  0  0  0  0  0  0  0  0  0
    6.1620   -2.0740   27.3100 C   0  0  0  0  0  0  0  0  0  0  0  0
    7.1410   -0.5710   29.0390 C   0  0  0  0  0  0  0  0  0  0  0  0
    8.8780    0.8730   28.4330 F   0  0  0  0  0  0  0  0  0  0  0  0
    6.2070   -1.5620   28.7410 C   0  0  0  0  0  0  0  0  0  0  0  0
    7.2700    0.0310   30.4150 C   0  0  0  0  0  0  0  0  0  0  0  0
    8.4550    0.2250   31.0700 C   0  0  0  0  0  0  0  0  0  0  0  0
    6.1990    0.5190   31.2700 N   0  0  0  0  0  0  0  0  0  0  0  0
    8.2960    0.8150   32.3080 C   0  0  0  0  0  0  0  0  0  0  0  0
    6.7660    0.9970   32.4210 C   0  0  0  0  0  0  0  0  0  0  0  0
    4.5170    0.5470   30.9790 S   0  0  0  0  0  0  0  0  0  0  0  0
    9.3230    1.1460   33.1980 C   0  0  0  0  0  0  0  0  0  0  0  0
    4.2980    0.8210   29.5780 O   0  0  0  0  0  0  0  0  0  0  0  0
    3.9620    1.4280   31.9850 O   0  0  0  0  0  0  0  0  0  0  0  0
    3.9130   -1.0720   31.2730 C   0  0  0  0  0  0  0  0  0  0  0  0
   10.5420    0.6500   32.5640 N   0  0  0  0  0  0  0  0  0  0  0  0
    3.8770   -1.6000   32.5600 C   0  0  0  0  0  0  0  0  0  0  0  0
    3.4590   -1.8450   30.2150 C   0  0  0  0  0  0  0  0  0  0  0  0
   10.8490    1.3350   31.2890 C   0  0  0  0  0  0  0  0  0  0  0  0
    3.3840   -2.8920   32.7400 C   0  0  0  0  0  0  0  0  0  0  0  0
    2.9740   -3.1070   30.3660 N   0  0  0  0  0  0  0  0  0  0  0  0
    2.9470   -3.6030   31.6240 C   0  0  0  0  0  0  0  0  0  0  0  0
  1  2  1  0
  2  3  2  0
  2  4  1  0
  4  5  2  0
  4  6  1  0
  5  7  1  0
  6  8  2  0
  7  9  2  0
  8  9  1  0
  9 10  1  0
 10 11  1  0
 11 12  1  0
 12 13  2  0
 12 14  1  0
 13 15  1  0
 14 16  2  0
 14 17  1  0
 15 18  2  0
 16 18  1  0
 16 19  1  0
 19 20  2  0
 19 21  1  0
 20 22  1  0
 21 23  1  0
 22 23  2  0
 21 24  1  0
 22 25  1  0
 24 26  2  0
 24 27  2  0
 24 28  1  0
 25 29  1  0
 28 30  2  0
 28 31  1  0
 29 32  1  0
 30 33  1  0
 31 34  2  0
 33 35  2  0
 34 35  1  0
M  END
