MAK-UNK-8fdbca50-9-vinylsulfonamide
     RDKit          3D

 41 44  0  0  0  0  0  0  0  0999 V2000
    8.1920   -3.8770   20.1920 C   0  0  0  0  0  0  0  0  0  0  0  0
    6.9100   -3.3450   19.5490 C   0  0  0  0  0  0  0  0  0  0  0  0
    6.0160   -2.4800   20.7970 S   0  0  0  0  0  0  0  0  0  0  0  0
    5.0010   -3.3870   21.3500 O   0  0  0  0  0  0  0  0  0  0  0  0
    5.6520   -1.1820   20.2840 O   0  0  0  0  0  0  0  0  0  0  0  0
    7.2850   -2.2990   21.8780 N   0  0  0  0  0  0  0  0  0  0  0  0
    8.5530   -1.8020   21.4000 C   0  0  0  0  0  0  0  0  0  0  0  0
    7.0210   -1.8310   23.2030 C   0  0  0  0  0  0  0  0  0  0  0  0
    9.6520   -2.4930   22.1690 C   0  0  0  0  0  0  0  0  0  0  0  0
    8.3130   -1.9290   24.0270 C   0  0  0  0  0  0  0  0  0  0  0  0
    9.3120   -2.9600   23.4570 C   0  0  0  0  0  0  0  0  0  0  0  0
    8.7780   -4.2420   23.6600 C   0  0  0  0  0  0  0  0  0  0  0  0
    9.5030   -5.2370   23.7800 O   0  0  0  0  0  0  0  0  0  0  0  0
    7.2690   -4.3020   23.7340 N   0  0  0  0  0  0  0  0  0  0  0  0
    6.6810   -5.4340   22.9300 C   0  0  0  0  0  0  0  0  0  0  0  0
    6.6420   -4.0080   25.0790 C   0  0  2  0  0  0  0  0  0  0  0  0
    5.9270   -5.1570   25.5450 C   0  0  0  0  0  0  0  0  0  0  0  0
    5.7230   -2.7610   25.0580 C   0  0  0  0  0  0  0  0  0  0  0  0
    4.2390   -3.0800   25.0300 C   0  0  0  0  0  0  0  0  0  0  0  0
    6.1320   -1.4070   25.0590 C   0  0  0  0  0  0  0  0  0  0  0  0
    3.3320   -2.0280   25.0030 C   0  0  0  0  0  0  0  0  0  0  0  0
    5.1930   -0.3610   25.0220 C   0  0  0  0  0  0  0  0  0  0  0  0
    3.8080   -0.5900   24.9960 C   0  0  0  0  0  0  0  0  0  0  0  0
    5.7060    1.3540   25.0010 S   0  0  0  0  0  0  0  0  0  0  0  0
    4.6530    2.1420   24.4030 O   0  0  0  0  0  0  0  0  0  0  0  0
    6.2150    1.6880   26.3160 O   0  0  0  0  0  0  0  0  0  0  0  0
    7.0730    1.4850   23.9910 N   0  0  0  0  0  0  0  0  0  0  0  0
    8.3720    1.3840   24.4820 C   0  0  0  0  0  0  0  0  0  0  0  0
    7.1890    1.7000   22.5970 C   0  0  0  0  0  0  0  0  0  0  0  0
    9.4440    1.5010   23.6140 C   0  0  0  0  0  0  0  0  0  0  0  0
    8.7080    1.7170   22.3200 C   0  0  0  0  0  0  0  0  0  0  0  0
    6.2740    1.8790   21.5420 C   0  0  0  0  0  0  0  0  0  0  0  0
   10.7730    1.4250   23.9620 C   0  0  0  0  0  0  0  0  0  0  0  0
    6.5600    1.2870   20.3820 C   0  0  0  0  0  0  0  0  0  0  0  0
    5.1100    2.6500   21.6860 C   0  0  0  0  0  0  0  0  0  0  0  0
   11.6620    1.3850   22.9080 N   0  0  0  0  0  0  0  0  0  0  0  0
    5.8270    1.3440   19.2770 C   0  0  0  0  0  0  0  0  0  0  0  0
    4.4970    2.5480   20.3450 C   0  0  0  0  0  0  0  0  0  0  0  0
    3.9550    3.3320   21.6000 F   0  0  0  0  0  0  0  0  0  0  0  0
   12.6330    0.5290   23.1390 C   0  0  0  0  0  0  0  0  0  0  0  0
    4.6410    1.9750   18.9970 C   0  0  0  0  0  0  0  0  0  0  0  0
  1  2  1  0
  3  2  1  0
  3  4  2  0
  3  5  2  0
  3  6  1  0
  6  7  1  0
  6  8  1  0
  7  9  1  0
  8 10  1  0
  9 11  1  0
 10 11  1  0
 11 12  1  0
 12 13  2  0
 12 14  1  0
 14 15  1  0
 14 16  1  0
 16 17  1  6
 16 18  1  0
 18 19  2  0
 18 20  1  0
 19 21  1  0
 20 22  2  0
 21 23  2  0
 22 23  1  0
 24 22  1  0
 24 25  2  0
 24 26  2  0
 24 27  1  0
 27 28  1  0
 27 29  1  0
 28 30  2  0
 29 31  2  0
 30 31  1  0
 29 32  1  0
 30 33  1  0
 32 34  2  0
 32 35  1  0
 33 36  1  0
 34 37  1  0
 35 38  2  0
 35 39  1  0
 36 40  1  0
 37 41  2  0
 38 41  1  0
M  END
