MAK-UNK-212f693e-35
     RDKit          3D

 16 17  0  0  0  0  0  0  0  0999 V2000
    5.8740   -2.3550   19.3540 C   0  0  0  0  0  0  0  0  0  0  0  0
    6.3580   -2.9590   20.6790 C   0  0  0  0  0  0  0  0  0  0  0  0
    6.0430   -4.4610   20.6950 C   0  0  0  0  0  0  0  0  0  0  0  0
    5.5010   -5.0110   19.7540 O   0  0  0  0  0  0  0  0  0  0  0  0
    6.4410   -5.1160   21.8540 N   0  0  0  0  0  0  0  0  0  0  0  0
    6.4940   -4.1170   22.9160 C   0  0  0  0  0  0  0  0  0  0  0  0
    5.6600   -6.2570   22.2230 C   0  0  0  0  0  0  0  0  0  0  0  0
    6.9070   -4.7230   24.2370 C   0  0  0  0  0  0  0  0  0  0  0  0
    4.8330   -5.9560   23.2960 C   0  0  0  0  0  0  0  0  0  0  0  0
    5.4010   -4.7770   24.1200 C   0  0  0  0  0  0  0  0  0  0  0  0
    4.7750   -4.8650   25.3810 C   0  0  0  0  0  0  0  0  0  0  0  0
    3.5850   -3.8560   25.5360 C   0  0  0  0  0  0  0  0  0  0  0  0
    3.6080   -2.3660   25.8240 C   0  0  0  0  0  0  0  0  0  0  0  0
    2.0370   -4.1290   25.4340 C   0  0  0  0  0  0  0  0  0  0  0  0
    2.3850   -1.7260   25.9080 C   0  0  0  0  0  0  0  0  0  0  0  0
    0.9610   -2.7270   25.6750 S   0  0  0  0  0  0  0  0  0  0  0  0
  1  2  1  0
  2  3  1  0
  3  4  2  0
  3  5  1  0
  5  6  1  0
  5  7  1  0
  6  8  1  0
  7  9  1  0
  8 10  1  0
  9 10  1  0
 10 11  1  0
 11 12  1  0
 12 13  1  0
 12 14  2  0
 13 15  2  0
 14 16  1  0
 15 16  1  0
M  END
