MAK-UNK-72659d64-5-vinylsulfonamide
     RDKit          3D

 15 15  0  0  0  0  0  0  0  0999 V2000
    7.3930   -3.0260   18.6840 C   0  0  0  0  0  0  0  0  0  0  0  0
    7.3520   -2.2110   19.9420 C   0  0  0  0  0  0  0  0  0  0  0  0
    6.0820   -2.9510   20.9150 S   0  0  0  0  0  0  0  0  0  0  0  0
    4.8400   -3.0830   20.1750 O   0  0  0  0  0  0  0  0  0  0  0  0
    6.1020   -2.2750   22.1960 O   0  0  0  0  0  0  0  0  0  0  0  0
    6.4860   -4.5530   21.1530 N   0  0  0  0  0  0  0  0  0  0  0  0
    5.5970   -5.3290   20.3920 C   0  0  0  0  0  0  0  0  0  0  0  0
    6.0800   -4.8720   22.4400 C   0  0  0  0  0  0  0  0  0  0  0  0
    6.6320   -4.1480   23.5930 C   0  0  0  0  0  0  0  0  0  0  0  0
    5.1460   -5.8160   22.7080 N   0  0  0  0  0  0  0  0  0  0  0  0
    6.1840   -4.4130   24.9870 C   0  0  0  0  0  0  0  0  0  0  0  0
    4.7870   -6.0080   23.9830 C   0  0  0  0  0  0  0  0  0  0  0  0
    5.2320   -5.3750   25.1730 N   0  0  0  0  0  0  0  0  0  0  0  0
    3.7510   -7.0500   24.2010 C   0  0  0  0  0  0  0  0  0  0  0  0
    2.8070   -7.9810   24.4150 N   0  0  0  0  0  0  0  0  0  0  0  0
  1  2  1  0
  2  3  1  0
  3  4  2  0
  3  5  2  0
  3  6  1  0
  6  7  1  0
  6  8  1  0
  8  9  2  0
  8 10  1  0
  9 11  1  0
 10 12  2  0
 11 13  2  0
 12 13  1  0
 12 14  1  0
 14 15  3  0
M  END
