MAK-UNK-148caf23-14-nitrile
     RDKit          3D

 34 37  0  0  0  0  0  0  0  0999 V2000
    6.3570   -3.9470   19.7700 C   0  0  0  0  0  0  0  0  0  0  0  0
    5.7100   -5.0250   20.0430 N   0  0  0  0  0  0  0  0  0  0  0  0
    5.8790   -2.6330   20.2180 C   0  0  0  0  0  0  0  0  0  0  0  0
    5.7070   -1.7700   21.4850 C   0  0  0  0  0  0  0  0  0  0  0  0
    5.4090   -1.6130   19.8330 C   0  0  0  0  0  0  0  0  0  0  0  0
    5.3090   -0.4920   22.3320 C   0  0  0  0  0  0  0  0  0  0  0  0
    5.8120   -2.1420   21.1950 N   0  0  0  0  0  0  0  0  0  0  0  0
    5.8260   -1.7240   22.5180 C   0  0  0  0  0  0  0  0  0  0  0  0
    6.2390   -2.3190   23.8020 N   0  0  0  0  0  0  0  0  0  0  0  0
    7.4400   -1.8930   24.3890 C   0  0  0  0  0  0  0  0  0  0  0  0
    7.0880   -0.9810   25.3640 C   0  0  0  0  0  0  0  0  0  0  0  0
    7.9320   -0.3930   26.7720 S   0  0  0  0  0  0  0  0  0  0  0  0
    8.9450   -1.3080   26.2840 O   0  0  0  0  0  0  0  0  0  0  0  0
    6.3490    0.1810   26.3800 C   0  0  0  0  0  0  0  0  0  0  0  0
    8.0790    0.5850   28.1940 N   0  0  0  0  0  0  0  0  0  0  0  0
    5.4950    1.3340   25.8790 C   0  0  0  0  0  0  0  0  0  0  0  0
    6.7140    1.2900   26.0450 C   0  0  0  0  0  0  0  0  0  0  0  0
    8.1490    2.0810   28.1290 C   0  0  0  0  0  0  0  0  0  0  0  0
    8.1540    0.1660   29.5510 C   0  0  0  0  0  0  0  0  0  0  0  0
    6.0150    2.9170   25.3990 C   0  0  0  0  0  0  0  0  0  0  0  0
    6.1770    2.3200   25.6240 N   0  0  0  0  0  0  0  0  0  0  0  0
    8.2840    2.7680   29.4030 C   0  0  0  0  0  0  0  0  0  0  0  0
    8.1770    1.3850   28.9780 C   0  0  0  0  0  0  0  0  0  0  0  0
    8.2690    0.5590   31.0320 C   0  0  0  0  0  0  0  0  0  0  0  0
    4.7610    2.2720   25.4650 C   0  0  0  0  0  0  0  0  0  0  0  0
    8.3960    2.7470   30.8110 C   0  0  0  0  0  0  0  0  0  0  0  0
    7.0830    0.6650   31.3320 C   0  0  0  0  0  0  0  0  0  0  0  0
    9.5280    0.6360   31.3600 C   0  0  0  0  0  0  0  0  0  0  0  0
    9.4790    3.7000   31.0820 N   0  0  0  0  0  0  0  0  0  0  0  0
    7.5000    0.1790   29.9130 C   0  0  0  0  0  0  0  0  0  0  0  0
    9.9910    0.2810   30.3060 C   0  0  0  0  0  0  0  0  0  0  0  0
    8.9810    0.2760   30.2000 F   0  0  0  0  0  0  0  0  0  0  0  0
   10.7820    3.1440   30.7150 C   0  0  0  0  0  0  0  0  0  0  0  0
    8.9940   -0.0330   29.3530 C   0  0  0  0  0  0  0  0  0  0  0  0
  1  2  2  3
  1  3  1  0
  3  4  2  0
  3  5  1  0
  4  6  1  0
  5  7  2  0
  6  8  2  0
  7  8  1  0
  8  9  1  0
  9 10  1  0
 10 11  1  0
 11 12  2  0
 12 13  2  0
 12 14  1  0
 12 15  1  0
 14 16  2  0
 14 17  1  0
 15 18  1  0
 15 19  1  0
 16 20  1  0
 17 21  2  0
 18 22  2  0
 19 23  2  0
 22 23  1  0
 19 24  1  0
 20 25  2  0
 21 25  1  0
 22 26  1  0
 24 27  2  0
 24 28  1  0
 26 29  1  0
 27 30  1  0
 28 31  2  0
 28 32  1  0
 29 33  1  0
 30 34  2  0
 31 34  1  0
M  END
