MAK-UNK-c97f7c8f-1-chloroacetamide
     RDKit          3D

 19 20  0  0  0  0  0  0  0  0999 V2000
    7.1480   -3.1450   19.0740 C   0  0  0  0  0  0  0  0  0  0  0  0
    6.1960   -3.8210   20.0500 C   0  0  0  0  0  0  0  0  0  0  0  0
    5.1050   -4.2090   19.6890 O   0  0  0  0  0  0  0  0  0  0  0  0
    6.7170   -3.9880   21.3020 N   0  0  0  0  0  0  0  0  0  0  0  0
    7.4380   -3.0090   21.9980 C   0  0  0  0  0  0  0  0  0  0  0  0
    6.2390   -5.0780   22.1430 C   0  0  0  0  0  0  0  0  0  0  0  0
    7.0580   -2.6390   23.2740 C   0  0  0  0  0  0  0  0  0  0  0  0
    5.5940   -4.5390   23.4110 C   0  0  0  0  0  0  0  0  0  0  0  0
    6.5680   -3.6100   24.1520 C   0  0  0  0  0  0  0  0  0  0  0  0
    6.0040   -3.1250   25.3190 C   0  0  0  0  0  0  0  0  0  0  0  0
    4.8940   -3.4650   25.7190 O   0  0  0  0  0  0  0  0  0  0  0  0
    6.8710   -2.2350   25.9010 N   0  0  0  0  0  0  0  0  0  0  0  0
    6.6200   -1.2140   26.8120 C   0  0  0  0  0  0  0  0  0  0  0  0
    5.8410   -0.0650   26.4770 C   0  0  0  0  0  0  0  0  0  0  0  0
    7.2010   -1.4400   28.0240 N   0  0  0  0  0  0  0  0  0  0  0  0
    5.6990    0.9340   27.6120 C   0  0  0  0  0  0  0  0  0  0  0  0
    7.0760   -0.5510   29.0390 C   0  0  0  0  0  0  0  0  0  0  0  0
    6.3680    0.6280   28.9310 C   0  0  0  0  0  0  0  0  0  0  0  0
    6.1930    1.6540   30.0050 C   0  0  0  0  0  0  0  0  0  0  0  0
  1  2  1  0
  2  3  2  0
  2  4  1  0
  4  5  1  0
  4  6  1  0
  5  7  1  0
  6  8  1  0
  7  9  1  0
  8  9  1  0
  9 10  1  0
 10 11  2  0
 10 12  1  0
 12 13  1  0
 13 14  2  0
 13 15  1  0
 14 16  1  0
 15 17  2  0
 16 18  2  0
 17 18  1  0
 18 19  1  0
M  END
