MAK-UNK-a7992eb3-24
     RDKit          3D

 27 30  0  0  0  0  0  0  0  0999 V2000
    7.2110   -0.4520   19.5070 C   0  0  0  0  0  0  0  0  0  0  0  0
    6.0040   -1.0800   18.9100 C   0  0  0  0  0  0  0  0  0  0  0  0
    5.5500   -2.4520   19.3760 C   0  0  0  0  0  0  0  0  0  0  0  0
    7.9170   -1.1430   20.4900 C   0  0  0  0  0  0  0  0  0  0  0  0
    7.5270   -2.4170   20.9430 C   0  0  0  0  0  0  0  0  0  0  0  0
    6.3950   -3.0970   20.4490 C   0  0  0  0  0  0  0  0  0  0  0  0
    5.9670   -4.3640   20.8910 C   0  0  0  0  0  0  0  0  0  0  0  0
    6.5640   -5.0100   21.9170 N   0  0  0  0  0  0  0  0  0  0  0  0
    6.9570   -4.2690   22.9760 C   0  0  0  0  0  0  0  0  0  0  0  0
    5.6700   -6.0830   22.3740 C   0  0  0  0  0  0  0  0  0  0  0  0
    6.0900   -4.3030   24.0660 C   0  0  0  0  0  0  0  0  0  0  0  0
    4.5800   -5.6020   23.1220 C   0  0  2  0  0  0  0  0  0  0  0  0
    4.9110   -4.3530   23.7620 O   0  0  0  0  0  0  0  0  0  0  0  0
    4.1410   -6.5230   24.1300 C   0  0  0  0  0  0  0  0  0  0  0  0
    2.9170   -6.6290   24.3270 O   0  0  0  0  0  0  0  0  0  0  0  0
    2.1780   -5.3960   24.4570 C   0  0  0  0  0  0  0  0  0  0  0  0
    0.6930   -5.7700   24.3590 C   0  0  0  0  0  0  0  0  0  0  0  0
    0.2280   -6.3110   23.1580 C   0  0  0  0  0  0  0  0  0  0  0  0
    0.3650   -6.8230   25.4590 C   0  0  0  0  0  0  0  0  0  0  0  0
   -0.0190   -4.6280   24.7120 C   0  0  0  0  0  0  0  0  0  0  0  0
   -0.7550   -5.6190   22.2690 C   0  0  0  0  0  0  0  0  0  0  0  0
    0.7160   -7.5280   22.8220 N   0  0  0  0  0  0  0  0  0  0  0  0
   -0.8740   -6.4450   25.9900 C   0  0  0  0  0  0  0  0  0  0  0  0
   -1.1440   -5.1450   25.6180 C   0  0  0  0  0  0  0  0  0  0  0  0
   -1.1410   -6.2580   21.1100 C   0  0  0  0  0  0  0  0  0  0  0  0
    0.2790   -8.1760   21.5720 C   0  0  0  0  0  0  0  0  0  0  0  0
   -0.6500   -7.5050   20.7500 C   0  0  0  0  0  0  0  0  0  0  0  0
  1  2  2  0
  2  3  1  0
  1  4  1  0
  4  5  2  0
  3  6  2  0
  5  6  1  0
  6  7  1  0
  7  8  1  0
  8  9  1  0
  8 10  1  0
  9 11  1  0
 10 12  1  0
 11 13  1  0
 12 13  1  0
 12 14  1  1
 14 15  1  0
 15 16  1  0
 17 16  1  0
 17 18  1  0
 17 19  1  0
 17 20  1  0
 18 21  2  0
 18 22  1  0
 19 23  1  0
 20 24  1  0
 23 24  1  0
 21 25  1  0
 22 26  2  0
 25 27  2  0
 26 27  1  0
M  END
