MAK-UNK-10dfa458-18-chloroacetamide
     RDKit          3D

 17 18  0  0  0  0  0  0  0  0999 V2000
    7.6170   -3.6300   20.3510 C   0  0  0  0  0  0  0  0  0  0  0  0
    6.4190   -4.4980   20.6560 C   0  0  0  0  0  0  0  0  0  0  0  0
    5.4230   -4.5830   19.9370 O   0  0  0  0  0  0  0  0  0  0  0  0
    6.5040   -5.2550   21.8330 N   0  0  0  0  0  0  0  0  0  0  0  0
    5.5520   -6.2970   22.1570 C   0  0  0  0  0  0  0  0  0  0  0  0
    7.1490   -4.6650   23.0200 C   0  0  0  0  0  0  0  0  0  0  0  0
    4.6080   -5.8600   23.2710 C   0  0  0  0  0  0  0  0  0  0  0  0
    6.1610   -4.2040   23.9140 C   0  0  0  0  0  0  0  0  0  0  0  0
    5.4210   -5.3000   24.3370 N   0  0  0  0  0  0  0  0  0  0  0  0
    4.6770   -5.1480   25.8430 S   0  0  0  0  0  0  0  0  0  0  0  0
    5.7030   -4.7540   26.7750 O   0  0  0  0  0  0  0  0  0  0  0  0
    3.9070   -6.3500   26.0460 O   0  0  0  0  0  0  0  0  0  0  0  0
    3.5340   -3.8610   25.7860 C   0  0  0  0  0  0  0  0  0  0  0  0
    2.1280   -3.9880   25.4150 C   0  0  0  0  0  0  0  0  0  0  0  0
    3.8100   -2.4580   26.1120 C   0  0  0  0  0  0  0  0  0  0  0  0
    1.3200   -2.6960   25.4620 C   0  0  0  0  0  0  0  0  0  0  0  0
    2.3980   -1.3240   25.9800 S   0  0  0  0  0  0  0  0  0  0  0  0
  1  2  1  0
  2  3  2  0
  2  4  1  0
  4  5  1  0
  4  6  1  0
  5  7  1  0
  6  8  1  0
  7  9  1  0
  8  9  1  0
  9 10  1  0
 10 11  2  0
 10 12  2  0
 10 13  1  0
 13 14  1  0
 13 15  2  0
 14 16  2  0
 15 17  1  0
 16 17  1  0
M  END
