MAK-UNK-7c9d1431-29-vinylsulfonamide
     RDKit          3D

 19 20  0  0  0  0  0  0  0  0999 V2000
    7.8570   -3.3720   19.5940 C   0  0  0  0  0  0  0  0  0  0  0  0
    6.9410   -2.5090   18.8000 C   0  0  0  0  0  0  0  0  0  0  0  0
    5.5430   -2.5550   19.8030 S   0  0  0  0  0  0  0  0  0  0  0  0
    5.0670   -3.9260   19.7690 O   0  0  0  0  0  0  0  0  0  0  0  0
    4.7400   -1.3900   19.5280 O   0  0  0  0  0  0  0  0  0  0  0  0
    6.2920   -2.2860   21.2610 N   0  0  0  0  0  0  0  0  0  0  0  0
    7.2440   -1.1760   21.3090 C   0  0  0  0  0  0  0  0  0  0  0  0
    6.2020   -3.2220   22.3960 C   0  0  0  0  0  0  0  0  0  0  0  0
    8.5630   -1.6310   21.9360 C   0  0  0  0  0  0  0  0  0  0  0  0
    7.4450   -3.5200   22.9780 C   0  0  0  0  0  0  0  0  0  0  0  0
    8.2970   -2.3310   23.1860 N   0  0  0  0  0  0  0  0  0  0  0  0
    9.4860   -2.5260   24.0280 C   0  0  0  0  0  0  0  0  0  0  0  0
   10.3910   -1.3360   23.7640 C   0  0  0  0  0  0  0  0  0  0  0  0
   11.6640   -1.6170   22.9390 C   0  0  0  0  0  0  0  0  0  0  0  0
   10.0570   -0.0810   24.2240 C   0  0  0  0  0  0  0  0  0  0  0  0
   12.5270   -0.3630   22.6340 C   0  0  0  0  0  0  0  0  0  0  0  0
   10.8940    1.1190   23.9230 C   0  0  0  0  0  0  0  0  0  0  0  0
   12.0300    1.0090   23.1730 C   0  0  0  0  0  0  0  0  0  0  0  0
   12.8320    2.4790   22.8590 Cl  0  0  0  0  0  0  0  0  0  0  0  0
  1  2  1  0
  3  2  1  0
  3  4  2  0
  3  5  2  0
  3  6  1  0
  6  7  1  0
  6  8  1  0
  7  9  1  0
  8 10  1  0
  9 11  1  0
 10 11  1  0
 11 12  1  0
 12 13  1  0
 13 14  2  0
 13 15  1  0
 14 16  1  0
 15 17  2  0
 16 18  2  0
 17 18  1  0
 18 19  1  0
M  END
