MAK-UNK-ec98eaf6-58-nitrile
     RDKit          3D

 25 28  0  0  0  0  0  0  0  0999 V2000
    7.4430   -3.3370   19.7350 C   0  0  0  0  0  0  0  0  0  0  0  0
    6.2160   -3.4940   19.3270 N   0  0  0  0  0  0  0  0  0  0  0  0
    7.8260   -2.7030   20.9490 N   0  0  0  0  0  0  0  0  0  0  0  0
    9.0300   -3.0150   21.7470 C   0  0  0  0  0  0  0  0  0  0  0  0
    7.4730   -1.4100   21.3460 C   0  0  2  0  0  0  0  0  0  0  0  0
    9.1020   -1.8610   22.6730 C   0  0  1  0  0  0  0  0  0  0  0  0
    8.7920   -0.7210   21.7450 C   0  0  0  0  0  0  0  0  0  0  0  0
    6.6930   -1.4870   22.6700 C   0  0  2  0  0  0  0  0  0  0  0  0
    6.0840   -0.1000   22.9940 C   0  0  0  0  0  0  0  0  0  0  0  0
    7.8630   -1.9020   23.6370 C   0  0  1  0  0  0  0  0  0  0  0  0
    6.8530    0.9460   23.7910 C   0  0  0  0  0  0  0  0  0  0  0  0
    7.7550   -3.2970   24.2540 C   0  0  0  0  0  0  0  0  0  0  0  0
    7.5010    0.4880   25.0830 C   0  0  0  0  0  0  0  0  0  0  0  0
    8.4100   -3.1620   25.2930 O   0  0  0  0  0  0  0  0  0  0  0  0
    7.4160   -4.4060   24.3160 N   0  0  0  0  0  0  0  0  0  0  0  0
    8.8880    0.2260   25.1080 C   0  0  0  0  0  0  0  0  0  0  0  0
    6.7290    0.3200   26.2560 C   0  0  0  0  0  0  0  0  0  0  0  0
    8.0170   -5.4580   23.5190 C   0  0  0  0  0  0  0  0  0  0  0  0
    6.0110   -4.6610   24.6370 C   0  0  0  0  0  0  0  0  0  0  0  0
    9.5070   -0.2020   26.2800 C   0  0  0  0  0  0  0  0  0  0  0  0
    7.3680   -0.1090   27.4250 C   0  0  0  0  0  0  0  0  0  0  0  0
    7.0450   -5.9680   22.4300 C   0  0  0  0  0  0  0  0  0  0  0  0
    5.1580   -4.7160   23.3600 C   0  0  0  0  0  0  0  0  0  0  0  0
    8.7290   -0.3580   27.4080 C   0  0  0  0  0  0  0  0  0  0  0  0
    5.8290   -5.0450   22.1810 C   0  0  0  0  0  0  0  0  0  0  0  0
  1  2  2  3
  1  3  1  0
  3  4  1  0
  5  3  1  1
  6  4  1  6
  5  7  1  0
  6  7  1  0
  5  8  1  0
  8  9  1  1
  6 10  1  0
  8 10  1  0
  9 11  1  0
 10 12  1  6
 11 13  1  0
 12 14  2  0
 12 15  1  0
 13 16  2  0
 13 17  1  0
 15 18  1  0
 15 19  1  0
 16 20  1  0
 17 21  2  0
 18 22  1  0
 19 23  1  0
 20 24  2  0
 21 24  1  0
 22 25  1  0
 23 25  1  0
M  END
