MAK-UNK-9e4a73aa-25
     RDKit          3D

 26 29  0  0  0  0  0  0  0  0999 V2000
    3.9110   -2.2360   23.8430 O   0  0  0  0  0  0  0  0  0  0  0  0
    5.0900   -2.5750   23.8430 C   0  0  0  0  0  0  0  0  0  0  0  0
    5.5770   -3.9330   23.5520 C   0  0  0  0  0  0  0  0  0  0  0  0
    6.2050   -1.8520   24.1190 N   0  0  0  0  0  0  0  0  0  0  0  0
    5.1140   -4.6890   22.4070 C   0  0  0  0  0  0  0  0  0  0  0  0
    6.4920   -4.4250   24.4040 C   0  0  0  0  0  0  0  0  0  0  0  0
    6.8930   -2.1950   25.2020 C   0  0  0  0  0  0  0  0  0  0  0  0
    6.8710   -1.7330   22.9450 C   0  0  0  0  0  0  0  0  0  0  0  0
    5.6460   -5.9410   22.2410 C   0  0  0  0  0  0  0  0  0  0  0  0
    7.0090   -5.6820   24.2350 C   0  0  0  0  0  0  0  0  0  0  0  0
    6.8620   -3.5870   25.4200 N   0  0  0  0  0  0  0  0  0  0  0  0
    7.4780   -1.4070   25.9330 O   0  0  0  0  0  0  0  0  0  0  0  0
    8.3400   -1.9050   22.8010 C   0  0  0  0  0  0  0  0  0  0  0  0
    6.1380   -1.4330   21.8280 C   0  0  0  0  0  0  0  0  0  0  0  0
    5.2740   -6.6730   21.2090 F   0  0  0  0  0  0  0  0  0  0  0  0
    6.5890   -6.4460   23.1630 C   0  0  0  0  0  0  0  0  0  0  0  0
    7.7090   -4.1100   26.2700 C   0  0  0  0  0  0  0  0  0  0  0  0
    8.8230   -1.7080   21.5100 C   0  0  0  0  0  0  0  0  0  0  0  0
    6.6480   -1.2550   20.5780 N   0  0  0  0  0  0  0  0  0  0  0  0
    7.2750   -7.9970   23.0340 Cl  0  0  0  0  0  0  0  0  0  0  0  0
    7.1940   -4.7350   27.5470 C   0  0  0  0  0  0  0  0  0  0  0  0
    9.0550   -4.1180   26.0040 C   0  0  0  0  0  0  0  0  0  0  0  0
    7.9570   -1.3820   20.4430 C   0  0  0  0  0  0  0  0  0  0  0  0
    8.1540   -5.3440   28.4710 C   0  0  0  0  0  0  0  0  0  0  0  0
    9.9760   -4.6870   26.8710 C   0  0  0  0  0  0  0  0  0  0  0  0
    9.6070   -5.2790   28.0510 C   0  0  0  0  0  0  0  0  0  0  0  0
  1  2  2  0
  2  3  1  0
  2  4  1  0
  3  5  2  0
  3  6  1  0
  4  7  1  0
  4  8  1  0
  5  9  1  0
  6 10  2  0
  6 11  1  0
  7 11  1  0
  7 12  2  0
  8 13  2  0
  8 14  1  0
  9 15  1  0
  9 16  2  0
 10 16  1  0
 11 17  1  0
 13 18  1  0
 14 19  2  0
 16 20  1  0
 17 21  2  0
 17 22  1  0
 18 23  2  0
 19 23  1  0
 21 24  1  0
 22 25  2  0
 24 26  2  0
 25 26  1  0
M  END
