MAK-UNK-f983951f-22-acrylamide
     RDKit          3D

 16 16  0  0  0  0  0  0  0  0999 V2000
    6.3730   -3.9210   19.8510 C   0  0  0  0  0  0  0  0  0  0  0  0
    6.3330   -2.9600   21.0060 C   0  0  0  0  0  0  0  0  0  0  0  0
    5.8700   -3.7730   22.1630 C   0  0  0  0  0  0  0  0  0  0  0  0
    4.7760   -4.3080   22.1480 O   0  0  0  0  0  0  0  0  0  0  0  0
    6.7570   -3.8720   23.1970 N   0  0  0  0  0  0  0  0  0  0  0  0
    6.2330   -3.6810   24.5500 C   0  0  2  0  0  0  0  0  0  0  0  0
    5.1090   -4.6420   25.0160 C   0  0  0  0  0  0  0  0  0  0  0  0
    6.0620   -2.2890   24.4790 C   0  0  0  0  0  0  0  0  0  0  0  0
    4.0580   -3.6410   25.4810 C   0  0  0  0  0  0  0  0  0  0  0  0
    7.4040   -1.6210   24.7300 C   0  0  0  0  0  0  0  0  0  0  0  0
    5.0780   -1.7480   24.2660 O   0  0  0  0  0  0  0  0  0  0  0  0
    2.6240   -3.9470   24.9880 C   0  0  0  0  0  0  0  0  0  0  0  0
    4.4450   -2.5730   26.2680 C   0  0  0  0  0  0  0  0  0  0  0  0
    1.5940   -2.9070   25.4560 C   0  0  0  0  0  0  0  0  0  0  0  0
    3.4230   -1.5630   26.7140 C   0  0  0  0  0  0  0  0  0  0  0  0
    2.1170   -1.7440   26.3180 C   0  0  0  0  0  0  0  0  0  0  0  0
  1  2  1  0
  2  3  1  0
  3  4  2  0
  3  5  1  0
  5  6  1  0
  6  7  1  6
  6  8  1  0
  7  9  1  0
  8 10  1  0
  8 11  2  0
  9 12  2  0
  9 13  1  0
 12 14  1  0
 13 15  2  0
 14 16  2  0
 15 16  1  0
M  END
