MAK-UNK-3e0761f8-1-vinylsulfonamide
     RDKit          3D

 24 26  0  0  0  0  0  0  0  0999 V2000
    7.7450   -3.2480   19.1750 C   0  0  0  0  0  0  0  0  0  0  0  0
    6.4950   -2.4460   18.9780 C   0  0  0  0  0  0  0  0  0  0  0  0
    5.7810   -2.1610   20.5650 S   0  0  0  0  0  0  0  0  0  0  0  0
    5.0790   -3.3730   21.0340 O   0  0  0  0  0  0  0  0  0  0  0  0
    5.0500   -0.9180   20.4470 O   0  0  0  0  0  0  0  0  0  0  0  0
    7.1880   -1.7780   21.4540 N   0  0  0  0  0  0  0  0  0  0  0  0
    8.4550   -1.4950   20.8360 C   0  0  0  0  0  0  0  0  0  0  0  0
    7.1760   -0.9230   22.6400 C   0  0  1  0  0  0  0  0  0  0  0  0
    9.2510   -0.6370   21.8890 C   0  0  2  0  0  0  0  0  0  0  0  0
    8.5610   -1.1660   23.1820 C   0  0  0  0  0  0  0  0  0  0  0  0
    7.3250    0.6400   22.3810 C   0  0  0  0  0  0  0  0  0  0  0  0
    8.7910    0.8520   21.8270 C   0  0  1  0  0  0  0  0  0  0  0  0
    9.8550    1.9750   22.2970 C   0  0  0  0  0  0  0  0  0  0  0  0
    9.4880    3.1480   22.2730 O   0  0  0  0  0  0  0  0  0  0  0  0
   11.2350    1.6610   22.7060 N   0  0  0  0  0  0  0  0  0  0  0  0
   11.2440    0.3350   23.1820 C   0  0  0  0  0  0  0  0  0  0  0  0
   12.1080   -0.6910   22.6950 C   0  0  0  0  0  0  0  0  0  0  0  0
   10.3080    0.0970   24.1180 C   0  0  0  0  0  0  0  0  0  0  0  0
   11.8860   -1.9890   23.1830 C   0  0  0  0  0  0  0  0  0  0  0  0
   10.1150   -1.1290   24.5720 C   0  0  0  0  0  0  0  0  0  0  0  0
   10.8460   -2.1690   24.1100 C   0  0  0  0  0  0  0  0  0  0  0  0
   10.3760   -3.3270   24.6410 C   0  0  0  0  0  0  0  0  0  0  0  0
    8.8900   -3.5040   24.1470 C   0  0  0  0  0  0  0  0  0  0  0  0
   11.0080   -4.0940   25.3680 O   0  0  0  0  0  0  0  0  0  0  0  0
  1  2  1  0
  3  2  1  0
  3  4  2  0
  3  5  2  0
  3  6  1  0
  6  7  1  0
  6  8  1  0
  9  7  1  6
  8 10  1  0
  9 10  1  0
  8 11  1  6
  9 12  1  0
 11 12  1  0
 12 13  1  1
 13 14  2  0
 13 15  1  0
 15 16  1  0
 16 17  2  0
 16 18  1  0
 17 19  1  0
 18 20  2  0
 19 21  2  0
 20 21  1  0
 21 22  1  0
 22 23  1  0
 22 24  2  0
M  END
