MAK-UNK-acefcb18-13
     RDKit          3D

 10 10  0  0  0  0  0  0  0  0999 V2000
    9.2490   -4.7860   26.5380 C   0  0  0  0  0  0  0  0  0  0  0  0
   10.2340   -4.8080   25.7970 O   0  0  0  0  0  0  0  0  0  0  0  0
   10.5720   -3.5510   25.1810 C   0  0  0  0  0  0  0  0  0  0  0  0
    9.3300   -2.6430   24.9560 C   0  0  0  0  0  0  0  0  0  0  0  0
    9.6600   -1.4730   24.2950 N   0  0  0  0  0  0  0  0  0  0  0  0
   10.9310   -1.2860   23.5760 C   0  0  0  0  0  0  0  0  0  0  0  0
   11.6320   -0.0050   23.9890 C   0  0  0  0  0  0  0  0  0  0  0  0
   11.5690   -2.0590   22.6140 C   0  0  0  0  0  0  0  0  0  0  0  0
   12.8950   -0.0010   23.1500 C   0  0  0  0  0  0  0  0  0  0  0  0
   13.1290   -1.3660   22.0580 S   0  0  0  0  0  0  0  0  0  0  0  0
  1  2  1  0
  2  3  1  0
  3  4  1  0
  4  5  1  0
  5  6  1  0
  6  7  1  0
  6  8  2  0
  7  9  2  0
  8 10  1  0
  9 10  1  0
M  END
