MAK-UNK-ec98eaf6-2-nitrile
     RDKit          3D

 22 25  0  0  0  0  0  0  0  0999 V2000
    6.5880   -3.8760   19.8980 C   0  0  0  0  0  0  0  0  0  0  0  0
    6.3050   -3.2110   18.8400 N   0  0  0  0  0  0  0  0  0  0  0  0
    6.1750   -3.4260   21.1260 N   0  0  0  0  0  0  0  0  0  0  0  0
    6.0100   -1.9680   21.3190 C   0  0  0  0  0  0  0  0  0  0  0  0
    6.7060   -3.8460   22.4370 C   0  0  1  0  0  0  0  0  0  0  0  0
    6.9650   -1.6690   22.5190 C   0  0  2  0  0  0  0  0  0  0  0  0
    7.9000   -2.9030   22.5130 C   0  0  0  0  0  0  0  0  0  0  0  0
    5.7660   -3.3180   23.5570 C   0  0  0  0  0  0  0  0  0  0  0  0
    6.2960   -1.9560   23.7990 N   0  0  0  0  0  0  0  0  0  0  0  0
    7.0550   -1.7130   25.0470 C   0  0  0  0  0  0  0  0  0  0  0  0
    8.3310   -0.8690   24.8990 C   0  0  0  0  0  0  0  0  0  0  0  0
    8.3630    0.4510   24.9900 N   0  0  0  0  0  0  0  0  0  0  0  0
    9.8450   -1.6380   24.6150 S   0  0  0  0  0  0  0  0  0  0  0  0
    9.6630    0.8900   24.8540 C   0  0  0  0  0  0  0  0  0  0  0  0
   10.6060   -0.1180   24.6620 C   0  0  0  0  0  0  0  0  0  0  0  0
   11.9730    0.0790   24.5290 C   0  0  0  0  0  0  0  0  0  0  0  0
   12.4300   -0.6410   23.5010 C   0  0  0  0  0  0  0  0  0  0  0  0
   12.2060   -1.9950   23.4770 C   0  0  0  0  0  0  0  0  0  0  0  0
   13.1130   -0.0130   22.4800 C   0  0  0  0  0  0  0  0  0  0  0  0
   12.7210   -2.7170   22.2970 C   0  0  0  0  0  0  0  0  0  0  0  0
   13.5720   -0.7390   21.4040 C   0  0  0  0  0  0  0  0  0  0  0  0
   13.4040   -2.0420   21.2650 C   0  0  0  0  0  0  0  0  0  0  0  0
  1  2  2  3
  1  3  1  0
  3  4  1  0
  3  5  1  0
  6  4  1  6
  5  7  1  0
  6  7  1  0
  5  8  1  1
  6  9  1  0
  8  9  1  0
  9 10  1  0
 10 11  1  0
 11 12  2  0
 11 13  1  0
 12 14  1  0
 13 15  1  0
 14 15  2  0
 15 16  1  0
 16 17  1  0
 17 18  2  0
 17 19  1  0
 18 20  1  0
 19 21  2  0
 20 22  2  0
 21 22  1  0
M  END
