MAK-UNK-6ca90168-22-acrylamide
     RDKit          3D

 18 19  0  0  0  0  0  0  0  0999 V2000
    8.0330   -3.3470   19.1560 C   0  0  0  0  0  0  0  0  0  0  0  0
    6.7910   -2.5540   18.8670 C   0  0  0  0  0  0  0  0  0  0  0  0
    5.8690   -2.8670   19.9750 C   0  0  0  0  0  0  0  0  0  0  0  0
    5.0020   -3.7100   19.7780 O   0  0  0  0  0  0  0  0  0  0  0  0
    6.1480   -2.2130   21.1510 N   0  0  0  0  0  0  0  0  0  0  0  0
    5.9740   -2.8710   22.4620 C   0  0  0  0  0  0  0  0  0  0  0  0
    6.9730   -1.0040   21.1570 C   0  0  0  0  0  0  0  0  0  0  0  0
    7.4230   -3.2700   22.9440 C   0  0  0  0  0  0  0  0  0  0  0  0
    8.2190   -1.2120   21.7330 C   0  0  0  0  0  0  0  0  0  0  0  0
    8.0950   -1.8950   23.1090 C   0  0  0  0  0  0  0  0  0  0  0  0
    9.4860   -2.2850   23.6800 C   0  0  1  0  0  0  0  0  0  0  0  0
    9.9150   -3.2230   22.5560 C   0  0  0  0  0  0  0  0  0  0  0  0
   10.4830   -1.1300   23.6730 C   0  0  0  0  0  0  0  0  0  0  0  0
   10.7180   -2.3220   21.7010 N   0  0  0  0  0  0  0  0  0  0  0  0
   10.2060    0.2750   24.1430 C   0  0  0  0  0  0  0  0  0  0  0  0
   11.8240   -1.1330   23.2370 C   0  0  0  0  0  0  0  0  0  0  0  0
   11.2460    1.1430   24.0320 C   0  0  0  0  0  0  0  0  0  0  0  0
   12.6280    0.3950   23.3790 S   0  0  0  0  0  0  0  0  0  0  0  0
  1  2  1  0
  2  3  1  0
  3  4  2  0
  3  5  1  0
  5  6  1  0
  5  7  1  0
  6  8  1  0
  7  9  1  0
  8 10  1  0
  9 10  1  0
 10 11  1  0
 11 12  1  6
 11 13  1  0
 12 14  3  0
 13 15  1  0
 13 16  2  0
 15 17  2  0
 16 18  1  0
 17 18  1  0
M  END
