MAK-UNK-ec98eaf6-5-bromoalkyne
     RDKit          3D

 32 36  0  0  0  0  0  0  0  0999 V2000
    7.0410   -3.5930   19.7520 C   0  0  0  0  0  0  0  0  0  0  0  0
    6.4640   -2.8840   18.5560 C   0  0  0  0  0  0  0  0  0  0  0  0
    6.4060   -3.2820   20.8880 N   0  0  0  0  0  0  0  0  0  0  0  0
    7.1690   -2.8880   22.1160 C   0  0  0  0  0  0  0  0  0  0  0  0
    5.4090   -2.2240   20.7750 C   0  0  1  0  0  0  0  0  0  0  0  0
    6.1840   -1.7930   22.6310 C   0  0  2  0  0  0  0  0  0  0  0  0
    4.8250   -2.2030   22.1730 C   0  0  0  0  0  0  0  0  0  0  0  0
    6.1290   -1.0770   20.5270 C   0  0  0  0  0  0  0  0  0  0  0  0
    6.4380   -0.5030   21.7510 C   0  0  1  0  0  0  0  0  0  0  0  0
    5.7040    0.6340   22.1170 C   0  0  0  0  0  0  0  0  0  0  0  0
    4.4850    0.6130   21.9960 O   0  0  0  0  0  0  0  0  0  0  0  0
    6.4130    1.7550   22.5860 N   0  0  0  0  0  0  0  0  0  0  0  0
    6.6150    2.0400   23.9420 C   0  0  0  0  0  0  0  0  0  0  0  0
    6.5500    3.4640   24.4250 C   0  0  0  0  0  0  0  0  0  0  0  0
    6.8720    1.0060   24.8200 C   0  0  0  0  0  0  0  0  0  0  0  0
    6.7910    3.6160   25.9290 C   0  0  0  0  0  0  0  0  0  0  0  0
    7.0860    1.1500   26.1640 C   0  0  0  0  0  0  0  0  0  0  0  0
    6.9310   -0.3440   24.3620 O   0  0  0  0  0  0  0  0  0  0  0  0
    7.0700    2.3880   26.8140 C   0  0  0  0  0  0  0  0  0  0  0  0
    8.0860   -1.0400   24.8180 C   0  0  0  0  0  0  0  0  0  0  0  0
    8.8920   -1.1420   23.6680 C   0  0  0  0  0  0  0  0  0  0  0  0
    7.6800   -2.3320   25.3360 C   0  0  0  0  0  0  0  0  0  0  0  0
    9.5620   -2.4590   23.8250 C   0  0  0  0  0  0  0  0  0  0  0  0
    8.7660   -3.4460   25.4390 C   0  0  0  0  0  0  0  0  0  0  0  0
    9.8330   -3.3580   24.4350 N   0  0  0  0  0  0  0  0  0  0  0  0
   11.1360   -3.0960   25.0430 C   0  0  0  0  0  0  0  0  0  0  0  0
   11.8060   -2.0140   24.2440 C   0  0  0  0  0  0  0  0  0  0  0  0
   12.6620   -2.1560   23.0190 C   0  0  0  0  0  0  0  0  0  0  0  0
   11.5590   -0.7600   24.7430 C   0  0  0  0  0  0  0  0  0  0  0  0
   13.2000   -1.0480   22.3880 C   0  0  0  0  0  0  0  0  0  0  0  0
   12.1220    0.3230   24.0790 C   0  0  0  0  0  0  0  0  0  0  0  0
   12.9160    0.1960   22.9450 C   0  0  0  0  0  0  0  0  0  0  0  0
  1  2  2  3
  1  3  1  0
  3  4  1  0
  3  5  1  0
  6  4  1  6
  5  7  1  0
  6  7  1  0
  5  8  1  1
  6  9  1  0
  8  9  1  0
  9 10  1  1
 10 11  2  0
 10 12  1  0
 12 13  1  0
 13 14  2  0
 13 15  1  0
 14 16  1  0
 15 17  2  0
 15 18  1  0
 16 19  2  0
 17 19  1  0
 18 20  1  0
 20 21  1  0
 20 22  1  0
 21 23  1  0
 22 24  1  0
 23 25  1  0
 24 25  1  0
 25 26  1  0
 26 27  1  0
 27 28  2  0
 27 29  1  0
 28 30  1  0
 29 31  2  0
 30 32  2  0
 31 32  1  0
M  END
