MAK-UNK-e05327b2-7-nitrile
     RDKit          3D

 59 66  0  0  0  0  0  0  0  0999 V2000
    6.7210   -4.9330   19.9050 C   0  0  0  0  0  0  0  0  0  0  0  0
    5.5670   -5.4380   19.8140 N   0  0  0  0  0  0  0  0  0  0  0  0
    6.9800   -3.7960   20.6090 N   0  0  0  0  0  0  0  0  0  0  0  0
    7.4080   -2.5180   20.0090 C   0  0  0  0  0  0  0  0  0  0  0  0
    6.5780   -3.7250   22.0150 C   0  0  0  0  0  0  0  0  0  0  0  0
    7.9940   -1.6430   21.1930 C   0  0  0  0  0  0  0  0  0  0  0  0
    7.7780   -3.4070   22.9090 C   0  0  0  0  0  0  0  0  0  0  0  0
    8.6980   -2.3950   22.2930 N   0  0  0  0  0  0  0  0  0  0  0  0
    9.2650   -1.4230   23.5750 S   0  0  0  0  0  0  0  0  0  0  0  0
    8.0730   -0.8700   24.1630 O   0  0  0  0  0  0  0  0  0  0  0  0
   10.1700   -2.1560   24.4270 O   0  0  0  0  0  0  0  0  0  0  0  0
   10.2030    0.0060   23.0820 C   0  0  0  0  0  0  0  0  0  0  0  0
   10.8370    1.3930   22.7020 C   0  0  0  0  0  0  0  0  0  0  0  0
    8.7180    0.6510   23.5270 S   0  0  0  0  0  0  0  0  0  0  0  0
   10.2920    2.9010   22.7240 C   0  0  0  0  0  0  0  0  0  0  0  0
    9.0100    2.2600   23.2450 C   0  0  0  0  0  0  0  0  0  0  0  0
    7.9920    3.3890   23.4830 C   0  0  0  0  0  0  0  0  0  0  0  0
    6.8910    3.0200   24.1230 N   0  0  0  0  0  0  0  0  0  0  0  0
    7.0910    2.9800   25.4870 C   0  0  0  0  0  0  0  0  0  0  0  0
    5.7470    3.9100   23.8750 C   0  0  0  0  0  0  0  0  0  0  0  0
    6.1850    2.0660   26.0700 C   0  0  0  0  0  0  0  0  0  0  0  0
    4.8030    3.7880   24.9250 C   0  0  0  0  0  0  0  0  0  0  0  0
    4.8420    2.4250   25.5740 N   0  0  0  0  0  0  0  0  0  0  0  0
    3.9240    1.2100   24.7690 S   0  0  0  0  0  0  0  0  0  0  0  0
    2.8690    1.9630   24.1190 O   0  0  0  0  0  0  0  0  0  0  0  0
    4.8730    0.4460   23.9940 O   0  0  0  0  0  0  0  0  0  0  0  0
    3.1490    0.2740   26.0090 C   0  0  0  0  0  0  0  0  0  0  0  0
    2.7110    0.8640   27.1380 C   0  0  0  0  0  0  0  0  0  0  0  0
    2.8470   -1.2140   26.0280 C   0  0  0  0  0  0  0  0  0  0  0  0
    2.1970   -0.1780   27.7550 C   0  0  0  0  0  0  0  0  0  0  0  0
    2.0690   -1.8520   27.3370 C   0  0  0  0  0  0  0  0  0  0  0  0
    3.2810   -2.2290   24.7330 C   0  0  0  0  0  0  0  0  0  0  0  0
    1.5960   -1.2090   28.5530 C   0  0  0  0  0  0  0  0  0  0  0  0
    1.8430   -3.3140   27.1530 C   0  0  0  0  0  0  0  0  0  0  0  0
    2.9190   -3.6060   24.8610 C   0  0  0  0  0  0  0  0  0  0  0  0
    2.4930   -3.1570   25.9460 C   0  0  0  0  0  0  0  0  0  0  0  0
    3.0120   -4.7890   24.0950 C   0  0  0  0  0  0  0  0  0  0  0  0
    2.8930   -1.8340   25.9650 C   0  0  0  0  0  0  0  0  0  0  0  0
    1.7820   -5.3990   23.8360 C   0  0  0  0  0  0  0  0  0  0  0  0
    4.2470   -1.8130   26.4550 N   0  0  0  0  0  0  0  0  0  0  0  0
    1.7680   -6.7290   24.2390 C   0  0  0  0  0  0  0  0  0  0  0  0
    4.4810   -1.8030   27.9290 C   0  0  0  0  0  0  0  0  0  0  0  0
    5.2410   -2.6840   25.7810 C   0  0  0  0  0  0  0  0  0  0  0  0
    0.8600   -7.6350   23.7110 C   0  0  0  0  0  0  0  0  0  0  0  0
    2.6000   -7.3490   25.1810 C   0  0  0  0  0  0  0  0  0  0  0  0
    4.4800   -3.1030   28.4450 C   0  0  0  0  0  0  0  0  0  0  0  0
    5.2590   -3.9540   26.3130 C   0  0  0  0  0  0  0  0  0  0  0  0
    1.0270   -8.9840   24.2870 C   0  0  0  0  0  0  0  0  0  0  0  0
    2.2770   -9.0290   25.4260 S   0  0  0  0  0  0  0  0  0  0  0  0
    5.5720   -3.8750   27.7730 N   0  0  0  0  0  0  0  0  0  0  0  0
    5.8280   -5.4430   28.4170 S   0  0  0  0  0  0  0  0  0  0  0  0
    6.0900   -6.3440   27.3170 O   0  0  0  0  0  0  0  0  0  0  0  0
    6.7390   -5.3310   29.5300 O   0  0  0  0  0  0  0  0  0  0  0  0
    4.2920   -5.9370   29.1830 C   0  0  0  0  0  0  0  0  0  0  0  0
    3.3260   -5.2310   29.8930 C   0  0  0  0  0  0  0  0  0  0  0  0
    3.8150   -7.5910   29.0790 S   0  0  0  0  0  0  0  0  0  0  0  0
    2.2710   -5.9910   30.3210 C   0  0  0  0  0  0  0  0  0  0  0  0
    2.3770   -7.3280   29.9580 C   0  0  0  0  0  0  0  0  0  0  0  0
    1.2800   -8.6050   30.2950 Cl  0  0  0  0  0  0  0  0  0  0  0  0
  1  2  2  3
  1  3  1  0
  3  4  1  0
  3  5  1  0
  4  6  1  0
  5  7  1  0
  6  8  1  0
  7  8  1  0
  8  9  1  0
  9 10  2  0
  9 11  2  0
  9 12  1  0
 12 13  2  0
 12 14  1  0
 13 15  1  0
 14 16  1  0
 15 16  2  0
 16 17  1  0
 17 18  1  0
 18 19  1  0
 18 20  1  0
 19 21  1  0
 20 22  1  0
 21 23  1  0
 22 23  1  0
 23 24  1  0
 24 25  2  0
 24 26  2  0
 24 27  1  0
 27 28  2  0
 27 29  1  0
 28 30  1  0
 29 31  2  0
 29 32  1  0
 30 33  2  0
 31 33  1  0
 31 34  1  0
 32 35  2  0
 34 36  2  0
 35 36  1  0
 35 37  1  0
 36 38  1  0
 37 39  1  0
 38 40  1  0
 39 41  1  0
 40 42  1  0
 40 43  1  0
 41 44  1  0
 41 45  2  0
 42 46  1  0
 43 47  1  0
 44 48  2  0
 45 49  1  0
 48 49  1  0
 46 50  1  0
 47 50  1  0
 50 51  1  0
 51 52  2  0
 51 53  2  0
 51 54  1  0
 54 55  2  0
 54 56  1  0
 55 57  1  0
 56 58  1  0
 57 58  2  0
 58 59  1  0
M  END
