MAK-UNK-c74072e5-7-chloroacetamide
     RDKit          3D

 41 44  0  0  0  0  0  0  0  0999 V2000
    7.1180   -4.1980   19.9190 C   0  0  0  0  0  0  0  0  0  0  0  0
    6.2640   -5.1770   20.6520 C   0  0  0  0  0  0  0  0  0  0  0  0
    5.3820   -5.6710   19.9690 O   0  0  0  0  0  0  0  0  0  0  0  0
    6.5610   -5.5300   21.9880 N   0  0  0  0  0  0  0  0  0  0  0  0
    6.8600   -4.5250   22.8770 C   0  0  0  0  0  0  0  0  0  0  0  0
    7.4890   -6.6420   22.1830 C   0  0  0  0  0  0  0  0  0  0  0  0
    6.9000   -5.3180   24.1540 C   0  0  0  0  0  0  0  0  0  0  0  0
    8.6440   -6.2340   23.1070 C   0  0  0  0  0  0  0  0  0  0  0  0
    8.1970   -5.7050   24.3840 N   0  0  0  0  0  0  0  0  0  0  0  0
    9.1570   -4.8080   24.8840 C   0  0  0  0  0  0  0  0  0  0  0  0
    8.5390   -3.5410   25.3790 C   0  0  0  0  0  0  0  0  0  0  0  0
    8.7950   -2.2620   24.9040 C   0  0  0  0  0  0  0  0  0  0  0  0
    7.6070   -3.6950   26.4260 C   0  0  0  0  0  0  0  0  0  0  0  0
    8.1320   -1.1370   25.4670 C   0  0  0  0  0  0  0  0  0  0  0  0
    6.8980   -2.6350   27.0400 C   0  0  0  0  0  0  0  0  0  0  0  0
    7.1290   -1.3390   26.5970 C   0  0  0  0  0  0  0  0  0  0  0  0
    5.9980   -2.9340   28.0700 C   0  0  0  0  0  0  0  0  0  0  0  0
    4.8100   -1.8820   28.3630 C   0  0  0  0  0  0  0  0  0  0  0  0
    6.1200   -3.8880   28.8780 C   0  0  0  0  0  0  0  0  0  0  0  0
    4.3940   -1.8150   27.2080 C   0  0  0  0  0  0  0  0  0  0  0  0
    4.8210   -4.1630   28.5520 C   0  0  0  0  0  0  0  0  0  0  0  0
    4.1970   -3.2380   27.5300 C   0  0  0  0  0  0  0  0  0  0  0  0
    2.8860   -3.9950   26.6020 S   0  0  0  0  0  0  0  0  0  0  0  0
    3.0530   -5.4240   26.7420 O   0  0  0  0  0  0  0  0  0  0  0  0
    1.6430   -3.3390   26.9210 O   0  0  0  0  0  0  0  0  0  0  0  0
    3.3100   -3.5910   25.0030 N   0  0  0  0  0  0  0  0  0  0  0  0
    4.5050   -2.7190   24.9080 C   0  0  0  0  0  0  0  0  0  0  0  0
    3.3230   -4.6810   23.9960 C   0  0  0  0  0  0  0  0  0  0  0  0
    4.6690   -2.0580   23.5480 C   0  0  0  0  0  0  0  0  0  0  0  0
    4.4230   -4.4240   22.9560 C   0  0  0  0  0  0  0  0  0  0  0  0
    4.4540   -3.0310   22.4530 N   0  0  0  0  0  0  0  0  0  0  0  0
    5.4090   -2.8460   21.3330 C   0  0  0  0  0  0  0  0  0  0  0  0
    6.3700   -1.8930   21.6410 C   0  0  0  0  0  0  0  0  0  0  0  0
    5.6780   -0.6800   21.9240 O   0  0  0  0  0  0  0  0  0  0  0  0
    5.7340    0.6310   20.8910 Si  0  0  0  0  0  4  0  0  0  0  0  0
    7.3560    1.5530   21.1910 C   0  0  0  0  0  0  0  0  0  0  0  0
    4.3270    1.8220   21.2080 C   0  0  0  0  0  0  0  0  0  0  0  0
    5.7310    0.1250   19.0830 C   0  0  0  0  0  0  0  0  0  0  0  0
    6.9110    0.7830   18.4050 C   0  0  0  0  0  0  0  0  0  0  0  0
    4.4730    0.6640   18.3980 C   0  0  0  0  0  0  0  0  0  0  0  0
    5.8380   -1.4030   18.8950 C   0  0  0  0  0  0  0  0  0  0  0  0
  1  2  1  0
  2  3  2  0
  2  4  1  0
  4  5  1  0
  4  6  1  0
  5  7  1  0
  6  8  1  0
  7  9  1  0
  8  9  1  0
  9 10  1  0
 10 11  1  0
 11 12  2  0
 11 13  1  0
 12 14  1  0
 13 15  2  0
 14 16  2  0
 15 16  1  0
 15 17  1  0
 17 18  2  0
 17 19  1  0
 18 20  1  0
 19 21  2  0
 20 22  2  0
 21 22  1  0
 23 22  1  0
 23 24  2  0
 23 25  2  0
 23 26  1  0
 26 27  1  0
 26 28  1  0
 27 29  1  0
 28 30  1  0
 29 31  1  0
 30 31  1  0
 31 32  1  0
 32 33  1  0
 33 34  1  0
 35 34  1  0
 35 36  1  0
 35 37  1  0
 35 38  1  0
 38 39  1  0
 38 40  1  0
 38 41  1  0
M  END
