MAK-UNK-ec98eaf6-43-chloroacetamide
     RDKit          3D

 19 21  0  0  0  0  0  0  0  0999 V2000
    7.0570   -2.9840   18.8200 C   0  0  0  0  0  0  0  0  0  0  0  0
    6.1340   -3.3690   19.9550 C   0  0  0  0  0  0  0  0  0  0  0  0
    5.3670   -4.3240   19.8100 O   0  0  0  0  0  0  0  0  0  0  0  0
    6.1750   -2.6360   21.1360 N   0  0  0  0  0  0  0  0  0  0  0  0
    7.1350   -1.5390   21.1720 C   0  0  0  0  0  0  0  0  0  0  0  0
    6.0860   -3.0770   22.5830 C   0  0  2  0  0  0  0  0  0  0  0  0
    7.4840   -1.3890   22.6140 C   0  0  1  0  0  0  0  0  0  0  0  0
    6.1490   -1.7290   23.3080 C   0  0  0  0  0  0  0  0  0  0  0  0
    7.4120   -3.6580   23.0210 C   0  0  0  0  0  0  0  0  0  0  0  0
    8.4470   -2.5830   22.9750 C   0  0  2  0  0  0  0  0  0  0  0  0
    9.2970   -2.4520   24.1390 N   0  0  0  0  0  0  0  0  0  0  0  0
   10.3210   -1.5340   23.7150 C   0  0  0  0  0  0  0  0  0  0  0  0
   10.1860   -0.1140   24.0430 N   0  0  0  0  0  0  0  0  0  0  0  0
   11.4810   -1.9000   22.9270 N   0  0  0  0  0  0  0  0  0  0  0  0
   11.1190    0.8170   23.6040 C   0  0  0  0  0  0  0  0  0  0  0  0
   12.3780   -0.9740   22.5190 C   0  0  0  0  0  0  0  0  0  0  0  0
   11.0790    2.1810   23.7970 C   0  0  0  0  0  0  0  0  0  0  0  0
   12.3090    0.3930   22.8000 C   0  0  0  0  0  0  0  0  0  0  0  0
   13.4210   -1.6040   21.7250 C   0  0  0  0  0  0  0  0  0  0  0  0
  1  2  1  0
  2  3  2  0
  2  4  1  0
  4  5  1  0
  4  6  1  0
  7  5  1  6
  6  8  1  0
  7  8  1  0
  6  9  1  1
  7 10  1  0
  9 10  1  0
 10 11  1  1
 11 12  1  0
 12 13  2  0
 12 14  1  0
 13 15  1  0
 14 16  2  0
 15 17  1  0
 15 18  2  0
 16 18  1  0
 16 19  1  0
M  END
