MAK-UNK-0d6072ac-7
     RDKit          3D

 19 21  0  0  0  0  0  0  0  0999 V2000
   13.3500   -0.5010   22.3990 C   0  0  0  0  0  0  0  0  0  0  0  0
   13.3430   -0.9340   23.8460 C   0  0  2  0  0  0  0  0  0  0  0  0
   13.9810   -2.2130   24.3000 C   0  0  0  0  0  0  0  0  0  0  0  0
   12.2480   -1.6860   24.1090 C   0  0  0  0  0  0  0  0  0  0  0  0
   14.3270   -2.5060   25.4350 O   0  0  0  0  0  0  0  0  0  0  0  0
   14.1240   -3.1020   23.3110 O   0  0  0  0  0  0  0  0  0  0  0  0
   12.4420   -2.4770   25.2120 C   0  0  0  0  0  0  0  0  0  0  0  0
   11.1590   -1.6570   23.3410 C   0  0  0  0  0  0  0  0  0  0  0  0
   11.4770   -3.3050   25.6230 C   0  0  0  0  0  0  0  0  0  0  0  0
   10.2110   -2.4970   23.7670 C   0  0  0  0  0  0  0  0  0  0  0  0
   10.3350   -3.2980   24.8970 C   0  0  0  0  0  0  0  0  0  0  0  0
    9.0190   -2.7260   23.2250 N   0  0  0  0  0  0  0  0  0  0  0  0
    8.3570   -3.6140   23.9830 C   0  0  0  0  0  0  0  0  0  0  0  0
    9.1450   -3.9710   25.0580 C   0  0  0  0  0  0  0  0  0  0  0  0
    7.1220   -4.1140   23.7970 C   0  0  0  0  0  0  0  0  0  0  0  0
    8.6480   -4.8390   26.0220 C   0  0  0  0  0  0  0  0  0  0  0  0
    6.6160   -4.9400   24.7190 N   0  0  0  0  0  0  0  0  0  0  0  0
    7.3590   -5.2500   25.7950 C   0  0  0  0  0  0  0  0  0  0  0  0
    6.5390   -6.2100   26.9400 Cl  0  0  0  0  0  0  0  0  0  0  0  0
  2  1  1  6
  2  3  1  0
  2  4  1  0
  3  5  2  0
  3  6  1  0
  4  7  2  0
  4  8  1  0
  7  9  1  0
  8 10  2  0
  9 11  2  0
 10 11  1  0
 10 12  1  0
 12 13  1  0
 11 14  1  0
 13 14  2  0
 13 15  1  0
 14 16  1  0
 15 17  2  0
 16 18  2  0
 17 18  1  0
 18 19  1  0
M  END
