MAK-UNK-5e88aa6a-1
     RDKit          3D

 16 16  0  0  0  0  0  0  0  0999 V2000
   12.9960   -0.5850   23.0010 C   0  0  0  0  0  0  0  0  0  0  0  0
   12.5650   -1.3350   24.2240 C   0  0  0  0  0  0  0  0  0  0  0  0
   12.4750   -2.8560   24.1400 C   0  0  0  0  0  0  0  0  0  0  0  0
   11.3170   -3.4710   24.6330 N   0  0  0  0  0  0  0  0  0  0  0  0
   11.3190   -4.3310   25.8250 C   0  0  0  0  0  0  0  0  0  0  0  0
   12.2890   -4.3290   26.5830 O   0  0  0  0  0  0  0  0  0  0  0  0
   10.0550   -5.2350   25.9660 C   0  0  0  0  0  0  0  0  0  0  0  0
    9.2810   -5.2040   27.2780 C   0  0  0  0  0  0  0  0  0  0  0  0
    8.1640   -4.4740   26.9980 O   0  0  0  0  0  0  0  0  0  0  0  0
    8.3860   -3.6110   25.9810 C   0  0  0  0  0  0  0  0  0  0  0  0
    9.5680   -2.9640   25.7440 C   0  0  0  0  0  0  0  0  0  0  0  0
    7.3680   -3.3260   25.0730 C   0  0  0  0  0  0  0  0  0  0  0  0
    9.8110   -2.0740   24.7030 C   0  0  0  0  0  0  0  0  0  0  0  0
    7.5670   -2.4380   24.0040 C   0  0  0  0  0  0  0  0  0  0  0  0
    8.7970   -1.7830   23.7830 C   0  0  0  0  0  0  0  0  0  0  0  0
    9.0610   -0.8930   22.7400 C   0  0  0  0  0  0  0  0  0  0  0  0
  1  2  1  0
  2  3  1  0
  3  4  1  0
  4  5  1  0
  5  6  2  0
  5  7  1  0
  7  8  1  0
  8  9  1  0
  9 10  1  0
 10 11  2  0
 10 12  1  0
 11 13  1  0
 12 14  2  0
 13 15  2  0
 14 15  1  0
 15 16  1  0
M  END
