MAK-UNK-9955b1f3-5-nitrile
     RDKit          3D

 15 15  0  0  0  0  0  0  0  0999 V2000
    7.3640   -4.0440   20.2950 C   0  0  0  0  0  0  0  0  0  0  0  0
    6.1480   -4.3560   19.9100 N   0  0  0  0  0  0  0  0  0  0  0  0
    7.4800   -3.8880   22.0170 C   0  0  0  0  0  0  0  0  0  0  0  0
    6.4120   -3.0020   21.9670 C   0  0  0  0  0  0  0  0  0  0  0  0
    7.9750   -4.4210   21.4730 N   0  0  0  0  0  0  0  0  0  0  0  0
    5.3870   -2.2860   21.2530 C   0  0  0  0  0  0  0  0  0  0  0  0
    6.7720   -3.5190   21.0580 C   0  0  0  0  0  0  0  0  0  0  0  0
    6.2290   -2.7440   22.4960 C   0  0  0  0  0  0  0  0  0  0  0  0
    7.4290   -3.6340   22.9800 C   0  0  0  0  0  0  0  0  0  0  0  0
    6.8320   -4.8900   23.5870 N   0  0  0  0  0  0  0  0  0  0  0  0
    6.2950   -5.9690   22.7350 C   0  0  0  0  0  0  0  0  0  0  0  0
    7.7810   -5.2870   24.6600 C   0  0  0  0  0  0  0  0  0  0  0  0
    7.0490   -5.4590   26.0080 C   0  0  0  0  0  0  0  0  0  0  0  0
    5.7990   -5.1840   26.3230 N   0  0  0  0  0  0  0  0  0  0  0  0
    7.8360   -6.0170   27.1190 N   0  0  0  0  0  0  0  0  0  0  0  0
  1  2  2  3
  1  3  1  0
  3  4  2  0
  3  5  1  0
  4  6  1  0
  5  7  2  0
  6  8  2  0
  7  8  1  0
  8  9  1  0
  9 10  1  0
 10 11  1  0
 10 12  1  0
 12 13  1  0
 13 14  2  3
 13 15  1  0
M  END
