MAK-UNK-10dfa458-4-chloroacetamide
     RDKit          3D

 17 18  0  0  0  0  0  0  0  0999 V2000
    7.1350   -3.3850   19.9560 C   0  0  0  0  0  0  0  0  0  0  0  0
    6.2400   -4.4670   20.5200 C   0  0  0  0  0  0  0  0  0  0  0  0
    5.2270   -4.7850   19.9370 O   0  0  0  0  0  0  0  0  0  0  0  0
    6.5540   -5.1520   21.7150 N   0  0  0  0  0  0  0  0  0  0  0  0
    5.7240   -6.2790   22.1190 C   0  0  0  0  0  0  0  0  0  0  0  0
    7.1120   -4.4220   22.8750 C   0  0  0  0  0  0  0  0  0  0  0  0
    4.7480   -5.9090   23.2360 C   0  0  0  0  0  0  0  0  0  0  0  0
    6.0880   -4.0600   23.7800 C   0  0  0  0  0  0  0  0  0  0  0  0
    5.4960   -5.2160   24.2720 N   0  0  0  0  0  0  0  0  0  0  0  0
    4.7180   -5.0810   25.7700 S   0  0  0  0  0  0  0  0  0  0  0  0
    4.0150   -6.3240   25.9820 O   0  0  0  0  0  0  0  0  0  0  0  0
    5.7060   -4.6190   26.7110 O   0  0  0  0  0  0  0  0  0  0  0  0
    3.5110   -3.8580   25.6770 C   0  0  0  0  0  0  0  0  0  0  0  0
    2.0960   -4.0070   25.3820 C   0  0  0  0  0  0  0  0  0  0  0  0
    3.8620   -2.1850   25.9580 S   0  0  0  0  0  0  0  0  0  0  0  0
    1.3890   -2.6720   25.4200 C   0  0  0  0  0  0  0  0  0  0  0  0
    2.2390   -1.6100   25.7210 C   0  0  0  0  0  0  0  0  0  0  0  0
  1  2  1  0
  2  3  2  0
  2  4  1  0
  4  5  1  0
  4  6  1  0
  5  7  1  0
  6  8  1  0
  7  9  1  0
  8  9  1  0
  9 10  1  0
 10 11  2  0
 10 12  2  0
 10 13  1  0
 13 14  2  0
 13 15  1  0
 14 16  1  0
 15 17  1  0
 16 17  2  0
M  END
