MAK-UNK-8fdbca50-13-vinylsulfonamide
     RDKit          3D

 41 44  0  0  0  0  0  0  0  0999 V2000
    7.0990   -4.4120   20.1260 C   0  0  0  0  0  0  0  0  0  0  0  0
    7.3810   -2.9210   19.9910 C   0  0  0  0  0  0  0  0  0  0  0  0
    5.8610   -2.1110   20.4010 S   0  0  0  0  0  0  0  0  0  0  0  0
    4.8370   -3.0970   20.1610 O   0  0  0  0  0  0  0  0  0  0  0  0
    5.8340   -0.7980   19.7910 O   0  0  0  0  0  0  0  0  0  0  0  0
    5.9720   -1.9210   22.0630 N   0  0  0  0  0  0  0  0  0  0  0  0
    4.9070   -1.2670   22.8090 C   0  0  0  0  0  0  0  0  0  0  0  0
    6.7660   -2.8800   22.8170 C   0  0  0  0  0  0  0  0  0  0  0  0
    4.1490   -2.2980   23.6100 C   0  0  0  0  0  0  0  0  0  0  0  0
    6.2310   -3.1580   24.0910 C   0  0  0  0  0  0  0  0  0  0  0  0
    4.8510   -3.4120   24.1000 C   0  0  0  0  0  0  0  0  0  0  0  0
    4.4320   -4.6490   23.5610 C   0  0  0  0  0  0  0  0  0  0  0  0
    3.4870   -4.7070   22.7670 O   0  0  0  0  0  0  0  0  0  0  0  0
    5.1760   -5.8870   24.0110 N   0  0  0  0  0  0  0  0  0  0  0  0
    4.2910   -6.8420   24.7560 C   0  0  0  0  0  0  0  0  0  0  0  0
    6.0380   -6.5510   22.9700 C   0  0  1  0  0  0  0  0  0  0  0  0
    5.5890   -6.0850   21.7050 C   0  0  0  0  0  0  0  0  0  0  0  0
    7.5130   -6.2610   23.2760 C   0  0  0  0  0  0  0  0  0  0  0  0
    8.5200   -5.1340   23.4350 C   0  0  0  0  0  0  0  0  0  0  0  0
    7.1670   -4.9270   23.0990 C   0  0  0  0  0  0  0  0  0  0  0  0
    9.8640   -4.9190   23.7390 C   0  0  0  0  0  0  0  0  0  0  0  0
    8.4850   -5.1710   23.4270 C   0  0  0  0  0  0  0  0  0  0  0  0
    8.9060   -3.8260   23.4390 C   0  0  0  0  0  0  0  0  0  0  0  0
    9.7900   -5.1200   23.7320 F   0  0  0  0  0  0  0  0  0  0  0  0
    9.9220   -2.8950   23.6250 C   0  0  0  0  0  0  0  0  0  0  0  0
   11.3090   -2.9870   23.4790 C   0  0  0  0  0  0  0  0  0  0  0  0
    9.4460   -1.6890   24.0340 N   0  0  0  0  0  0  0  0  0  0  0  0
   11.4840   -1.5270   23.9220 C   0  0  0  0  0  0  0  0  0  0  0  0
   10.1100   -0.7320   24.2700 C   0  0  0  0  0  0  0  0  0  0  0  0
   11.0940   -1.4700   23.9000 S   0  0  0  0  0  0  0  0  0  0  0  0
   12.8130   -1.0700   23.9800 C   0  0  0  0  0  0  0  0  0  0  0  0
   11.6060   -1.8400   25.2000 O   0  0  0  0  0  0  0  0  0  0  0  0
   11.4830   -2.0330   22.6000 O   0  0  0  0  0  0  0  0  0  0  0  0
   11.0880    0.3070   23.7480 C   0  0  0  0  0  0  0  0  0  0  0  0
   13.3190   -1.6260   25.2580 N   0  0  0  0  0  0  0  0  0  0  0  0
   12.1700    1.1040   23.0240 C   0  0  0  0  0  0  0  0  0  0  0  0
   10.0340    1.0330   24.3160 C   0  0  0  0  0  0  0  0  0  0  0  0
   13.5560   -2.9380   25.0990 C   0  0  0  0  0  0  0  0  0  0  0  0
   12.4660    2.5680   22.7100 C   0  0  0  0  0  0  0  0  0  0  0  0
   10.9530    1.5980   23.7080 N   0  0  0  0  0  0  0  0  0  0  0  0
   11.3270    2.7300   23.3750 C   0  0  0  0  0  0  0  0  0  0  0  0
  1  2  1  0
  3  2  1  0
  3  4  2  0
  3  5  2  0
  3  6  1  0
  6  7  1  0
  6  8  1  0
  7  9  1  0
  8 10  1  0
  9 11  1  0
 10 11  1  0
 11 12  1  0
 12 13  2  0
 12 14  1  0
 14 15  1  0
 14 16  1  0
 16 17  1  6
 16 18  1  0
 18 19  2  0
 18 20  1  0
 19 21  1  0
 20 22  2  0
 21 23  2  0
 22 23  1  0
 22 24  1  0
 23 25  1  0
 25 26  2  0
 25 27  1  0
 26 28  1  0
 27 29  1  0
 28 29  2  0
 27 30  1  0
 28 31  1  0
 30 32  2  0
 30 33  2  0
 30 34  1  0
 31 35  1  0
 34 36  2  0
 34 37  1  0
 35 38  1  0
 36 39  1  0
 37 40  2  0
 39 41  2  0
 40 41  1  0
M  END
