MAK-UNK-5d2caa6f-19-chloroacetamide
     RDKit          3D

 24 27  0  0  0  0  0  0  0  0999 V2000
    7.2900   -2.9870   18.8920 C   0  0  0  0  0  0  0  0  0  0  0  0
    6.2560   -3.2820   19.9710 C   0  0  0  0  0  0  0  0  0  0  0  0
    5.4160   -4.1700   19.7700 O   0  0  0  0  0  0  0  0  0  0  0  0
    6.2800   -2.5560   21.1770 N   0  0  0  0  0  0  0  0  0  0  0  0
    7.3920   -1.7770   21.3860 C   0  0  0  0  0  0  0  0  0  0  0  0
    6.0910   -3.2230   22.3980 C   0  0  1  0  0  0  0  0  0  0  0  0
    8.0470   -2.7790   22.2660 C   0  0  2  0  0  0  0  0  0  0  0  0
    7.1830   -4.0540   22.2290 C   0  0  0  0  0  0  0  0  0  0  0  0
    6.3240   -2.2960   23.4050 C   0  0  0  0  0  0  0  0  0  0  0  0
    7.7150   -2.4270   23.7220 C   0  0  2  0  0  0  0  0  0  0  0  0
    8.4590   -1.1610   24.1070 C   0  0  0  0  0  0  0  0  0  0  0  0
    7.6710    0.0340   24.0000 O   0  0  0  0  0  0  0  0  0  0  0  0
    9.7530   -1.2030   24.5130 N   0  0  0  0  0  0  0  0  0  0  0  0
   10.7290   -0.3760   24.0730 C   0  0  0  0  0  0  0  0  0  0  0  0
   11.0370    0.9550   24.2770 C   0  0  0  0  0  0  0  0  0  0  0  0
   11.4880   -1.1370   23.2700 C   0  0  0  0  0  0  0  0  0  0  0  0
   12.2640    1.4850   23.5820 C   0  0  0  0  0  0  0  0  0  0  0  0
   12.5820   -0.7000   22.6280 C   0  0  0  0  0  0  0  0  0  0  0  0
   13.0430    0.6970   22.7880 C   0  0  0  0  0  0  0  0  0  0  0  0
   13.1000   -1.7530   21.8480 C   0  0  0  0  0  0  0  0  0  0  0  0
   13.0940   -3.0660   22.4390 C   0  0  0  0  0  0  0  0  0  0  0  0
   13.5920   -1.8160   20.5770 N   0  0  0  0  0  0  0  0  0  0  0  0
   13.5500   -3.5640   21.3300 C   0  0  0  0  0  0  0  0  0  0  0  0
   13.8290   -3.2010   20.4000 N   0  0  0  0  0  0  0  0  0  0  0  0
  1  2  1  0
  2  3  2  0
  2  4  1  0
  4  5  1  0
  4  6  1  0
  7  5  1  6
  6  8  1  0
  7  8  1  0
  6  9  1  1
  7 10  1  0
  9 10  1  0
 10 11  1  6
 11 12  2  0
 11 13  1  0
 13 14  1  0
 14 15  2  0
 14 16  1  0
 15 17  1  0
 16 18  2  0
 17 19  2  0
 18 19  1  0
 18 20  1  0
 20 21  1  0
 20 22  2  0
 21 23  2  0
 22 24  1  0
 23 24  1  0
M  END
