MAK-UNK-ed378e62-34
     RDKit          3D

 14 15  0  0  0  0  0  0  0  0999 V2000
    2.3660   -7.0270   22.5210 N   0  0  0  0  0  0  0  0  0  0  0  0
    3.4240   -6.5500   22.6480 C   0  0  0  0  0  0  0  0  0  0  0  0
    4.6630   -6.0100   22.9680 C   0  0  0  0  0  0  0  0  0  0  0  0
    4.6450   -5.9950   24.2300 N   0  0  0  0  0  0  0  0  0  0  0  0
    5.6500   -5.6040   22.0740 N   0  0  0  0  0  0  0  0  0  0  0  0
    5.7020   -5.5420   24.7580 C   0  0  0  0  0  0  0  0  0  0  0  0
    6.7730   -5.1220   22.6960 C   0  0  0  0  0  0  0  0  0  0  0  0
    6.7850   -5.0980   24.0650 C   0  0  0  0  0  0  0  0  0  0  0  0
    7.6380   -4.7360   25.0160 N   0  0  0  0  0  0  0  0  0  0  0  0
    7.2560   -5.1980   26.2380 C   0  0  0  0  0  0  0  0  0  0  0  0
    5.8620   -5.0350   26.7870 C   0  0  0  0  0  0  0  0  0  0  0  0
    8.1580   -6.0490   27.4120 S   0  0  0  0  0  0  0  0  0  0  0  0
    5.6930   -5.5770   28.0270 C   0  0  0  0  0  0  0  0  0  0  0  0
    6.8480   -6.1720   28.5210 C   0  0  0  0  0  0  0  0  0  0  0  0
  1  2  3  0
  2  3  1  0
  3  4  2  0
  3  5  1  0
  4  6  1  0
  5  7  2  0
  6  8  2  0
  7  8  1  0
  8  9  1  0
  9 10  1  0
 10 11  2  0
 10 12  1  0
 11 13  1  0
 12 14  1  0
 13 14  2  0
M  END
