MAK-UNK-b2c98f02-1
     RDKit          3D

 28 30  0  0  0  0  0  0  0  0999 V2000
    8.4670    0.3540   22.2190 O   0  0  0  0  0  0  0  0  0  0  0  0
    8.4980   -0.7660   21.7210 C   0  0  0  0  0  0  0  0  0  0  0  0
    9.0010   -1.9910   22.5230 C   0  0  0  0  0  0  0  0  0  0  0  0
    8.0850   -1.0790   20.3630 N   0  0  0  0  0  0  0  0  0  0  0  0
   10.4950   -2.1120   22.8780 C   0  0  0  0  0  0  0  0  0  0  0  0
    7.1050   -0.3250   19.6210 C   0  0  0  0  0  0  0  0  0  0  0  0
   10.8890   -1.6310   24.2640 C   0  0  0  0  0  0  0  0  0  0  0  0
   11.3620   -1.8520   21.8220 C   0  0  0  0  0  0  0  0  0  0  0  0
    6.1470    0.4480   20.2570 C   0  0  0  0  0  0  0  0  0  0  0  0
    6.8890   -0.1810   18.0500 C   0  0  0  0  0  0  0  0  0  0  0  0
   12.2820   -1.0060   24.4560 C   0  0  0  0  0  0  0  0  0  0  0  0
   12.8170   -1.5100   22.1470 C   0  0  0  0  0  0  0  0  0  0  0  0
    5.1160    1.2600   19.6780 C   0  0  0  0  0  0  0  0  0  0  0  0
    5.9260    0.5760   17.4560 N   0  0  0  0  0  0  0  0  0  0  0  0
    7.8440   -0.9520   16.8040 S   0  0  0  0  0  0  0  0  0  0  0  0
   12.6590   -0.3420   23.1320 C   0  0  0  0  0  0  0  0  0  0  0  0
    5.0370    1.3020   18.2960 C   0  0  0  0  0  0  0  0  0  0  0  0
    8.1440   -2.2920   17.1800 O   0  0  0  0  0  0  0  0  0  0  0  0
    8.7820   -0.0370   16.2750 O   0  0  0  0  0  0  0  0  0  0  0  0
    6.9470   -1.1400   15.4540 N   0  0  0  0  0  0  0  0  0  0  0  0
    6.5260   -2.4830   15.2230 C   0  0  0  0  0  0  0  0  0  0  0  0
    6.2120   -2.7740   13.8080 C   0  0  0  0  0  0  0  0  0  0  0  0
    5.0620   -2.7230   12.6870 C   0  0  0  0  0  0  0  0  0  0  0  0
    5.1290   -2.9740   11.2820 C   0  0  0  0  0  0  0  0  0  0  0  0
    3.7850   -2.3670   12.9410 C   0  0  0  0  0  0  0  0  0  0  0  0
    4.1450   -2.6810   10.5870 C   0  0  0  0  0  0  0  0  0  0  0  0
    2.8130   -2.2050   12.3170 C   0  0  0  0  0  0  0  0  0  0  0  0
    3.0310   -2.2620   11.2190 C   0  0  0  0  0  0  0  0  0  0  0  0
  1  2  2  0
  2  3  1  0
  2  4  1  0
  3  5  1  0
  4  6  1  0
  5  7  1  0
  5  8  1  0
  6  9  2  0
  6 10  1  0
  7 11  1  0
  8 12  1  0
  9 13  1  0
 10 14  2  0
 10 15  1  0
 11 16  1  0
 12 16  1  0
 13 17  2  0
 14 17  1  0
 15 18  2  0
 15 19  2  0
 15 20  1  0
 20 21  1  0
 21 22  1  0
 22 23  1  0
 23 24  2  0
 23 25  1  0
 24 26  1  0
 25 27  2  0
 26 28  2  0
 27 28  1  0
M  END
