MAK-UNK-69bf97dd-10-acrylamide
     RDKit          3D

 27 29  0  0  0  0  0  0  0  0999 V2000
    7.4190   -2.8940   18.4490 C   0  0  0  0  0  0  0  0  0  0  0  0
    6.6050   -2.5540   19.6640 C   0  0  0  0  0  0  0  0  0  0  0  0
    6.0470   -3.7770   20.3330 C   0  0  0  0  0  0  0  0  0  0  0  0
    5.1570   -4.4790   19.8440 O   0  0  0  0  0  0  0  0  0  0  0  0
    6.6280   -4.0780   21.5230 N   0  0  0  0  0  0  0  0  0  0  0  0
    7.7760   -3.3920   22.1380 C   0  0  0  0  0  0  0  0  0  0  0  0
    6.3200   -5.3580   22.1120 C   0  0  0  0  0  0  0  0  0  0  0  0
    7.2680   -2.8310   23.5100 C   0  0  0  0  0  0  0  0  0  0  0  0
    6.1580   -5.0890   23.5880 C   0  0  0  0  0  0  0  0  0  0  0  0
    6.0170   -3.6950   23.7800 C   0  0  0  0  0  0  0  0  0  0  0  0
    5.6520   -3.2100   25.2070 C   0  0  0  0  0  0  0  0  0  0  0  0
    4.6610   -3.5570   25.8330 O   0  0  0  0  0  0  0  0  0  0  0  0
    6.6740   -2.2550   25.6880 N   0  0  0  0  0  0  0  0  0  0  0  0
    6.3210   -1.3230   26.7650 C   0  0  2  0  0  0  0  0  0  0  0  0
    5.8490    0.0240   26.2370 C   0  0  0  0  0  0  0  0  0  0  0  0
    7.4420   -1.1160   27.7870 C   0  0  0  0  0  0  0  0  0  0  0  0
    5.4810    1.0150   27.3390 C   0  0  0  0  0  0  0  0  0  0  0  0
    7.2390    0.0650   28.6610 N   0  0  0  0  0  0  0  0  0  0  0  0
    5.8930    0.6840   28.6440 C   0  0  0  0  0  0  0  0  0  0  0  0
    8.0100   -0.0930   30.1570 S   0  0  0  0  0  0  0  0  0  0  0  0
    7.0120    0.1290   31.1880 O   0  0  0  0  0  0  0  0  0  0  0  0
    8.7720   -1.3040   30.0630 O   0  0  0  0  0  0  0  0  0  0  0  0
    9.2340    1.1820   30.2700 C   0  0  0  0  0  0  0  0  0  0  0  0
   10.5340    1.1680   30.7760 C   0  0  0  0  0  0  0  0  0  0  0  0
    8.7790    2.7490   29.6490 S   0  0  0  0  0  0  0  0  0  0  0  0
   11.1480    2.5040   30.6390 C   0  0  0  0  0  0  0  0  0  0  0  0
   10.2680    3.5390   30.0050 C   0  0  0  0  0  0  0  0  0  0  0  0
  1  2  1  0
  2  3  1  0
  3  4  2  0
  3  5  1  0
  5  6  1  0
  5  7  1  0
  6  8  1  0
  7  9  1  0
  8 10  1  0
  9 10  1  0
 10 11  1  0
 11 12  2  0
 11 13  1  0
 14 13  1  6
 14 15  1  0
 14 16  1  0
 15 17  1  0
 16 18  1  0
 17 19  1  0
 18 19  1  0
 18 20  1  0
 20 21  2  0
 20 22  2  0
 20 23  1  0
 23 24  2  0
 23 25  1  0
 24 26  1  0
 25 27  1  0
 26 27  2  0
M  END
