MAK-UNK-516d8086-31-chloroacetamide
     RDKit          3D

 23 25  0  0  0  0  0  0  0  0999 V2000
    6.9820   -3.9650   19.9690 C   0  0  0  0  0  0  0  0  0  0  0  0
    7.4640   -2.9500   19.2120 C   0  0  0  0  0  0  0  0  0  0  0  0
    6.8930   -3.5800   18.3200 O   0  0  0  0  0  0  0  0  0  0  0  0
    7.9890   -2.5320   20.5580 C   0  0  0  0  0  0  0  0  0  0  0  0
    8.3080   -1.0260   20.7470 C   0  0  0  0  0  0  0  0  0  0  0  0
    8.1880   -3.4910   21.6200 C   0  0  0  0  0  0  0  0  0  0  0  0
    8.8470   -0.7780   22.1540 C   0  0  0  0  0  0  0  0  0  0  0  0
    8.6950   -3.1740   22.9310 C   0  0  0  0  0  0  0  0  0  0  0  0
    9.0260   -1.8550   23.2030 C   0  0  0  0  0  0  0  0  0  0  0  0
    8.8710   -4.1740   23.9050 C   0  0  0  0  0  0  0  0  0  0  0  0
    9.5160   -1.7130   24.5170 N   0  0  0  0  0  0  0  0  0  0  0  0
    8.3940   -3.8570   25.2000 C   0  0  0  0  0  0  0  0  0  0  0  0
   10.9800   -1.6920   24.6330 C   0  0  0  0  0  0  0  0  0  0  0  0
    9.0310   -4.5190   26.4550 C   0  0  0  0  0  0  0  0  0  0  0  0
    7.3240   -2.9420   25.4170 C   0  0  0  0  0  0  0  0  0  0  0  0
   11.4500   -3.0140   24.6980 C   0  0  0  0  0  0  0  0  0  0  0  0
    8.5280   -4.1880   27.8640 C   0  0  0  0  0  0  0  0  0  0  0  0
    6.9190   -2.6890   26.7440 C   0  0  0  0  0  0  0  0  0  0  0  0
    7.3810   -3.1850   27.9340 C   0  0  0  0  0  0  0  0  0  0  0  0
    5.7870   -1.7180   27.0740 C   0  0  0  0  0  0  0  0  0  0  0  0
    5.0860   -1.0660   26.3060 O   0  0  0  0  0  0  0  0  0  0  0  0
    5.7260   -1.7550   28.5000 C   0  0  0  0  0  0  0  0  0  0  0  0
    6.6920   -2.6630   29.0310 C   0  0  0  0  0  0  0  0  0  0  0  0
  1  2  1  0
  2  3  2  0
  2  4  1  0
  4  5  2  0
  4  6  1  0
  5  7  1  0
  6  8  2  0
  7  9  2  0
  8  9  1  0
  8 10  1  0
  9 11  1  0
 10 12  1  0
 11 13  1  0
 12 14  2  0
 12 15  1  0
 13 16  1  0
 14 17  1  0
 15 18  2  0
 17 19  2  0
 18 19  1  0
 18 20  1  0
 20 21  2  0
 20 22  1  0
 19 23  1  0
 22 23  1  0
M  END
