MAK-UNK-c8c8f7e2-31
     RDKit          3D

 18 19  0  0  0  0  0  0  0  0999 V2000
    5.8370   -7.5730   31.3450 C   0  0  0  0  0  0  0  0  0  0  0  0
    6.4350   -6.4520   30.7060 O   0  0  0  0  0  0  0  0  0  0  0  0
    6.2720   -6.3990   29.3470 C   0  0  2  0  0  0  0  0  0  0  0  0
    7.4780   -5.7890   28.5930 C   0  0  0  0  0  0  0  0  0  0  0  0
    5.0650   -5.8620   29.1770 C   0  0  2  0  0  0  0  0  0  0  0  0
    3.8380   -6.0990   30.0790 C   0  0  0  0  0  0  0  0  0  0  0  0
    4.6650   -6.2240   27.7720 C   0  0  0  0  0  0  0  0  0  0  0  0
    3.7790   -7.2890   27.5590 C   0  0  0  0  0  0  0  0  0  0  0  0
    5.1710   -5.5070   26.6310 C   0  0  0  0  0  0  0  0  0  0  0  0
    3.3910   -7.6540   26.3080 C   0  0  0  0  0  0  0  0  0  0  0  0
    4.7570   -5.8930   25.3150 C   0  0  0  0  0  0  0  0  0  0  0  0
    3.8670   -6.9740   25.1810 C   0  0  0  0  0  0  0  0  0  0  0  0
    5.1970   -5.2460   24.2200 N   0  0  0  0  0  0  0  0  0  0  0  0
    4.6420   -5.5960   22.9450 C   0  0  0  0  0  0  0  0  0  0  0  0
    6.5580   -4.7880   23.9800 C   0  0  0  0  0  0  0  0  0  0  0  0
    5.7810   -5.7080   21.9380 C   0  0  0  0  0  0  0  0  0  0  0  0
    7.0030   -5.1090   22.5680 C   0  0  0  0  0  0  0  0  0  0  0  0
    7.2260   -4.2170   24.8310 O   0  0  0  0  0  0  0  0  0  0  0  0
  1  2  1  0
  2  3  1  0
  3  4  1  6
  3  5  1  0
  5  6  1  1
  5  7  1  0
  7  8  2  0
  7  9  1  0
  8 10  1  0
  9 11  2  0
 10 12  2  0
 11 12  1  0
 11 13  1  0
 13 14  1  0
 13 15  1  0
 14 16  1  0
 15 17  1  0
 16 17  1  0
 15 18  2  0
M  END
