MAK-UNK-a7992eb3-7-bromoalkyne
     RDKit          3D

 24 26  0  0  0  0  0  0  0  0999 V2000
    6.7920   -4.2100   20.4140 C   0  0  0  0  0  0  0  0  0  0  0  0
    5.4630   -4.3300   19.9070 C   0  0  0  0  0  0  0  0  0  0  0  0
    6.9940   -4.8810   21.6270 N   0  0  0  0  0  0  0  0  0  0  0  0
    7.5380   -4.1860   22.8080 C   0  0  0  0  0  0  0  0  0  0  0  0
    6.0860   -6.0080   22.0000 C   0  0  0  0  0  0  0  0  0  0  0  0
    6.7540   -4.5190   24.0520 C   0  0  0  0  0  0  0  0  0  0  0  0
    4.9450   -5.6240   22.7700 C   0  0  0  0  0  0  0  0  0  0  0  0
    5.3830   -4.6600   23.8910 C   0  0  0  0  0  0  0  0  0  0  0  0
    4.5560   -4.8590   25.0210 C   0  0  0  0  0  0  0  0  0  0  0  0
    4.8260   -5.6750   25.9020 O   0  0  0  0  0  0  0  0  0  0  0  0
    3.3040   -4.0220   24.9820 N   0  0  0  0  0  0  0  0  0  0  0  0
    3.0190   -2.7800   25.7890 C   0  0  0  0  0  0  0  0  0  0  0  0
    1.5890   -2.4080   25.6620 C   0  0  0  0  0  0  0  0  0  0  0  0
    3.7570   -1.8950   26.6270 C   0  0  0  0  0  0  0  0  0  0  0  0
    0.9460   -1.3350   26.2520 C   0  0  0  0  0  0  0  0  0  0  0  0
    3.1320   -0.7740   27.2510 C   0  0  0  0  0  0  0  0  0  0  0  0
    5.1290   -1.9640   26.9630 O   0  0  0  0  0  0  0  0  0  0  0  0
    1.7730   -0.4540   27.1040 C   0  0  0  0  0  0  0  0  0  0  0  0
    5.6040   -0.9270   27.7520 C   0  0  0  0  0  0  0  0  0  0  0  0
    6.0280    0.2690   27.2000 C   0  0  0  0  0  0  0  0  0  0  0  0
    6.9830   -1.4740   28.3050 C   0  0  0  0  0  0  0  0  0  0  0  0
    7.6910   -0.0310   27.5420 S   0  0  0  0  0  0  0  0  0  0  0  0
    8.4070   -0.3960   26.3400 O   0  0  0  0  0  0  0  0  0  0  0  0
    8.1720    0.8740   28.5660 O   0  0  0  0  0  0  0  0  0  0  0  0
  1  2  2  3
  1  3  1  0
  3  4  1  0
  3  5  1  0
  4  6  1  0
  5  7  1  0
  6  8  1  0
  7  8  1  0
  8  9  1  0
  9 10  2  0
  9 11  1  0
 11 12  1  0
 12 13  2  0
 12 14  1  0
 13 15  1  0
 14 16  2  0
 14 17  1  0
 15 18  2  0
 16 18  1  0
 17 19  1  0
 19 20  1  0
 19 21  1  0
 22 20  1  0
 21 22  1  0
 22 23  2  0
 22 24  2  0
M  END
