MAK-UNK-10dfa458-9-nitrile
     RDKit          3D

 18 19  0  0  0  0  0  0  0  0999 V2000
    6.4100   -5.1850   20.5110 C   0  0  0  0  0  0  0  0  0  0  0  0
    5.5670   -4.4410   19.8940 N   0  0  0  0  0  0  0  0  0  0  0  0
    6.1910   -5.6960   21.8430 N   0  0  0  0  0  0  0  0  0  0  0  0
    7.2100   -5.5590   22.8860 C   0  0  0  0  0  0  0  0  0  0  0  0
    4.9220   -5.5050   22.5110 C   0  0  0  0  0  0  0  0  0  0  0  0
    7.0790   -4.2110   23.5340 C   0  0  0  0  0  0  0  0  0  0  0  0
    4.8240   -4.0130   22.7540 C   0  0  0  0  0  0  0  0  0  0  0  0
    6.1650   -3.3890   22.7330 N   0  0  0  0  0  0  0  0  0  0  0  0
    6.7560   -3.1520   21.3790 C   0  0  2  0  0  0  0  0  0  0  0  0
    8.2910   -3.0260   21.4150 C   0  0  0  0  0  0  0  0  0  0  0  0
    6.1440   -1.9820   20.6580 C   0  0  0  0  0  0  0  0  0  0  0  0
    7.0970   -0.8160   20.3030 C   0  0  0  0  0  0  0  0  0  0  0  0
    6.3370    0.2730   19.8860 C   0  0  0  0  0  0  0  0  0  0  0  0
    5.8520    0.3610   18.5880 C   0  0  0  0  0  0  0  0  0  0  0  0
    6.0070    1.3340   20.7430 C   0  0  0  0  0  0  0  0  0  0  0  0
    5.0840    1.4020   18.1100 C   0  0  0  0  0  0  0  0  0  0  0  0
    5.2270    2.4100   20.2980 C   0  0  0  0  0  0  0  0  0  0  0  0
    4.7610    2.4460   18.9780 C   0  0  0  0  0  0  0  0  0  0  0  0
  1  2  2  3
  1  3  1  0
  3  4  1  0
  3  5  1  0
  4  6  1  0
  5  7  1  0
  6  8  1  0
  7  8  1  0
  8  9  1  0
  9 10  1  1
  9 11  1  0
 11 12  1  0
 12 13  1  0
 13 14  2  0
 13 15  1  0
 14 16  1  0
 15 17  2  0
 16 18  2  0
 17 18  1  0
M  END
