MAK-UNK-30aad1f1-9-vinylsulfonamide
     RDKit          3D

 28 30  0  0  0  0  0  0  0  0999 V2000
    7.5450   -5.2900   21.3970 C   0  0  0  0  0  0  0  0  0  0  0  0
    6.4970   -5.3670   22.2740 C   0  0  0  0  0  0  0  0  0  0  0  0
    5.1440   -4.4540   21.7470 S   0  0  0  0  0  0  0  0  0  0  0  0
    4.1150   -3.9620   22.6040 O   0  0  0  0  0  0  0  0  0  0  0  0
    4.7310   -5.3130   20.7830 O   0  0  0  0  0  0  0  0  0  0  0  0
    5.8770   -3.2620   20.8080 C   0  0  0  0  0  0  0  0  0  0  0  0
    5.2160   -2.8510   19.5340 C   0  0  0  0  0  0  0  0  0  0  0  0
    7.0760   -2.6950   21.1890 C   0  0  0  0  0  0  0  0  0  0  0  0
    5.9070   -1.8520   18.7620 C   0  0  0  0  0  0  0  0  0  0  0  0
    7.7220   -1.7620   20.4650 N   0  0  0  0  0  0  0  0  0  0  0  0
    7.1580   -1.3730   19.3160 C   0  0  0  0  0  0  0  0  0  0  0  0
    7.6810   -0.4580   18.5710 N   0  0  0  0  0  0  0  0  0  0  0  0
    6.6370    0.4570   18.7700 C   0  0  0  0  0  0  0  0  0  0  0  0
    6.1050    0.9480   17.6520 N   0  0  0  0  0  0  0  0  0  0  0  0
    6.2390    0.7410   20.0790 C   0  0  0  0  0  0  0  0  0  0  0  0
    5.0890    1.7850   17.8560 C   0  0  0  0  0  0  0  0  0  0  0  0
    5.1730    1.6130   20.2600 C   0  0  0  0  0  0  0  0  0  0  0  0
    6.8800    0.1700   21.1330 N   0  0  0  0  0  0  0  0  0  0  0  0
    4.5740    2.1540   19.1240 C   0  0  0  0  0  0  0  0  0  0  0  0
    8.2230    0.3200   21.4830 C   0  0  0  0  0  0  0  0  0  0  0  0
    8.8740    1.3100   21.1310 O   0  0  0  0  0  0  0  0  0  0  0  0
    8.7990   -0.7130   22.2490 N   0  0  0  0  0  0  0  0  0  0  0  0
   10.1700   -0.4410   22.6250 C   0  0  0  0  0  0  0  0  0  0  0  0
   11.2650   -1.3560   22.0800 C   0  0  0  0  0  0  0  0  0  0  0  0
   10.4670    0.6150   23.4390 C   0  0  0  0  0  0  0  0  0  0  0  0
   12.5380   -1.0910   22.4170 C   0  0  0  0  0  0  0  0  0  0  0  0
   11.9100    0.8590   23.7760 C   0  0  0  0  0  0  0  0  0  0  0  0
   12.9320    0.0420   23.2870 C   0  0  0  0  0  0  0  0  0  0  0  0
  1  2  1  0
  3  2  1  0
  3  4  2  0
  3  5  2  0
  3  6  1  0
  6  7  2  0
  6  8  1  0
  7  9  1  0
  8 10  2  0
  9 11  2  0
 10 11  1  0
 11 12  1  0
 12 13  1  0
 13 14  2  0
 13 15  1  0
 14 16  1  0
 15 17  2  0
 15 18  1  0
 16 19  2  0
 17 19  1  0
 18 20  1  0
 20 21  2  0
 20 22  1  0
 22 23  1  0
 23 24  2  0
 23 25  1  0
 24 26  1  0
 25 27  2  0
 26 28  2  0
 27 28  1  0
M  END
