MAK-UNK-10799360-19-acrylamide
     RDKit          3D

 28 31  0  0  0  0  0  0  0  0999 V2000
    7.4180   -2.9880   18.7380 C   0  0  0  0  0  0  0  0  0  0  0  0
    6.7310   -2.3930   19.9540 C   0  0  0  0  0  0  0  0  0  0  0  0
    5.7110   -3.3390   20.5380 C   0  0  0  0  0  0  0  0  0  0  0  0
    5.1910   -4.2930   19.9300 O   0  0  0  0  0  0  0  0  0  0  0  0
    5.3920   -3.0320   21.8290 N   0  0  0  0  0  0  0  0  0  0  0  0
    5.9370   -3.8090   22.9540 C   0  0  0  0  0  0  0  0  0  0  0  0
    5.2260   -1.6670   22.3550 C   0  0  1  0  0  0  0  0  0  0  0  0
    5.9860   -2.7600   24.0790 C   0  0  2  0  0  0  0  0  0  0  0  0
    4.7210   -1.9400   23.7640 C   0  0  0  0  0  0  0  0  0  0  0  0
    6.5920   -1.0170   22.6270 C   0  0  0  0  0  0  0  0  0  0  0  0
    7.0730   -1.7900   23.7860 N   0  0  0  0  0  0  0  0  0  0  0  0
    7.5930   -1.0040   24.9070 C   0  0  0  0  0  0  0  0  0  0  0  0
    8.7530   -0.2780   24.5430 C   0  0  0  0  0  0  0  0  0  0  0  0
    8.6810    1.1120   24.3210 C   0  0  0  0  0  0  0  0  0  0  0  0
   10.0040   -0.9370   24.3990 C   0  0  0  0  0  0  0  0  0  0  0  0
    9.8530    1.7720   23.9690 C   0  0  0  0  0  0  0  0  0  0  0  0
   11.1810   -0.2400   24.0440 C   0  0  0  0  0  0  0  0  0  0  0  0
   11.0540    1.1220   23.8370 C   0  0  0  0  0  0  0  0  0  0  0  0
   12.5000   -0.9310   23.8980 C   0  0  0  0  0  0  0  0  0  0  0  0
   12.6360   -1.4000   22.5230 N   0  0  0  0  0  0  0  0  0  0  0  0
   13.3160   -2.5690   22.3230 C   0  0  0  0  0  0  0  0  0  0  0  0
   13.9340   -3.1870   23.3550 O   0  0  0  0  0  0  0  0  0  0  0  0
   13.2740   -2.9890   20.9940 N   0  0  0  0  0  0  0  0  0  0  0  0
   12.2260   -3.5360   20.6870 C   0  0  0  0  0  0  0  0  0  0  0  0
   14.0790   -3.8480   20.1940 C   0  0  0  0  0  0  0  0  0  0  0  0
   12.3820   -4.7810   20.0270 C   0  0  0  0  0  0  0  0  0  0  0  0
   14.3440   -5.0780   20.4590 C   0  0  0  0  0  0  0  0  0  0  0  0
   13.2530   -5.5830   20.5760 O   0  0  0  0  0  0  0  0  0  0  0  0
  1  2  1  0
  2  3  1  0
  3  4  2  0
  3  5  1  0
  5  6  1  0
  5  7  1  0
  8  6  1  6
  7  9  1  0
  8  9  1  0
  7 10  1  1
  8 11  1  0
 10 11  1  0
 11 12  1  0
 12 13  1  0
 13 14  2  0
 13 15  1  0
 14 16  1  0
 15 17  2  0
 16 18  2  0
 17 18  1  0
 17 19  1  0
 19 20  1  0
 20 21  1  0
 21 22  2  0
 21 23  1  0
 23 24  1  0
 23 25  1  0
 24 26  1  0
 25 27  1  0
 26 28  1  0
 27 28  1  0
M  END
