MAK-UNK-8fdbca50-41-nitrile
     RDKit          3D

 38 41  0  0  0  0  0  0  0  0999 V2000
    7.3980   -3.5480   20.3380 C   0  0  0  0  0  0  0  0  0  0  0  0
    6.7650   -2.9290   19.3230 N   0  0  0  0  0  0  0  0  0  0  0  0
    8.3750   -2.9020   21.5430 N   0  0  0  0  0  0  0  0  0  0  0  0
    8.1640   -2.5060   23.0170 C   0  0  0  0  0  0  0  0  0  0  0  0
    9.7130   -2.3110   21.3140 C   0  0  0  0  0  0  0  0  0  0  0  0
    8.6920   -1.1140   23.4310 C   0  0  0  0  0  0  0  0  0  0  0  0
   10.6630   -2.0350   22.2810 C   0  0  0  0  0  0  0  0  0  0  0  0
   10.1490   -0.9170   23.1070 C   0  0  0  0  0  0  0  0  0  0  0  0
   11.1220   -0.6550   24.0570 C   0  0  0  0  0  0  0  0  0  0  0  0
   11.2630   -1.2420   25.1150 O   0  0  0  0  0  0  0  0  0  0  0  0
   11.9280    0.4540   23.4940 N   0  0  0  0  0  0  0  0  0  0  0  0
   13.1120   -0.0300   22.7300 C   0  0  0  0  0  0  0  0  0  0  0  0
   11.1370    1.6980   23.2430 C   0  0  0  0  0  0  0  0  0  0  0  0
   12.0750    2.7970   22.7760 C   0  0  0  0  0  0  0  0  0  0  0  0
    9.9470    1.4610   22.2600 C   0  0  0  0  0  0  0  0  0  0  0  0
   10.4730    2.2720   24.2380 N   0  0  0  0  0  0  0  0  0  0  0  0
    9.2520    1.7480   24.5420 C   0  0  0  0  0  0  0  0  0  0  0  0
    8.1100    2.7310   24.3100 C   0  0  0  0  0  0  0  0  0  0  0  0
    7.0440    2.4660   23.4970 C   0  0  0  0  0  0  0  0  0  0  0  0
    7.8510    4.0150   24.7920 C   0  0  0  0  0  0  0  0  0  0  0  0
    6.0970    3.5920   23.4630 C   0  0  0  0  0  0  0  0  0  0  0  0
    6.6580    4.5210   24.2890 N   0  0  0  0  0  0  0  0  0  0  0  0
    4.9560    3.4580   22.6690 C   0  0  0  0  0  0  0  0  0  0  0  0
    6.0980    6.0820   24.7210 S   0  0  0  0  0  0  0  0  0  0  0  0
    4.9190    3.8910   21.3340 C   0  0  0  0  0  0  0  0  0  0  0  0
    3.7700    2.8660   23.1660 C   0  0  0  0  0  0  0  0  0  0  0  0
    7.1870    6.9920   24.4490 O   0  0  0  0  0  0  0  0  0  0  0  0
    5.5610    5.9510   26.0620 O   0  0  0  0  0  0  0  0  0  0  0  0
    4.7540    6.4640   23.6630 C   0  0  0  0  0  0  0  0  0  0  0  0
    3.8160    3.7770   20.4910 C   0  0  0  0  0  0  0  0  0  0  0  0
    2.5690    2.7570   22.2040 C   0  0  0  0  0  0  0  0  0  0  0  0
    3.6730    2.4080   24.4230 F   0  0  0  0  0  0  0  0  0  0  0  0
    4.8450    6.3440   22.2760 C   0  0  0  0  0  0  0  0  0  0  0  0
    3.5590    6.9030   24.2160 C   0  0  0  0  0  0  0  0  0  0  0  0
    2.6390    3.2200   20.8890 C   0  0  0  0  0  0  0  0  0  0  0  0
    3.7340    6.6670   21.5030 C   0  0  0  0  0  0  0  0  0  0  0  0
    2.4600    7.2270   23.4770 N   0  0  0  0  0  0  0  0  0  0  0  0
    2.5700    7.1010   22.1340 C   0  0  0  0  0  0  0  0  0  0  0  0
  1  2  2  3
  1  3  1  0
  3  4  1  0
  3  5  1  0
  4  6  1  0
  5  7  1  0
  6  8  1  0
  7  8  1  0
  8  9  1  0
  9 10  2  0
  9 11  1  0
 11 12  1  0
 13 11  1  0
 13 14  1  0
 13 15  1  0
 13 16  1  0
 16 17  1  0
 17 18  1  0
 18 19  1  0
 18 20  2  0
 19 21  2  0
 20 22  1  0
 21 22  1  0
 21 23  1  0
 22 24  1  0
 23 25  2  0
 23 26  1  0
 24 27  2  0
 24 28  2  0
 24 29  1  0
 25 30  1  0
 26 31  2  0
 26 32  1  0
 29 33  2  0
 29 34  1  0
 30 35  2  0
 31 35  1  0
 33 36  1  0
 34 37  2  0
 36 38  2  0
 37 38  1  0
M  END
