MAK-UNK-ec98eaf6-43-bromoalkyne
     RDKit          3D

 18 20  0  0  0  0  0  0  0  0999 V2000
    6.6440   -3.8830   19.8640 C   0  0  0  0  0  0  0  0  0  0  0  0
    6.4320   -2.8910   18.7290 C   0  0  0  0  0  0  0  0  0  0  0  0
    6.8370   -3.3130   21.0980 N   0  0  0  0  0  0  0  0  0  0  0  0
    8.1120   -2.7090   21.3810 C   0  0  0  0  0  0  0  0  0  0  0  0
    6.4270   -3.7770   22.4590 C   0  0  1  0  0  0  0  0  0  0  0  0
    8.5520   -3.3550   22.6640 C   0  0  2  0  0  0  0  0  0  0  0  0
    7.6550   -4.5920   22.8890 C   0  0  0  0  0  0  0  0  0  0  0  0
    6.5880   -2.5890   23.3870 C   0  0  0  0  0  0  0  0  0  0  0  0
    8.0350   -2.3780   23.7220 C   0  0  2  0  0  0  0  0  0  0  0  0
    8.5430   -1.0620   23.5050 N   0  0  0  0  0  0  0  0  0  0  0  0
    9.9790   -1.1350   23.3490 C   0  0  0  0  0  0  0  0  0  0  0  0
   10.6640   -0.8250   24.5560 N   0  0  0  0  0  0  0  0  0  0  0  0
   10.8330   -1.4890   22.1620 N   0  0  0  0  0  0  0  0  0  0  0  0
   11.9960   -0.8850   24.5310 C   0  0  0  0  0  0  0  0  0  0  0  0
   12.2180   -1.5060   22.2470 C   0  0  0  0  0  0  0  0  0  0  0  0
   12.8500   -0.6820   25.4500 C   0  0  0  0  0  0  0  0  0  0  0  0
   12.8470   -1.2170   23.3870 C   0  0  0  0  0  0  0  0  0  0  0  0
   13.0330   -1.8640   21.0540 C   0  0  0  0  0  0  0  0  0  0  0  0
  1  2  2  3
  1  3  1  0
  3  4  1  0
  3  5  1  0
  6  4  1  6
  5  7  1  0
  6  7  1  0
  5  8  1  1
  6  9  1  0
  8  9  1  0
  9 10  1  6
 10 11  1  0
 11 12  2  0
 11 13  1  0
 12 14  1  0
 13 15  2  0
 14 16  1  0
 14 17  2  0
 15 17  1  0
 15 18  1  0
M  END
