MAK-UNK-849bee6c-2-bromoalkyne
     RDKit          3D

 25 27  0  0  0  0  0  0  0  0999 V2000
    6.9440   -3.7180   20.2680 C   0  0  0  0  0  0  0  0  0  0  0  0
    5.5780   -3.9570   19.6830 C   0  0  0  0  0  0  0  0  0  0  0  0
    7.1160   -2.8660   21.3480 N   0  0  0  0  0  0  0  0  0  0  0  0
    6.8380   -1.4720   21.1050 C   0  0  0  0  0  0  0  0  0  0  0  0
    6.7780   -3.2510   22.7280 C   0  0  0  0  0  0  0  0  0  0  0  0
    7.5290   -0.5580   22.1080 C   0  0  0  0  0  0  0  0  0  0  0  0
    7.4160   -2.3320   23.8000 C   0  0  0  0  0  0  0  0  0  0  0  0
    7.2320   -0.8840   23.5150 N   0  0  0  0  0  0  0  0  0  0  0  0
    7.8380   -0.0660   24.5460 C   0  0  0  0  0  0  0  0  0  0  0  0
    9.1810    0.3880   24.0180 C   0  0  0  0  0  0  0  0  0  0  0  0
    9.6160    1.8480   23.9600 C   0  0  0  0  0  0  0  0  0  0  0  0
   10.0320   -0.6190   23.5570 C   0  0  0  0  0  0  0  0  0  0  0  0
   10.9670    2.0910   23.3880 C   0  0  0  0  0  0  0  0  0  0  0  0
   11.2890   -0.3770   23.0280 C   0  0  0  0  0  0  0  0  0  0  0  0
   11.5280    3.3670   23.2410 C   0  0  0  0  0  0  0  0  0  0  0  0
   11.8030    0.9060   22.9210 C   0  0  0  0  0  0  0  0  0  0  0  0
   12.0050   -1.4930   22.6080 N   0  0  0  0  0  0  0  0  0  0  0  0
   12.9050   -2.1940   23.4060 C   0  0  0  0  0  0  0  0  0  0  0  0
   12.8910   -2.0450   24.7640 C   0  0  0  0  0  0  0  0  0  0  0  0
   13.7880   -3.0030   22.8520 N   0  0  0  0  0  0  0  0  0  0  0  0
   13.7740   -2.7180   25.5430 C   0  0  0  0  0  0  0  0  0  0  0  0
   14.6860   -3.6490   23.6710 C   0  0  0  0  0  0  0  0  0  0  0  0
   14.6840   -3.5340   25.0280 N   0  0  0  0  0  0  0  0  0  0  0  0
   15.8850   -4.6640   23.0160 C   0  0  0  0  0  0  0  0  0  0  0  0
   15.8900   -5.3680   21.8100 N   0  0  0  0  0  0  0  0  0  0  0  0
  1  2  2  3
  1  3  1  0
  3  4  1  0
  3  5  1  0
  4  6  1  0
  5  7  1  0
  6  8  1  0
  7  8  1  0
  8  9  1  0
  9 10  1  0
 10 11  2  0
 10 12  1  0
 11 13  1  0
 12 14  2  0
 13 15  1  0
 13 16  2  0
 14 16  1  0
 14 17  1  0
 17 18  1  0
 18 19  2  0
 18 20  1  0
 19 21  1  0
 20 22  2  0
 21 23  2  0
 22 23  1  0
 22 24  1  0
 24 25  3  0
M  END
