MAK-UNK-212f693e-3
     RDKit          3D

 15 16  0  0  0  0  0  0  0  0999 V2000
    6.3780   -2.7760   20.9570 C   0  0  0  0  0  0  0  0  0  0  0  0
    5.9590   -4.2370   20.8060 C   0  0  0  0  0  0  0  0  0  0  0  0
    5.3120   -4.6180   19.8340 O   0  0  0  0  0  0  0  0  0  0  0  0
    6.3690   -5.0520   21.8350 N   0  0  0  0  0  0  0  0  0  0  0  0
    7.1550   -4.5320   22.9580 C   0  0  0  0  0  0  0  0  0  0  0  0
    5.4490   -6.0030   22.3140 C   0  0  0  0  0  0  0  0  0  0  0  0
    6.2230   -4.0930   24.0880 C   0  0  0  0  0  0  0  0  0  0  0  0
    4.6000   -5.5860   23.3190 N   0  0  0  0  0  0  0  0  0  0  0  0
    5.3100   -5.2240   24.4330 C   0  0  2  0  0  0  0  0  0  0  0  0
    4.4920   -4.9310   25.6020 O   0  0  0  0  0  0  0  0  0  0  0  0
    3.5480   -3.9340   25.5980 C   0  0  0  0  0  0  0  0  0  0  0  0
    3.8390   -2.5920   25.7630 C   0  0  0  0  0  0  0  0  0  0  0  0
    2.1660   -4.1650   25.4400 C   0  0  0  0  0  0  0  0  0  0  0  0
    2.5740   -1.7390   25.7350 C   0  0  0  0  0  0  0  0  0  0  0  0
    1.1560   -2.7430   25.5000 S   0  0  0  0  0  0  0  0  0  0  0  0
  1  2  1  0
  2  3  2  0
  2  4  1  0
  4  5  1  0
  4  6  1  0
  5  7  1  0
  6  8  1  0
  7  9  1  0
  8  9  1  0
  9 10  1  1
 10 11  1  0
 11 12  1  0
 11 13  2  0
 12 14  2  0
 13 15  1  0
 14 15  1  0
M  END
