MAK-UNK-10dfa458-8-bromoalkyne
     RDKit          3D

 21 23  0  0  0  0  0  0  0  0999 V2000
    6.7190   -4.0300   21.5280 C   0  0  0  0  0  0  0  0  0  0  0  0
    6.4520   -2.9990   20.7910 C   0  0  0  0  0  0  0  0  0  0  0  0
    7.0210   -5.1970   22.3630 N   0  0  0  0  0  0  0  0  0  0  0  0
    7.5170   -4.8840   23.7150 C   0  0  0  0  0  0  0  0  0  0  0  0
    5.9800   -6.2400   22.3760 C   0  0  0  0  0  0  0  0  0  0  0  0
    6.3540   -4.5340   24.6740 C   0  0  0  0  0  0  0  0  0  0  0  0
    4.8310   -5.8770   23.3480 C   0  0  0  0  0  0  0  0  0  0  0  0
    5.3190   -5.5880   24.7130 N   0  0  0  0  0  0  0  0  0  0  0  0
    4.2550   -5.3490   25.6930 C   0  0  0  0  0  0  0  0  0  0  0  0
    3.3790   -4.1510   25.4840 C   0  0  0  0  0  0  0  0  0  0  0  0
    2.2120   -4.1980   24.7530 C   0  0  0  0  0  0  0  0  0  0  0  0
    3.6670   -2.9140   26.0210 C   0  0  0  0  0  0  0  0  0  0  0  0
    1.4030   -3.1380   24.5520 N   0  0  0  0  0  0  0  0  0  0  0  0
    2.8970   -1.8200   25.8540 N   0  0  0  0  0  0  0  0  0  0  0  0
    1.7800   -1.9730   25.1150 C   0  0  0  0  0  0  0  0  0  0  0  0
    0.9170   -0.7910   24.9090 C   0  0  0  0  0  0  0  0  0  0  0  0
    1.2410    0.4630   25.4630 C   0  0  0  0  0  0  0  0  0  0  0  0
   -0.2670   -0.8670   24.1490 C   0  0  0  0  0  0  0  0  0  0  0  0
    0.4260    1.5840   25.2690 C   0  0  0  0  0  0  0  0  0  0  0  0
   -1.0850    0.2510   23.9530 C   0  0  0  0  0  0  0  0  0  0  0  0
   -0.7370    1.4760   24.5140 C   0  0  0  0  0  0  0  0  0  0  0  0
  1  2  2  3
  1  3  1  0
  3  4  1  0
  3  5  1  0
  4  6  1  0
  5  7  1  0
  6  8  1  0
  7  8  1  0
  8  9  1  0
  9 10  1  0
 10 11  2  0
 10 12  1  0
 11 13  1  0
 12 14  2  0
 13 15  2  0
 14 15  1  0
 15 16  1  0
 16 17  2  0
 16 18  1  0
 17 19  1  0
 18 20  2  0
 19 21  2  0
 20 21  1  0
M  END
