MAK-UNK-212f693e-25
     RDKit          3D

 16 17  0  0  0  0  0  0  0  0999 V2000
    8.0020   -1.8350   20.6310 N   0  0  0  0  0  0  0  0  0  0  0  0
    7.0820   -2.7870   20.8010 C   0  0  0  0  0  0  0  0  0  0  0  0
    6.2190   -4.0550   20.7770 C   0  0  0  0  0  0  0  0  0  0  0  0
    5.4860   -4.2770   19.8080 O   0  0  0  0  0  0  0  0  0  0  0  0
    6.3260   -4.8590   21.8280 N   0  0  0  0  0  0  0  0  0  0  0  0
    5.5320   -5.9950   22.1290 C   0  0  0  0  0  0  0  0  0  0  0  0
    7.0160   -4.2700   22.9090 C   0  0  0  0  0  0  0  0  0  0  0  0
    4.6110   -5.8640   23.3410 C   0  0  0  0  0  0  0  0  0  0  0  0
    6.1920   -4.0840   24.0360 C   0  0  0  0  0  0  0  0  0  0  0  0
    5.4060   -5.1770   24.4070 C   0  0  0  0  0  0  0  0  0  0  0  0
    4.6000   -4.9010   25.5910 O   0  0  0  0  0  0  0  0  0  0  0  0
    3.6180   -3.9390   25.5850 C   0  0  0  0  0  0  0  0  0  0  0  0
    3.8480   -2.5900   25.7710 C   0  0  0  0  0  0  0  0  0  0  0  0
    2.2400   -4.1960   25.4090 C   0  0  0  0  0  0  0  0  0  0  0  0
    2.5770   -1.7560   25.7410 C   0  0  0  0  0  0  0  0  0  0  0  0
    1.1910   -2.7950   25.4770 S   0  0  0  0  0  0  0  0  0  0  0  0
  1  2  2  3
  2  3  1  0
  3  4  2  0
  3  5  1  0
  5  6  1  0
  5  7  1  0
  6  8  1  0
  7  9  1  0
  8 10  1  0
  9 10  1  0
 10 11  1  0
 11 12  1  0
 12 13  1  0
 12 14  2  0
 13 15  2  0
 14 16  1  0
 15 16  1  0
M  END
