MAK-UNK-ec98eaf6-16-vinylsulfonamide
     RDKit          3D

 24 26  0  0  0  0  0  0  0  0999 V2000
    7.3470   -2.8370   18.3410 C   0  0  0  0  0  0  0  0  0  0  0  0
    6.4300   -2.2300   19.3730 C   0  0  0  0  0  0  0  0  0  0  0  0
    5.7970   -3.3970   20.5420 S   0  0  0  0  0  0  0  0  0  0  0  0
    4.6720   -2.9010   21.2250 O   0  0  0  0  0  0  0  0  0  0  0  0
    5.7030   -4.7270   19.9870 O   0  0  0  0  0  0  0  0  0  0  0  0
    6.9230   -3.1270   21.6820 N   0  0  0  0  0  0  0  0  0  0  0  0
    7.0560   -3.9530   22.9160 C   0  0  0  0  0  0  0  0  0  0  0  0
    7.0260   -1.7050   22.0850 C   0  0  1  0  0  0  0  0  0  0  0  0
    7.3570   -2.7770   23.8820 C   0  0  2  0  0  0  0  0  0  0  0  0
    6.3740   -1.7260   23.4740 C   0  0  0  0  0  0  0  0  0  0  0  0
    8.3700   -1.4900   22.1330 C   0  0  0  0  0  0  0  0  0  0  0  0
    8.5620   -1.9270   23.5420 N   0  0  0  0  0  0  0  0  0  0  0  0
    9.9180   -2.4270   23.6900 C   0  0  0  0  0  0  0  0  0  0  0  0
   10.7750   -1.3600   23.4910 C   0  0  0  0  0  0  0  0  0  0  0  0
   10.3620   -0.0470   23.8440 C   0  0  0  0  0  0  0  0  0  0  0  0
   12.0510   -1.4990   22.9230 C   0  0  0  0  0  0  0  0  0  0  0  0
   11.3190    1.0620   23.5670 C   0  0  0  0  0  0  0  0  0  0  0  0
   12.8810   -0.4060   22.7130 C   0  0  0  0  0  0  0  0  0  0  0  0
   12.5770   -2.7070   22.5230 C   0  0  0  0  0  0  0  0  0  0  0  0
   10.6450    2.3540   23.9720 C   0  0  0  0  0  0  0  0  0  0  0  0
   12.5430    0.9230   23.0330 N   0  0  0  0  0  0  0  0  0  0  0  0
   12.9640   -2.7360   21.1740 N   0  0  0  0  0  0  0  0  0  0  0  0
   10.2210    2.6840   22.5580 C   0  0  0  0  0  0  0  0  0  0  0  0
    9.2290    3.7040   22.5080 O   0  0  0  0  0  0  0  0  0  0  0  0
  1  2  1  0
  3  2  1  0
  3  4  2  0
  3  5  2  0
  3  6  1  0
  6  7  1  0
  6  8  1  0
  9  7  1  6
  8 10  1  0
  9 10  1  0
  8 11  1  1
  9 12  1  0
 11 12  1  0
 12 13  1  0
 13 14  1  0
 14 15  2  0
 14 16  1  0
 15 17  1  0
 16 18  2  0
 16 19  1  0
 17 20  1  0
 17 21  2  0
 18 21  1  0
 19 22  3  0
 20 23  1  0
 23 24  1  0
M  END
