MAK-UNK-72659d64-8-vinylsulfonamide
     RDKit          3D

 16 16  0  0  0  0  0  0  0  0999 V2000
    8.5370   -3.6110   20.1780 C   0  0  0  0  0  0  0  0  0  0  0  0
    7.5660   -4.1300   21.3250 C   0  0  0  0  0  0  0  0  0  0  0  0
    6.0110   -3.0900   21.4090 S   0  0  0  0  0  0  0  0  0  0  0  0
    4.7390   -3.5790   22.0040 O   0  0  0  0  0  0  0  0  0  0  0  0
    6.2850   -1.7060   21.0720 O   0  0  0  0  0  0  0  0  0  0  0  0
    5.5080   -3.8580   20.1440 N   0  0  0  0  0  0  0  0  0  0  0  0
    6.0610   -3.1810   19.0010 C   0  0  0  0  0  0  0  0  0  0  0  0
    5.7410   -5.2280   20.6430 C   0  0  0  0  0  0  0  0  0  0  0  0
    5.3420   -5.4010   22.1460 C   0  0  0  0  0  0  0  0  0  0  0  0
    4.3050   -6.3970   22.6710 C   0  0  0  0  0  0  0  0  0  0  0  0
    5.9030   -4.6370   23.1910 N   0  0  0  0  0  0  0  0  0  0  0  0
    3.9850   -6.4800   24.1410 C   0  0  0  0  0  0  0  0  0  0  0  0
    5.5390   -4.7800   24.4960 C   0  0  0  0  0  0  0  0  0  0  0  0
    4.6120   -5.6580   25.0480 N   0  0  0  0  0  0  0  0  0  0  0  0
    6.1390   -3.9500   25.4490 C   0  0  0  0  0  0  0  0  0  0  0  0
    5.5860   -4.0330   26.7970 N   0  0  0  0  0  0  0  0  0  0  0  0
  1  2  1  0
  2  3  1  0
  3  4  2  0
  3  5  2  0
  3  6  1  0
  6  7  1  0
  6  8  1  0
  8  9  1  0
  9 10  2  0
  9 11  1  0
 10 12  1  0
 11 13  2  0
 12 14  2  0
 13 14  1  0
 13 15  1  0
 15 16  3  0
M  END
