MAK-UNK-ed378e62-22
     RDKit          3D

 15 16  0  0  0  0  0  0  0  0999 V2000
    8.2270   -2.7980   20.7930 C   0  0  0  0  0  0  0  0  0  0  0  0
    6.9240   -3.2550   21.2860 N   0  0  0  0  0  0  0  0  0  0  0  0
    6.6520   -3.0870   22.6200 C   0  0  0  0  0  0  0  0  0  0  0  0
    6.6830   -4.6140   21.4470 C   0  0  0  0  0  0  0  0  0  0  0  0
    5.7070   -4.0020   23.1480 C   0  0  0  0  0  0  0  0  0  0  0  0
    7.2390   -2.1610   23.3860 N   0  0  0  0  0  0  0  0  0  0  0  0
    5.7290   -5.2080   20.7140 C   0  0  0  0  0  0  0  0  0  0  0  0
    7.4570   -5.6160   22.5930 S   0  0  0  0  0  0  0  0  0  0  0  0
    5.3580   -3.9800   24.4910 C   0  0  0  0  0  0  0  0  0  0  0  0
    6.8890   -2.1390   24.6910 C   0  0  0  0  0  0  0  0  0  0  0  0
    5.6130   -6.4920   21.1060 C   0  0  0  0  0  0  0  0  0  0  0  0
    6.4800   -6.8960   22.1350 C   0  0  0  0  0  0  0  0  0  0  0  0
    5.9250   -3.0580   25.3340 N   0  0  0  0  0  0  0  0  0  0  0  0
    7.5380   -1.0800   25.5400 C   0  0  0  0  0  0  0  0  0  0  0  0
    8.0210   -0.2540   26.1970 N   0  0  0  0  0  0  0  0  0  0  0  0
  1  2  1  0
  2  3  1  0
  2  4  1  0
  3  5  2  0
  3  6  1  0
  4  7  2  0
  4  8  1  0
  5  9  1  0
  6 10  2  0
  7 11  1  0
  8 12  1  0
 11 12  2  0
  9 13  2  0
 10 13  1  0
 10 14  1  0
 14 15  3  0
M  END
