MAK-UNK-60abb798-10
     RDKit          3D

 22 24  0  0  0  0  0  0  0  0999 V2000
    8.5740   -4.0640   27.1260 N   0  0  0  0  0  0  0  0  0  0  0  0
    9.6810   -4.8410   26.9170 C   0  0  0  0  0  0  0  0  0  0  0  0
   10.4090   -4.7340   25.5910 C   0  0  1  0  0  0  0  0  0  0  0  0
    9.7570   -4.8670   24.5860 O   0  0  0  0  0  0  0  0  0  0  0  0
   11.3170   -3.6780   25.2790 C   0  0  0  0  0  0  0  0  0  0  0  0
    8.8580   -3.7880   24.3570 C   0  0  2  0  0  0  0  0  0  0  0  0
   10.9010   -2.6010   24.2870 C   0  0  0  0  0  0  0  0  0  0  0  0
   12.7330   -3.5360   25.8320 C   0  0  0  0  0  0  0  0  0  0  0  0
    7.5990   -4.1100   23.5970 C   0  0  2  0  0  0  0  0  0  0  0  0
    9.6570   -2.6410   23.7140 C   0  0  0  0  0  0  0  0  0  0  0  0
   13.6140   -2.3930   25.4110 C   0  0  0  0  0  0  0  0  0  0  0  0
   11.7610   -1.5910   23.9510 C   0  0  0  0  0  0  0  0  0  0  0  0
    7.4900   -5.5950   23.8900 C   0  0  0  0  0  0  0  0  0  0  0  0
    7.6650   -3.7960   22.0690 C   0  0  0  0  0  0  0  0  0  0  0  0
   13.0300   -1.4080   24.4210 C   0  0  0  0  0  0  0  0  0  0  0  0
   11.3810   -0.7570   23.1530 O   0  0  0  0  0  0  0  0  0  0  0  0
    6.5020   -6.2640   22.9780 C   0  0  0  0  0  0  0  0  0  0  0  0
    6.8100   -4.6040   21.3130 C   0  0  1  0  0  0  0  0  0  0  0  0
   13.4960   -0.4250   23.9330 O   0  0  0  0  0  0  0  0  0  0  0  0
    5.9350   -5.3880   22.0580 C   0  0  0  0  0  0  0  0  0  0  0  0
    6.2640   -3.8280   20.3170 C   0  0  0  0  0  0  0  0  0  0  0  0
    5.2090   -4.4500   19.6200 O   0  0  0  0  0  0  0  0  0  0  0  0
  1  2  1  0
  3  2  1  1
  3  4  1  0
  3  5  1  0
  4  6  1  0
  5  7  2  0
  5  8  1  0
  6  9  1  0
  6 10  1  6
  7 10  1  0
  8 11  2  0
  7 12  1  0
  9 13  1  6
  9 14  1  0
 11 15  1  0
 12 15  2  0
 12 16  1  0
 13 17  1  0
 14 18  1  0
 15 19  1  0
 17 20  1  0
 18 20  1  0
 18 21  1  6
 21 22  2  0
M  END
