MAK-UNK-849bee6c-12-vinylsulfonamide
     RDKit          3D

 27 29  0  0  0  0  0  0  0  0999 V2000
    7.9330   -3.2690   19.1340 C   0  0  0  0  0  0  0  0  0  0  0  0
    6.8170   -2.4210   18.5680 C   0  0  0  0  0  0  0  0  0  0  0  0
    5.4980   -2.3680   19.7220 S   0  0  0  0  0  0  0  0  0  0  0  0
    4.8820   -3.6670   19.6090 O   0  0  0  0  0  0  0  0  0  0  0  0
    4.7790   -1.1330   19.4890 O   0  0  0  0  0  0  0  0  0  0  0  0
    6.3180   -2.1860   21.1770 N   0  0  0  0  0  0  0  0  0  0  0  0
    7.3380   -1.1690   21.1770 C   0  0  0  0  0  0  0  0  0  0  0  0
    6.1550   -3.0800   22.3350 C   0  0  0  0  0  0  0  0  0  0  0  0
    8.6260   -1.7190   21.7470 C   0  0  0  0  0  0  0  0  0  0  0  0
    7.3610   -3.4010   22.9920 C   0  0  0  0  0  0  0  0  0  0  0  0
    8.3690   -2.3210   23.0410 N   0  0  0  0  0  0  0  0  0  0  0  0
    9.4300   -2.5230   23.9630 C   0  0  0  0  0  0  0  0  0  0  0  0
   10.5250   -1.5220   23.7470 C   0  0  0  0  0  0  0  0  0  0  0  0
   11.9340   -1.8970   23.3300 C   0  0  0  0  0  0  0  0  0  0  0  0
   10.1960   -0.1730   23.9310 C   0  0  0  0  0  0  0  0  0  0  0  0
   12.8500   -0.7610   23.1540 C   0  0  0  0  0  0  0  0  0  0  0  0
   11.1110    0.8610   23.7430 C   0  0  0  0  0  0  0  0  0  0  0  0
   12.4170    0.5450   23.3610 C   0  0  0  0  0  0  0  0  0  0  0  0
   10.6330    1.9710   23.9400 O   0  0  0  0  0  0  0  0  0  0  0  0
   11.2900    3.1010   23.5510 C   0  0  0  0  0  0  0  0  0  0  0  0
   12.5830    3.1870   22.8510 C   0  0  0  0  0  0  0  0  0  0  0  0
   10.6950    4.4940   23.8480 C   0  0  0  0  0  0  0  0  0  0  0  0
   13.1290    4.4840   22.5660 N   0  0  0  0  0  0  0  0  0  0  0  0
   11.2240    5.7210   23.5670 N   0  0  0  0  0  0  0  0  0  0  0  0
   12.4020    5.6750   22.9620 C   0  0  0  0  0  0  0  0  0  0  0  0
   13.0130    6.8450   22.6920 C   0  0  0  0  0  0  0  0  0  0  0  0
   12.8880    7.8870   23.5330 N   0  0  0  0  0  0  0  0  0  0  0  0
  1  2  1  0
  3  2  1  0
  3  4  2  0
  3  5  2  0
  3  6  1  0
  6  7  1  0
  6  8  1  0
  7  9  1  0
  8 10  1  0
  9 11  1  0
 10 11  1  0
 11 12  1  0
 12 13  1  0
 13 14  2  0
 13 15  1  0
 14 16  1  0
 15 17  2  0
 16 18  2  0
 17 18  1  0
 17 19  1  0
 19 20  1  0
 20 21  2  0
 20 22  1  0
 21 23  1  0
 22 24  2  0
 23 25  2  0
 24 25  1  0
 25 26  1  0
 26 27  3  0
M  END
