MAK-UNK-10dfa458-2-bromoalkyne
     RDKit          3D

 14 15  0  0  0  0  0  0  0  0999 V2000
    6.6710   -4.5800   20.3480 C   0  0  0  0  0  0  0  0  0  0  0  0
    6.0340   -3.4940   19.4920 C   0  0  0  0  0  0  0  0  0  0  0  0
    6.3490   -4.8360   21.6970 N   0  0  0  0  0  0  0  0  0  0  0  0
    7.1970   -4.3750   22.7920 C   0  0  0  0  0  0  0  0  0  0  0  0
    5.4200   -5.8930   22.1500 C   0  0  0  0  0  0  0  0  0  0  0  0
    6.3820   -3.9650   24.0190 C   0  0  0  0  0  0  0  0  0  0  0  0
    4.5780   -5.3790   23.1510 C   0  0  0  0  0  0  0  0  0  0  0  0
    5.3860   -4.9820   24.3540 N   0  0  0  0  0  0  0  0  0  0  0  0
    4.6380   -4.9860   25.5230 C   0  0  0  0  0  0  0  0  0  0  0  0
    3.5250   -4.0010   25.5540 C   0  0  0  0  0  0  0  0  0  0  0  0
    3.7560   -2.5200   25.8970 C   0  0  0  0  0  0  0  0  0  0  0  0
    1.8490   -4.2590   25.2420 S   0  0  0  0  0  0  0  0  0  0  0  0
    2.5670   -1.8300   25.8620 C   0  0  0  0  0  0  0  0  0  0  0  0
    1.4430   -2.5970   25.5330 C   0  0  0  0  0  0  0  0  0  0  0  0
  1  2  2  3
  1  3  1  0
  3  4  1  0
  3  5  1  0
  4  6  1  0
  5  7  1  0
  6  8  1  0
  7  8  1  0
  8  9  1  0
  9 10  1  0
 10 11  2  0
 10 12  1  0
 11 13  1  0
 12 14  1  0
 13 14  2  0
M  END
