MAK-UNK-7c9d1431-22-chloroacetamide
     RDKit          3D

 21 22  0  0  0  0  0  0  0  0999 V2000
    7.0390   -3.4930   19.8630 C   0  0  0  0  0  0  0  0  0  0  0  0
    6.4200   -4.4620   20.5330 C   0  0  0  0  0  0  0  0  0  0  0  0
    5.4360   -5.0030   20.0220 O   0  0  0  0  0  0  0  0  0  0  0  0
    6.9000   -4.8910   21.7660 N   0  0  0  0  0  0  0  0  0  0  0  0
    7.5340   -4.0160   22.7740 C   0  0  0  0  0  0  0  0  0  0  0  0
    6.3350   -6.1340   22.2990 C   0  0  0  0  0  0  0  0  0  0  0  0
    6.5840   -3.7210   23.9460 C   0  0  0  0  0  0  0  0  0  0  0  0
    5.3590   -5.8450   23.4370 C   0  0  0  0  0  0  0  0  0  0  0  0
    6.0140   -4.9820   24.4770 N   0  0  0  0  0  0  0  0  0  0  0  0
    5.3210   -5.0250   26.0180 S   0  0  0  0  0  0  0  0  0  0  0  0
    4.9010   -6.3900   26.2480 O   0  0  0  0  0  0  0  0  0  0  0  0
    6.2260   -4.3470   26.9180 O   0  0  0  0  0  0  0  0  0  0  0  0
    3.8590   -3.9790   25.8890 C   0  0  0  0  0  0  0  0  0  0  0  0
    4.1290   -2.5200   26.0600 C   0  0  0  0  0  0  0  0  0  0  0  0
    2.5740   -4.4540   25.6600 C   0  0  0  0  0  0  0  0  0  0  0  0
    3.0360   -1.6520   25.9830 C   0  0  0  0  0  0  0  0  0  0  0  0
    1.5200   -3.5340   25.5940 C   0  0  0  0  0  0  0  0  0  0  0  0
    1.7460   -2.1560   25.7590 C   0  0  0  0  0  0  0  0  0  0  0  0
    0.7760   -1.1960   25.7170 O   0  0  0  0  0  0  0  0  0  0  0  0
   -0.5710   -1.6610   25.7380 C   0  0  0  0  0  0  0  0  0  0  0  0
   -1.4760   -0.4650   25.5050 C   0  0  0  0  0  0  0  0  0  0  0  0
  1  2  1  0
  2  3  2  0
  2  4  1  0
  4  5  1  0
  4  6  1  0
  5  7  1  0
  6  8  1  0
  7  9  1  0
  8  9  1  0
  9 10  1  0
 10 11  2  0
 10 12  2  0
 10 13  1  0
 13 14  2  0
 13 15  1  0
 14 16  1  0
 15 17  2  0
 16 18  2  0
 17 18  1  0
 18 19  1  0
 19 20  1  0
 20 21  1  0
M  END
