MAK-UNK-ec98eaf6-24-bromoalkyne
     RDKit          3D

 22 25  0  0  0  0  0  0  0  0999 V2000
    6.9450   -3.5120   19.6940 C   0  0  0  0  0  0  0  0  0  0  0  0
    6.0140   -2.9540   18.6740 C   0  0  0  0  0  0  0  0  0  0  0  0
    6.5390   -3.5290   21.0060 N   0  0  0  0  0  0  0  0  0  0  0  0
    6.8270   -4.5510   22.0720 C   0  0  0  0  0  0  0  0  0  0  0  0
    5.9960   -2.3130   21.6840 C   0  0  1  0  0  0  0  0  0  0  0  0
    6.5280   -3.5890   23.2430 C   0  0  2  0  0  0  0  0  0  0  0  0
    5.2620   -2.8650   22.8910 C   0  0  0  0  0  0  0  0  0  0  0  0
    7.1040   -1.5910   22.0470 C   0  0  0  0  0  0  0  0  0  0  0  0
    7.5190   -2.4510   23.2000 N   0  0  0  0  0  0  0  0  0  0  0  0
    8.8360   -2.9740   22.8770 C   0  0  0  0  0  0  0  0  0  0  0  0
    9.8400   -2.1730   23.3540 C   0  0  0  0  0  0  0  0  0  0  0  0
    9.6780   -1.5880   24.5910 C   0  0  0  0  0  0  0  0  0  0  0  0
   11.0320   -1.9560   22.6200 C   0  0  0  0  0  0  0  0  0  0  0  0
   10.8640   -0.8230   24.9270 C   0  0  0  0  0  0  0  0  0  0  0  0
   12.1200   -1.1690   23.0380 C   0  0  0  0  0  0  0  0  0  0  0  0
   11.1570   -2.5180   21.4840 C   0  0  0  0  0  0  0  0  0  0  0  0
   11.0320   -0.2530   25.9800 O   0  0  0  0  0  0  0  0  0  0  0  0
   11.9750   -0.6310   24.1910 C   0  0  0  0  0  0  0  0  0  0  0  0
   13.2520   -0.9880   22.2960 C   0  0  0  0  0  0  0  0  0  0  0  0
   12.2680   -2.3790   20.7470 C   0  0  0  0  0  0  0  0  0  0  0  0
   12.4130   -0.3520   25.5680 C   0  0  0  0  0  0  0  0  0  0  0  0
   13.3150   -1.6280   21.1170 C   0  0  0  0  0  0  0  0  0  0  0  0
  1  2  2  3
  1  3  1  0
  3  4  1  0
  3  5  1  0
  6  4  1  6
  5  7  1  0
  6  7  1  0
  5  8  1  1
  6  9  1  0
  8  9  1  0
  9 10  1  0
 10 11  1  0
 11 12  2  0
 11 13  1  0
 12 14  1  0
 13 15  2  0
 13 16  1  0
 14 17  1  0
 14 18  2  0
 15 18  1  0
 15 19  1  0
 16 20  2  0
 17 21  1  0
 19 22  2  0
 20 22  1  0
M  END
