MAK-UNK-bdda130a-6
     RDKit          3D

 23 26  0  0  0  0  0  0  0  0999 V2000
    5.4170   -4.3370   27.1770 C   0  0  0  0  0  0  0  0  0  0  0  0
    4.8000   -4.7210   25.5560 S   0  0  0  0  0  0  0  0  0  0  0  0
    3.5440   -4.4660   24.4230 C   0  0  0  0  0  0  0  0  0  0  0  0
    3.4240   -3.7170   25.7190 C   0  0  0  0  0  0  0  0  0  0  0  0
    5.6460   -5.7140   24.5310 N   0  0  0  0  0  0  0  0  0  0  0  0
    2.0970   -4.0320   25.5420 C   0  0  0  0  0  0  0  0  0  0  0  0
    3.5830   -2.3850   26.0630 C   0  0  0  0  0  0  0  0  0  0  0  0
    4.9530   -6.2570   23.3080 C   0  0  0  0  0  0  0  0  0  0  0  0
    6.9660   -5.1470   24.1480 C   0  0  0  0  0  0  0  0  0  0  0  0
    1.2420   -2.9730   25.7390 C   0  0  0  0  0  0  0  0  0  0  0  0
    2.0870   -1.5470   26.1580 S   0  0  0  0  0  0  0  0  0  0  0  0
    5.6850   -6.1490   22.1200 C   0  0  0  0  0  0  0  0  0  0  0  0
    6.6750   -4.0860   23.1100 C   0  0  2  0  0  0  0  0  0  0  0  0
    6.2910   -4.8200   21.9250 N   0  0  0  0  0  0  0  0  0  0  0  0
    7.7430   -3.3330   22.7670 N   0  0  0  0  0  0  0  0  0  0  0  0
    5.9890   -4.1620   20.6580 C   0  0  0  0  0  0  0  0  0  0  0  0
    7.4280   -2.4120   21.7750 C   0  0  0  0  0  0  0  0  0  0  0  0
    5.3730   -4.6870   19.7330 O   0  0  0  0  0  0  0  0  0  0  0  0
    6.5710   -2.7270   20.7030 C   0  0  0  0  0  0  0  0  0  0  0  0
    7.9420   -1.1500   21.8110 C   0  0  0  0  0  0  0  0  0  0  0  0
    6.1770   -1.7700   19.5870 C   0  0  0  0  0  0  0  0  0  0  0  0
    7.7300   -0.1420   20.9360 N   0  0  0  0  0  0  0  0  0  0  0  0
    6.8480   -0.4050   19.7940 C   0  0  0  0  0  0  0  0  0  0  0  0
  1  2  2  0
  2  3  2  0
  2  4  1  0
  2  5  1  0
  4  6  1  0
  4  7  2  0
  5  8  1  0
  5  9  1  0
  6 10  2  0
  7 11  1  0
 10 11  1  0
  8 12  1  0
 13  9  1  1
 12 14  1  0
 13 14  1  0
 13 15  1  0
 14 16  1  0
 15 17  1  0
 16 18  2  0
 16 19  1  0
 17 19  2  0
 17 20  1  0
 19 21  1  0
 20 22  2  0
 21 23  2  0
 22 23  1  0
M  END
