MAK-UNK-af83ef51-23-nitrile
     RDKit          3D

 28 30  0  0  0  0  0  0  0  0999 V2000
    6.6880   -4.5020   20.4560 C   0  0  0  0  0  0  0  0  0  0  0  0
    5.9400   -3.7780   19.6880 N   0  0  0  0  0  0  0  0  0  0  0  0
    6.6590   -4.4100   21.8900 N   0  0  0  0  0  0  0  0  0  0  0  0
    6.0130   -3.2700   22.5550 C   0  0  0  0  0  0  0  0  0  0  0  0
    7.4490   -5.2160   22.8630 C   0  0  0  0  0  0  0  0  0  0  0  0
    6.4040   -3.1950   24.0410 C   0  0  0  0  0  0  0  0  0  0  0  0
    8.4830   -4.3510   23.5910 C   0  0  0  0  0  0  0  0  0  0  0  0
    7.8920   -3.1010   24.1410 N   0  0  0  0  0  0  0  0  0  0  0  0
    8.6440   -1.9290   24.4470 C   0  0  0  0  0  0  0  0  0  0  0  0
   10.1740   -2.0460   24.3210 C   0  0  2  0  0  0  0  0  0  0  0  0
   10.8770   -0.7530   24.7710 C   0  0  0  0  0  0  0  0  0  0  0  0
   10.6230   -2.6070   23.0040 C   0  0  0  0  0  0  0  0  0  0  0  0
   12.3410   -0.8700   24.3310 C   0  0  1  0  0  0  0  0  0  0  0  0
   11.2180   -1.5320   22.1020 C   0  0  2  0  0  0  0  0  0  0  0  0
   13.1600   -2.1070   24.6700 C   0  0  0  0  0  0  0  0  0  0  0  0
   12.3350   -0.7500   22.7920 C   0  0  0  0  0  0  0  0  0  0  0  0
   10.1820   -0.7980   21.4810 N   0  0  0  0  0  0  0  0  0  0  0  0
    8.8430   -0.7310   21.8420 C   0  0  0  0  0  0  0  0  0  0  0  0
    8.4410    0.5730   22.1510 C   0  0  0  0  0  0  0  0  0  0  0  0
    8.8630    1.1810   23.2850 N   0  0  0  0  0  0  0  0  0  0  0  0
   10.1750    1.4430   23.2060 C   0  0  0  0  0  0  0  0  0  0  0  0
   11.2120    2.4350   22.9840 C   0  0  0  0  0  0  0  0  0  0  0  0
    9.5990    2.6280   22.9870 N   0  0  0  0  0  0  0  0  0  0  0  0
   12.5070    2.3590   22.9640 C   0  0  0  0  0  0  0  0  0  0  0  0
   10.5110    3.8010   22.7280 C   0  0  0  0  0  0  0  0  0  0  0  0
   11.9520    3.7400   22.7000 C   0  0  0  0  0  0  0  0  0  0  0  0
   12.8070    4.9840   22.4200 C   0  0  0  0  0  0  0  0  0  0  0  0
   13.4270    5.9320   22.2000 N   0  0  0  0  0  0  0  0  0  0  0  0
  1  2  2  3
  1  3  1  0
  3  4  1  0
  3  5  1  0
  4  6  1  0
  5  7  1  0
  6  8  1  0
  7  8  1  0
  8  9  1  0
 10  9  1  6
 10 11  1  0
 10 12  1  0
 11 13  1  0
 12 14  1  0
 13 15  1  6
 13 16  1  0
 14 16  1  0
 14 17  1  1
 17 18  1  0
 18 19  1  0
 19 20  1  0
 20 21  1  0
 21 22  2  0
 21 23  1  0
 22 24  1  0
 23 25  2  0
 24 26  2  0
 25 26  1  0
 26 27  1  0
 27 28  3  0
M  END
