MAK-UNK-10dfa458-12-vinylsulfonamide
     RDKit          3D

 23 24  0  0  0  0  0  0  0  0999 V2000
    5.9900   -5.1520   20.6710 C   0  0  0  0  0  0  0  0  0  0  0  0
    6.2220   -5.3280   22.2080 C   0  0  0  0  0  0  0  0  0  0  0  0
    4.7470   -5.3780   23.2310 S   0  0  0  0  0  0  0  0  0  0  0  0
    3.5970   -5.5630   22.3910 O   0  0  0  0  0  0  0  0  0  0  0  0
    4.9860   -6.2000   24.4040 O   0  0  0  0  0  0  0  0  0  0  0  0
    4.6100   -3.7920   23.8160 N   0  0  0  0  0  0  0  0  0  0  0  0
    4.6910   -2.8810   22.7120 C   0  0  0  0  0  0  0  0  0  0  0  0
    5.4330   -3.3810   24.9370 C   0  0  2  0  0  0  0  0  0  0  0  0
    6.1230   -2.5410   22.3390 C   0  0  0  0  0  0  0  0  0  0  0  0
    6.8850   -3.6440   24.5550 C   0  0  0  0  0  0  0  0  0  0  0  0
    4.9330   -3.9030   26.1300 C   0  0  0  0  0  0  0  0  0  0  0  0
    7.1580   -3.4470   23.0470 C   0  0  2  0  0  0  0  0  0  0  0  0
    5.6470   -5.0250   26.6440 O   0  0  0  0  0  0  0  0  0  0  0  0
    3.7780   -3.2280   26.6360 O   0  0  0  0  0  0  0  0  0  0  0  0
    8.5160   -2.9160   22.8310 C   0  0  0  0  0  0  0  0  0  0  0  0
    2.9530   -2.6320   25.6260 C   0  0  0  0  0  0  0  0  0  0  0  0
    9.4630   -3.3860   23.9550 C   0  0  0  0  0  0  0  0  0  0  0  0
   10.7300   -2.8260   24.0150 C   0  0  0  0  0  0  0  0  0  0  0  0
    9.1260   -4.3440   24.9210 C   0  0  0  0  0  0  0  0  0  0  0  0
   11.6650   -3.1720   24.9830 C   0  0  0  0  0  0  0  0  0  0  0  0
   10.0280   -4.7190   25.9140 C   0  0  0  0  0  0  0  0  0  0  0  0
   11.2980   -4.1320   25.9370 C   0  0  0  0  0  0  0  0  0  0  0  0
    9.6410   -5.6650   26.8620 C   0  0  0  0  0  0  0  0  0  0  0  0
  1  2  1  0
  3  2  1  0
  3  4  2  0
  3  5  2  0
  3  6  1  0
  6  7  1  0
  6  8  1  0
  7  9  1  0
  8 10  1  0
  8 11  1  1
  9 12  1  0
 10 12  1  0
 11 13  2  0
 11 14  1  0
 12 15  1  1
 14 16  1  0
 15 17  1  0
 17 18  2  0
 17 19  1  0
 18 20  1  0
 19 21  2  0
 20 22  2  0
 21 22  1  0
 21 23  1  0
M  END
