MAK-UNK-acefcb18-22
     RDKit          3D

 24 26  0  0  0  0  0  0  0  0999 V2000
   17.1810    0.6550   15.5100 C   0  0  0  0  0  0  0  0  0  0  0  0
   16.4220    0.4700   16.7390 C   0  0  0  0  0  0  0  0  0  0  0  0
   15.8330    1.4990   17.4410 C   0  0  0  0  0  0  0  0  0  0  0  0
   16.3100   -0.7970   17.1810 C   0  0  0  0  0  0  0  0  0  0  0  0
   15.1070    1.2520   18.5810 C   0  0  0  0  0  0  0  0  0  0  0  0
   15.5920   -1.0420   18.3000 C   0  0  0  0  0  0  0  0  0  0  0  0
   14.9570   -0.0510   19.0230 C   0  0  0  0  0  0  0  0  0  0  0  0
   14.1570   -0.1630   20.1660 O   0  0  0  0  0  0  0  0  0  0  0  0
   13.5320   -1.3340   20.7780 C   0  0  0  0  0  0  0  0  0  0  0  0
   13.1370   -1.0410   22.2420 C   0  0  0  0  0  0  0  0  0  0  0  0
   13.8470   -0.4530   23.0300 O   0  0  0  0  0  0  0  0  0  0  0  0
   11.7730   -1.4480   22.6910 C   0  0  0  0  0  0  0  0  0  0  0  0
   10.9470   -2.2800   21.8030 C   0  0  0  0  0  0  0  0  0  0  0  0
   11.0960   -1.1700   23.8490 N   0  0  0  0  0  0  0  0  0  0  0  0
    9.7990   -2.4440   22.5070 N   0  0  0  0  0  0  0  0  0  0  0  0
    9.9220   -1.7750   23.7060 C   0  0  0  0  0  0  0  0  0  0  0  0
    8.8880   -1.7830   24.6100 C   0  0  0  0  0  0  0  0  0  0  0  0
    8.5550   -3.1730   24.9950 N   0  0  0  0  0  0  0  0  0  0  0  0
    9.7260   -3.8800   25.5700 C   0  0  0  0  0  0  0  0  0  0  0  0
    7.3450   -3.1890   25.8590 C   0  0  0  0  0  0  0  0  0  0  0  0
    9.3710   -5.2050   26.2610 C   0  0  0  0  0  0  0  0  0  0  0  0
    7.0860   -4.4340   26.7110 C   0  0  0  0  0  0  0  0  0  0  0  0
    8.3500   -4.9680   27.3510 C   0  0  0  0  0  0  0  0  0  0  0  0
    8.0160   -6.1580   28.0750 O   0  0  0  0  0  0  0  0  0  0  0  0
  1  2  1  0
  2  3  2  0
  2  4  1  0
  3  5  1  0
  4  6  2  0
  5  7  2  0
  6  7  1  0
  7  8  1  0
  8  9  1  0
  9 10  1  0
 10 11  2  0
 10 12  1  0
 12 13  2  0
 12 14  1  0
 13 15  1  0
 14 16  2  0
 15 16  1  0
 16 17  1  0
 17 18  1  0
 18 19  1  0
 18 20  1  0
 19 21  1  0
 20 22  1  0
 21 23  1  0
 22 23  1  0
 23 24  1  0
M  END
