MAK-UNK-194150d3-12
     RDKit          3D

 19 19  0  0  0  0  0  0  0  0999 V2000
    1.3390    2.3180   20.2930 C   0  0  0  0  0  0  0  0  0  0  0  0
    2.7690    2.2700   20.7360 C   0  0  0  0  0  0  0  0  0  0  0  0
    3.2640    3.0870   21.5030 O   0  0  0  0  0  0  0  0  0  0  0  0
    3.6770    0.9250   20.0540 S   0  0  0  0  0  0  0  0  0  0  0  0
    4.9530    1.8090   19.1050 C   0  0  0  0  0  0  0  0  0  0  0  0
    5.2930    1.0780   17.9660 C   0  0  0  0  0  0  0  0  0  0  0  0
    6.6340    0.5500   18.0540 N   0  0  0  0  0  0  0  0  0  0  0  0
    7.0580   -0.1810   19.1360 C   0  0  0  0  0  0  0  0  0  0  0  0
    7.5120   -1.2940   19.0260 O   0  0  0  0  0  0  0  0  0  0  0  0
    6.9330    0.4360   20.3700 C   0  0  0  0  0  0  0  0  0  0  0  0
    7.6290   -0.3440   21.4230 N   0  0  0  0  0  0  0  0  0  0  0  0
    8.8190    0.2250   21.7170 C   0  0  0  0  0  0  0  0  0  0  0  0
    9.1830   -0.0250   23.0320 C   0  0  0  0  0  0  0  0  0  0  0  0
   10.5850   -0.5840   23.2930 C   0  0  0  0  0  0  0  0  0  0  0  0
   11.3010   -1.4190   22.2230 C   0  0  0  0  0  0  0  0  0  0  0  0
   11.1880   -0.3270   24.5110 C   0  0  0  0  0  0  0  0  0  0  0  0
   12.7100   -1.9590   22.5600 C   0  0  0  0  0  0  0  0  0  0  0  0
   12.5590   -0.8630   24.8110 C   0  0  0  0  0  0  0  0  0  0  0  0
   13.3070   -1.6370   23.9330 C   0  0  0  0  0  0  0  0  0  0  0  0
  1  2  1  0
  2  3  2  0
  2  4  1  0
  4  5  1  0
  5  6  1  0
  6  7  1  0
  7  8  1  0
  8  9  2  0
  8 10  1  0
 10 11  1  0
 11 12  1  0
 12 13  1  0
 13 14  1  0
 14 15  2  0
 14 16  1  0
 15 17  1  0
 16 18  2  0
 17 19  2  0
 18 19  1  0
M  END
