MAK-UNK-10799360-12-nitrile
     RDKit          3D

 27 30  0  0  0  0  0  0  0  0999 V2000
    6.8260   -3.5210   19.7000 C   0  0  0  0  0  0  0  0  0  0  0  0
    5.8780   -3.1820   18.9270 N   0  0  0  0  0  0  0  0  0  0  0  0
    6.9500   -3.0350   20.9710 N   0  0  0  0  0  0  0  0  0  0  0  0
    7.1770   -1.6120   21.2990 C   0  0  0  0  0  0  0  0  0  0  0  0
    7.6450   -3.7430   22.0410 C   0  0  1  0  0  0  0  0  0  0  0  0
    8.3080   -1.6790   22.3820 C   0  0  2  0  0  0  0  0  0  0  0  0
    8.9970   -3.0070   22.0590 C   0  0  0  0  0  0  0  0  0  0  0  0
    7.0620   -3.3310   23.4040 C   0  0  0  0  0  0  0  0  0  0  0  0
    7.9300   -2.1750   23.7250 N   0  0  0  0  0  0  0  0  0  0  0  0
    9.1450   -2.4320   24.5330 C   0  0  0  0  0  0  0  0  0  0  0  0
   10.2570   -1.5050   24.0410 C   0  0  0  0  0  0  0  0  0  0  0  0
   11.3160   -1.9360   23.0480 C   0  0  0  0  0  0  0  0  0  0  0  0
   10.3000   -0.1930   24.5060 C   0  0  0  0  0  0  0  0  0  0  0  0
   12.2670   -1.0120   22.6560 C   0  0  0  0  0  0  0  0  0  0  0  0
   11.3090    0.6850   24.0680 C   0  0  0  0  0  0  0  0  0  0  0  0
    9.2300    0.2630   25.4820 C   0  0  0  0  0  0  0  0  0  0  0  0
   13.4020   -1.5340   21.5240 Cl  0  0  0  0  0  0  0  0  0  0  0  0
   12.2800    0.2850   23.1590 C   0  0  0  0  0  0  0  0  0  0  0  0
    8.4790    1.4190   25.0340 N   0  0  0  0  0  0  0  0  0  0  0  0
    7.1290    1.6560   25.2890 C   0  0  0  0  0  0  0  0  0  0  0  0
    6.3450    1.8790   24.3750 O   0  0  0  0  0  0  0  0  0  0  0  0
    6.7480    1.6270   26.6220 N   0  0  0  0  0  0  0  0  0  0  0  0
    7.0500    2.8000   27.1480 C   0  0  0  0  0  0  0  0  0  0  0  0
    5.4960    1.0040   27.0890 C   0  0  0  0  0  0  0  0  0  0  0  0
    6.7070    3.1490   28.5940 C   0  0  0  0  0  0  0  0  0  0  0  0
    4.9780    1.5880   28.2540 C   0  0  0  0  0  0  0  0  0  0  0  0
    5.3870    2.8910   28.3500 O   0  0  0  0  0  0  0  0  0  0  0  0
  1  2  2  3
  1  3  1  0
  3  4  1  0
  3  5  1  0
  6  4  1  6
  5  7  1  0
  6  7  1  0
  5  8  1  1
  6  9  1  0
  8  9  1  0
  9 10  1  0
 10 11  1  0
 11 12  2  0
 11 13  1  0
 12 14  1  0
 13 15  2  0
 13 16  1  0
 14 17  1  0
 14 18  2  0
 15 18  1  0
 16 19  1  0
 19 20  1  0
 20 21  2  0
 20 22  1  0
 22 23  1  0
 22 24  1  0
 23 25  1  0
 24 26  1  0
 25 27  1  0
 26 27  1  0
M  END
