MAK-UNK-f2409524-31
     RDKit          3D

 29 30  0  0  0  0  0  0  0  0999 V2000
    8.4140   -0.2090   15.5560 C   0  0  0  0  0  0  0  0  0  0  0  0
    7.8230   -1.3350   16.3620 C   0  0  0  0  0  0  0  0  0  0  0  0
    7.3950   -2.3260   15.8100 O   0  0  0  0  0  0  0  0  0  0  0  0
    7.7940   -1.1040   17.8000 N   0  0  0  0  0  0  0  0  0  0  0  0
    6.7540   -0.1400   18.0380 C   0  0  0  0  0  0  0  0  0  0  0  0
    6.5660    0.8470   16.9600 C   0  0  0  0  0  0  0  0  0  0  0  0
    5.9480   -0.0540   19.1270 C   0  0  0  0  0  0  0  0  0  0  0  0
    5.5250    1.8880   17.0510 N   0  0  0  0  0  0  0  0  0  0  0  0
    4.9860    0.9340   19.1700 C   0  0  0  0  0  0  0  0  0  0  0  0
    5.9310   -0.8900   20.3460 C   0  0  0  0  0  0  0  0  0  0  0  0
    4.8120    1.8270   18.1820 C   0  0  0  0  0  0  0  0  0  0  0  0
    5.0490   -0.1340   21.0290 N   0  0  0  0  0  0  0  0  0  0  0  0
    5.0370    0.0410   22.3570 C   0  0  0  0  0  0  0  0  0  0  0  0
    5.0990   -0.8910   23.1630 O   0  0  0  0  0  0  0  0  0  0  0  0
    4.9280    1.4740   22.8450 C   0  0  1  0  0  0  0  0  0  0  0  0
    5.9750    2.3480   22.6450 N   0  0  0  0  0  0  0  0  0  0  0  0
    3.8530    2.1490   22.4820 N   0  0  0  0  0  0  0  0  0  0  0  0
    7.1880    1.8490   22.5430 C   0  0  0  0  0  0  0  0  0  0  0  0
    2.7520    2.2930   23.3100 C   0  0  0  0  0  0  0  0  0  0  0  0
    7.8340    2.0540   21.3240 C   0  0  0  0  0  0  0  0  0  0  0  0
    7.9590    1.1340   23.5220 O   0  0  0  0  0  0  0  0  0  0  0  0
    2.5260    1.5740   24.2830 O   0  0  0  0  0  0  0  0  0  0  0  0
    1.9750    3.3530   22.8790 N   0  0  0  0  0  0  0  0  0  0  0  0
    0.6420    3.7770   23.3630 C   0  0  0  0  0  0  0  0  0  0  0  0
   -0.3220    2.7790   23.2720 C   0  0  0  0  0  0  0  0  0  0  0  0
    0.6690    4.4570   24.5790 C   0  0  0  0  0  0  0  0  0  0  0  0
   -1.6170    3.0850   23.7300 C   0  0  0  0  0  0  0  0  0  0  0  0
   -0.7290    4.7780   25.1220 C   0  0  0  0  0  0  0  0  0  0  0  0
   -1.8100    4.3230   24.3350 C   0  0  0  0  0  0  0  0  0  0  0  0
  1  2  1  0
  2  3  2  0
  2  4  1  0
  4  5  1  0
  5  6  2  0
  5  7  1  0
  6  8  1  0
  7  9  2  0
  7 10  1  0
  8 11  2  0
  9 11  1  0
 10 12  1  0
 12 13  1  0
 13 14  2  0
 13 15  1  0
 15 16  1  6
 15 17  1  0
 16 18  1  0
 17 19  1  0
 18 20  1  0
 18 21  2  0
 19 22  2  0
 19 23  1  0
 23 24  1  0
 24 25  1  0
 24 26  1  0
 25 27  1  0
 26 28  1  0
 27 29  1  0
 28 29  1  0
M  END
