MAK-UNK-ec98eaf6-32-nitrile
     RDKit          3D

 17 19  0  0  0  0  0  0  0  0999 V2000
    6.2300   -3.9570   19.8510 C   0  0  0  0  0  0  0  0  0  0  0  0
    5.0120   -4.0270   19.6060 N   0  0  0  0  0  0  0  0  0  0  0  0
    6.7720   -2.7410   20.0220 N   0  0  0  0  0  0  0  0  0  0  0  0
    7.4320   -2.0070   18.9240 C   0  0  0  0  0  0  0  0  0  0  0  0
    6.5860   -1.7680   21.2490 C   0  0  2  0  0  0  0  0  0  0  0  0
    7.6940   -1.1330   20.0980 C   0  0  1  0  0  0  0  0  0  0  0  0
    6.5340   -0.3470   20.6270 C   0  0  0  0  0  0  0  0  0  0  0  0
    7.8110   -1.8360   21.9690 C   0  0  0  0  0  0  0  0  0  0  0  0
    8.8060   -1.3550   21.1380 C   0  0  2  0  0  0  0  0  0  0  0  0
    9.5050   -0.1360   21.5430 N   0  0  0  0  0  0  0  0  0  0  0  0
   10.4110   -0.3410   22.5410 C   0  0  0  0  0  0  0  0  0  0  0  0
   11.4620    0.4750   22.8770 C   0  0  0  0  0  0  0  0  0  0  0  0
   10.2060   -1.4790   23.2490 C   0  0  0  0  0  0  0  0  0  0  0  0
   12.3900    0.2530   23.9130 C   0  0  0  0  0  0  0  0  0  0  0  0
   11.0180   -1.8050   24.2710 C   0  0  0  0  0  0  0  0  0  0  0  0
   12.2370   -1.0010   24.7610 C   0  0  0  0  0  0  0  0  0  0  0  0
   10.7890   -3.0420   25.0680 C   0  0  0  0  0  0  0  0  0  0  0  0
  1  2  2  3
  1  3  1  0
  3  4  1  0
  3  5  1  0
  6  4  1  1
  5  7  1  0
  6  7  1  0
  5  8  1  1
  6  9  1  0
  8  9  1  0
  9 10  1  1
 10 11  1  0
 11 12  2  0
 11 13  1  0
 12 14  1  0
 13 15  2  0
 14 16  2  0
 15 16  1  0
 15 17  1  0
M  END
