MAK-UNK-5d2caa6f-14-vinylsulfonamide
     RDKit          3D

 28 32  0  0  0  0  0  0  0  0999 V2000
    7.4930   -5.7610   20.9210 C   0  0  0  0  0  0  0  0  0  0  0  0
    6.0700   -5.9920   21.4860 C   0  0  0  0  0  0  0  0  0  0  0  0
    5.8570   -4.6210   22.5810 S   0  0  0  0  0  0  0  0  0  0  0  0
    4.6100   -3.9810   22.2630 O   0  0  0  0  0  0  0  0  0  0  0  0
    6.1390   -5.0410   23.9300 O   0  0  0  0  0  0  0  0  0  0  0  0
    7.1320   -3.6160   22.0620 N   0  0  0  0  0  0  0  0  0  0  0  0
    6.9260   -2.8440   20.9330 C   0  0  0  0  0  0  0  0  0  0  0  0
    8.0200   -2.8370   22.8090 C   0  0  1  0  0  0  0  0  0  0  0  0
    8.1930   -2.0740   20.9740 C   0  0  2  0  0  0  0  0  0  0  0  0
    9.1350   -2.8400   21.9170 C   0  0  0  0  0  0  0  0  0  0  0  0
    7.3680   -1.6510   22.9920 C   0  0  0  0  0  0  0  0  0  0  0  0
    7.7700   -0.8580   21.8740 C   0  0  1  0  0  0  0  0  0  0  0  0
    9.0030    0.0190   22.1290 C   0  0  0  0  0  0  0  0  0  0  0  0
    9.9090    0.1150   21.3110 O   0  0  0  0  0  0  0  0  0  0  0  0
    9.0080    0.6980   23.3210 N   0  0  0  0  0  0  0  0  0  0  0  0
    8.2860    1.8550   23.5620 C   0  0  0  0  0  0  0  0  0  0  0  0
    7.3250    3.0960   23.5590 C   0  0  0  0  0  0  0  0  0  0  0  0
    7.8090    1.3150   22.3240 C   0  0  0  0  0  0  0  0  0  0  0  0
    6.1460    3.7400   22.6000 C   0  0  0  0  0  0  0  0  0  0  0  0
    6.9050    2.1220   21.9310 C   0  0  0  0  0  0  0  0  0  0  0  0
    5.9510    2.9720   21.5140 C   0  0  0  0  0  0  0  0  0  0  0  0
    6.4140    1.5870   20.6730 N   0  0  0  0  0  0  0  0  0  0  0  0
    5.4760    1.7080   19.5100 C   0  0  0  0  0  0  0  0  0  0  0  0
    5.2470    2.7420   20.3200 C   0  0  0  0  0  0  0  0  0  0  0  0
    5.9560    0.6050   18.9670 C   0  0  0  0  0  0  0  0  0  0  0  0
    4.3080    3.1750   19.5350 C   0  0  0  0  0  0  0  0  0  0  0  0
    4.9720    0.9300   17.9440 C   0  0  0  0  0  0  0  0  0  0  0  0
    4.2160    2.3090   18.4280 C   0  0  0  0  0  0  0  0  0  0  0  0
  1  2  1  0
  3  2  1  0
  3  4  2  0
  3  5  2  0
  3  6  1  0
  6  7  1  0
  6  8  1  0
  9  7  1  1
  8 10  1  0
  9 10  1  0
  8 11  1  6
  9 12  1  0
 11 12  1  0
 12 13  1  1
 13 14  2  0
 13 15  1  0
 15 16  1  0
 16 17  2  0
 16 18  1  0
 17 19  1  0
 18 20  2  0
 19 21  2  0
 20 21  1  0
 20 22  1  0
 22 23  1  0
 21 24  1  0
 23 24  2  0
 23 25  1  0
 24 26  1  0
 25 27  2  0
 26 28  2  0
 27 28  1  0
M  END
