MAK-UNK-8fdbca50-15-vinylsulfonamide
     RDKit          3D

 41 44  0  0  0  0  0  0  0  0999 V2000
    7.6690   -4.8160   20.9180 C   0  0  0  0  0  0  0  0  0  0  0  0
    6.1770   -4.9820   21.1170 C   0  0  0  0  0  0  0  0  0  0  0  0
    5.6730   -3.6310   22.1330 S   0  0  0  0  0  0  0  0  0  0  0  0
    4.2790   -3.7800   22.4380 O   0  0  0  0  0  0  0  0  0  0  0  0
    6.6510   -3.4510   23.1760 O   0  0  0  0  0  0  0  0  0  0  0  0
    5.7530   -2.3310   21.0820 N   0  0  0  0  0  0  0  0  0  0  0  0
    5.3730   -2.4340   19.6580 C   0  0  0  0  0  0  0  0  0  0  0  0
    5.6450   -0.9790   21.6090 C   0  0  0  0  0  0  0  0  0  0  0  0
    6.0960   -1.3810   18.8760 C   0  0  0  0  0  0  0  0  0  0  0  0
    5.2050   -0.1330   20.5910 C   0  0  0  0  0  0  0  0  0  0  0  0
    6.0500   -0.1220   19.4680 C   0  0  0  0  0  0  0  0  0  0  0  0
    5.8160    0.9530   18.6260 C   0  0  0  0  0  0  0  0  0  0  0  0
    6.0750    0.9280   17.4200 O   0  0  0  0  0  0  0  0  0  0  0  0
    5.2250    2.1460   19.3070 N   0  0  0  0  0  0  0  0  0  0  0  0
    3.8000    2.4140   18.9360 C   0  0  0  0  0  0  0  0  0  0  0  0
    5.6340    2.5580   20.6980 C   0  0  1  0  0  0  0  0  0  0  0  0
    4.6820    2.0160   21.6390 C   0  0  0  0  0  0  0  0  0  0  0  0
    7.1020    2.2120   21.1230 C   0  0  0  0  0  0  0  0  0  0  0  0
    7.7510    1.0420   20.5280 C   0  0  0  0  0  0  0  0  0  0  0  0
    7.9950    2.9030   22.0800 C   0  0  0  0  0  0  0  0  0  0  0  0
    8.1350    1.9650   21.4210 C   0  0  0  0  0  0  0  0  0  0  0  0
    7.2640    3.9320   22.5340 C   0  0  0  0  0  0  0  0  0  0  0  0
    9.2570    2.7750   22.5830 C   0  0  0  0  0  0  0  0  0  0  0  0
    6.9240    2.9900   21.6350 C   0  0  0  0  0  0  0  0  0  0  0  0
    8.2010    4.4130   23.3660 F   0  0  0  0  0  0  0  0  0  0  0  0
   10.1000    3.8300   22.5960 C   0  0  0  0  0  0  0  0  0  0  0  0
    9.8680    1.6850   23.1440 N   0  0  0  0  0  0  0  0  0  0  0  0
   11.3000    3.5250   23.1420 C   0  0  0  0  0  0  0  0  0  0  0  0
   11.1510    2.0430   23.5200 C   0  0  0  0  0  0  0  0  0  0  0  0
    9.2020    0.1290   23.3690 S   0  0  0  0  0  0  0  0  0  0  0  0
   12.3440    4.4320   23.2840 C   0  0  0  0  0  0  0  0  0  0  0  0
    8.4990    0.1150   24.6350 O   0  0  0  0  0  0  0  0  0  0  0  0
    8.6400   -0.3080   22.1130 O   0  0  0  0  0  0  0  0  0  0  0  0
   10.7400   -0.5670   23.5170 C   0  0  0  0  0  0  0  0  0  0  0  0
   12.3700    5.2120   22.0580 N   0  0  0  0  0  0  0  0  0  0  0  0
   11.4100   -1.1160   22.4510 C   0  0  0  0  0  0  0  0  0  0  0  0
   11.2990   -0.5310   24.7510 C   0  0  0  0  0  0  0  0  0  0  0  0
   13.3930    4.7060   21.3270 C   0  0  0  0  0  0  0  0  0  0  0  0
   12.6580   -1.6410   22.5230 C   0  0  0  0  0  0  0  0  0  0  0  0
   12.5250   -1.0150   24.9890 N   0  0  0  0  0  0  0  0  0  0  0  0
   13.1920   -1.5460   23.9430 C   0  0  0  0  0  0  0  0  0  0  0  0
  1  2  1  0
  3  2  1  0
  3  4  2  0
  3  5  2  0
  3  6  1  0
  6  7  1  0
  6  8  1  0
  7  9  1  0
  8 10  1  0
  9 11  1  0
 10 11  1  0
 11 12  1  0
 12 13  2  0
 12 14  1  0
 14 15  1  0
 14 16  1  0
 16 17  1  1
 16 18  1  0
 18 19  2  0
 18 20  1  0
 19 21  1  0
 20 22  2  0
 20 23  1  0
 21 24  2  0
 22 24  1  0
 22 25  1  0
 23 26  2  0
 23 27  1  0
 26 28  1  0
 27 29  1  0
 28 29  2  0
 27 30  1  0
 28 31  1  0
 30 32  2  0
 30 33  2  0
 30 34  1  0
 31 35  1  0
 34 36  2  0
 34 37  1  0
 35 38  1  0
 36 39  1  0
 37 40  2  0
 39 41  2  0
 40 41  1  0
M  END
