MAK-UNK-a7992eb3-6-vinylsulfonamide
     RDKit          3D

 35 36  0  0  0  0  0  0  0  0999 V2000
    6.4960   -5.0840   20.4700 C   0  0  0  0  0  0  0  0  0  0  0  0
    6.7700   -5.3140   21.9700 C   0  0  0  0  0  0  0  0  0  0  0  0
    5.3170   -5.5040   22.9700 S   0  0  0  0  0  0  0  0  0  0  0  0
    4.1490   -5.5470   22.1640 O   0  0  0  0  0  0  0  0  0  0  0  0
    5.5350   -6.5160   23.9560 O   0  0  0  0  0  0  0  0  0  0  0  0
    5.2990   -4.0440   23.7740 N   0  0  0  0  0  0  0  0  0  0  0  0
    6.5540   -3.6550   24.4140 C   0  0  0  0  0  0  0  0  0  0  0  0
    4.5650   -2.9540   23.1530 C   0  0  0  0  0  0  0  0  0  0  0  0
    7.1420   -2.4100   23.7850 C   0  0  0  0  0  0  0  0  0  0  0  0
    5.3000   -2.4370   22.0880 C   0  0  0  0  0  0  0  0  0  0  0  0
    6.7390   -2.0340   22.4800 C   0  0  0  0  0  0  0  0  0  0  0  0
    7.5960   -2.3470   21.4180 C   0  0  0  0  0  0  0  0  0  0  0  0
    8.0190   -3.4750   21.2040 O   0  0  0  0  0  0  0  0  0  0  0  0
    7.9880   -1.1780   20.5790 N   0  0  0  0  0  0  0  0  0  0  0  0
    8.5200   -0.1350   21.4750 C   0  0  0  0  0  0  0  0  0  0  0  0
    7.8430    1.2000   21.4940 C   0  0  0  0  0  0  0  0  0  0  0  0
    9.6280   -0.3270   22.3160 C   0  0  0  0  0  0  0  0  0  0  0  0
    8.2790    2.2480   22.3200 C   0  0  0  0  0  0  0  0  0  0  0  0
   10.0460    0.7280   23.1220 C   0  0  0  0  0  0  0  0  0  0  0  0
   10.3630   -1.4940   22.4250 O   0  0  0  0  0  0  0  0  0  0  0  0
    9.4640    2.0180   23.2070 C   0  0  0  0  0  0  0  0  0  0  0  0
   11.7590   -1.3520   22.7640 C   0  0  1  0  0  0  0  0  0  0  0  0
   12.1920   -1.8800   23.9820 C   0  0  0  0  0  0  0  0  0  0  0  0
   12.5770   -1.9510   21.5690 C   0  0  2  0  0  0  0  0  0  0  0  0
   13.3130   -3.0800   21.8540 N   0  0  0  0  0  0  0  0  0  0  0  0
   13.5940   -0.8790   21.2000 C   0  0  0  0  0  0  0  0  0  0  0  0
   13.4960   -3.9290   20.7910 C   0  0  0  0  0  0  0  0  0  0  0  0
   13.8560   -0.0610   22.0640 O   0  0  0  0  0  0  0  0  0  0  0  0
   14.1770   -0.8630   19.9000 N   0  0  0  0  0  0  0  0  0  0  0  0
   14.5810   -4.8220   20.6550 C   0  0  0  0  0  0  0  0  0  0  0  0
   12.6430   -3.9530   19.9250 O   0  0  0  0  0  0  0  0  0  0  0  0
   14.8370    0.1320   19.2580 C   0  0  0  0  0  0  0  0  0  0  0  0
   15.0490    1.3610   19.8370 C   0  0  0  0  0  0  0  0  0  0  0  0
   15.1020    2.6250   19.3030 C   0  0  0  0  0  0  0  0  0  0  0  0
   15.1730    4.4650   18.9340 Br  0  0  0  0  0  0  0  0  0  0  0  0
  1  2  1  0
  3  2  1  0
  3  4  2  0
  3  5  2  0
  3  6  1  0
  6  7  1  0
  6  8  1  0
  7  9  1  0
  8 10  1  0
  9 11  1  0
 10 11  1  0
 11 12  1  0
 12 13  2  0
 12 14  1  0
 14 15  1  0
 15 16  2  0
 15 17  1  0
 16 18  1  0
 17 19  2  0
 17 20  1  0
 18 21  2  0
 19 21  1  0
 20 22  1  0
 22 23  1  1
 22 24  1  0
 24 25  1  1
 24 26  1  0
 25 27  1  0
 26 28  2  0
 26 29  1  0
 27 30  1  0
 27 31  2  0
 29 32  1  0
 32 33  1  0
 33 34  3  0
 34 35  1  0
M  END
