MAK-UNK-a7992eb3-4-nitrile
     RDKit          3D

 35 39  0  0  0  0  0  0  0  0999 V2000
    6.3720   -4.4620   20.3160 C   0  0  0  0  0  0  0  0  0  0  0  0
    5.2490   -4.1740   19.7940 N   0  0  0  0  0  0  0  0  0  0  0  0
    6.5090   -5.0760   21.5570 N   0  0  0  0  0  0  0  0  0  0  0  0
    5.7750   -6.3130   21.8780 C   0  0  0  0  0  0  0  0  0  0  0  0
    7.0140   -4.3230   22.7220 C   0  0  0  0  0  0  0  0  0  0  0  0
    4.6930   -6.1160   22.9540 C   0  0  0  0  0  0  0  0  0  0  0  0
    6.5650   -4.8510   23.9420 C   0  0  0  0  0  0  0  0  0  0  0  0
    5.0330   -4.9780   23.8620 C   0  0  0  0  0  0  0  0  0  0  0  0
    4.4680   -4.9680   25.1630 C   0  0  0  0  0  0  0  0  0  0  0  0
    4.3430   -5.9630   25.8730 O   0  0  0  0  0  0  0  0  0  0  0  0
    4.0460   -3.5630   25.4760 N   0  0  0  0  0  0  0  0  0  0  0  0
    2.8420   -3.3440   26.2450 C   0  0  0  0  0  0  0  0  0  0  0  0
    2.4940   -4.2500   27.2580 C   0  0  0  0  0  0  0  0  0  0  0  0
    2.0800   -2.2030   25.9010 C   0  0  0  0  0  0  0  0  0  0  0  0
    1.2100   -3.8690   27.9300 C   0  0  0  0  0  0  0  0  0  0  0  0
    0.8950   -1.9310   26.5800 C   0  0  0  0  0  0  0  0  0  0  0  0
    2.3690   -1.4080   25.0320 O   0  0  0  0  0  0  0  0  0  0  0  0
    0.4290   -2.7420   27.6030 C   0  0  0  0  0  0  0  0  0  0  0  0
    3.4510   -0.5620   25.1410 C   0  0  0  0  0  0  0  0  0  0  0  0
    4.6210   -1.0640   24.3170 C   0  0  0  0  0  0  0  0  0  0  0  0
    3.5550    0.6080   25.8680 C   0  0  0  0  0  0  0  0  0  0  0  0
    5.7820   -0.2840   24.3420 C   0  0  0  0  0  0  0  0  0  0  0  0
    4.7500    1.3140   25.8290 C   0  0  0  0  0  0  0  0  0  0  0  0
    2.5210    1.1500   26.6560 C   0  0  0  0  0  0  0  0  0  0  0  0
    5.8410    0.8860   25.0880 C   0  0  0  0  0  0  0  0  0  0  0  0
    1.6730    1.7690   25.7570 N   0  0  0  0  0  0  0  0  0  0  0  0
    0.7130    2.4220   26.3740 C   0  0  0  0  0  0  0  0  0  0  0  0
   -0.6290    2.7500   25.9380 N   0  0  0  0  0  0  0  0  0  0  0  0
    0.8860    2.9290   27.6440 N   0  0  0  0  0  0  0  0  0  0  0  0
   -1.1750    3.4250   26.9630 C   0  0  0  0  0  0  0  0  0  0  0  0
   -0.2670    3.5550   28.0350 C   0  0  0  0  0  0  0  0  0  0  0  0
   -2.4630    3.9690   27.0560 C   0  0  0  0  0  0  0  0  0  0  0  0
   -0.6490    4.2260   29.1900 C   0  0  0  0  0  0  0  0  0  0  0  0
   -2.8480    4.6450   28.2180 C   0  0  0  0  0  0  0  0  0  0  0  0
   -1.9310    4.7600   29.2650 C   0  0  0  0  0  0  0  0  0  0  0  0
  1  2  2  3
  1  3  1  0
  3  4  1  0
  3  5  1  0
  4  6  1  0
  5  7  1  0
  6  8  1  0
  7  8  1  0
  8  9  1  0
  9 10  2  0
  9 11  1  0
 11 12  1  0
 12 13  2  0
 12 14  1  0
 13 15  1  0
 14 16  2  0
 14 17  1  0
 15 18  2  0
 16 18  1  0
 17 19  1  0
 19 20  2  0
 19 21  1  0
 20 22  1  0
 21 23  2  0
 21 24  1  0
 22 25  2  0
 23 25  1  0
 24 26  1  0
 26 27  1  0
 27 28  2  0
 27 29  1  0
 28 30  1  0
 29 31  1  0
 30 31  2  0
 30 32  1  0
 31 33  1  0
 32 34  2  0
 33 35  2  0
 34 35  1  0
M  END
