MAK-UNK-e05327b2-7-chloroacetamide
     RDKit          3D

 60 67  0  0  0  0  0  0  0  0999 V2000
    7.0840   -3.5250   20.0190 C   0  0  0  0  0  0  0  0  0  0  0  0
    6.2760   -4.6670   20.6260 C   0  0  0  0  0  0  0  0  0  0  0  0
    5.3250   -5.1080   20.0030 O   0  0  0  0  0  0  0  0  0  0  0  0
    6.6030   -5.2220   21.8370 N   0  0  0  0  0  0  0  0  0  0  0  0
    5.9080   -6.4240   22.2990 C   0  0  0  0  0  0  0  0  0  0  0  0
    7.3620   -4.5420   22.8930 C   0  0  0  0  0  0  0  0  0  0  0  0
    4.9090   -5.8990   23.3720 C   0  0  0  0  0  0  0  0  0  0  0  0
    6.4540   -4.1480   24.0630 C   0  0  0  0  0  0  0  0  0  0  0  0
    5.7130   -5.3450   24.5000 N   0  0  0  0  0  0  0  0  0  0  0  0
    4.9580   -5.3190   26.0220 S   0  0  0  0  0  0  0  0  0  0  0  0
    3.9910   -6.3930   26.0640 O   0  0  0  0  0  0  0  0  0  0  0  0
    5.9980   -5.1990   27.0150 O   0  0  0  0  0  0  0  0  0  0  0  0
    4.0580   -3.7840   26.0020 C   0  0  0  0  0  0  0  0  0  0  0  0
    4.7300   -2.4140   25.8610 C   0  0  0  0  0  0  0  0  0  0  0  0
    2.3450   -3.6960   26.1270 S   0  0  0  0  0  0  0  0  0  0  0  0
    3.6430   -1.3370   25.8490 C   0  0  0  0  0  0  0  0  0  0  0  0
    2.2580   -1.9680   25.9820 C   0  0  0  0  0  0  0  0  0  0  0  0
    0.9330   -1.1690   25.9820 C   0  0  0  0  0  0  0  0  0  0  0  0
    0.9500    0.1040   25.5740 N   0  0  0  0  0  0  0  0  0  0  0  0
   -0.3240    0.5750   25.2830 C   0  0  0  0  0  0  0  0  0  0  0  0
    1.9470    0.4380   24.5270 C   0  0  0  0  0  0  0  0  0  0  0  0
   -0.7210    0.3650   23.9480 C   0  0  0  0  0  0  0  0  0  0  0  0
    1.4940    1.3810   23.3810 C   0  0  0  0  0  0  0  0  0  0  0  0
    0.0190    1.3570   23.1400 N   0  0  0  0  0  0  0  0  0  0  0  0
   -0.4380    1.6310   21.4920 S   0  0  0  0  0  0  0  0  0  0  0  0
   -0.7950    0.3420   20.9360 O   0  0  0  0  0  0  0  0  0  0  0  0
    0.5760    2.4640   20.8890 O   0  0  0  0  0  0  0  0  0  0  0  0
   -1.9150    2.6430   21.5740 C   0  0  0  0  0  0  0  0  0  0  0  0
   -2.5550    2.6630   22.8130 C   0  0  0  0  0  0  0  0  0  0  0  0
   -2.4140    3.3930   20.4280 C   0  0  0  0  0  0  0  0  0  0  0  0
   -3.7970    3.4810   22.9750 C   0  0  0  0  0  0  0  0  0  0  0  0
   -3.6050    4.1740   20.5890 C   0  0  0  0  0  0  0  0  0  0  0  0
   -1.8280    3.4380   19.1170 C   0  0  0  0  0  0  0  0  0  0  0  0
   -4.2890    4.2340   21.8010 C   0  0  0  0  0  0  0  0  0  0  0  0
   -4.1660    4.9740   19.4220 C   0  0  0  0  0  0  0  0  0  0  0  0
   -2.3610    4.1940   18.0240 C   0  0  0  0  0  0  0  0  0  0  0  0
   -3.5300    4.9620   18.1760 C   0  0  0  0  0  0  0  0  0  0  0  0
   -1.7180    4.1750   16.7850 C   0  0  0  0  0  0  0  0  0  0  0  0
   -4.0450    5.6970   17.1000 C   0  0  0  0  0  0  0  0  0  0  0  0
   -0.3240    4.1890   16.8650 C   0  0  0  0  0  0  0  0  0  0  0  0
   -4.8970    6.7640   17.5880 N   0  0  0  0  0  0  0  0  0  0  0  0
    0.1800    4.5950   15.6350 C   0  0  0  0  0  0  0  0  0  0  0  0
   -6.2180    7.0310   16.9810 C   0  0  0  0  0  0  0  0  0  0  0  0
   -4.1300    8.0180   17.7470 C   0  0  0  0  0  0  0  0  0  0  0  0
    1.6080    4.8560   15.3420 C   0  0  0  0  0  0  0  0  0  0  0  0
   -0.5290    4.8340   14.4690 C   0  0  0  0  0  0  0  0  0  0  0  0
   -6.0900    7.6230   15.7130 C   0  0  0  0  0  0  0  0  0  0  0  0
   -3.9400    8.6420   16.4920 C   0  0  0  0  0  0  0  0  0  0  0  0
    1.9270    5.2690   14.0380 C   0  0  0  0  0  0  0  0  0  0  0  0
    0.4640    5.3400   13.1470 S   0  0  0  0  0  0  0  0  0  0  0  0
   -5.2630    8.8530   15.8440 N   0  0  0  0  0  0  0  0  0  0  0  0
   -5.3130   10.0000   14.5830 S   0  0  0  0  0  0  0  0  0  0  0  0
   -6.5520    9.8100   13.8580 O   0  0  0  0  0  0  0  0  0  0  0  0
   -4.0340    9.9980   13.9000 O   0  0  0  0  0  0  0  0  0  0  0  0
   -5.3940   11.6290   15.3140 C   0  0  0  0  0  0  0  0  0  0  0  0
   -4.4750   12.3730   16.0380 C   0  0  0  0  0  0  0  0  0  0  0  0
   -6.8530   12.5490   15.1420 S   0  0  0  0  0  0  0  0  0  0  0  0
   -4.9550   13.6100   16.4190 C   0  0  0  0  0  0  0  0  0  0  0  0
   -6.2300   13.8710   16.0160 C   0  0  0  0  0  0  0  0  0  0  0  0
   -7.1660   15.2820   16.2900 Cl  0  0  0  0  0  0  0  0  0  0  0  0
  1  2  1  0
  2  3  2  0
  2  4  1  0
  4  5  1  0
  4  6  1  0
  5  7  1  0
  6  8  1  0
  7  9  1  0
  8  9  1  0
  9 10  1  0
 10 11  2  0
 10 12  2  0
 10 13  1  0
 13 14  2  0
 13 15  1  0
 14 16  1  0
 15 17  1  0
 16 17  2  0
 17 18  1  0
 18 19  1  0
 19 20  1  0
 19 21  1  0
 20 22  1  0
 21 23  1  0
 22 24  1  0
 23 24  1  0
 24 25  1  0
 25 26  2  0
 25 27  2  0
 25 28  1  0
 28 29  2  0
 28 30  1  0
 29 31  1  0
 30 32  2  0
 30 33  1  0
 31 34  2  0
 32 34  1  0
 32 35  1  0
 33 36  2  0
 35 37  2  0
 36 37  1  0
 36 38  1  0
 37 39  1  0
 38 40  1  0
 39 41  1  0
 40 42  1  0
 41 43  1  0
 41 44  1  0
 42 45  1  0
 42 46  2  0
 43 47  1  0
 44 48  1  0
 45 49  2  0
 46 50  1  0
 49 50  1  0
 47 51  1  0
 48 51  1  0
 51 52  1  0
 52 53  2  0
 52 54  2  0
 52 55  1  0
 55 56  2  0
 55 57  1  0
 56 58  1  0
 57 59  1  0
 58 59  2  0
 59 60  1  0
M  END
