MAK-UNK-8fdbca50-5-acrylamide
     RDKit          3D

 40 43  0  0  0  0  0  0  0  0999 V2000
    7.2240   -4.6540   20.2620 C   0  0  0  0  0  0  0  0  0  0  0  0
    7.2860   -4.0800   21.6590 C   0  0  0  0  0  0  0  0  0  0  0  0
    5.8940   -4.4730   22.4420 C   0  0  0  0  0  0  0  0  0  0  0  0
    4.8530   -3.9550   21.9930 O   0  0  0  0  0  0  0  0  0  0  0  0
    5.8070   -5.3820   23.5640 N   0  0  0  0  0  0  0  0  0  0  0  0
    6.5980   -6.5640   24.0120 C   0  0  0  0  0  0  0  0  0  0  0  0
    4.8160   -5.0560   24.6130 C   0  0  0  0  0  0  0  0  0  0  0  0
    6.6290   -6.6280   25.4270 C   0  0  0  0  0  0  0  0  0  0  0  0
    5.4770   -4.5380   25.8690 C   0  0  0  0  0  0  0  0  0  0  0  0
    6.8120   -5.3220   26.0300 C   0  0  0  0  0  0  0  0  0  0  0  0
    7.7790   -4.7890   25.2220 C   0  0  0  0  0  0  0  0  0  0  0  0
    7.9460   -3.5250   25.2150 O   0  0  0  0  0  0  0  0  0  0  0  0
    8.4210   -6.0100   24.5010 N   0  0  0  0  0  0  0  0  0  0  0  0
    7.5550   -6.2440   23.3700 C   0  0  0  0  0  0  0  0  0  0  0  0
    9.7110   -6.6080   24.5960 C   0  0  2  0  0  0  0  0  0  0  0  0
   10.5270   -5.4400   24.8920 C   0  0  0  0  0  0  0  0  0  0  0  0
    9.9150   -7.1830   23.1240 C   0  0  0  0  0  0  0  0  0  0  0  0
    9.5160   -8.6650   22.0240 S   0  0  2  0  0  0  0  0  0  0  0  0
   10.3440   -8.0260   20.9790 O   0  0  0  0  0  0  0  0  0  0  0  0
    9.5900   -9.3130   20.2860 C   0  0  0  0  0  0  0  0  0  0  0  0
    8.6730  -10.3750   22.0550 N   0  0  0  0  0  0  0  0  0  0  0  0
    8.8010  -10.5020   19.6890 C   0  0  0  0  0  0  0  0  0  0  0  0
    9.9520   -9.1550   19.5560 C   0  0  0  0  0  0  0  0  0  0  0  0
    7.5340  -10.7100   22.6970 C   0  0  0  0  0  0  0  0  0  0  0  0
    9.0180  -11.9310   21.4130 C   0  0  0  0  0  0  0  0  0  0  0  0
    9.0350  -10.7730   18.3870 C   0  0  0  0  0  0  0  0  0  0  0  0
   10.5870   -8.8780   18.2720 N   0  0  0  0  0  0  0  0  0  0  0  0
    7.3110  -12.0860   22.6360 C   0  0  0  0  0  0  0  0  0  0  0  0
    8.1560  -12.7940   21.8610 C   0  0  0  0  0  0  0  0  0  0  0  0
    9.8190  -12.9920   20.6180 C   0  0  0  0  0  0  0  0  0  0  0  0
    9.9180   -9.9690   17.6770 C   0  0  0  0  0  0  0  0  0  0  0  0
    6.6310  -13.0010   23.0810 C   0  0  0  0  0  0  0  0  0  0  0  0
   10.0060  -13.0890   19.2070 C   0  0  0  0  0  0  0  0  0  0  0  0
   10.4650  -14.1090   21.4940 C   0  0  0  0  0  0  0  0  0  0  0  0
    7.7750  -13.1330   23.9200 N   0  0  0  0  0  0  0  0  0  0  0  0
   10.8590  -14.3110   18.5990 C   0  0  0  0  0  0  0  0  0  0  0  0
   11.1890  -15.2010   20.9670 C   0  0  0  0  0  0  0  0  0  0  0  0
   10.3080  -14.1290   22.8520 F   0  0  0  0  0  0  0  0  0  0  0  0
    8.4090  -12.1110   23.6110 C   0  0  0  0  0  0  0  0  0  0  0  0
   11.3930  -15.4020   19.6010 C   0  0  0  0  0  0  0  0  0  0  0  0
  1  2  1  0
  2  3  1  0
  3  4  2  0
  3  5  1  0
  5  6  1  0
  5  7  1  0
  6  8  1  0
  7  9  1  0
  8 10  1  0
  9 10  1  0
 10 11  1  0
 11 12  2  0
 11 13  1  0
 13 14  1  0
 13 15  1  0
 15 16  1  6
 15 17  1  0
 17 18  2  0
 18 19  2  0
 18 20  1  6
 18 21  1  0
 20 22  2  0
 20 23  1  0
 21 24  1  0
 21 25  1  0
 22 26  1  0
 23 27  2  0
 24 28  2  0
 25 29  2  0
 28 29  1  0
 25 30  1  0
 26 31  2  0
 27 31  1  0
 28 32  1  0
 30 33  2  0
 30 34  1  0
 32 35  1  0
 33 36  1  0
 34 37  2  0
 34 38  1  0
 35 39  1  0
 36 40  2  0
 37 40  1  0
M  END
