MAK-UNK-ed378e62-15
     RDKit          3D

 16 17  0  0  0  0  0  0  0  0999 V2000
    7.9750   -3.0480   20.8060 C   0  0  0  0  0  0  0  0  0  0  0  0
    6.6180   -3.5000   20.6070 N   0  0  0  0  0  0  0  0  0  0  0  0
    5.9810   -2.3280   20.1760 C   0  0  0  0  0  0  0  0  0  0  0  0
    6.3430   -4.2190   21.8440 C   0  0  0  0  0  0  0  0  0  0  0  0
    5.8570   -1.9450   18.8280 C   0  0  0  0  0  0  0  0  0  0  0  0
    5.4970   -1.5220   21.1650 N   0  0  0  0  0  0  0  0  0  0  0  0
    5.9340   -5.5360   21.8170 C   0  0  0  0  0  0  0  0  0  0  0  0
    6.4950   -3.5720   23.0060 N   0  0  0  0  0  0  0  0  0  0  0  0
    5.2360   -0.7250   18.4890 C   0  0  0  0  0  0  0  0  0  0  0  0
    4.9010   -0.3450   20.8170 C   0  0  0  0  0  0  0  0  0  0  0  0
    5.6700   -6.1860   23.0180 C   0  0  0  0  0  0  0  0  0  0  0  0
    6.2200   -4.2330   24.1360 C   0  0  0  0  0  0  0  0  0  0  0  0
    4.7320    0.1300   19.4460 N   0  0  0  0  0  0  0  0  0  0  0  0
    5.7990   -5.5580   24.2310 N   0  0  0  0  0  0  0  0  0  0  0  0
    6.3530   -3.5070   25.3320 C   0  0  0  0  0  0  0  0  0  0  0  0
    6.4250   -2.8960   26.3180 N   0  0  0  0  0  0  0  0  0  0  0  0
  1  2  1  0
  2  3  1  0
  2  4  1  0
  3  5  2  0
  3  6  1  0
  4  7  2  0
  4  8  1  0
  5  9  1  0
  6 10  2  0
  7 11  1  0
  8 12  2  0
  9 13  2  0
 10 13  1  0
 11 14  2  0
 12 14  1  0
 12 15  1  0
 15 16  3  0
M  END
