MAK-UNK-acefcb18-4
     RDKit          3D

 21 23  0  0  0  0  0  0  0  0999 V2000
    6.1850    2.3240   24.3670 C   0  0  0  0  0  0  0  0  0  0  0  0
    7.0980    1.1560   24.6730 C   0  0  0  0  0  0  0  0  0  0  0  0
    7.0310    0.6810   26.1620 C   0  0  0  0  0  0  0  0  0  0  0  0
    7.9160    0.5770   23.6960 C   0  0  0  0  0  0  0  0  0  0  0  0
    7.9470   -0.5240   26.5470 C   0  0  0  0  0  0  0  0  0  0  0  0
    8.7420   -0.4880   24.0040 C   0  0  0  0  0  0  0  0  0  0  0  0
    8.7970   -1.0820   25.4070 C   0  0  0  0  0  0  0  0  0  0  0  0
    9.6610   -2.1140   25.4660 O   0  0  0  0  0  0  0  0  0  0  0  0
    9.2870   -3.2580   24.7200 C   0  0  2  0  0  0  0  0  0  0  0  0
    8.1070   -3.0810   24.4610 O   0  0  0  0  0  0  0  0  0  0  0  0
    9.4190   -4.7190   25.3490 C   0  0  1  0  0  0  0  0  0  0  0  0
    7.2030   -3.3150   25.4780 C   0  0  0  0  0  0  0  0  0  0  0  0
    8.6890   -4.9960   26.4980 C   0  0  2  0  0  0  0  0  0  0  0  0
    8.7190   -5.5650   24.4350 O   0  0  0  0  0  0  0  0  0  0  0  0
    7.2850   -4.7640   25.9700 C   0  0  1  0  0  0  0  0  0  0  0  0
    8.7930   -4.3510   27.5360 O   0  0  0  0  0  0  0  0  0  0  0  0
    6.3620   -5.2390   27.1030 C   0  0  0  0  0  0  0  0  0  0  0  0
    6.5560   -5.0200   28.4600 C   0  0  0  0  0  0  0  0  0  0  0  0
    5.1940   -5.9860   26.8160 C   0  0  0  0  0  0  0  0  0  0  0  0
    5.5880   -5.5710   29.2670 C   0  0  0  0  0  0  0  0  0  0  0  0
    4.3220   -6.4270   28.3410 S   0  0  0  0  0  0  0  0  0  0  0  0
  1  2  1  0
  2  3  2  0
  2  4  1  0
  3  5  1  0
  4  6  2  0
  5  7  2  0
  6  7  1  0
  7  8  1  0
  9  8  1  1
  9 10  1  0
  9 11  1  0
 10 12  1  0
 11 13  1  0
 11 14  1  6
 12 15  1  0
 13 15  1  0
 13 16  1  1
 15 17  1  1
 17 18  1  0
 17 19  2  0
 18 20  2  0
 19 21  1  0
 20 21  1  0
M  END
