MAK-UNK-5d2caa6f-19-nitrile
     RDKit          3D

 23 26  0  0  0  0  0  0  0  0999 V2000
    7.3680   -3.9310   20.1450 C   0  0  0  0  0  0  0  0  0  0  0  0
    6.1290   -4.2500   19.8850 N   0  0  0  0  0  0  0  0  0  0  0  0
    7.8900   -3.7070   21.4230 N   0  0  0  0  0  0  0  0  0  0  0  0
    7.0210   -3.2830   22.5420 C   0  0  0  0  0  0  0  0  0  0  0  0
    9.0400   -2.8860   21.7000 C   0  0  2  0  0  0  0  0  0  0  0  0
    7.9450   -2.3760   23.3620 C   0  0  1  0  0  0  0  0  0  0  0  0
    9.3380   -2.8860   23.1760 C   0  0  0  0  0  0  0  0  0  0  0  0
    8.7420   -1.4830   21.4550 C   0  0  0  0  0  0  0  0  0  0  0  0
    7.9730   -1.0460   22.5050 C   0  0  2  0  0  0  0  0  0  0  0  0
    8.6040    0.0080   23.2160 C   0  0  0  0  0  0  0  0  0  0  0  0
    9.3190   -0.6080   23.9760 O   0  0  0  0  0  0  0  0  0  0  0  0
    8.8110    1.1070   23.4610 N   0  0  0  0  0  0  0  0  0  0  0  0
    7.9760    2.1070   22.9460 C   0  0  0  0  0  0  0  0  0  0  0  0
    7.8140    3.4000   23.4870 C   0  0  0  0  0  0  0  0  0  0  0  0
    7.2840    1.6700   21.7920 C   0  0  0  0  0  0  0  0  0  0  0  0
    6.9440    4.3280   22.8970 C   0  0  0  0  0  0  0  0  0  0  0  0
    6.3860    2.4760   21.0960 C   0  0  0  0  0  0  0  0  0  0  0  0
    6.1950    3.8970   21.6780 C   0  0  0  0  0  0  0  0  0  0  0  0
    5.7520    1.9760   19.9740 C   0  0  0  0  0  0  0  0  0  0  0  0
    6.2820    0.7870   19.2090 C   0  0  0  0  0  0  0  0  0  0  0  0
    4.5910    2.4270   19.3670 N   0  0  0  0  0  0  0  0  0  0  0  0
    5.3520    0.5680   18.1040 C   0  0  0  0  0  0  0  0  0  0  0  0
    4.3300    1.6110   18.2480 N   0  0  0  0  0  0  0  0  0  0  0  0
  1  2  2  3
  1  3  1  0
  3  4  1  0
  3  5  1  0
  6  4  1  6
  5  7  1  0
  6  7  1  0
  5  8  1  1
  6  9  1  0
  8  9  1  0
  9 10  1  1
 10 11  2  0
 10 12  1  0
 12 13  1  0
 13 14  2  0
 13 15  1  0
 14 16  1  0
 15 17  2  0
 16 18  2  0
 17 18  1  0
 17 19  1  0
 19 20  1  0
 19 21  2  0
 20 22  2  0
 21 23  1  0
 22 23  1  0
M  END
