MAK-UNK-f2409524-3
     RDKit          3D

 22 23  0  0  0  0  0  0  0  0999 V2000
    7.8590   -0.9700   20.6650 C   0  0  0  0  0  0  0  0  0  0  0  0
    6.5250   -0.7670   20.8950 N   0  0  0  0  0  0  0  0  0  0  0  0
    5.9880    0.2170   21.7410 C   0  0  0  0  0  0  0  0  0  0  0  0
    5.7640   -0.8910   19.6290 C   0  0  0  0  0  0  0  0  0  0  0  0
    4.8590   -0.1760   22.7110 C   0  0  0  0  0  0  0  0  0  0  0  0
    5.0320    0.3730   19.2840 C   0  0  0  0  0  0  0  0  0  0  0  0
    4.7450    0.8220   23.8400 C   0  0  0  0  0  0  0  0  0  0  0  0
    3.9880    0.8270   20.0790 C   0  0  0  0  0  0  0  0  0  0  0  0
    5.4890    1.0330   18.1280 C   0  0  0  0  0  0  0  0  0  0  0  0
    3.9440    2.0220   23.4830 N   0  0  0  0  0  0  0  0  0  0  0  0
    3.3650    2.0780   19.6570 N   0  0  0  0  0  0  0  0  0  0  0  0
    4.9480    2.1970   17.6700 N   0  0  0  0  0  0  0  0  0  0  0  0
    2.6760    1.9400   24.0390 C   0  0  0  0  0  0  0  0  0  0  0  0
    3.9270    2.6670   18.4520 C   0  0  0  0  0  0  0  0  0  0  0  0
    2.3270    1.1010   24.8590 O   0  0  0  0  0  0  0  0  0  0  0  0
    1.7800    3.0290   23.4950 N   0  0  0  0  0  0  0  0  0  0  0  0
    0.4920    3.2500   24.1840 C   0  0  0  0  0  0  0  0  0  0  0  0
   -0.5330    2.7010   23.4020 C   0  0  0  0  0  0  0  0  0  0  0  0
    0.3690    4.6080   24.5900 C   0  0  0  0  0  0  0  0  0  0  0  0
   -1.8580    3.4020   23.5410 C   0  0  0  0  0  0  0  0  0  0  0  0
   -0.8940    5.0780   24.9920 C   0  0  0  0  0  0  0  0  0  0  0  0
   -2.0110    4.5600   24.3420 C   0  0  0  0  0  0  0  0  0  0  0  0
  1  2  1  0
  2  3  1  0
  2  4  1  0
  3  5  1  0
  4  6  1  0
  5  7  1  0
  6  8  2  0
  6  9  1  0
  7 10  1  0
  8 11  1  0
  9 12  2  0
 10 13  1  0
 11 14  2  0
 12 14  1  0
 13 15  2  0
 13 16  1  0
 16 17  1  0
 17 18  1  0
 17 19  1  0
 18 20  1  0
 19 21  1  0
 20 22  1  0
 21 22  1  0
M  END
