MAK-UNK-10dfa458-10-vinylsulfonamide
     RDKit          3D

 19 20  0  0  0  0  0  0  0  0999 V2000
    5.9610   -5.3160   21.0930 C   0  0  0  0  0  0  0  0  0  0  0  0
    6.1670   -5.3730   22.6450 C   0  0  0  0  0  0  0  0  0  0  0  0
    4.6340   -5.6550   23.4850 S   0  0  0  0  0  0  0  0  0  0  0  0
    3.5990   -5.5120   22.4460 O   0  0  0  0  0  0  0  0  0  0  0  0
    4.7280   -6.6950   24.4870 O   0  0  0  0  0  0  0  0  0  0  0  0
    4.5290   -4.2390   24.3680 N   0  0  0  0  0  0  0  0  0  0  0  0
    3.8990   -3.4430   23.3700 C   0  0  0  0  0  0  0  0  0  0  0  0
    5.7830   -3.6770   24.8600 C   0  0  0  0  0  0  0  0  0  0  0  0
    4.8170   -3.4310   22.1580 C   0  0  0  0  0  0  0  0  0  0  0  0
    6.7050   -3.3070   23.6930 C   0  0  0  0  0  0  0  0  0  0  0  0
    6.0000   -2.6130   22.5330 C   0  0  0  0  0  0  0  0  0  0  0  0
    6.8120   -2.3390   21.3420 C   0  0  0  0  0  0  0  0  0  0  0  0
    6.5510   -0.9470   20.7870 C   0  0  0  0  0  0  0  0  0  0  0  0
    6.9010    0.1320   21.5870 C   0  0  0  0  0  0  0  0  0  0  0  0
    5.9690   -0.6770   19.5350 C   0  0  0  0  0  0  0  0  0  0  0  0
    6.7020    1.4560   21.2200 C   0  0  0  0  0  0  0  0  0  0  0  0
    5.7520    0.6550   19.1280 C   0  0  0  0  0  0  0  0  0  0  0  0
    6.1140    1.7030   19.9740 C   0  0  0  0  0  0  0  0  0  0  0  0
    5.1780    0.9460   17.9020 C   0  0  0  0  0  0  0  0  0  0  0  0
  1  2  1  0
  3  2  1  0
  3  4  2  0
  3  5  2  0
  3  6  1  0
  6  7  1  0
  6  8  1  0
  7  9  1  0
  8 10  1  0
  9 11  1  0
 10 11  1  0
 11 12  1  0
 12 13  1  0
 13 14  2  0
 13 15  1  0
 14 16  1  0
 15 17  2  0
 16 18  2  0
 17 18  1  0
 17 19  1  0
M  END
