MAK-UNK-10dfa458-27
     RDKit          3D

 21 22  0  0  0  0  0  0  0  0999 V2000
    7.5820   -2.0720   20.6890 N   0  0  0  0  0  0  0  0  0  0  0  0
    7.0180   -3.0900   20.7530 C   0  0  0  0  0  0  0  0  0  0  0  0
    6.3130   -4.2380   20.7730 C   0  0  0  0  0  0  0  0  0  0  0  0
    5.4680   -4.4180   19.8830 O   0  0  0  0  0  0  0  0  0  0  0  0
    6.5610   -5.1730   21.7810 N   0  0  0  0  0  0  0  0  0  0  0  0
    5.6660   -6.2890   22.0530 C   0  0  0  0  0  0  0  0  0  0  0  0
    7.2000   -4.7010   23.0290 C   0  0  0  0  0  0  0  0  0  0  0  0
    5.1010   -5.7320   23.3320 C   0  0  0  0  0  0  0  0  0  0  0  0
    6.2850   -4.1240   23.9520 C   0  0  0  0  0  0  0  0  0  0  0  0
    5.1760   -4.9150   24.1160 N   0  0  0  0  0  0  0  0  0  0  0  0
    4.5490   -5.0890   25.6940 S   0  0  0  0  0  0  0  0  0  0  0  0
    3.7440   -6.2860   25.7370 O   0  0  0  0  0  0  0  0  0  0  0  0
    5.6560   -4.8720   26.5950 O   0  0  0  0  0  0  0  0  0  0  0  0
    3.5130   -3.7250   25.8160 C   0  0  0  0  0  0  0  0  0  0  0  0
    4.0090   -2.4350   26.3530 C   0  0  0  0  0  0  0  0  0  0  0  0
    2.1910   -3.8680   25.3930 C   0  0  0  0  0  0  0  0  0  0  0  0
    5.2630   -2.2420   26.7730 F   0  0  0  0  0  0  0  0  0  0  0  0
    2.9980   -1.2530   26.4230 C   0  0  0  0  0  0  0  0  0  0  0  0
    1.3560   -2.7640   25.4910 C   0  0  0  0  0  0  0  0  0  0  0  0
    1.6970   -5.0150   24.9000 F   0  0  0  0  0  0  0  0  0  0  0  0
    1.7030   -1.5050   25.9740 C   0  0  0  0  0  0  0  0  0  0  0  0
  1  2  3  0
  2  3  1  0
  3  4  2  0
  3  5  1  0
  5  6  1  0
  5  7  1  0
  6  8  1  0
  7  9  1  0
  8 10  1  0
  9 10  1  0
 10 11  1  0
 11 12  2  0
 11 13  2  0
 11 14  1  0
 14 15  2  0
 14 16  1  0
 15 17  1  0
 15 18  1  0
 16 19  2  0
 16 20  1  0
 18 21  2  0
 19 21  1  0
M  END
