MAK-UNK-10572812-15
     RDKit          3D

 34 38  0  0  0  0  0  0  0  0999 V2000
   13.4390   -1.7940   23.6920 C   0  0  0  0  0  0  0  0  0  0  0  0
   12.1080   -1.2320   23.7820 N   0  0  0  0  0  0  0  0  0  0  0  0
   12.1070    0.0720   23.2310 C   0  0  0  0  0  0  0  0  0  0  0  0
   11.1940   -2.1050   23.0720 C   0  0  0  0  0  0  0  0  0  0  0  0
   10.7290    0.7070   22.8940 C   0  0  0  0  0  0  0  0  0  0  0  0
    9.9530   -1.5410   22.9260 C   0  0  0  0  0  0  0  0  0  0  0  0
    9.9940   -0.2220   22.2760 N   0  0  0  0  0  0  0  0  0  0  0  0
    8.9450    0.1290   21.5430 C   0  0  0  0  0  0  0  0  0  0  0  0
    8.8030    1.3050   21.1470 O   0  0  0  0  0  0  0  0  0  0  0  0
    7.9460   -1.0140   21.2270 C   0  0  0  0  0  0  0  0  0  0  0  0
    7.0910   -0.3770   20.1510 C   0  0  0  0  0  0  0  0  0  0  0  0
    7.3720   -0.6850   18.7300 C   0  0  0  0  0  0  0  0  0  0  0  0
    5.9880    0.5160   20.2400 C   0  0  0  0  0  0  0  0  0  0  0  0
    6.4380    0.0310   17.9330 N   0  0  0  0  0  0  0  0  0  0  0  0
    5.5730    0.7750   18.8890 C   0  0  0  0  0  0  0  0  0  0  0  0
    5.2490    1.1660   21.2530 C   0  0  0  0  0  0  0  0  0  0  0  0
    4.4640    1.6370   18.4610 N   0  0  0  0  0  0  0  0  0  0  0  0
    4.1840    1.9900   20.8810 C   0  0  0  0  0  0  0  0  0  0  0  0
    5.5300    1.0300   22.6210 C   0  0  0  0  0  0  0  0  0  0  0  0
    3.7520    2.2600   19.5860 C   0  0  0  0  0  0  0  0  0  0  0  0
    5.4240   -0.0340   23.2160 O   0  0  0  0  0  0  0  0  0  0  0  0
    5.9340    2.2050   23.2340 N   0  0  0  0  0  0  0  0  0  0  0  0
    5.8510    2.3940   24.6730 C   0  0  0  0  0  0  0  0  0  0  0  0
    7.2420    2.5900   25.2500 C   0  0  0  0  0  0  0  0  0  0  0  0
    8.2590    3.5460   24.6030 C   0  0  0  0  0  0  0  0  0  0  0  0
    8.4490    3.6150   23.1020 C   0  0  0  0  0  0  0  0  0  0  0  0
    9.1220    4.4490   25.2160 C   0  0  0  0  0  0  0  0  0  0  0  0
    9.4070    4.5350   22.7980 N   0  0  0  0  0  0  0  0  0  0  0  0
    9.8800    5.0910   23.9830 C   0  0  0  0  0  0  0  0  0  0  0  0
    9.3610    4.7980   26.5630 C   0  0  0  0  0  0  0  0  0  0  0  0
   10.9270    6.1400   24.2850 C   0  0  0  0  0  0  0  0  0  0  0  0
   10.4330    5.8760   26.8600 C   0  0  0  0  0  0  0  0  0  0  0  0
   11.2030    6.5280   25.7110 C   0  0  0  0  0  0  0  0  0  0  0  0
   10.6880    6.2380   28.1250 F   0  0  0  0  0  0  0  0  0  0  0  0
  1  2  1  0
  2  3  1  0
  2  4  1  0
  3  5  1  0
  4  6  1  0
  5  7  1  0
  6  7  1  0
  7  8  1  0
  8  9  2  0
  8 10  1  0
 10 11  1  0
 11 12  2  0
 11 13  1  0
 12 14  1  0
 13 15  2  0
 14 15  1  0
 13 16  1  0
 15 17  1  0
 16 18  2  0
 16 19  1  0
 17 20  2  0
 18 20  1  0
 19 21  2  0
 19 22  1  0
 22 23  1  0
 23 24  1  0
 24 25  1  0
 25 26  2  0
 25 27  1  0
 26 28  1  0
 27 29  2  0
 28 29  1  0
 27 30  1  0
 29 31  1  0
 30 32  2  0
 31 33  2  0
 32 33  1  0
 32 34  1  0
M  END
