MAK-UNK-9955b1f3-1-acrylamide
     RDKit          3D

 39 43  0  0  0  0  0  0  0  0999 V2000
    6.9890   -4.1700   20.3070 C   0  0  0  0  0  0  0  0  0  0  0  0
    6.2820   -2.9050   19.8960 C   0  0  0  0  0  0  0  0  0  0  0  0
    5.7360   -2.5600   21.2070 C   0  0  0  0  0  0  0  0  0  0  0  0
    4.7060   -3.1130   21.5930 O   0  0  0  0  0  0  0  0  0  0  0  0
    6.5300   -1.6000   22.0120 C   0  0  0  0  0  0  0  0  0  0  0  0
    8.0560   -1.9270   22.1900 C   0  0  0  0  0  0  0  0  0  0  0  0
    6.0030   -0.4490   22.5990 C   0  0  0  0  0  0  0  0  0  0  0  0
    8.9670   -0.9410   23.0370 C   0  0  0  0  0  0  0  0  0  0  0  0
    7.4710   -0.5710   22.8900 C   0  0  0  0  0  0  0  0  0  0  0  0
    8.2260    0.2910   23.6200 C   0  0  0  0  0  0  0  0  0  0  0  0
    6.8440    0.9710   23.6960 C   0  0  0  0  0  0  0  0  0  0  0  0
    6.1660    0.6650   24.9840 N   0  0  0  0  0  0  0  0  0  0  0  0
    5.8650    1.6290   25.8860 C   0  0  0  0  0  0  0  0  0  0  0  0
    5.1390    2.6610   26.5230 C   0  0  0  0  0  0  0  0  0  0  0  0
    4.7100    1.7550   25.1390 N   0  0  0  0  0  0  0  0  0  0  0  0
    4.9230    3.6720   27.5230 C   0  0  0  0  0  0  0  0  0  0  0  0
    6.3840    2.4160   27.2580 N   0  0  0  0  0  0  0  0  0  0  0  0
    3.7630    0.6360   24.9790 C   0  0  0  0  0  0  0  0  0  0  0  0
    4.5670    2.8340   24.1400 C   0  0  0  0  0  0  0  0  0  0  0  0
    5.8800    4.6090   27.9890 C   0  0  0  0  0  0  0  0  0  0  0  0
    7.4100    3.2840   27.0810 C   0  0  0  0  0  0  0  0  0  0  0  0
    2.4940    1.0860   24.6030 C   0  0  0  0  0  0  0  0  0  0  0  0
    3.8720    2.2930   23.0540 C   0  0  0  0  0  0  0  0  0  0  0  0
    7.1590    4.5550   27.4860 C   0  0  0  0  0  0  0  0  0  0  0  0
    2.5370    1.9410   23.4500 O   0  0  0  0  0  0  0  0  0  0  0  0
    8.2260    5.5880   27.2810 C   0  0  0  0  0  0  0  0  0  0  0  0
    9.4650    5.3530   27.7880 N   0  0  0  0  0  0  0  0  0  0  0  0
    7.8930    6.8260   26.4210 C   0  0  0  0  0  0  0  0  0  0  0  0
   10.3680    6.3570   27.2680 C   0  0  0  0  0  0  0  0  0  0  0  0
    8.9820    7.1650   25.6180 C   0  0  0  0  0  0  0  0  0  0  0  0
    9.9770    6.1830   25.8400 C   0  0  1  0  0  0  0  0  0  0  0  0
   10.9980    6.1600   24.7220 C   0  0  0  0  0  0  0  0  0  0  0  0
   11.7750    7.3490   24.4820 C   0  0  0  0  0  0  0  0  0  0  0  0
   11.0020    4.9180   24.0740 C   0  0  0  0  0  0  0  0  0  0  0  0
   12.5640    6.8870   23.3620 C   0  0  0  0  0  0  0  0  0  0  0  0
   11.8320    4.5550   22.9650 N   0  0  0  0  0  0  0  0  0  0  0  0
   12.6140    5.6660   22.6700 C   0  0  0  0  0  0  0  0  0  0  0  0
   13.5000    5.5330   21.6080 C   0  0  0  0  0  0  0  0  0  0  0  0
   13.0600    4.9480   20.4260 N   0  0  0  0  0  0  0  0  0  0  0  0
  1  2  1  0
  2  3  1  0
  3  4  2  0
  3  5  1  0
  5  6  2  0
  5  7  1  0
  6  8  1  0
  7  9  2  0
  8 10  2  0
  9 10  1  0
 10 11  1  0
 11 12  1  0
 12 13  1  0
 13 14  2  3
 13 15  1  0
 14 16  1  0
 14 17  1  0
 15 18  1  0
 15 19  1  0
 16 20  2  0
 17 21  1  0
 18 22  1  0
 19 23  1  0
 20 24  1  0
 21 24  2  0
 22 25  1  0
 23 25  1  0
 24 26  1  0
 26 27  2  0
 26 28  1  0
 27 29  1  0
 28 30  1  0
 29 31  1  0
 30 31  1  0
 31 32  1  6
 32 33  2  0
 32 34  1  0
 33 35  1  0
 34 36  2  0
 35 37  2  0
 36 37  1  0
 37 38  1  0
 38 39  3  0
M  END
