MAK-UNK-3e0761f8-2-vinylsulfonamide
     RDKit          3D

 22 25  0  0  0  0  0  0  0  0999 V2000
    7.4230   -3.4990   19.3440 C   0  0  0  0  0  0  0  0  0  0  0  0
    6.1550   -3.0720   19.9290 C   0  0  0  0  0  0  0  0  0  0  0  0
    6.1350   -3.4100   21.6540 S   0  0  0  0  0  0  0  0  0  0  0  0
    4.6800   -3.2300   21.8210 O   0  0  0  0  0  0  0  0  0  0  0  0
    6.6430   -4.7190   22.0130 O   0  0  0  0  0  0  0  0  0  0  0  0
    7.3940   -2.3450   22.2260 N   0  0  0  0  0  0  0  0  0  0  0  0
    8.4000   -2.6730   23.3540 C   0  0  2  0  0  0  0  0  0  0  0  0
    7.1050   -0.8740   22.3310 C   0  0  1  0  0  0  0  0  0  0  0  0
    7.9300   -1.5270   24.2620 C   0  0  0  0  0  0  0  0  0  0  0  0
    8.2300   -0.3540   23.3010 C   0  0  1  0  0  0  0  0  0  0  0  0
    9.8540   -2.0760   23.2050 C   0  0  0  0  0  0  0  0  0  0  0  0
    6.9540   -0.1220   21.1700 C   0  0  0  0  0  0  0  0  0  0  0  0
    9.6910   -0.7590   23.1250 C   0  0  0  0  0  0  0  0  0  0  0  0
   11.1820   -2.5180   23.1390 C   0  0  0  0  0  0  0  0  0  0  0  0
    7.6400    0.9230   20.7500 N   0  0  0  0  0  0  0  0  0  0  0  0
    5.8850   -0.4850   20.2590 O   0  0  0  0  0  0  0  0  0  0  0  0
   10.7790    0.3320   22.9160 C   0  0  0  0  0  0  0  0  0  0  0  0
   12.3160   -1.6790   22.9540 C   0  0  0  0  0  0  0  0  0  0  0  0
    7.0860    1.3190   19.5530 N   0  0  0  0  0  0  0  0  0  0  0  0
    6.0590    0.4680   19.2970 C   0  0  0  0  0  0  0  0  0  0  0  0
   12.1930   -0.3150   22.8250 C   0  0  0  0  0  0  0  0  0  0  0  0
    5.1430    0.5360   18.0460 C   0  0  0  0  0  0  0  0  0  0  0  0
  1  2  1  0
  3  2  1  0
  3  4  2  0
  3  5  2  0
  3  6  1  0
  7  6  1  6
  6  8  1  0
  7  9  1  0
  8 10  1  0
  9 10  1  0
  7 11  1  0
  8 12  1  6
 10 13  1  6
 11 13  2  0
 11 14  1  0
 12 15  2  0
 12 16  1  0
 13 17  1  0
 14 18  2  0
 15 19  1  0
 16 20  1  0
 19 20  2  0
 17 21  2  0
 18 21  1  0
 20 22  1  0
M  END
