MAK-UNK-849bee6c-26-acrylamide
     RDKit          3D

 32 34  0  0  0  0  0  0  0  0999 V2000
    7.8130   -3.0820   19.1590 C   0  0  0  0  0  0  0  0  0  0  0  0
    6.5490   -2.2740   18.9300 C   0  0  0  0  0  0  0  0  0  0  0  0
    5.4670   -2.7180   19.8530 C   0  0  0  0  0  0  0  0  0  0  0  0
    4.7660   -3.6400   19.4660 O   0  0  0  0  0  0  0  0  0  0  0  0
    5.3580   -2.0780   21.0950 N   0  0  0  0  0  0  0  0  0  0  0  0
    4.9530   -2.8370   22.2640 C   0  0  0  0  0  0  0  0  0  0  0  0
    6.3340   -1.0380   21.4120 C   0  0  0  0  0  0  0  0  0  0  0  0
    6.1280   -3.4560   22.9940 C   0  0  0  0  0  0  0  0  0  0  0  0
    7.5320   -1.6220   22.1570 C   0  0  0  0  0  0  0  0  0  0  0  0
    7.1540   -2.4690   23.3120 N   0  0  0  0  0  0  0  0  0  0  0  0
    8.2610   -2.8100   24.0700 C   0  0  0  0  0  0  0  0  0  0  0  0
    9.3610   -1.7630   24.1040 C   0  0  0  0  0  0  0  0  0  0  0  0
    8.9820   -0.3800   24.3820 C   0  0  0  0  0  0  0  0  0  0  0  0
   10.7310   -2.0460   23.8730 C   0  0  0  0  0  0  0  0  0  0  0  0
    9.8890    0.6510   24.4380 C   0  0  0  0  0  0  0  0  0  0  0  0
   11.7230   -1.0530   23.9140 C   0  0  0  0  0  0  0  0  0  0  0  0
    9.5610    1.9740   24.6730 C   0  0  0  0  0  0  0  0  0  0  0  0
   11.3840    0.2590   24.1990 C   0  0  0  0  0  0  0  0  0  0  0  0
   13.1630   -1.1960   23.6600 N   0  0  0  0  0  0  0  0  0  0  0  0
   13.6360   -0.6960   22.3260 C   0  0  0  0  0  0  0  0  0  0  0  0
   14.1720    0.7180   22.1370 N   0  0  0  0  0  0  0  0  0  0  0  0
   13.5810   -1.6350   21.1130 C   0  0  0  0  0  0  0  0  0  0  0  0
   14.5280    1.2370   20.8240 C   0  0  0  0  0  0  0  0  0  0  0  0
   14.1250   -0.7550   19.9510 C   0  0  0  0  0  0  0  0  0  0  0  0
   13.1540   -3.0510   21.1060 N   0  0  0  0  0  0  0  0  0  0  0  0
   14.9040    2.5480   20.3760 C   0  0  0  0  0  0  0  0  0  0  0  0
   14.5300    0.4880   19.8070 N   0  0  0  0  0  0  0  0  0  0  0  0
   14.0600   -3.9410   20.4890 C   0  0  0  0  0  0  0  0  0  0  0  0
   15.1580    3.7360   19.7340 N   0  0  0  0  0  0  0  0  0  0  0  0
   14.6910   -3.4910   19.6820 O   0  0  0  0  0  0  0  0  0  0  0  0
   14.7450   -5.2610   20.7820 C   0  0  0  0  0  0  0  0  0  0  0  0
   16.0660   -5.3980   19.7550 Cl  0  0  0  0  0  0  0  0  0  0  0  0
  1  2  1  0
  2  3  1  0
  3  4  2  0
  3  5  1  0
  5  6  1  0
  5  7  1  0
  6  8  1  0
  7  9  1  0
  8 10  1  0
  9 10  1  0
 10 11  1  0
 11 12  1  0
 12 13  2  0
 12 14  1  0
 13 15  1  0
 14 16  2  0
 15 17  1  0
 15 18  2  0
 16 18  1  0
 16 19  1  0
 19 20  1  0
 20 21  2  0
 20 22  1  0
 21 23  1  0
 22 24  2  0
 22 25  1  0
 23 26  1  0
 23 27  2  0
 24 27  1  0
 25 28  1  0
 26 29  3  0
 28 30  2  0
 28 31  1  0
 31 32  1  0
M  END
