MAK-UNK-ec98eaf6-57-bromoalkyne
     RDKit          3D

 23 26  0  0  0  0  0  0  0  0999 V2000
    6.7190   -4.1070   20.1810 C   0  0  0  0  0  0  0  0  0  0  0  0
    6.0030   -3.2290   19.1530 C   0  0  0  0  0  0  0  0  0  0  0  0
    6.3880   -4.0280   21.5360 N   0  0  0  0  0  0  0  0  0  0  0  0
    5.9200   -2.7270   21.9950 C   0  0  0  0  0  0  0  0  0  0  0  0
    7.3950   -4.2770   22.6360 C   0  0  1  0  0  0  0  0  0  0  0  0
    7.0640   -2.1760   22.8210 C   0  0  2  0  0  0  0  0  0  0  0  0
    8.2700   -3.0420   22.4180 C   0  0  0  0  0  0  0  0  0  0  0  0
    6.7910   -3.9770   24.0120 C   0  0  0  0  0  0  0  0  0  0  0  0
    6.7850   -2.5870   24.2340 N   0  0  0  0  0  0  0  0  0  0  0  0
    7.6160   -1.9020   25.2540 C   0  0  0  0  0  0  0  0  0  0  0  0
    9.0550   -1.5910   24.8590 C   0  0  0  0  0  0  0  0  0  0  0  0
    9.5070   -0.5080   24.1010 C   0  0  0  0  0  0  0  0  0  0  0  0
   10.1350   -2.3540   25.2050 N   0  0  0  0  0  0  0  0  0  0  0  0
   10.8710   -0.6620   24.0010 N   0  0  0  0  0  0  0  0  0  0  0  0
   11.2230   -1.7880   24.6840 N   0  0  0  0  0  0  0  0  0  0  0  0
   11.8140    0.0810   23.3560 C   0  0  0  0  0  0  0  0  0  0  0  0
   12.5870   -0.4790   22.4190 C   0  0  0  0  0  0  0  0  0  0  0  0
   12.0810    1.4500   23.5590 C   0  0  0  0  0  0  0  0  0  0  0  0
   13.6190    0.2290   21.6740 C   0  0  0  0  0  0  0  0  0  0  0  0
   13.1030    2.1800   22.8460 C   0  0  0  0  0  0  0  0  0  0  0  0
   14.0140    1.6820   21.8300 C   0  0  0  0  0  0  0  0  0  0  0  0
   15.0250    2.5860   21.2060 O   0  0  0  0  0  0  0  0  0  0  0  0
   15.6600    2.8820   19.8050 C   0  0  0  0  0  0  0  0  0  0  0  0
  1  2  2  3
  1  3  1  0
  3  4  1  0
  3  5  1  0
  6  4  1  6
  5  7  1  0
  6  7  1  0
  5  8  1  1
  6  9  1  0
  8  9  1  0
  9 10  1  0
 10 11  1  0
 11 12  2  0
 11 13  1  0
 12 14  1  0
 13 15  2  0
 14 15  1  0
 14 16  1  0
 16 17  2  0
 16 18  1  0
 17 19  1  0
 18 20  2  0
 19 21  2  0
 20 21  1  0
 21 22  1  0
 22 23  1  0
M  END
