MAK-UNK-6ca90168-25
     RDKit          3D

 23 25  0  0  0  0  0  0  0  0999 V2000
   10.6990    3.5690   23.7780 N   0  0  0  0  0  0  0  0  0  0  0  0
   11.0050    2.4500   23.7540 C   0  0  0  0  0  0  0  0  0  0  0  0
   11.3670    1.0720   23.6460 C   0  0  0  0  0  0  0  0  0  0  0  0
   12.7890    0.7090   23.1410 C   0  0  0  0  0  0  0  0  0  0  0  0
   10.4300    0.1400   23.9820 C   0  0  0  0  0  0  0  0  0  0  0  0
   13.0810   -0.8350   23.0370 C   0  0  0  0  0  0  0  0  0  0  0  0
   10.6690   -1.2070   23.8910 C   0  0  0  0  0  0  0  0  0  0  0  0
   11.9570   -1.8370   23.4350 C   0  0  0  0  0  0  0  0  0  0  0  0
    9.5910   -1.9720   24.2340 N   0  0  0  0  0  0  0  0  0  0  0  0
    8.7400   -2.1790   23.2220 C   0  0  0  0  0  0  0  0  0  0  0  0
    8.9540   -1.9080   22.0550 O   0  0  0  0  0  0  0  0  0  0  0  0
    7.4120   -2.8100   23.5670 C   0  0  0  0  0  0  0  0  0  0  0  0
    6.9780   -2.8160   24.7180 O   0  0  0  0  0  0  0  0  0  0  0  0
    6.6840   -3.4020   22.4020 C   0  0  0  0  0  0  0  0  0  0  0  0
    6.1490   -4.8230   22.3850 C   0  0  0  0  0  0  0  0  0  0  0  0
    6.5420   -2.5650   21.2830 C   0  0  0  0  0  0  0  0  0  0  0  0
    5.5310   -5.3090   21.2780 N   0  0  0  0  0  0  0  0  0  0  0  0
    5.9110   -3.1270   20.2010 C   0  0  0  0  0  0  0  0  0  0  0  0
    7.0510   -1.1270   21.2240 C   0  0  0  0  0  0  0  0  0  0  0  0
    5.4700   -4.4420   20.2910 C   0  0  0  0  0  0  0  0  0  0  0  0
    5.6850   -2.4100   18.9410 C   0  0  0  0  0  0  0  0  0  0  0  0
    6.8530   -0.3060   19.9490 C   0  0  0  0  0  0  0  0  0  0  0  0
    6.1530   -0.9660   18.7800 C   0  0  0  0  0  0  0  0  0  0  0  0
  1  2  3  0
  2  3  1  0
  3  4  2  0
  3  5  1  0
  4  6  1  0
  5  7  2  0
  6  8  2  0
  7  8  1  0
  7  9  1  0
  9 10  1  0
 10 11  2  0
 10 12  1  0
 12 13  2  0
 12 14  1  0
 14 15  2  0
 14 16  1  0
 15 17  1  0
 16 18  2  0
 16 19  1  0
 17 20  2  0
 18 20  1  0
 18 21  1  0
 19 22  2  0
 21 23  2  0
 22 23  1  0
M  END
