MAK-UNK-bae89c02-4-bromoalkyne
     RDKit          3D

 22 24  0  0  0  0  0  0  0  0999 V2000
    6.7240   -3.7440   19.8420 C   0  0  0  0  0  0  0  0  0  0  0  0
    6.4790   -2.8340   18.6540 C   0  0  0  0  0  0  0  0  0  0  0  0
    6.6900   -3.0960   21.0680 N   0  0  0  0  0  0  0  0  0  0  0  0
    7.4430   -1.8560   21.1930 C   0  0  0  0  0  0  0  0  0  0  0  0
    6.6050   -3.6020   22.4860 C   0  0  2  0  0  0  0  0  0  0  0  0
    7.7180   -1.7530   22.6510 C   0  0  1  0  0  0  0  0  0  0  0  0
    6.4130   -2.2950   23.2670 C   0  0  0  0  0  0  0  0  0  0  0  0
    7.9970   -3.9480   22.9690 C   0  0  0  0  0  0  0  0  0  0  0  0
    8.7660   -2.7840   22.9620 N   0  0  0  0  0  0  0  0  0  0  0  0
    9.6630   -2.4360   24.0550 C   0  0  0  0  0  0  0  0  0  0  0  0
   10.7520   -1.4440   23.7290 C   0  0  0  0  0  0  0  0  0  0  0  0
   11.8390   -1.8520   22.9180 C   0  0  0  0  0  0  0  0  0  0  0  0
   10.6680   -0.1270   24.2350 C   0  0  0  0  0  0  0  0  0  0  0  0
   12.8600   -0.9600   22.5990 C   0  0  0  0  0  0  0  0  0  0  0  0
   11.7120    0.7440   23.8990 C   0  0  0  0  0  0  0  0  0  0  0  0
    9.6180    0.2450   24.9950 C   0  0  0  0  0  0  0  0  0  0  0  0
   12.7660    0.3180   23.1040 C   0  0  0  0  0  0  0  0  0  0  0  0
    9.1770    1.5760   24.3790 C   0  0  0  0  0  0  0  0  0  0  0  0
    7.5640    2.0830   24.9820 S   0  0  0  0  0  0  0  0  0  0  0  0
    7.7290    3.7510   24.9990 N   0  0  0  0  0  0  0  0  0  0  0  0
    6.5460    1.8410   23.9830 O   0  0  0  0  0  0  0  0  0  0  0  0
    7.3530    1.6960   26.3630 O   0  0  0  0  0  0  0  0  0  0  0  0
  1  2  2  3
  1  3  1  0
  3  4  1  0
  3  5  1  0
  6  4  1  6
  5  7  1  0
  6  7  1  0
  5  8  1  1
  6  9  1  0
  8  9  1  0
  9 10  1  0
 10 11  1  0
 11 12  2  0
 11 13  1  0
 12 14  1  0
 13 15  2  0
 13 16  1  0
 14 17  2  0
 15 17  1  0
 16 18  1  0
 18 19  1  0
 19 20  1  0
 19 21  2  0
 19 22  2  0
M  END
