MAK-UNK-5d2caa6f-3-acrylamide
     RDKit          3D

 23 25  0  0  0  0  0  0  0  0999 V2000
    7.7690   -2.8790   18.2230 C   0  0  0  0  0  0  0  0  0  0  0  0
    6.3680   -2.7630   18.8250 C   0  0  0  0  0  0  0  0  0  0  0  0
    5.9760   -3.3750   20.1240 C   0  0  0  0  0  0  0  0  0  0  0  0
    5.2650   -4.3960   20.1160 O   0  0  0  0  0  0  0  0  0  0  0  0
    6.4090   -2.7190   21.2590 N   0  0  0  0  0  0  0  0  0  0  0  0
    6.0290   -3.0530   22.6190 C   0  0  0  0  0  0  0  0  0  0  0  0
    7.8110   -2.3120   21.3910 C   0  0  2  0  0  0  0  0  0  0  0  0
    7.4070   -3.3770   23.2770 C   0  0  1  0  0  0  0  0  0  0  0  0
    8.2780   -3.6170   22.0440 C   0  0  0  0  0  0  0  0  0  0  0  0
    8.0640   -1.3110   22.5450 C   0  0  0  0  0  0  0  0  0  0  0  0
    8.2140   -2.2310   23.6920 N   0  0  0  0  0  0  0  0  0  0  0  0
    9.5220   -2.4600   24.3390 C   0  0  2  0  0  0  0  0  0  0  0  0
   10.6740   -1.5420   23.8810 C   0  0  0  0  0  0  0  0  0  0  0  0
    9.9630   -3.9720   24.4820 C   0  0  0  0  0  0  0  0  0  0  0  0
   10.8240   -0.2510   24.4060 C   0  0  0  0  0  0  0  0  0  0  0  0
   11.6270   -1.9620   22.9170 C   0  0  0  0  0  0  0  0  0  0  0  0
   10.5360   -4.2680   25.8780 C   0  0  0  0  0  0  0  0  0  0  0  0
    8.8700   -5.0510   24.2610 C   0  0  0  0  0  0  0  0  0  0  0  0
   11.8670    0.5790   23.9920 C   0  0  0  0  0  0  0  0  0  0  0  0
   12.6770   -1.1190   22.5080 C   0  0  0  0  0  0  0  0  0  0  0  0
    9.5250   -4.1270   26.8720 O   0  0  0  0  0  0  0  0  0  0  0  0
    7.9000   -5.0350   25.3160 O   0  0  0  0  0  0  0  0  0  0  0  0
   12.7890    0.1530   23.0540 C   0  0  0  0  0  0  0  0  0  0  0  0
  1  2  1  0
  2  3  1  0
  3  4  2  0
  3  5  1  0
  5  6  1  0
  5  7  1  0
  8  6  1  6
  7  9  1  0
  8  9  1  0
  7 10  1  1
  8 11  1  0
 10 11  1  0
 11 12  1  0
 12 13  1  0
 12 14  1  6
 13 15  2  0
 13 16  1  0
 14 17  1  0
 14 18  1  0
 15 19  1  0
 16 20  2  0
 17 21  1  0
 18 22  1  0
 19 23  2  0
 20 23  1  0
M  END
