MAK-UNK-ec98eaf6-27-vinylsulfonamide
     RDKit          3D

 30 34  0  0  0  0  0  0  0  0999 V2000
    7.2670   -4.7330   21.4020 C   0  0  0  0  0  0  0  0  0  0  0  0
    6.0900   -3.9030   21.0410 C   0  0  0  0  0  0  0  0  0  0  0  0
    5.2960   -3.9020   22.6190 S   0  0  0  0  0  0  0  0  0  0  0  0
    3.9740   -3.4030   22.4350 O   0  0  0  0  0  0  0  0  0  0  0  0
    5.4840   -5.2360   23.1460 O   0  0  0  0  0  0  0  0  0  0  0  0
    6.1810   -2.8830   23.5980 N   0  0  0  0  0  0  0  0  0  0  0  0
    5.5270   -1.7830   24.4360 C   0  0  0  0  0  0  0  0  0  0  0  0
    7.0180   -1.8240   23.2460 C   0  0  1  0  0  0  0  0  0  0  0  0
    6.6560   -0.5790   24.3090 C   0  0  2  0  0  0  0  0  0  0  0  0
    7.2070   -1.8820   24.5770 C   0  0  0  0  0  0  0  0  0  0  0  0
    8.2860   -1.8180   22.9570 C   0  0  0  0  0  0  0  0  0  0  0  0
    6.2180    0.2650   23.1150 C   0  0  0  0  0  0  0  0  0  0  0  0
    9.7410   -0.9790   23.2870 C   0  0  0  0  0  0  0  0  0  0  0  0
    8.2140   -0.7970   23.7820 C   0  0  0  0  0  0  0  0  0  0  0  0
    5.1890   -0.6420   22.8860 C   0  0  0  0  0  0  0  0  0  0  0  0
    5.5160    0.6360   22.0720 C   0  0  0  0  0  0  0  0  0  0  0  0
   11.2850   -0.9210   22.9740 C   0  0  0  0  0  0  0  0  0  0  0  0
    9.2150   -1.5410   22.9580 C   0  0  0  0  0  0  0  0  0  0  0  0
    4.6150    0.0530   21.6720 C   0  0  0  0  0  0  0  0  0  0  0  0
    5.8230    1.7220   21.4170 C   0  0  0  0  0  0  0  0  0  0  0  0
   10.4980   -1.7840   22.4680 C   0  0  0  0  0  0  0  0  0  0  0  0
    4.8050    1.2430   20.7910 C   0  0  0  0  0  0  0  0  0  0  0  0
    6.9150    1.9850   22.3180 C   0  0  0  0  0  0  0  0  0  0  0  0
    6.9690    3.4270   21.9480 C   0  0  0  0  0  0  0  0  0  0  0  0
    5.3670    2.4570   20.2650 C   0  0  0  0  0  0  0  0  0  0  0  0
    5.5890    3.5660   21.1890 C   0  0  1  0  0  0  0  0  0  0  0  0
    4.1780    3.9810   22.2150 S   0  0  0  0  0  0  0  0  0  0  0  0
    3.7300    5.4780   21.5600 N   0  0  0  0  0  0  0  0  0  0  0  0
    4.6370    4.2890   23.5520 O   0  0  0  0  0  0  0  0  0  0  0  0
    3.0950    3.0650   21.9620 O   0  0  0  0  0  0  0  0  0  0  0  0
  1  2  1  0
  3  2  1  0
  3  4  2  0
  3  5  2  0
  3  6  1  0
  6  7  1  0
  8  6  1  6
  7  9  1  0
  8 10  1  0
  9 10  1  0
  8 11  1  0
  9 12  1  6
 11 13  2  0
  9 14  1  0
 11 14  1  0
 12 15  2  0
 12 16  1  0
 13 17  1  0
 14 18  2  0
 15 19  1  0
 16 20  2  0
 17 21  2  0
 18 21  1  0
 19 22  2  0
 20 22  1  0
 20 23  1  0
 23 24  1  0
 22 25  1  0
 24 26  1  0
 25 26  1  0
 26 27  1  1
 27 28  1  0
 27 29  2  0
 27 30  2  0
M  END
