MAK-UNK-8fdbca50-23-nitrile
     RDKit          3D

 38 41  0  0  0  0  0  0  0  0999 V2000
    6.4420   -4.7810   20.3030 C   0  0  0  0  0  0  0  0  0  0  0  0
    5.8340   -5.8420   19.9350 N   0  0  0  0  0  0  0  0  0  0  0  0
    6.1340   -4.0540   21.4160 N   0  0  0  0  0  0  0  0  0  0  0  0
    6.9710   -4.0100   22.6260 C   0  0  0  0  0  0  0  0  0  0  0  0
    5.1750   -2.9770   21.2920 C   0  0  0  0  0  0  0  0  0  0  0  0
    6.4730   -2.8970   23.5660 C   0  0  0  0  0  0  0  0  0  0  0  0
    5.8190   -1.7640   21.4320 C   0  0  0  0  0  0  0  0  0  0  0  0
    6.3260   -1.5630   22.8570 C   0  0  0  0  0  0  0  0  0  0  0  0
    7.4660   -0.7520   22.7530 C   0  0  0  0  0  0  0  0  0  0  0  0
    7.7890   -0.1700   21.7240 O   0  0  0  0  0  0  0  0  0  0  0  0
    8.1890   -0.7060   24.0590 N   0  0  0  0  0  0  0  0  0  0  0  0
    9.5430   -1.2650   24.1200 C   0  0  0  0  0  0  0  0  0  0  0  0
    7.6090   -0.3730   25.3740 C   0  0  0  0  0  0  0  0  0  0  0  0
    9.6610   -2.6450   24.0070 C   0  0  0  0  0  0  0  0  0  0  0  0
   10.6320   -0.4810   24.2980 N   0  0  0  0  0  0  0  0  0  0  0  0
    6.6090    0.5860   25.2680 C   0  0  0  0  0  0  0  0  0  0  0  0
    8.7050    0.1850   26.2790 C   0  0  0  0  0  0  0  0  0  0  0  0
   11.0280   -3.2580   24.1160 C   0  0  0  0  0  0  0  0  0  0  0  0
   11.8620   -1.0580   24.3850 C   0  0  0  0  0  0  0  0  0  0  0  0
   12.1550   -2.4400   24.3080 C   0  0  0  0  0  0  0  0  0  0  0  0
   13.9000   -2.7290   24.4560 S   0  0  0  0  0  0  0  0  0  0  0  0
   13.9940   -1.9830   25.6680 O   0  0  0  0  0  0  0  0  0  0  0  0
   14.1190   -2.2460   23.1250 O   0  0  0  0  0  0  0  0  0  0  0  0
   15.0180   -4.0000   24.9260 N   0  0  0  0  0  0  0  0  0  0  0  0
   14.7450   -4.8540   25.9050 C   0  0  0  0  0  0  0  0  0  0  0  0
   16.4700   -4.4650   24.4400 C   0  0  0  0  0  0  0  0  0  0  0  0
   15.8360   -5.8310   26.1010 C   0  0  0  0  0  0  0  0  0  0  0  0
   16.8110   -5.5200   25.2070 C   0  0  0  0  0  0  0  0  0  0  0  0
   17.5420   -4.1630   23.4590 C   0  0  0  0  0  0  0  0  0  0  0  0
   15.9500   -6.8230   26.9430 C   0  0  0  0  0  0  0  0  0  0  0  0
   18.6680   -3.2100   23.4730 C   0  0  0  0  0  0  0  0  0  0  0  0
   17.3570   -4.9380   22.3930 C   0  0  0  0  0  0  0  0  0  0  0  0
   17.1720   -7.1380   26.5810 N   0  0  0  0  0  0  0  0  0  0  0  0
   19.6290   -3.1070   22.3430 C   0  0  0  0  0  0  0  0  0  0  0  0
   18.2140   -4.9660   21.2660 C   0  0  0  0  0  0  0  0  0  0  0  0
   16.2750   -5.6510   22.5250 F   0  0  0  0  0  0  0  0  0  0  0  0
   16.9430   -7.8490   25.5040 C   0  0  0  0  0  0  0  0  0  0  0  0
   19.4820   -3.9780   21.2100 C   0  0  0  0  0  0  0  0  0  0  0  0
  1  2  2  3
  1  3  1  0
  3  4  1  0
  3  5  1  0
  4  6  1  0
  5  7  1  0
  6  8  1  0
  7  8  1  0
  8  9  1  0
  9 10  2  0
  9 11  1  0
 11 12  1  0
 11 13  1  0
 12 14  2  0
 12 15  1  0
 13 16  1  0
 13 17  1  0
 14 18  1  0
 15 19  2  0
 18 20  2  0
 19 20  1  0
 21 20  1  0
 21 22  2  0
 21 23  2  0
 21 24  1  0
 24 25  1  0
 24 26  1  0
 25 27  2  0
 26 28  2  0
 27 28  1  0
 26 29  1  0
 27 30  1  0
 29 31  2  0
 29 32  1  0
 30 33  1  0
 31 34  1  0
 32 35  2  0
 32 36  1  0
 33 37  1  0
 34 38  2  0
 35 38  1  0
M  END
