MAK-UNK-8fdbca50-27-acrylamide
     RDKit          3D

 40 43  0  0  0  0  0  0  0  0999 V2000
    6.9050   -3.3120   19.4540 C   0  0  0  0  0  0  0  0  0  0  0  0
    6.9950   -2.3200   20.6140 C   0  0  0  0  0  0  0  0  0  0  0  0
    5.7170   -2.3540   21.4580 C   0  0  0  0  0  0  0  0  0  0  0  0
    4.9450   -3.3310   21.3980 O   0  0  0  0  0  0  0  0  0  0  0  0
    5.4420   -1.2610   22.3170 N   0  0  0  0  0  0  0  0  0  0  0  0
    5.5380    0.1790   21.9610 C   0  0  0  0  0  0  0  0  0  0  0  0
    4.7190   -1.5650   23.5600 C   0  0  0  0  0  0  0  0  0  0  0  0
    5.4590    1.1100   23.0450 C   0  0  0  0  0  0  0  0  0  0  0  0
    4.6800   -0.4110   24.5860 C   0  0  0  0  0  0  0  0  0  0  0  0
    5.7900    0.6170   24.3100 C   0  0  0  0  0  0  0  0  0  0  0  0
    5.7590    1.5500   25.3930 C   0  0  0  0  0  0  0  0  0  0  0  0
    4.6850    2.0620   25.7060 O   0  0  0  0  0  0  0  0  0  0  0  0
    7.1060    1.8290   26.0770 N   0  0  0  0  0  0  0  0  0  0  0  0
    8.1850    1.6260   25.1240 C   0  0  0  0  0  0  0  0  0  0  0  0
    7.4200    1.0470   27.3130 C   0  0  0  0  0  0  0  0  0  0  0  0
    8.9660    2.7080   24.6260 C   0  0  0  0  0  0  0  0  0  0  0  0
    8.4190    0.3640   24.7200 C   0  0  0  0  0  0  0  0  0  0  0  0
    7.3950    1.8570   28.5780 C   0  0  0  0  0  0  0  0  0  0  0  0
    8.7430    0.2550   27.2370 C   0  0  0  0  0  0  0  0  0  0  0  0
   10.0660    2.4720   23.6590 C   0  0  0  0  0  0  0  0  0  0  0  0
    9.3860    0.0780   23.8330 C   0  0  0  0  0  0  0  0  0  0  0  0
    7.6630   -0.6140   25.2220 F   0  0  0  0  0  0  0  0  0  0  0  0
   10.2390    1.0310   23.2700 C   0  0  0  0  0  0  0  0  0  0  0  0
    9.5600   -1.2610   23.4350 C   0  0  0  0  0  0  0  0  0  0  0  0
   10.6670   -1.3010   22.7710 C   0  0  0  0  0  0  0  0  0  0  0  0
    8.9790   -2.5170   23.4980 N   0  0  0  0  0  0  0  0  0  0  0  0
   10.9720   -2.4670   22.3370 C   0  0  0  0  0  0  0  0  0  0  0  0
    9.7850   -3.2940   22.8530 C   0  0  0  0  0  0  0  0  0  0  0  0
    7.5420   -3.1050   24.2060 S   0  0  0  0  0  0  0  0  0  0  0  0
   12.1170   -2.4540   21.6740 C   0  0  0  0  0  0  0  0  0  0  0  0
    6.8090   -1.9730   24.7060 O   0  0  0  0  0  0  0  0  0  0  0  0
    6.9660   -3.9980   23.2160 O   0  0  0  0  0  0  0  0  0  0  0  0
    8.0320   -4.0700   25.5680 C   0  0  0  0  0  0  0  0  0  0  0  0
   12.2530   -1.1590   21.9890 N   0  0  0  0  0  0  0  0  0  0  0  0
    7.5590   -3.7840   26.8410 C   0  0  0  0  0  0  0  0  0  0  0  0
    8.8940   -5.1310   25.3820 C   0  0  0  0  0  0  0  0  0  0  0  0
   13.5210   -0.9130   21.8690 C   0  0  0  0  0  0  0  0  0  0  0  0
    7.9720   -4.5870   27.8960 C   0  0  0  0  0  0  0  0  0  0  0  0
    9.3090   -5.9270   26.3900 N   0  0  0  0  0  0  0  0  0  0  0  0
    8.8380   -5.6350   27.6250 C   0  0  0  0  0  0  0  0  0  0  0  0
  1  2  1  0
  2  3  1  0
  3  4  2  0
  3  5  1  0
  5  6  1  0
  5  7  1  0
  6  8  1  0
  7  9  1  0
  8 10  1  0
  9 10  1  0
 10 11  1  0
 11 12  2  0
 11 13  1  0
 13 14  1  0
 13 15  1  0
 14 16  2  0
 14 17  1  0
 15 18  1  0
 15 19  1  0
 16 20  1  0
 17 21  2  0
 17 22  1  0
 20 23  2  0
 21 23  1  0
 21 24  1  0
 24 25  2  0
 24 26  1  0
 25 27  1  0
 26 28  1  0
 27 28  2  0
 26 29  1  0
 27 30  1  0
 29 31  2  0
 29 32  2  0
 29 33  1  0
 30 34  1  0
 33 35  2  0
 33 36  1  0
 34 37  1  0
 35 38  1  0
 36 39  2  0
 38 40  2  0
 39 40  1  0
M  END
