MAK-UNK-2c1752f0-1
     RDKit          3D

 17 18  0  0  0  0  0  0  0  0999 V2000
    4.6650   -6.7240   23.6370 C   0  0  0  0  0  0  0  0  0  0  0  0
    5.9410   -6.4520   22.8400 C   0  0  0  0  0  0  0  0  0  0  0  0
    6.5810   -5.2700   23.1380 N   0  0  0  0  0  0  0  0  0  0  0  0
    7.7340   -4.7930   22.4380 C   0  0  0  0  0  0  0  0  0  0  0  0
    6.1920   -4.3920   24.1410 N   0  0  0  0  0  0  0  0  0  0  0  0
    8.1440   -3.4880   22.9990 C   0  0  0  0  0  0  0  0  0  0  0  0
    7.1590   -3.2400   24.0930 C   0  0  0  0  0  0  0  0  0  0  0  0
    9.3260   -2.7390   22.4310 C   0  0  0  0  0  0  0  0  0  0  0  0
    8.9440   -2.0270   21.1630 N   0  0  0  0  0  0  0  0  0  0  0  0
    8.3910   -0.7680   21.3080 C   0  0  0  0  0  0  0  0  0  0  0  0
    8.7170    0.0320   22.1690 O   0  0  0  0  0  0  0  0  0  0  0  0
    7.3930   -0.2810   20.4560 C   0  0  0  0  0  0  0  0  0  0  0  0
    6.2620    0.5600   21.0480 C   0  0  0  0  0  0  0  0  0  0  0  0
    7.3030   -0.4720   19.0600 C   0  0  0  0  0  0  0  0  0  0  0  0
    5.2290    1.0780   20.1450 C   0  0  0  0  0  0  0  0  0  0  0  0
    6.3150    0.0380   18.2210 N   0  0  0  0  0  0  0  0  0  0  0  0
    5.2750    0.8160   18.7640 C   0  0  0  0  0  0  0  0  0  0  0  0
  1  2  1  0
  2  3  1  0
  3  4  1  0
  3  5  1  0
  4  6  2  0
  5  7  2  0
  6  7  1  0
  6  8  1  0
  8  9  1  0
  9 10  1  0
 10 11  2  0
 10 12  1  0
 12 13  2  0
 12 14  1  0
 13 15  1  0
 14 16  2  0
 15 17  2  0
 16 17  1  0
M  END
