MAK-UNK-6ca90168-9-vinylsulfonamide
     RDKit          3D

 22 23  0  0  0  0  0  0  0  0999 V2000
    8.7980   -4.1860   20.6210 C   0  0  0  0  0  0  0  0  0  0  0  0
    8.0340   -5.1830   21.5570 C   0  0  0  0  0  0  0  0  0  0  0  0
    6.5440   -4.5240   22.3540 S   0  0  0  0  0  0  0  0  0  0  0  0
    5.2460   -4.3460   21.4570 O   0  0  0  0  0  0  0  0  0  0  0  0
    6.3920   -5.4220   23.4800 O   0  0  0  0  0  0  0  0  0  0  0  0
    7.1260   -3.1340   23.0810 N   0  0  0  0  0  0  0  0  0  0  0  0
    6.1300   -2.1720   23.4490 C   0  0  0  0  0  0  0  0  0  0  0  0
    8.3040   -2.5120   22.4790 C   0  0  0  0  0  0  0  0  0  0  0  0
    5.3830   -2.0590   22.0830 C   0  0  0  0  0  0  0  0  0  0  0  0
    7.7670   -1.6500   21.3890 C   0  0  0  0  0  0  0  0  0  0  0  0
    6.4290   -2.1060   21.0190 N   0  0  0  0  0  0  0  0  0  0  0  0
    6.1160   -2.6530   19.7030 C   0  0  0  0  0  0  0  0  0  0  0  0
    5.5160   -3.7310   19.5170 O   0  0  0  0  0  0  0  0  0  0  0  0
    6.6710   -1.6920   18.6500 C   0  0  0  0  0  0  0  0  0  0  0  0
    6.2460   -0.2910   19.2410 C   0  0  0  0  0  0  0  0  0  0  0  0
    4.9220    0.1230   18.5670 C   0  0  0  0  0  0  0  0  0  0  0  0
    6.8290    0.7600   20.3190 C   0  0  0  0  0  0  0  0  0  0  0  0
    4.1920    1.4310   18.8880 C   0  0  0  0  0  0  0  0  0  0  0  0
    6.1380    1.9630   20.5960 C   0  0  0  0  0  0  0  0  0  0  0  0
    8.0950    0.5050   21.0520 C   0  0  0  0  0  0  0  0  0  0  0  0
    4.8310    2.3330   19.9110 C   0  0  0  0  0  0  0  0  0  0  0  0
    9.3390    0.3450   21.8230 N   0  0  0  0  0  0  0  0  0  0  0  0
  1  2  1  0
  3  2  1  0
  3  4  2  0
  3  5  2  0
  3  6  1  0
  6  7  1  0
  6  8  1  0
  7  9  1  0
  8 10  1  0
  9 11  1  0
 10 11  1  0
 11 12  1  0
 12 13  2  0
 12 14  1  0
 14 15  1  0
 15 16  2  0
 15 17  1  0
 16 18  1  0
 17 19  2  0
 17 20  1  0
 18 21  2  0
 19 21  1  0
 20 22  3  0
M  END
