MAK-UNK-10dfa458-8-vinylsulfonamide
     RDKit          3D

 24 26  0  0  0  0  0  0  0  0999 V2000
    5.8250   -5.3810   20.9940 C   0  0  0  0  0  0  0  0  0  0  0  0
    6.1750   -5.6340   22.4760 C   0  0  0  0  0  0  0  0  0  0  0  0
    4.6720   -5.8730   23.3850 S   0  0  0  0  0  0  0  0  0  0  0  0
    3.5830   -5.3540   22.5430 O   0  0  0  0  0  0  0  0  0  0  0  0
    4.6470   -7.1360   24.0820 O   0  0  0  0  0  0  0  0  0  0  0  0
    4.9330   -4.8080   24.6510 N   0  0  0  0  0  0  0  0  0  0  0  0
    6.3300   -4.4090   24.6870 C   0  0  0  0  0  0  0  0  0  0  0  0
    4.0640   -3.6970   24.4700 C   0  0  0  0  0  0  0  0  0  0  0  0
    6.7190   -3.4920   23.5160 C   0  0  0  0  0  0  0  0  0  0  0  0
    4.3000   -3.1320   23.0940 C   0  0  0  0  0  0  0  0  0  0  0  0
    5.6510   -3.2930   22.5060 N   0  0  0  0  0  0  0  0  0  0  0  0
    5.7650   -2.3340   21.5260 C   0  0  0  0  0  0  0  0  0  0  0  0
    6.9550   -1.5240   21.7480 C   0  0  0  0  0  0  0  0  0  0  0  0
    6.8890    0.0080   21.7740 C   0  0  0  0  0  0  0  0  0  0  0  0
    8.1530   -2.1640   21.9520 C   0  0  0  0  0  0  0  0  0  0  0  0
    8.1870    0.5850   22.0390 N   0  0  0  0  0  0  0  0  0  0  0  0
    9.1540   -1.6400   22.1510 N   0  0  0  0  0  0  0  0  0  0  0  0
    9.2490   -0.3040   22.2150 C   0  0  0  0  0  0  0  0  0  0  0  0
   10.5340    0.0820   22.4670 C   0  0  0  0  0  0  0  0  0  0  0  0
   10.8850    1.3990   22.7500 C   0  0  0  0  0  0  0  0  0  0  0  0
   11.5190   -0.9200   22.4220 C   0  0  0  0  0  0  0  0  0  0  0  0
   12.2110    1.7260   22.9720 C   0  0  0  0  0  0  0  0  0  0  0  0
   12.8390   -0.5880   22.6470 C   0  0  0  0  0  0  0  0  0  0  0  0
   13.1660    0.7250   22.9100 C   0  0  0  0  0  0  0  0  0  0  0  0
  1  2  1  0
  3  2  1  0
  3  4  2  0
  3  5  2  0
  3  6  1  0
  6  7  1  0
  6  8  1  0
  7  9  1  0
  8 10  1  0
  9 11  1  0
 10 11  1  0
 11 12  1  0
 12 13  1  0
 13 14  2  0
 13 15  1  0
 14 16  1  0
 15 17  2  0
 16 18  2  0
 17 18  1  0
 18 19  1  0
 19 20  2  0
 19 21  1  0
 20 22  1  0
 21 23  2  0
 22 24  2  0
 23 24  1  0
M  END
