MAK-UNK-ec98eaf6-51-chloroacetamide
     RDKit          3D

 27 30  0  0  0  0  0  0  0  0999 V2000
    7.2300   -3.0340   18.8160 C   0  0  0  0  0  0  0  0  0  0  0  0
    6.2190   -3.3030   19.8990 C   0  0  0  0  0  0  0  0  0  0  0  0
    5.3940   -4.2150   19.7620 O   0  0  0  0  0  0  0  0  0  0  0  0
    6.2460   -2.5230   21.0400 N   0  0  0  0  0  0  0  0  0  0  0  0
    7.2540   -1.4680   21.0510 C   0  0  0  0  0  0  0  0  0  0  0  0
    6.2400   -2.9520   22.4780 C   0  0  2  0  0  0  0  0  0  0  0  0
    7.5440   -1.2430   22.4970 C   0  0  1  0  0  0  0  0  0  0  0  0
    6.2140   -1.5890   23.1820 C   0  0  0  0  0  0  0  0  0  0  0  0
    7.6410   -3.4350   22.8170 C   0  0  0  0  0  0  0  0  0  0  0  0
    8.4730   -2.3190   22.9650 N   0  0  0  0  0  0  0  0  0  0  0  0
    9.0640   -1.9370   24.2420 C   0  0  1  0  0  0  0  0  0  0  0  0
    8.9810   -3.0410   25.2390 C   0  0  0  0  0  0  0  0  0  0  0  0
   10.2240   -1.2800   23.8990 C   0  0  0  0  0  0  0  0  0  0  0  0
    7.6850   -3.0070   25.7770 C   0  0  0  0  0  0  0  0  0  0  0  0
   10.6120    0.0630   24.4990 C   0  0  0  0  0  0  0  0  0  0  0  0
   11.0920   -1.8170   22.9460 C   0  0  0  0  0  0  0  0  0  0  0  0
    7.5100   -3.9510   26.7570 C   0  0  0  0  0  0  0  0  0  0  0  0
   11.8910    0.7570   24.0430 C   0  0  0  0  0  0  0  0  0  0  0  0
   12.2570   -1.1490   22.5570 C   0  0  0  0  0  0  0  0  0  0  0  0
    8.5710   -4.7490   27.1760 C   0  0  0  0  0  0  0  0  0  0  0  0
    6.1980   -4.1060   27.3500 C   0  0  0  0  0  0  0  0  0  0  0  0
   12.6930    0.1860   23.1130 C   0  0  0  0  0  0  0  0  0  0  0  0
   13.0680   -1.7940   21.5430 C   0  0  0  0  0  0  0  0  0  0  0  0
    8.2890   -5.7290   28.2210 C   0  0  0  0  0  0  0  0  0  0  0  0
    5.9410   -5.0600   28.3610 C   0  0  0  0  0  0  0  0  0  0  0  0
   13.6060   -2.3060   20.7240 N   0  0  0  0  0  0  0  0  0  0  0  0
    6.9530   -5.8830   28.8180 C   0  0  0  0  0  0  0  0  0  0  0  0
  1  2  1  0
  2  3  2  0
  2  4  1  0
  4  5  1  0
  4  6  1  0
  7  5  1  6
  6  8  1  0
  7  8  1  0
  6  9  1  1
  7 10  1  0
  9 10  1  0
 10 11  1  0
 11 12  1  1
 11 13  1  0
 12 14  1  0
 13 15  2  0
 13 16  1  0
 14 17  1  0
 15 18  1  0
 16 19  2  0
 17 20  2  0
 17 21  1  0
 18 22  2  0
 19 22  1  0
 19 23  1  0
 20 24  1  0
 21 25  2  0
 23 26  3  0
 24 27  2  0
 25 27  1  0
M  END
