MAK-UNK-ec98eaf6-12-acrylamide
     RDKit          3D

 24 27  0  0  0  0  0  0  0  0999 V2000
    7.3600   -2.7960   18.2720 C   0  0  0  0  0  0  0  0  0  0  0  0
    6.5350   -2.1390   19.3110 C   0  0  0  0  0  0  0  0  0  0  0  0
    5.8810   -3.1160   20.2350 C   0  0  0  0  0  0  0  0  0  0  0  0
    5.1570   -4.0780   19.8770 O   0  0  0  0  0  0  0  0  0  0  0  0
    6.1750   -2.8580   21.5330 N   0  0  0  0  0  0  0  0  0  0  0  0
    5.1100   -2.7370   22.5270 C   0  0  0  0  0  0  0  0  0  0  0  0
    7.2720   -3.5670   22.2090 C   0  0  2  0  0  0  0  0  0  0  0  0
    5.7400   -3.5860   23.5530 C   0  0  1  0  0  0  0  0  0  0  0  0
    6.4640   -4.6320   22.9280 C   0  0  0  0  0  0  0  0  0  0  0  0
    7.8070   -2.8660   23.2280 C   0  0  1  0  0  0  0  0  0  0  0  0
    6.8150   -2.6000   24.1340 C   0  0  0  0  0  0  0  0  0  0  0  0
    8.8490   -3.6910   23.8920 C   0  0  0  0  0  0  0  0  0  0  0  0
    8.6520   -1.6150   22.8250 C   0  0  0  0  0  0  0  0  0  0  0  0
   10.0560   -3.0040   23.4860 C   0  0  1  0  0  0  0  0  0  0  0  0
    9.7610   -1.7320   23.6810 C   0  0  1  0  0  0  0  0  0  0  0  0
   11.0810   -3.3740   24.5010 C   0  0  0  0  0  0  0  0  0  0  0  0
   10.9610   -1.0100   23.3020 C   0  0  0  0  0  0  0  0  0  0  0  0
   12.0490   -2.4730   24.8580 N   0  0  0  0  0  0  0  0  0  0  0  0
   11.0130   -4.6010   25.0020 O   0  0  0  0  0  0  0  0  0  0  0  0
   11.9830   -1.4570   22.5070 C   0  0  0  0  0  0  0  0  0  0  0  0
   10.9070    0.2400   23.9160 C   0  0  0  0  0  0  0  0  0  0  0  0
   13.0140   -0.5900   22.3270 C   0  0  0  0  0  0  0  0  0  0  0  0
   11.9670    1.0770   23.6960 C   0  0  0  0  0  0  0  0  0  0  0  0
   13.0350    0.6760   22.9050 C   0  0  0  0  0  0  0  0  0  0  0  0
  1  2  1  0
  2  3  1  0
  3  4  2  0
  3  5  1  0
  5  6  1  0
  7  5  1  1
  8  6  1  6
  7  9  1  0
  8  9  1  0
  7 10  1  0
  8 11  1  0
 10 11  1  1
 10 12  1  0
 10 13  1  0
 12 14  1  0
 13 15  1  0
 14 15  1  0
 14 16  1  1
 15 17  1  6
 16 18  1  0
 16 19  2  0
 17 20  2  0
 17 21  1  0
 20 22  1  0
 21 23  2  0
 22 24  2  0
 23 24  1  0
M  END
