MAK-UNK-f983951f-13-nitrile
     RDKit          3D

 11 11  0  0  0  0  0  0  0  0999 V2000
    6.5300   -3.9850   20.1790 C   0  0  0  0  0  0  0  0  0  0  0  0
    5.8690   -3.4080   19.2450 N   0  0  0  0  0  0  0  0  0  0  0  0
    6.2650   -3.6880   21.4910 N   0  0  0  0  0  0  0  0  0  0  0  0
    4.9310   -3.3280   21.8690 O   0  0  0  0  0  0  0  0  0  0  0  0
    5.0240   -2.3670   22.9780 C   0  0  0  0  0  0  0  0  0  0  0  0
    4.0470   -2.7440   24.1420 C   0  0  0  0  0  0  0  0  0  0  0  0
    4.2010   -4.2500   24.3290 C   0  0  0  0  0  0  0  0  0  0  0  0
    3.1500   -1.9770   24.9430 C   0  0  0  0  0  0  0  0  0  0  0  0
    3.3520   -4.9590   25.3990 C   0  0  0  0  0  0  0  0  0  0  0  0
    2.2960   -2.6520   25.9870 C   0  0  0  0  0  0  0  0  0  0  0  0
    2.3600   -4.1430   26.2480 C   0  0  0  0  0  0  0  0  0  0  0  0
  1  2  2  3
  1  3  1  0
  3  4  1  0
  4  5  1  0
  5  6  1  0
  6  7  2  0
  6  8  1  0
  7  9  1  0
  8 10  2  0
  9 11  2  0
 10 11  1  0
M  END
