MAK-UNK-ec98eaf6-14-nitrile
     RDKit          3D

 20 22  0  0  0  0  0  0  0  0999 V2000
    6.8610   -3.4770   19.7550 C   0  0  0  0  0  0  0  0  0  0  0  0
    5.8750   -3.2350   18.9920 N   0  0  0  0  0  0  0  0  0  0  0  0
    6.9990   -2.8370   20.9650 N   0  0  0  0  0  0  0  0  0  0  0  0
    6.0480   -2.9530   22.1110 C   0  0  0  0  0  0  0  0  0  0  0  0
    8.2730   -2.4540   21.6190 C   0  0  2  0  0  0  0  0  0  0  0  0
    7.1120   -3.0650   23.2610 C   0  0  1  0  0  0  0  0  0  0  0  0
    8.3740   -3.6380   22.6010 C   0  0  0  0  0  0  0  0  0  0  0  0
    8.0280   -1.2390   22.2340 C   0  0  0  0  0  0  0  0  0  0  0  0
    7.7660   -1.7750   23.5980 N   0  0  0  0  0  0  0  0  0  0  0  0
    8.9970   -1.9340   24.3880 C   0  0  0  0  0  0  0  0  0  0  0  0
   10.0460   -1.2000   23.8660 C   0  0  0  0  0  0  0  0  0  0  0  0
   11.0720   -1.7280   23.1020 C   0  0  0  0  0  0  0  0  0  0  0  0
   10.1600    0.2940   24.0710 C   0  0  0  0  0  0  0  0  0  0  0  0
   12.1840   -1.0550   22.5130 C   0  0  0  0  0  0  0  0  0  0  0  0
   11.2200    0.9920   23.5090 C   0  0  0  0  0  0  0  0  0  0  0  0
   13.2960   -1.9120   21.5880 Cl  0  0  0  0  0  0  0  0  0  0  0  0
   12.3620    0.4260   22.6920 C   0  0  0  0  0  0  0  0  0  0  0  0
   11.5100    2.4650   23.5270 C   0  0  0  0  0  0  0  0  0  0  0  0
   10.8210    3.0750   22.4380 O   0  0  0  0  0  0  0  0  0  0  0  0
    9.4740    2.6320   22.3070 C   0  0  0  0  0  0  0  0  0  0  0  0
  1  2  2  3
  1  3  1  0
  3  4  1  0
  3  5  1  0
  6  4  1  6
  5  7  1  0
  6  7  1  0
  5  8  1  1
  6  9  1  0
  8  9  1  0
  9 10  1  0
 10 11  1  0
 11 12  2  0
 11 13  1  0
 12 14  1  0
 13 15  2  0
 14 16  1  0
 14 17  2  0
 15 17  1  0
 15 18  1  0
 18 19  1  0
 19 20  1  0
M  END
