MAK-UNK-ec98eaf6-19-bromoalkyne
     RDKit          3D

 24 27  0  0  0  0  0  0  0  0999 V2000
    7.5140   -4.3480   20.0550 C   0  0  0  0  0  0  0  0  0  0  0  0
    6.8430   -3.3340   19.1850 C   0  0  0  0  0  0  0  0  0  0  0  0
    7.6990   -4.1890   21.4080 N   0  0  0  0  0  0  0  0  0  0  0  0
    6.5310   -4.1090   22.3640 C   0  0  0  0  0  0  0  0  0  0  0  0
    8.2610   -3.0250   22.0100 C   0  0  2  0  0  0  0  0  0  0  0  0
    7.0890   -2.8740   23.1970 C   0  0  1  0  0  0  0  0  0  0  0  0
    8.5530   -3.2140   23.4310 C   0  0  0  0  0  0  0  0  0  0  0  0
    8.3930   -1.9130   21.3430 C   0  0  0  0  0  0  0  0  0  0  0  0
    7.2610   -1.5900   22.2930 N   0  0  0  0  0  0  0  0  0  0  0  0
    6.0810   -1.2240   21.5050 C   0  0  0  0  0  0  0  0  0  0  0  0
    6.3440   -0.0150   20.8520 C   0  0  0  0  0  0  0  0  0  0  0  0
    7.7020    0.4930   21.1000 N   0  0  0  0  0  0  0  0  0  0  0  0
    8.0300    1.2640   22.2200 C   0  0  0  0  0  0  0  0  0  0  0  0
    7.1040    1.7760   23.0900 O   0  0  0  0  0  0  0  0  0  0  0  0
    9.5070    1.5460   22.4470 C   0  0  0  0  0  0  0  0  0  0  0  0
    9.6220    3.0630   22.3000 C   0  0  0  0  0  0  0  0  0  0  0  0
   10.5290    0.6170   22.7250 C   0  0  0  0  0  0  0  0  0  0  0  0
   11.0620    3.5650   22.4900 C   0  0  0  0  0  0  0  0  0  0  0  0
   11.8350    1.1050   22.8830 C   0  0  0  0  0  0  0  0  0  0  0  0
   10.3470   -0.7850   22.8560 C   0  0  0  0  0  0  0  0  0  0  0  0
   12.0450    2.4580   22.7730 C   0  0  0  0  0  0  0  0  0  0  0  0
   12.9070    0.2810   23.1420 C   0  0  0  0  0  0  0  0  0  0  0  0
   11.4330   -1.6150   23.1220 C   0  0  0  0  0  0  0  0  0  0  0  0
   12.7070   -1.0880   23.2630 C   0  0  0  0  0  0  0  0  0  0  0  0
  1  2  2  3
  1  3  1  0
  3  4  1  0
  3  5  1  0
  6  4  1  6
  5  7  1  0
  6  7  1  0
  5  8  1  1
  6  9  1  0
  8  9  1  0
  9 10  1  0
 10 11  1  0
 11 12  1  0
 12 13  1  0
 13 14  2  0
 13 15  1  0
 15 16  2  0
 15 17  1  0
 16 18  1  0
 17 19  2  0
 17 20  1  0
 18 21  2  0
 19 21  1  0
 19 22  1  0
 20 23  2  0
 22 24  2  0
 23 24  1  0
M  END
