MAK-UNK-10799360-1-nitrile
     RDKit          3D

 21 24  0  0  0  0  0  0  0  0999 V2000
    7.0250   -3.3350   19.4040 C   0  0  0  0  0  0  0  0  0  0  0  0
    6.1050   -3.0920   18.5560 N   0  0  0  0  0  0  0  0  0  0  0  0
    6.9560   -2.9860   20.7240 N   0  0  0  0  0  0  0  0  0  0  0  0
    7.1750   -1.6010   21.1920 C   0  0  0  0  0  0  0  0  0  0  0  0
    7.5360   -3.7650   21.8110 C   0  0  1  0  0  0  0  0  0  0  0  0
    8.3540   -1.7560   22.2300 C   0  0  2  0  0  0  0  0  0  0  0  0
    8.9450   -3.1270   21.8890 C   0  0  0  0  0  0  0  0  0  0  0  0
    6.9100   -3.2660   23.1160 C   0  0  0  0  0  0  0  0  0  0  0  0
    7.8760   -2.2220   23.5240 N   0  0  0  0  0  0  0  0  0  0  0  0
    8.9500   -2.6960   24.4070 C   0  0  0  0  0  0  0  0  0  0  0  0
   10.2230   -1.8230   24.0470 C   0  0  0  0  0  0  0  0  0  0  0  0
    9.2210   -4.2100   24.0470 C   0  0  0  0  0  0  0  0  0  0  0  0
    8.2090   -2.7340   25.7840 C   0  0  0  0  0  0  0  0  0  0  0  0
   10.8610   -0.4760   24.4990 C   0  0  0  0  0  0  0  0  0  0  0  0
   11.2970   -2.3600   22.8040 S   0  0  0  0  0  0  0  0  0  0  0  0
    9.7480   -5.1070   25.1190 C   0  0  0  0  0  0  0  0  0  0  0  0
    8.8140   -3.6570   26.8440 C   0  0  0  0  0  0  0  0  0  0  0  0
   12.0120   -0.1180   23.8250 N   0  0  0  0  0  0  0  0  0  0  0  0
   12.3060   -1.0040   22.9570 C   0  0  0  0  0  0  0  0  0  0  0  0
    8.8900   -5.0810   26.3690 C   0  0  0  0  0  0  0  0  0  0  0  0
   13.3780   -0.8880   22.1780 C   0  0  0  0  0  0  0  0  0  0  0  0
  1  2  2  3
  1  3  1  0
  3  4  1  0
  3  5  1  0
  6  4  1  6
  5  7  1  0
  6  7  1  0
  5  8  1  1
  6  9  1  0
  8  9  1  0
  9 10  1  0
 10 11  1  0
 10 12  1  0
 10 13  1  0
 11 14  2  0
 11 15  1  0
 12 16  1  0
 13 17  1  0
 14 18  1  0
 15 19  1  0
 18 19  2  0
 16 20  1  0
 17 20  1  0
 19 21  1  0
M  END
