MAK-UNK-0d6072ac-26
     RDKit          3D

 19 21  0  0  0  0  0  0  0  0999 V2000
    5.9990   -5.7070   24.3230 N   0  0  0  0  0  0  0  0  0  0  0  0
    5.9280   -5.2950   23.2500 C   0  0  2  0  0  0  0  0  0  0  0  0
    5.7190   -5.1840   21.8420 C   0  0  0  0  0  0  0  0  0  0  0  0
    7.2110   -4.5090   23.3620 C   0  0  0  0  0  0  0  0  0  0  0  0
    5.1350   -4.0960   21.1450 O   0  0  0  0  0  0  0  0  0  0  0  0
    5.9880   -6.0910   20.7960 O   0  0  0  0  0  0  0  0  0  0  0  0
    7.4710   -3.4040   22.5550 C   0  0  0  0  0  0  0  0  0  0  0  0
    8.1500   -4.8890   24.2900 C   0  0  0  0  0  0  0  0  0  0  0  0
    8.6190   -2.7040   22.6570 C   0  0  0  0  0  0  0  0  0  0  0  0
    9.3150   -4.1810   24.3980 C   0  0  0  0  0  0  0  0  0  0  0  0
    9.5820   -3.1170   23.6260 C   0  0  0  0  0  0  0  0  0  0  0  0
   10.4230   -4.2850   25.1780 N   0  0  0  0  0  0  0  0  0  0  0  0
   11.3280   -3.2140   24.7670 C   0  0  0  0  0  0  0  0  0  0  0  0
   10.7690   -2.4800   23.7890 C   0  0  0  0  0  0  0  0  0  0  0  0
   12.5460   -3.0320   25.3120 C   0  0  0  0  0  0  0  0  0  0  0  0
   11.5370   -1.3650   23.2700 C   0  0  0  0  0  0  0  0  0  0  0  0
   13.2810   -1.9850   24.8040 C   0  0  0  0  0  0  0  0  0  0  0  0
   12.7680   -1.1810   23.8100 C   0  0  0  0  0  0  0  0  0  0  0  0
   13.4440    0.1540   23.0100 Cl  0  0  0  0  0  0  0  0  0  0  0  0
  2  1  1  6
  2  3  1  0
  2  4  1  0
  3  5  2  0
  3  6  1  0
  4  7  2  0
  4  8  1  0
  7  9  1  0
  8 10  2  0
  9 11  2  0
 10 11  1  0
 10 12  1  0
 12 13  1  0
 11 14  1  0
 13 14  2  0
 13 15  1  0
 14 16  1  0
 15 17  2  0
 16 18  2  0
 17 18  1  0
 18 19  1  0
M  END
