MAK-UNK-0955449e-27-vinylsulfonamide
     RDKit          3D

 31 34  0  0  0  0  0  0  0  0999 V2000
    8.5240   -3.9420   20.2700 C   0  0  0  0  0  0  0  0  0  0  0  0
    7.8580   -4.7820   21.3980 C   0  0  0  0  0  0  0  0  0  0  0  0
    6.0150   -4.7380   21.5520 S   0  0  0  0  0  0  0  0  0  0  0  0
    5.2840   -4.5880   20.2700 O   0  0  0  0  0  0  0  0  0  0  0  0
    5.5440   -3.9410   22.6870 O   0  0  0  0  0  0  0  0  0  0  0  0
    5.6830   -6.4040   21.9910 C   0  0  0  0  0  0  0  0  0  0  0  0
    5.7360   -5.6660   20.8340 C   0  0  0  0  0  0  0  0  0  0  0  0
    5.9680   -5.5620   23.1640 C   0  0  0  0  0  0  0  0  0  0  0  0
    5.9980   -4.4260   20.7990 N   0  0  0  0  0  0  0  0  0  0  0  0
    6.1630   -4.2570   22.2680 N   0  0  0  0  0  0  0  0  0  0  0  0
    6.0820   -5.5770   24.5040 N   0  0  0  0  0  0  0  0  0  0  0  0
    6.4630   -3.0420   22.8570 C   0  0  0  0  0  0  0  0  0  0  0  0
    6.7450   -4.5280   25.0760 C   0  0  0  0  0  0  0  0  0  0  0  0
    6.3030   -1.9750   22.2780 O   0  0  0  0  0  0  0  0  0  0  0  0
    6.9840   -3.2180   24.3140 C   0  0  0  0  0  0  0  0  0  0  0  0
    7.7410   -2.0580   24.9930 C   0  0  0  0  0  0  0  0  0  0  0  0
    8.5060   -1.2770   23.9870 N   0  0  0  0  0  0  0  0  0  0  0  0
    7.6950   -0.3840   23.1730 C   0  0  0  0  0  0  0  0  0  0  0  0
    9.8530   -1.1670   23.5970 C   0  0  0  0  0  0  0  0  0  0  0  0
    8.5720    0.3350   22.2060 C   0  0  0  0  0  0  0  0  0  0  0  0
    9.9340   -0.2310   22.5430 C   0  0  0  0  0  0  0  0  0  0  0  0
   10.9250   -1.9760   24.2920 C   0  0  0  0  0  0  0  0  0  0  0  0
    8.1860    1.2780   21.2610 C   0  0  0  0  0  0  0  0  0  0  0  0
   12.2320   -1.5710   24.2360 C   0  0  0  0  0  0  0  0  0  0  0  0
   10.5820   -3.1730   25.0200 C   0  0  0  0  0  0  0  0  0  0  0  0
    7.4250    2.3380   21.7850 N   0  0  0  0  0  0  0  0  0  0  0  0
   13.2600   -2.4100   24.9540 C   0  0  0  0  0  0  0  0  0  0  0  0
   11.5250   -3.9570   25.6910 C   0  0  0  0  0  0  0  0  0  0  0  0
    9.3170   -3.5940   25.0850 F   0  0  0  0  0  0  0  0  0  0  0  0
    7.8870    3.6040   22.1120 C   0  0  0  0  0  0  0  0  0  0  0  0
   12.8590   -3.6430   25.7060 C   0  0  0  0  0  0  0  0  0  0  0  0
  1  2  1  0
  3  2  1  0
  3  4  2  0
  3  5  2  0
  3  6  1  0
  6  7  1  0
  6  8  2  0
  7  9  2  0
  8 10  1  0
  9 10  1  0
  8 11  1  0
 10 12  1  0
 11 13  1  0
 12 14  2  0
 12 15  1  0
 13 15  2  0
 15 16  1  0
 16 17  1  0
 17 18  1  0
 17 19  1  0
 18 20  2  0
 19 21  2  0
 20 21  1  0
 19 22  1  0
 20 23  1  0
 22 24  2  0
 22 25  1  0
 23 26  1  0
 24 27  1  0
 25 28  2  0
 25 29  1  0
 26 30  1  0
 27 31  2  0
 28 31  1  0
M  END
