MAK-UNK-5d2caa6f-5-chloroacetamide
     RDKit          3D

 23 26  0  0  0  0  0  0  0  0999 V2000
    7.4290   -3.0650   18.7650 C   0  0  0  0  0  0  0  0  0  0  0  0
    6.4360   -3.3710   19.8850 C   0  0  0  0  0  0  0  0  0  0  0  0
    5.5630   -4.2410   19.7800 O   0  0  0  0  0  0  0  0  0  0  0  0
    6.5370   -2.6370   21.0150 N   0  0  0  0  0  0  0  0  0  0  0  0
    7.3010   -1.4020   21.0870 C   0  0  0  0  0  0  0  0  0  0  0  0
    6.8380   -3.2910   22.2790 C   0  0  1  0  0  0  0  0  0  0  0  0
    8.4750   -1.8480   21.9990 C   0  0  2  0  0  0  0  0  0  0  0  0
    8.3430   -3.3870   22.1570 C   0  0  0  0  0  0  0  0  0  0  0  0
    6.7430   -2.2980   23.4560 C   0  0  0  0  0  0  0  0  0  0  0  0
    8.0350   -1.5630   23.3520 N   0  0  0  0  0  0  0  0  0  0  0  0
    9.0540   -1.8340   24.3280 C   0  0  2  0  0  0  0  0  0  0  0  0
   10.4080   -1.2360   23.8680 C   0  0  0  0  0  0  0  0  0  0  0  0
    8.9720   -3.2130   25.0470 C   0  0  0  0  0  0  0  0  0  0  0  0
   11.3960   -1.9010   22.8970 C   0  0  0  0  0  0  0  0  0  0  0  0
   10.7870    0.0120   24.3430 C   0  0  0  0  0  0  0  0  0  0  0  0
    9.9840   -3.3870   26.1190 C   0  0  0  0  0  0  0  0  0  0  0  0
    9.0680   -4.4230   24.1040 C   0  0  0  0  0  0  0  0  0  0  0  0
   12.5960   -1.2340   22.5430 C   0  0  0  0  0  0  0  0  0  0  0  0
   11.9780    0.6210   23.9570 C   0  0  0  0  0  0  0  0  0  0  0  0
   10.9910   -4.4110   25.7050 C   0  0  0  0  0  0  0  0  0  0  0  0
    9.2430   -5.7220   24.8760 C   0  0  0  0  0  0  0  0  0  0  0  0
   12.8660    0.0210   23.0790 C   0  0  0  0  0  0  0  0  0  0  0  0
   10.3820   -5.6810   25.7160 O   0  0  0  0  0  0  0  0  0  0  0  0
  1  2  1  0
  2  3  2  0
  2  4  1  0
  4  5  1  0
  4  6  1  0
  7  5  1  6
  6  8  1  0
  7  8  1  0
  6  9  1  1
  7 10  1  0
  9 10  1  0
 10 11  1  0
 11 12  1  6
 11 13  1  0
 12 14  2  0
 12 15  1  0
 13 16  1  0
 13 17  1  0
 14 18  1  0
 15 19  2  0
 16 20  1  0
 17 21  1  0
 18 22  2  0
 19 22  1  0
 20 23  1  0
 21 23  1  0
M  END
