MAK-UNK-148caf23-10-bromoalkyne
     RDKit          3D

 34 37  0  0  0  0  0  0  0  0999 V2000
    8.0860   -3.2550   19.6390 C   0  0  0  0  0  0  0  0  0  0  0  0
    6.5480   -3.2830   19.4600 C   0  0  0  0  0  0  0  0  0  0  0  0
    8.9410   -3.0600   20.9680 C   0  0  0  0  0  0  0  0  0  0  0  0
    8.0640   -1.7990   21.4270 C   0  0  0  0  0  0  0  0  0  0  0  0
    9.5820   -2.7190   22.2100 C   0  0  0  0  0  0  0  0  0  0  0  0
    7.7960   -0.6420   22.5620 C   0  0  0  0  0  0  0  0  0  0  0  0
    8.9900   -1.7630   22.6930 N   0  0  0  0  0  0  0  0  0  0  0  0
    8.7020   -0.8710   23.4990 C   0  0  0  0  0  0  0  0  0  0  0  0
    9.0760   -0.3430   24.7310 N   0  0  0  0  0  0  0  0  0  0  0  0
    8.2770   -0.5610   25.9410 C   0  0  0  0  0  0  0  0  0  0  0  0
    7.2920    0.3750   26.1360 C   0  0  1  0  0  0  0  0  0  0  0  0
    6.0090   -0.0170   26.2940 N   0  0  0  0  0  0  0  0  0  0  0  0
    7.7120    1.2220   27.3350 C   0  0  0  0  0  0  0  0  0  0  0  0
    5.8860   -1.2440   26.8620 C   0  0  0  0  0  0  0  0  0  0  0  0
    8.2890    0.5100   28.6160 C   0  0  0  0  0  0  0  0  0  0  0  0
    7.6890    2.6830   27.5450 C   0  0  0  0  0  0  0  0  0  0  0  0
    8.4250    1.8370   29.1770 C   0  0  0  0  0  0  0  0  0  0  0  0
    8.1790    3.0400   28.7980 N   0  0  0  0  0  0  0  0  0  0  0  0
    8.9700    1.7240   30.4560 C   0  0  0  0  0  0  0  0  0  0  0  0
    8.3460    4.6070   29.4820 S   0  0  0  0  0  0  0  0  0  0  0  0
   10.1170    2.4070   30.7710 C   0  0  0  0  0  0  0  0  0  0  0  0
    8.4130    0.9500   31.4320 C   0  0  0  0  0  0  0  0  0  0  0  0
    7.0870    5.2810   29.2350 O   0  0  0  0  0  0  0  0  0  0  0  0
    8.8140    4.4170   30.8380 O   0  0  0  0  0  0  0  0  0  0  0  0
    9.6370    5.4740   28.5970 C   0  0  0  0  0  0  0  0  0  0  0  0
   10.8250    2.4290   31.9940 C   0  0  0  0  0  0  0  0  0  0  0  0
    9.0090    0.8740   32.6930 C   0  0  0  0  0  0  0  0  0  0  0  0
    7.2890    0.2470   31.2090 F   0  0  0  0  0  0  0  0  0  0  0  0
    9.6840    5.4510   27.2000 C   0  0  0  0  0  0  0  0  0  0  0  0
   10.6350    6.2000   29.2420 C   0  0  0  0  0  0  0  0  0  0  0  0
   10.1770    1.5260   33.1270 C   0  0  0  0  0  0  0  0  0  0  0  0
   10.6870    6.1220   26.4970 C   0  0  0  0  0  0  0  0  0  0  0  0
   11.6260    6.8720   28.5940 N   0  0  0  0  0  0  0  0  0  0  0  0
   11.6370    6.8200   27.2410 C   0  0  0  0  0  0  0  0  0  0  0  0
  1  2  2  3
  1  3  1  0
  3  4  2  0
  3  5  1  0
  4  6  1  0
  5  7  2  0
  6  8  2  0
  7  8  1  0
  8  9  1  0
  9 10  1  0
 11 10  1  1
 11 12  1  0
 11 13  1  0
 12 14  1  0
 13 15  1  0
 13 16  2  0
 15 17  2  0
 16 18  1  0
 17 18  1  0
 17 19  1  0
 18 20  1  0
 19 21  2  0
 19 22  1  0
 20 23  2  0
 20 24  2  0
 20 25  1  0
 21 26  1  0
 22 27  2  0
 22 28  1  0
 25 29  2  0
 25 30  1  0
 26 31  2  0
 27 31  1  0
 29 32  1  0
 30 33  2  0
 32 34  2  0
 33 34  1  0
M  END
