MAK-UNK-10799360-7-nitrile
     RDKit          3D

 25 28  0  0  0  0  0  0  0  0999 V2000
    7.7030   -3.4520   19.8050 C   0  0  0  0  0  0  0  0  0  0  0  0
    6.4520   -3.5830   19.4300 N   0  0  0  0  0  0  0  0  0  0  0  0
    8.1350   -2.9040   21.0330 N   0  0  0  0  0  0  0  0  0  0  0  0
    8.4130   -1.4700   21.2950 C   0  0  0  0  0  0  0  0  0  0  0  0
    8.9360   -3.5370   22.1030 C   0  0  1  0  0  0  0  0  0  0  0  0
    9.6800   -1.4610   22.2310 C   0  0  2  0  0  0  0  0  0  0  0  0
   10.2990   -2.8370   21.9730 C   0  0  0  0  0  0  0  0  0  0  0  0
    8.3940   -3.0150   23.4650 C   0  0  0  0  0  0  0  0  0  0  0  0
    9.2720   -1.7590   23.6950 C   0  0  2  0  0  0  0  0  0  0  0  0
    8.3820   -0.7200   24.4170 C   0  0  0  0  0  0  0  0  0  0  0  0
    6.9610   -1.1830   24.5520 N   0  0  0  0  0  0  0  0  0  0  0  0
    6.1300   -0.7860   23.5710 C   0  0  0  0  0  0  0  0  0  0  0  0
    6.8290   -2.4430   25.2510 C   0  0  0  0  0  0  0  0  0  0  0  0
    5.5760   -1.8360   22.8090 C   0  0  0  0  0  0  0  0  0  0  0  0
    5.8440   -3.2960   24.7740 C   0  0  0  0  0  0  0  0  0  0  0  0
    5.2130   -2.9790   23.5440 C   0  0  0  0  0  0  0  0  0  0  0  0
    5.4540   -4.4530   25.4640 C   0  0  0  0  0  0  0  0  0  0  0  0
    4.2280   -3.8370   23.0910 C   0  0  0  0  0  0  0  0  0  0  0  0
    4.4590   -5.2890   24.9590 C   0  0  0  0  0  0  0  0  0  0  0  0
    3.8250   -4.9860   23.7560 C   0  0  0  0  0  0  0  0  0  0  0  0
    4.1120   -6.6680   25.9270 S   0  0  0  0  0  0  0  0  0  0  0  0
    2.7430   -5.8870   23.2080 C   0  0  0  0  0  0  0  0  0  0  0  0
    5.3440   -6.6280   27.0940 N   0  0  0  0  0  0  0  0  0  0  0  0
    4.2780   -7.8230   25.0580 O   0  0  0  0  0  0  0  0  0  0  0  0
    2.8810   -6.4380   26.6530 O   0  0  0  0  0  0  0  0  0  0  0  0
  1  2  2  3
  1  3  1  0
  3  4  1  0
  3  5  1  0
  6  4  1  6
  5  7  1  0
  6  7  1  0
  5  8  1  1
  6  9  1  0
  8  9  1  0
  9 10  1  6
 10 11  1  0
 11 12  1  0
 11 13  1  0
 12 14  1  0
 13 15  1  0
 14 16  1  0
 15 16  2  0
 15 17  1  0
 16 18  1  0
 17 19  2  0
 18 20  2  0
 19 20  1  0
 19 21  1  0
 20 22  1  0
 21 23  1  0
 21 24  2  0
 21 25  2  0
M  END
