MAK-UNK-10799360-32-nitrile
     RDKit          3D

 31 35  0  0  0  0  0  0  0  0999 V2000
    7.2680   -3.7680   20.1150 C   0  0  0  0  0  0  0  0  0  0  0  0
    6.0590   -4.0320   19.7410 N   0  0  0  0  0  0  0  0  0  0  0  0
    7.5920   -3.3320   21.3830 N   0  0  0  0  0  0  0  0  0  0  0  0
    6.6500   -3.2520   22.5190 C   0  0  0  0  0  0  0  0  0  0  0  0
    8.8490   -2.7090   21.8660 C   0  0  2  0  0  0  0  0  0  0  0  0
    7.5410   -2.6180   23.6340 C   0  0  1  0  0  0  0  0  0  0  0  0
    8.9180   -3.2420   23.2920 C   0  0  0  0  0  0  0  0  0  0  0  0
    8.6050   -1.1970   22.0910 C   0  0  0  0  0  0  0  0  0  0  0  0
    7.8650   -1.1820   23.3830 N   0  0  0  0  0  0  0  0  0  0  0  0
    8.4010   -0.4250   24.5500 C   0  0  0  0  0  0  0  0  0  0  0  0
    9.3220    0.7410   24.1660 C   0  0  0  0  0  0  0  0  0  0  0  0
    8.8520    2.1920   24.2020 C   0  0  0  0  0  0  0  0  0  0  0  0
   10.6340    0.4910   23.7710 C   0  0  0  0  0  0  0  0  0  0  0  0
    9.7730    3.1840   23.8400 C   0  0  0  0  0  0  0  0  0  0  0  0
   11.5120    1.5310   23.4170 C   0  0  0  0  0  0  0  0  0  0  0  0
   11.0800    2.8590   23.4580 C   0  0  0  0  0  0  0  0  0  0  0  0
   12.8060    1.1080   23.0420 N   0  0  0  0  0  0  0  0  0  0  0  0
   13.6810    1.6140   22.0810 C   0  0  0  0  0  0  0  0  0  0  0  0
   14.1030    2.7460   22.0580 O   0  0  0  0  0  0  0  0  0  0  0  0
   14.0850    0.5640   21.0650 C   0  0  0  0  0  0  0  0  0  0  0  0
   13.6040   -0.8050   21.2470 C   0  0  0  0  0  0  0  0  0  0  0  0
   15.2630    0.5940   19.4260 S   0  0  0  0  0  0  0  0  0  0  0  0
   14.0990   -1.5850   20.2760 N   0  0  0  0  0  0  0  0  0  0  0  0
   14.9600   -0.9890   19.3000 C   0  0  0  0  0  0  0  0  0  0  0  0
   15.7820   -1.6420   18.1280 C   0  0  0  0  0  0  0  0  0  0  0  0
   16.6820   -0.9300   17.8830 C   0  0  0  0  0  0  0  0  0  0  0  0
   16.2040    0.0560   17.0920 C   0  0  0  0  0  0  0  0  0  0  0  0
   17.9020   -1.2040   18.3700 C   0  0  0  0  0  0  0  0  0  0  0  0
   17.0560    0.8990   16.7120 C   0  0  0  0  0  0  0  0  0  0  0  0
   18.7360   -0.3430   18.0030 C   0  0  0  0  0  0  0  0  0  0  0  0
   18.2970    0.6510   17.1960 C   0  0  0  0  0  0  0  0  0  0  0  0
  1  2  2  3
  1  3  1  0
  3  4  1  0
  3  5  1  0
  6  4  1  6
  5  7  1  0
  6  7  1  0
  5  8  1  1
  6  9  1  0
  8  9  1  0
  9 10  1  0
 10 11  1  0
 11 12  2  0
 11 13  1  0
 12 14  1  0
 13 15  2  0
 14 16  2  0
 15 16  1  0
 15 17  1  0
 17 18  1  0
 18 19  2  0
 18 20  1  0
 20 21  2  0
 20 22  1  0
 21 23  1  0
 22 24  1  0
 23 24  2  0
 24 25  1  0
 25 26  1  0
 26 27  2  0
 26 28  1  0
 27 29  1  0
 28 30  2  0
 29 31  2  0
 30 31  1  0
M  END
