MAK-UNK-a7992eb3-9-vinylsulfonamide
     RDKit          3D

 33 36  0  0  0  0  0  0  0  0999 V2000
    7.3230   -4.2690   20.9200 C   0  0  0  0  0  0  0  0  0  0  0  0
    6.2650   -5.3600   20.9980 C   0  0  0  0  0  0  0  0  0  0  0  0
    5.0100   -4.7100   22.0630 S   0  0  0  0  0  0  0  0  0  0  0  0
    3.9480   -5.6530   22.2120 O   0  0  0  0  0  0  0  0  0  0  0  0
    4.6360   -3.4660   21.4920 O   0  0  0  0  0  0  0  0  0  0  0  0
    5.6600   -4.4220   23.5660 N   0  0  0  0  0  0  0  0  0  0  0  0
    4.7210   -3.8670   24.5380 C   0  0  0  0  0  0  0  0  0  0  0  0
    6.9590   -3.7810   23.5810 C   0  0  0  0  0  0  0  0  0  0  0  0
    4.5220   -2.4390   24.1360 C   0  0  0  0  0  0  0  0  0  0  0  0
    6.7640   -2.3860   23.6970 C   0  0  0  0  0  0  0  0  0  0  0  0
    5.3960   -2.0270   23.1110 C   0  0  0  0  0  0  0  0  0  0  0  0
    5.5440   -0.7090   22.6560 C   0  0  0  0  0  0  0  0  0  0  0  0
    5.2250   -0.3790   21.5040 O   0  0  0  0  0  0  0  0  0  0  0  0
    6.1320    0.2490   23.6570 N   0  0  0  0  0  0  0  0  0  0  0  0
    6.5860    1.5640   23.0740 C   0  0  0  0  0  0  0  0  0  0  0  0
    5.5670    2.3480   22.3000 C   0  0  0  0  0  0  0  0  0  0  0  0
    7.8720    2.1470   23.1800 C   0  0  0  0  0  0  0  0  0  0  0  0
    5.8570    3.5980   21.7060 C   0  0  0  0  0  0  0  0  0  0  0  0
    8.1400    3.3970   22.5770 C   0  0  0  0  0  0  0  0  0  0  0  0
    8.9440    1.6140   23.8390 O   0  0  0  0  0  0  0  0  0  0  0  0
    7.2270    4.1760   21.8440 C   0  0  0  0  0  0  0  0  0  0  0  0
    9.9430    0.9810   23.0080 C   0  0  0  0  0  0  0  0  0  0  0  0
   10.0420   -0.4120   23.0950 C   0  0  0  0  0  0  0  0  0  0  0  0
   11.2290   -1.0890   23.2010 C   0  0  0  0  0  0  0  0  0  0  0  0
    9.1970   -1.0560   24.2090 C   0  0  0  0  0  0  0  0  0  0  0  0
    9.2510   -1.0220   21.9370 C   0  0  0  0  0  0  0  0  0  0  0  0
   11.6950   -1.5940   24.4150 C   0  0  0  0  0  0  0  0  0  0  0  0
   11.9870   -1.3140   22.0880 N   0  0  0  0  0  0  0  0  0  0  0  0
    9.2680   -2.3750   23.7470 C   0  0  0  0  0  0  0  0  0  0  0  0
    9.2070   -2.3440   22.3570 C   0  0  0  0  0  0  0  0  0  0  0  0
   12.8480   -2.2930   24.5400 C   0  0  0  0  0  0  0  0  0  0  0  0
   13.1540   -1.9840   22.0170 C   0  0  0  0  0  0  0  0  0  0  0  0
   13.5890   -2.5120   23.3960 C   0  0  0  0  0  0  0  0  0  0  0  0
  1  2  1  0
  3  2  1  0
  3  4  2  0
  3  5  2  0
  3  6  1  0
  6  7  1  0
  6  8  1  0
  7  9  1  0
  8 10  1  0
  9 11  1  0
 10 11  1  0
 11 12  1  0
 12 13  2  0
 12 14  1  0
 14 15  1  0
 15 16  2  0
 15 17  1  0
 16 18  1  0
 17 19  2  0
 17 20  1  0
 18 21  2  0
 19 21  1  0
 20 22  1  0
 23 22  1  0
 23 24  1  0
 23 25  1  0
 23 26  1  0
 24 27  2  0
 24 28  1  0
 25 29  1  0
 26 30  1  0
 29 30  1  0
 27 31  1  0
 28 32  2  0
 31 33  2  0
 32 33  1  0
M  END
