MAK-UNK-849bee6c-22-acrylamide
     RDKit          3D

 30 32  0  0  0  0  0  0  0  0999 V2000
    7.0070   -3.1000   19.2010 C   0  0  0  0  0  0  0  0  0  0  0  0
    5.7590   -3.6040   19.9250 C   0  0  0  0  0  0  0  0  0  0  0  0
    5.6730   -3.2670   21.4090 C   0  0  0  0  0  0  0  0  0  0  0  0
    4.7520   -3.7720   22.0420 O   0  0  0  0  0  0  0  0  0  0  0  0
    6.5790   -2.4170   22.0380 N   0  0  0  0  0  0  0  0  0  0  0  0
    6.2990   -0.9950   21.8710 C   0  0  0  0  0  0  0  0  0  0  0  0
    6.9320   -2.8280   23.4140 C   0  0  0  0  0  0  0  0  0  0  0  0
    7.2610   -0.0830   22.6170 C   0  0  0  0  0  0  0  0  0  0  0  0
    7.7410   -1.8100   24.2120 C   0  0  0  0  0  0  0  0  0  0  0  0
    7.3100   -0.4100   24.0430 N   0  0  0  0  0  0  0  0  0  0  0  0
    7.9400    0.3970   24.9990 C   0  0  0  0  0  0  0  0  0  0  0  0
    9.4210    0.5460   24.7070 C   0  0  0  0  0  0  0  0  0  0  0  0
    9.9350    1.6760   23.9050 C   0  0  0  0  0  0  0  0  0  0  0  0
   10.3380   -0.4010   25.1860 C   0  0  0  0  0  0  0  0  0  0  0  0
   11.2800    1.8310   23.5920 C   0  0  0  0  0  0  0  0  0  0  0  0
   11.7170   -0.3240   24.9170 C   0  0  0  0  0  0  0  0  0  0  0  0
   11.8530    2.8600   22.8470 C   0  0  0  0  0  0  0  0  0  0  0  0
   12.2290    0.7270   24.1410 C   0  0  0  0  0  0  0  0  0  0  0  0
   12.7760   -1.2520   25.3260 N   0  0  0  0  0  0  0  0  0  0  0  0
   12.8710   -1.9310   24.1090 C   0  0  0  0  0  0  0  0  0  0  0  0
   11.8150   -1.4120   23.4890 C   0  0  0  0  0  0  0  0  0  0  0  0
   13.6960   -2.8820   23.4560 N   0  0  0  0  0  0  0  0  0  0  0  0
   11.8240   -1.9390   22.3580 C   0  0  0  0  0  0  0  0  0  0  0  0
   13.3200   -3.2390   22.0740 C   0  0  0  0  0  0  0  0  0  0  0  0
   11.1220   -1.7760   21.4390 N   0  0  0  0  0  0  0  0  0  0  0  0
   12.3430   -2.7320   21.5190 N   0  0  0  0  0  0  0  0  0  0  0  0
   13.9570   -4.2300   21.0560 C   0  0  0  0  0  0  0  0  0  0  0  0
   12.1110   -2.3340   20.7020 C   0  0  0  0  0  0  0  0  0  0  0  0
   14.4320   -5.0220   20.3530 N   0  0  0  0  0  0  0  0  0  0  0  0
   12.0920   -3.7520   20.1700 C   0  0  0  0  0  0  0  0  0  0  0  0
  1  2  1  0
  2  3  1  0
  3  4  2  0
  3  5  1  0
  5  6  1  0
  5  7  1  0
  6  8  1  0
  7  9  1  0
  8 10  1  0
  9 10  1  0
 10 11  1  0
 11 12  1  0
 12 13  2  0
 12 14  1  0
 13 15  1  0
 14 16  2  0
 15 17  1  0
 15 18  2  0
 16 18  1  0
 16 19  1  0
 19 20  1  0
 20 21  2  0
 20 22  1  0
 21 23  1  0
 22 24  2  0
 23 25  1  0
 23 26  2  0
 24 26  1  0
 24 27  1  0
 25 28  1  0
 27 29  3  0
 28 30  1  0
M  END
