MAK-UNK-212f693e-9-acrylamide
     RDKit          3D

 16 17  0  0  0  0  0  0  0  0999 V2000
    7.9390   -3.5570   19.5690 C   0  0  0  0  0  0  0  0  0  0  0  0
    6.9290   -2.8570   20.4460 C   0  0  0  0  0  0  0  0  0  0  0  0
    5.7980   -3.8020   20.6750 C   0  0  0  0  0  0  0  0  0  0  0  0
    5.0560   -4.0550   19.7270 O   0  0  0  0  0  0  0  0  0  0  0  0
    5.7160   -4.3820   21.9370 N   0  0  0  0  0  0  0  0  0  0  0  0
    6.7610   -4.0750   22.9220 C   0  0  0  0  0  0  0  0  0  0  0  0
    5.3080   -5.6530   22.2550 C   0  0  0  0  0  0  0  0  0  0  0  0
    6.1260   -4.0170   24.2760 C   0  0  0  0  0  0  0  0  0  0  0  0
    4.5110   -5.6630   23.4040 C   0  0  0  0  0  0  0  0  0  0  0  0
    5.2650   -5.2280   24.4710 N   0  0  0  0  0  0  0  0  0  0  0  0
    4.4270   -5.0380   25.6610 O   0  0  0  0  0  0  0  0  0  0  0  0
    3.5100   -4.0140   25.6360 C   0  0  0  0  0  0  0  0  0  0  0  0
    3.8390   -2.6750   25.7900 C   0  0  0  0  0  0  0  0  0  0  0  0
    2.1270   -4.2050   25.4610 C   0  0  0  0  0  0  0  0  0  0  0  0
    2.5970   -1.7860   25.7320 C   0  0  0  0  0  0  0  0  0  0  0  0
    1.1590   -2.7520   25.4910 S   0  0  0  0  0  0  0  0  0  0  0  0
  1  2  1  0
  2  3  1  0
  3  4  2  0
  3  5  1  0
  5  6  1  0
  5  7  1  0
  6  8  1  0
  7  9  1  0
  8 10  1  0
  9 10  1  0
 10 11  1  0
 11 12  1  0
 12 13  1  0
 12 14  2  0
 13 15  2  0
 14 16  1  0
 15 16  1  0
M  END
