MAK-UNK-3c359d2a-1-chloroacetamide
     RDKit          3D

 25 27  0  0  0  0  0  0  0  0999 V2000
    7.1470   -2.9580   18.7460 C   0  0  0  0  0  0  0  0  0  0  0  0
    6.1880   -3.2880   19.8620 C   0  0  0  0  0  0  0  0  0  0  0  0
    5.3520   -4.1860   19.7510 O   0  0  0  0  0  0  0  0  0  0  0  0
    6.2980   -2.5340   21.0420 N   0  0  0  0  0  0  0  0  0  0  0  0
    7.1860   -1.3860   20.9990 C   0  0  0  0  0  0  0  0  0  0  0  0
    6.1230   -3.0950   22.3770 C   0  0  0  0  0  0  0  0  0  0  0  0
    8.5120   -1.6470   21.7330 C   0  0  0  0  0  0  0  0  0  0  0  0
    7.4810   -3.3030   23.0810 C   0  0  0  0  0  0  0  0  0  0  0  0
    8.3120   -2.2130   23.0690 N   0  0  0  0  0  0  0  0  0  0  0  0
    9.3890   -2.3260   24.0110 C   0  0  0  0  0  0  0  0  0  0  0  0
   10.5140   -1.3620   23.7130 C   0  0  0  0  0  0  0  0  0  0  0  0
   11.7530   -1.8270   22.9750 C   0  0  0  0  0  0  0  0  0  0  0  0
   10.4250   -0.0190   24.1150 C   0  0  0  0  0  0  0  0  0  0  0  0
   12.7980   -0.8080   22.7270 C   0  0  0  0  0  0  0  0  0  0  0  0
   11.4510    0.8960   23.8470 C   0  0  0  0  0  0  0  0  0  0  0  0
   12.6090    0.5090   23.1700 C   0  0  0  0  0  0  0  0  0  0  0  0
   11.2810    2.0490   24.2470 O   0  0  0  0  0  0  0  0  0  0  0  0
   10.3430    2.9010   23.7030 C   0  0  2  0  0  0  0  0  0  0  0  0
    9.2700    2.4790   22.8220 C   0  0  0  0  0  0  0  0  0  0  0  0
   11.0670    3.9410   23.1170 C   0  0  0  0  0  0  0  0  0  0  0  0
    8.4240    3.5160   22.4490 C   0  0  0  0  0  0  0  0  0  0  0  0
   10.2970    5.1080   23.1520 C   0  0  1  0  0  0  0  0  0  0  0  0
    8.8040    4.7850   22.8940 C   0  0  0  0  0  0  0  0  0  0  0  0
   10.3960    5.6610   24.2640 O   0  0  0  0  0  0  0  0  0  0  0  0
   11.7090    6.1590   24.5440 C   0  0  0  0  0  0  0  0  0  0  0  0
  1  2  1  0
  2  3  2  0
  2  4  1  0
  4  5  1  0
  4  6  1  0
  5  7  1  0
  6  8  1  0
  7  9  1  0
  8  9  1  0
  9 10  1  0
 10 11  1  0
 11 12  2  0
 11 13  1  0
 12 14  1  0
 13 15  2  0
 14 16  2  0
 15 16  1  0
 15 17  1  0
 18 17  1  6
 18 19  1  0
 18 20  1  0
 19 21  1  0
 20 22  1  0
 21 23  1  0
 22 23  1  0
 22 24  1  1
 24 25  1  0
M  END
