MAK-UNK-de9577cf-20
     RDKit          3D

 37 40  0  0  0  0  0  0  0  0999 V2000
   12.3650   -4.7630   20.1540 C   0  0  0  0  0  0  0  0  0  0  0  0
   11.3980   -5.2320   19.1480 N   0  0  0  0  0  0  0  0  0  0  0  0
   10.1290   -5.1660   19.5080 C   0  0  0  0  0  0  0  0  0  0  0  0
   10.1600   -4.1450   20.2990 C   0  0  0  0  0  0  0  0  0  0  0  0
    9.2900   -3.2550   21.0180 C   0  0  0  0  0  0  0  0  0  0  0  0
   11.4200   -3.7670   20.5210 C   0  0  0  0  0  0  0  0  0  0  0  0
   10.0910   -2.2090   21.7570 C   0  0  0  0  0  0  0  0  0  0  0  0
   11.4320   -2.6660   21.3360 N   0  0  0  0  0  0  0  0  0  0  0  0
    9.5630   -1.0910   22.6310 C   0  0  0  0  0  0  0  0  0  0  0  0
   12.9530   -2.1830   21.6270 S   0  0  0  0  0  0  0  0  0  0  0  0
    8.6970   -0.1690   22.0540 C   0  0  0  0  0  0  0  0  0  0  0  0
    9.8880   -0.9330   23.9900 C   0  0  0  0  0  0  0  0  0  0  0  0
   13.5750   -3.4260   21.9550 O   0  0  0  0  0  0  0  0  0  0  0  0
   13.5390   -1.2910   20.6610 O   0  0  0  0  0  0  0  0  0  0  0  0
   12.8880   -1.5540   23.0620 C   0  0  0  0  0  0  0  0  0  0  0  0
    8.1450    0.8950   22.7740 C   0  0  0  0  0  0  0  0  0  0  0  0
    9.3250    0.1400   24.7020 C   0  0  0  0  0  0  0  0  0  0  0  0
   10.7120   -1.7730   24.6200 F   0  0  0  0  0  0  0  0  0  0  0  0
   13.4720   -2.3530   24.1590 C   0  0  0  0  0  0  0  0  0  0  0  0
   12.2650   -0.3370   23.0900 C   0  0  0  0  0  0  0  0  0  0  0  0
    8.4600    1.0540   24.1210 C   0  0  0  0  0  0  0  0  0  0  0  0
   13.3920   -1.8340   25.3850 C   0  0  0  0  0  0  0  0  0  0  0  0
   12.1520    0.2330   24.2720 C   0  0  0  0  0  0  0  0  0  0  0  0
   12.7230   -0.5120   25.4610 C   0  0  0  0  0  0  0  0  0  0  0  0
   11.5910    1.3260   24.3540 O   0  0  0  0  0  0  0  0  0  0  0  0
   11.9090    2.3280   23.4030 C   0  0  0  0  0  0  0  0  0  0  0  0
   13.0120    2.2820   22.5360 O   0  0  0  0  0  0  0  0  0  0  0  0
   11.0080    3.5410   23.3190 C   0  0  0  0  0  0  0  0  0  0  0  0
   11.6780    4.8440   22.9080 C   0  0  0  0  0  0  0  0  0  0  0  0
    9.6530    3.4300   23.6070 C   0  0  0  0  0  0  0  0  0  0  0  0
   10.7430    6.0490   22.8190 C   0  0  0  0  0  0  0  0  0  0  0  0
    8.7850    4.5230   23.5290 C   0  0  0  0  0  0  0  0  0  0  0  0
    9.2680    5.7880   23.1520 C   0  0  0  0  0  0  0  0  0  0  0  0
    8.1220    7.1260   23.0460 S   0  0  0  0  0  0  0  0  0  0  0  0
    7.7970    7.0140   21.4050 N   0  0  0  0  0  0  0  0  0  0  0  0
    6.9090    6.7680   23.7410 O   0  0  0  0  0  0  0  0  0  0  0  0
    8.8150    8.3670   23.2640 O   0  0  0  0  0  0  0  0  0  0  0  0
  1  2  1  0
  2  3  1  0
  3  4  1  0
  4  5  1  0
  4  6  2  0
  5  7  2  0
  6  8  1  0
  7  8  1  0
  7  9  1  0
  8 10  1  0
  9 11  2  0
  9 12  1  0
 10 13  2  0
 10 14  2  0
 10 15  1  0
 11 16  1  0
 12 17  2  0
 12 18  1  0
 15 19  2  0
 15 20  1  0
 16 21  2  0
 17 21  1  0
 19 22  1  0
 20 23  2  0
 22 24  2  0
 23 24  1  0
 23 25  1  0
 25 26  1  0
 26 27  2  0
 26 28  1  0
 28 29  2  0
 28 30  1  0
 29 31  1  0
 30 32  2  0
 31 33  2  0
 32 33  1  0
 33 34  1  0
 34 35  1  0
 34 36  2  0
 34 37  2  0
M  END
