MAK-UNK-f983951f-26-chloroacetamide
     RDKit          3D

 15 15  0  0  0  0  0  0  0  0999 V2000
    7.5080   -3.7880   20.5380 C   0  0  0  0  0  0  0  0  0  0  0  0
    6.3010   -4.6620   20.7760 C   0  0  0  0  0  0  0  0  0  0  0  0
    5.3750   -4.7610   19.9680 O   0  0  0  0  0  0  0  0  0  0  0  0
    6.3210   -5.3390   21.9770 N   0  0  0  0  0  0  0  0  0  0  0  0
    5.1650   -6.0900   22.4840 C   0  0  0  0  0  0  0  0  0  0  0  0
    4.4220   -5.2340   23.5350 C   0  0  0  0  0  0  0  0  0  0  0  0
    5.4110   -4.9040   24.6450 C   0  0  0  0  0  0  0  0  0  0  0  0
    3.0690   -4.7930   23.5330 C   0  0  0  0  0  0  0  0  0  0  0  0
    4.8330   -4.0450   25.7600 C   0  0  0  0  0  0  0  0  0  0  0  0
    2.5630   -3.9980   24.5460 C   0  0  0  0  0  0  0  0  0  0  0  0
    3.3730   -3.6250   25.5850 C   0  0  0  0  0  0  0  0  0  0  0  0
    2.9270   -2.7130   26.7050 C   0  0  0  0  0  0  0  0  0  0  0  0
    2.4250   -1.8030   27.2020 N   0  0  0  0  0  0  0  0  0  0  0  0
    0.9810   -1.8110   26.9490 C   0  0  0  0  0  0  0  0  0  0  0  0
    3.0000   -0.5880   26.6250 C   0  0  0  0  0  0  0  0  0  0  0  0
  1  2  1  0
  2  3  2  0
  2  4  1  0
  4  5  1  0
  5  6  1  0
  6  7  2  0
  6  8  1  0
  7  9  1  0
  8 10  2  0
  9 11  2  0
 10 11  1  0
 11 12  1  0
 12 13  1  0
 13 14  1  0
 13 15  1  0
M  END
