MAK-UNK-c44f4be0-8
     RDKit          3D

 32 33  0  0  0  0  0  0  0  0999 V2000
    6.0380    3.2660   23.5430 O   0  0  0  0  0  0  0  0  0  0  0  0
    7.1560    3.3640   23.0520 C   0  0  0  0  0  0  0  0  0  0  0  0
    7.9380    4.6810   23.0300 C   0  0  0  0  0  0  0  0  0  0  0  0
    7.8740    2.3690   22.4790 N   0  0  0  0  0  0  0  0  0  0  0  0
    9.2610    4.6400   24.2480 S   0  0  0  0  0  0  0  0  0  0  0  0
    7.6650    1.0320   22.9350 C   0  0  1  0  0  0  0  0  0  0  0  0
   10.0740    3.4900   23.9770 O   0  0  0  0  0  0  0  0  0  0  0  0
    8.7540    4.9620   25.5610 O   0  0  0  0  0  0  0  0  0  0  0  0
   10.1800    5.9460   23.7940 N   0  0  0  0  0  0  0  0  0  0  0  0
    6.4820    0.4130   22.4990 C   0  0  0  0  0  0  0  0  0  0  0  0
    8.8220    0.3390   22.4760 C   0  0  0  0  0  0  0  0  0  0  0  0
    9.5510    7.0280   23.1740 C   0  0  0  0  0  0  0  0  0  0  0  0
    6.3460    0.4450   21.1140 C   0  0  0  0  0  0  0  0  0  0  0  0
    9.7330    0.9140   21.8890 O   0  0  0  0  0  0  0  0  0  0  0  0
    8.8590   -1.0850   22.7610 N   0  0  0  0  0  0  0  0  0  0  0  0
    8.9230    8.0120   24.1400 C   0  0  0  0  0  0  0  0  0  0  0  0
    7.0160   -0.4080   20.2380 C   0  0  0  0  0  0  0  0  0  0  0  0
    5.4730    1.4140   20.5790 C   0  0  0  0  0  0  0  0  0  0  0  0
    9.7610   -1.9240   22.1310 C   0  0  0  0  0  0  0  0  0  0  0  0
    7.8360    8.9300   23.5740 C   0  0  0  0  0  0  0  0  0  0  0  0
    6.8310   -0.3000   18.8890 C   0  0  0  0  0  0  0  0  0  0  0  0
    5.2530    1.5630   19.2150 C   0  0  0  0  0  0  0  0  0  0  0  0
   11.0820   -1.3850   22.0910 C   0  0  0  0  0  0  0  0  0  0  0  0
    6.9640    8.2050   22.5620 C   0  0  0  0  0  0  0  0  0  0  0  0
    7.6750   10.2730   23.9500 C   0  0  0  0  0  0  0  0  0  0  0  0
    5.9050    0.7370   18.3170 C   0  0  0  0  0  0  0  0  0  0  0  0
   12.0180   -1.7640   23.0360 C   0  0  0  0  0  0  0  0  0  0  0  0
    5.8440    9.0010   21.9170 C   0  0  0  0  0  0  0  0  0  0  0  0
    6.6520   11.0530   23.3800 C   0  0  0  0  0  0  0  0  0  0  0  0
    5.6940    0.8930   17.0130 O   0  0  0  0  0  0  0  0  0  0  0  0
   13.2690   -2.2940   24.3580 Br  0  0  0  0  0  0  0  0  0  0  0  0
    5.6740   10.4690   22.3320 C   0  0  0  0  0  0  0  0  0  0  0  0
  1  2  2  0
  2  3  1  0
  2  4  1  0
  3  5  1  0
  4  6  1  0
  5  7  2  0
  5  8  2  0
  5  9  1  0
  6 10  1  6
  6 11  1  0
  9 12  1  0
 10 13  1  0
 11 14  2  0
 11 15  1  0
 12 16  1  0
 13 17  2  0
 13 18  1  0
 15 19  1  0
 16 20  1  0
 17 21  1  0
 18 22  2  0
 19 23  1  0
 20 24  2  0
 20 25  1  0
 21 26  2  0
 22 26  1  0
 23 27  3  0
 24 28  1  0
 25 29  2  0
 26 30  1  0
 27 31  1  0
 28 32  2  0
 29 32  1  0
M  END
