MAK-UNK-1e8f9e3c-4-nitrile
     RDKit          3D

 24 26  0  0  0  0  0  0  0  0999 V2000
    6.6210   -4.0150   19.4180 C   0  0  0  0  0  0  0  0  0  0  0  0
    6.3900   -3.1360   18.4990 N   0  0  0  0  0  0  0  0  0  0  0  0
    5.7770   -4.3290   20.3690 N   0  0  0  0  0  0  0  0  0  0  0  0
    6.3340   -5.0170   21.4290 C   0  0  0  0  0  0  0  0  0  0  0  0
    6.1690   -6.2880   21.7720 C   0  0  0  0  0  0  0  0  0  0  0  0
    7.1550   -4.2630   22.1580 C   0  0  0  0  0  0  0  0  0  0  0  0
    6.8600   -6.7370   22.8340 C   0  0  0  0  0  0  0  0  0  0  0  0
    8.0200   -4.5070   23.3640 C   0  0  0  0  0  0  0  0  0  0  0  0
    7.1200   -2.8940   21.5880 C   0  0  0  0  0  0  0  0  0  0  0  0
    7.8520   -5.8680   23.7240 C   0  0  0  0  0  0  0  0  0  0  0  0
    8.0060   -2.3650   20.9710 O   0  0  0  0  0  0  0  0  0  0  0  0
    5.8590   -2.5560   21.9160 N   0  0  0  0  0  0  0  0  0  0  0  0
    5.1440   -3.5490   22.6500 C   0  0  0  0  0  0  0  0  0  0  0  0
    4.8960   -5.0120   22.2350 C   0  0  0  0  0  0  0  0  0  0  0  0
    4.6360   -3.1570   23.8590 C   0  0  0  0  0  0  0  0  0  0  0  0
    4.1770   -5.8480   23.1050 C   0  0  0  0  0  0  0  0  0  0  0  0
    3.9290   -4.0260   24.6840 C   0  0  0  0  0  0  0  0  0  0  0  0
    3.7040   -5.3610   24.3060 C   0  0  0  0  0  0  0  0  0  0  0  0
    3.4520   -3.5240   25.8970 N   0  0  0  0  0  0  0  0  0  0  0  0
    2.0320   -3.5570   26.1710 C   0  0  0  0  0  0  0  0  0  0  0  0
    4.0750   -2.4170   26.5250 C   0  0  0  0  0  0  0  0  0  0  0  0
    1.8780   -2.3650   27.0610 C   0  0  0  0  0  0  0  0  0  0  0  0
    3.0850   -1.7430   27.4520 C   0  0  0  0  0  0  0  0  0  0  0  0
    5.2180   -2.0070   26.3840 O   0  0  0  0  0  0  0  0  0  0  0  0
  1  2  2  3
  1  3  1  0
  3  4  1  0
  4  5  2  0
  4  6  1  0
  5  7  1  0
  6  8  2  0
  6  9  1  0
  7 10  2  0
  8 10  1  0
  9 11  2  0
  9 12  1  0
 12 13  1  0
 13 14  2  0
 13 15  1  0
 14 16  1  0
 15 17  2  0
 16 18  2  0
 17 18  1  0
 17 19  1  0
 19 20  1  0
 19 21  1  0
 20 22  1  0
 21 23  1  0
 22 23  1  0
 21 24  2  0
M  END
