MAK-UNK-30aad1f1-7-bromoalkyne
     RDKit          3D

 26 28  0  0  0  0  0  0  0  0999 V2000
    6.6510   -4.2230   20.3670 C   0  0  0  0  0  0  0  0  0  0  0  0
    6.0300   -3.3930   19.4910 C   0  0  0  0  0  0  0  0  0  0  0  0
    7.6970   -3.8570   21.3740 C   0  0  0  0  0  0  0  0  0  0  0  0
    7.5950   -4.6210   22.6800 C   0  0  0  0  0  0  0  0  0  0  0  0
    8.7640   -2.9420   21.2810 C   0  0  0  0  0  0  0  0  0  0  0  0
    8.6920   -4.3410   23.6750 C   0  0  0  0  0  0  0  0  0  0  0  0
    9.7740   -2.7040   22.2260 N   0  0  0  0  0  0  0  0  0  0  0  0
    9.8300   -3.3720   23.4140 C   0  0  0  0  0  0  0  0  0  0  0  0
   10.9350   -3.2190   24.3770 N   0  0  0  0  0  0  0  0  0  0  0  0
   12.2250   -2.4550   24.1540 C   0  0  0  0  0  0  0  0  0  0  0  0
   11.5450   -1.4040   23.8110 C   0  0  0  0  0  0  0  0  0  0  0  0
   11.1960   -1.3540   22.4690 C   0  0  0  0  0  0  0  0  0  0  0  0
   11.1460   -0.4700   24.7420 C   0  0  0  0  0  0  0  0  0  0  0  0
   10.3400   -0.3510   22.0550 C   0  0  0  0  0  0  0  0  0  0  0  0
   10.2350    0.6090   24.2840 C   0  0  0  0  0  0  0  0  0  0  0  0
    9.8690    0.5810   22.9620 C   0  0  0  0  0  0  0  0  0  0  0  0
    9.0260    1.4780   22.5980 N   0  0  0  0  0  0  0  0  0  0  0  0
    8.2590    1.1270   21.4120 C   0  0  0  0  0  0  0  0  0  0  0  0
    8.3480    1.7610   20.4160 O   0  0  0  0  0  0  0  0  0  0  0  0
    7.4140    0.0770   21.4480 N   0  0  0  0  0  0  0  0  0  0  0  0
    6.5910    0.3390   20.2500 C   0  0  0  0  0  0  0  0  0  0  0  0
    5.3100    1.0980   20.4320 C   0  0  0  0  0  0  0  0  0  0  0  0
    6.9540   -0.0510   18.9760 C   0  0  0  0  0  0  0  0  0  0  0  0
    4.6270    1.3500   19.3290 C   0  0  0  0  0  0  0  0  0  0  0  0
    6.2420    0.2160   17.8290 N   0  0  0  0  0  0  0  0  0  0  0  0
    5.0700    0.9240   17.9800 C   0  0  0  0  0  0  0  0  0  0  0  0
  1  2  2  3
  1  3  1  0
  3  4  2  0
  3  5  1  0
  4  6  1  0
  5  7  2  0
  6  8  2  0
  7  8  1  0
  8  9  1  0
  9 10  1  0
 10 11  1  0
 11 12  2  0
 11 13  1  0
 12 14  1  0
 13 15  2  0
 14 16  2  0
 15 16  1  0
 16 17  1  0
 17 18  1  0
 18 19  2  0
 18 20  1  0
 20 21  1  0
 21 22  2  0
 21 23  1  0
 22 24  1  0
 23 25  2  0
 24 26  2  0
 25 26  1  0
M  END
