MAK-UNK-849bee6c-7-bromoalkyne
     RDKit          3D

 23 25  0  0  0  0  0  0  0  0999 V2000
    6.9330   -3.3410   19.6000 C   0  0  0  0  0  0  0  0  0  0  0  0
    5.9650   -2.8090   18.6140 C   0  0  0  0  0  0  0  0  0  0  0  0
    6.9060   -2.8550   20.8850 N   0  0  0  0  0  0  0  0  0  0  0  0
    6.3640   -3.5280   22.0290 C   0  0  0  0  0  0  0  0  0  0  0  0
    7.4660   -1.5390   21.1590 C   0  0  0  0  0  0  0  0  0  0  0  0
    7.3590   -3.5170   23.2030 C   0  0  0  0  0  0  0  0  0  0  0  0
    8.5890   -1.7420   21.9430 C   0  0  0  0  0  0  0  0  0  0  0  0
    8.2700   -2.3490   23.2520 N   0  0  0  0  0  0  0  0  0  0  0  0
    9.3990   -2.3190   24.1410 C   0  0  0  0  0  0  0  0  0  0  0  0
   10.5040   -1.3460   23.7900 C   0  0  0  0  0  0  0  0  0  0  0  0
   11.8680   -1.8450   23.3750 C   0  0  0  0  0  0  0  0  0  0  0  0
   10.2730    0.0370   23.8480 C   0  0  0  0  0  0  0  0  0  0  0  0
   12.8800   -0.8170   23.0560 C   0  0  0  0  0  0  0  0  0  0  0  0
   11.2750    0.9660   23.5270 C   0  0  0  0  0  0  0  0  0  0  0  0
   12.5500    0.5460   23.1430 C   0  0  0  0  0  0  0  0  0  0  0  0
   10.9920    2.3300   23.5760 C   0  0  0  0  0  0  0  0  0  0  0  0
   11.8790    3.4220   23.1020 C   0  0  0  0  0  0  0  0  0  0  0  0
    9.6400    2.8250   24.1520 C   0  0  0  0  0  0  0  0  0  0  0  0
   11.3890    4.7770   23.2340 N   0  0  0  0  0  0  0  0  0  0  0  0
    9.2150    4.1380   24.2540 N   0  0  0  0  0  0  0  0  0  0  0  0
   10.0740    5.0610   23.8050 C   0  0  0  0  0  0  0  0  0  0  0  0
    9.7270    6.3970   23.8700 C   0  0  0  0  0  0  0  0  0  0  0  0
   10.3280    7.2970   24.6780 N   0  0  0  0  0  0  0  0  0  0  0  0
  1  2  2  3
  1  3  1  0
  3  4  1  0
  3  5  1  0
  4  6  1  0
  5  7  1  0
  6  8  1  0
  7  8  1  0
  8  9  1  0
  9 10  1  0
 10 11  2  0
 10 12  1  0
 11 13  1  0
 12 14  2  0
 13 15  2  0
 14 15  1  0
 14 16  1  0
 16 17  2  0
 16 18  1  0
 17 19  1  0
 18 20  2  0
 19 21  2  0
 20 21  1  0
 21 22  1  0
 22 23  3  0
M  END
