MAK-UNK-9e4a73aa-29
     RDKit          3D

 27 30  0  0  0  0  0  0  0  0999 V2000
    5.4420   -3.5430   21.4200 C   0  0  0  0  0  0  0  0  0  0  0  0
    6.6810   -2.8370   21.8730 C   0  0  0  0  0  0  0  0  0  0  0  0
    7.6630   -3.4960   22.7830 C   0  0  0  0  0  0  0  0  0  0  0  0
    6.8820   -1.4340   21.3470 C   0  0  0  0  0  0  0  0  0  0  0  0
    8.7900   -2.7720   23.1410 N   0  0  0  0  0  0  0  0  0  0  0  0
    8.0100   -0.7070   21.7030 C   0  0  0  0  0  0  0  0  0  0  0  0
    8.9710   -1.4260   22.6200 C   0  0  0  0  0  0  0  0  0  0  0  0
    8.2050    0.5480   21.2540 N   0  0  0  0  0  0  0  0  0  0  0  0
    8.9340    1.3530   22.0640 C   0  0  0  0  0  0  0  0  0  0  0  0
    7.2030    1.0980   20.4280 C   0  0  0  0  0  0  0  0  0  0  0  0
    9.9490    0.9970   22.6770 O   0  0  0  0  0  0  0  0  0  0  0  0
    8.5670    2.6860   22.2660 C   0  0  0  0  0  0  0  0  0  0  0  0
    6.5810    2.2480   20.9290 N   0  0  0  0  0  0  0  0  0  0  0  0
    6.8840    0.6160   19.3400 O   0  0  0  0  0  0  0  0  0  0  0  0
    9.3740    3.5250   23.0170 C   0  0  0  0  0  0  0  0  0  0  0  0
    7.2890    3.1800   21.6560 C   0  0  0  0  0  0  0  0  0  0  0  0
    5.2380    2.3550   20.8670 C   0  0  0  0  0  0  0  0  0  0  0  0
    9.0150    4.9990   23.2670 C   0  0  0  0  0  0  0  0  0  0  0  0
    6.8820    4.5150   21.8350 C   0  0  0  0  0  0  0  0  0  0  0  0
    4.4470    2.4010   21.9350 C   0  0  0  0  0  0  0  0  0  0  0  0
    4.5490    2.4260   19.5170 C   0  0  0  0  0  0  0  0  0  0  0  0
    9.8210    5.7830   23.9980 F   0  0  0  0  0  0  0  0  0  0  0  0
    7.7240    5.5240   22.6560 C   0  0  0  0  0  0  0  0  0  0  0  0
    3.0000    2.5130   21.8540 C   0  0  0  0  0  0  0  0  0  0  0  0
    3.1120    2.5390   19.4370 C   0  0  0  0  0  0  0  0  0  0  0  0
    7.2000    7.2200   22.8670 Cl  0  0  0  0  0  0  0  0  0  0  0  0
    2.2840    2.5850   20.5790 C   0  0  0  0  0  0  0  0  0  0  0  0
  1  2  1  0
  2  3  2  0
  2  4  1  0
  3  5  1  0
  4  6  2  0
  5  7  2  0
  6  7  1  0
  6  8  1  0
  8  9  1  0
  8 10  1  0
  9 11  2  0
  9 12  1  0
 10 13  1  0
 10 14  2  0
 12 15  2  0
 12 16  1  0
 13 16  1  0
 13 17  1  0
 15 18  1  0
 16 19  2  0
 17 20  2  0
 17 21  1  0
 18 22  1  0
 18 23  2  0
 19 23  1  0
 20 24  1  0
 21 25  2  0
 23 26  1  0
 24 27  2  0
 25 27  1  0
M  END
