MAK-UNK-10799360-29-vinylsulfonamide
     RDKit          3D

 28 31  0  0  0  0  0  0  0  0999 V2000
    7.8250   -3.8270   20.0130 C   0  0  0  0  0  0  0  0  0  0  0  0
    7.2300   -2.7610   19.0990 C   0  0  0  0  0  0  0  0  0  0  0  0
    5.5960   -2.6390   19.7000 S   0  0  0  0  0  0  0  0  0  0  0  0
    4.8940   -3.8850   19.5030 O   0  0  0  0  0  0  0  0  0  0  0  0
    5.0500   -1.4610   19.1570 O   0  0  0  0  0  0  0  0  0  0  0  0
    5.8910   -2.3640   21.3310 N   0  0  0  0  0  0  0  0  0  0  0  0
    5.8420   -3.3990   22.3540 C   0  0  0  0  0  0  0  0  0  0  0  0
    6.8210   -1.3070   21.7570 C   0  0  1  0  0  0  0  0  0  0  0  0
    6.7140   -2.7370   23.4450 C   0  0  2  0  0  0  0  0  0  0  0  0
    6.4110   -1.2510   23.2260 C   0  0  0  0  0  0  0  0  0  0  0  0
    8.2740   -1.8210   21.9260 C   0  0  0  0  0  0  0  0  0  0  0  0
    8.1270   -2.8230   23.0240 N   0  0  0  0  0  0  0  0  0  0  0  0
    9.0440   -2.8310   24.1600 C   0  0  0  0  0  0  0  0  0  0  0  0
   10.3550   -2.1440   23.8870 C   0  0  0  0  0  0  0  0  0  0  0  0
   10.5520   -0.8490   23.5320 C   0  0  0  0  0  0  0  0  0  0  0  0
   11.6080   -2.6970   23.9370 N   0  0  0  0  0  0  0  0  0  0  0  0
   11.7720   -0.6140   23.3630 N   0  0  0  0  0  0  0  0  0  0  0  0
   12.4880   -1.7400   23.6120 N   0  0  0  0  0  0  0  0  0  0  0  0
   12.2090    0.5760   22.9820 C   0  0  0  0  0  0  0  0  0  0  0  0
   13.4280    0.4940   22.4260 C   0  0  0  0  0  0  0  0  0  0  0  0
   11.5380    1.7760   23.1090 C   0  0  0  0  0  0  0  0  0  0  0  0
   14.0400    1.6050   21.9860 C   0  0  0  0  0  0  0  0  0  0  0  0
   12.1400    2.9570   22.6840 C   0  0  0  0  0  0  0  0  0  0  0  0
   13.3950    2.9560   22.1090 C   0  0  0  0  0  0  0  0  0  0  0  0
   11.1620    4.3400   22.9710 S   0  0  0  0  0  0  0  0  0  0  0  0
    9.6880    3.8630   22.3300 N   0  0  0  0  0  0  0  0  0  0  0  0
   10.9240    4.4810   24.3960 O   0  0  0  0  0  0  0  0  0  0  0  0
   11.6550    5.4580   22.1880 O   0  0  0  0  0  0  0  0  0  0  0  0
  1  2  1  0
  3  2  1  0
  3  4  2  0
  3  5  2  0
  3  6  1  0
  6  7  1  0
  6  8  1  0
  9  7  1  6
  8 10  1  0
  9 10  1  0
  8 11  1  1
  9 12  1  0
 11 12  1  0
 12 13  1  0
 13 14  1  0
 14 15  2  0
 14 16  1  0
 15 17  1  0
 16 18  2  0
 17 18  1  0
 17 19  1  0
 19 20  2  0
 19 21  1  0
 20 22  1  0
 21 23  2  0
 22 24  2  0
 23 24  1  0
 23 25  1  0
 25 26  1  0
 25 27  2  0
 25 28  2  0
M  END
