MAK-UNK-ec98eaf6-13-vinylsulfonamide
     RDKit          3D

 22 24  0  0  0  0  0  0  0  0999 V2000
    7.5990   -2.9570   18.1750 C   0  0  0  0  0  0  0  0  0  0  0  0
    6.9650   -2.2160   19.2600 C   0  0  0  0  0  0  0  0  0  0  0  0
    5.8370   -3.2100   20.1830 S   0  0  0  0  0  0  0  0  0  0  0  0
    4.5210   -3.0030   19.7100 O   0  0  0  0  0  0  0  0  0  0  0  0
    6.2470   -4.5550   20.4260 O   0  0  0  0  0  0  0  0  0  0  0  0
    6.1840   -2.3590   21.5290 N   0  0  0  0  0  0  0  0  0  0  0  0
    5.8760   -2.9470   22.8680 C   0  0  0  0  0  0  0  0  0  0  0  0
    7.6320   -1.9960   21.5540 C   0  0  2  0  0  0  0  0  0  0  0  0
    7.3440   -3.0820   23.3410 C   0  0  1  0  0  0  0  0  0  0  0  0
    8.1740   -3.2900   22.1280 C   0  0  0  0  0  0  0  0  0  0  0  0
    7.8420   -0.9490   22.4090 C   0  0  0  0  0  0  0  0  0  0  0  0
    7.9210   -1.7440   23.6640 N   0  0  0  0  0  0  0  0  0  0  0  0
    9.1990   -1.8350   24.3460 C   0  0  0  0  0  0  0  0  0  0  0  0
    9.4680   -3.1530   24.5300 F   0  0  0  0  0  0  0  0  0  0  0  0
    8.8920   -1.2640   25.5330 F   0  0  0  0  0  0  0  0  0  0  0  0
   10.3210   -1.1990   23.8460 C   0  0  0  0  0  0  0  0  0  0  0  0
   10.5680    0.1040   24.3680 C   0  0  0  0  0  0  0  0  0  0  0  0
   11.1700   -1.7670   22.9120 C   0  0  0  0  0  0  0  0  0  0  0  0
   11.7600    0.9300   23.9360 C   0  0  0  0  0  0  0  0  0  0  0  0
   12.2750   -1.0920   22.4650 C   0  0  0  0  0  0  0  0  0  0  0  0
   12.6910    0.3090   22.9240 C   0  0  0  0  0  0  0  0  0  0  0  0
   13.2420   -1.8810   21.3130 Cl  0  0  0  0  0  0  0  0  0  0  0  0
  1  2  1  0
  3  2  1  0
  3  4  2  0
  3  5  2  0
  3  6  1  0
  6  7  1  0
  6  8  1  0
  9  7  1  6
  8 10  1  0
  9 10  1  0
  8 11  1  1
  9 12  1  0
 11 12  1  0
 12 13  1  0
 13 14  1  0
 13 15  1  0
 13 16  1  0
 16 17  2  0
 16 18  1  0
 17 19  1  0
 18 20  2  0
 19 21  2  0
 20 21  1  0
 20 22  1  0
M  END
