MAK-UNK-f2409524-11
     RDKit          3D

 28 31  0  0  0  0  0  0  0  0999 V2000
   -0.6340    0.6230   20.6460 O   0  0  0  0  0  0  0  0  0  0  0  0
    0.1770    1.4700   20.9910 C   0  0  0  0  0  0  0  0  0  0  0  0
    0.4550    1.7210   22.4290 C   0  0  0  0  0  0  0  0  0  0  0  0
    0.9350    2.2780   20.1400 N   0  0  0  0  0  0  0  0  0  0  0  0
    1.7140    2.4390   22.8600 C   0  0  0  0  0  0  0  0  0  0  0  0
    1.9960    2.9920   20.5180 C   0  0  0  0  0  0  0  0  0  0  0  0
    1.8960    2.6760   24.2980 N   0  0  0  0  0  0  0  0  0  0  0  0
    2.5300    2.8000   21.8970 N   0  0  0  0  0  0  0  0  0  0  0  0
    2.4690    3.7860   19.7110 O   0  0  0  0  0  0  0  0  0  0  0  0
    0.7630    3.4080   24.9100 C   0  0  0  0  0  0  0  0  0  0  0  0
    4.0100    2.7500   22.0640 C   0  0  1  0  0  0  0  0  0  0  0  0
    0.9390    4.7970   24.7600 C   0  0  0  0  0  0  0  0  0  0  0  0
   -0.5400    2.9500   24.6090 C   0  0  0  0  0  0  0  0  0  0  0  0
    4.4200    1.5010   22.6690 O   0  0  0  0  0  0  0  0  0  0  0  0
    4.7860    2.8910   20.9250 C   0  0  1  0  0  0  0  0  0  0  0  0
   -0.0990    5.5900   25.2510 C   0  0  0  0  0  0  0  0  0  0  0  0
   -1.5480    3.7510   25.1720 C   0  0  0  0  0  0  0  0  0  0  0  0
    5.7630    1.2940   22.2140 C   0  0  0  0  0  0  0  0  0  0  0  0
    5.9920    2.4410   21.4620 C   0  0  2  0  0  0  0  0  0  0  0  0
    4.3650    2.0000   19.8620 N   0  0  0  0  0  0  0  0  0  0  0  0
   -1.3820    5.1280   24.9440 C   0  0  0  0  0  0  0  0  0  0  0  0
    6.5490    3.2130   22.2390 O   0  0  0  0  0  0  0  0  0  0  0  0
    5.1810    0.9880   19.4460 C   0  0  0  0  0  0  0  0  0  0  0  0
    4.6690   -0.2820   19.4010 C   0  0  0  0  0  0  0  0  0  0  0  0
    6.5130    1.0510   19.0490 C   0  0  0  0  0  0  0  0  0  0  0  0
    5.3350   -1.4300   19.0020 N   0  0  0  0  0  0  0  0  0  0  0  0
    7.2210   -0.0080   18.6490 N   0  0  0  0  0  0  0  0  0  0  0  0
    6.6230   -1.1550   18.6330 C   0  0  0  0  0  0  0  0  0  0  0  0
  1  2  2  0
  2  3  1  0
  2  4  1  0
  3  5  2  0
  4  6  1  0
  5  7  1  0
  5  8  1  0
  6  8  1  0
  6  9  2  0
  7 10  1  0
 11  8  1  6
 10 12  1  0
 10 13  1  0
 11 14  1  0
 11 15  1  0
 12 16  1  0
 13 17  1  0
 14 18  1  0
 15 19  1  0
 18 19  1  0
 15 20  1  6
 16 21  1  0
 17 21  1  0
 19 22  1  1
 20 23  1  0
 23 24  2  0
 23 25  1  0
 24 26  1  0
 25 27  2  0
 26 28  2  0
 27 28  1  0
M  END
