MAK-UNK-702fb7d3-7-chloroacetamide
     RDKit          3D

 42 47  0  0  0  0  0  0  0  0999 V2000
    8.3210   -3.4220   20.6130 C   0  0  0  0  0  0  0  0  0  0  0  0
    7.0200   -3.9350   21.3150 C   0  0  0  0  0  0  0  0  0  0  0  0
    6.4660   -4.1200   20.0900 O   0  0  0  0  0  0  0  0  0  0  0  0
    7.7950   -3.6660   22.6470 N   0  0  0  0  0  0  0  0  0  0  0  0
    9.1580   -3.2260   23.0610 C   0  0  0  0  0  0  0  0  0  0  0  0
    7.0660   -3.4030   23.8660 C   0  0  2  0  0  0  0  0  0  0  0  0
    9.5550   -3.8390   24.4700 C   0  0  0  0  0  0  0  0  0  0  0  0
    7.2440   -4.5650   24.9230 C   0  0  1  0  0  0  0  0  0  0  0  0
    5.7810   -3.1030   23.5030 N   0  0  0  0  0  0  0  0  0  0  0  0
   11.0620   -3.6240   24.7340 C   0  0  0  0  0  0  0  0  0  0  0  0
    8.5850   -4.4790   25.3060 C   0  0  0  0  0  0  0  0  0  0  0  0
    6.3430   -4.3450   25.9690 C   0  0  0  0  0  0  0  0  0  0  0  0
    5.5850   -2.0170   22.5250 C   0  0  0  0  0  0  0  0  0  0  0  0
   11.1260   -4.3110   26.0990 C   0  0  0  0  0  0  0  0  0  0  0  0
    8.9440   -5.0080   26.4890 C   0  0  0  0  0  0  0  0  0  0  0  0
    5.0080   -4.7400   25.8410 C   0  0  0  0  0  0  0  0  0  0  0  0
    6.8270   -3.7170   27.1480 C   0  0  0  0  0  0  0  0  0  0  0  0
    4.6430   -1.0740   22.9320 C   0  0  0  0  0  0  0  0  0  0  0  0
   10.1910   -4.9420   26.9160 C   0  0  0  0  0  0  0  0  0  0  0  0
    4.0150   -4.4950   27.0110 C   0  0  0  0  0  0  0  0  0  0  0  0
    5.9870   -3.4620   28.2490 C   0  0  0  0  0  0  0  0  0  0  0  0
    4.0870   -0.1550   22.0610 C   0  0  0  0  0  0  0  0  0  0  0  0
    4.0370   -0.8080   24.2130 C   0  0  0  0  0  0  0  0  0  0  0  0
    4.6280   -3.8020   28.2680 C   0  0  0  0  0  0  0  0  0  0  0  0
    3.1550    0.6360   22.8540 C   0  0  0  0  0  0  0  0  0  0  0  0
    3.1130    0.2630   24.1250 N   0  0  0  0  0  0  0  0  0  0  0  0
    2.7640    1.4910   21.5840 C   0  0  0  0  0  0  0  0  0  0  0  0
    2.1890    0.8690   25.4000 S   0  0  0  0  0  0  0  0  0  0  0  0
    1.4010    1.6510   21.2840 C   0  0  0  0  0  0  0  0  0  0  0  0
    3.7380    2.0840   20.7630 C   0  0  0  0  0  0  0  0  0  0  0  0
    2.0130    2.2890   25.1720 O   0  0  0  0  0  0  0  0  0  0  0  0
    2.7040    0.3910   26.6640 O   0  0  0  0  0  0  0  0  0  0  0  0
    0.6440    0.1010   25.0840 C   0  0  0  0  0  0  0  0  0  0  0  0
    0.9940    2.3930   20.1820 C   0  0  0  0  0  0  0  0  0  0  0  0
    3.3130    2.8330   19.6480 C   0  0  0  0  0  0  0  0  0  0  0  0
    5.0490    1.9520   21.0210 F   0  0  0  0  0  0  0  0  0  0  0  0
   -0.2230    0.6180   24.1240 C   0  0  0  0  0  0  0  0  0  0  0  0
    0.2760   -1.0320   25.7890 C   0  0  0  0  0  0  0  0  0  0  0  0
    1.9550    2.9850   19.3620 C   0  0  0  0  0  0  0  0  0  0  0  0
   -1.4390   -0.0280   23.9040 C   0  0  0  0  0  0  0  0  0  0  0  0
   -0.9030   -1.6730   25.5900 N   0  0  0  0  0  0  0  0  0  0  0  0
   -1.7350   -1.1610   24.6540 C   0  0  0  0  0  0  0  0  0  0  0  0
  1  2  1  0
  2  3  2  0
  2  4  1  0
  4  5  1  0
  4  6  1  0
  5  7  1  0
  6  8  1  0
  6  9  1  6
  7 10  1  0
  7 11  2  0
  8 11  1  0
  8 12  1  1
  9 13  1  0
 10 14  2  0
 11 15  1  0
 12 16  2  0
 12 17  1  0
 13 18  1  0
 14 19  1  0
 15 19  2  0
 16 20  1  0
 17 21  2  0
 18 22  1  0
 18 23  2  0
 20 24  2  0
 21 24  1  0
 22 25  2  0
 23 26  1  0
 25 26  1  0
 25 27  1  0
 26 28  1  0
 27 29  2  0
 27 30  1  0
 28 31  2  0
 28 32  2  0
 28 33  1  0
 29 34  1  0
 30 35  2  0
 30 36  1  0
 33 37  2  0
 33 38  1  0
 34 39  2  0
 35 39  1  0
 37 40  1  0
 38 41  2  0
 40 42  2  0
 41 42  1  0
M  END
