MAK-UNK-ec98eaf6-41-bromoalkyne
     RDKit          3D

 29 33  0  0  0  0  0  0  0  0999 V2000
    6.9930   -3.2250   19.5530 C   0  0  0  0  0  0  0  0  0  0  0  0
    6.9730   -2.7510   18.1800 C   0  0  0  0  0  0  0  0  0  0  0  0
    6.2010   -2.3850   20.3630 N   0  0  0  0  0  0  0  0  0  0  0  0
    6.8530   -1.8490   21.5180 C   0  0  0  0  0  0  0  0  0  0  0  0
    6.0010   -1.1120   19.6090 C   0  0  2  0  0  0  0  0  0  0  0  0
    7.3640   -0.4460   21.1290 C   0  0  2  0  0  0  0  0  0  0  0  0
    7.2990   -0.6370   19.5430 C   0  0  0  0  0  0  0  0  0  0  0  0
    5.2890    0.0530   20.3180 C   0  0  0  0  0  0  0  0  0  0  0  0
    8.6340   -0.1840   21.9310 C   0  0  0  0  0  0  0  0  0  0  0  0
    4.0430    0.6330   20.0900 C   0  0  0  0  0  0  0  0  0  0  0  0
    6.1720    0.5030   21.2960 C   0  0  0  0  0  0  0  0  0  0  0  0
    9.2160    1.2380   22.1090 C   0  0  0  0  0  0  0  0  0  0  0  0
    9.2680   -1.2500   22.5350 C   0  0  0  0  0  0  0  0  0  0  0  0
    3.5900    1.8040   20.9280 C   0  0  0  0  0  0  0  0  0  0  0  0
    5.8360    1.5760   22.1150 C   0  0  0  0  0  0  0  0  0  0  0  0
    8.6910    2.3480   21.5700 F   0  0  0  0  0  0  0  0  0  0  0  0
   10.4880    1.3000   22.9870 C   0  0  0  0  0  0  0  0  0  0  0  0
   10.4050   -1.1510   23.3340 C   0  0  0  0  0  0  0  0  0  0  0  0
    8.9150   -2.3810   22.4530 N   0  0  0  0  0  0  0  0  0  0  0  0
    4.5180    2.3090   21.9950 C   0  0  0  0  0  0  0  0  0  0  0  0
   11.0760    0.0510   23.6130 C   0  0  0  0  0  0  0  0  0  0  0  0
   10.6060   -2.4340   23.7110 C   0  0  0  0  0  0  0  0  0  0  0  0
    9.6760   -3.2430   23.1450 C   0  0  0  0  0  0  0  0  0  0  0  0
   11.5600   -2.8870   24.5490 C   0  0  0  0  0  0  0  0  0  0  0  0
   10.9200   -3.6720   25.5010 C   0  0  0  0  0  0  0  0  0  0  0  0
    9.5730   -4.0330   25.0800 N   0  0  0  0  0  0  0  0  0  0  0  0
    9.0580   -5.3930   25.1310 C   0  0  0  0  0  0  0  0  0  0  0  0
    8.1560   -5.7080   23.9590 C   0  0  0  0  0  0  0  0  0  0  0  0
    9.3560   -6.2580   26.1390 O   0  0  0  0  0  0  0  0  0  0  0  0
  1  2  2  3
  1  3  1  0
  3  4  1  0
  5  3  1  1
  4  6  1  0
  5  7  1  0
  6  7  1  0
  5  8  1  0
  6  9  1  1
  8 10  2  0
  6 11  1  0
  8 11  1  0
  9 12  2  0
  9 13  1  0
 10 14  1  0
 11 15  2  0
 12 16  1  0
 12 17  1  0
 13 18  2  0
 13 19  1  0
 14 20  2  0
 15 20  1  0
 17 21  2  0
 18 21  1  0
 18 22  1  0
 19 23  1  0
 22 23  2  0
 22 24  1  0
 24 25  1  0
 25 26  1  0
 26 27  1  0
 27 28  1  0
 27 29  2  0
M  END
