MAK-UNK-148caf23-5-chloroacetamide
     RDKit          3D

 35 38  0  0  0  0  0  0  0  0999 V2000
    8.5950   -4.1240   20.3090 C   0  0  0  0  0  0  0  0  0  0  0  0
    7.8300   -2.9240   20.2610 C   0  0  0  0  0  0  0  0  0  0  0  0
    6.8540   -2.9550   19.2920 O   0  0  0  0  0  0  0  0  0  0  0  0
    8.3590   -1.9910   21.4540 C   0  0  0  0  0  0  0  0  0  0  0  0
    9.6290   -1.0360   21.5800 C   0  0  0  0  0  0  0  0  0  0  0  0
    7.5930   -2.0790   22.5700 C   0  0  0  0  0  0  0  0  0  0  0  0
   10.1510   -0.1670   22.7730 C   0  0  0  0  0  0  0  0  0  0  0  0
    7.9280   -1.3750   23.6970 C   0  0  0  0  0  0  0  0  0  0  0  0
    9.0620   -0.5550   23.7240 C   0  0  0  0  0  0  0  0  0  0  0  0
    7.1470   -1.4350   24.9170 N   0  0  0  0  0  0  0  0  0  0  0  0
    9.3370    0.1280   24.9390 N   0  0  0  0  0  0  0  0  0  0  0  0
    5.7350   -1.8110   24.8910 C   0  0  0  0  0  0  0  0  0  0  0  0
    9.7870   -0.7300   26.0010 C   0  0  0  0  0  0  0  0  0  0  0  0
    4.9400   -0.9740   24.1000 C   0  0  0  0  0  0  0  0  0  0  0  0
    8.7520   -0.6570   27.1760 C   0  0  0  0  0  0  0  0  0  0  0  0
    5.2860   -0.5940   22.8490 C   0  0  0  0  0  0  0  0  0  0  0  0
    3.7070   -0.3510   24.3130 C   0  0  0  0  0  0  0  0  0  0  0  0
    4.2590    0.3160   22.1880 C   0  0  0  0  0  0  0  0  0  0  0  0
    3.3280    0.3920   23.2000 N   0  0  0  0  0  0  0  0  0  0  0  0
    4.4200    0.8960   20.7420 C   0  0  0  0  0  0  0  0  0  0  0  0
    1.8600    1.2460   23.2050 S   0  0  0  0  0  0  0  0  0  0  0  0
    5.4030    0.2280   19.8340 C   0  0  0  0  0  0  0  0  0  0  0  0
    3.7020    2.0070   20.2520 C   0  0  0  0  0  0  0  0  0  0  0  0
    1.0250    0.6140   24.2060 O   0  0  0  0  0  0  0  0  0  0  0  0
    1.3570    1.4120   21.8560 O   0  0  0  0  0  0  0  0  0  0  0  0
    2.2670    2.8520   23.8020 C   0  0  0  0  0  0  0  0  0  0  0  0
    5.6050    0.7420   18.4500 C   0  0  0  0  0  0  0  0  0  0  0  0
    3.8950    2.4900   18.9450 C   0  0  0  0  0  0  0  0  0  0  0  0
    2.8170    2.6280   21.0380 F   0  0  0  0  0  0  0  0  0  0  0  0
    1.0990    3.6780   24.3930 C   0  0  0  0  0  0  0  0  0  0  0  0
    3.6070    3.2420   23.6930 C   0  0  0  0  0  0  0  0  0  0  0  0
    4.7940    1.9150   18.0540 C   0  0  0  0  0  0  0  0  0  0  0  0
    1.9080    5.0010   24.7930 C   0  0  0  0  0  0  0  0  0  0  0  0
    4.1230    4.4070   24.0850 N   0  0  0  0  0  0  0  0  0  0  0  0
    3.2710    5.2590   24.6240 C   0  0  0  0  0  0  0  0  0  0  0  0
  1  2  1  0
  2  3  2  0
  2  4  1  0
  4  5  2  0
  4  6  1  0
  5  7  1  0
  6  8  2  0
  7  9  2  0
  8  9  1  0
  8 10  1  0
  9 11  1  0
 10 12  1  0
 11 13  1  0
 12 14  1  0
 13 15  1  0
 14 16  1  0
 14 17  2  0
 16 18  2  0
 17 19  1  0
 18 19  1  0
 18 20  1  0
 19 21  1  0
 20 22  2  0
 20 23  1  0
 21 24  2  0
 21 25  2  0
 21 26  1  0
 22 27  1  0
 23 28  2  0
 23 29  1  0
 26 30  2  0
 26 31  1  0
 27 32  2  0
 28 32  1  0
 30 33  1  0
 31 34  2  0
 33 35  2  0
 34 35  1  0
M  END
