MAK-UNK-8fdbca50-20-bromoalkyne
     RDKit          3D

 38 41  0  0  0  0  0  0  0  0999 V2000
    7.9210   -3.1000   20.0120 C   0  0  0  0  0  0  0  0  0  0  0  0
    7.5440   -2.5500   18.5450 C   0  0  0  0  0  0  0  0  0  0  0  0
    8.9280   -2.3870   21.1520 N   0  0  0  0  0  0  0  0  0  0  0  0
    8.4300   -1.8350   22.4930 C   0  0  0  0  0  0  0  0  0  0  0  0
   10.4550   -2.5090   21.5390 C   0  0  0  0  0  0  0  0  0  0  0  0
    9.4700   -1.0720   23.2290 C   0  0  0  0  0  0  0  0  0  0  0  0
   11.2880   -1.3280   22.0960 C   0  0  0  0  0  0  0  0  0  0  0  0
   10.2350   -0.2980   22.3890 C   0  0  0  0  0  0  0  0  0  0  0  0
   10.5860    1.0250   22.6960 C   0  0  0  0  0  0  0  0  0  0  0  0
   11.7320    1.2950   23.0450 O   0  0  0  0  0  0  0  0  0  0  0  0
    9.4240    2.0390   22.5380 N   0  0  0  0  0  0  0  0  0  0  0  0
    9.4490    3.2130   23.5180 C   0  0  0  0  0  0  0  0  0  0  0  0
    8.0500    1.6150   22.0830 C   0  0  0  0  0  0  0  0  0  0  0  0
    8.5720    4.7910   23.6340 S   0  0  0  0  0  0  0  0  0  0  0  0
    7.9470    0.5020   21.0660 C   0  0  0  0  0  0  0  0  0  0  0  0
    7.2100    2.7880   21.5770 C   0  0  0  0  0  0  0  0  0  0  0  0
    8.4530    3.7710   22.6450 O   0  0  0  0  0  0  0  0  0  0  0  0
    7.3470    5.7140   22.7380 C   0  0  0  0  0  0  0  0  0  0  0  0
    9.3880    5.2060   25.0480 N   0  0  0  0  0  0  0  0  0  0  0  0
    7.7190    6.6700   21.7600 C   0  0  0  0  0  0  0  0  0  0  0  0
    5.9780    5.5430   22.9590 C   0  0  0  0  0  0  0  0  0  0  0  0
    8.8590    5.2820   26.3100 C   0  0  0  0  0  0  0  0  0  0  0  0
   10.6520    5.5130   25.1110 C   0  0  0  0  0  0  0  0  0  0  0  0
    6.6850    7.4290   21.0270 C   0  0  0  0  0  0  0  0  0  0  0  0
    4.9580    6.2360   22.2960 N   0  0  0  0  0  0  0  0  0  0  0  0
    9.8210    5.6580   27.2300 C   0  0  0  0  0  0  0  0  0  0  0  0
   10.9940    5.8100   26.4430 C   0  0  0  0  0  0  0  0  0  0  0  0
   11.5370    5.5470   24.0610 C   0  0  0  0  0  0  0  0  0  0  0  0
    5.2100    7.1850   21.3270 C   0  0  0  0  0  0  0  0  0  0  0  0
    9.6390    5.8300   28.5960 C   0  0  0  0  0  0  0  0  0  0  0  0
   11.7540    4.3890   23.3330 C   0  0  0  0  0  0  0  0  0  0  0  0
   12.2120    6.7110   23.7200 C   0  0  0  0  0  0  0  0  0  0  0  0
   10.2380    6.9580   29.1240 N   0  0  0  0  0  0  0  0  0  0  0  0
   12.6390    4.3890   22.2700 C   0  0  0  0  0  0  0  0  0  0  0  0
   13.1020    6.7170   22.6570 C   0  0  0  0  0  0  0  0  0  0  0  0
   12.0100    7.8420   24.4210 F   0  0  0  0  0  0  0  0  0  0  0  0
   11.4880    7.1560   28.7630 C   0  0  0  0  0  0  0  0  0  0  0  0
   13.3170    5.5500   21.9280 C   0  0  0  0  0  0  0  0  0  0  0  0
  1  2  2  3
  1  3  1  0
  3  4  1  0
  3  5  1  0
  4  6  1  0
  5  7  1  0
  6  8  1  0
  7  8  1  0
  8  9  1  0
  9 10  2  0
  9 11  1  0
 11 12  1  0
 11 13  1  0
 12 14  2  0
 13 15  1  0
 13 16  1  0
 14 17  2  0
 14 18  1  0
 14 19  1  0
 18 20  2  0
 18 21  1  0
 19 22  1  0
 19 23  1  0
 20 24  1  0
 21 25  2  0
 22 26  2  0
 23 27  2  0
 26 27  1  0
 23 28  1  0
 24 29  2  0
 25 29  1  0
 26 30  1  0
 28 31  2  0
 28 32  1  0
 30 33  1  0
 31 34  1  0
 32 35  2  0
 32 36  1  0
 33 37  1  0
 34 38  2  0
 35 38  1  0
M  END
