MAK-UNK-849bee6c-25-nitrile
     RDKit          3D

 30 32  0  0  0  0  0  0  0  0999 V2000
    7.3980   -3.3230   19.8940 C   0  0  0  0  0  0  0  0  0  0  0  0
    6.1410   -3.6350   19.6340 N   0  0  0  0  0  0  0  0  0  0  0  0
    7.9220   -2.3390   20.8890 N   0  0  0  0  0  0  0  0  0  0  0  0
    7.8640   -0.8730   20.7470 C   0  0  0  0  0  0  0  0  0  0  0  0
    8.7470   -2.6220   22.0750 C   0  0  0  0  0  0  0  0  0  0  0  0
    8.8780    0.0070   21.6670 C   0  0  0  0  0  0  0  0  0  0  0  0
   10.2050   -1.9890   22.0640 C   0  0  0  0  0  0  0  0  0  0  0  0
   10.2890   -0.4890   21.9100 N   0  0  0  0  0  0  0  0  0  0  0  0
   11.4990    0.1170   22.6080 C   0  0  0  0  0  0  0  0  0  0  0  0
   12.0530    1.6530   22.6080 C   0  0  0  0  0  0  0  0  0  0  0  0
   11.0660    2.7180   22.9350 C   0  0  0  0  0  0  0  0  0  0  0  0
   13.4610    2.1260   22.3200 C   0  0  0  0  0  0  0  0  0  0  0  0
   11.6340    4.1060   22.9350 C   0  0  0  0  0  0  0  0  0  0  0  0
   14.0630    3.5340   22.3160 C   0  0  0  0  0  0  0  0  0  0  0  0
   10.7350    5.2450   23.2510 C   0  0  0  0  0  0  0  0  0  0  0  0
   12.9790    4.3890   22.6510 C   0  0  0  0  0  0  0  0  0  0  0  0
   15.2980    3.4150   22.0180 N   0  0  0  0  0  0  0  0  0  0  0  0
   16.7090    4.0320   22.3700 C   0  0  0  0  0  0  0  0  0  0  0  0
   17.4760    3.9490   23.6470 C   0  0  0  0  0  0  0  0  0  0  0  0
   17.5480    4.7230   21.4680 N   0  0  0  0  0  0  0  0  0  0  0  0
   18.6780    4.5270   23.6270 C   0  0  0  0  0  0  0  0  0  0  0  0
   18.8530    5.2750   21.7890 C   0  0  0  0  0  0  0  0  0  0  0  0
   19.2570    4.2940   24.8820 N   0  0  0  0  0  0  0  0  0  0  0  0
   19.5230    5.1860   22.9530 N   0  0  0  0  0  0  0  0  0  0  0  0
   19.6050    6.0620   20.7230 C   0  0  0  0  0  0  0  0  0  0  0  0
   20.5540    3.9910   25.2070 C   0  0  0  0  0  0  0  0  0  0  0  0
   20.2760    7.2920   20.9330 N   0  0  0  0  0  0  0  0  0  0  0  0
   20.7410    2.9190   26.1210 O   0  0  0  0  0  0  0  0  0  0  0  0
   21.6500    4.7290   24.6470 C   0  0  0  0  0  0  0  0  0  0  0  0
   23.2470    4.1770   24.9650 Cl  0  0  0  0  0  0  0  0  0  0  0  0
  1  2  2  3
  1  3  1  0
  3  4  1  0
  3  5  1  0
  4  6  1  0
  5  7  1  0
  6  8  1  0
  7  8  1  0
  8  9  1  0
  9 10  1  0
 10 11  2  0
 10 12  1  0
 11 13  1  0
 12 14  2  0
 13 15  1  0
 13 16  2  0
 14 16  1  0
 14 17  1  0
 17 18  1  0
 18 19  2  0
 18 20  1  0
 19 21  1  0
 20 22  2  0
 21 23  1  0
 21 24  2  0
 22 24  1  0
 22 25  1  0
 23 26  1  0
 25 27  3  0
 26 28  2  0
 26 29  1  0
 29 30  1  0
M  END
