MAK-UNK-10dfa458-13-vinylsulfonamide
     RDKit          3D

 31 33  0  0  0  0  0  0  0  0999 V2000
    5.7010   -5.2950   21.2940 C   0  0  0  0  0  0  0  0  0  0  0  0
    5.6160   -5.6980   22.8690 C   0  0  0  0  0  0  0  0  0  0  0  0
    4.2150   -5.1750   23.7870 S   0  0  0  0  0  0  0  0  0  0  0  0
    3.3320   -4.5880   22.8150 O   0  0  0  0  0  0  0  0  0  0  0  0
    3.8220   -6.1390   24.8120 O   0  0  0  0  0  0  0  0  0  0  0  0
    4.9580   -3.9340   24.5730 N   0  0  0  0  0  0  0  0  0  0  0  0
    6.3870   -4.2010   24.6670 C   0  0  0  0  0  0  0  0  0  0  0  0
    4.6910   -2.8430   23.7110 C   0  0  0  0  0  0  0  0  0  0  0  0
    7.2490   -3.7890   23.4520 C   0  0  0  0  0  0  0  0  0  0  0  0
    5.1100   -3.2380   22.3040 C   0  0  0  0  0  0  0  0  0  0  0  0
    6.5250   -3.5840   22.1880 N   0  0  0  0  0  0  0  0  0  0  0  0
    7.0270   -3.0790   21.0240 C   0  0  0  0  0  0  0  0  0  0  0  0
    7.3380   -1.7080   21.0730 C   0  0  0  0  0  0  0  0  0  0  0  0
    6.6210   -0.7790   20.1150 C   0  0  0  0  0  0  0  0  0  0  0  0
    8.2570   -1.2160   21.9610 C   0  0  0  0  0  0  0  0  0  0  0  0
    6.9190    0.5680   20.1680 C   0  0  0  0  0  0  0  0  0  0  0  0
    8.5480    0.1320   22.0080 C   0  0  0  0  0  0  0  0  0  0  0  0
    6.2650    1.4240   19.2950 C   0  0  0  0  0  0  0  0  0  0  0  0
    7.8870    1.0190   21.1210 C   0  0  0  0  0  0  0  0  0  0  0  0
    9.4700    0.4240   22.9500 N   0  0  0  0  0  0  0  0  0  0  0  0
   10.1940    1.5240   22.8510 C   0  0  0  0  0  0  0  0  0  0  0  0
    9.6100    2.7910   22.7100 C   0  0  0  0  0  0  0  0  0  0  0  0
   11.5840    1.4520   22.8950 C   0  0  0  0  0  0  0  0  0  0  0  0
   10.4540    3.9200   22.6240 C   0  0  0  0  0  0  0  0  0  0  0  0
   12.3440    2.5910   22.8050 C   0  0  0  0  0  0  0  0  0  0  0  0
   12.2850    0.1600   23.0430 C   0  0  0  0  0  0  0  0  0  0  0  0
   11.8900    3.9220   22.6650 C   0  0  0  0  0  0  0  0  0  0  0  0
   12.8500   -0.8420   23.1890 N   0  0  0  0  0  0  0  0  0  0  0  0
   12.9120    4.4220   22.6450 N   0  0  0  0  0  0  0  0  0  0  0  0
   12.9960    5.6790   22.0730 C   0  0  0  0  0  0  0  0  0  0  0  0
   12.6050    6.7130   23.1150 C   0  0  0  0  0  0  0  0  0  0  0  0
  1  2  1  0
  3  2  1  0
  3  4  2  0
  3  5  2  0
  3  6  1  0
  6  7  1  0
  6  8  1  0
  7  9  1  0
  8 10  1  0
  9 11  1  0
 10 11  1  0
 11 12  1  0
 12 13  1  0
 13 14  2  0
 13 15  1  0
 14 16  1  0
 15 17  2  0
 16 18  1  0
 16 19  2  0
 17 19  1  0
 17 20  1  0
 20 21  1  0
 21 22  2  0
 21 23  1  0
 22 24  1  0
 23 25  2  0
 23 26  1  0
 24 27  2  0
 25 27  1  0
 26 28  3  0
 27 29  1  0
 29 30  1  0
 30 31  1  0
M  END
