MAK-UNK-ec98eaf6-16-bromoalkyne
     RDKit          3D

 21 23  0  0  0  0  0  0  0  0999 V2000
    7.0050   -3.7290   19.8970 C   0  0  0  0  0  0  0  0  0  0  0  0
    6.4280   -2.9850   18.7240 C   0  0  0  0  0  0  0  0  0  0  0  0
    6.9860   -3.1830   21.1690 N   0  0  0  0  0  0  0  0  0  0  0  0
    6.7090   -3.9290   22.4460 C   0  0  0  0  0  0  0  0  0  0  0  0
    7.5490   -1.8480   21.5550 C   0  0  1  0  0  0  0  0  0  0  0  0
    7.3360   -2.8740   23.3830 C   0  0  2  0  0  0  0  0  0  0  0  0
    6.8440   -1.5450   22.8760 C   0  0  0  0  0  0  0  0  0  0  0  0
    8.9020   -2.0530   21.7510 C   0  0  0  0  0  0  0  0  0  0  0  0
    8.8050   -2.7210   23.0880 N   0  0  0  0  0  0  0  0  0  0  0  0
    9.6950   -2.2520   24.1690 C   0  0  0  0  0  0  0  0  0  0  0  0
   10.5610   -1.2200   23.8010 C   0  0  0  0  0  0  0  0  0  0  0  0
   10.1620    0.1400   23.9860 C   0  0  0  0  0  0  0  0  0  0  0  0
   11.8370   -1.4540   23.2560 C   0  0  0  0  0  0  0  0  0  0  0  0
   11.1850    1.1520   23.5480 C   0  0  0  0  0  0  0  0  0  0  0  0
   12.6970   -0.4360   22.8790 C   0  0  0  0  0  0  0  0  0  0  0  0
   12.3260   -2.7110   23.0700 C   0  0  0  0  0  0  0  0  0  0  0  0
   10.5780    2.5130   23.8110 C   0  0  0  0  0  0  0  0  0  0  0  0
   12.3990    0.9220   23.0140 N   0  0  0  0  0  0  0  0  0  0  0  0
   13.5230   -2.8680   23.7870 N   0  0  0  0  0  0  0  0  0  0  0  0
   10.0920    2.8030   22.4110 C   0  0  0  0  0  0  0  0  0  0  0  0
    9.0490    3.7680   22.3910 O   0  0  0  0  0  0  0  0  0  0  0  0
  1  2  2  3
  1  3  1  0
  3  4  1  0
  3  5  1  0
  6  4  1  6
  5  7  1  0
  6  7  1  0
  5  8  1  1
  6  9  1  0
  8  9  1  0
  9 10  1  0
 10 11  1  0
 11 12  2  0
 11 13  1  0
 12 14  1  0
 13 15  2  0
 13 16  1  0
 14 17  1  0
 14 18  2  0
 15 18  1  0
 16 19  3  0
 17 20  1  0
 20 21  1  0
M  END
