MAK-UNK-10799360-4-nitrile
     RDKit          3D

 24 27  0  0  0  0  0  0  0  0999 V2000
    6.5570   -3.9770   20.0040 C   0  0  0  0  0  0  0  0  0  0  0  0
    5.4250   -3.7090   19.4810 N   0  0  0  0  0  0  0  0  0  0  0  0
    7.2390   -3.0650   20.7510 N   0  0  0  0  0  0  0  0  0  0  0  0
    7.4030   -1.6510   20.3750 C   0  0  0  0  0  0  0  0  0  0  0  0
    7.5510   -3.1210   22.1910 C   0  0  1  0  0  0  0  0  0  0  0  0
    8.1930   -1.0910   21.6000 C   0  0  2  0  0  0  0  0  0  0  0  0
    8.8720   -2.3730   22.1760 C   0  0  0  0  0  0  0  0  0  0  0  0
    6.6570   -2.1430   23.0110 C   0  0  0  0  0  0  0  0  0  0  0  0
    7.2790   -0.8100   22.7310 N   0  0  0  0  0  0  0  0  0  0  0  0
    7.7530    0.0900   23.8300 C   0  0  0  0  0  0  0  0  0  0  0  0
    8.9620    0.9800   23.4580 C   0  0  0  0  0  0  0  0  0  0  0  0
    8.8950    2.5020   23.2390 C   0  0  0  0  0  0  0  0  0  0  0  0
   10.3560    0.4450   23.2740 C   0  0  0  0  0  0  0  0  0  0  0  0
   10.0780    3.2230   22.9080 C   0  0  0  0  0  0  0  0  0  0  0  0
   11.4510    1.2480   22.9440 C   0  0  0  0  0  0  0  0  0  0  0  0
   10.8330   -0.8530   23.3850 N   0  0  0  0  0  0  0  0  0  0  0  0
   11.3350    2.6160   22.7630 C   0  0  0  0  0  0  0  0  0  0  0  0
   12.5530    0.4160   22.8560 N   0  0  0  0  0  0  0  0  0  0  0  0
   12.1700   -0.8480   23.1360 C   0  0  0  0  0  0  0  0  0  0  0  0
   13.0640   -2.0300   23.1960 C   0  0  0  0  0  0  0  0  0  0  0  0
   12.9410   -2.4960   24.8190 S   0  0  0  0  0  0  0  0  0  0  0  0
   14.4070   -3.0830   25.3550 N   0  0  0  0  0  0  0  0  0  0  0  0
   11.9350   -3.5180   24.9010 O   0  0  0  0  0  0  0  0  0  0  0  0
   12.7920   -1.2330   25.4810 O   0  0  0  0  0  0  0  0  0  0  0  0
  1  2  2  3
  1  3  1  0
  3  4  1  0
  3  5  1  0
  6  4  1  6
  5  7  1  0
  6  7  1  0
  5  8  1  1
  6  9  1  0
  8  9  1  0
  9 10  1  0
 10 11  1  0
 11 12  1  0
 11 13  2  0
 12 14  2  0
 13 15  1  0
 13 16  1  0
 14 17  1  0
 15 17  2  0
 15 18  1  0
 16 19  1  0
 18 19  2  0
 19 20  1  0
 20 21  1  0
 21 22  1  0
 21 23  2  0
 21 24  2  0
M  END
