MAK-UNK-30aad1f1-2-nitrile
     RDKit          3D

 26 28  0  0  0  0  0  0  0  0999 V2000
    6.2040   -4.2760   19.8340 C   0  0  0  0  0  0  0  0  0  0  0  0
    5.0100   -4.5050   19.8580 N   0  0  0  0  0  0  0  0  0  0  0  0
    6.4570   -2.8630   19.5850 C   0  0  0  0  0  0  0  0  0  0  0  0
    7.4620   -2.3270   18.5310 C   0  0  0  0  0  0  0  0  0  0  0  0
    5.6690   -2.0290   20.3830 C   0  0  0  0  0  0  0  0  0  0  0  0
    7.4670   -0.7830   18.4780 C   0  0  0  0  0  0  0  0  0  0  0  0
    5.6830   -0.6970   20.3200 N   0  0  0  0  0  0  0  0  0  0  0  0
    6.5000   -0.1350   19.4420 C   0  0  0  0  0  0  0  0  0  0  0  0
    6.5660    1.3170   19.2700 N   0  0  0  0  0  0  0  0  0  0  0  0
    5.3200    1.9020   19.3140 C   0  0  0  0  0  0  0  0  0  0  0  0
    4.9790    2.1920   20.7630 C   0  0  0  0  0  0  0  0  0  0  0  0
    3.5460    1.7990   20.9870 C   0  0  0  0  0  0  0  0  0  0  0  0
    5.7730    2.7140   21.7560 N   0  0  0  0  0  0  0  0  0  0  0  0
    2.9990    1.9980   22.3590 C   0  0  0  0  0  0  0  0  0  0  0  0
    5.2330    2.8830   23.0210 C   0  0  0  0  0  0  0  0  0  0  0  0
    3.9140    2.5740   23.4280 C   0  0  0  0  0  0  0  0  0  0  0  0
    3.4650    2.7740   24.7060 N   0  0  0  0  0  0  0  0  0  0  0  0
    2.1620    2.7020   24.6590 C   0  0  0  0  0  0  0  0  0  0  0  0
    1.4700    1.6610   25.2160 O   0  0  0  0  0  0  0  0  0  0  0  0
    1.6010    3.7340   24.0050 N   0  0  0  0  0  0  0  0  0  0  0  0
    0.2070    3.8790   24.1140 C   0  0  0  0  0  0  0  0  0  0  0  0
   -0.6070    2.9090   23.3240 C   0  0  0  0  0  0  0  0  0  0  0  0
   -0.3350    4.8830   24.9220 C   0  0  0  0  0  0  0  0  0  0  0  0
   -2.1400    3.0270   23.4070 C   0  0  0  0  0  0  0  0  0  0  0  0
   -1.8230    5.0650   25.0580 C   0  0  0  0  0  0  0  0  0  0  0  0
   -2.7510    4.1300   24.2930 C   0  0  0  0  0  0  0  0  0  0  0  0
  1  2  2  3
  1  3  1  0
  3  4  2  0
  3  5  1  0
  4  6  1  0
  5  7  2  0
  6  8  2  0
  7  8  1  0
  8  9  1  0
  9 10  1  0
 10 11  1  0
 11 12  2  0
 11 13  1  0
 12 14  1  0
 13 15  2  0
 14 16  2  0
 15 16  1  0
 16 17  1  0
 17 18  1  0
 18 19  2  0
 18 20  1  0
 20 21  1  0
 21 22  2  0
 21 23  1  0
 22 24  1  0
 23 25  2  0
 24 26  2  0
 25 26  1  0
M  END
