MAK-UNK-7c9d1431-13-nitrile
     RDKit          3D

 20 21  0  0  0  0  0  0  0  0999 V2000
    6.5760   -4.2950   20.2180 C   0  0  0  0  0  0  0  0  0  0  0  0
    5.4840   -3.8980   19.6980 N   0  0  0  0  0  0  0  0  0  0  0  0
    6.7210   -4.8580   21.4840 N   0  0  0  0  0  0  0  0  0  0  0  0
    6.0730   -6.1280   21.8880 C   0  0  0  0  0  0  0  0  0  0  0  0
    7.4660   -4.2490   22.4550 C   0  0  0  0  0  0  0  0  0  0  0  0
    5.2770   -5.9730   23.0370 C   0  0  0  0  0  0  0  0  0  0  0  0
    6.6890   -3.9940   23.5940 C   0  0  0  0  0  0  0  0  0  0  0  0
    6.0430   -5.2420   24.0970 N   0  0  0  0  0  0  0  0  0  0  0  0
    5.4600   -5.2330   25.7130 S   0  0  0  0  0  0  0  0  0  0  0  0
    4.8240   -6.5080   25.9560 O   0  0  0  0  0  0  0  0  0  0  0  0
    6.5480   -4.7770   26.5410 O   0  0  0  0  0  0  0  0  0  0  0  0
    4.1660   -4.0230   25.7690 C   0  0  0  0  0  0  0  0  0  0  0  0
    4.3820   -2.7400   26.3020 C   0  0  0  0  0  0  0  0  0  0  0  0
    2.7590   -4.3190   25.2500 C   0  0  0  0  0  0  0  0  0  0  0  0
    3.3620   -1.7890   26.3610 C   0  0  0  0  0  0  0  0  0  0  0  0
    1.6590   -3.3080   25.3100 C   0  0  0  0  0  0  0  0  0  0  0  0
    1.9410   -2.0580   25.8550 C   0  0  0  0  0  0  0  0  0  0  0  0
    0.9290   -1.0900   25.9300 C   0  0  0  0  0  0  0  0  0  0  0  0
   -0.5240   -1.4620   25.5870 C   0  0  0  0  0  0  0  0  0  0  0  0
    1.1100    0.2200   26.3000 O   0  0  0  0  0  0  0  0  0  0  0  0
  1  2  2  3
  1  3  1  0
  3  4  1  0
  3  5  1  0
  4  6  1  0
  5  7  1  0
  6  8  1  0
  7  8  1  0
  8  9  1  0
  9 10  2  0
  9 11  2  0
  9 12  1  0
 12 13  2  0
 12 14  1  0
 13 15  1  0
 14 16  2  0
 15 17  2  0
 16 17  1  0
 17 18  1  0
 18 19  1  0
 18 20  2  0
M  END
