MAK-UNK-ec98eaf6-4-nitrile
     RDKit          3D

 19 22  0  0  0  0  0  0  0  0999 V2000
    6.8690   -3.3720   19.6500 C   0  0  0  0  0  0  0  0  0  0  0  0
    5.9110   -3.1590   18.8420 N   0  0  0  0  0  0  0  0  0  0  0  0
    6.9500   -2.7550   20.8970 N   0  0  0  0  0  0  0  0  0  0  0  0
    6.1580   -3.1080   22.1100 C   0  0  0  0  0  0  0  0  0  0  0  0
    8.2020   -2.3220   21.5090 C   0  0  2  0  0  0  0  0  0  0  0  0
    7.2700   -3.3370   23.2110 C   0  0  1  0  0  0  0  0  0  0  0  0
    8.4570   -3.6130   22.2960 C   0  0  0  0  0  0  0  0  0  0  0  0
    7.9500   -1.2750   22.6090 C   0  0  0  0  0  0  0  0  0  0  0  0
    7.9470   -2.1560   23.7900 N   0  0  0  0  0  0  0  0  0  0  0  0
    9.2750   -2.5290   24.3700 C   0  0  0  0  0  0  0  0  0  0  0  0
   10.4160   -1.5880   23.9490 C   0  0  0  0  0  0  0  0  0  0  0  0
    9.6310   -3.9960   24.5600 C   0  0  0  0  0  0  0  0  0  0  0  0
    9.3580   -3.1680   25.7510 C   0  0  0  0  0  0  0  0  0  0  0  0
   10.6690   -0.2140   24.5640 C   0  0  0  0  0  0  0  0  0  0  0  0
   11.3070   -1.9590   22.9370 C   0  0  0  0  0  0  0  0  0  0  0  0
   11.7380    0.5720   24.0960 C   0  0  0  0  0  0  0  0  0  0  0  0
   12.3390   -1.1280   22.5320 C   0  0  0  0  0  0  0  0  0  0  0  0
   12.5710    0.1200   23.0910 C   0  0  0  0  0  0  0  0  0  0  0  0
   13.3400   -1.6890   21.2900 Cl  0  0  0  0  0  0  0  0  0  0  0  0
  1  2  2  3
  1  3  1  0
  3  4  1  0
  3  5  1  0
  6  4  1  6
  5  7  1  0
  6  7  1  0
  5  8  1  1
  6  9  1  0
  8  9  1  0
  9 10  1  0
 10 11  1  0
 10 12  1  0
 10 13  1  0
 12 13  1  0
 11 14  2  0
 11 15  1  0
 14 16  1  0
 15 17  2  0
 16 18  2  0
 17 18  1  0
 17 19  1  0
M  END
