MAK-UNK-ec98eaf6-34-nitrile
     RDKit          3D

 26 29  0  0  0  0  0  0  0  0999 V2000
    6.2900   -4.4450   20.0410 C   0  0  0  0  0  0  0  0  0  0  0  0
    5.0740   -4.6090   19.9120 N   0  0  0  0  0  0  0  0  0  0  0  0
    6.7590   -3.3060   20.5390 N   0  0  0  0  0  0  0  0  0  0  0  0
    6.2890   -1.9490   20.1400 C   0  0  0  0  0  0  0  0  0  0  0  0
    7.5760   -3.1660   21.7600 C   0  0  2  0  0  0  0  0  0  0  0  0
    6.9750   -1.1810   21.3070 C   0  0  1  0  0  0  0  0  0  0  0  0
    6.8060   -2.1120   22.5560 C   0  0  0  0  0  0  0  0  0  0  0  0
    8.7010   -2.6350   21.1950 C   0  0  0  0  0  0  0  0  0  0  0  0
    8.4740   -1.3170   20.8640 C   0  0  2  0  0  0  0  0  0  0  0  0
    9.4700   -0.4640   21.5190 N   0  0  0  0  0  0  0  0  0  0  0  0
    9.2370   -0.1680   22.8260 C   0  0  0  0  0  0  0  0  0  0  0  0
    9.1430    1.1360   23.2660 C   0  0  0  0  0  0  0  0  0  0  0  0
    9.0570   -1.1450   23.7800 C   0  0  0  0  0  0  0  0  0  0  0  0
    8.8670    1.6150   24.5950 C   0  0  0  0  0  0  0  0  0  0  0  0
    8.7720   -0.8000   25.0530 C   0  0  0  0  0  0  0  0  0  0  0  0
    9.0920   -2.5500   23.7470 N   0  0  0  0  0  0  0  0  0  0  0  0
    8.8160    2.9300   24.8150 F   0  0  0  0  0  0  0  0  0  0  0  0
    8.6260    0.5760   25.7000 C   0  0  0  0  0  0  0  0  0  0  0  0
    8.5850   -2.0320   25.8360 C   0  0  0  0  0  0  0  0  0  0  0  0
    8.8170   -3.1130   24.9790 C   0  0  0  0  0  0  0  0  0  0  0  0
    8.2010   -1.8950   27.2830 C   0  0  0  0  0  0  0  0  0  0  0  0
    8.7360   -0.9860   28.1580 C   0  0  0  0  0  0  0  0  0  0  0  0
    7.7810   -0.0380   28.5340 N   0  0  0  0  0  0  0  0  0  0  0  0
    6.9050   -0.4770   29.6180 C   0  0  0  0  0  0  0  0  0  0  0  0
    6.2980   -1.7080   29.2900 C   0  0  0  0  0  0  0  0  0  0  0  0
    6.7080    0.1230   30.6720 O   0  0  0  0  0  0  0  0  0  0  0  0
  1  2  2  3
  1  3  1  0
  3  4  1  0
  3  5  1  0
  6  4  1  6
  5  7  1  0
  6  7  1  0
  5  8  1  6
  6  9  1  0
  8  9  1  0
  9 10  1  1
 10 11  1  0
 11 12  1  0
 11 13  2  0
 12 14  2  0
 13 15  1  0
 13 16  1  0
 14 17  1  0
 14 18  1  0
 15 18  2  0
 15 19  1  0
 16 20  1  0
 19 20  2  0
 19 21  1  0
 21 22  1  0
 22 23  1  0
 23 24  1  0
 24 25  1  0
 24 26  2  0
M  END
