MAK-UNK-516d8086-31-vinylsulfonamide
     RDKit          3D

 25 27  0  0  0  0  0  0  0  0999 V2000
    7.0310   -3.5310   19.6650 C   0  0  0  0  0  0  0  0  0  0  0  0
    7.2260   -2.8370   20.8040 C   0  0  0  0  0  0  0  0  0  0  0  0
    6.4640   -3.6800   22.1790 S   0  0  0  0  0  0  0  0  0  0  0  0
    5.2510   -3.9310   21.2660 O   0  0  0  0  0  0  0  0  0  0  0  0
    6.5820   -5.0650   22.5770 O   0  0  0  0  0  0  0  0  0  0  0  0
    8.2780   -4.0890   22.2590 C   0  0  0  0  0  0  0  0  0  0  0  0
    8.7760   -3.1780   23.1230 C   0  0  0  0  0  0  0  0  0  0  0  0
    9.6170   -3.7100   22.8970 C   0  0  0  0  0  0  0  0  0  0  0  0
    8.2700   -2.1590   23.8270 C   0  0  0  0  0  0  0  0  0  0  0  0
   10.6360   -2.9400   23.7870 C   0  0  0  0  0  0  0  0  0  0  0  0
    9.6000   -1.9960   24.3200 C   0  0  0  0  0  0  0  0  0  0  0  0
   11.3300   -2.1140   24.6460 C   0  0  0  0  0  0  0  0  0  0  0  0
    9.8190   -1.0270   25.2270 N   0  0  0  0  0  0  0  0  0  0  0  0
   11.6210   -0.8470   24.1160 C   0  0  0  0  0  0  0  0  0  0  0  0
    8.4250   -0.9260   25.6620 C   0  0  0  0  0  0  0  0  0  0  0  0
   12.9840   -0.5850   23.4730 C   0  0  0  0  0  0  0  0  0  0  0  0
   10.7080    0.2480   24.1440 C   0  0  0  0  0  0  0  0  0  0  0  0
    7.8500   -2.1290   25.1140 C   0  0  0  0  0  0  0  0  0  0  0  0
   13.2750    0.8050   22.9240 C   0  0  0  0  0  0  0  0  0  0  0  0
   11.0470    1.4960   23.6160 C   0  0  0  0  0  0  0  0  0  0  0  0
   12.1950    1.8760   23.0320 C   0  0  0  0  0  0  0  0  0  0  0  0
   10.1220    2.6940   23.6190 C   0  0  0  0  0  0  0  0  0  0  0  0
    8.9570    2.7580   24.0140 O   0  0  0  0  0  0  0  0  0  0  0  0
   10.9120    3.7310   23.0620 C   0  0  0  0  0  0  0  0  0  0  0  0
   12.1630    3.2190   22.6380 C   0  0  0  0  0  0  0  0  0  0  0  0
  1  2  1  0
  3  2  1  0
  3  4  2  0
  3  5  2  0
  3  6  1  0
  6  7  2  0
  6  8  1  0
  7  9  1  0
  8 10  2  0
  9 11  2  0
 10 11  1  0
 10 12  1  0
 11 13  1  0
 12 14  1  0
 13 15  1  0
 14 16  2  0
 14 17  1  0
 15 18  1  0
 16 19  1  0
 17 20  2  0
 19 21  2  0
 20 21  1  0
 20 22  1  0
 22 23  2  0
 22 24  1  0
 21 25  1  0
 24 25  1  0
M  END
