MAK-UNK-10dfa458-35
     RDKit          3D

 19 20  0  0  0  0  0  0  0  0999 V2000
    6.1240   -5.3540   27.9050 O   0  0  0  0  0  0  0  0  0  0  0  0
    6.4320   -5.3740   26.7170 C   0  0  0  0  0  0  0  0  0  0  0  0
    5.6200   -5.9290   25.7350 N   0  0  0  0  0  0  0  0  0  0  0  0
    7.7250   -4.7760   26.2820 C   0  0  0  0  0  0  0  0  0  0  0  0
    4.5960   -5.1690   25.0910 C   0  0  0  0  0  0  0  0  0  0  0  0
    8.9940   -5.4510   26.4440 C   0  0  0  0  0  0  0  0  0  0  0  0
    7.6490   -3.4500   25.6760 C   0  0  0  0  0  0  0  0  0  0  0  0
    5.0200   -4.7850   23.7200 C   0  0  0  0  0  0  0  0  0  0  0  0
   10.1510   -4.8070   26.0020 C   0  0  0  0  0  0  0  0  0  0  0  0
    8.7290   -2.7390   25.2140 N   0  0  0  0  0  0  0  0  0  0  0  0
    5.0870   -3.2960   23.6790 C   0  0  0  0  0  0  0  0  0  0  0  0
    5.3730   -5.2600   22.4960 C   0  0  0  0  0  0  0  0  0  0  0  0
    9.7860   -3.6190   25.4940 C   0  0  0  0  0  0  0  0  0  0  0  0
    5.4980   -2.8930   22.3820 N   0  0  0  0  0  0  0  0  0  0  0  0
    5.6610   -4.0520   21.7070 N   0  0  0  0  0  0  0  0  0  0  0  0
    6.0550   -3.9180   20.4330 C   0  0  0  0  0  0  0  0  0  0  0  0
    5.5370   -4.6040   19.5780 O   0  0  0  0  0  0  0  0  0  0  0  0
    7.0820   -2.8660   20.2150 C   0  0  0  0  0  0  0  0  0  0  0  0
    6.4900   -1.7910   18.9350 Cl  0  0  0  0  0  0  0  0  0  0  0  0
  1  2  2  0
  2  3  1  0
  2  4  1  0
  3  5  1  0
  4  6  2  0
  4  7  1  0
  5  8  1  0
  6  9  1  0
  7 10  2  0
  8 11  1  0
  8 12  2  0
  9 13  2  0
 10 13  1  0
 11 14  2  0
 12 15  1  0
 14 15  1  0
 15 16  1  0
 16 17  2  0
 16 18  1  0
 18 19  1  0
M  END
