MAK-UNK-10dfa458-16
     RDKit          3D

 25 27  0  0  0  0  0  0  0  0999 V2000
    8.0550   -0.0700   15.4910 C   0  0  0  0  0  0  0  0  0  0  0  0
    7.5540    1.0030   16.0950 C   0  0  0  0  0  0  0  0  0  0  0  0
    6.6400    0.9940   17.2980 C   0  0  0  0  0  0  0  0  0  0  0  0
    7.2020   -0.0510   18.2180 C   0  0  0  0  0  0  0  0  0  0  0  0
    5.4960    1.7550   17.6010 C   0  0  0  0  0  0  0  0  0  0  0  0
    6.3630   -0.1040   19.4550 C   0  0  0  0  0  0  0  0  0  0  0  0
    4.7610    1.6640   18.7390 N   0  0  0  0  0  0  0  0  0  0  0  0
    5.1930    0.7690   19.6170 C   0  0  0  0  0  0  0  0  0  0  0  0
    4.5970    0.5050   20.8080 N   0  0  0  0  0  0  0  0  0  0  0  0
    5.0940   -0.7430   21.0670 C   0  0  0  0  0  0  0  0  0  0  0  0
    5.5590   -1.2040   22.3020 C   0  0  0  0  0  0  0  0  0  0  0  0
    5.1480   -1.5720   19.9560 C   0  0  0  0  0  0  0  0  0  0  0  0
    6.0890   -2.5060   22.3770 C   0  0  0  0  0  0  0  0  0  0  0  0
    5.6570   -2.8220   20.0430 C   0  0  0  0  0  0  0  0  0  0  0  0
    6.1370   -3.3080   21.2200 C   0  0  0  0  0  0  0  0  0  0  0  0
    6.6870   -4.6460   21.2630 N   0  0  0  0  0  0  0  0  0  0  0  0
    5.9130   -5.7670   20.8080 C   0  0  0  0  0  0  0  0  0  0  0  0
    5.4870   -5.9150   19.6880 O   0  0  0  0  0  0  0  0  0  0  0  0
    5.7570   -6.5850   21.8460 N   0  0  0  0  0  0  0  0  0  0  0  0
    5.9580   -5.9920   22.9950 C   0  0  0  0  0  0  0  0  0  0  0  0
    7.3290   -5.8010   23.4710 C   0  0  0  0  0  0  0  0  0  0  0  0
    4.8030   -5.5400   23.7400 C   0  0  0  0  0  0  0  0  0  0  0  0
    7.4890   -5.1440   24.6960 C   0  0  0  0  0  0  0  0  0  0  0  0
    4.8550   -4.8750   24.9860 N   0  0  0  0  0  0  0  0  0  0  0  0
    6.2510   -4.8210   25.1950 C   0  0  0  0  0  0  0  0  0  0  0  0
  1  2  2  3
  2  3  1  0
  3  4  2  0
  3  5  1  0
  4  6  1  0
  5  7  2  0
  6  8  2  0
  7  8  1  0
  8  9  1  0
  9 10  1  0
 10 11  2  0
 10 12  1  0
 11 13  1  0
 12 14  2  0
 13 15  2  0
 14 15  1  0
 15 16  1  0
 16 17  1  0
 17 18  2  0
 17 19  1  0
 19 20  1  0
 20 21  2  0
 20 22  1  0
 21 23  1  0
 22 24  2  0
 23 25  2  0
 24 25  1  0
M  END
