MAK-UNK-10799360-12-chloroacetamide
     RDKit          3D

 28 31  0  0  0  0  0  0  0  0999 V2000
    7.0980   -2.9920   18.7890 C   0  0  0  0  0  0  0  0  0  0  0  0
    6.1470   -3.3890   19.9270 C   0  0  0  0  0  0  0  0  0  0  0  0
    5.2960   -4.2580   19.7560 O   0  0  0  0  0  0  0  0  0  0  0  0
    6.2760   -2.7770   21.1420 N   0  0  0  0  0  0  0  0  0  0  0  0
    7.3240   -1.7920   21.2490 C   0  0  0  0  0  0  0  0  0  0  0  0
    6.3910   -3.5010   22.4200 C   0  0  1  0  0  0  0  0  0  0  0  0
    8.3760   -2.6610   21.9810 C   0  0  2  0  0  0  0  0  0  0  0  0
    7.7560   -4.0710   22.1630 C   0  0  0  0  0  0  0  0  0  0  0  0
    6.8010   -2.6290   23.6400 C   0  0  0  0  0  0  0  0  0  0  0  0
    8.2110   -2.2390   23.3490 N   0  0  0  0  0  0  0  0  0  0  0  0
    9.3240   -2.6010   24.2120 C   0  0  0  0  0  0  0  0  0  0  0  0
   10.4780   -1.6960   23.8400 C   0  0  0  0  0  0  0  0  0  0  0  0
   11.3550   -1.9950   22.8100 C   0  0  0  0  0  0  0  0  0  0  0  0
   10.6460   -0.5170   24.5540 C   0  0  0  0  0  0  0  0  0  0  0  0
   12.3810   -1.1490   22.4810 C   0  0  0  0  0  0  0  0  0  0  0  0
   11.6970    0.3540   24.1940 C   0  0  0  0  0  0  0  0  0  0  0  0
    9.6680   -0.2790   25.6800 C   0  0  0  0  0  0  0  0  0  0  0  0
   13.3870   -1.6320   21.2080 Cl  0  0  0  0  0  0  0  0  0  0  0  0
   12.5680    0.0400   23.1620 C   0  0  0  0  0  0  0  0  0  0  0  0
    8.8480    0.8940   25.4880 N   0  0  0  0  0  0  0  0  0  0  0  0
    7.7740    0.9930   26.3300 C   0  0  0  0  0  0  0  0  0  0  0  0
    6.4870    0.9020   25.8850 O   0  0  0  0  0  0  0  0  0  0  0  0
    8.1070    1.2010   27.6620 N   0  0  0  0  0  0  0  0  0  0  0  0
    8.3480    0.0600   28.2800 C   0  0  0  0  0  0  0  0  0  0  0  0
    7.2570    2.0870   28.4080 C   0  0  0  0  0  0  0  0  0  0  0  0
    8.4070    0.1000   29.6870 C   0  0  0  0  0  0  0  0  0  0  0  0
    7.3120    1.8050   29.7700 C   0  0  0  0  0  0  0  0  0  0  0  0
    7.3760    0.6270   30.1120 O   0  0  0  0  0  0  0  0  0  0  0  0
  1  2  1  0
  2  3  2  0
  2  4  1  0
  4  5  1  0
  4  6  1  0
  7  5  1  6
  6  8  1  0
  7  8  1  0
  6  9  1  1
  7 10  1  0
  9 10  1  0
 10 11  1  0
 11 12  1  0
 12 13  2  0
 12 14  1  0
 13 15  1  0
 14 16  2  0
 14 17  1  0
 15 18  1  0
 15 19  2  0
 16 19  1  0
 17 20  1  0
 20 21  1  0
 21 22  2  0
 21 23  1  0
 23 24  1  0
 23 25  1  0
 24 26  1  0
 25 27  1  0
 26 28  1  0
 27 28  1  0
M  END
