MAK-UNK-72659d64-10-vinylsulfonamide
     RDKit          3D

 19 19  0  0  0  0  0  0  0  0999 V2000
    7.2710   -5.7290   20.0410 C   0  0  0  0  0  0  0  0  0  0  0  0
    7.2280   -4.3030   20.5960 C   0  0  0  0  0  0  0  0  0  0  0  0
    5.4900   -4.2610   20.6770 S   0  0  0  0  0  0  0  0  0  0  0  0
    4.8610   -3.1160   21.2680 O   0  0  0  0  0  0  0  0  0  0  0  0
    5.0870   -4.6420   19.3770 O   0  0  0  0  0  0  0  0  0  0  0  0
    5.2540   -5.5150   21.7730 N   0  0  0  0  0  0  0  0  0  0  0  0
    5.6660   -5.0250   23.0540 C   0  0  0  0  0  0  0  0  0  0  0  0
    6.3330   -3.6710   23.0690 C   0  0  0  0  0  0  0  0  0  0  0  0
    5.5580   -5.5790   24.3180 N   0  0  0  0  0  0  0  0  0  0  0  0
    6.8280   -2.9850   24.2570 C   0  0  0  0  0  0  0  0  0  0  0  0
    6.0520   -4.8820   25.4010 C   0  0  0  0  0  0  0  0  0  0  0  0
    7.4250   -1.6630   24.0300 N   0  0  0  0  0  0  0  0  0  0  0  0
    6.6590   -3.6630   25.4690 N   0  0  0  0  0  0  0  0  0  0  0  0
    5.9320   -5.4720   26.6650 C   0  0  0  0  0  0  0  0  0  0  0  0
    8.7190   -1.3550   23.5910 C   0  0  0  0  0  0  0  0  0  0  0  0
    5.8400   -5.9460   27.7190 N   0  0  0  0  0  0  0  0  0  0  0  0
    9.0870   -0.1910   23.4260 O   0  0  0  0  0  0  0  0  0  0  0  0
    9.6930   -2.4770   23.2900 C   0  0  0  0  0  0  0  0  0  0  0  0
   11.3610   -1.8480   23.4040 Cl  0  0  0  0  0  0  0  0  0  0  0  0
  1  2  1  0
  2  3  1  0
  3  4  2  0
  3  5  2  0
  3  6  1  0
  6  7  1  0
  7  8  2  0
  7  9  1  0
  8 10  1  0
  9 11  2  0
 10 12  1  0
 10 13  2  0
 11 13  1  0
 11 14  1  0
 12 15  1  0
 14 16  3  0
 15 17  2  0
 15 18  1  0
 18 19  1  0
M  END
