MAK-UNK-10799360-4-chloroacetamide
     RDKit          3D

 25 28  0  0  0  0  0  0  0  0999 V2000
    6.8410   -3.1140   19.1010 C   0  0  0  0  0  0  0  0  0  0  0  0
    5.7870   -3.6590   20.0850 C   0  0  0  0  0  0  0  0  0  0  0  0
    5.3330   -4.7880   19.9400 O   0  0  0  0  0  0  0  0  0  0  0  0
    5.3410   -2.8870   21.1250 N   0  0  0  0  0  0  0  0  0  0  0  0
    4.8780   -3.5340   22.3580 C   0  0  0  0  0  0  0  0  0  0  0  0
    5.8570   -1.5540   21.5300 C   0  0  1  0  0  0  0  0  0  0  0  0
    5.6840   -2.7310   23.3790 C   0  0  2  0  0  0  0  0  0  0  0  0
    5.2760   -1.3400   22.9230 C   0  0  0  0  0  0  0  0  0  0  0  0
    7.3030   -1.7350   21.9940 C   0  0  0  0  0  0  0  0  0  0  0  0
    7.1020   -2.8490   22.9530 N   0  0  0  0  0  0  0  0  0  0  0  0
    8.0470   -3.0340   24.0450 C   0  0  0  0  0  0  0  0  0  0  0  0
    8.9070   -1.7890   24.1990 C   0  0  0  0  0  0  0  0  0  0  0  0
    8.4820   -0.8050   25.0970 C   0  0  0  0  0  0  0  0  0  0  0  0
   10.2280   -1.4830   23.4610 C   0  0  0  0  0  0  0  0  0  0  0  0
    9.2150    0.3550   25.2920 C   0  0  0  0  0  0  0  0  0  0  0  0
   10.8710   -0.3050   23.7260 C   0  0  0  0  0  0  0  0  0  0  0  0
   11.0500   -2.0950   22.5200 N   0  0  0  0  0  0  0  0  0  0  0  0
   10.4030    0.5710   24.5860 C   0  0  0  0  0  0  0  0  0  0  0  0
   12.0150   -0.1810   23.0050 N   0  0  0  0  0  0  0  0  0  0  0  0
   12.1410   -1.2640   22.2740 C   0  0  0  0  0  0  0  0  0  0  0  0
   13.2940   -1.4740   21.4090 C   0  0  0  0  0  0  0  0  0  0  0  0
   13.1770   -3.0900   21.2360 S   0  0  0  0  0  0  0  0  0  0  0  0
   11.6430   -3.0650   20.6110 N   0  0  0  0  0  0  0  0  0  0  0  0
   14.0390   -3.7020   20.2600 O   0  0  0  0  0  0  0  0  0  0  0  0
   13.2050   -3.3720   22.6400 O   0  0  0  0  0  0  0  0  0  0  0  0
  1  2  1  0
  2  3  2  0
  2  4  1  0
  4  5  1  0
  4  6  1  0
  7  5  1  6
  6  8  1  0
  7  8  1  0
  6  9  1  1
  7 10  1  0
  9 10  1  0
 10 11  1  0
 11 12  1  0
 12 13  1  0
 12 14  2  0
 13 15  2  0
 14 16  1  0
 14 17  1  0
 15 18  1  0
 16 18  2  0
 16 19  1  0
 17 20  1  0
 19 20  2  0
 20 21  1  0
 21 22  1  0
 22 23  1  0
 22 24  2  0
 22 25  2  0
M  END
