MAK-UNK-2084232d-4
     RDKit          3D

 22 24  0  0  0  0  0  0  0  0999 V2000
    6.7850   -2.5200   19.7070 C   0  0  0  0  0  0  0  0  0  0  0  0
    5.9050   -3.6420   20.2660 C   0  0  0  0  0  0  0  0  0  0  0  0
    6.5180   -4.2820   21.5100 C   0  0  1  0  0  0  0  0  0  0  0  0
    7.4200   -3.5820   22.5010 C   0  0  0  0  0  0  0  0  0  0  0  0
    5.5930   -5.1000   22.1980 O   0  0  0  0  0  0  0  0  0  0  0  0
    8.3070   -4.7090   22.8540 C   0  0  1  0  0  0  0  0  0  0  0  0
    6.3050   -6.1830   22.8110 C   0  0  0  0  0  0  0  0  0  0  0  0
    8.7460   -3.6900   23.8510 C   0  0  2  0  0  0  0  0  0  0  0  0
    7.5740   -5.8330   23.3240 C   0  0  0  0  0  0  0  0  0  0  0  0
    9.2910   -2.4310   23.4510 C   0  0  0  0  0  0  0  0  0  0  0  0
    9.6910   -4.3110   24.3370 O   0  0  0  0  0  0  0  0  0  0  0  0
   10.7570   -2.2250   23.9420 C   0  0  0  0  0  0  0  0  0  0  0  0
   10.1460   -3.8670   25.4910 C   0  0  2  0  0  0  0  0  0  0  0  0
   11.1720   -3.0900   25.0570 C   0  0  0  0  0  0  0  0  0  0  0  0
   11.6520   -1.3150   23.3950 C   0  0  0  0  0  0  0  0  0  0  0  0
   10.4950   -4.9000   26.4570 C   0  0  0  0  0  0  0  0  0  0  0  0
   12.4860   -3.0100   25.5050 C   0  0  0  0  0  0  0  0  0  0  0  0
   12.9340   -1.2300   23.8840 C   0  0  0  0  0  0  0  0  0  0  0  0
   11.3320   -0.4790   22.3700 O   0  0  0  0  0  0  0  0  0  0  0  0
    9.5070   -4.9460   27.5550 N   0  0  0  0  0  0  0  0  0  0  0  0
   13.3360   -2.0950   24.9280 C   0  0  0  0  0  0  0  0  0  0  0  0
   13.6620   -0.4060   23.3800 O   0  0  0  0  0  0  0  0  0  0  0  0
  1  2  1  0
  3  2  1  1
  3  4  1  0
  3  5  1  0
  6  4  1  6
  5  7  1  0
  6  8  1  0
  6  9  1  0
  7  9  1  0
  8 10  1  6
  8 11  1  0
 10 12  1  0
 11 13  1  0
 12 14  2  0
 13 14  1  0
 12 15  1  0
 13 16  1  1
 14 17  1  0
 15 18  2  0
 15 19  1  0
 16 20  1  0
 17 21  2  0
 18 21  1  0
 18 22  1  0
M  END
