MAK-UNK-3e0761f8-2-chloroacetamide
     RDKit          3D

 20 23  0  0  0  0  0  0  0  0999 V2000
    7.3480   -3.0170   18.8050 C   0  0  0  0  0  0  0  0  0  0  0  0
    6.4820   -3.3670   19.9680 C   0  0  0  0  0  0  0  0  0  0  0  0
    5.5100   -4.1370   19.7870 O   0  0  0  0  0  0  0  0  0  0  0  0
    6.8500   -2.8340   21.1940 N   0  0  0  0  0  0  0  0  0  0  0  0
    8.1750   -2.3440   21.6640 C   0  0  2  0  0  0  0  0  0  0  0  0
    5.8950   -2.6170   22.3110 C   0  0  1  0  0  0  0  0  0  0  0  0
    8.2050   -3.0650   23.0430 C   0  0  0  0  0  0  0  0  0  0  0  0
    6.8600   -2.4540   23.5320 C   0  0  1  0  0  0  0  0  0  0  0  0
    8.1040   -0.9240   22.2000 C   0  0  0  0  0  0  0  0  0  0  0  0
    5.2550   -1.4000   22.0670 C   0  0  0  0  0  0  0  0  0  0  0  0
    7.3070   -1.0320   23.3160 C   0  0  0  0  0  0  0  0  0  0  0  0
    8.6080    0.3250   21.8550 C   0  0  0  0  0  0  0  0  0  0  0  0
    4.8380   -0.4780   22.9250 N   0  0  0  0  0  0  0  0  0  0  0  0
    5.0160   -1.0620   20.7590 O   0  0  0  0  0  0  0  0  0  0  0  0
    6.8220    0.0130   24.3210 C   0  0  0  0  0  0  0  0  0  0  0  0
    8.2780    1.4460   22.6530 C   0  0  0  0  0  0  0  0  0  0  0  0
    4.2890    0.5540   22.1900 N   0  0  0  0  0  0  0  0  0  0  0  0
    4.4240    0.1520   20.8990 C   0  0  0  0  0  0  0  0  0  0  0  0
    7.4490    1.3480   23.8100 C   0  0  0  0  0  0  0  0  0  0  0  0
    3.9690    0.9490   19.6530 C   0  0  0  0  0  0  0  0  0  0  0  0
  1  2  1  0
  2  3  2  0
  2  4  1  0
  5  4  1  6
  4  6  1  0
  5  7  1  0
  6  8  1  0
  7  8  1  0
  5  9  1  0
  6 10  1  6
  8 11  1  6
  9 11  2  0
  9 12  1  0
 10 13  2  0
 10 14  1  0
 11 15  1  0
 12 16  2  0
 13 17  1  0
 14 18  1  0
 17 18  2  0
 15 19  2  0
 16 19  1  0
 18 20  1  0
M  END
