MAK-UNK-27459e11-2
     RDKit          3D

 17 17  0  0  0  0  0  0  0  0999 V2000
    5.7200   -3.6240   26.7810 C   0  0  0  0  0  0  0  0  0  0  0  0
    6.4380   -4.9320   26.4180 C   0  0  1  0  0  0  0  0  0  0  0  0
    5.9080   -5.7340   25.2160 C   0  0  0  0  0  0  0  0  0  0  0  0
    8.1840   -4.5690   26.2220 S   0  0  0  0  0  0  0  0  0  0  0  0
    4.6010   -5.4860   25.0070 N   0  0  0  0  0  0  0  0  0  0  0  0
    6.5980   -6.5930   24.4210 N   0  0  0  0  0  0  0  0  0  0  0  0
    8.6440   -3.7170   27.2780 O   0  0  0  0  0  0  0  0  0  0  0  0
    8.8360   -5.8030   25.9020 O   0  0  0  0  0  0  0  0  0  0  0  0
    8.1960   -3.6800   24.7960 N   0  0  0  0  0  0  0  0  0  0  0  0
    9.2920   -2.9270   24.5010 C   0  0  0  0  0  0  0  0  0  0  0  0
    9.2370   -2.0180   23.2710 C   0  0  0  0  0  0  0  0  0  0  0  0
   10.5510   -1.2480   23.2580 C   0  0  0  0  0  0  0  0  0  0  0  0
   11.5500   -1.8970   22.3120 C   0  0  0  0  0  0  0  0  0  0  0  0
   10.8500   -0.1010   23.9900 C   0  0  0  0  0  0  0  0  0  0  0  0
   12.9220   -1.2550   22.1690 C   0  0  0  0  0  0  0  0  0  0  0  0
   12.0820    0.5000   23.8730 C   0  0  0  0  0  0  0  0  0  0  0  0
   13.0550   -0.0200   23.0330 C   0  0  0  0  0  0  0  0  0  0  0  0
  2  1  1  6
  2  3  1  0
  2  4  1  0
  3  5  2  3
  3  6  1  0
  4  7  2  0
  4  8  2  0
  4  9  1  0
  9 10  1  0
 10 11  1  0
 11 12  1  0
 12 13  2  0
 12 14  1  0
 13 15  1  0
 14 16  2  0
 15 17  2  0
 16 17  1  0
M  END
