MAK-UNK-ec98eaf6-20-vinylsulfonamide
     RDKit          3D

 23 25  0  0  0  0  0  0  0  0999 V2000
    8.5920   -3.9880   20.4250 C   0  0  0  0  0  0  0  0  0  0  0  0
    7.2750   -4.6530   20.8890 C   0  0  0  0  0  0  0  0  0  0  0  0
    6.3770   -3.7400   22.1320 S   0  0  0  0  0  0  0  0  0  0  0  0
    4.9380   -3.9700   21.8990 O   0  0  0  0  0  0  0  0  0  0  0  0
    6.9940   -4.0490   23.4080 O   0  0  0  0  0  0  0  0  0  0  0  0
    6.6460   -2.1330   21.8060 N   0  0  0  0  0  0  0  0  0  0  0  0
    5.4960   -1.1760   21.9740 C   0  0  0  0  0  0  0  0  0  0  0  0
    7.2470   -1.7960   20.4990 C   0  0  2  0  0  0  0  0  0  0  0  0
    5.6620   -0.4130   20.6300 C   0  0  1  0  0  0  0  0  0  0  0  0
    7.1380   -0.2730   20.4360 C   0  0  0  0  0  0  0  0  0  0  0  0
    6.3830   -2.4240   19.6190 C   0  0  0  0  0  0  0  0  0  0  0  0
    5.3900   -1.3250   19.4610 N   0  0  0  0  0  0  0  0  0  0  0  0
    5.5500   -0.7620   18.1230 C   0  0  0  0  0  0  0  0  0  0  0  0
    4.3760   -0.2830   17.5670 C   0  0  0  0  0  0  0  0  0  0  0  0
    3.6460   -1.3230   16.5160 N   0  0  0  0  0  0  0  0  0  0  0  0
    1.3350   -2.6980   16.0820 C   0  0  0  0  0  0  0  0  0  0  0  0
    0.8360   -3.5770   16.8180 O   0  0  0  0  0  0  0  0  0  0  0  0
    0.2990   -2.7230   14.8810 C   0  0  0  0  0  0  0  0  0  0  0  0
    0.8800   -2.4090   13.5200 C   0  0  0  0  0  0  0  0  0  0  0  0
   -1.0410   -3.0180   15.0640 C   0  0  0  0  0  0  0  0  0  0  0  0
   -0.2100   -2.4160   12.4370 C   0  0  0  0  0  0  0  0  0  0  0  0
   -2.0020   -3.0420   14.0770 N   0  0  0  0  0  0  0  0  0  0  0  0
   -1.6030   -2.7600   12.8990 C   0  0  0  0  0  0  0  0  0  0  0  0
  1  2  1  0
  3  2  1  0
  3  4  2  0
  3  5  2  0
  3  6  1  0
  6  7  1  0
  6  8  1  0
  9  7  1  1
  8 10  1  0
  9 10  1  0
  8 11  1  6
  9 12  1  0
 11 12  1  0
 12 13  1  0
 13 14  1  0
 14 15  1  0
 15 16  1  0
 16 17  2  0
 16 18  1  0
 18 19  2  0
 18 20  1  0
 19 21  1  0
 20 22  2  0
 21 23  2  0
 22 23  1  0
M  END
