MAK-UNK-ec98eaf6-45-vinylsulfonamide
     RDKit          3D

 24 26  0  0  0  0  0  0  0  0999 V2000
    7.9800   -3.8640   19.9130 C   0  0  0  0  0  0  0  0  0  0  0  0
    7.2570   -2.7920   19.1300 C   0  0  0  0  0  0  0  0  0  0  0  0
    5.7080   -2.7010   19.9380 S   0  0  0  0  0  0  0  0  0  0  0  0
    5.0690   -3.9740   19.7700 O   0  0  0  0  0  0  0  0  0  0  0  0
    5.0260   -1.5490   19.4910 O   0  0  0  0  0  0  0  0  0  0  0  0
    6.1740   -2.4200   21.5640 N   0  0  0  0  0  0  0  0  0  0  0  0
    6.9500   -1.2090   21.7940 C   0  0  0  0  0  0  0  0  0  0  0  0
    7.0150   -3.4480   22.2680 C   0  0  1  0  0  0  0  0  0  0  0  0
    8.2710   -1.6700   22.3750 C   0  0  2  0  0  0  0  0  0  0  0  0
    8.4330   -3.0530   21.7940 C   0  0  0  0  0  0  0  0  0  0  0  0
    7.1270   -3.0470   23.7320 C   0  0  1  0  0  0  0  0  0  0  0  0
    7.3850   -4.1070   24.7960 C   0  0  0  0  0  0  0  0  0  0  0  0
    8.0960   -2.0220   23.8270 N   0  0  0  0  0  0  0  0  0  0  0  0
    8.2190   -5.2920   24.3690 C   0  0  0  0  0  0  0  0  0  0  0  0
    9.3950   -2.4410   24.4100 C   0  0  0  0  0  0  0  0  0  0  0  0
    7.6260   -6.5000   23.9580 C   0  0  0  0  0  0  0  0  0  0  0  0
    9.2130   -5.6490   25.5010 C   0  0  0  0  0  0  0  0  0  0  0  0
   10.4900   -1.5090   23.9740 C   0  0  0  0  0  0  0  0  0  0  0  0
   10.7510   -0.1440   24.5200 C   0  0  0  0  0  0  0  0  0  0  0  0
   11.3400   -1.9350   22.9610 C   0  0  0  0  0  0  0  0  0  0  0  0
   11.7340    0.6670   24.0940 C   0  0  0  0  0  0  0  0  0  0  0  0
   12.3700   -1.1420   22.4830 C   0  0  0  0  0  0  0  0  0  0  0  0
   12.6130    0.1250   22.9940 C   0  0  0  0  0  0  0  0  0  0  0  0
   13.3350   -1.7480   21.2390 Cl  0  0  0  0  0  0  0  0  0  0  0  0
  1  2  1  0
  3  2  1  0
  3  4  2  0
  3  5  2  0
  3  6  1  0
  6  7  1  0
  8  6  1  6
  9  7  1  6
  8 10  1  0
  9 10  1  0
  8 11  1  0
 11 12  1  1
  9 13  1  0
 11 13  1  0
 12 14  1  0
 13 15  1  0
 14 16  1  0
 14 17  1  0
 15 18  1  0
 18 19  2  0
 18 20  1  0
 19 21  1  0
 20 22  2  0
 21 23  2  0
 22 23  1  0
 22 24  1  0
M  END
