MAK-UNK-176ca439-2-chloroacetamide
     RDKit          3D

 28 29  0  0  0  0  0  0  0  0999 V2000
    7.1070   -3.0060   18.8150 C   0  0  0  0  0  0  0  0  0  0  0  0
    6.1310   -3.3250   19.9040 C   0  0  0  0  0  0  0  0  0  0  0  0
    5.3030   -4.2120   19.7490 O   0  0  0  0  0  0  0  0  0  0  0  0
    6.2930   -2.5510   21.0300 N   0  0  0  0  0  0  0  0  0  0  0  0
    7.1160   -1.4230   21.0210 C   0  0  0  0  0  0  0  0  0  0  0  0
    6.1790   -3.1680   22.2920 C   0  0  0  0  0  0  0  0  0  0  0  0
    8.3810   -1.6090   21.8120 C   0  0  0  0  0  0  0  0  0  0  0  0
    7.4120   -3.3060   22.9350 C   0  0  0  0  0  0  0  0  0  0  0  0
    8.1440   -2.1370   23.0010 N   0  0  0  0  0  0  0  0  0  0  0  0
    9.3400   -2.2180   23.8570 C   0  0  0  0  0  0  0  0  0  0  0  0
   10.3590   -1.1250   23.5580 C   0  0  0  0  0  0  0  0  0  0  0  0
   11.7730   -1.6600   23.4710 C   0  0  0  0  0  0  0  0  0  0  0  0
   10.0310    0.2240   23.3780 C   0  0  0  0  0  0  0  0  0  0  0  0
   12.8630   -0.6300   23.1700 C   0  0  0  0  0  0  0  0  0  0  0  0
   11.1000    1.2910   23.0680 C   0  0  0  0  0  0  0  0  0  0  0  0
   12.4350    0.8320   22.9840 C   0  0  0  0  0  0  0  0  0  0  0  0
   10.5870    2.6640   22.8930 C   0  0  1  0  0  0  0  0  0  0  0  0
    9.5580    2.8980   21.9940 N   0  0  0  0  0  0  0  0  0  0  0  0
   10.0100    3.2390   24.2280 C   0  0  0  0  0  0  0  0  0  0  0  0
    8.1350    2.7810   22.1040 C   0  0  0  0  0  0  0  0  0  0  0  0
   10.6120    4.3160   24.9670 O   0  0  0  0  0  0  0  0  0  0  0  0
    8.7890    2.6720   24.7650 N   0  0  0  0  0  0  0  0  0  0  0  0
    7.4010    3.8840   22.5840 C   0  0  0  0  0  0  0  0  0  0  0  0
    8.2110    3.2310   25.9960 C   0  0  0  0  0  0  0  0  0  0  0  0
    6.3930    4.3440   21.8090 N   0  0  0  0  0  0  0  0  0  0  0  0
    5.1130    3.6450   21.6880 C   0  0  0  0  0  0  0  0  0  0  0  0
    4.9260    2.9470   20.4840 C   0  0  0  0  0  0  0  0  0  0  0  0
    4.1410    3.6530   22.6560 O   0  0  0  0  0  0  0  0  0  0  0  0
  1  2  1  0
  2  3  2  0
  2  4  1  0
  4  5  1  0
  4  6  1  0
  5  7  1  0
  6  8  1  0
  7  9  1  0
  8  9  1  0
  9 10  1  0
 10 11  1  0
 11 12  2  0
 11 13  1  0
 12 14  1  0
 13 15  2  0
 14 16  2  0
 15 16  1  0
 15 17  1  0
 17 18  1  6
 17 19  1  0
 18 20  1  0
 19 21  2  0
 19 22  1  0
 20 23  1  0
 22 24  1  0
 23 25  1  0
 25 26  1  0
 26 27  1  0
 26 28  2  0
M  END
