MAK-UNK-849bee6c-18-chloroacetamide
     RDKit          3D

 28 30  0  0  0  0  0  0  0  0999 V2000
    7.0690   -2.9850   18.8290 C   0  0  0  0  0  0  0  0  0  0  0  0
    6.1210   -3.3700   19.9410 C   0  0  0  0  0  0  0  0  0  0  0  0
    5.3160   -4.2940   19.8050 O   0  0  0  0  0  0  0  0  0  0  0  0
    6.2120   -2.6260   21.1370 N   0  0  0  0  0  0  0  0  0  0  0  0
    6.4660   -3.3750   22.3500 C   0  0  0  0  0  0  0  0  0  0  0  0
    6.6680   -1.2290   21.1750 C   0  0  0  0  0  0  0  0  0  0  0  0
    7.4230   -2.6470   23.3120 C   0  0  0  0  0  0  0  0  0  0  0  0
    8.1440   -1.1040   21.5580 C   0  0  0  0  0  0  0  0  0  0  0  0
    8.5650   -2.0410   22.6120 N   0  0  0  0  0  0  0  0  0  0  0  0
    9.7250   -2.8350   22.2720 C   0  0  0  0  0  0  0  0  0  0  0  0
   11.0240   -2.0710   22.2240 C   0  0  0  0  0  0  0  0  0  0  0  0
   11.1500   -1.2870   23.4290 C   0  0  0  0  0  0  0  0  0  0  0  0
   12.0610   -2.0250   21.1860 C   0  0  0  0  0  0  0  0  0  0  0  0
   12.3070   -0.5060   23.4870 C   0  0  0  0  0  0  0  0  0  0  0  0
   13.2560   -1.1970   21.2330 C   0  0  0  0  0  0  0  0  0  0  0  0
   12.3890    0.2120   24.5870 C   0  0  0  0  0  0  0  0  0  0  0  0
   13.3650   -0.4480   22.4020 C   0  0  0  0  0  0  0  0  0  0  0  0
   14.2760   -1.0780   20.1200 N   0  0  0  0  0  0  0  0  0  0  0  0
   14.7640    0.1610   19.3660 C   0  0  0  0  0  0  0  0  0  0  0  0
   14.6890    1.2650   20.1230 C   0  0  0  0  0  0  0  0  0  0  0  0
   15.2810    0.5520   18.1060 C   0  0  0  0  0  0  0  0  0  0  0  0
   14.9120    2.5760   19.8230 C   0  0  0  0  0  0  0  0  0  0  0  0
   15.5100    1.8530   17.7660 C   0  0  0  0  0  0  0  0  0  0  0  0
   15.6350   -0.3130   17.0000 C   0  0  0  0  0  0  0  0  0  0  0  0
   15.2880    2.9330   18.5870 C   0  0  0  0  0  0  0  0  0  0  0  0
   15.9350   -1.4590   17.7940 N   0  0  0  0  0  0  0  0  0  0  0  0
   15.4340    4.1930   18.2080 N   0  0  0  0  0  0  0  0  0  0  0  0
   15.7320    5.3180   18.8370 C   0  0  0  0  0  0  0  0  0  0  0  0
  1  2  1  0
  2  3  2  0
  2  4  1  0
  4  5  1  0
  4  6  1  0
  5  7  1  0
  6  8  1  0
  7  9  1  0
  8  9  1  0
  9 10  1  0
 10 11  1  0
 11 12  2  0
 11 13  1  0
 12 14  1  0
 13 15  2  0
 14 16  1  0
 14 17  2  0
 15 17  1  0
 15 18  1  0
 18 19  1  0
 19 20  2  0
 19 21  1  0
 20 22  1  0
 21 23  2  0
 21 24  1  0
 22 25  2  0
 23 25  1  0
 24 26  3  0
 25 27  1  0
 27 28  1  0
M  END
