MAK-UNK-148caf23-4-acrylamide
     RDKit          3D

 36 39  0  0  0  0  0  0  0  0999 V2000
    8.7830   -3.6020   19.5640 C   0  0  0  0  0  0  0  0  0  0  0  0
    8.7370   -2.9170   20.9010 C   0  0  0  0  0  0  0  0  0  0  0  0
    7.1160   -3.1570   21.0150 C   0  0  0  0  0  0  0  0  0  0  0  0
    5.3030   -3.4260   21.1420 O   0  0  0  0  0  0  0  0  0  0  0  0
    8.1190   -1.8250   21.7040 C   0  0  0  0  0  0  0  0  0  0  0  0
    9.0600   -1.0020   22.6590 C   0  0  0  0  0  0  0  0  0  0  0  0
    8.5120   -2.5430   22.9110 C   0  0  0  0  0  0  0  0  0  0  0  0
    9.8760    0.0430   23.2270 N   0  0  0  0  0  0  0  0  0  0  0  0
    9.3400   -2.0750   24.0680 C   0  0  0  0  0  0  0  0  0  0  0  0
   10.0070   -0.7540   24.2460 C   0  0  0  0  0  0  0  0  0  0  0  0
    9.4200   -3.0550   25.0770 N   0  0  0  0  0  0  0  0  0  0  0  0
   10.6800   -0.3680   25.3680 N   0  0  0  0  0  0  0  0  0  0  0  0
    8.5050   -3.4070   26.0660 C   0  0  0  0  0  0  0  0  0  0  0  0
    9.8420   -0.6190   26.4490 C   0  0  0  0  0  0  0  0  0  0  0  0
    7.3530   -3.9890   25.5250 C   0  0  0  0  0  0  0  0  0  0  0  0
    8.4200   -0.0070   26.7120 C   0  0  0  0  0  0  0  0  0  0  0  0
    6.0850   -3.6990   25.9520 C   0  0  0  0  0  0  0  0  0  0  0  0
    7.1280   -4.9640   24.4830 C   0  0  0  0  0  0  0  0  0  0  0  0
    5.1130   -4.4990   25.1730 C   0  0  0  0  0  0  0  0  0  0  0  0
    5.7650   -5.2580   24.2910 N   0  0  0  0  0  0  0  0  0  0  0  0
    3.5510   -4.4780   25.3450 C   0  0  0  0  0  0  0  0  0  0  0  0
    5.1470   -6.3700   23.1550 S   0  0  0  0  0  0  0  0  0  0  0  0
    2.6370   -4.5140   24.1560 C   0  0  0  0  0  0  0  0  0  0  0  0
    2.9710   -4.4270   26.6450 C   0  0  0  0  0  0  0  0  0  0  0  0
    6.2890   -7.1670   22.7410 O   0  0  0  0  0  0  0  0  0  0  0  0
    4.3620   -5.5980   22.2120 O   0  0  0  0  0  0  0  0  0  0  0  0
    4.0300   -7.3550   24.0900 C   0  0  0  0  0  0  0  0  0  0  0  0
    1.1500   -4.4990   24.3750 C   0  0  0  0  0  0  0  0  0  0  0  0
    1.5790   -4.4110   26.8460 C   0  0  0  0  0  0  0  0  0  0  0  0
    3.7650   -4.3900   27.7280 F   0  0  0  0  0  0  0  0  0  0  0  0
    4.3070   -7.4180   25.6130 C   0  0  0  0  0  0  0  0  0  0  0  0
    3.0020   -7.9770   23.3620 C   0  0  0  0  0  0  0  0  0  0  0  0
    0.6910   -4.4460   25.7870 C   0  0  0  0  0  0  0  0  0  0  0  0
    3.0880   -8.3830   26.0010 C   0  0  0  0  0  0  0  0  0  0  0  0
    2.0510   -8.7620   23.8640 N   0  0  0  0  0  0  0  0  0  0  0  0
    2.1300   -8.9370   25.1640 C   0  0  0  0  0  0  0  0  0  0  0  0
  1  2  1  0
  2  3  1  0
  3  4  2  0
  3  5  1  0
  5  6  2  0
  5  7  1  0
  6  8  1  0
  7  9  2  0
  8 10  2  0
  9 10  1  0
  9 11  1  0
 10 12  1  0
 11 13  1  0
 12 14  1  0
 13 15  1  0
 14 16  1  0
 15 17  1  0
 15 18  2  0
 17 19  2  0
 18 20  1  0
 19 20  1  0
 19 21  1  0
 20 22  1  0
 21 23  2  0
 21 24  1  0
 22 25  2  0
 22 26  2  0
 22 27  1  0
 23 28  1  0
 24 29  2  0
 24 30  1  0
 27 31  2  0
 27 32  1  0
 28 33  2  0
 29 33  1  0
 31 34  1  0
 32 35  2  0
 34 36  2  0
 35 36  1  0
M  END
