MAK-UNK-69bf97dd-9-vinylsulfonamide
     RDKit          3D

 30 32  0  0  0  0  0  0  0  0999 V2000
    7.8070   -2.7750   18.7910 C   0  0  0  0  0  0  0  0  0  0  0  0
    6.3210   -2.9380   18.8670 C   0  0  0  0  0  0  0  0  0  0  0  0
    5.6940   -3.7660   20.2810 S   0  0  0  0  0  0  0  0  0  0  0  0
    5.0720   -4.9630   19.8640 O   0  0  0  0  0  0  0  0  0  0  0  0
    4.9160   -2.8090   20.9460 O   0  0  0  0  0  0  0  0  0  0  0  0
    6.8920   -4.1430   21.3170 N   0  0  0  0  0  0  0  0  0  0  0  0
    6.6460   -5.3000   22.1870 C   0  0  0  0  0  0  0  0  0  0  0  0
    7.6740   -3.0070   21.8220 C   0  0  0  0  0  0  0  0  0  0  0  0
    5.7540   -4.6490   23.2710 C   0  0  0  0  0  0  0  0  0  0  0  0
    7.5120   -2.7660   23.3130 C   0  0  0  0  0  0  0  0  0  0  0  0
    6.8820   -3.9460   24.0640 C   0  0  0  0  0  0  0  0  0  0  0  0
    6.1030   -3.3950   25.2470 C   0  0  0  0  0  0  0  0  0  0  0  0
    5.0530   -3.8560   25.6720 O   0  0  0  0  0  0  0  0  0  0  0  0
    6.7100   -2.2930   25.7810 N   0  0  0  0  0  0  0  0  0  0  0  0
    5.9450   -1.0770   25.8940 C   0  0  0  0  0  0  0  0  0  0  0  0
    6.2430   -0.4280   27.2050 C   0  0  0  0  0  0  0  0  0  0  0  0
    6.8130   -1.2890   28.2620 C   0  0  0  0  0  0  0  0  0  0  0  0
    6.0240    0.9030   27.5220 C   0  0  0  0  0  0  0  0  0  0  0  0
    7.1550   -0.7660   29.6390 C   0  0  0  0  0  0  0  0  0  0  0  0
    6.3670    1.4370   28.9160 C   0  0  0  0  0  0  0  0  0  0  0  0
    6.9120    0.5880   29.9040 C   0  0  0  0  0  0  0  0  0  0  0  0
    7.2620    1.2710   31.4420 S   0  0  0  0  0  0  0  0  0  0  0  0
    7.6460    0.1870   32.3180 O   0  0  0  0  0  0  0  0  0  0  0  0
    6.1630    2.1500   31.7970 O   0  0  0  0  0  0  0  0  0  0  0  0
    8.6260    2.2760   31.1630 N   0  0  0  0  0  0  0  0  0  0  0  0
    9.5490    2.4620   32.3180 C   0  0  0  0  0  0  0  0  0  0  0  0
    8.3180    3.5710   30.5220 C   0  0  0  0  0  0  0  0  0  0  0  0
   10.7770    2.8490   31.7780 C   0  0  0  0  0  0  0  0  0  0  0  0
    9.6080    4.2550   30.0710 C   0  0  0  0  0  0  0  0  0  0  0  0
   10.6210    4.1570   31.0270 C   0  0  0  0  0  0  0  0  0  0  0  0
  1  2  1  0
  3  2  1  0
  3  4  2  0
  3  5  2  0
  3  6  1  0
  6  7  1  0
  6  8  1  0
  7  9  1  0
  8 10  1  0
  9 11  1  0
 10 11  1  0
 11 12  1  0
 12 13  2  0
 12 14  1  0
 14 15  1  0
 15 16  1  0
 16 17  2  0
 16 18  1  0
 17 19  1  0
 18 20  2  0
 19 21  2  0
 20 21  1  0
 22 21  1  0
 22 23  2  0
 22 24  2  0
 22 25  1  0
 25 26  1  0
 25 27  1  0
 26 28  1  0
 27 29  1  0
 28 30  1  0
 29 30  1  0
M  END
