MAK-UNK-ed378e62-1
     RDKit          3D

  9  9  0  0  0  0  0  0  0  0999 V2000
    9.0080   -4.6970   22.1260 C   0  0  0  0  0  0  0  0  0  0  0  0
    7.8430   -4.6450   22.8390 C   0  0  0  0  0  0  0  0  0  0  0  0
    7.7050   -3.7920   23.8860 C   0  0  0  0  0  0  0  0  0  0  0  0
    6.8270   -5.4710   22.4810 N   0  0  0  0  0  0  0  0  0  0  0  0
    6.5040   -3.8310   24.5420 C   0  0  0  0  0  0  0  0  0  0  0  0
    5.6800   -5.3960   23.2390 C   0  0  0  0  0  0  0  0  0  0  0  0
    5.5210   -4.6860   24.1460 N   0  0  0  0  0  0  0  0  0  0  0  0
    4.5180   -6.2660   22.9290 C   0  0  0  0  0  0  0  0  0  0  0  0
    3.5760   -6.9220   22.7700 N   0  0  0  0  0  0  0  0  0  0  0  0
  1  2  1  0
  2  3  2  0
  2  4  1  0
  3  5  1  0
  4  6  2  0
  5  7  2  0
  6  7  1  0
  6  8  1  0
  8  9  3  0
M  END
