MAK-UNK-ec98eaf6-52-acrylamide
     RDKit          3D

 32 35  0  0  0  0  0  0  0  0999 V2000
    7.8400   -2.7740   18.6170 C   0  0  0  0  0  0  0  0  0  0  0  0
    6.3520   -2.8640   18.8660 C   0  0  0  0  0  0  0  0  0  0  0  0
    5.9500   -3.4590   20.1650 C   0  0  0  0  0  0  0  0  0  0  0  0
    5.2580   -4.4830   20.1290 O   0  0  0  0  0  0  0  0  0  0  0  0
    6.3790   -2.8000   21.3240 N   0  0  0  0  0  0  0  0  0  0  0  0
    6.0460   -3.2230   22.6810 C   0  0  0  0  0  0  0  0  0  0  0  0
    7.8270   -2.5000   21.5150 C   0  0  2  0  0  0  0  0  0  0  0  0
    7.4110   -3.4130   23.2960 C   0  0  1  0  0  0  0  0  0  0  0  0
    8.2180   -3.7480   22.0370 C   0  0  0  0  0  0  0  0  0  0  0  0
    8.0370   -1.4300   22.5320 C   0  0  0  0  0  0  0  0  0  0  0  0
    8.1950   -2.2180   23.7560 N   0  0  0  0  0  0  0  0  0  0  0  0
    9.5670   -2.6010   24.1390 C   0  0  2  0  0  0  0  0  0  0  0  0
    9.6080   -2.9920   25.4670 C   0  0  0  0  0  0  0  0  0  0  0  0
   10.4660   -1.5580   23.8610 C   0  0  0  0  0  0  0  0  0  0  0  0
    9.4640   -4.3650   25.6650 C   0  0  0  0  0  0  0  0  0  0  0  0
   10.3260   -0.2830   24.4150 C   0  0  0  0  0  0  0  0  0  0  0  0
   11.5450   -1.8350   22.9810 C   0  0  0  0  0  0  0  0  0  0  0  0
    8.3890   -4.5440   26.5350 C   0  0  0  0  0  0  0  0  0  0  0  0
   11.2950    0.8110   24.0990 C   0  0  0  0  0  0  0  0  0  0  0  0
   12.5000   -0.8520   22.6430 C   0  0  0  0  0  0  0  0  0  0  0  0
    7.1680   -3.6730   26.5380 C   0  0  0  0  0  0  0  0  0  0  0  0
    8.3680   -5.5790   27.4990 C   0  0  0  0  0  0  0  0  0  0  0  0
   12.4130    0.5300   23.1980 C   0  0  0  0  0  0  0  0  0  0  0  0
   13.5740   -1.1900   21.7310 C   0  0  0  0  0  0  0  0  0  0  0  0
    6.0830   -3.9530   27.5060 C   0  0  0  0  0  0  0  0  0  0  0  0
    7.2750   -5.7680   28.3860 C   0  0  0  0  0  0  0  0  0  0  0  0
   13.0620   -2.0920   20.7690 N   0  0  0  0  0  0  0  0  0  0  0  0
    6.1260   -4.9420   28.3810 C   0  0  0  0  0  0  0  0  0  0  0  0
    4.9170   -5.0970   29.3060 C   0  0  0  0  0  0  0  0  0  0  0  0
    4.5250   -3.9130   29.8520 F   0  0  0  0  0  0  0  0  0  0  0  0
    3.8130   -5.5850   28.6730 F   0  0  0  0  0  0  0  0  0  0  0  0
    5.1480   -5.9430   30.3480 F   0  0  0  0  0  0  0  0  0  0  0  0
  1  2  1  0
  2  3  1  0
  3  4  2  0
  3  5  1  0
  5  6  1  0
  5  7  1  0
  8  6  1  6
  7  9  1  0
  8  9  1  0
  7 10  1  1
  8 11  1  0
 10 11  1  0
 11 12  1  0
 12 13  1  1
 12 14  1  0
 13 15  1  0
 14 16  2  0
 14 17  1  0
 15 18  1  0
 16 19  1  0
 17 20  2  0
 18 21  2  0
 18 22  1  0
 19 23  2  0
 20 23  1  0
 20 24  1  0
 21 25  1  0
 22 26  2  0
 24 27  3  0
 25 28  2  0
 26 28  1  0
 28 29  1  0
 29 30  1  0
 29 31  1  0
 29 32  1  0
M  END
