MAK-UNK-10dfa458-33
     RDKit          3D

 23 25  0  0  0  0  0  0  0  0999 V2000
    9.8160   -0.9710   24.8060 C   0  0  0  0  0  0  0  0  0  0  0  0
    8.7370   -0.8130   24.0220 C   0  0  2  0  0  0  0  0  0  0  0  0
    7.8900    0.4660   24.0510 C   0  0  0  0  0  0  0  0  0  0  0  0
    7.7810   -1.9840   24.1750 C   0  0  0  0  0  0  0  0  0  0  0  0
    7.4620    0.9990   23.0280 O   0  0  0  0  0  0  0  0  0  0  0  0
    7.6320    0.9840   25.2670 O   0  0  0  0  0  0  0  0  0  0  0  0
    7.3200   -2.4310   25.5890 C   0  0  0  0  0  0  0  0  0  0  0  0
    7.3140   -2.6460   23.0110 C   0  0  0  0  0  0  0  0  0  0  0  0
    6.3940   -3.5580   25.6620 C   0  0  0  0  0  0  0  0  0  0  0  0
    6.3410   -3.8150   23.1400 C   0  0  0  0  0  0  0  0  0  0  0  0
    5.9540   -4.1940   24.3710 C   0  0  0  0  0  0  0  0  0  0  0  0
    5.6700   -4.6710   22.2360 N   0  0  0  0  0  0  0  0  0  0  0  0
    5.1010   -5.2290   24.2650 C   0  0  0  0  0  0  0  0  0  0  0  0
    4.8890   -5.6010   22.9770 C   0  0  0  0  0  0  0  0  0  0  0  0
    5.8720   -4.4310   20.8190 C   0  0  0  0  0  0  0  0  0  0  0  0
    4.4800   -5.8660   25.3350 C   0  0  0  0  0  0  0  0  0  0  0  0
    4.0500   -6.6640   22.7590 C   0  0  0  0  0  0  0  0  0  0  0  0
    5.7090   -5.2850   19.9530 O   0  0  0  0  0  0  0  0  0  0  0  0
    6.2450   -3.0640   20.5650 C   0  0  0  0  0  0  0  0  0  0  0  0
    3.6290   -6.9260   25.1050 C   0  0  0  0  0  0  0  0  0  0  0  0
    3.4150   -7.3340   23.8050 C   0  0  0  0  0  0  0  0  0  0  0  0
    5.6110   -2.4300   19.0510 Cl  0  0  0  0  0  0  0  0  0  0  0  0
    2.8490   -7.7200   26.4160 Cl  0  0  0  0  0  0  0  0  0  0  0  0
  2  1  1  1
  2  3  1  0
  2  4  1  0
  3  5  2  0
  3  6  1  0
  4  7  2  0
  4  8  1  0
  7  9  1  0
  8 10  2  0
  9 11  2  0
 10 11  1  0
 10 12  1  0
 11 13  1  0
 12 14  1  0
 13 14  2  0
 12 15  1  0
 13 16  1  0
 14 17  1  0
 15 18  2  0
 15 19  1  0
 16 20  2  0
 17 21  2  0
 20 21  1  0
 19 22  1  0
 20 23  1  0
M  END
