MAK-UNK-8fdbca50-21-nitrile
     RDKit          3D

 38 41  0  0  0  0  0  0  0  0999 V2000
    7.1290   -3.4960   19.7920 C   0  0  0  0  0  0  0  0  0  0  0  0
    6.3790   -3.4460   18.7230 N   0  0  0  0  0  0  0  0  0  0  0  0
    7.4450   -2.4490   20.6820 N   0  0  0  0  0  0  0  0  0  0  0  0
    7.9290   -1.1410   20.2130 C   0  0  0  0  0  0  0  0  0  0  0  0
    7.7090   -2.6750   22.1200 C   0  0  0  0  0  0  0  0  0  0  0  0
    8.8180   -0.3970   21.2520 C   0  0  0  0  0  0  0  0  0  0  0  0
    9.1030   -2.6530   22.3230 C   0  0  0  0  0  0  0  0  0  0  0  0
    9.7610   -1.2700   22.0750 C   0  0  0  0  0  0  0  0  0  0  0  0
   11.1510   -1.4760   21.7040 C   0  0  0  0  0  0  0  0  0  0  0  0
   11.5820   -1.6170   20.5760 O   0  0  0  0  0  0  0  0  0  0  0  0
   12.0010   -1.4570   22.9210 N   0  0  0  0  0  0  0  0  0  0  0  0
   13.1170   -2.4430   23.1970 C   0  0  0  0  0  0  0  0  0  0  0  0
   12.1180   -0.1900   23.6670 C   0  0  0  0  0  0  0  0  0  0  0  0
   13.4910   -2.1770   24.5000 C   0  0  0  0  0  0  0  0  0  0  0  0
   13.8300   -3.4970   22.4980 C   0  0  0  0  0  0  0  0  0  0  0  0
   12.1920    0.8660   22.7770 C   0  0  0  0  0  0  0  0  0  0  0  0
   13.3490   -0.1200   24.5420 C   0  0  0  0  0  0  0  0  0  0  0  0
   14.5720   -2.8870   25.2140 C   0  0  0  0  0  0  0  0  0  0  0  0
   14.9170   -4.1500   23.2200 C   0  0  0  0  0  0  0  0  0  0  0  0
   13.6510   -4.2760   20.7210 S   0  0  0  0  0  0  0  0  0  0  0  0
   15.2470   -3.8350   24.5300 N   0  0  0  0  0  0  0  0  0  0  0  0
   14.0400   -5.6800   20.6710 O   0  0  0  0  0  0  0  0  0  0  0  0
   14.3790   -3.3680   19.8870 O   0  0  0  0  0  0  0  0  0  0  0  0
   12.0640   -4.1610   20.2530 N   0  0  0  0  0  0  0  0  0  0  0  0
   11.3040   -3.4340   21.0500 C   0  0  0  0  0  0  0  0  0  0  0  0
   11.2930   -4.6380   19.2190 C   0  0  0  0  0  0  0  0  0  0  0  0
   10.0290   -3.3280   20.6060 C   0  0  0  0  0  0  0  0  0  0  0  0
   10.0470   -4.1160   19.4200 C   0  0  0  0  0  0  0  0  0  0  0  0
   11.3960   -5.4400   18.0690 C   0  0  0  0  0  0  0  0  0  0  0  0
    8.9340   -2.5030   21.2940 C   0  0  0  0  0  0  0  0  0  0  0  0
   12.4290   -5.2880   17.1720 C   0  0  0  0  0  0  0  0  0  0  0  0
   10.5010   -6.4390   17.7590 C   0  0  0  0  0  0  0  0  0  0  0  0
    8.1160   -3.2500   22.1090 N   0  0  0  0  0  0  0  0  0  0  0  0
   12.6280   -6.0690   16.0080 C   0  0  0  0  0  0  0  0  0  0  0  0
   10.6880   -7.2580   16.6420 C   0  0  0  0  0  0  0  0  0  0  0  0
    9.4770   -6.6450   18.5580 F   0  0  0  0  0  0  0  0  0  0  0  0
    8.5750   -4.2090   23.1290 C   0  0  0  0  0  0  0  0  0  0  0  0
   11.7410   -7.0780   15.7500 C   0  0  0  0  0  0  0  0  0  0  0  0
  1  2  2  3
  1  3  1  0
  3  4  1  0
  3  5  1  0
  4  6  1  0
  5  7  1  0
  6  8  1  0
  7  8  1  0
  8  9  1  0
  9 10  2  0
  9 11  1  0
 11 12  1  0
 11 13  1  0
 12 14  2  0
 12 15  1  0
 13 16  1  0
 13 17  1  0
 14 18  1  0
 15 19  2  0
 20 15  1  0
 18 21  2  0
 19 21  1  0
 20 22  2  0
 20 23  2  0
 20 24  1  0
 24 25  1  0
 24 26  1  0
 25 27  2  0
 26 28  2  0
 27 28  1  0
 26 29  1  0
 27 30  1  0
 29 31  2  0
 29 32  1  0
 30 33  1  0
 31 34  1  0
 32 35  2  0
 32 36  1  0
 33 37  1  0
 34 38  2  0
 35 38  1  0
M  END
