MAK-UNK-ec98eaf6-36-nitrile
     RDKit          3D

 24 27  0  0  0  0  0  0  0  0999 V2000
    6.6470   -4.0340   20.1710 C   0  0  0  0  0  0  0  0  0  0  0  0
    5.9170   -3.4250   19.3190 N   0  0  0  0  0  0  0  0  0  0  0  0
    6.7410   -3.6110   21.4710 N   0  0  0  0  0  0  0  0  0  0  0  0
    7.8230   -2.7810   22.0560 C   0  0  0  0  0  0  0  0  0  0  0  0
    6.0760   -4.1990   22.6480 C   0  0  1  0  0  0  0  0  0  0  0  0
    7.8920   -3.5030   23.4590 C   0  0  2  0  0  0  0  0  0  0  0  0
    7.2680   -4.9370   23.2760 C   0  0  0  0  0  0  0  0  0  0  0  0
    5.7430   -3.1020   23.4530 C   0  0  0  0  0  0  0  0  0  0  0  0
    6.7700   -2.9060   24.3840 C   0  0  2  0  0  0  0  0  0  0  0  0
    6.9750   -1.5070   24.8120 N   0  0  0  0  0  0  0  0  0  0  0  0
    8.1510   -0.8310   24.5320 C   0  0  0  0  0  0  0  0  0  0  0  0
    8.3920    0.4890   24.9620 C   0  0  0  0  0  0  0  0  0  0  0  0
    9.1300   -1.4420   23.8070 C   0  0  0  0  0  0  0  0  0  0  0  0
    9.5820    1.2630   24.7040 C   0  0  0  0  0  0  0  0  0  0  0  0
   10.2740   -0.7960   23.5160 C   0  0  0  0  0  0  0  0  0  0  0  0
   10.5520    0.4720   23.9060 C   0  0  0  0  0  0  0  0  0  0  0  0
   11.1350   -1.4560   22.8150 C   0  0  0  0  0  0  0  0  0  0  0  0
   11.8130    1.2280   23.6030 C   0  0  0  0  0  0  0  0  0  0  0  0
   12.2880   -0.8960   22.4790 C   0  0  0  0  0  0  0  0  0  0  0  0
   12.7950    0.3920   22.7770 C   0  0  0  0  0  0  0  0  0  0  0  0
   13.0600   -2.0890   21.5720 S   0  0  0  0  0  0  0  0  0  0  0  0
   13.9390   -1.1780   20.5180 N   0  0  0  0  0  0  0  0  0  0  0  0
   13.7390   -2.8780   22.5560 O   0  0  0  0  0  0  0  0  0  0  0  0
   12.0410   -2.5940   20.7450 O   0  0  0  0  0  0  0  0  0  0  0  0
  1  2  2  3
  1  3  1  0
  3  4  1  0
  3  5  1  0
  6  4  1  6
  5  7  1  0
  6  7  1  0
  5  8  1  1
  6  9  1  0
  8  9  1  0
  9 10  1  6
 10 11  1  0
 11 12  2  0
 11 13  1  0
 12 14  1  0
 13 15  2  0
 14 16  2  0
 15 16  1  0
 15 17  1  0
 16 18  1  0
 17 19  2  0
 18 20  2  0
 19 20  1  0
 19 21  1  0
 21 22  1  0
 21 23  2  0
 21 24  2  0
M  END
