MAK-UNK-212f693e-34
     RDKit          3D

 16 17  0  0  0  0  0  0  0  0999 V2000
    5.5900   -4.2750   19.8870 O   0  0  0  0  0  0  0  0  0  0  0  0
    6.3190   -4.0530   20.8700 C   0  0  0  0  0  0  0  0  0  0  0  0
    7.3270   -2.8920   20.8710 C   0  0  0  0  0  0  0  0  0  0  0  0
    6.2610   -4.8250   22.0150 N   0  0  0  0  0  0  0  0  0  0  0  0
    6.7670   -1.7280   20.2790 O   0  0  0  0  0  0  0  0  0  0  0  0
    6.9700   -4.5830   23.2940 C   0  0  0  0  0  0  0  0  0  0  0  0
    5.3190   -5.8410   22.0490 C   0  0  0  0  0  0  0  0  0  0  0  0
    5.9900   -4.6030   24.4900 C   0  0  0  0  0  0  0  0  0  0  0  0
    4.2570   -5.5970   22.9430 C   0  0  0  0  0  0  0  0  0  0  0  0
    4.9630   -5.6640   24.2660 C   0  0  0  0  0  0  0  0  0  0  0  0
    4.5890   -5.0130   25.5880 C   0  0  0  0  0  0  0  0  0  0  0  0
    3.5620   -4.0560   25.5640 C   0  0  0  0  0  0  0  0  0  0  0  0
    3.7900   -2.5320   25.7910 C   0  0  0  0  0  0  0  0  0  0  0  0
    2.1940   -4.2730   25.3660 C   0  0  0  0  0  0  0  0  0  0  0  0
    2.5170   -1.7660   25.7400 C   0  0  0  0  0  0  0  0  0  0  0  0
    1.1810   -2.7860   25.4500 S   0  0  0  0  0  0  0  0  0  0  0  0
  1  2  2  0
  2  3  1  0
  2  4  1  0
  3  5  1  0
  4  6  1  0
  4  7  1  0
  6  8  1  0
  7  9  1  0
  8 10  1  0
  9 10  1  0
 10 11  1  0
 11 12  1  0
 12 13  1  0
 12 14  2  0
 13 15  2  0
 14 16  1  0
 15 16  1  0
M  END
