MAK-UNK-516d8086-25-vinylsulfonamide
     RDKit          3D

 26 28  0  0  0  0  0  0  0  0999 V2000
    8.4220   -3.5070   19.8060 C   0  0  0  0  0  0  0  0  0  0  0  0
    7.1360   -3.7100   20.1800 C   0  0  0  0  0  0  0  0  0  0  0  0
    6.6170   -4.7440   21.5350 S   0  0  0  0  0  0  0  0  0  0  0  0
    5.1730   -4.3990   21.5760 O   0  0  0  0  0  0  0  0  0  0  0  0
    6.9770   -6.0920   21.2500 O   0  0  0  0  0  0  0  0  0  0  0  0
    7.3160   -4.5470   23.2010 C   0  0  0  0  0  0  0  0  0  0  0  0
    6.4910   -3.8060   24.2540 C   0  0  0  0  0  0  0  0  0  0  0  0
    8.5770   -5.0600   23.6470 C   0  0  0  0  0  0  0  0  0  0  0  0
    6.8650   -3.6040   25.6000 N   0  0  0  0  0  0  0  0  0  0  0  0
    9.0030   -4.8890   25.0230 C   0  0  0  0  0  0  0  0  0  0  0  0
    8.1740   -4.2050   25.9210 C   0  0  0  0  0  0  0  0  0  0  0  0
   10.2170   -5.4410   25.4820 C   0  0  0  0  0  0  0  0  0  0  0  0
    8.6730   -4.1180   27.2880 N   0  0  0  0  0  0  0  0  0  0  0  0
   11.3430   -4.6120   25.9500 C   0  0  0  0  0  0  0  0  0  0  0  0
    8.6530   -5.4340   27.9110 C   0  0  0  0  0  0  0  0  0  0  0  0
   11.5420   -3.5120   25.1980 C   0  0  0  0  0  0  0  0  0  0  0  0
    7.3930   -5.6660   28.4690 C   0  0  0  0  0  0  0  0  0  0  0  0
   12.8180   -2.7250   24.7290 C   0  0  0  0  0  0  0  0  0  0  0  0
   10.3380   -3.1490   24.8410 C   0  0  0  0  0  0  0  0  0  0  0  0
   12.5530   -1.5570   23.7760 C   0  0  0  0  0  0  0  0  0  0  0  0
   10.1930   -2.1530   24.0400 C   0  0  0  0  0  0  0  0  0  0  0  0
   11.0790   -1.3670   23.4530 C   0  0  0  0  0  0  0  0  0  0  0  0
    8.7840   -1.7750   23.6800 C   0  0  0  0  0  0  0  0  0  0  0  0
    7.7330   -2.3690   23.8360 O   0  0  0  0  0  0  0  0  0  0  0  0
    8.9690   -0.5720   23.1360 N   0  0  0  0  0  0  0  0  0  0  0  0
   10.3160   -0.5810   22.6720 C   0  0  0  0  0  0  0  0  0  0  0  0
  1  2  1  0
  3  2  1  0
  3  4  2  0
  3  5  2  0
  3  6  1  0
  6  7  2  0
  6  8  1  0
  7  9  1  0
  8 10  2  0
  9 11  2  0
 10 11  1  0
 10 12  1  0
 11 13  1  0
 12 14  1  0
 13 15  1  0
 14 16  1  0
 15 17  1  0
 16 18  2  0
 16 19  1  0
 18 20  1  0
 19 21  2  0
 20 22  2  0
 21 22  1  0
 21 23  1  0
 23 24  2  0
 23 25  1  0
 22 26  1  0
 25 26  1  0
M  END
