MAK-UNK-849bee6c-20-chloroacetamide
     RDKit          3D

 29 31  0  0  0  0  0  0  0  0999 V2000
    7.0980   -2.9870   18.8060 C   0  0  0  0  0  0  0  0  0  0  0  0
    6.1210   -3.3460   19.9040 C   0  0  0  0  0  0  0  0  0  0  0  0
    5.3160   -4.2660   19.7790 O   0  0  0  0  0  0  0  0  0  0  0  0
    6.1780   -2.5780   21.0770 N   0  0  0  0  0  0  0  0  0  0  0  0
    6.8850   -1.3170   20.9790 C   0  0  0  0  0  0  0  0  0  0  0  0
    6.0450   -3.1350   22.4330 C   0  0  0  0  0  0  0  0  0  0  0  0
    8.2280   -1.3590   21.7160 C   0  0  0  0  0  0  0  0  0  0  0  0
    7.3560   -3.0860   23.2220 C   0  0  0  0  0  0  0  0  0  0  0  0
    8.0390   -1.7880   23.0980 N   0  0  0  0  0  0  0  0  0  0  0  0
    8.9450   -1.4240   24.1570 C   0  0  0  0  0  0  0  0  0  0  0  0
    9.7350   -0.1690   23.8080 C   0  0  0  0  0  0  0  0  0  0  0  0
    9.2570    1.2080   24.2100 C   0  0  0  0  0  0  0  0  0  0  0  0
   10.9260   -0.2630   23.1000 C   0  0  0  0  0  0  0  0  0  0  0  0
   10.1230    2.3480   23.8010 C   0  0  0  0  0  0  0  0  0  0  0  0
   11.7360    0.8440   22.7280 C   0  0  0  0  0  0  0  0  0  0  0  0
    9.8130    3.6670   24.0890 C   0  0  0  0  0  0  0  0  0  0  0  0
   11.4040    2.1220   23.0350 C   0  0  0  0  0  0  0  0  0  0  0  0
   12.8590    0.4420   22.0730 N   0  0  0  0  0  0  0  0  0  0  0  0
   12.8890   -0.5800   22.8220 C   0  0  0  0  0  0  0  0  0  0  0  0
   12.7360    0.0720   24.0410 C   0  0  0  0  0  0  0  0  0  0  0  0
   12.9900   -1.9870   22.6150 C   0  0  0  0  0  0  0  0  0  0  0  0
   12.6860   -0.6010   25.1050 C   0  0  0  0  0  0  0  0  0  0  0  0
   12.9620   -2.7580   23.6310 N   0  0  0  0  0  0  0  0  0  0  0  0
   13.1120   -2.6900   21.3190 C   0  0  0  0  0  0  0  0  0  0  0  0
   12.8160   -1.8220   24.6180 C   0  0  0  0  0  0  0  0  0  0  0  0
   13.2100   -3.3590   20.4140 N   0  0  0  0  0  0  0  0  0  0  0  0
   12.8460   -2.5760   25.5150 N   0  0  0  0  0  0  0  0  0  0  0  0
   13.9870   -2.9400   25.8290 C   0  0  0  0  0  0  0  0  0  0  0  0
   13.9640   -4.2500   26.2970 C   0  0  0  0  0  0  0  0  0  0  0  0
  1  2  1  0
  2  3  2  0
  2  4  1  0
  4  5  1  0
  4  6  1  0
  5  7  1  0
  6  8  1  0
  7  9  1  0
  8  9  1  0
  9 10  1  0
 10 11  1  0
 11 12  2  0
 11 13  1  0
 12 14  1  0
 13 15  2  0
 14 16  1  0
 14 17  2  0
 15 17  1  0
 15 18  1  0
 18 19  1  0
 19 20  2  0
 19 21  1  0
 20 22  1  0
 21 23  2  0
 21 24  1  0
 22 25  2  0
 23 25  1  0
 24 26  3  0
 25 27  1  0
 27 28  1  0
 28 29  1  0
M  END
