MAK-UNK-10799360-29-chloroacetamide
     RDKit          3D

 26 29  0  0  0  0  0  0  0  0999 V2000
    7.3960   -3.0540   18.9300 C   0  0  0  0  0  0  0  0  0  0  0  0
    6.5410   -3.4470   20.1140 C   0  0  0  0  0  0  0  0  0  0  0  0
    5.5700   -4.2190   19.8760 O   0  0  0  0  0  0  0  0  0  0  0  0
    6.9180   -2.9350   21.3820 N   0  0  0  0  0  0  0  0  0  0  0  0
    7.4360   -3.8210   22.4360 C   0  0  0  0  0  0  0  0  0  0  0  0
    7.6770   -1.6760   21.6440 C   0  0  2  0  0  0  0  0  0  0  0  0
    8.7650   -3.1180   22.9120 C   0  0  1  0  0  0  0  0  0  0  0  0
    9.1000   -2.2150   21.7430 C   0  0  0  0  0  0  0  0  0  0  0  0
    7.5390   -1.1700   23.1210 C   0  0  0  0  0  0  0  0  0  0  0  0
    8.4490   -2.0770   23.8950 N   0  0  0  0  0  0  0  0  0  0  0  0
    9.5460   -1.6020   24.8240 C   0  0  0  0  0  0  0  0  0  0  0  0
   11.0330   -1.5630   24.3230 C   0  0  0  0  0  0  0  0  0  0  0  0
   11.5920   -0.8380   23.3050 C   0  0  0  0  0  0  0  0  0  0  0  0
   12.1390   -2.2530   24.8130 N   0  0  0  0  0  0  0  0  0  0  0  0
   12.8540   -0.9980   23.1320 N   0  0  0  0  0  0  0  0  0  0  0  0
   13.2530   -1.9020   24.0800 N   0  0  0  0  0  0  0  0  0  0  0  0
   13.4820   -0.2860   22.1000 C   0  0  0  0  0  0  0  0  0  0  0  0
   13.6840   -1.0180   20.9150 C   0  0  0  0  0  0  0  0  0  0  0  0
   13.8790    1.0820   22.1820 C   0  0  0  0  0  0  0  0  0  0  0  0
   14.2810   -0.3450   19.7980 C   0  0  0  0  0  0  0  0  0  0  0  0
   14.4920    1.7830   21.0520 C   0  0  0  0  0  0  0  0  0  0  0  0
   14.7140    1.1100   19.8700 C   0  0  0  0  0  0  0  0  0  0  0  0
   14.8990    3.4900   21.1620 S   0  0  0  0  0  0  0  0  0  0  0  0
   13.7840    4.1950   20.1240 N   0  0  0  0  0  0  0  0  0  0  0  0
   16.1130    3.8180   20.4360 O   0  0  0  0  0  0  0  0  0  0  0  0
   14.5880    4.0590   22.4450 O   0  0  0  0  0  0  0  0  0  0  0  0
  1  2  1  0
  2  3  2  0
  2  4  1  0
  4  5  1  0
  4  6  1  0
  7  5  1  6
  6  8  1  0
  7  8  1  0
  6  9  1  1
  7 10  1  0
  9 10  1  0
 10 11  1  0
 11 12  1  0
 12 13  2  0
 12 14  1  0
 13 15  1  0
 14 16  2  0
 15 16  1  0
 15 17  1  0
 17 18  2  0
 17 19  1  0
 18 20  1  0
 19 21  2  0
 20 22  2  0
 21 22  1  0
 21 23  1  0
 23 24  1  0
 23 25  2  0
 23 26  2  0
M  END
