MAK-UNK-702fb7d3-13-nitrile
     RDKit          3D

 41 46  0  0  0  0  0  0  0  0999 V2000
    7.2460   -4.1040   20.3200 C   0  0  0  0  0  0  0  0  0  0  0  0
    6.3750   -3.4480   19.5960 N   0  0  0  0  0  0  0  0  0  0  0  0
    7.6760   -3.8650   21.7410 N   0  0  0  0  0  0  0  0  0  0  0  0
    7.2120   -4.8020   22.7970 C   0  0  0  0  0  0  0  0  0  0  0  0
    8.8130   -2.9030   22.2760 C   0  0  0  0  0  0  0  0  0  0  0  0
    7.5860   -4.5020   24.2620 C   0  0  0  0  0  0  0  0  0  0  0  0
    9.6220   -3.3960   23.6130 C   0  0  2  0  0  0  0  0  0  0  0  0
    6.6270   -4.9980   25.3590 C   0  0  0  0  0  0  0  0  0  0  0  0
    8.7380   -3.8330   24.5790 C   0  0  0  0  0  0  0  0  0  0  0  0
   10.9640   -2.8320   24.0510 C   0  0  0  0  0  0  0  0  0  0  0  0
    6.6950   -4.8920   26.8970 C   0  0  0  0  0  0  0  0  0  0  0  0
    8.9850   -3.6370   25.8980 C   0  0  0  0  0  0  0  0  0  0  0  0
   11.5690   -1.6020   23.8230 C   0  0  0  0  0  0  0  0  0  0  0  0
   11.7880   -3.7160   24.8010 C   0  0  0  0  0  0  0  0  0  0  0  0
    8.0140   -4.1440   26.9560 C   0  0  0  0  0  0  0  0  0  0  0  0
   12.8830   -1.3370   24.2970 C   0  0  0  0  0  0  0  0  0  0  0  0
   13.2260   -3.6200   25.3460 C   0  0  0  0  0  0  0  0  0  0  0  0
   13.7580   -2.4050   25.0940 C   0  0  0  0  0  0  0  0  0  0  0  0
   14.0670   -4.7450   26.0770 N   0  0  0  0  0  0  0  0  0  0  0  0
   15.4820   -5.4000   25.9040 C   0  0  0  0  0  0  0  0  0  0  0  0
   16.2360   -6.8890   25.6620 C   0  0  0  0  0  0  0  0  0  0  0  0
   17.0290   -7.7180   26.5930 C   0  0  0  0  0  0  0  0  0  0  0  0
   16.4720   -7.8670   24.6690 C   0  0  0  0  0  0  0  0  0  0  0  0
   17.4110   -8.9320   25.9200 C   0  0  0  0  0  0  0  0  0  0  0  0
   17.1480   -9.0210   24.9500 N   0  0  0  0  0  0  0  0  0  0  0  0
   17.8770  -10.2380   25.3560 C   0  0  0  0  0  0  0  0  0  0  0  0
   17.9590  -10.6850   24.7720 S   0  0  0  0  0  0  0  0  0  0  0  0
   16.8990  -11.1430   24.9770 C   0  0  0  0  0  0  0  0  0  0  0  0
   18.9660  -10.8010   24.9780 C   0  0  0  0  0  0  0  0  0  0  0  0
   18.9620  -10.1910   23.9550 O   0  0  0  0  0  0  0  0  0  0  0  0
   16.6590  -11.1260   24.4570 O   0  0  0  0  0  0  0  0  0  0  0  0
   18.0470  -12.4800   24.2630 C   0  0  0  0  0  0  0  0  0  0  0  0
   16.6660  -12.5530   24.3900 C   0  0  0  0  0  0  0  0  0  0  0  0
   19.0620  -11.9840   24.4180 C   0  0  0  0  0  0  0  0  0  0  0  0
   20.0240  -10.3390   25.0460 F   0  0  0  0  0  0  0  0  0  0  0  0
   19.2100  -13.0920   23.7160 C   0  0  0  0  0  0  0  0  0  0  0  0
   17.0090  -13.3830   24.3450 C   0  0  0  0  0  0  0  0  0  0  0  0
   18.1120  -12.8260   24.1680 C   0  0  0  0  0  0  0  0  0  0  0  0
   19.2750  -14.6090   23.2560 C   0  0  0  0  0  0  0  0  0  0  0  0
   16.9790  -14.7480   23.9890 N   0  0  0  0  0  0  0  0  0  0  0  0
   18.0270  -15.3700   23.4670 C   0  0  0  0  0  0  0  0  0  0  0  0
  1  2  2  3
  1  3  1  0
  3  4  1  0
  3  5  1  0
  4  6  1  0
  5  7  1  0
  6  8  1  0
  6  9  2  0
  7  9  1  0
  7 10  1  1
  8 11  2  0
  9 12  1  0
 10 13  2  0
 10 14  1  0
 11 15  1  0
 12 15  2  0
 13 16  1  0
 14 17  2  0
 16 18  2  0
 17 18  1  0
 17 19  1  0
 19 20  1  0
 20 21  1  0
 21 22  1  0
 21 23  2  0
 22 24  2  0
 23 25  1  0
 24 25  1  0
 24 26  1  0
 25 27  1  0
 26 28  2  0
 26 29  1  0
 27 30  2  0
 27 31  2  0
 27 32  1  0
 28 33  1  0
 29 34  2  0
 29 35  1  0
 32 36  2  0
 32 37  1  0
 33 38  2  0
 34 38  1  0
 36 39  1  0
 37 40  2  0
 39 41  2  0
 40 41  1  0
M  END
