MAK-UNK-8fdbca50-12-chloroacetamide
     RDKit          3D

 39 42  0  0  0  0  0  0  0  0999 V2000
    9.1070   -3.9200   20.3240 C   0  0  0  0  0  0  0  0  0  0  0  0
    7.7360   -3.1680   20.1490 C   0  0  0  0  0  0  0  0  0  0  0  0
    6.7240   -3.4850   19.4350 O   0  0  0  0  0  0  0  0  0  0  0  0
    7.5980   -2.0330   20.9810 N   0  0  0  0  0  0  0  0  0  0  0  0
    6.5380   -2.0600   21.9910 C   0  0  0  0  0  0  0  0  0  0  0  0
    8.7910   -1.4230   21.6200 C   0  0  0  0  0  0  0  0  0  0  0  0
    7.1510   -2.7390   23.1890 C   0  0  0  0  0  0  0  0  0  0  0  0
    9.2970   -2.2790   22.6020 C   0  0  0  0  0  0  0  0  0  0  0  0
    8.4130   -3.3050   22.9170 C   0  0  0  0  0  0  0  0  0  0  0  0
    8.8640   -4.3550   23.7020 C   0  0  0  0  0  0  0  0  0  0  0  0
   10.1380   -4.4140   24.2670 O   0  0  0  0  0  0  0  0  0  0  0  0
    7.7800   -5.3880   23.8270 N   0  0  0  0  0  0  0  0  0  0  0  0
    6.5970   -5.1450   22.9280 C   0  0  0  0  0  0  0  0  0  0  0  0
    8.0220   -6.8400   24.1090 C   0  0  1  0  0  0  0  0  0  0  0  0
    6.6410   -7.2850   23.9880 C   0  0  0  0  0  0  0  0  0  0  0  0
    8.9090   -7.4950   23.0040 C   0  0  0  0  0  0  0  0  0  0  0  0
   10.1410   -6.7910   22.6430 C   0  0  0  0  0  0  0  0  0  0  0  0
    8.7220   -8.6610   22.2370 C   0  0  0  0  0  0  0  0  0  0  0  0
   10.9320   -7.3910   21.6370 C   0  0  0  0  0  0  0  0  0  0  0  0
    9.7040   -9.0100   21.1610 C   0  0  0  0  0  0  0  0  0  0  0  0
    7.6220   -9.3820   22.4850 F   0  0  0  0  0  0  0  0  0  0  0  0
   10.6510   -8.5070   20.9390 C   0  0  0  0  0  0  0  0  0  0  0  0
    9.6080   -9.8930   20.1100 C   0  0  0  0  0  0  0  0  0  0  0  0
    9.7760   -9.3770   19.0890 C   0  0  0  0  0  0  0  0  0  0  0  0
    9.1150  -11.1400   19.8650 N   0  0  0  0  0  0  0  0  0  0  0  0
    9.3370  -10.1840   18.1850 C   0  0  0  0  0  0  0  0  0  0  0  0
    8.9770  -11.4620   18.6140 C   0  0  0  0  0  0  0  0  0  0  0  0
    8.5360  -11.9870   20.8570 S   0  0  0  0  0  0  0  0  0  0  0  0
    9.2880   -9.4730   17.0090 C   0  0  0  0  0  0  0  0  0  0  0  0
    7.5330  -12.0700   20.1150 O   0  0  0  0  0  0  0  0  0  0  0  0
    9.7520  -12.6950   20.4450 O   0  0  0  0  0  0  0  0  0  0  0  0
    8.3820  -10.2510   21.9300 C   0  0  0  0  0  0  0  0  0  0  0  0
   10.1580  -10.3830   15.4890 N   0  0  0  0  0  0  0  0  0  0  0  0
    9.2210   -9.0070   21.7930 C   0  0  0  0  0  0  0  0  0  0  0  0
    7.4950  -10.0690   22.7220 C   0  0  0  0  0  0  0  0  0  0  0  0
   10.1820  -10.6030   14.0060 C   0  0  0  0  0  0  0  0  0  0  0  0
    8.9910   -7.8110   22.5060 C   0  0  0  0  0  0  0  0  0  0  0  0
    7.1690   -8.9190   23.3660 N   0  0  0  0  0  0  0  0  0  0  0  0
    7.9100   -7.8180   23.2880 C   0  0  0  0  0  0  0  0  0  0  0  0
  1  2  1  0
  2  3  2  0
  2  4  1  0
  4  5  1  0
  4  6  1  0
  5  7  1  0
  6  8  1  0
  7  9  1  0
  8  9  1  0
  9 10  1  0
 10 11  2  0
 10 12  1  0
 12 13  1  0
 12 14  1  0
 14 15  1  6
 14 16  1  0
 16 17  2  0
 16 18  1  0
 17 19  1  0
 18 20  2  0
 18 21  1  0
 19 22  2  0
 20 22  1  0
 20 23  1  0
 23 24  2  0
 23 25  1  0
 24 26  1  0
 25 27  1  0
 26 27  2  0
 25 28  1  0
 26 29  1  0
 28 30  2  0
 28 31  2  0
 28 32  1  0
 29 33  1  0
 32 34  2  0
 32 35  1  0
 33 36  1  0
 34 37  1  0
 35 38  2  0
 37 39  2  0
 38 39  1  0
M  END
