MAK-UNK-5d2caa6f-9-chloroacetamide
     RDKit          3D

 26 30  0  0  0  0  0  0  0  0999 V2000
    7.5820   -2.9650   18.6270 C   0  0  0  0  0  0  0  0  0  0  0  0
    6.8950   -3.1510   19.9370 C   0  0  0  0  0  0  0  0  0  0  0  0
    5.9020   -3.9670   19.8400 O   0  0  0  0  0  0  0  0  0  0  0  0
    7.4950   -2.4150   21.0780 N   0  0  0  0  0  0  0  0  0  0  0  0
    8.6350   -2.8610   21.6320 C   0  0  0  0  0  0  0  0  0  0  0  0
    6.9270   -1.8100   22.3040 C   0  0  2  0  0  0  0  0  0  0  0  0
    8.0730   -3.4740   22.8800 C   0  0  2  0  0  0  0  0  0  0  0  0
    8.0150   -1.2860   23.4920 C   0  0  1  0  0  0  0  0  0  0  0  0
    6.5850   -3.2290   22.7720 C   0  0  0  0  0  0  0  0  0  0  0  0
    8.2490   -2.5370   24.0040 C   0  0  0  0  0  0  0  0  0  0  0  0
    9.2790   -0.5830   23.2970 C   0  0  0  0  0  0  0  0  0  0  0  0
    9.3250    0.8080   23.0990 N   0  0  0  0  0  0  0  0  0  0  0  0
   10.5570   -1.1610   23.3530 C   0  0  0  0  0  0  0  0  0  0  0  0
   10.5260    1.5090   22.9450 C   0  0  0  0  0  0  0  0  0  0  0  0
   11.7370   -0.3530   23.1440 C   0  0  0  0  0  0  0  0  0  0  0  0
   10.7170   -2.4400   23.6160 C   0  0  0  0  0  0  0  0  0  0  0  0
   10.6310    3.0400   22.8190 C   0  0  0  0  0  0  0  0  0  0  0  0
   11.7430    0.9720   22.9270 N   0  0  0  0  0  0  0  0  0  0  0  0
   13.1530   -0.9120   23.1680 C   0  0  0  0  0  0  0  0  0  0  0  0
   11.9960   -3.1040   23.7210 C   0  0  0  0  0  0  0  0  0  0  0  0
   11.8590    3.5710   22.4350 C   0  0  0  0  0  0  0  0  0  0  0  0
    9.5580    3.8850   23.0990 C   0  0  0  0  0  0  0  0  0  0  0  0
   13.3010   -2.3920   23.4870 C   0  0  0  0  0  0  0  0  0  0  0  0
   12.0270    4.9590   22.3290 C   0  0  0  0  0  0  0  0  0  0  0  0
    9.6240    5.3260   23.0260 N   0  0  0  0  0  0  0  0  0  0  0  0
   10.8390    5.8530   22.6470 C   0  0  0  0  0  0  0  0  0  0  0  0
  1  2  1  0
  2  3  2  0
  2  4  1  0
  4  5  1  0
  6  4  1  6
  7  5  1  6
  6  8  1  0
  6  9  1  0
  7  9  1  0
  7 10  1  0
  8 10  1  0
  8 11  1  6
 11 12  2  0
 11 13  1  0
 12 14  1  0
 13 15  2  0
 13 16  1  0
 14 17  1  0
 14 18  2  0
 15 18  1  0
 15 19  1  0
 16 20  2  0
 17 21  2  0
 17 22  1  0
 19 23  2  0
 20 23  1  0
 21 24  1  0
 22 25  2  0
 24 26  2  0
 25 26  1  0
M  END
