MAK-UNK-5d2caa6f-2-chloroacetamide
     RDKit          3D

 30 34  0  0  0  0  0  0  0  0999 V2000
    7.3720   -2.8900   18.6490 C   0  0  0  0  0  0  0  0  0  0  0  0
    6.4780   -3.0850   19.8780 C   0  0  0  0  0  0  0  0  0  0  0  0
    5.6000   -3.9900   19.7670 O   0  0  0  0  0  0  0  0  0  0  0  0
    6.7030   -2.2420   21.0360 N   0  0  0  0  0  0  0  0  0  0  0  0
    6.1110   -2.4180   22.3560 C   0  0  0  0  0  0  0  0  0  0  0  0
    8.1240   -1.9560   21.3570 C   0  0  2  0  0  0  0  0  0  0  0  0
    7.2980   -3.2310   22.9150 C   0  0  2  0  0  0  0  0  0  0  0  0
    8.1200   -3.3160   21.6190 C   0  0  0  0  0  0  0  0  0  0  0  0
    8.7960   -1.5880   22.5640 C   0  0  0  0  0  0  0  0  0  0  0  0
    6.7030   -4.5130   23.4830 C   0  0  0  0  0  0  0  0  0  0  0  0
    9.8960   -0.5550   22.8620 C   0  0  0  0  0  0  0  0  0  0  0  0
    8.3400   -2.4180   23.5890 C   0  0  0  0  0  0  0  0  0  0  0  0
    5.6050   -4.1630   24.4960 C   0  0  0  0  0  0  0  0  0  0  0  0
    7.1210   -5.7480   23.1070 C   0  0  0  0  0  0  0  0  0  0  0  0
   10.4450    0.3110   22.0190 O   0  0  0  0  0  0  0  0  0  0  0  0
   10.3600   -0.5680   24.1400 C   0  0  0  0  0  0  0  0  0  0  0  0
    8.8690   -2.3690   24.8600 C   0  0  0  0  0  0  0  0  0  0  0  0
    4.9520   -5.4460   25.1080 C   0  0  0  0  0  0  0  0  0  0  0  0
    6.5640   -6.8410   23.6310 C   0  0  0  0  0  0  0  0  0  0  0  0
   11.2220    1.2130   22.8290 C   0  0  0  0  0  0  0  0  0  0  0  0
    9.8780   -1.4410   25.0760 C   0  0  0  0  0  0  0  0  0  0  0  0
    5.5420   -6.7900   24.5700 C   0  0  0  0  0  0  0  0  0  0  0  0
    7.2080   -8.2900   23.0570 Cl  0  0  0  0  0  0  0  0  0  0  0  0
   12.6890    0.8040   22.8840 C   0  0  0  0  0  0  0  0  0  0  0  0
   13.0640   -0.4960   23.3530 N   0  0  0  0  0  0  0  0  0  0  0  0
   12.5490   -0.9700   24.6530 C   0  0  0  0  0  0  0  0  0  0  0  0
   12.9280   -1.4510   22.2790 C   0  0  0  0  0  0  0  0  0  0  0  0
   13.1980   -2.2850   25.0690 C   0  0  0  0  0  0  0  0  0  0  0  0
   13.1260   -2.8260   22.7950 C   0  0  0  0  0  0  0  0  0  0  0  0
   13.8870   -2.8870   23.9950 O   0  0  0  0  0  0  0  0  0  0  0  0
  1  2  1  0
  2  3  2  0
  2  4  1  0
  4  5  1  0
  6  4  1  1
  5  7  1  0
  6  8  1  0
  7  8  1  0
  6  9  1  0
  7 10  1  1
  9 11  2  0
  7 12  1  0
  9 12  1  0
 10 13  2  0
 10 14  1  0
 11 15  1  0
 11 16  1  0
 12 17  2  0
 13 18  1  0
 14 19  2  0
 15 20  1  0
 16 21  2  0
 17 21  1  0
 18 22  2  0
 19 22  1  0
 19 23  1  0
 20 24  1  0
 24 25  1  0
 25 26  1  0
 25 27  1  0
 26 28  1  0
 27 29  1  0
 28 30  1  0
 29 30  1  0
M  END
