MAK-UNK-10799360-13-chloroacetamide
     RDKit          3D

 25 28  0  0  0  0  0  0  0  0999 V2000
    7.0740   -3.5530   19.4000 C   0  0  0  0  0  0  0  0  0  0  0  0
    5.6840   -3.3770   19.9420 C   0  0  0  0  0  0  0  0  0  0  0  0
    4.7660   -3.7270   19.2570 O   0  0  0  0  0  0  0  0  0  0  0  0
    5.5830   -2.9190   21.2050 N   0  0  0  0  0  0  0  0  0  0  0  0
    5.6960   -1.4640   21.3540 C   0  0  0  0  0  0  0  0  0  0  0  0
    6.5450   -3.5470   22.1170 C   0  0  2  0  0  0  0  0  0  0  0  0
    6.9470   -1.3740   22.2360 C   0  0  2  0  0  0  0  0  0  0  0  0
    6.8620   -3.0880   23.5190 C   0  0  2  0  0  0  0  0  0  0  0  0
    7.6530   -2.6220   21.5960 C   0  0  0  0  0  0  0  0  0  0  0  0
    6.2650   -1.7150   23.5480 C   0  0  0  0  0  0  0  0  0  0  0  0
    8.3010   -2.6190   23.3390 C   0  0  0  0  0  0  0  0  0  0  0  0
    8.6460   -1.7120   24.3490 N   0  0  0  0  0  0  0  0  0  0  0  0
    9.5540   -2.9700   22.1000 S   0  0  0  0  0  0  0  0  0  0  0  0
    9.9680   -1.3430   24.0060 C   0  0  0  0  0  0  0  0  0  0  0  0
   10.6950   -1.8930   22.8180 C   0  0  0  0  0  0  0  0  0  0  0  0
   10.6200   -0.3730   24.8710 C   0  0  0  0  0  0  0  0  0  0  0  0
   11.9980   -1.4820   22.5350 C   0  0  0  0  0  0  0  0  0  0  0  0
    9.8250    0.0860   25.9740 C   0  0  0  0  0  0  0  0  0  0  0  0
   11.9540   -0.0130   24.4960 C   0  0  0  0  0  0  0  0  0  0  0  0
   12.5790   -0.5620   23.3780 C   0  0  0  0  0  0  0  0  0  0  0  0
    8.4420   -0.1210   26.0460 C   0  0  0  0  0  0  0  0  0  0  0  0
    7.9120    0.6060   27.5930 S   0  0  0  0  0  0  0  0  0  0  0  0
    6.7140   -0.4620   28.0870 N   0  0  0  0  0  0  0  0  0  0  0  0
    8.9870    0.5120   28.5600 O   0  0  0  0  0  0  0  0  0  0  0  0
    7.2720    1.8800   27.3380 O   0  0  0  0  0  0  0  0  0  0  0  0
  1  2  1  0
  2  3  2  0
  2  4  1  0
  4  5  1  0
  6  4  1  6
  7  5  1  6
  6  8  1  0
  6  9  1  0
  7  9  1  0
  7 10  1  0
  8 10  1  0
  8 11  1  6
 11 12  2  0
 11 13  1  0
 12 14  1  0
 13 15  1  0
 14 15  2  0
 14 16  1  0
 15 17  1  0
 16 18  1  0
 16 19  2  0
 17 20  2  0
 19 20  1  0
 18 21  1  0
 21 22  1  0
 22 23  1  0
 22 24  2  0
 22 25  2  0
M  END
