MAK-UNK-c74072e5-8-bromoalkyne
     RDKit          3D

 20 22  0  0  0  0  0  0  0  0999 V2000
    6.8930   -4.0830   20.2890 C   0  0  0  0  0  0  0  0  0  0  0  0
    5.5300   -4.0320   19.7780 C   0  0  0  0  0  0  0  0  0  0  0  0
    7.0790   -4.7590   21.5090 N   0  0  0  0  0  0  0  0  0  0  0  0
    6.3400   -5.8980   21.7890 C   0  0  0  0  0  0  0  0  0  0  0  0
    7.4930   -4.0160   22.7170 C   0  0  0  0  0  0  0  0  0  0  0  0
    5.2540   -5.4190   22.7190 C   0  0  0  0  0  0  0  0  0  0  0  0
    7.0310   -4.5700   23.9260 C   0  0  0  0  0  0  0  0  0  0  0  0
    5.7280   -4.8790   23.9020 N   0  0  0  0  0  0  0  0  0  0  0  0
    4.9920   -5.3340   25.3850 S   0  0  0  0  0  0  0  0  0  0  0  0
    5.9690   -5.3580   26.4390 O   0  0  0  0  0  0  0  0  0  0  0  0
    4.1620   -6.4720   25.0670 O   0  0  0  0  0  0  0  0  0  0  0  0
    3.8840   -3.9240   25.6610 C   0  0  0  0  0  0  0  0  0  0  0  0
    2.4250   -4.1700   25.4910 C   0  0  0  0  0  0  0  0  0  0  0  0
    4.3020   -2.6480   26.0180 C   0  0  0  0  0  0  0  0  0  0  0  0
    1.4650   -3.1950   25.6730 C   0  0  0  0  0  0  0  0  0  0  0  0
    3.1800   -1.5760   26.2130 C   0  0  0  0  0  0  0  0  0  0  0  0
    1.8160   -1.8460   26.0490 C   0  0  0  0  0  0  0  0  0  0  0  0
    0.7420   -0.7860   26.2510 C   0  0  0  0  0  0  0  0  0  0  0  0
   -0.0410   -1.0010   27.2640 C   0  0  0  0  0  0  0  0  0  0  0  0
   -0.8810   -1.1250   26.2770 C   0  0  0  0  0  0  0  0  0  0  0  0
  1  2  2  3
  1  3  1  0
  3  4  1  0
  3  5  1  0
  4  6  1  0
  5  7  1  0
  6  8  1  0
  7  8  1  0
  8  9  1  0
  9 10  2  0
  9 11  2  0
  9 12  1  0
 12 13  2  0
 12 14  1  0
 13 15  1  0
 14 16  2  0
 15 17  2  0
 16 17  1  0
 17 18  1  0
 18 19  1  0
 18 20  1  0
 19 20  1  0
M  END
