MAK-UNK-ec98eaf6-54-acrylamide
     RDKit          3D

 35 39  0  0  0  0  0  0  0  0999 V2000
    7.4210   -2.8490   18.2800 C   0  0  0  0  0  0  0  0  0  0  0  0
    6.1020   -2.6010   18.9630 C   0  0  0  0  0  0  0  0  0  0  0  0
    5.8960   -3.3360   20.2130 C   0  0  0  0  0  0  0  0  0  0  0  0
    5.2790   -4.4130   20.1870 O   0  0  0  0  0  0  0  0  0  0  0  0
    6.4530   -2.6660   21.2730 N   0  0  0  0  0  0  0  0  0  0  0  0
    7.2070   -1.4240   21.1120 C   0  0  0  0  0  0  0  0  0  0  0  0
    7.0640   -3.2720   22.4800 C   0  0  1  0  0  0  0  0  0  0  0  0
    8.1050   -1.4790   22.2960 C   0  0  2  0  0  0  0  0  0  0  0  0
    8.4390   -2.9740   22.3840 C   0  0  0  0  0  0  0  0  0  0  0  0
    6.5010   -2.4590   23.5690 C   0  0  0  0  0  0  0  0  0  0  0  0
    7.4230   -1.3030   23.6080 N   0  0  0  0  0  0  0  0  0  0  0  0
    8.2990   -1.2380   24.7500 C   0  0  1  0  0  0  0  0  0  0  0  0
    8.1270   -2.4340   25.4610 C   0  0  0  0  0  0  0  0  0  0  0  0
    9.5970   -0.8950   24.3490 C   0  0  0  0  0  0  0  0  0  0  0  0
    6.9670   -2.3940   26.2540 C   0  0  0  0  0  0  0  0  0  0  0  0
   10.0060    0.4430   23.6800 C   0  0  0  0  0  0  0  0  0  0  0  0
   10.6110   -1.7650   24.5550 C   0  0  0  0  0  0  0  0  0  0  0  0
    6.9390   -3.4930   27.1160 C   0  0  0  0  0  0  0  0  0  0  0  0
   11.3270    0.7490   23.2970 C   0  0  0  0  0  0  0  0  0  0  0  0
   11.9030   -1.5380   24.2080 C   0  0  0  0  0  0  0  0  0  0  0  0
   10.5140   -2.9950   25.1480 N   0  0  0  0  0  0  0  0  0  0  0  0
    5.9380   -3.7020   28.1980 C   0  0  0  0  0  0  0  0  0  0  0  0
    7.9220   -4.5080   26.9770 C   0  0  0  0  0  0  0  0  0  0  0  0
   12.3890   -0.2670   23.5440 C   0  0  0  0  0  0  0  0  0  0  0  0
   12.6130   -2.7400   24.6260 C   0  0  0  0  0  0  0  0  0  0  0  0
   11.7010   -3.5860   25.2080 C   0  0  0  0  0  0  0  0  0  0  0  0
    6.0300   -4.9210   29.0260 C   0  0  0  0  0  0  0  0  0  0  0  0
    7.9000   -5.6360   27.8440 C   0  0  0  0  0  0  0  0  0  0  0  0
   14.0100   -2.8930   24.4330 C   0  0  0  0  0  0  0  0  0  0  0  0
    6.9560   -5.8550   28.8710 C   0  0  0  0  0  0  0  0  0  0  0  0
   14.8430   -3.6710   25.4060 C   0  0  0  0  0  0  0  0  0  0  0  0
   15.7640   -4.5320   24.6530 N   0  0  0  0  0  0  0  0  0  0  0  0
   16.9010   -5.1230   25.1240 C   0  0  0  0  0  0  0  0  0  0  0  0
   18.1480   -4.4190   24.6650 C   0  0  0  0  0  0  0  0  0  0  0  0
   16.9430   -6.1260   25.8320 O   0  0  0  0  0  0  0  0  0  0  0  0
  1  2  1  0
  2  3  1  0
  3  4  2  0
  3  5  1  0
  5  6  1  0
  5  7  1  0
  8  6  1  6
  7  9  1  0
  8  9  1  0
  7 10  1  1
  8 11  1  0
 10 11  1  0
 11 12  1  0
 12 13  1  6
 12 14  1  0
 13 15  1  0
 14 16  1  0
 14 17  2  0
 15 18  1  0
 16 19  2  0
 17 20  1  0
 17 21  1  0
 18 22  2  0
 18 23  1  0
 19 24  1  0
 20 24  2  0
 20 25  1  0
 21 26  1  0
 25 26  2  0
 22 27  1  0
 23 28  2  0
 25 29  1  0
 27 30  2  0
 28 30  1  0
 29 31  1  0
 31 32  1  0
 32 33  1  0
 33 34  1  0
 33 35  2  0
M  END
