MAK-UNK-7c9d1431-22-nitrile
     RDKit          3D

 20 21  0  0  0  0  0  0  0  0999 V2000
    6.7520   -4.1330   20.1390 C   0  0  0  0  0  0  0  0  0  0  0  0
    5.6920   -3.7270   19.6080 N   0  0  0  0  0  0  0  0  0  0  0  0
    6.8560   -4.7400   21.3870 N   0  0  0  0  0  0  0  0  0  0  0  0
    7.4360   -3.9830   22.5240 C   0  0  0  0  0  0  0  0  0  0  0  0
    6.1940   -6.0240   21.7450 C   0  0  0  0  0  0  0  0  0  0  0  0
    6.4910   -3.8990   23.7310 C   0  0  0  0  0  0  0  0  0  0  0  0
    5.2690   -5.8840   22.9770 C   0  0  0  0  0  0  0  0  0  0  0  0
    5.9750   -5.2360   24.1260 N   0  0  0  0  0  0  0  0  0  0  0  0
    5.2060   -5.3690   25.6430 S   0  0  0  0  0  0  0  0  0  0  0  0
    6.1810   -5.0290   26.6550 O   0  0  0  0  0  0  0  0  0  0  0  0
    4.4980   -6.6330   25.6790 O   0  0  0  0  0  0  0  0  0  0  0  0
    3.9760   -4.0860   25.6290 C   0  0  0  0  0  0  0  0  0  0  0  0
    4.3490   -2.6470   25.9830 C   0  0  0  0  0  0  0  0  0  0  0  0
    2.6510   -4.3610   25.3060 C   0  0  0  0  0  0  0  0  0  0  0  0
    3.2390   -1.6340   25.9550 C   0  0  0  0  0  0  0  0  0  0  0  0
    1.6600   -3.3750   25.2970 C   0  0  0  0  0  0  0  0  0  0  0  0
    1.9370   -2.0380   25.6220 C   0  0  0  0  0  0  0  0  0  0  0  0
    1.0270   -1.0190   25.6490 O   0  0  0  0  0  0  0  0  0  0  0  0
    0.8410   -0.3020   26.8680 C   0  0  0  0  0  0  0  0  0  0  0  0
    0.9980   -1.1440   27.9680 C   0  0  0  0  0  0  0  0  0  0  0  0
  1  2  2  3
  1  3  1  0
  3  4  1  0
  3  5  1  0
  4  6  1  0
  5  7  1  0
  6  8  1  0
  7  8  1  0
  8  9  1  0
  9 10  2  0
  9 11  2  0
  9 12  1  0
 12 13  2  0
 12 14  1  0
 13 15  1  0
 14 16  2  0
 15 17  2  0
 16 17  1  0
 17 18  1  0
 18 19  1  0
 19 20  1  0
M  END
