MAK-UNK-5d2caa6f-21-nitrile
     RDKit          3D

 19 21  0  0  0  0  0  0  0  0999 V2000
    7.8630   -3.0070   19.6800 C   0  0  0  0  0  0  0  0  0  0  0  0
    7.2410   -2.5290   18.6050 N   0  0  0  0  0  0  0  0  0  0  0  0
    8.7930   -2.1540   20.7970 N   0  0  0  0  0  0  0  0  0  0  0  0
    8.1730   -1.0920   21.6840 C   0  0  0  0  0  0  0  0  0  0  0  0
   10.3190   -1.9250   21.4660 C   0  0  1  0  0  0  0  0  0  0  0  0
    9.1620   -0.9440   22.8160 C   0  0  2  0  0  0  0  0  0  0  0  0
   10.4310   -0.5650   22.1550 C   0  0  0  0  0  0  0  0  0  0  0  0
   10.6000   -2.5050   22.7720 C   0  0  0  0  0  0  0  0  0  0  0  0
    9.3460   -2.4710   23.0700 C   0  0  1  0  0  0  0  0  0  0  0  0
    8.7730   -2.7590   24.2600 C   0  0  0  0  0  0  0  0  0  0  0  0
    9.6670   -2.8470   25.0970 O   0  0  0  0  0  0  0  0  0  0  0  0
    7.7900   -2.9490   24.7300 N   0  0  0  0  0  0  0  0  0  0  0  0
    6.9630   -3.8760   24.0330 C   0  0  0  0  0  0  0  0  0  0  0  0
    7.3770   -5.1850   23.7950 C   0  0  0  0  0  0  0  0  0  0  0  0
    5.6980   -3.3970   23.5870 C   0  0  0  0  0  0  0  0  0  0  0  0
    6.5760   -6.0770   23.1120 C   0  0  0  0  0  0  0  0  0  0  0  0
    4.6030   -4.2050   22.8000 C   0  0  0  0  0  0  0  0  0  0  0  0
    5.2010   -1.5960   23.9530 Br  0  0  0  0  0  0  0  0  0  0  0  0
    5.2390   -5.6260   22.6270 C   0  0  0  0  0  0  0  0  0  0  0  0
  1  2  2  3
  1  3  1  0
  3  4  1  0
  3  5  1  0
  6  4  1  6
  5  7  1  0
  6  7  1  0
  5  8  1  1
  6  9  1  0
  8  9  1  0
  9 10  1  1
 10 11  2  0
 10 12  1  0
 12 13  1  0
 13 14  2  0
 13 15  1  0
 14 16  1  0
 15 17  2  0
 15 18  1  0
 16 19  2  0
 17 19  1  0
M  END
