MAK-UNK-ed378e62-7
     RDKit          3D

 10 10  0  0  0  0  0  0  0  0999 V2000
    5.9230   -5.7440   20.1820 C   0  0  0  0  0  0  0  0  0  0  0  0
    5.2580   -6.5570   21.5230 S   0  0  0  0  0  0  0  0  0  0  0  0
    5.7790   -5.5510   22.7720 C   0  0  0  0  0  0  0  0  0  0  0  0
    5.0220   -5.6300   23.8840 C   0  0  0  0  0  0  0  0  0  0  0  0
    6.8470   -4.7600   22.6290 N   0  0  0  0  0  0  0  0  0  0  0  0
    5.4220   -4.8200   24.8840 C   0  0  0  0  0  0  0  0  0  0  0  0
    7.1300   -4.0030   23.7190 C   0  0  0  0  0  0  0  0  0  0  0  0
    6.5110   -4.0080   24.7220 N   0  0  0  0  0  0  0  0  0  0  0  0
    8.2970   -3.0920   23.6730 C   0  0  0  0  0  0  0  0  0  0  0  0
    9.2310   -2.4010   23.6330 N   0  0  0  0  0  0  0  0  0  0  0  0
  1  2  1  0
  2  3  1  0
  3  4  2  0
  3  5  1  0
  4  6  1  0
  5  7  2  0
  6  8  2  0
  7  8  1  0
  7  9  1  0
  9 10  3  0
M  END
