MAK-UNK-849bee6c-13-bromoalkyne
     RDKit          3D

 24 26  0  0  0  0  0  0  0  0999 V2000
    6.6550   -3.6240   19.8700 C   0  0  0  0  0  0  0  0  0  0  0  0
    6.1500   -2.9160   18.6500 C   0  0  0  0  0  0  0  0  0  0  0  0
    6.8390   -2.9090   21.0230 N   0  0  0  0  0  0  0  0  0  0  0  0
    6.2850   -3.2730   22.2950 C   0  0  0  0  0  0  0  0  0  0  0  0
    7.6280   -1.6980   21.0340 C   0  0  0  0  0  0  0  0  0  0  0  0
    7.4270   -3.4730   23.2870 C   0  0  0  0  0  0  0  0  0  0  0  0
    8.7560   -2.0000   21.7710 C   0  0  0  0  0  0  0  0  0  0  0  0
    8.4690   -2.4410   23.1610 N   0  0  0  0  0  0  0  0  0  0  0  0
    9.6750   -2.5000   23.9250 C   0  0  0  0  0  0  0  0  0  0  0  0
   10.6370   -1.4010   23.5870 C   0  0  0  0  0  0  0  0  0  0  0  0
   12.1110   -1.6520   23.4280 C   0  0  0  0  0  0  0  0  0  0  0  0
   10.1470   -0.1140   23.4170 C   0  0  0  0  0  0  0  0  0  0  0  0
   12.9330   -0.4670   23.0990 C   0  0  0  0  0  0  0  0  0  0  0  0
   10.9610    0.9690   23.1060 C   0  0  0  0  0  0  0  0  0  0  0  0
   12.3430    0.8040   22.9520 C   0  0  0  0  0  0  0  0  0  0  0  0
   10.3140    2.0180   22.9920 O   0  0  0  0  0  0  0  0  0  0  0  0
   10.7040    3.2650   23.4170 C   0  0  0  0  0  0  0  0  0  0  0  0
   10.0990    3.8730   24.6140 C   0  0  0  0  0  0  0  0  0  0  0  0
   11.6380    3.8820   22.6760 N   0  0  0  0  0  0  0  0  0  0  0  0
   10.5080    5.1310   25.0030 C   0  0  0  0  0  0  0  0  0  0  0  0
   11.9940    5.1300   23.1110 C   0  0  0  0  0  0  0  0  0  0  0  0
   11.4560    5.7920   24.2700 N   0  0  0  0  0  0  0  0  0  0  0  0
   12.9690    5.8790   22.3960 C   0  0  0  0  0  0  0  0  0  0  0  0
   13.3470    7.1130   22.7590 N   0  0  0  0  0  0  0  0  0  0  0  0
  1  2  2  3
  1  3  1  0
  3  4  1  0
  3  5  1  0
  4  6  1  0
  5  7  1  0
  6  8  1  0
  7  8  1  0
  8  9  1  0
  9 10  1  0
 10 11  2  0
 10 12  1  0
 11 13  1  0
 12 14  2  0
 13 15  2  0
 14 15  1  0
 14 16  1  0
 16 17  1  0
 17 18  2  0
 17 19  1  0
 18 20  1  0
 19 21  2  0
 20 22  2  0
 21 22  1  0
 21 23  1  0
 23 24  3  0
M  END
