MAK-UNK-a7992eb3-9-chloroacetamide
     RDKit          3D

 31 34  0  0  0  0  0  0  0  0999 V2000
    7.7160   -3.6780   20.4990 C   0  0  0  0  0  0  0  0  0  0  0  0
    6.4780   -4.4860   20.7520 C   0  0  0  0  0  0  0  0  0  0  0  0
    5.5400   -4.5300   19.9340 O   0  0  0  0  0  0  0  0  0  0  0  0
    6.4320   -5.1880   21.9480 N   0  0  0  0  0  0  0  0  0  0  0  0
    5.6710   -6.3840   22.1610 C   0  0  0  0  0  0  0  0  0  0  0  0
    7.0070   -4.6070   23.1570 C   0  0  0  0  0  0  0  0  0  0  0  0
    4.7610   -6.1390   23.3170 C   0  0  0  0  0  0  0  0  0  0  0  0
    5.8920   -4.1200   23.8720 C   0  0  0  0  0  0  0  0  0  0  0  0
    5.2250   -5.3980   24.4370 C   0  0  0  0  0  0  0  0  0  0  0  0
    4.2290   -5.0610   25.3780 C   0  0  0  0  0  0  0  0  0  0  0  0
    3.2140   -5.9910   25.6080 O   0  0  0  0  0  0  0  0  0  0  0  0
    4.2470   -3.7720   26.1710 N   0  0  0  0  0  0  0  0  0  0  0  0
    3.6620   -2.5170   25.6020 C   0  0  0  0  0  0  0  0  0  0  0  0
    4.4390   -1.6650   24.6380 C   0  0  0  0  0  0  0  0  0  0  0  0
    2.3660   -2.0140   25.9000 C   0  0  0  0  0  0  0  0  0  0  0  0
    3.9690   -0.4780   24.0480 C   0  0  0  0  0  0  0  0  0  0  0  0
    1.8590   -0.8350   25.3280 C   0  0  0  0  0  0  0  0  0  0  0  0
    1.6080   -2.5920   26.6870 O   0  0  0  0  0  0  0  0  0  0  0  0
    2.5920   -0.0420   24.4170 C   0  0  0  0  0  0  0  0  0  0  0  0
    0.2570   -2.2860   26.6670 C   0  0  0  0  0  0  0  0  0  0  0  0
   -0.2610   -1.6080   27.7720 C   0  0  0  0  0  0  0  0  0  0  0  0
   -1.6100   -1.2680   27.7410 C   0  0  0  0  0  0  0  0  0  0  0  0
    0.5530   -0.3070   28.0330 C   0  0  0  0  0  0  0  0  0  0  0  0
    0.1040   -2.3630   29.0770 C   0  0  0  0  0  0  0  0  0  0  0  0
   -2.6110   -2.0980   28.2430 C   0  0  0  0  0  0  0  0  0  0  0  0
   -2.0530   -0.0590   27.1970 N   0  0  0  0  0  0  0  0  0  0  0  0
    1.7080   -0.8030   28.6430 C   0  0  0  0  0  0  0  0  0  0  0  0
    1.4530   -2.0410   29.2280 C   0  0  0  0  0  0  0  0  0  0  0  0
   -3.9430   -1.8220   28.2400 C   0  0  0  0  0  0  0  0  0  0  0  0
   -3.3620    0.3750   27.1140 C   0  0  0  0  0  0  0  0  0  0  0  0
   -4.3790   -0.6210   27.6990 C   0  0  0  0  0  0  0  0  0  0  0  0
  1  2  1  0
  2  3  2  0
  2  4  1  0
  4  5  1  0
  4  6  1  0
  5  7  1  0
  6  8  1  0
  7  9  1  0
  8  9  1  0
  9 10  1  0
 10 11  2  0
 10 12  1  0
 12 13  1  0
 13 14  2  0
 13 15  1  0
 14 16  1  0
 15 17  2  0
 15 18  1  0
 16 19  2  0
 17 19  1  0
 18 20  1  0
 21 20  1  0
 21 22  1  0
 21 23  1  0
 21 24  1  0
 22 25  2  0
 22 26  1  0
 23 27  1  0
 24 28  1  0
 27 28  1  0
 25 29  1  0
 26 30  2  0
 29 31  2  0
 30 31  1  0
M  END
