MAK-UNK-10dfa458-15-vinylsulfonamide
     RDKit          3D

 35 38  0  0  0  0  0  0  0  0999 V2000
    6.1000   -5.4020   20.3290 C   0  0  0  0  0  0  0  0  0  0  0  0
    6.3560   -5.8200   21.7760 C   0  0  0  0  0  0  0  0  0  0  0  0
    5.0690   -5.1480   22.7920 S   0  0  0  0  0  0  0  0  0  0  0  0
    3.8020   -5.6040   22.2980 O   0  0  0  0  0  0  0  0  0  0  0  0
    5.3170   -3.7390   22.9810 O   0  0  0  0  0  0  0  0  0  0  0  0
    5.2890   -5.9280   24.2850 N   0  0  0  0  0  0  0  0  0  0  0  0
    6.3240   -5.3000   25.1030 C   0  0  0  0  0  0  0  0  0  0  0  0
    4.0470   -6.2090   25.0120 C   0  0  0  0  0  0  0  0  0  0  0  0
    5.8820   -5.1630   26.5640 C   0  0  0  0  0  0  0  0  0  0  0  0
    3.5900   -5.0080   25.8750 C   0  0  0  0  0  0  0  0  0  0  0  0
    4.6780   -4.3440   26.6140 N   0  0  0  0  0  0  0  0  0  0  0  0
    4.6410   -2.9720   26.4150 C   0  0  0  0  0  0  0  0  0  0  0  0
    5.4250   -2.4640   25.2600 C   0  0  0  0  0  0  0  0  0  0  0  0
    6.8420   -3.0390   25.0780 C   0  0  0  0  0  0  0  0  0  0  0  0
    4.9890   -1.5120   24.3250 C   0  0  0  0  0  0  0  0  0  0  0  0
    7.6240   -2.6010   24.0180 C   0  0  0  0  0  0  0  0  0  0  0  0
    5.9470   -1.0910   23.1730 C   0  0  0  0  0  0  0  0  0  0  0  0
    7.2390   -1.6570   23.0660 C   0  0  0  0  0  0  0  0  0  0  0  0
    8.1240   -1.2950   22.0470 C   0  0  0  0  0  0  0  0  0  0  0  0
    9.2030   -0.5680   22.4410 N   0  0  0  0  0  0  0  0  0  0  0  0
   10.2590   -1.2020   23.0040 C   0  0  0  0  0  0  0  0  0  0  0  0
   10.4430   -1.2000   24.2120 O   0  0  0  0  0  0  0  0  0  0  0  0
   11.1880   -1.8790   22.2220 C   0  0  0  0  0  0  0  0  0  0  0  0
   12.4500   -1.8990   22.7450 N   0  0  0  0  0  0  0  0  0  0  0  0
   13.2200   -0.8370   23.0470 C   0  0  0  0  0  0  0  0  0  0  0  0
   13.7210   -0.3130   21.7590 C   0  0  0  0  0  0  0  0  0  0  0  0
   13.8410   -1.2290   20.7120 C   0  0  0  0  0  0  0  0  0  0  0  0
   14.1940    1.0340   21.0610 C   0  0  0  0  0  0  0  0  0  0  0  0
   14.3250   -0.6100   19.6010 N   0  0  0  0  0  0  0  0  0  0  0  0
   14.5480    0.7270   19.7490 C   0  0  0  0  0  0  0  0  0  0  0  0
   14.3730    2.5760   21.3160 C   0  0  0  0  0  0  0  0  0  0  0  0
   15.0370    1.7540   18.7140 C   0  0  0  0  0  0  0  0  0  0  0  0
   14.7820    3.6020   20.2600 C   0  0  0  0  0  0  0  0  0  0  0  0
   15.1140    3.1840   19.0490 C   0  0  0  0  0  0  0  0  0  0  0  0
   14.8050    4.9080   20.5060 F   0  0  0  0  0  0  0  0  0  0  0  0
  1  2  1  0
  3  2  1  0
  3  4  2  0
  3  5  2  0
  3  6  1  0
  6  7  1  0
  6  8  1  0
  7  9  1  0
  8 10  1  0
  9 11  1  0
 10 11  1  0
 11 12  1  0
 12 13  1  0
 13 14  2  0
 13 15  1  0
 14 16  1  0
 15 17  2  0
 16 18  2  0
 17 18  1  0
 18 19  1  0
 19 20  1  0
 20 21  1  0
 21 22  2  0
 21 23  1  0
 23 24  1  0
 24 25  1  0
 25 26  1  0
 26 27  2  0
 26 28  1  0
 27 29  1  0
 28 30  2  0
 29 30  1  0
 28 31  1  0
 30 32  1  0
 31 33  2  0
 32 34  2  0
 33 34  1  0
 33 35  1  0
M  END
