MAK-UNK-5d2caa6f-2-nitrile
     RDKit          3D

 29 33  0  0  0  0  0  0  0  0999 V2000
    7.7810   -3.1970   19.8040 C   0  0  0  0  0  0  0  0  0  0  0  0
    6.9780   -2.7130   18.8590 N   0  0  0  0  0  0  0  0  0  0  0  0
    8.7380   -2.3820   20.7930 N   0  0  0  0  0  0  0  0  0  0  0  0
    8.2840   -1.6140   21.9920 C   0  0  0  0  0  0  0  0  0  0  0  0
   10.2490   -2.6510   21.2750 C   0  0  2  0  0  0  0  0  0  0  0  0
    9.3850   -2.0450   23.0660 C   0  0  2  0  0  0  0  0  0  0  0  0
    9.8060   -3.3230   22.4130 C   0  0  0  0  0  0  0  0  0  0  0  0
   11.3770   -1.6930   21.7210 C   0  0  0  0  0  0  0  0  0  0  0  0
    8.7500   -2.1380   24.4820 C   0  0  0  0  0  0  0  0  0  0  0  0
   12.8180   -1.0450   21.3040 C   0  0  0  0  0  0  0  0  0  0  0  0
   10.7530   -1.3370   22.9640 C   0  0  0  0  0  0  0  0  0  0  0  0
    8.4790   -3.6360   24.7380 C   0  0  0  0  0  0  0  0  0  0  0  0
    8.4850   -1.1140   25.3610 C   0  0  0  0  0  0  0  0  0  0  0  0
   13.8040   -0.9990   19.9430 O   0  0  0  0  0  0  0  0  0  0  0  0
   13.2600   -0.2480   22.3620 C   0  0  0  0  0  0  0  0  0  0  0  0
   11.3490   -0.4850   23.8700 C   0  0  0  0  0  0  0  0  0  0  0  0
    7.8570   -3.8910   26.1370 C   0  0  0  0  0  0  0  0  0  0  0  0
    7.9340   -1.3760   26.5910 C   0  0  0  0  0  0  0  0  0  0  0  0
   14.0290    0.0970   18.4140 C   0  0  0  0  0  0  0  0  0  0  0  0
   12.5730    0.0040   23.5500 C   0  0  0  0  0  0  0  0  0  0  0  0
    7.5920   -2.6490   27.0740 C   0  0  0  0  0  0  0  0  0  0  0  0
    7.6390   -0.0360   27.6290 Cl  0  0  0  0  0  0  0  0  0  0  0  0
   12.9460    0.9490   16.9590 C   0  0  0  0  0  0  0  0  0  0  0  0
   10.6840    0.5610   15.3750 N   0  0  0  0  0  0  0  0  0  0  0  0
   10.1800    0.4880   14.1590 C   0  0  0  0  0  0  0  0  0  0  0  0
    9.2240   -0.1730   15.6180 C   0  0  0  0  0  0  0  0  0  0  0  0
    8.6910    0.3670   14.4060 C   0  0  0  0  0  0  0  0  0  0  0  0
    7.9660    0.5120   16.1720 C   0  0  0  0  0  0  0  0  0  0  0  0
    8.0250    1.3780   15.1530 O   0  0  0  0  0  0  0  0  0  0  0  0
  1  2  2  3
  1  3  1  0
  3  4  1  0
  5  3  1  1
  4  6  1  0
  5  7  1  0
  6  7  1  0
  5  8  1  0
  6  9  1  1
  8 10  2  0
  6 11  1  0
  8 11  1  0
  9 12  2  0
  9 13  1  0
 10 14  1  0
 10 15  1  0
 11 16  2  0
 12 17  1  0
 13 18  2  0
 14 19  1  0
 15 20  2  0
 16 20  1  0
 17 21  2  0
 18 21  1  0
 18 22  1  0
 19 23  1  0
 23 24  1  0
 24 25  1  0
 24 26  1  0
 25 27  1  0
 26 28  1  0
 27 29  1  0
 28 29  1  0
M  END
