MAK-UNK-4b073b5c-11
     RDKit          3D

  7  7  0  0  0  0  0  0  0  0999 V2000
    6.0060   -4.1640   20.6860 C   0  0  0  0  0  0  0  0  0  0  0  0
    5.8780   -4.3370   22.0820 N   0  0  0  0  0  0  0  0  0  0  0  0
    6.8900   -4.4410   22.9820 C   0  0  0  0  0  0  0  0  0  0  0  0
    5.3250   -5.3710   22.7390 C   0  0  0  0  0  0  0  0  0  0  0  0
    8.0710   -4.2390   23.0370 O   0  0  0  0  0  0  0  0  0  0  0  0
    5.9580   -4.8870   23.8510 N   0  0  0  0  0  0  0  0  0  0  0  0
    4.6080   -6.2900   22.4840 O   0  0  0  0  0  0  0  0  0  0  0  0
  1  2  1  0
  2  3  1  0
  2  4  1  0
  3  5  2  0
  3  6  1  0
  4  6  1  0
  4  7  2  0
M  END
