MAK-UNK-10dfa458-5-chloroacetamide
     RDKit          3D

 19 20  0  0  0  0  0  0  0  0999 V2000
    7.5660   -3.6050   20.3850 C   0  0  0  0  0  0  0  0  0  0  0  0
    6.4090   -4.5350   20.6690 C   0  0  0  0  0  0  0  0  0  0  0  0
    5.4170   -4.6800   19.9510 O   0  0  0  0  0  0  0  0  0  0  0  0
    6.5520   -5.2510   21.8580 N   0  0  0  0  0  0  0  0  0  0  0  0
    7.2820   -4.6900   22.9970 C   0  0  0  0  0  0  0  0  0  0  0  0
    5.5420   -6.2510   22.2150 C   0  0  0  0  0  0  0  0  0  0  0  0
    6.3460   -4.1880   24.0870 C   0  0  0  0  0  0  0  0  0  0  0  0
    4.6460   -5.7310   23.1570 C   0  0  0  0  0  0  0  0  0  0  0  0
    5.4080   -5.2540   24.3630 N   0  0  0  0  0  0  0  0  0  0  0  0
    4.5940   -5.1820   25.8360 S   0  0  0  0  0  0  0  0  0  0  0  0
    3.7770   -6.3670   25.9290 O   0  0  0  0  0  0  0  0  0  0  0  0
    5.5940   -4.8880   26.8310 O   0  0  0  0  0  0  0  0  0  0  0  0
    3.5380   -3.8330   25.8070 C   0  0  0  0  0  0  0  0  0  0  0  0
    2.1120   -3.9010   25.4260 C   0  0  0  0  0  0  0  0  0  0  0  0
    4.0570   -2.5850   26.1760 C   0  0  0  0  0  0  0  0  0  0  0  0
    1.2750   -2.6080   25.4610 C   0  0  0  0  0  0  0  0  0  0  0  0
    3.2410   -1.4500   26.1840 C   0  0  0  0  0  0  0  0  0  0  0  0
    1.8880   -1.4130   25.8470 C   0  0  0  0  0  0  0  0  0  0  0  0
    3.8020   -0.2900   26.5500 F   0  0  0  0  0  0  0  0  0  0  0  0
  1  2  1  0
  2  3  2  0
  2  4  1  0
  4  5  1  0
  4  6  1  0
  5  7  1  0
  6  8  1  0
  7  9  1  0
  8  9  1  0
  9 10  1  0
 10 11  2  0
 10 12  2  0
 10 13  1  0
 13 14  2  0
 13 15  1  0
 14 16  1  0
 15 17  2  0
 16 18  2  0
 17 18  1  0
 17 19  1  0
M  END
