MAK-UNK-f983951f-23-acrylamide
     RDKit          3D

 14 14  0  0  0  0  0  0  0  0999 V2000
    8.1860   -4.2270   20.8850 C   0  0  0  0  0  0  0  0  0  0  0  0
    7.0750   -3.4760   21.5540 C   0  0  0  0  0  0  0  0  0  0  0  0
    5.9720   -4.4260   21.8670 C   0  0  0  0  0  0  0  0  0  0  0  0
    5.2600   -4.8390   20.9760 O   0  0  0  0  0  0  0  0  0  0  0  0
    5.8360   -4.7590   23.1890 N   0  0  0  0  0  0  0  0  0  0  0  0
    4.4930   -5.0380   23.7040 C   0  0  0  0  0  0  0  0  0  0  0  0
    3.7630   -3.8360   24.3450 C   0  0  0  0  0  0  0  0  0  0  0  0
    2.7260   -4.4180   25.2850 C   0  0  0  0  0  0  0  0  0  0  0  0
    3.9480   -2.4630   24.1620 C   0  0  0  0  0  0  0  0  0  0  0  0
    1.7600   -3.5680   26.1130 C   0  0  0  0  0  0  0  0  0  0  0  0
    3.0470   -1.4980   24.9480 C   0  0  0  0  0  0  0  0  0  0  0  0
    1.9930   -2.0830   25.8780 C   0  0  0  0  0  0  0  0  0  0  0  0
    1.1000   -1.0950   26.6430 C   0  0  0  0  0  0  0  0  0  0  0  0
   -0.3430   -1.3950   26.5400 N   0  0  0  0  0  0  0  0  0  0  0  0
  1  2  1  0
  2  3  1  0
  3  4  2  0
  3  5  1  0
  5  6  1  0
  6  7  1  0
  7  8  2  0
  7  9  1  0
  8 10  1  0
  9 11  2  0
 10 12  2  0
 11 12  1  0
 12 13  1  0
 13 14  3  0
M  END
