MAK-UNK-849bee6c-1-acrylamide
     RDKit          3D

 27 29  0  0  0  0  0  0  0  0999 V2000
    7.8280   -3.1520   19.2340 C   0  0  0  0  0  0  0  0  0  0  0  0
    6.6150   -2.3060   18.8910 C   0  0  0  0  0  0  0  0  0  0  0  0
    5.4760   -2.6030   19.8050 C   0  0  0  0  0  0  0  0  0  0  0  0
    4.7120   -3.5080   19.4800 O   0  0  0  0  0  0  0  0  0  0  0  0
    5.3670   -1.8480   20.9730 N   0  0  0  0  0  0  0  0  0  0  0  0
    5.3510   -2.5330   22.2460 C   0  0  0  0  0  0  0  0  0  0  0  0
    6.0620   -0.5670   21.0350 C   0  0  0  0  0  0  0  0  0  0  0  0
    6.7470   -2.7260   22.8400 C   0  0  0  0  0  0  0  0  0  0  0  0
    7.4850   -0.7180   21.6050 C   0  0  0  0  0  0  0  0  0  0  0  0
    7.5830   -1.5110   22.8570 N   0  0  0  0  0  0  0  0  0  0  0  0
    8.9200   -1.5810   23.2660 C   0  0  0  0  0  0  0  0  0  0  0  0
    9.7060   -0.2680   23.2730 C   0  0  0  0  0  0  0  0  0  0  0  0
    9.0490    1.0550   23.4400 C   0  0  0  0  0  0  0  0  0  0  0  0
   11.1070   -0.2750   23.1200 C   0  0  0  0  0  0  0  0  0  0  0  0
    9.7450    2.2720   23.4530 C   0  0  0  0  0  0  0  0  0  0  0  0
   11.8530    0.9160   23.1290 C   0  0  0  0  0  0  0  0  0  0  0  0
    9.2040    3.5490   23.6010 C   0  0  0  0  0  0  0  0  0  0  0  0
   11.2850    2.1730   23.2840 C   0  0  0  0  0  0  0  0  0  0  0  0
   13.2870    0.9750   22.9850 N   0  0  0  0  0  0  0  0  0  0  0  0
   14.0350    1.1500   21.7310 C   0  0  0  0  0  0  0  0  0  0  0  0
   14.7060    2.3650   21.4230 C   0  0  0  0  0  0  0  0  0  0  0  0
   14.2030    0.0560   20.5930 C   0  0  0  0  0  0  0  0  0  0  0  0
   15.5590    2.7120   20.1200 C   0  0  0  0  0  0  0  0  0  0  0  0
   14.9020    0.2480   19.5260 N   0  0  0  0  0  0  0  0  0  0  0  0
   13.5250   -1.3340   20.8840 C   0  0  0  0  0  0  0  0  0  0  0  0
   15.6600    1.4860   19.1850 C   0  0  0  0  0  0  0  0  0  0  0  0
   12.9260   -2.4950   21.1730 N   0  0  0  0  0  0  0  0  0  0  0  0
  1  2  1  0
  2  3  1  0
  3  4  2  0
  3  5  1  0
  5  6  1  0
  5  7  1  0
  6  8  1  0
  7  9  1  0
  8 10  1  0
  9 10  1  0
 10 11  1  0
 11 12  1  0
 12 13  2  0
 12 14  1  0
 13 15  1  0
 14 16  2  0
 15 17  1  0
 15 18  2  0
 16 18  1  0
 16 19  1  0
 19 20  1  0
 20 21  2  0
 20 22  1  0
 21 23  1  0
 22 24  2  0
 22 25  1  0
 23 26  2  0
 24 26  1  0
 25 27  3  0
M  END
