MAK-UNK-60abb798-7
     RDKit          3D

 24 26  0  0  0  0  0  0  0  0999 V2000
   12.3250   -4.3870   26.4320 N   0  0  0  0  0  0  0  0  0  0  0  0
   10.9960   -4.7360   26.3300 C   0  0  0  0  0  0  0  0  0  0  0  0
   10.2400   -3.7630   25.5930 C   0  0  2  0  0  0  0  0  0  0  0  0
    9.3320   -4.1720   24.9100 O   0  0  0  0  0  0  0  0  0  0  0  0
   11.1480   -2.9130   24.9850 C   0  0  0  0  0  0  0  0  0  0  0  0
    9.2980   -3.6480   23.6000 C   0  0  1  0  0  0  0  0  0  0  0  0
   10.7480   -2.0450   24.0150 C   0  0  0  0  0  0  0  0  0  0  0  0
   12.6180   -2.8660   25.3250 C   0  0  0  0  0  0  0  0  0  0  0  0
    8.3830   -4.3430   22.6200 C   0  0  1  0  0  0  0  0  0  0  0  0
    9.2780   -2.2390   23.6960 C   0  0  0  0  0  0  0  0  0  0  0  0
   13.4310   -1.9920   24.7030 C   0  0  0  0  0  0  0  0  0  0  0  0
   11.6110   -1.1380   23.4050 C   0  0  0  0  0  0  0  0  0  0  0  0
    7.5860   -5.2330   23.5540 C   0  0  0  0  0  0  0  0  0  0  0  0
    7.6280   -3.5550   21.7570 C   0  0  0  0  0  0  0  0  0  0  0  0
   12.9330   -1.1200   23.7510 C   0  0  0  0  0  0  0  0  0  0  0  0
   11.3050   -0.2290   22.4600 O   0  0  0  0  0  0  0  0  0  0  0  0
    6.5240   -6.0120   22.8420 C   0  0  0  0  0  0  0  0  0  0  0  0
    6.1720   -3.9860   21.4820 C   0  0  2  0  0  0  0  0  0  0  0  0
   13.7680   -0.1920   23.0930 O   0  0  0  0  0  0  0  0  0  0  0  0
    5.8080   -5.3030   21.8730 C   0  0  0  0  0  0  0  0  0  0  0  0
    5.8420   -3.6340   20.1800 C   0  0  0  0  0  0  0  0  0  0  0  0
    6.3290   -2.4260   19.6310 C   0  0  0  0  0  0  0  0  0  0  0  0
    7.1750   -1.5560   20.3390 C   0  0  0  0  0  0  0  0  0  0  0  0
    6.7650   -0.3550   20.8550 O   0  0  0  0  0  0  0  0  0  0  0  0
  1  2  1  0
  3  2  1  6
  3  4  1  0
  3  5  1  0
  4  6  1  0
  5  7  2  0
  5  8  1  0
  6  9  1  0
  6 10  1  1
  7 10  1  0
  8 11  2  0
  7 12  1  0
  9 13  1  1
  9 14  1  0
 11 15  1  0
 12 15  2  0
 12 16  1  0
 13 17  1  0
 14 18  1  0
 15 19  1  0
 17 20  1  0
 18 20  1  0
 18 21  1  6
 21 22  1  0
 22 23  1  0
 23 24  2  0
M  END
