MAK-UNK-212f693e-9-vinylsulfonamide
     RDKit          3D

 17 18  0  0  0  0  0  0  0  0999 V2000
    6.7230   -4.0780   20.3290 C   0  0  0  0  0  0  0  0  0  0  0  0
    7.1700   -3.4290   21.6480 C   0  0  0  0  0  0  0  0  0  0  0  0
    5.7950   -2.5230   22.2930 S   0  0  0  0  0  0  0  0  0  0  0  0
    4.5850   -3.1770   21.8270 O   0  0  0  0  0  0  0  0  0  0  0  0
    6.0350   -1.1280   21.9970 O   0  0  0  0  0  0  0  0  0  0  0  0
    5.9080   -2.6900   23.9760 N   0  0  0  0  0  0  0  0  0  0  0  0
    4.8100   -2.1030   24.7020 C   0  0  0  0  0  0  0  0  0  0  0  0
    6.0690   -3.9240   24.6130 C   0  0  0  0  0  0  0  0  0  0  0  0
    3.5600   -2.9080   24.3860 C   0  0  0  0  0  0  0  0  0  0  0  0
    4.9900   -4.7370   25.0220 C   0  0  0  0  0  0  0  0  0  0  0  0
    3.8510   -4.3560   24.2070 N   0  0  0  0  0  0  0  0  0  0  0  0
    4.0120   -4.7160   22.7940 O   0  0  0  0  0  0  0  0  0  0  0  0
    5.1240   -5.4730   22.6470 C   0  0  0  0  0  0  0  0  0  0  0  0
    4.6340   -6.6450   23.0580 C   0  0  0  0  0  0  0  0  0  0  0  0
    5.7970   -6.8930   22.7830 C   0  0  0  0  0  0  0  0  0  0  0  0
    5.7440   -5.8340   22.5550 C   0  0  0  0  0  0  0  0  0  0  0  0
    7.2860   -6.3470   22.2440 S   0  0  0  0  0  0  0  0  0  0  0  0
  1  2  1  0
  3  2  1  0
  3  4  2  0
  3  5  2  0
  3  6  1  0
  6  7  1  0
  6  8  1  0
  7  9  1  0
  8 10  1  0
  9 11  1  0
 10 11  1  0
 11 12  1  0
 12 13  1  0
 13 14  1  0
 13 15  2  0
 14 16  2  0
 15 17  1  0
 16 17  1  0
M  END
