MAK-UNK-72659d64-8-acrylamide
     RDKit          3D

 15 15  0  0  0  0  0  0  0  0999 V2000
    6.1310   -4.8450   20.0280 C   0  0  0  0  0  0  0  0  0  0  0  0
    6.4270   -3.4090   19.6580 C   0  0  0  0  0  0  0  0  0  0  0  0
    5.4680   -2.5820   20.4420 C   0  0  0  0  0  0  0  0  0  0  0  0
    4.6590   -3.1520   19.7100 O   0  0  0  0  0  0  0  0  0  0  0  0
    6.6860   -2.2610   20.9850 N   0  0  0  0  0  0  0  0  0  0  0  0
    7.4290   -1.2260   20.2830 C   0  0  0  0  0  0  0  0  0  0  0  0
    7.2640   -3.1660   21.8980 C   0  0  0  0  0  0  0  0  0  0  0  0
    6.3570   -3.8570   22.9120 C   0  0  0  0  0  0  0  0  0  0  0  0
    6.7610   -3.7250   24.3480 C   0  0  0  0  0  0  0  0  0  0  0  0
    5.3580   -4.4860   22.6520 N   0  0  0  0  0  0  0  0  0  0  0  0
    5.9430   -4.3570   25.3560 C   0  0  0  0  0  0  0  0  0  0  0  0
    4.5560   -5.1230   23.7340 C   0  0  0  0  0  0  0  0  0  0  0  0
    4.8190   -5.0760   25.0650 N   0  0  0  0  0  0  0  0  0  0  0  0
    3.4390   -5.8140   23.2670 C   0  0  0  0  0  0  0  0  0  0  0  0
    2.4930   -6.3930   22.9170 N   0  0  0  0  0  0  0  0  0  0  0  0
  1  2  1  0
  2  3  1  0
  3  4  2  0
  3  5  1  0
  5  6  1  0
  5  7  1  0
  7  8  1  0
  8  9  2  0
  8 10  1  0
  9 11  1  0
 10 12  2  0
 11 13  2  0
 12 13  1  0
 12 14  1  0
 14 15  3  0
M  END
