MAK-UNK-10dfa458-11-vinylsulfonamide
     RDKit          3D

 21 23  0  0  0  0  0  0  0  0999 V2000
    6.8420   -5.3550   21.4120 C   0  0  0  0  0  0  0  0  0  0  0  0
    5.4020   -5.8200   21.4040 C   0  0  0  0  0  0  0  0  0  0  0  0
    4.6830   -5.5740   22.9740 S   0  0  0  0  0  0  0  0  0  0  0  0
    3.4020   -4.9840   22.7150 O   0  0  0  0  0  0  0  0  0  0  0  0
    4.9640   -6.5630   24.0040 O   0  0  0  0  0  0  0  0  0  0  0  0
    5.6390   -4.2500   23.1790 N   0  0  0  0  0  0  0  0  0  0  0  0
    6.5660   -4.3130   24.2770 C   0  0  2  0  0  0  0  0  0  0  0  0
    4.8490   -3.0820   23.4210 C   0  0  1  0  0  0  0  0  0  0  0  0
    5.7450   -3.8700   25.4730 C   0  0  0  0  0  0  0  0  0  0  0  0
    4.4020   -3.5450   24.7940 C   0  0  0  0  0  0  0  0  0  0  0  0
    5.8350   -1.8900   23.3450 C   0  0  0  0  0  0  0  0  0  0  0  0
    7.6550   -3.3350   23.8050 C   0  0  0  0  0  0  0  0  0  0  0  0
    7.0100   -2.3700   22.7650 C   0  0  2  0  0  0  0  0  0  0  0  0
    7.9690   -1.5180   22.1920 C   0  0  0  0  0  0  0  0  0  0  0  0
    7.6060   -0.4080   21.4150 C   0  0  0  0  0  0  0  0  0  0  0  0
    6.8300   -0.7080   20.2480 C   0  0  0  0  0  0  0  0  0  0  0  0
    8.1450    0.9840   22.0030 C   0  0  0  0  0  0  0  0  0  0  0  0
    6.3920    0.2310   19.3840 C   0  0  0  0  0  0  0  0  0  0  0  0
    7.5820    1.9840   20.9320 C   0  0  0  0  0  0  0  0  0  0  0  0
    7.1010    0.8780   20.3800 C   0  0  0  0  0  0  0  0  0  0  0  0
    8.2590    2.8720   21.8310 C   0  0  0  0  0  0  0  0  0  0  0  0
  1  2  1  0
  3  2  1  0
  3  4  2  0
  3  5  2  0
  3  6  1  0
  6  7  1  0
  6  8  1  0
  7  9  1  1
  8 10  1  1
  9 10  1  0
  8 11  1  0
  7 12  1  0
 11 13  1  0
 12 13  1  0
 13 14  1  1
 14 15  1  0
 15 16  2  0
 15 17  1  0
 16 18  1  0
 17 19  2  0
 18 20  2  0
 19 20  1  0
 19 21  1  0
M  END
