MAK-UNK-72659d64-5-bromoalkyne
     RDKit          3D

 12 12  0  0  0  0  0  0  0  0999 V2000
    6.8900   -3.9110   19.8320 C   0  0  0  0  0  0  0  0  0  0  0  0
    5.7420   -3.1670   19.1900 C   0  0  0  0  0  0  0  0  0  0  0  0
    6.6820   -5.0270   20.6000 N   0  0  0  0  0  0  0  0  0  0  0  0
    5.7490   -5.9040   20.0290 C   0  0  0  0  0  0  0  0  0  0  0  0
    6.2980   -4.9760   21.9650 C   0  0  0  0  0  0  0  0  0  0  0  0
    6.9940   -4.1230   22.9620 C   0  0  0  0  0  0  0  0  0  0  0  0
    5.2560   -5.7240   22.4050 N   0  0  0  0  0  0  0  0  0  0  0  0
    6.5140   -4.1150   24.3940 C   0  0  0  0  0  0  0  0  0  0  0  0
    4.8980   -5.6580   23.6830 C   0  0  0  0  0  0  0  0  0  0  0  0
    5.4430   -4.9050   24.7430 N   0  0  0  0  0  0  0  0  0  0  0  0
    3.7440   -6.5210   24.0510 C   0  0  0  0  0  0  0  0  0  0  0  0
    2.7220   -7.3210   24.3870 N   0  0  0  0  0  0  0  0  0  0  0  0
  1  2  2  3
  1  3  1  0
  3  4  1  0
  3  5  1  0
  5  6  2  0
  5  7  1  0
  6  8  1  0
  7  9  2  0
  8 10  2  0
  9 10  1  0
  9 11  1  0
 11 12  3  0
M  END
