MAK-UNK-c8c8f7e2-12
     RDKit          3D

 16 17  0  0  0  0  0  0  0  0999 V2000
    7.1030   -6.0610   28.5520 C   0  0  0  0  0  0  0  0  0  0  0  0
    6.1170   -6.1740   29.6810 C   0  0  0  0  0  0  0  0  0  0  0  0
    6.3590   -6.6410   30.7870 O   0  0  0  0  0  0  0  0  0  0  0  0
    4.9060   -5.7000   29.3070 N   0  0  0  0  0  0  0  0  0  0  0  0
    4.5080   -6.0370   27.9420 C   0  0  0  0  0  0  0  0  0  0  0  0
    5.1340   -5.2820   26.7510 C   0  0  0  0  0  0  0  0  0  0  0  0
    3.5090   -7.1160   27.7160 N   0  0  0  0  0  0  0  0  0  0  0  0
    4.6700   -5.6920   25.3670 C   0  0  0  0  0  0  0  0  0  0  0  0
    3.1940   -7.3810   26.4110 C   0  0  0  0  0  0  0  0  0  0  0  0
    5.2040   -5.0020   24.1680 N   0  0  0  0  0  0  0  0  0  0  0  0
    3.7320   -6.7170   25.2950 C   0  0  0  0  0  0  0  0  0  0  0  0
    4.6780   -5.5840   22.9220 C   0  0  0  0  0  0  0  0  0  0  0  0
    6.5320   -4.8770   23.9950 C   0  0  0  0  0  0  0  0  0  0  0  0
    5.7830   -5.7710   22.0740 C   0  0  0  0  0  0  0  0  0  0  0  0
    6.9060   -5.2000   22.6830 C   0  0  0  0  0  0  0  0  0  0  0  0
    7.4930   -4.4970   24.8780 O   0  0  0  0  0  0  0  0  0  0  0  0
  1  2  1  0
  2  3  2  0
  2  4  1  0
  4  5  1  0
  5  6  2  0
  5  7  1  0
  6  8  1  0
  7  9  2  0
  8 10  1  0
  8 11  2  0
  9 11  1  0
 10 12  1  0
 10 13  1  0
 12 14  1  0
 13 15  1  0
 14 15  1  0
 13 16  2  0
M  END
