MAK-UNK-702fb7d3-9-nitrile
     RDKit          3D

 41 46  0  0  0  0  0  0  0  0999 V2000
    7.8130   -4.1520   20.7660 C   0  0  0  0  0  0  0  0  0  0  0  0
    6.9160   -3.5380   19.9970 N   0  0  0  0  0  0  0  0  0  0  0  0
    7.9310   -4.1600   22.3280 N   0  0  0  0  0  0  0  0  0  0  0  0
    6.8540   -4.4450   23.3350 C   0  0  0  0  0  0  0  0  0  0  0  0
    8.9110   -3.3110   23.1440 C   0  0  0  0  0  0  0  0  0  0  0  0
    7.2560   -4.6090   24.8550 C   0  0  0  0  0  0  0  0  0  0  0  0
    9.5050   -4.0500   24.4200 C   0  0  2  0  0  0  0  0  0  0  0  0
    6.1780   -5.0140   25.8700 C   0  0  0  0  0  0  0  0  0  0  0  0
    8.5670   -4.4050   25.3600 C   0  0  0  0  0  0  0  0  0  0  0  0
   10.7540   -3.4840   24.7250 C   0  0  0  0  0  0  0  0  0  0  0  0
    6.5220   -5.1850   27.3380 C   0  0  0  0  0  0  0  0  0  0  0  0
    8.8680   -4.5680   26.7350 C   0  0  0  0  0  0  0  0  0  0  0  0
   11.3030   -2.2590   24.0090 C   0  0  0  0  0  0  0  0  0  0  0  0
   11.5390   -4.0910   25.6930 C   0  0  0  0  0  0  0  0  0  0  0  0
    5.6440   -5.5300   28.2800 N   0  0  0  0  0  0  0  0  0  0  0  0
    7.8820   -4.9440   27.6860 C   0  0  0  0  0  0  0  0  0  0  0  0
   12.7050   -1.8230   24.4150 C   0  0  0  0  0  0  0  0  0  0  0  0
   12.8210   -3.6360   26.0030 C   0  0  0  0  0  0  0  0  0  0  0  0
    5.5820   -6.8230   28.7040 C   0  0  0  0  0  0  0  0  0  0  0  0
   13.3970   -2.5340   25.3850 C   0  0  0  0  0  0  0  0  0  0  0  0
    4.7990   -7.1270   29.8250 C   0  0  0  0  0  0  0  0  0  0  0  0
    5.2330   -7.0710   31.2490 C   0  0  0  0  0  0  0  0  0  0  0  0
    3.5390   -7.5270   30.0710 C   0  0  0  0  0  0  0  0  0  0  0  0
    4.3910   -7.3780   32.4480 C   0  0  0  0  0  0  0  0  0  0  0  0
    3.3050   -7.6650   31.4600 N   0  0  0  0  0  0  0  0  0  0  0  0
    3.4360   -7.7090   33.4260 C   0  0  0  0  0  0  0  0  0  0  0  0
    1.6840   -8.1730   31.8390 S   0  0  0  0  0  0  0  0  0  0  0  0
    2.3370   -6.8650   33.6490 C   0  0  0  0  0  0  0  0  0  0  0  0
    3.5690   -8.8850   34.2180 C   0  0  0  0  0  0  0  0  0  0  0  0
    0.8880   -6.9680   31.7330 O   0  0  0  0  0  0  0  0  0  0  0  0
    1.7040   -8.9550   33.0540 O   0  0  0  0  0  0  0  0  0  0  0  0
    1.1340   -9.3160   30.6300 C   0  0  0  0  0  0  0  0  0  0  0  0
    1.3680   -7.1360   34.6030 C   0  0  0  0  0  0  0  0  0  0  0  0
    2.6160   -9.2190   35.2070 C   0  0  0  0  0  0  0  0  0  0  0  0
    4.6160   -9.7100   34.0450 F   0  0  0  0  0  0  0  0  0  0  0  0
    1.1720   -9.0770   29.1540 C   0  0  0  0  0  0  0  0  0  0  0  0
    0.6130  -10.5550   31.0320 C   0  0  0  0  0  0  0  0  0  0  0  0
    1.5040   -8.4200   35.4630 C   0  0  0  0  0  0  0  0  0  0  0  0
    0.7090  -10.0620   28.2780 C   0  0  0  0  0  0  0  0  0  0  0  0
    0.1280  -11.5840   30.0940 N   0  0  0  0  0  0  0  0  0  0  0  0
    0.2140  -11.2570   28.7920 C   0  0  0  0  0  0  0  0  0  0  0  0
  1  2  2  3
  1  3  1  0
  3  4  1  0
  3  5  1  0
  4  6  1  0
  5  7  1  0
  6  8  1  0
  6  9  2  0
  7  9  1  0
  7 10  1  1
  8 11  2  0
  9 12  1  0
 10 13  2  0
 10 14  1  0
 11 15  1  0
 11 16  1  0
 12 16  2  0
 13 17  1  0
 14 18  2  0
 15 19  1  0
 17 20  2  0
 18 20  1  0
 19 21  1  0
 21 22  1  0
 21 23  2  0
 22 24  2  0
 23 25  1  0
 24 25  1  0
 24 26  1  0
 25 27  1  0
 26 28  2  0
 26 29  1  0
 27 30  2  0
 27 31  2  0
 27 32  1  0
 28 33  1  0
 29 34  2  0
 29 35  1  0
 32 36  2  0
 32 37  1  0
 33 38  2  0
 34 38  1  0
 36 39  1  0
 37 40  2  0
 39 41  2  0
 40 41  1  0
M  END
