MAK-UNK-23561bf6-1
     RDKit          3D

 17 18  0  0  0  0  0  0  0  0999 V2000
    6.4280   -2.8190   20.9420 C   0  0  0  0  0  0  0  0  0  0  0  0
    6.0010   -4.2740   20.7540 C   0  0  0  0  0  0  0  0  0  0  0  0
    5.3210   -4.6230   19.7970 O   0  0  0  0  0  0  0  0  0  0  0  0
    6.4540   -5.1250   21.7250 N   0  0  0  0  0  0  0  0  0  0  0  0
    7.2360   -4.6220   22.8490 C   0  0  0  0  0  0  0  0  0  0  0  0
    5.5370   -6.0400   22.2460 C   0  0  0  0  0  0  0  0  0  0  0  0
    6.3070   -4.1230   23.9450 C   0  0  0  0  0  0  0  0  0  0  0  0
    4.6060   -5.7600   23.2660 C   0  0  0  0  0  0  0  0  0  0  0  0
    5.3700   -5.1950   24.3530 N   0  0  0  0  0  0  0  0  0  0  0  0
    4.6170   -5.1640   25.8800 S   0  0  0  0  0  0  0  0  0  0  0  0
    3.9380   -6.4320   26.0340 O   0  0  0  0  0  0  0  0  0  0  0  0
    5.5960   -4.7040   26.8350 O   0  0  0  0  0  0  0  0  0  0  0  0
    3.3440   -3.9180   25.7880 C   0  0  0  0  0  0  0  0  0  0  0  0
    3.5610   -2.4600   26.1430 C   0  0  0  0  0  0  0  0  0  0  0  0
    2.0120   -4.0960   25.4180 C   0  0  0  0  0  0  0  0  0  0  0  0
    2.5110   -1.5440   26.0780 C   0  0  0  0  0  0  0  0  0  0  0  0
    1.2210   -2.6040   25.5510 S   0  0  0  0  0  0  0  0  0  0  0  0
  1  2  1  0
  2  3  2  0
  2  4  1  0
  4  5  1  0
  4  6  1  0
  5  7  1  0
  6  8  1  0
  7  9  1  0
  8  9  1  0
  9 10  1  0
 10 11  2  0
 10 12  2  0
 10 13  1  0
 13 14  2  0
 13 15  1  0
 14 16  1  0
 15 17  2  0
 16 17  1  0
M  END
