MAK-UNK-8fdbca50-11-vinylsulfonamide
     RDKit          3D

 41 44  0  0  0  0  0  0  0  0999 V2000
    6.9610   -3.7380   20.0130 C   0  0  0  0  0  0  0  0  0  0  0  0
    6.7770   -2.2500   20.0790 C   0  0  0  0  0  0  0  0  0  0  0  0
    5.3790   -1.9160   19.0910 S   0  0  0  0  0  0  0  0  0  0  0  0
    4.5020   -3.2310   19.3610 O   0  0  0  0  0  0  0  0  0  0  0  0
    4.7930   -0.7160   19.6330 O   0  0  0  0  0  0  0  0  0  0  0  0
    6.1690   -1.2390   17.5550 N   0  0  0  0  0  0  0  0  0  0  0  0
    6.9100    0.0980   17.5990 C   0  0  0  0  0  0  0  0  0  0  0  0
    6.9290   -1.9440   16.4880 C   0  0  0  0  0  0  0  0  0  0  0  0
    7.7440    0.5430   16.2960 C   0  0  0  0  0  0  0  0  0  0  0  0
    8.3880   -1.5140   16.5260 C   0  0  0  0  0  0  0  0  0  0  0  0
    8.8730   -0.2160   15.7180 C   0  0  0  0  0  0  0  0  0  0  0  0
   10.4770    0.1090   15.2750 C   0  0  0  0  0  0  0  0  0  0  0  0
   10.4200    0.1720   13.9920 O   0  0  0  0  0  0  0  0  0  0  0  0
   13.0730    0.4790   16.9540 N   0  0  0  0  0  0  0  0  0  0  0  0
   14.6300    0.6910   16.7900 C   0  0  0  0  0  0  0  0  0  0  0  0
   14.0460   -0.1100   18.6960 C   0  0  2  0  0  0  0  0  0  0  0  0
   15.3650   -0.5080   18.2800 C   0  0  0  0  0  0  0  0  0  0  0  0
   13.5460   -1.1140   20.3140 C   0  0  0  0  0  0  0  0  0  0  0  0
   12.6280   -0.8530   21.8420 C   0  0  0  0  0  0  0  0  0  0  0  0
   13.3830   -0.7870   22.9710 C   0  0  0  0  0  0  0  0  0  0  0  0
   11.0760   -0.6970   22.2180 C   0  0  0  0  0  0  0  0  0  0  0  0
   12.8880   -0.5940   24.3850 C   0  0  0  0  0  0  0  0  0  0  0  0
   10.7720   -0.5130   23.5630 C   0  0  0  0  0  0  0  0  0  0  0  0
    9.6280   -0.6400   21.9140 C   0  0  0  0  0  0  0  0  0  0  0  0
   11.6010   -0.4630   24.5860 C   0  0  0  0  0  0  0  0  0  0  0  0
    8.6850    0.1590   21.2520 C   0  0  0  0  0  0  0  0  0  0  0  0
    8.7120   -1.5540   22.4330 N   0  0  0  0  0  0  0  0  0  0  0  0
    7.3790   -0.1620   21.3210 C   0  0  0  0  0  0  0  0  0  0  0  0
    7.4040   -1.2980   22.0920 C   0  0  0  0  0  0  0  0  0  0  0  0
    9.0750   -2.8400   23.4160 S   0  0  0  0  0  0  0  0  0  0  0  0
    6.3530    0.5690   20.7310 C   0  0  0  0  0  0  0  0  0  0  0  0
    8.6060   -2.3510   24.6770 O   0  0  0  0  0  0  0  0  0  0  0  0
    8.5060   -4.0150   22.7980 O   0  0  0  0  0  0  0  0  0  0  0  0
   10.8110   -2.7880   23.2580 C   0  0  0  0  0  0  0  0  0  0  0  0
    6.2260    1.8060   21.5300 N   0  0  0  0  0  0  0  0  0  0  0  0
   11.3840   -2.5020   22.0400 C   0  0  0  0  0  0  0  0  0  0  0  0
   11.6230   -3.0330   24.3410 C   0  0  0  0  0  0  0  0  0  0  0  0
    7.4190    2.5110   21.5860 C   0  0  0  0  0  0  0  0  0  0  0  0
   12.8850   -2.4870   21.9560 C   0  0  0  0  0  0  0  0  0  0  0  0
   12.9520   -3.0340   24.3780 N   0  0  0  0  0  0  0  0  0  0  0  0
   13.5760   -2.7830   23.2440 C   0  0  0  0  0  0  0  0  0  0  0  0
  1  2  1  0
  3  2  1  0
  3  4  2  0
  3  5  2  0
  3  6  1  0
  6  7  1  0
  6  8  1  0
  7  9  1  0
  8 10  1  0
  9 11  1  0
 10 11  1  0
 11 12  1  0
 12 13  2  0
 12 14  1  0
 14 15  1  0
 14 16  1  0
 16 17  1  6
 16 18  1  0
 18 19  1  0
 19 20  2  0
 19 21  1  0
 20 22  1  0
 21 23  2  0
 21 24  1  0
 22 25  2  0
 23 25  1  0
 24 26  2  0
 24 27  1  0
 26 28  1  0
 27 29  1  0
 28 29  2  0
 27 30  1  0
 28 31  1  0
 30 32  2  0
 30 33  2  0
 30 34  1  0
 31 35  1  0
 34 36  2  0
 34 37  1  0
 35 38  1  0
 36 39  1  0
 37 40  2  0
 39 41  2  0
 40 41  1  0
M  END
