MAK-UNK-af83ef51-28-nitrile
     RDKit          3D

 29 32  0  0  0  0  0  0  0  0999 V2000
    6.5910   -3.6910   19.7960 C   0  0  0  0  0  0  0  0  0  0  0  0
    5.3800   -3.5470   19.4340 N   0  0  0  0  0  0  0  0  0  0  0  0
    7.3290   -2.6070   20.2850 N   0  0  0  0  0  0  0  0  0  0  0  0
    8.4850   -2.7510   21.1940 C   0  0  0  0  0  0  0  0  0  0  0  0
    6.8120   -1.2360   20.1550 C   0  0  0  0  0  0  0  0  0  0  0  0
    9.1900   -1.4630   21.7220 C   0  0  0  0  0  0  0  0  0  0  0  0
    7.1080   -0.4250   21.4350 C   0  0  0  0  0  0  0  0  0  0  0  0
    8.5520   -0.2640   21.6990 N   0  0  0  0  0  0  0  0  0  0  0  0
    8.8140    0.4370   22.9890 C   0  0  0  0  0  0  0  0  0  0  0  0
    9.6620    1.5630   22.8990 C   0  0  0  0  0  0  0  0  0  0  0  0
   11.0860    1.5820   22.7650 C   0  0  0  0  0  0  0  0  0  0  0  0
    9.2150    2.8900   22.9260 N   0  0  0  0  0  0  0  0  0  0  0  0
   11.9760    0.5030   22.7030 C   0  0  0  0  0  0  0  0  0  0  0  0
   11.5050    2.9430   22.6870 C   0  0  0  0  0  0  0  0  0  0  0  0
   10.2650    3.7800   22.8040 C   0  0  0  0  0  0  0  0  0  0  0  0
    7.8400    3.3070   23.0570 C   0  0  0  0  0  0  0  0  0  0  0  0
   11.6700   -0.8340   22.7750 O   0  0  0  0  0  0  0  0  0  0  0  0
   13.2700    0.9170   22.5420 N   0  0  0  0  0  0  0  0  0  0  0  0
   12.8160    3.3740   22.5280 C   0  0  0  0  0  0  0  0  0  0  0  0
   10.7620   -1.1800   23.7220 C   0  0  0  0  0  0  0  0  0  0  0  0
   13.6780    2.3260   22.4500 N   0  0  0  0  0  0  0  0  0  0  0  0
   10.1780   -2.4430   23.6790 C   0  0  0  0  0  0  0  0  0  0  0  0
   10.3680   -0.3280   24.7640 C   0  0  0  0  0  0  0  0  0  0  0  0
    9.2230   -2.8710   24.6210 C   0  0  0  0  0  0  0  0  0  0  0  0
    9.4480   -0.6440   25.7340 N   0  0  0  0  0  0  0  0  0  0  0  0
    8.8460   -1.9190   25.6920 C   0  0  0  0  0  0  0  0  0  0  0  0
    7.9180   -2.1900   26.6960 N   0  0  0  0  0  0  0  0  0  0  0  0
    7.6950   -3.6160   26.9220 C   0  0  0  0  0  0  0  0  0  0  0  0
    8.0250   -3.8790   28.2550 C   0  0  0  0  0  0  0  0  0  0  0  0
  1  2  2  3
  1  3  1  0
  3  4  1  0
  3  5  1  0
  4  6  1  0
  5  7  1  0
  6  8  1  0
  7  8  1  0
  8  9  1  0
  9 10  1  0
 10 11  2  0
 10 12  1  0
 11 13  1  0
 11 14  1  0
 12 15  1  0
 14 15  2  0
 12 16  1  0
 13 17  1  0
 13 18  2  0
 14 19  1  0
 17 20  1  0
 18 21  1  0
 19 21  2  0
 20 22  2  0
 20 23  1  0
 22 24  1  0
 23 25  2  0
 24 26  2  0
 25 26  1  0
 26 27  1  0
 27 28  1  0
 28 29  1  0
M  END
