MAK-UNK-148caf23-11-acrylamide
     RDKit          3D

 36 39  0  0  0  0  0  0  0  0999 V2000
    7.5090   -3.1380   18.8200 C   0  0  0  0  0  0  0  0  0  0  0  0
    7.6950   -2.4210   20.0940 C   0  0  0  0  0  0  0  0  0  0  0  0
    6.7190   -2.8590   21.1890 C   0  0  0  0  0  0  0  0  0  0  0  0
    5.2620   -3.5330   21.0620 O   0  0  0  0  0  0  0  0  0  0  0  0
    7.6420   -2.3470   22.4110 C   0  0  0  0  0  0  0  0  0  0  0  0
    8.0320   -3.1150   23.6570 C   0  0  0  0  0  0  0  0  0  0  0  0
    8.1920   -1.0700   22.4270 C   0  0  0  0  0  0  0  0  0  0  0  0
    8.7420   -2.8140   24.8440 C   0  0  0  0  0  0  0  0  0  0  0  0
    8.8770   -0.6450   23.4760 N   0  0  0  0  0  0  0  0  0  0  0  0
    9.0440   -1.4790   24.5210 C   0  0  0  0  0  0  0  0  0  0  0  0
    9.6070   -0.9190   25.6250 N   0  0  0  0  0  0  0  0  0  0  0  0
    8.4370   -0.2090   26.2370 C   0  0  0  0  0  0  0  0  0  0  0  0
    8.0220   -0.3860   27.5970 C   0  0  0  0  0  0  0  0  0  0  0  0
    7.1950   -1.5350   28.0990 C   0  0  0  0  0  0  0  0  0  0  0  0
    8.2010    0.4330   28.9110 C   0  0  0  0  0  0  0  0  0  0  0  0
    6.8690   -2.5180   26.9560 C   0  0  0  0  0  0  0  0  0  0  0  0
    6.9130   -1.4000   29.5490 C   0  0  0  0  0  0  0  0  0  0  0  0
    7.5230   -0.2360   29.9430 N   0  0  0  0  0  0  0  0  0  0  0  0
    8.8840    1.6470   29.1570 C   0  0  0  0  0  0  0  0  0  0  0  0
    5.4150   -2.6060   26.8030 N   0  0  0  0  0  0  0  0  0  0  0  0
    7.4880    0.4020   31.5390 S   0  0  0  0  0  0  0  0  0  0  0  0
   10.0000    1.6340   30.0070 C   0  0  0  0  0  0  0  0  0  0  0  0
    8.4870    2.8710   28.6020 C   0  0  0  0  0  0  0  0  0  0  0  0
    4.8040   -2.2180   25.6470 C   0  0  0  0  0  0  0  0  0  0  0  0
    6.3720   -0.2340   32.1960 O   0  0  0  0  0  0  0  0  0  0  0  0
    8.8160    0.3810   32.0950 O   0  0  0  0  0  0  0  0  0  0  0  0
    7.0120    2.0860   31.3970 C   0  0  0  0  0  0  0  0  0  0  0  0
   10.7100    2.7980   30.3140 C   0  0  0  0  0  0  0  0  0  0  0  0
    9.1900    4.0420   28.9010 C   0  0  0  0  0  0  0  0  0  0  0  0
    7.4280    2.9490   27.7800 F   0  0  0  0  0  0  0  0  0  0  0  0
    6.4410    2.5720   30.2110 C   0  0  0  0  0  0  0  0  0  0  0  0
    7.2120    2.9150   32.4870 C   0  0  0  0  0  0  0  0  0  0  0  0
   10.2960    4.0010   29.7570 C   0  0  0  0  0  0  0  0  0  0  0  0
    6.0680    4.1040   30.2460 C   0  0  0  0  0  0  0  0  0  0  0  0
    6.9140    4.2010   32.5610 N   0  0  0  0  0  0  0  0  0  0  0  0
    6.3550    4.9120   31.5510 C   0  0  0  0  0  0  0  0  0  0  0  0
  1  2  1  0
  2  3  1  0
  3  4  2  0
  3  5  1  0
  5  6  2  0
  5  7  1  0
  6  8  1  0
  7  9  2  0
  8 10  2  0
  9 10  1  0
 10 11  1  0
 11 12  1  0
 12 13  1  0
 13 14  1  0
 13 15  2  0
 14 16  1  0
 14 17  2  0
 15 18  1  0
 17 18  1  0
 15 19  1  0
 16 20  1  0
 18 21  1  0
 19 22  2  0
 19 23  1  0
 20 24  1  0
 21 25  2  0
 21 26  2  0
 21 27  1  0
 22 28  1  0
 23 29  2  0
 23 30  1  0
 27 31  2  0
 27 32  1  0
 28 33  2  0
 29 33  1  0
 31 34  1  0
 32 35  2  0
 34 36  2  0
 35 36  1  0
M  END
