MAK-UNK-6ca90168-10-bromoalkyne
     RDKit          3D

 18 19  0  0  0  0  0  0  0  0999 V2000
    7.2130   -4.1680   20.3520 C   0  0  0  0  0  0  0  0  0  0  0  0
    7.3570   -3.1390   19.3000 C   0  0  0  0  0  0  0  0  0  0  0  0
    7.7250   -3.8660   21.6330 N   0  0  0  0  0  0  0  0  0  0  0  0
    8.5640   -2.6630   21.7970 C   0  0  0  0  0  0  0  0  0  0  0  0
    6.7920   -3.9360   22.7400 C   0  0  0  0  0  0  0  0  0  0  0  0
    7.5570   -1.4830   21.5270 C   0  0  0  0  0  0  0  0  0  0  0  0
    5.7350   -2.9280   22.3840 C   0  0  0  0  0  0  0  0  0  0  0  0
    6.2160   -2.0870   21.2710 N   0  0  0  0  0  0  0  0  0  0  0  0
    5.9220   -2.3720   19.8480 C   0  0  0  0  0  0  0  0  0  0  0  0
    5.2400   -3.3410   19.4820 O   0  0  0  0  0  0  0  0  0  0  0  0
    6.5730   -1.3820   18.8560 C   0  0  0  0  0  0  0  0  0  0  0  0
    6.0770   -0.0030   19.4020 C   0  0  0  0  0  0  0  0  0  0  0  0
    4.7260    0.3460   18.7480 C   0  0  0  0  0  0  0  0  0  0  0  0
    6.6530    1.0670   20.4320 C   0  0  0  0  0  0  0  0  0  0  0  0
    3.9480    1.6420   19.0530 C   0  0  0  0  0  0  0  0  0  0  0  0
    5.9190    2.2380   20.6880 C   0  0  0  0  0  0  0  0  0  0  0  0
    7.9550    0.8160   21.1060 C   0  0  0  0  0  0  0  0  0  0  0  0
    4.5770    2.5990   20.0510 C   0  0  0  0  0  0  0  0  0  0  0  0
  1  2  2  3
  1  3  1  0
  3  4  1  0
  3  5  1  0
  4  6  1  0
  5  7  1  0
  6  8  1  0
  7  8  1  0
  8  9  1  0
  9 10  2  0
  9 11  1  0
 11 12  1  0
 12 13  2  0
 12 14  1  0
 13 15  1  0
 14 16  2  0
 14 17  1  0
 15 18  2  0
 16 18  1  0
M  END
