MAK-UNK-10799360-1-bromoalkyne
     RDKit          3D

 21 24  0  0  0  0  0  0  0  0999 V2000
    6.9780   -3.6340   19.8080 C   0  0  0  0  0  0  0  0  0  0  0  0
    6.2770   -2.8900   18.6950 C   0  0  0  0  0  0  0  0  0  0  0  0
    6.7000   -3.2360   21.0810 N   0  0  0  0  0  0  0  0  0  0  0  0
    6.8390   -1.8000   21.3970 C   0  0  0  0  0  0  0  0  0  0  0  0
    7.3830   -3.8000   22.2120 C   0  0  1  0  0  0  0  0  0  0  0  0
    8.2180   -1.7760   22.1650 C   0  0  2  0  0  0  0  0  0  0  0  0
    8.7500   -3.1820   21.8740 C   0  0  0  0  0  0  0  0  0  0  0  0
    6.9140   -3.0470   23.4720 C   0  0  0  0  0  0  0  0  0  0  0  0
    7.9780   -2.0300   23.5810 N   0  0  0  0  0  0  0  0  0  0  0  0
    9.1260   -2.5390   24.3400 C   0  0  0  0  0  0  0  0  0  0  0  0
   10.3530   -1.7150   23.9070 C   0  0  0  0  0  0  0  0  0  0  0  0
    8.8470   -2.3520   25.8270 C   0  0  0  0  0  0  0  0  0  0  0  0
    9.3840   -4.0630   24.1650 C   0  0  0  0  0  0  0  0  0  0  0  0
   10.9220   -0.3650   24.3570 C   0  0  0  0  0  0  0  0  0  0  0  0
   11.3970   -2.2720   22.6900 S   0  0  0  0  0  0  0  0  0  0  0  0
    8.0610   -3.5210   26.4460 C   0  0  0  0  0  0  0  0  0  0  0  0
    9.9490   -4.7720   25.3950 C   0  0  0  0  0  0  0  0  0  0  0  0
   12.0610    0.0130   23.6950 N   0  0  0  0  0  0  0  0  0  0  0  0
   12.3610   -0.8950   22.8510 C   0  0  0  0  0  0  0  0  0  0  0  0
    8.9630   -4.7420   26.5540 C   0  0  0  0  0  0  0  0  0  0  0  0
   13.5010   -0.8060   22.0360 C   0  0  0  0  0  0  0  0  0  0  0  0
  1  2  2  3
  1  3  1  0
  3  4  1  0
  3  5  1  0
  6  4  1  6
  5  7  1  0
  6  7  1  0
  5  8  1  1
  6  9  1  0
  8  9  1  0
  9 10  1  0
 10 11  1  0
 10 12  1  0
 10 13  1  0
 11 14  2  0
 11 15  1  0
 12 16  1  0
 13 17  1  0
 14 18  1  0
 15 19  1  0
 18 19  2  0
 16 20  1  0
 17 20  1  0
 19 21  1  0
M  END
