MAK-UNK-9e4a73aa-5
     RDKit          3D

 26 29  0  0  0  0  0  0  0  0999 V2000
    7.2030   -6.5160   22.3650 O   0  0  0  0  0  0  0  0  0  0  0  0
    6.9050   -5.5720   23.0920 C   0  0  0  0  0  0  0  0  0  0  0  0
    5.4950   -5.3880   23.5630 C   0  0  0  0  0  0  0  0  0  0  0  0
    7.9070   -4.5460   23.5580 C   0  0  2  0  0  0  0  0  0  0  0  0
    4.4220   -6.1140   22.8280 C   0  0  0  0  0  0  0  0  0  0  0  0
    5.1780   -4.5780   24.6450 C   0  0  0  0  0  0  0  0  0  0  0  0
    7.6090   -4.1590   24.8840 C   0  0  0  0  0  0  0  0  0  0  0  0
    7.8560   -3.4290   22.7310 C   0  0  0  0  0  0  0  0  0  0  0  0
    3.1190   -5.9460   23.2650 C   0  0  0  0  0  0  0  0  0  0  0  0
    3.8560   -4.4390   25.0390 C   0  0  0  0  0  0  0  0  0  0  0  0
    6.1630   -3.9130   25.3550 C   0  0  2  0  0  0  0  0  0  0  0  0
    8.5260   -4.0070   25.7000 O   0  0  0  0  0  0  0  0  0  0  0  0
    9.0340   -2.6950   22.5330 C   0  0  0  0  0  0  0  0  0  0  0  0
    6.6760   -3.0180   22.0940 C   0  0  0  0  0  0  0  0  0  0  0  0
    2.0910   -6.5640   22.6680 F   0  0  0  0  0  0  0  0  0  0  0  0
    2.8300   -5.1130   24.3620 C   0  0  0  0  0  0  0  0  0  0  0  0
    6.0510   -4.2290   26.8460 C   0  0  0  0  0  0  0  0  0  0  0  0
    9.0420   -1.4760   21.6420 C   0  0  0  0  0  0  0  0  0  0  0  0
    6.5420   -1.9480   21.2700 N   0  0  0  0  0  0  0  0  0  0  0  0
    1.2050   -4.9160   24.8930 Cl  0  0  0  0  0  0  0  0  0  0  0  0
    6.3690   -5.6790   27.1860 C   0  0  0  0  0  0  0  0  0  0  0  0
    5.7040   -3.4660   27.9440 C   0  0  0  0  0  0  0  0  0  0  0  0
    7.6910   -1.1640   21.0250 C   0  0  0  0  0  0  0  0  0  0  0  0
    6.2730   -6.1490   28.6280 C   0  0  0  0  0  0  0  0  0  0  0  0
    5.6200   -3.9080   29.2580 C   0  0  0  0  0  0  0  0  0  0  0  0
    5.9020   -5.2500   29.5910 C   0  0  0  0  0  0  0  0  0  0  0  0
  1  2  2  0
  2  3  1  0
  2  4  1  0
  3  5  1  0
  3  6  2  0
  4  7  1  0
  4  8  1  6
  5  9  2  0
  6 10  1  0
  6 11  1  0
  7 11  1  0
  7 12  2  0
  8 13  2  0
  8 14  1  0
  9 15  1  0
  9 16  1  0
 10 16  2  0
 11 17  1  1
 13 18  1  0
 14 19  2  0
 16 20  1  0
 17 21  2  0
 17 22  1  0
 18 23  2  0
 19 23  1  0
 21 24  1  0
 22 25  2  0
 24 26  2  0
 25 26  1  0
M  END
