MAK-UNK-a7992eb3-3-bromoalkyne
     RDKit          3D

 37 39  0  0  0  0  0  0  0  0999 V2000
    6.7720   -5.1970   20.4820 C   0  0  0  0  0  0  0  0  0  0  0  0
    5.7030   -6.0540   19.8930 C   0  0  0  0  0  0  0  0  0  0  0  0
    6.3930   -4.5920   21.6470 N   0  0  0  0  0  0  0  0  0  0  0  0
    7.3360   -4.2970   22.7300 C   0  0  0  0  0  0  0  0  0  0  0  0
    5.0850   -5.0290   22.1630 C   0  0  0  0  0  0  0  0  0  0  0  0
    6.5740   -3.9850   23.9860 C   0  0  0  0  0  0  0  0  0  0  0  0
    5.1090   -5.6600   23.4070 C   0  0  0  0  0  0  0  0  0  0  0  0
    5.7270   -4.9940   24.4720 C   0  0  0  0  0  0  0  0  0  0  0  0
    4.8730   -4.6330   25.5100 C   0  0  0  0  0  0  0  0  0  0  0  0
    5.2160   -4.7970   26.6800 O   0  0  0  0  0  0  0  0  0  0  0  0
    3.5620   -4.0440   25.0540 N   0  0  0  0  0  0  0  0  0  0  0  0
    3.2260   -2.6860   25.5550 C   0  0  0  0  0  0  0  0  0  0  0  0
    4.2630   -1.6110   25.6580 C   0  0  0  0  0  0  0  0  0  0  0  0
    1.9430   -2.3010   25.9610 C   0  0  0  0  0  0  0  0  0  0  0  0
    4.0160   -0.3070   26.1200 C   0  0  0  0  0  0  0  0  0  0  0  0
    1.6480   -1.0210   26.4270 C   0  0  0  0  0  0  0  0  0  0  0  0
    0.8170   -3.1670   25.9460 O   0  0  0  0  0  0  0  0  0  0  0  0
    2.6150    0.0030   26.5310 C   0  0  0  0  0  0  0  0  0  0  0  0
    0.3230   -3.5120   27.1830 C   0  0  0  0  0  0  0  0  0  0  0  0
   -0.9900   -3.8700   27.4870 C   0  0  0  0  0  0  0  0  0  0  0  0
    1.2630   -3.4870   28.2170 C   0  0  0  0  0  0  0  0  0  0  0  0
   -1.3420   -4.1920   28.8000 C   0  0  0  0  0  0  0  0  0  0  0  0
    0.8920   -3.8110   29.5140 C   0  0  0  0  0  0  0  0  0  0  0  0
   -0.4160   -4.1700   29.8400 C   0  0  0  0  0  0  0  0  0  0  0  0
   -0.7790   -4.4860   31.1290 C   0  0  0  0  0  0  0  0  0  0  0  0
   -0.3160   -3.4700   31.9870 C   0  0  1  0  0  0  0  0  0  0  0  0
   -1.4680   -2.8030   32.3200 N   0  0  0  0  0  0  0  0  0  0  0  0
    0.1200   -4.1670   33.2820 C   0  0  0  0  0  0  0  0  0  0  0  0
   -1.6250   -1.7410   31.4630 C   0  0  0  0  0  0  0  0  0  0  0  0
   -0.8800   -4.9880   33.8740 O   0  0  0  0  0  0  0  0  0  0  0  0
    1.3800   -3.9580   33.7470 N   0  0  0  0  0  0  0  0  0  0  0  0
   -0.5900   -1.2500   30.6650 C   0  0  0  0  0  0  0  0  0  0  0  0
   -2.9090   -1.1000   31.3810 O   0  0  0  0  0  0  0  0  0  0  0  0
    1.9880   -2.7700   33.5160 C   0  0  0  0  0  0  0  0  0  0  0  0
    1.2170   -1.6060   33.5580 C   0  0  0  0  0  0  0  0  0  0  0  0
    1.7670   -0.3910   33.1670 C   0  0  0  0  0  0  0  0  0  0  0  0
    2.5130    1.2820   32.6360 Br  0  0  0  0  0  0  0  0  0  0  0  0
  1  2  2  3
  1  3  1  0
  3  4  1  0
  3  5  1  0
  4  6  1  0
  5  7  1  0
  6  8  1  0
  7  8  1  0
  8  9  1  0
  9 10  2  0
  9 11  1  0
 11 12  1  0
 12 13  2  0
 12 14  1  0
 13 15  1  0
 14 16  2  0
 14 17  1  0
 15 18  2  0
 16 18  1  0
 17 19  1  0
 19 20  2  0
 19 21  1  0
 20 22  1  0
 21 23  2  0
 22 24  2  0
 23 24  1  0
 24 25  1  0
 26 25  1  6
 26 27  1  0
 26 28  1  0
 27 29  1  0
 28 30  2  0
 28 31  1  0
 29 32  1  0
 29 33  2  0
 31 34  1  0
 34 35  1  0
 35 36  3  0
 36 37  1  0
M  END
