MAK-UNK-30aad1f1-12-chloroacetamide
     RDKit          3D

 26 28  0  0  0  0  0  0  0  0999 V2000
    8.8950   -5.7050   20.2160 C   0  0  0  0  0  0  0  0  0  0  0  0
    8.1230   -4.6840   20.5750 C   0  0  0  0  0  0  0  0  0  0  0  0
    6.9290   -4.4800   20.0110 O   0  0  0  0  0  0  0  0  0  0  0  0
    9.0430   -3.9960   21.5670 C   0  0  0  0  0  0  0  0  0  0  0  0
    9.5150   -2.5640   21.4160 C   0  0  0  0  0  0  0  0  0  0  0  0
    9.5880   -4.7060   22.6620 C   0  0  0  0  0  0  0  0  0  0  0  0
   10.6110   -2.1200   22.3820 C   0  0  0  0  0  0  0  0  0  0  0  0
   10.5540   -4.2700   23.5540 N   0  0  0  0  0  0  0  0  0  0  0  0
   11.1310   -3.0630   23.4480 C   0  0  0  0  0  0  0  0  0  0  0  0
   12.2150   -2.5840   24.2640 N   0  0  0  0  0  0  0  0  0  0  0  0
   11.8530   -1.2800   23.8670 C   0  0  0  0  0  0  0  0  0  0  0  0
   10.5770   -1.6310   23.8380 C   0  0  0  0  0  0  0  0  0  0  0  0
   12.2800    0.0140   23.5340 C   0  0  0  0  0  0  0  0  0  0  0  0
    9.5610   -0.8350   23.5050 C   0  0  0  0  0  0  0  0  0  0  0  0
   11.1250    0.9650   23.1400 C   0  0  0  0  0  0  0  0  0  0  0  0
    9.8060    0.4490   23.1640 C   0  0  0  0  0  0  0  0  0  0  0  0
    8.7400    1.1290   22.8760 N   0  0  0  0  0  0  0  0  0  0  0  0
    8.4260    1.0670   21.6120 C   0  0  0  0  0  0  0  0  0  0  0  0
    8.9480    1.9460   20.7860 O   0  0  0  0  0  0  0  0  0  0  0  0
    7.5530    0.0980   21.2690 N   0  0  0  0  0  0  0  0  0  0  0  0
    6.8030    0.3510   20.1630 C   0  0  0  0  0  0  0  0  0  0  0  0
    5.5750    1.2020   20.3320 C   0  0  0  0  0  0  0  0  0  0  0  0
    7.0200   -0.0660   18.8060 C   0  0  0  0  0  0  0  0  0  0  0  0
    4.7330    1.5480   19.1330 C   0  0  0  0  0  0  0  0  0  0  0  0
    6.1630    0.3140   17.7240 N   0  0  0  0  0  0  0  0  0  0  0  0
    5.0650    1.1040   17.9170 C   0  0  0  0  0  0  0  0  0  0  0  0
  1  2  1  0
  2  3  2  0
  2  4  1  0
  4  5  2  0
  4  6  1  0
  5  7  1  0
  6  8  2  0
  7  9  2  0
  8  9  1  0
  9 10  1  0
 10 11  1  0
 11 12  2  0
 11 13  1  0
 12 14  1  0
 13 15  2  0
 14 16  2  0
 15 16  1  0
 16 17  1  0
 17 18  1  0
 18 19  2  0
 18 20  1  0
 20 21  1  0
 21 22  2  0
 21 23  1  0
 22 24  1  0
 23 25  2  0
 24 26  2  0
 25 26  1  0
M  END
