MAK-UNK-e4a48a85-5
     RDKit          3D

 30 33  0  0  0  0  0  0  0  0999 V2000
   10.7810    2.3880   23.7100 C   0  0  0  0  0  0  0  0  0  0  0  0
   11.1170    1.0190   23.5510 C   0  0  0  0  0  0  0  0  0  0  0  0
   12.3820    0.5810   23.1230 C   0  0  0  0  0  0  0  0  0  0  0  0
   10.0920    0.0820   23.8500 C   0  0  0  0  0  0  0  0  0  0  0  0
   12.6480   -0.7890   22.9830 C   0  0  0  0  0  0  0  0  0  0  0  0
   10.2920   -1.2980   23.7320 C   0  0  0  0  0  0  0  0  0  0  0  0
   11.5350   -1.7410   23.3110 C   0  0  0  0  0  0  0  0  0  0  0  0
    9.3660   -2.0570   24.0330 O   0  0  0  0  0  0  0  0  0  0  0  0
    8.2070   -2.5330   23.3850 C   0  0  0  0  0  0  0  0  0  0  0  0
    7.4600   -3.2720   24.2630 C   0  0  0  0  0  0  0  0  0  0  0  0
    7.7270   -2.3810   22.0640 C   0  0  0  0  0  0  0  0  0  0  0  0
    6.2720   -3.8950   23.9510 C   0  0  0  0  0  0  0  0  0  0  0  0
    6.3880   -3.0690   21.6280 C   0  0  0  0  0  0  0  0  0  0  0  0
    8.2960   -1.7330   21.2210 O   0  0  0  0  0  0  0  0  0  0  0  0
    5.6490   -4.6120   24.9930 C   0  0  0  0  0  0  0  0  0  0  0  0
    5.6820   -3.8590   22.7230 C   0  0  0  0  0  0  0  0  0  0  0  0
    7.7510   -1.9260   19.9300 C   0  0  0  0  0  0  0  0  0  0  0  0
    4.3760   -5.3110   24.7340 N   0  0  0  0  0  0  0  0  0  0  0  0
    4.4790   -4.4920   22.3960 N   0  0  0  0  0  0  0  0  0  0  0  0
    6.4120   -2.0120   19.9710 N   0  0  0  0  0  0  0  0  0  0  0  0
    3.8580   -5.1920   23.3740 C   0  0  0  0  0  0  0  0  0  0  0  0
    5.8800   -1.0840   20.7460 C   0  0  0  0  0  0  0  0  0  0  0  0
    5.9060   -1.9790   18.7320 C   0  0  0  0  0  0  0  0  0  0  0  0
    2.5870   -5.9090   23.1250 N   0  0  0  0  0  0  0  0  0  0  0  0
    6.2590    0.3320   20.3710 C   0  0  0  0  0  0  0  0  0  0  0  0
    5.2590   -0.7230   18.4650 C   0  0  0  0  0  0  0  0  0  0  0  0
    1.3150   -5.5370   23.6050 C   0  0  0  0  0  0  0  0  0  0  0  0
    2.7830   -7.2810   23.1510 C   0  0  0  0  0  0  0  0  0  0  0  0
    5.9910    0.3910   18.8900 C   0  0  0  0  0  0  0  0  0  0  0  0
    7.2220    0.3660   18.1910 O   0  0  0  0  0  0  0  0  0  0  0  0
  1  2  1  0
  2  3  2  0
  2  4  1  0
  3  5  1  0
  4  6  2  0
  5  7  2  0
  6  7  1  0
  6  8  1  0
  8  9  1  0
  9 10  2  0
  9 11  1  0
 10 12  1  0
 11 13  2  0
 11 14  1  0
 12 15  2  0
 12 16  1  0
 13 16  1  0
 14 17  1  0
 15 18  1  0
 16 19  2  0
 17 20  1  0
 18 21  2  0
 19 21  1  0
 20 22  1  0
 20 23  1  0
 21 24  1  0
 22 25  1  0
 23 26  1  0
 24 27  1  0
 24 28  1  0
 25 29  1  0
 26 29  1  0
 29 30  1  0
M  END
