MAK-UNK-10dfa458-11-chloroacetamide
     RDKit          3D

 19 21  0  0  0  0  0  0  0  0999 V2000
    7.7020   -3.6530   20.4330 C   0  0  0  0  0  0  0  0  0  0  0  0
    6.2730   -4.1460   20.5750 C   0  0  0  0  0  0  0  0  0  0  0  0
    5.3940   -4.1790   19.7320 O   0  0  0  0  0  0  0  0  0  0  0  0
    5.9660   -4.5720   21.8620 N   0  0  0  0  0  0  0  0  0  0  0  0
    5.2830   -5.8030   22.1860 C   0  0  1  0  0  0  0  0  0  0  0  0
    6.8870   -4.4390   22.9720 C   0  0  2  0  0  0  0  0  0  0  0  0
    6.2670   -6.7970   22.7340 C   0  0  0  0  0  0  0  0  0  0  0  0
    7.4260   -5.8720   23.1140 C   0  0  0  0  0  0  0  0  0  0  0  0
    6.0470   -4.0240   24.2030 C   0  0  0  0  0  0  0  0  0  0  0  0
    4.3140   -5.4290   23.3180 C   0  0  0  0  0  0  0  0  0  0  0  0
    5.1640   -5.0500   24.5670 C   0  0  2  0  0  0  0  0  0  0  0  0
    4.4120   -4.9410   25.7380 C   0  0  0  0  0  0  0  0  0  0  0  0
    3.4460   -3.9150   25.7300 C   0  0  0  0  0  0  0  0  0  0  0  0
    2.0960   -4.1680   25.4550 C   0  0  0  0  0  0  0  0  0  0  0  0
    3.8120   -2.4520   26.0340 C   0  0  0  0  0  0  0  0  0  0  0  0
    1.1200   -3.1760   25.4600 C   0  0  0  0  0  0  0  0  0  0  0  0
    2.7020   -1.3940   26.0270 C   0  0  0  0  0  0  0  0  0  0  0  0
    1.4100   -1.8140   25.7440 C   0  0  0  0  0  0  0  0  0  0  0  0
    2.9570   -0.0130   26.2980 C   0  0  0  0  0  0  0  0  0  0  0  0
  1  2  1  0
  2  3  2  0
  2  4  1  0
  4  5  1  0
  4  6  1  0
  5  7  1  1
  6  8  1  1
  7  8  1  0
  6  9  1  0
  5 10  1  0
  9 11  1  0
 10 11  1  0
 11 12  1  1
 12 13  1  0
 13 14  2  0
 13 15  1  0
 14 16  1  0
 15 17  2  0
 16 18  2  0
 17 18  1  0
 17 19  1  0
M  END
