MAK-UNK-10799360-18-acrylamide
     RDKit          3D

 28 31  0  0  0  0  0  0  0  0999 V2000
    7.8090   -2.6990   18.8020 C   0  0  0  0  0  0  0  0  0  0  0  0
    6.3170   -2.8500   18.8170 C   0  0  0  0  0  0  0  0  0  0  0  0
    5.8890   -3.4860   20.0820 C   0  0  0  0  0  0  0  0  0  0  0  0
    5.2270   -4.5140   20.0400 O   0  0  0  0  0  0  0  0  0  0  0  0
    6.2970   -2.8480   21.2360 N   0  0  0  0  0  0  0  0  0  0  0  0
    7.2410   -1.6960   21.2700 C   0  0  0  0  0  0  0  0  0  0  0  0
    6.2780   -3.4680   22.5630 C   0  0  1  0  0  0  0  0  0  0  0  0
    7.6610   -1.7710   22.7300 C   0  0  1  0  0  0  0  0  0  0  0  0
    7.6480   -3.3630   22.8410 C   0  0  0  0  0  0  0  0  0  0  0  0
    5.6380   -2.4790   23.4240 C   0  0  0  0  0  0  0  0  0  0  0  0
    8.9930   -1.0030   22.8530 C   0  0  0  0  0  0  0  0  0  0  0  0
    4.2820   -2.5550   24.0980 C   0  0  0  0  0  0  0  0  0  0  0  0
    6.4330   -1.3870   23.5960 C   0  0  0  0  0  0  0  0  0  0  0  0
    9.9670   -1.9960   23.5110 C   0  0  0  0  0  0  0  0  0  0  0  0
    9.3390    0.3160   22.4810 C   0  0  0  0  0  0  0  0  0  0  0  0
    3.9100   -1.4570   24.8940 C   0  0  0  0  0  0  0  0  0  0  0  0
    6.0240   -0.3200   24.3940 C   0  0  0  0  0  0  0  0  0  0  0  0
   11.3300   -1.3260   23.6880 C   0  0  0  0  0  0  0  0  0  0  0  0
   10.6280    0.7830   22.7080 C   0  0  0  0  0  0  0  0  0  0  0  0
    8.4170    1.1740   21.8930 C   0  0  0  0  0  0  0  0  0  0  0  0
    4.7750   -0.3550   25.0390 C   0  0  0  0  0  0  0  0  0  0  0  0
   12.5690   -2.2580   24.4040 S   0  0  0  0  0  0  0  0  0  0  0  0
   11.6070   -0.0150   23.2950 C   0  0  0  0  0  0  0  0  0  0  0  0
    8.6440    2.5470   21.6620 N   0  0  0  0  0  0  0  0  0  0  0  0
   13.3010   -1.4710   25.3550 O   0  0  0  0  0  0  0  0  0  0  0  0
   11.9620   -3.5070   24.7710 O   0  0  0  0  0  0  0  0  0  0  0  0
   13.5330   -2.5190   23.0770 N   0  0  0  0  0  0  0  0  0  0  0  0
   13.0680   -1.9980   21.7860 C   0  0  0  0  0  0  0  0  0  0  0  0
  1  2  1  0
  2  3  1  0
  3  4  2  0
  3  5  1  0
  5  6  1  0
  7  5  1  6
  6  8  1  0
  7  9  1  0
  8  9  1  0
  7 10  1  0
  8 11  1  6
 10 12  2  0
  8 13  1  0
 10 13  1  0
 11 14  2  0
 11 15  1  0
 12 16  1  0
 13 17  2  0
 14 18  1  0
 15 19  2  0
 15 20  1  0
 16 21  2  0
 17 21  1  0
 18 22  1  0
 18 23  2  0
 19 23  1  0
 20 24  3  0
 22 25  2  0
 22 26  2  0
 22 27  1  0
 27 28  1  0
M  END
