MAK-UNK-148caf23-9-bromoalkyne
     RDKit          3D

 34 37  0  0  0  0  0  0  0  0999 V2000
    8.1100   -6.9040   20.0900 C   0  0  0  0  0  0  0  0  0  0  0  0
    8.6790   -7.1450   18.6930 C   0  0  0  0  0  0  0  0  0  0  0  0
    8.5220   -7.4040   21.4880 C   0  0  0  0  0  0  0  0  0  0  0  0
    7.0660   -6.7360   21.6240 C   0  0  0  0  0  0  0  0  0  0  0  0
    8.6530   -7.8140   22.9910 C   0  0  0  0  0  0  0  0  0  0  0  0
    6.0410   -6.5060   22.6880 C   0  0  0  0  0  0  0  0  0  0  0  0
    7.7320   -7.6780   24.0700 N   0  0  0  0  0  0  0  0  0  0  0  0
    6.9360   -7.1200   23.3940 C   0  0  0  0  0  0  0  0  0  0  0  0
    5.9770   -6.9110   24.3950 N   0  0  0  0  0  0  0  0  0  0  0  0
    6.3890   -6.0800   25.5360 C   0  0  0  0  0  0  0  0  0  0  0  0
    5.3820   -5.7430   26.3960 C   0  0  2  0  0  0  0  0  0  0  0  0
    4.2340   -6.5470   26.0600 C   0  0  0  0  0  0  0  0  0  0  0  0
    4.9820   -4.2600   26.5910 C   0  0  0  0  0  0  0  0  0  0  0  0
    3.6280   -4.0920   27.3230 C   0  0  0  0  0  0  0  0  0  0  0  0
    4.9430   -3.4950   27.8300 C   0  0  0  0  0  0  0  0  0  0  0  0
    2.8540   -3.5820   28.4780 C   0  0  0  0  0  0  0  0  0  0  0  0
    4.7720   -2.8620   28.9630 C   0  0  0  0  0  0  0  0  0  0  0  0
    3.6180   -2.8120   29.4020 N   0  0  0  0  0  0  0  0  0  0  0  0
    5.8920   -2.2430   29.6050 C   0  0  0  0  0  0  0  0  0  0  0  0
    3.0340   -2.0480   30.7980 S   0  0  0  0  0  0  0  0  0  0  0  0
    6.6840   -1.2030   29.4760 C   0  0  0  0  0  0  0  0  0  0  0  0
    5.9700   -1.1680   28.7140 C   0  0  0  0  0  0  0  0  0  0  0  0
    1.6960   -1.4710   30.3120 O   0  0  0  0  0  0  0  0  0  0  0  0
    4.0090   -1.1880   31.3620 O   0  0  0  0  0  0  0  0  0  0  0  0
    2.7620   -3.4400   31.8390 C   0  0  0  0  0  0  0  0  0  0  0  0
    7.7670   -0.5270   30.0190 C   0  0  0  0  0  0  0  0  0  0  0  0
    6.3890    0.0310   28.1010 C   0  0  0  0  0  0  0  0  0  0  0  0
    7.0850   -0.8280   29.4720 F   0  0  0  0  0  0  0  0  0  0  0  0
    3.7130   -4.5480   31.8570 C   0  0  0  0  0  0  0  0  0  0  0  0
    1.6770   -3.4830   32.6560 C   0  0  0  0  0  0  0  0  0  0  0  0
    7.5980    0.5490   28.8850 C   0  0  0  0  0  0  0  0  0  0  0  0
    3.4450   -5.5960   32.7010 C   0  0  0  0  0  0  0  0  0  0  0  0
    1.3830   -4.4910   33.5120 N   0  0  0  0  0  0  0  0  0  0  0  0
    2.2420   -5.5400   33.5220 C   0  0  0  0  0  0  0  0  0  0  0  0
  1  2  2  3
  1  3  1  0
  3  4  2  0
  3  5  1  0
  4  6  1  0
  5  7  2  0
  6  8  2  0
  7  8  1  0
  8  9  1  0
  9 10  1  0
 10 11  1  0
 11 12  1  6
 11 13  1  0
 13 14  1  0
 14 15  1  0
 14 16  2  0
 15 17  2  0
 16 18  1  0
 17 18  1  0
 17 19  1  0
 18 20  1  0
 19 21  2  0
 19 22  1  0
 20 23  2  0
 20 24  2  0
 20 25  1  0
 21 26  1  0
 22 27  2  0
 22 28  1  0
 25 29  2  0
 25 30  1  0
 26 31  2  0
 27 31  1  0
 29 32  1  0
 30 33  2  0
 32 34  2  0
 33 34  1  0
M  END
