MAK-UNK-69bf97dd-2-bromoalkyne
     RDKit          3D

 28 31  0  0  0  0  0  0  0  0999 V2000
    6.4130   -3.7830   19.7350 C   0  0  0  0  0  0  0  0  0  0  0  0
    5.6070   -3.1800   18.6010 C   0  0  0  0  0  0  0  0  0  0  0  0
    7.1500   -4.3330   20.7680 N   0  0  0  0  0  0  0  0  0  0  0  0
    6.8390   -5.6410   21.3710 C   0  0  0  0  0  0  0  0  0  0  0  0
    7.9950   -3.4530   21.6070 C   0  0  0  0  0  0  0  0  0  0  0  0
    5.9010   -5.2410   22.5540 C   0  0  0  0  0  0  0  0  0  0  0  0
    7.7000   -3.4780   23.0980 C   0  0  0  0  0  0  0  0  0  0  0  0
    6.9690   -4.7410   23.5750 C   0  0  0  0  0  0  0  0  0  0  0  0
    6.0490   -4.4190   24.7740 C   0  0  0  0  0  0  0  0  0  0  0  0
    4.9130   -4.8980   24.8570 O   0  0  0  0  0  0  0  0  0  0  0  0
    6.5840   -3.5680   25.7360 N   0  0  0  0  0  0  0  0  0  0  0  0
    7.1260   -2.2410   25.4040 C   0  0  0  0  0  0  0  0  0  0  0  0
    7.1120   -1.3200   26.5600 C   0  0  0  0  0  0  0  0  0  0  0  0
    8.5170   -2.2130   25.3010 C   0  0  0  0  0  0  0  0  0  0  0  0
    8.5030   -1.2380   26.5180 N   0  0  0  0  0  0  0  0  0  0  0  0
    9.5920    0.0290   26.8790 S   0  0  0  0  0  0  0  0  0  0  0  0
   10.8720   -0.4040   26.3800 O   0  0  0  0  0  0  0  0  0  0  0  0
    9.3800    0.3860   28.2700 O   0  0  0  0  0  0  0  0  0  0  0  0
    9.1580    1.4270   25.8790 C   0  0  0  0  0  0  0  0  0  0  0  0
    8.5390    2.6910   26.4770 C   0  0  0  0  0  0  0  0  0  0  0  0
    9.3870    1.4110   24.4940 C   0  0  0  0  0  0  0  0  0  0  0  0
    8.2190    3.7810   25.6510 C   0  0  0  0  0  0  0  0  0  0  0  0
    9.0480    2.5240   23.7350 C   0  0  0  0  0  0  0  0  0  0  0  0
    8.4840    3.6750   24.2830 C   0  0  0  0  0  0  0  0  0  0  0  0
    9.2580    2.4940   22.5250 O   0  0  0  0  0  0  0  0  0  0  0  0
    9.9000    3.6990   22.1110 C   0  0  0  0  0  0  0  0  0  0  0  0
    8.1510    4.8000   23.4440 O   0  0  0  0  0  0  0  0  0  0  0  0
    8.8900    4.8470   22.2110 C   0  0  0  0  0  0  0  0  0  0  0  0
  1  2  2  3
  1  3  1  0
  3  4  1  0
  3  5  1  0
  4  6  1  0
  5  7  1  0
  6  8  1  0
  7  8  1  0
  8  9  1  0
  9 10  2  0
  9 11  1  0
 11 12  1  0
 12 13  1  0
 12 14  1  0
 13 15  1  0
 14 15  1  0
 15 16  1  0
 16 17  2  0
 16 18  2  0
 16 19  1  0
 19 20  2  0
 19 21  1  0
 20 22  1  0
 21 23  2  0
 22 24  2  0
 23 24  1  0
 23 25  1  0
 25 26  1  0
 24 27  1  0
 26 28  1  0
 27 28  1  0
M  END
