MAK-UNK-bdda130a-7
     RDKit          3D

 23 26  0  0  0  0  0  0  0  0999 V2000
    4.4090   -5.0280   27.4520 C   0  0  0  0  0  0  0  0  0  0  0  0
    4.5190   -4.7040   25.7110 S   0  0  0  0  0  0  0  0  0  0  0  0
    5.3480   -5.8400   26.6940 C   0  0  0  0  0  0  0  0  0  0  0  0
    3.3460   -3.4890   25.7770 C   0  0  0  0  0  0  0  0  0  0  0  0
    5.3160   -5.1990   24.3540 N   0  0  0  0  0  0  0  0  0  0  0  0
    2.0220   -3.6610   25.4650 C   0  0  0  0  0  0  0  0  0  0  0  0
    3.6230   -2.1930   26.1500 C   0  0  0  0  0  0  0  0  0  0  0  0
    6.5570   -4.4980   23.9270 C   0  0  0  0  0  0  0  0  0  0  0  0
    4.5380   -5.2210   23.1080 C   0  0  2  0  0  0  0  0  0  0  0  0
    1.2710   -2.5310   25.5920 C   0  0  0  0  0  0  0  0  0  0  0  0
    2.2170   -1.2060   26.1080 S   0  0  0  0  0  0  0  0  0  0  0  0
    7.1570   -5.0420   22.7760 C   0  0  0  0  0  0  0  0  0  0  0  0
    5.2270   -6.1000   22.2590 C   0  0  0  0  0  0  0  0  0  0  0  0
    4.2150   -3.8360   22.6080 N   0  0  0  0  0  0  0  0  0  0  0  0
    6.2540   -5.4530   21.6660 N   0  0  0  0  0  0  0  0  0  0  0  0
    5.3090   -2.9080   22.2170 C   0  0  0  0  0  0  0  0  0  0  0  0
    5.4760   -1.5160   22.8750 C   0  0  0  0  0  0  0  0  0  0  0  0
    6.1800   -3.3060   21.2460 C   0  0  0  0  0  0  0  0  0  0  0  0
    5.9530   -4.5210   20.7400 C   0  0  0  0  0  0  0  0  0  0  0  0
    6.5780   -0.6430   22.4370 N   0  0  0  0  0  0  0  0  0  0  0  0
    7.2070   -2.3880   20.9020 C   0  0  0  0  0  0  0  0  0  0  0  0
    5.4550   -4.6670   19.6330 O   0  0  0  0  0  0  0  0  0  0  0  0
    7.3980   -1.1660   21.4410 C   0  0  0  0  0  0  0  0  0  0  0  0
  1  2  2  0
  2  3  2  0
  2  4  1  0
  2  5  1  0
  4  6  1  0
  4  7  2  0
  5  8  1  0
  5  9  1  0
  6 10  2  0
  7 11  1  0
 10 11  1  0
  8 12  1  0
  9 13  1  0
  9 14  1  6
 12 15  1  0
 13 15  1  0
 14 16  1  0
 16 17  1  0
 16 18  2  0
 15 19  1  0
 18 19  1  0
 17 20  2  0
 18 21  1  0
 19 22  2  0
 20 23  1  0
 21 23  2  0
M  END
