MAK-UNK-148caf23-17-chloroacetamide
     RDKit          3D

 35 38  0  0  0  0  0  0  0  0999 V2000
    8.7010   -3.5820   20.1520 C   0  0  0  0  0  0  0  0  0  0  0  0
    7.8850   -2.3230   20.0500 C   0  0  0  0  0  0  0  0  0  0  0  0
    7.1890   -2.9990   19.0330 O   0  0  0  0  0  0  0  0  0  0  0  0
    8.8730   -1.8710   21.2940 C   0  0  0  0  0  0  0  0  0  0  0  0
    8.0830   -1.9970   22.4730 C   0  0  0  0  0  0  0  0  0  0  0  0
   10.2110   -1.3910   21.6750 C   0  0  0  0  0  0  0  0  0  0  0  0
    8.5310   -1.6790   23.8360 C   0  0  0  0  0  0  0  0  0  0  0  0
   10.6430   -1.0730   22.9970 N   0  0  0  0  0  0  0  0  0  0  0  0
    9.7500   -1.2340   24.0490 C   0  0  0  0  0  0  0  0  0  0  0  0
    9.8670   -1.0080   25.4160 N   0  0  0  0  0  0  0  0  0  0  0  0
    8.6260   -1.3460   26.1510 C   0  0  0  0  0  0  0  0  0  0  0  0
    8.3820   -0.4910   27.1960 C   0  0  0  0  0  0  0  0  0  0  0  0
    7.7200    0.6950   26.8290 C   0  0  0  0  0  0  0  0  0  0  0  0
    8.7560   -0.7440   28.5400 N   0  0  0  0  0  0  0  0  0  0  0  0
    7.3390    1.8440   27.7980 C   0  0  0  0  0  0  0  0  0  0  0  0
    8.4800    0.1820   29.4600 C   0  0  0  0  0  0  0  0  0  0  0  0
    7.8380    1.3930   29.1990 C   0  0  0  0  0  0  0  0  0  0  0  0
    7.5670    2.5070   30.4940 S   0  0  0  0  0  0  0  0  0  0  0  0
    7.5940    1.8030   31.7540 O   0  0  0  0  0  0  0  0  0  0  0  0
    6.4260    3.2380   30.0040 O   0  0  0  0  0  0  0  0  0  0  0  0
    8.9230    3.5360   30.3300 N   0  0  0  0  0  0  0  0  0  0  0  0
    8.9770    4.5380   29.3960 C   0  0  0  0  0  0  0  0  0  0  0  0
   10.2010    3.5250   31.1070 C   0  0  0  0  0  0  0  0  0  0  0  0
   10.1690    5.2010   29.4690 C   0  0  0  0  0  0  0  0  0  0  0  0
   10.9700    4.5580   30.5720 C   0  0  0  0  0  0  0  0  0  0  0  0
   10.6620    2.6350   32.2380 C   0  0  0  0  0  0  0  0  0  0  0  0
   10.4740    6.2680   28.6150 C   0  0  0  0  0  0  0  0  0  0  0  0
   10.9130    1.1870   31.9500 C   0  0  0  0  0  0  0  0  0  0  0  0
   10.8760    3.0690   33.5540 C   0  0  0  0  0  0  0  0  0  0  0  0
   11.2920    7.3660   29.1580 N   0  0  0  0  0  0  0  0  0  0  0  0
   11.3410    0.3380   32.9760 C   0  0  0  0  0  0  0  0  0  0  0  0
   11.3060    2.1860   34.5620 C   0  0  0  0  0  0  0  0  0  0  0  0
   10.6760    4.3520   33.8870 F   0  0  0  0  0  0  0  0  0  0  0  0
   12.6130    7.4470   28.7910 C   0  0  0  0  0  0  0  0  0  0  0  0
   11.5390    0.8140   34.2750 C   0  0  0  0  0  0  0  0  0  0  0  0
  1  2  1  0
  2  3  2  0
  2  4  1  0
  4  5  2  0
  4  6  1  0
  5  7  1  0
  6  8  2  0
  7  9  2  0
  8  9  1  0
  9 10  1  0
 10 11  1  0
 11 12  1  0
 12 13  2  0
 12 14  1  0
 13 15  1  0
 14 16  2  0
 15 17  2  0
 16 17  1  0
 18 17  1  0
 18 19  2  0
 18 20  2  0
 18 21  1  0
 21 22  1  0
 21 23  1  0
 22 24  2  0
 23 25  2  0
 24 25  1  0
 23 26  1  0
 24 27  1  0
 26 28  2  0
 26 29  1  0
 27 30  1  0
 28 31  1  0
 29 32  2  0
 29 33  1  0
 30 34  1  0
 31 35  2  0
 32 35  1  0
M  END
