MAK-UNK-c8c8f7e2-16
     RDKit          3D

 17 18  0  0  0  0  0  0  0  0999 V2000
   10.5190   -2.1540   22.0620 C   0  0  0  0  0  0  0  0  0  0  0  0
   10.0520   -0.8540   22.5450 N   0  0  0  0  0  0  0  0  0  0  0  0
    8.7000   -0.5330   22.0560 C   0  0  0  0  0  0  0  0  0  0  0  0
    7.9270    0.0540   22.8090 O   0  0  0  0  0  0  0  0  0  0  0  0
    8.3840   -0.8840   20.8300 N   0  0  0  0  0  0  0  0  0  0  0  0
    7.4900   -1.8870   20.5690 C   0  0  0  0  0  0  0  0  0  0  0  0
    6.4840   -1.7240   19.4330 C   0  0  0  0  0  0  0  0  0  0  0  0
    7.5170   -3.0560   21.3360 C   0  0  0  0  0  0  0  0  0  0  0  0
    5.5770   -2.9170   19.2410 C   0  0  0  0  0  0  0  0  0  0  0  0
    6.6480   -4.1390   21.1140 C   0  0  0  0  0  0  0  0  0  0  0  0
    5.6780   -4.1470   20.1060 C   0  0  0  0  0  0  0  0  0  0  0  0
    6.6840   -5.2720   21.8720 N   0  0  0  0  0  0  0  0  0  0  0  0
    5.4010   -5.7170   22.0460 C   0  0  0  0  0  0  0  0  0  0  0  0
    7.1070   -5.2080   23.1390 C   0  0  0  0  0  0  0  0  0  0  0  0
    4.9490   -5.3460   23.3600 C   0  0  0  0  0  0  0  0  0  0  0  0
    6.1140   -4.9000   24.0630 C   0  0  0  0  0  0  0  0  0  0  0  0
    8.3480   -5.4150   23.6430 O   0  0  0  0  0  0  0  0  0  0  0  0
  1  2  1  0
  2  3  1  0
  3  4  2  0
  3  5  1  0
  5  6  1  0
  6  7  2  0
  6  8  1  0
  7  9  1  0
  8 10  2  0
  9 11  2  0
 10 11  1  0
 10 12  1  0
 12 13  1  0
 12 14  1  0
 13 15  1  0
 14 16  1  0
 15 16  1  0
 14 17  2  0
M  END
