MAK-UNK-15efde89-1-chloroacetamide
     RDKit          3D

 18 19  0  0  0  0  0  0  0  0999 V2000
    7.1690   -2.9620   18.7630 C   0  0  0  0  0  0  0  0  0  0  0  0
    6.2470   -3.2420   19.9180 C   0  0  0  0  0  0  0  0  0  0  0  0
    5.4240   -4.1680   19.7830 O   0  0  0  0  0  0  0  0  0  0  0  0
    6.3690   -2.4560   21.0740 N   0  0  0  0  0  0  0  0  0  0  0  0
    5.9830   -2.9210   22.2960 C   0  0  0  0  0  0  0  0  0  0  0  0
    7.3700   -1.3720   21.1290 C   0  0  0  0  0  0  0  0  0  0  0  0
    7.3070   -3.3980   22.8180 C   0  0  0  0  0  0  0  0  0  0  0  0
    8.5460   -1.7380   21.8210 C   0  0  0  0  0  0  0  0  0  0  0  0
    8.2850   -2.4100   22.9760 N   0  0  0  0  0  0  0  0  0  0  0  0
    9.5240   -2.7590   23.5590 C   0  0  0  0  0  0  0  0  0  0  0  0
   10.4560   -1.7570   24.1670 C   0  0  0  0  0  0  0  0  0  0  0  0
   10.0290   -0.4900   24.5290 C   0  0  0  0  0  0  0  0  0  0  0  0
   10.9130    0.4630   23.9810 C   0  0  0  0  0  0  0  0  0  0  0  0
   10.5550    1.9480   23.8990 C   0  0  0  0  0  0  0  0  0  0  0  0
   12.1310    0.0010   23.5060 C   0  0  0  0  0  0  0  0  0  0  0  0
   11.5020    2.7860   23.3220 C   0  0  0  0  0  0  0  0  0  0  0  0
   13.0950    1.0030   22.8960 C   0  0  0  0  0  0  0  0  0  0  0  0
   12.7380    2.3640   22.8280 C   0  0  0  0  0  0  0  0  0  0  0  0
  1  2  1  0
  2  3  2  0
  2  4  1  0
  4  5  1  0
  4  6  1  0
  5  7  1  0
  6  8  1  0
  7  9  1  0
  8  9  1  0
  9 10  1  0
 10 11  1  0
 11 12  1  0
 12 13  1  0
 13 14  2  0
 13 15  1  0
 14 16  1  0
 15 17  2  0
 16 18  2  0
 17 18  1  0
M  END
