MAK-UNK-ec98eaf6-46-chloroacetamide
     RDKit          3D

 25 28  0  0  0  0  0  0  0  0999 V2000
    7.2620   -2.9940   18.7900 C   0  0  0  0  0  0  0  0  0  0  0  0
    6.3670   -3.3490   19.9670 C   0  0  0  0  0  0  0  0  0  0  0  0
    5.4560   -4.1800   19.7790 O   0  0  0  0  0  0  0  0  0  0  0  0
    6.6080   -2.7540   21.2280 N   0  0  0  0  0  0  0  0  0  0  0  0
    7.5900   -3.4870   21.9440 C   0  0  1  0  0  0  0  0  0  0  0  0
    7.1410   -1.3470   21.4950 C   0  0  2  0  0  0  0  0  0  0  0  0
    8.8330   -2.6880   21.6700 C   0  0  0  0  0  0  0  0  0  0  0  0
    8.4310   -1.5010   22.4020 C   0  0  2  0  0  0  0  0  0  0  0  0
    6.0900   -0.4440   22.1870 C   0  0  0  0  0  0  0  0  0  0  0  0
    7.3830   -3.2570   23.4720 C   0  0  0  0  0  0  0  0  0  0  0  0
    5.5820   -0.6270   23.6060 C   0  0  0  0  0  0  0  0  0  0  0  0
    8.0950   -1.9580   23.7570 N   0  0  0  0  0  0  0  0  0  0  0  0
    6.5300   -0.4540   24.7810 C   0  0  0  0  0  0  0  0  0  0  0  0
    4.2410   -0.9510   23.9120 C   0  0  0  0  0  0  0  0  0  0  0  0
    9.3320   -2.2530   24.5130 C   0  0  0  0  0  0  0  0  0  0  0  0
    6.0790   -0.6180   26.0940 C   0  0  0  0  0  0  0  0  0  0  0  0
    3.8570   -1.1010   25.2450 C   0  0  0  0  0  0  0  0  0  0  0  0
   10.3590   -1.5260   24.0210 C   0  0  0  0  0  0  0  0  0  0  0  0
    4.7400   -0.9430   26.3190 C   0  0  0  0  0  0  0  0  0  0  0  0
   10.5520   -0.1440   24.5990 C   0  0  0  0  0  0  0  0  0  0  0  0
   11.2540   -1.9700   23.0060 C   0  0  0  0  0  0  0  0  0  0  0  0
   11.6820    0.7190   24.0800 C   0  0  0  0  0  0  0  0  0  0  0  0
   12.3100   -1.1600   22.5220 C   0  0  0  0  0  0  0  0  0  0  0  0
   12.5540    0.1240   23.0070 C   0  0  0  0  0  0  0  0  0  0  0  0
   13.2980   -1.7910   21.2990 Cl  0  0  0  0  0  0  0  0  0  0  0  0
  1  2  1  0
  2  3  2  0
  2  4  1  0
  4  5  1  0
  4  6  1  0
  5  7  1  0
  6  8  1  0
  7  8  1  0
  6  9  1  1
  5 10  1  1
  9 11  1  0
  8 12  1  1
 10 12  1  0
 11 13  2  0
 11 14  1  0
 12 15  1  0
 13 16  1  0
 14 17  2  0
 15 18  1  0
 16 19  2  0
 17 19  1  0
 18 20  2  0
 18 21  1  0
 20 22  1  0
 21 23  2  0
 22 24  2  0
 23 24  1  0
 23 25  1  0
M  END
