MAK-UNK-c7aa8293-6
     RDKit          3D

 17 18  0  0  0  0  0  0  0  0999 V2000
   13.7950   -2.2620   25.6150 C   0  0  0  0  0  0  0  0  0  0  0  0
   13.0080   -0.9640   25.2730 C   0  0  0  0  0  0  0  0  0  0  0  0
   11.6330   -1.3980   24.9340 C   0  0  0  0  0  0  0  0  0  0  0  0
   11.7780   -2.8300   24.5350 C   0  0  1  0  0  0  0  0  0  0  0  0
   12.8900   -2.9130   23.5980 C   0  0  0  0  0  0  0  0  0  0  0  0
   11.8110   -3.7400   25.6440 O   0  0  0  0  0  0  0  0  0  0  0  0
   11.3910   -2.6490   23.5430 C   0  0  0  0  0  0  0  0  0  0  0  0
   10.4630   -3.9720   25.6480 C   0  0  1  0  0  0  0  0  0  0  0  0
   10.3220   -3.1030   24.4220 C   0  0  0  0  0  0  0  0  0  0  0  0
   11.1180   -1.8070   22.4370 C   0  0  0  0  0  0  0  0  0  0  0  0
    9.8660   -5.4020   25.6030 C   0  0  0  0  0  0  0  0  0  0  0  0
    8.8970   -2.6590   24.1130 C   0  0  0  0  0  0  0  0  0  0  0  0
    9.8210   -1.3720   22.1310 C   0  0  0  0  0  0  0  0  0  0  0  0
   12.2140   -1.4490   21.7010 O   0  0  0  0  0  0  0  0  0  0  0  0
    8.4040   -5.3950   25.4520 N   0  0  0  0  0  0  0  0  0  0  0  0
    8.7570   -1.7820   22.9290 C   0  0  0  0  0  0  0  0  0  0  0  0
    9.6110   -0.6380   21.1770 O   0  0  0  0  0  0  0  0  0  0  0  0
  1  2  1  0
  2  3  1  0
  4  3  1  1
  4  5  1  0
  4  6  1  0
  5  7  1  0
  6  8  1  0
  7  9  2  0
  8  9  1  0
  7 10  1  0
  8 11  1  6
  9 12  1  0
 10 13  2  0
 10 14  1  0
 11 15  1  0
 12 16  2  0
 13 16  1  0
 13 17  1  0
M  END
