MAK-UNK-1e8f9e3c-5-vinylsulfonamide
     RDKit          3D

 27 29  0  0  0  0  0  0  0  0999 V2000
    7.4910   -6.1460   19.4510 C   0  0  0  0  0  0  0  0  0  0  0  0
    7.4280   -6.1710   20.9150 C   0  0  0  0  0  0  0  0  0  0  0  0
    6.8170   -4.6060   21.4530 S   0  0  0  0  0  0  0  0  0  0  0  0
    5.3140   -4.4610   21.1320 O   0  0  0  0  0  0  0  0  0  0  0  0
    7.7900   -3.5400   21.2190 O   0  0  0  0  0  0  0  0  0  0  0  0
    7.0560   -5.0580   23.0640 N   0  0  0  0  0  0  0  0  0  0  0  0
    7.0750   -6.5140   23.2820 C   0  0  0  0  0  0  0  0  0  0  0  0
    6.1800   -6.9310   21.9190 C   0  0  0  0  0  0  0  0  0  0  0  0
    6.6470   -7.5140   22.7420 C   0  0  0  0  0  0  0  0  0  0  0  0
    5.5870   -6.0580   20.8090 C   0  0  0  0  0  0  0  0  0  0  0  0
    6.0970   -6.7130   21.7150 C   0  0  0  0  0  0  0  0  0  0  0  0
    6.2170   -5.1540   21.5690 C   0  0  0  0  0  0  0  0  0  0  0  0
    5.8040   -3.9540   20.7470 C   0  0  0  0  0  0  0  0  0  0  0  0
    5.7790   -3.9220   19.3330 O   0  0  0  0  0  0  0  0  0  0  0  0
    5.4390   -3.1130   21.7260 N   0  0  0  0  0  0  0  0  0  0  0  0
    4.8400   -3.7140   22.8830 C   0  0  0  0  0  0  0  0  0  0  0  0
    4.5930   -5.0090   22.2420 C   0  0  0  0  0  0  0  0  0  0  0  0
    5.1160   -2.5720   23.2790 C   0  0  0  0  0  0  0  0  0  0  0  0
    3.9710   -5.5860   23.4470 C   0  0  0  0  0  0  0  0  0  0  0  0
    4.4780   -2.9320   24.5760 C   0  0  0  0  0  0  0  0  0  0  0  0
    3.9520   -4.5590   24.4640 C   0  0  0  0  0  0  0  0  0  0  0  0
    3.8880   -3.2650   25.7770 N   0  0  0  0  0  0  0  0  0  0  0  0
    2.4200   -3.5580   25.8570 C   0  0  0  0  0  0  0  0  0  0  0  0
    4.2600   -2.3720   26.7590 C   0  0  0  0  0  0  0  0  0  0  0  0
    1.9860   -2.5710   26.9390 C   0  0  0  0  0  0  0  0  0  0  0  0
    3.1290   -2.0340   27.4800 C   0  0  0  0  0  0  0  0  0  0  0  0
    5.3800   -1.9180   26.9480 O   0  0  0  0  0  0  0  0  0  0  0  0
  1  2  1  0
  2  3  1  0
  3  4  2  0
  3  5  2  0
  3  6  1  0
  6  7  1  0
  7  8  2  0
  7  9  1  0
  8 10  1  0
  9 11  2  0
 10 12  2  0
 11 12  1  0
 12 13  1  0
 13 14  2  0
 13 15  1  0
 15 16  1  0
 16 17  2  0
 16 18  1  0
 17 19  1  0
 18 20  2  0
 19 21  2  0
 20 21  1  0
 20 22  1  0
 22 23  1  0
 22 24  1  0
 23 25  1  0
 24 26  1  0
 25 26  1  0
 24 27  2  0
M  END
