MAK-UNK-bae89c02-1-bromoalkyne
     RDKit          3D

 21 24  0  0  0  0  0  0  0  0999 V2000
    7.5390   -3.5060   20.0280 C   0  0  0  0  0  0  0  0  0  0  0  0
    6.0680   -3.5830   19.5290 C   0  0  0  0  0  0  0  0  0  0  0  0
    7.8060   -3.5910   21.4630 N   0  0  0  0  0  0  0  0  0  0  0  0
    6.5110   -3.2540   21.9850 C   0  0  1  0  0  0  0  0  0  0  0  0
    8.7780   -2.8730   22.5950 C   0  0  2  0  0  0  0  0  0  0  0  0
    6.6720   -2.8270   23.4130 C   0  0  0  0  0  0  0  0  0  0  0  0
    7.7680   -1.8510   23.1890 C   0  0  2  0  0  0  0  0  0  0  0  0
    6.5360   -1.9700   21.1670 C   0  0  0  0  0  0  0  0  0  0  0  0
   10.0780   -1.9700   22.5960 C   0  0  0  0  0  0  0  0  0  0  0  0
    7.3270   -1.1390   21.9250 C   0  0  0  0  0  0  0  0  0  0  0  0
    6.0160   -1.5050   19.9200 C   0  0  0  0  0  0  0  0  0  0  0  0
   11.3130   -2.3140   22.1940 C   0  0  0  0  0  0  0  0  0  0  0  0
    9.9480   -0.6240   23.1000 C   0  0  0  0  0  0  0  0  0  0  0  0
    7.6770    0.2510   21.5040 C   0  0  0  0  0  0  0  0  0  0  0  0
    6.3030   -0.2000   19.4200 C   0  0  0  0  0  0  0  0  0  0  0  0
   12.4890   -1.3280   22.2770 C   0  0  0  0  0  0  0  0  0  0  0  0
   10.9800    0.3390   23.2000 C   0  0  0  0  0  0  0  0  0  0  0  0
    7.1100    0.6840   20.1830 C   0  0  0  0  0  0  0  0  0  0  0  0
    5.8770    0.3160   18.2170 O   0  0  0  0  0  0  0  0  0  0  0  0
   12.2720    0.0620   22.8170 C   0  0  0  0  0  0  0  0  0  0  0  0
    4.8740    1.3240   18.2380 C   0  0  0  0  0  0  0  0  0  0  0  0
  1  2  2  3
  1  3  1  0
  4  3  1  6
  3  5  1  0
  4  6  1  0
  5  7  1  0
  6  7  1  0
  4  8  1  0
  5  9  1  6
  7 10  1  6
  8 10  2  0
  8 11  1  0
  9 12  2  0
  9 13  1  0
 10 14  1  0
 11 15  2  0
 12 16  1  0
 13 17  2  0
 14 18  2  0
 15 18  1  0
 15 19  1  0
 16 20  2  0
 17 20  1  0
 19 21  1  0
M  END
