MAK-UNK-be3f299e-10
     RDKit          3D

  9  9  0  0  0  0  0  0  0  0999 V2000
    9.2550   -1.7880   21.8730 N   0  0  0  0  0  0  0  0  0  0  0  0
   10.4070   -1.9330   21.9350 C   0  0  0  0  0  0  0  0  0  0  0  0
   11.8630   -2.1510   22.0460 C   0  0  1  0  0  0  0  0  0  0  0  0
   12.4630   -2.4620   20.7630 N   0  0  0  0  0  0  0  0  0  0  0  0
   12.5760   -0.9850   22.7130 C   0  0  2  0  0  0  0  0  0  0  0  0
   12.7140   -1.5730   24.1060 C   0  0  0  0  0  0  0  0  0  0  0  0
   11.6800    0.1900   23.0570 C   0  0  0  0  0  0  0  0  0  0  0  0
   11.2440   -1.5680   24.5220 C   0  0  0  0  0  0  0  0  0  0  0  0
   10.6790   -0.3640   23.9530 O   0  0  0  0  0  0  0  0  0  0  0  0
  1  2  3  0
  2  3  1  0
  3  4  1  6
  3  5  1  0
  5  6  1  1
  5  7  1  0
  6  8  1  0
  7  9  1  0
  8  9  1  0
M  END
