MAK-UNK-902cc841-4
     RDKit          3D

 30 33  0  0  0  0  0  0  0  0999 V2000
    6.5130   -1.9040   19.0920 C   0  0  0  0  0  0  0  0  0  0  0  0
    6.2610   -2.7100   20.2560 C   0  0  0  0  0  0  0  0  0  0  0  0
    5.6380   -3.7790   20.1050 O   0  0  0  0  0  0  0  0  0  0  0  0
    6.7580   -2.2240   21.4920 N   0  0  0  0  0  0  0  0  0  0  0  0
    7.2660   -0.8520   21.6550 C   0  0  0  0  0  0  0  0  0  0  0  0
    6.9770   -3.0400   22.7180 C   0  0  0  0  0  0  0  0  0  0  0  0
    8.7700   -1.0710   22.0430 C   0  0  0  0  0  0  0  0  0  0  0  0
    7.6020   -2.2450   23.9120 C   0  0  0  0  0  0  0  0  0  0  0  0
    8.7580   -1.4110   23.4970 N   0  0  0  0  0  0  0  0  0  0  0  0
    9.6530   -0.6410   24.4570 C   0  0  1  0  0  0  0  0  0  0  0  0
   10.6220   -1.6760   25.1100 C   0  0  0  0  0  0  0  0  0  0  0  0
   10.2870    0.5400   23.9470 C   0  0  0  0  0  0  0  0  0  0  0  0
   10.0720   -2.7000   25.5150 O   0  0  0  0  0  0  0  0  0  0  0  0
   12.0930   -1.3760   25.0660 N   0  0  0  0  0  0  0  0  0  0  0  0
   11.6250    0.8580   23.8010 C   0  0  0  0  0  0  0  0  0  0  0  0
    9.5570    1.6470   23.4660 C   0  0  0  0  0  0  0  0  0  0  0  0
   12.3230   -1.8780   23.7640 C   0  0  0  0  0  0  0  0  0  0  0  0
   11.9290    2.1500   23.2300 C   0  0  0  0  0  0  0  0  0  0  0  0
   10.5030    2.9810   22.8760 S   0  0  0  0  0  0  0  0  0  0  0  0
   11.3270   -1.2980   22.8530 C   0  0  0  0  0  0  0  0  0  0  0  0
   13.3840   -2.9170   23.2680 C   0  0  0  0  0  0  0  0  0  0  0  0
   11.2600   -1.6630   21.4730 C   0  0  0  0  0  0  0  0  0  0  0  0
   13.3390   -3.3270   21.8860 C   0  0  0  0  0  0  0  0  0  0  0  0
   12.2660   -2.6800   21.0090 C   0  0  0  0  0  0  0  0  0  0  0  0
   14.1150   -4.2670   21.2290 N   0  0  0  0  0  0  0  0  0  0  0  0
   14.0620   -4.1090   19.9870 C   0  0  0  0  0  0  0  0  0  0  0  0
   15.3560   -5.1030   21.4040 C   0  0  0  0  0  0  0  0  0  0  0  0
   15.0850   -4.9000   19.4440 C   0  0  0  0  0  0  0  0  0  0  0  0
   15.5870   -5.8010   20.2340 C   0  0  0  0  0  0  0  0  0  0  0  0
   16.2460   -5.3360   22.4790 O   0  0  0  0  0  0  0  0  0  0  0  0
  1  2  1  0
  2  3  2  0
  2  4  1  0
  4  5  1  0
  4  6  1  0
  5  7  1  0
  6  8  1  0
  7  9  1  0
  8  9  1  0
  9 10  1  0
 10 11  1  6
 10 12  1  0
 11 13  2  0
 11 14  1  0
 12 15  1  0
 12 16  2  0
 14 17  1  0
 15 18  2  0
 16 19  1  0
 18 19  1  0
 17 20  2  0
 17 21  1  0
 20 22  1  0
 21 23  2  0
 22 24  2  0
 23 24  1  0
 23 25  1  0
 25 26  1  0
 25 27  1  0
 26 28  1  0
 27 29  1  0
 28 29  1  0
 27 30  2  0
M  END
