MAK-UNK-9955b1f3-3
     RDKit          3D

 13 13  0  0  0  0  0  0  0  0999 V2000
    9.9610    0.5120   22.2140 C   0  0  0  0  0  0  0  0  0  0  0  0
    9.7740   -0.4710   23.3400 C   0  0  0  0  0  0  0  0  0  0  0  0
   10.1330   -1.7750   23.0260 N   0  0  0  0  0  0  0  0  0  0  0  0
   10.8010   -2.1050   21.7920 C   0  0  0  0  0  0  0  0  0  0  0  0
   10.3830   -2.5730   24.2140 C   0  0  0  0  0  0  0  0  0  0  0  0
    8.9770   -2.9210   24.6790 C   0  0  0  0  0  0  0  0  0  0  0  0
    9.0720   -4.1850   25.4640 N   0  0  0  0  0  0  0  0  0  0  0  0
    9.4220   -5.2240   24.6620 C   0  0  0  0  0  0  0  0  0  0  0  0
    8.3220   -4.2200   26.6780 C   0  0  0  0  0  0  0  0  0  0  0  0
    8.4280   -5.5630   23.5150 C   0  0  0  0  0  0  0  0  0  0  0  0
    6.9990   -4.5140   26.3000 C   0  0  0  0  0  0  0  0  0  0  0  0
    7.0950   -5.3170   24.1970 C   0  0  0  0  0  0  0  0  0  0  0  0
    6.9210   -5.5370   25.6220 O   0  0  0  0  0  0  0  0  0  0  0  0
  1  2  1  0
  2  3  1  0
  3  4  1  0
  3  5  1  0
  5  6  1  0
  6  7  1  0
  7  8  1  0
  7  9  1  0
  8 10  1  0
  9 11  1  0
 10 12  1  0
 11 13  1  0
 12 13  1  0
M  END
