MAK-UNK-df1a028e-7-vinylsulfonamide
     RDKit          3D

 22 24  0  0  0  0  0  0  0  0999 V2000
    8.3420   -3.5490   19.6850 C   0  0  0  0  0  0  0  0  0  0  0  0
    6.8550   -3.8500   20.0110 C   0  0  0  0  0  0  0  0  0  0  0  0
    6.5010   -4.4310   21.6400 S   0  0  0  0  0  0  0  0  0  0  0  0
    5.0460   -4.1930   21.7930 O   0  0  0  0  0  0  0  0  0  0  0  0
    7.0490   -5.7640   21.7390 O   0  0  0  0  0  0  0  0  0  0  0  0
    7.5140   -3.4400   22.5410 N   0  0  0  0  0  0  0  0  0  0  0  0
    8.6050   -2.6400   21.9310 C   0  0  0  0  0  0  0  0  0  0  0  0
    7.3840   -2.8310   23.9380 C   0  0  1  0  0  0  0  0  0  0  0  0
    8.3330   -1.5370   22.6590 C   0  0  2  0  0  0  0  0  0  0  0  0
    8.5910   -2.1220   23.9300 C   0  0  0  0  0  0  0  0  0  0  0  0
    6.3840   -1.9000   23.9400 C   0  0  2  0  0  0  0  0  0  0  0  0
    5.0270   -2.4990   24.2370 C   0  0  0  0  0  0  0  0  0  0  0  0
    6.8160   -1.3230   22.6110 N   0  0  0  0  0  0  0  0  0  0  0  0
    4.0730   -1.5610   24.8880 C   0  0  0  0  0  0  0  0  0  0  0  0
    4.6320   -3.8160   23.9740 C   0  0  0  0  0  0  0  0  0  0  0  0
    6.2950    0.1530   21.9870 S   0  0  0  0  0  0  0  0  0  0  0  0
    2.8050   -2.0210   25.2220 C   0  0  0  0  0  0  0  0  0  0  0  0
    3.3430   -4.2310   24.3250 C   0  0  0  0  0  0  0  0  0  0  0  0
    4.9030   -0.3850   21.0380 C   0  0  0  0  0  0  0  0  0  0  0  0
    5.8350    0.9760   23.0870 O   0  0  0  0  0  0  0  0  0  0  0  0
    7.2900    0.6260   21.0500 O   0  0  0  0  0  0  0  0  0  0  0  0
    2.4470   -3.3470   24.9390 C   0  0  0  0  0  0  0  0  0  0  0  0
  1  2  1  0
  3  2  1  0
  3  4  2  0
  3  5  2  0
  3  6  1  0
  6  7  1  0
  8  6  1  6
  9  7  1  6
  8 10  1  0
  9 10  1  0
  8 11  1  0
 11 12  1  6
  9 13  1  0
 11 13  1  0
 12 14  2  0
 12 15  1  0
 13 16  1  0
 14 17  1  0
 15 18  2  0
 16 19  1  0
 16 20  2  0
 16 21  2  0
 17 22  2  0
 18 22  1  0
M  END
