MAK-UNK-6ca90168-10-nitrile
     RDKit          3D

 18 19  0  0  0  0  0  0  0  0999 V2000
    7.1810   -4.2000   20.3720 C   0  0  0  0  0  0  0  0  0  0  0  0
    6.1020   -4.7930   20.0850 N   0  0  0  0  0  0  0  0  0  0  0  0
    7.4520   -3.6940   21.6330 N   0  0  0  0  0  0  0  0  0  0  0  0
    8.3520   -2.5520   21.9020 C   0  0  0  0  0  0  0  0  0  0  0  0
    6.3850   -3.7230   22.6240 C   0  0  0  0  0  0  0  0  0  0  0  0
    7.4660   -1.3350   21.4650 C   0  0  0  0  0  0  0  0  0  0  0  0
    5.5240   -2.6680   22.3640 C   0  0  0  0  0  0  0  0  0  0  0  0
    6.0590   -1.8150   21.2930 N   0  0  0  0  0  0  0  0  0  0  0  0
    5.6020   -1.9760   20.0270 C   0  0  0  0  0  0  0  0  0  0  0  0
    4.9560   -3.0000   19.7660 O   0  0  0  0  0  0  0  0  0  0  0  0
    5.8620   -0.9370   18.8810 C   0  0  0  0  0  0  0  0  0  0  0  0
    6.0460    0.3510   19.6980 C   0  0  0  0  0  0  0  0  0  0  0  0
    7.4610    0.2470   20.3200 C   0  0  0  0  0  0  0  0  0  0  0  0
    5.0980    1.3840   19.8250 C   0  0  0  0  0  0  0  0  0  0  0  0
    7.7400    1.5030   21.1690 C   0  0  0  0  0  0  0  0  0  0  0  0
    5.4080    2.6230   20.6780 C   0  0  0  0  0  0  0  0  0  0  0  0
    3.7860    1.3080   19.1440 C   0  0  0  0  0  0  0  0  0  0  0  0
    6.7700    2.6730   21.3650 C   0  0  0  0  0  0  0  0  0  0  0  0
  1  2  2  3
  1  3  1  0
  3  4  1  0
  3  5  1  0
  4  6  1  0
  5  7  1  0
  6  8  1  0
  7  8  1  0
  8  9  1  0
  9 10  2  0
  9 11  1  0
 11 12  1  0
 12 13  2  0
 12 14  1  0
 13 15  1  0
 14 16  2  0
 14 17  1  0
 15 18  2  0
 16 18  1  0
M  END
