MAK-UNK-72659d64-6-chloroacetamide
     RDKit          3D

 14 14  0  0  0  0  0  0  0  0999 V2000
    7.6150   -3.6620   20.4750 C   0  0  0  0  0  0  0  0  0  0  0  0
    6.2630   -4.3110   20.7070 C   0  0  0  0  0  0  0  0  0  0  0  0
    5.3720   -4.4780   19.8760 O   0  0  0  0  0  0  0  0  0  0  0  0
    6.0590   -4.7140   22.0280 N   0  0  0  0  0  0  0  0  0  0  0  0
    5.4330   -5.9930   22.2870 C   0  0  0  0  0  0  0  0  0  0  0  0
    6.0760   -3.6730   23.0600 C   0  0  0  0  0  0  0  0  0  0  0  0
    4.9870   -3.8530   24.1180 C   0  0  0  0  0  0  0  0  0  0  0  0
    5.0190   -5.1650   24.8800 C   0  0  0  0  0  0  0  0  0  0  0  0
    3.9500   -2.9250   24.4630 C   0  0  0  0  0  0  0  0  0  0  0  0
    4.0060   -5.2540   25.8000 N   0  0  0  0  0  0  0  0  0  0  0  0
    3.1660   -3.0910   25.2460 N   0  0  0  0  0  0  0  0  0  0  0  0
    3.1960   -4.2330   25.8850 C   0  0  0  0  0  0  0  0  0  0  0  0
    2.1010   -4.3650   26.8610 C   0  0  0  0  0  0  0  0  0  0  0  0
    1.1140   -4.4890   27.7600 N   0  0  0  0  0  0  0  0  0  0  0  0
  1  2  1  0
  2  3  2  0
  2  4  1  0
  4  5  1  0
  4  6  1  0
  6  7  1  0
  7  8  2  0
  7  9  1  0
  8 10  1  0
  9 11  2  0
 10 12  2  0
 11 12  1  0
 12 13  1  0
 13 14  3  0
M  END
