MAK-UNK-8fdbca50-23-chloroacetamide
     RDKit          3D

 39 42  0  0  0  0  0  0  0  0999 V2000
    6.1320   -5.6230   20.1530 C   0  0  0  0  0  0  0  0  0  0  0  0
    5.9070   -4.1370   20.2890 C   0  0  0  0  0  0  0  0  0  0  0  0
    5.3180   -3.5590   19.3900 O   0  0  0  0  0  0  0  0  0  0  0  0
    6.3390   -3.4390   21.4100 N   0  0  0  0  0  0  0  0  0  0  0  0
    5.4850   -3.2080   22.5780 C   0  0  0  0  0  0  0  0  0  0  0  0
    7.3490   -2.3980   21.2510 C   0  0  0  0  0  0  0  0  0  0  0  0
    5.5620   -1.7560   23.0110 C   0  0  0  0  0  0  0  0  0  0  0  0
    6.7500   -1.1500   21.0850 C   0  0  0  0  0  0  0  0  0  0  0  0
    5.7690   -0.7680   22.0170 C   0  0  0  0  0  0  0  0  0  0  0  0
    5.8830    0.5630   22.4430 C   0  0  0  0  0  0  0  0  0  0  0  0
    5.4910    1.6350   21.6340 O   0  0  0  0  0  0  0  0  0  0  0  0
    6.4530    0.7530   23.8260 N   0  0  0  0  0  0  0  0  0  0  0  0
    7.8670    0.3000   24.0250 C   0  0  0  0  0  0  0  0  0  0  0  0
    5.6970    1.1500   25.0280 C   0  0  0  0  0  0  0  0  0  0  0  0
    8.7790    0.1670   22.8390 C   0  0  0  0  0  0  0  0  0  0  0  0
    8.3500    0.0030   25.2700 N   0  0  0  0  0  0  0  0  0  0  0  0
    5.1870   -0.0560   25.8220 C   0  0  0  0  0  0  0  0  0  0  0  0
    6.5240    2.0900   25.9160 C   0  0  0  0  0  0  0  0  0  0  0  0
   10.1080   -0.2670   22.9880 C   0  0  0  0  0  0  0  0  0  0  0  0
    9.6670   -0.4220   25.4160 C   0  0  0  0  0  0  0  0  0  0  0  0
   10.5810   -0.5890   24.3620 C   0  0  0  0  0  0  0  0  0  0  0  0
   12.3270   -1.1780   24.5930 S   0  0  0  0  0  0  0  0  0  0  0  0
   12.3780   -2.5890   24.9100 O   0  0  0  0  0  0  0  0  0  0  0  0
   13.0280   -0.2340   25.3900 O   0  0  0  0  0  0  0  0  0  0  0  0
   12.8710   -0.9920   23.0090 N   0  0  0  0  0  0  0  0  0  0  0  0
   13.6600   -0.0280   22.4120 C   0  0  0  0  0  0  0  0  0  0  0  0
   12.6390   -1.7220   21.9830 C   0  0  0  0  0  0  0  0  0  0  0  0
   13.8540   -0.2390   20.9590 C   0  0  0  0  0  0  0  0  0  0  0  0
   13.1530   -1.3840   20.8700 C   0  0  0  0  0  0  0  0  0  0  0  0
   12.0640   -2.7380   21.4550 C   0  0  0  0  0  0  0  0  0  0  0  0
   14.6830    0.6040   19.7740 C   0  0  0  0  0  0  0  0  0  0  0  0
   12.9310   -3.6780   20.9790 C   0  0  0  0  0  0  0  0  0  0  0  0
   10.7310   -2.8370   21.2980 C   0  0  0  0  0  0  0  0  0  0  0  0
   14.9570    1.9570   19.8030 N   0  0  0  0  0  0  0  0  0  0  0  0
   12.4830   -4.7420   20.3060 C   0  0  0  0  0  0  0  0  0  0  0  0
   10.2650   -3.9160   20.5950 C   0  0  0  0  0  0  0  0  0  0  0  0
    9.8830   -1.9180   21.7660 F   0  0  0  0  0  0  0  0  0  0  0  0
   15.0190    2.8310   18.6600 C   0  0  0  0  0  0  0  0  0  0  0  0
   11.1350   -4.8840   20.0820 C   0  0  0  0  0  0  0  0  0  0  0  0
  1  2  1  0
  2  3  2  0
  2  4  1  0
  4  5  1  0
  4  6  1  0
  5  7  1  0
  6  8  1  0
  7  9  1  0
  8  9  1  0
  9 10  1  0
 10 11  2  0
 10 12  1  0
 12 13  1  0
 12 14  1  0
 13 15  2  0
 13 16  1  0
 14 17  1  0
 14 18  1  0
 15 19  1  0
 16 20  2  0
 19 21  2  0
 20 21  1  0
 22 21  1  0
 22 23  2  0
 22 24  2  0
 22 25  1  0
 25 26  1  0
 25 27  1  0
 26 28  2  0
 27 29  2  0
 28 29  1  0
 27 30  1  0
 28 31  1  0
 30 32  2  0
 30 33  1  0
 31 34  1  0
 32 35  1  0
 33 36  2  0
 33 37  1  0
 34 38  1  0
 35 39  2  0
 36 39  1  0
M  END
