MAK-UNK-6ca90168-26-chloroacetamide
     RDKit          3D

 11 11  0  0  0  0  0  0  0  0999 V2000
    8.0530   -3.4160   20.4440 C   0  0  0  0  0  0  0  0  0  0  0  0
    7.4090   -2.0730   19.9110 C   0  0  0  0  0  0  0  0  0  0  0  0
    6.9470   -2.7400   18.8350 O   0  0  0  0  0  0  0  0  0  0  0  0
    8.0090   -1.4850   21.1990 N   0  0  0  0  0  0  0  0  0  0  0  0
    9.3730   -1.1310   22.0100 C   0  0  0  0  0  0  0  0  0  0  0  0
   10.4530   -2.1980   21.8060 C   0  0  0  0  0  0  0  0  0  0  0  0
    9.7050   -0.0160   22.8960 C   0  0  0  0  0  0  0  0  0  0  0  0
   11.7140   -1.9880   22.5520 N   0  0  0  0  0  0  0  0  0  0  0  0
   10.9820    0.2550   23.6870 C   0  0  0  0  0  0  0  0  0  0  0  0
    8.9210    1.2360   23.3500 C   0  0  0  0  0  0  0  0  0  0  0  0
   11.9950   -0.8540   23.4450 C   0  0  0  0  0  0  0  0  0  0  0  0
  1  2  1  0
  2  3  2  0
  2  4  1  0
  4  5  1  0
  5  6  2  0
  5  7  1  0
  6  8  1  0
  7  9  2  0
  7 10  1  0
  8 11  2  0
  9 11  1  0
M  END
