MAK-UNK-5d2caa6f-7-vinylsulfonamide
     RDKit          3D

 23 26  0  0  0  0  0  0  0  0999 V2000
    7.6180   -2.9440   18.3010 C   0  0  0  0  0  0  0  0  0  0  0  0
    7.2970   -2.2810   19.5760 C   0  0  0  0  0  0  0  0  0  0  0  0
    5.6550   -2.6150   20.1350 S   0  0  0  0  0  0  0  0  0  0  0  0
    5.1420   -3.9740   19.8800 O   0  0  0  0  0  0  0  0  0  0  0  0
    4.8790   -1.4510   19.7870 O   0  0  0  0  0  0  0  0  0  0  0  0
    5.9980   -2.4740   21.7750 N   0  0  0  0  0  0  0  0  0  0  0  0
    7.0290   -1.5760   21.9730 C   0  0  0  0  0  0  0  0  0  0  0  0
    6.3240   -3.5700   22.5790 C   0  0  1  0  0  0  0  0  0  0  0  0
    8.0020   -2.5080   22.5860 C   0  0  2  0  0  0  0  0  0  0  0  0
    7.5580   -3.8820   22.0610 C   0  0  0  0  0  0  0  0  0  0  0  0
    6.3980   -3.1350   23.8560 C   0  0  0  0  0  0  0  0  0  0  0  0
    7.7010   -2.6170   23.9610 N   0  0  0  0  0  0  0  0  0  0  0  0
    8.7200   -3.0630   24.7740 C   0  0  0  0  0  0  0  0  0  0  0  0
   10.0030   -2.4220   24.3600 C   0  0  0  0  0  0  0  0  0  0  0  0
   10.0390   -1.0820   24.2120 N   0  0  0  0  0  0  0  0  0  0  0  0
   11.0320   -3.0970   24.1300 O   0  0  0  0  0  0  0  0  0  0  0  0
   11.3860   -1.0900   23.7890 C   0  0  0  0  0  0  0  0  0  0  0  0
   12.0710   -2.2930   23.7280 N   0  0  0  0  0  0  0  0  0  0  0  0
   12.0250   -0.0320   23.4280 C   0  0  0  0  0  0  0  0  0  0  0  0
   13.3320   -0.1580   22.8600 C   0  0  0  0  0  0  0  0  0  0  0  0
   11.3790    1.5290   23.5760 S   0  0  0  0  0  0  0  0  0  0  0  0
   13.7450    1.0680   22.5880 C   0  0  0  0  0  0  0  0  0  0  0  0
   12.8790    2.1240   22.8830 C   0  0  0  0  0  0  0  0  0  0  0  0
  1  2  1  0
  3  2  1  0
  3  4  2  0
  3  5  2  0
  3  6  1  0
  6  7  1  0
  6  8  1  0
  9  7  1  6
  8 10  1  0
  9 10  1  0
  8 11  1  1
  9 12  1  0
 11 12  1  0
 12 13  1  0
 13 14  1  0
 14 15  2  0
 14 16  1  0
 15 17  1  0
 16 18  1  0
 17 18  2  0
 17 19  1  0
 19 20  2  0
 19 21  1  0
 20 22  1  0
 21 23  1  0
 22 23  2  0
M  END
