MAK-UNK-3e0761f8-3-nitrile
     RDKit          3D

 25 28  0  0  0  0  0  0  0  0999 V2000
    6.4920   -4.4060   20.0210 C   0  0  0  0  0  0  0  0  0  0  0  0
    5.2490   -4.6440   19.9560 N   0  0  0  0  0  0  0  0  0  0  0  0
    6.9750   -3.3210   20.6310 N   0  0  0  0  0  0  0  0  0  0  0  0
    7.5350   -2.1310   19.9910 C   0  0  0  0  0  0  0  0  0  0  0  0
    7.0320   -3.1260   22.0760 C   0  0  2  0  0  0  0  0  0  0  0  0
    8.4950   -1.7150   21.1540 C   0  0  1  0  0  0  0  0  0  0  0  0
    7.3400   -1.6240   22.1640 C   0  0  0  0  0  0  0  0  0  0  0  0
    8.3450   -3.7130   22.5620 C   0  0  0  0  0  0  0  0  0  0  0  0
    9.3100   -2.9690   21.6090 C   0  0  2  0  0  0  0  0  0  0  0  0
   10.4940   -2.8000   22.6170 C   0  0  0  0  0  0  0  0  0  0  0  0
   10.6080   -3.6190   23.5320 O   0  0  0  0  0  0  0  0  0  0  0  0
   11.3740   -1.7160   22.4910 N   0  0  0  0  0  0  0  0  0  0  0  0
   10.8760   -0.5390   23.1530 C   0  0  0  0  0  0  0  0  0  0  0  0
   11.4600    0.8490   22.8540 C   0  0  0  0  0  0  0  0  0  0  0  0
    9.8320   -0.6800   24.0710 C   0  0  0  0  0  0  0  0  0  0  0  0
   10.8730    1.9560   23.5310 C   0  0  0  0  0  0  0  0  0  0  0  0
    9.3480    0.4430   24.6760 C   0  0  0  0  0  0  0  0  0  0  0  0
    9.1470   -1.9680   24.4810 C   0  0  0  0  0  0  0  0  0  0  0  0
   11.2280    3.2970   23.3940 C   0  0  0  0  0  0  0  0  0  0  0  0
    9.8310    1.6940   24.4220 C   0  0  0  0  0  0  0  0  0  0  0  0
   10.3760    4.3090   23.4670 N   0  0  0  0  0  0  0  0  0  0  0  0
   12.4800    3.7870   23.1830 N   0  0  0  0  0  0  0  0  0  0  0  0
   11.1610    5.4110   23.2990 C   0  0  0  0  0  0  0  0  0  0  0  0
   12.4740    5.1250   23.1280 N   0  0  0  0  0  0  0  0  0  0  0  0
   10.6640    6.7160   23.3010 C   0  0  0  0  0  0  0  0  0  0  0  0
  1  2  2  3
  1  3  1  0
  3  4  1  0
  3  5  1  0
  6  4  1  6
  5  7  1  0
  6  7  1  0
  5  8  1  6
  6  9  1  0
  8  9  1  0
  9 10  1  1
 10 11  2  0
 10 12  1  0
 12 13  1  0
 13 14  2  0
 13 15  1  0
 14 16  1  0
 15 17  2  0
 15 18  1  0
 16 19  1  0
 16 20  2  0
 17 20  1  0
 19 21  2  0
 19 22  1  0
 21 23  1  0
 22 24  1  0
 23 24  2  0
 23 25  1  0
M  END
