MAK-UNK-8fdbca50-11-acrylamide
     RDKit          3D

 40 43  0  0  0  0  0  0  0  0999 V2000
    7.7460   -3.0980   19.1030 C   0  0  0  0  0  0  0  0  0  0  0  0
    6.7160   -3.7350   20.0090 C   0  0  0  0  0  0  0  0  0  0  0  0
    5.7690   -2.7590   20.6470 C   0  0  0  0  0  0  0  0  0  0  0  0
    4.8690   -3.2020   21.3700 O   0  0  0  0  0  0  0  0  0  0  0  0
    5.9010   -1.3910   20.4410 N   0  0  0  0  0  0  0  0  0  0  0  0
    5.0820   -0.4160   21.1660 C   0  0  0  0  0  0  0  0  0  0  0  0
    6.9360   -0.7750   19.6130 C   0  0  0  0  0  0  0  0  0  0  0  0
    5.7460    0.7030   21.7110 C   0  0  0  0  0  0  0  0  0  0  0  0
    6.7740    0.6040   19.6110 C   0  0  0  0  0  0  0  0  0  0  0  0
    6.8710    1.1540   21.0380 C   0  0  0  0  0  0  0  0  0  0  0  0
    8.0870    0.7730   21.6290 C   0  0  0  0  0  0  0  0  0  0  0  0
    8.9260    1.6520   21.8270 O   0  0  0  0  0  0  0  0  0  0  0  0
    8.2760   -0.6950   21.9910 N   0  0  0  0  0  0  0  0  0  0  0  0
    9.6580   -1.1840   21.7550 C   0  0  0  0  0  0  0  0  0  0  0  0
    7.3690   -1.4490   22.8660 C   0  0  2  0  0  0  0  0  0  0  0  0
    7.8220   -1.4020   24.3010 C   0  0  0  0  0  0  0  0  0  0  0  0
    7.3460   -2.9200   22.4070 C   0  0  0  0  0  0  0  0  0  0  0  0
    8.3440   -3.5700   23.1020 C   0  0  0  0  0  0  0  0  0  0  0  0
    9.7600   -3.0610   23.1830 C   0  0  0  0  0  0  0  0  0  0  0  0
    7.9620   -4.7470   23.7380 C   0  0  0  0  0  0  0  0  0  0  0  0
   10.5810   -3.8600   23.9390 C   0  0  0  0  0  0  0  0  0  0  0  0
    8.8650   -5.4450   24.4610 C   0  0  0  0  0  0  0  0  0  0  0  0
    6.7820   -5.4430   23.8090 C   0  0  0  0  0  0  0  0  0  0  0  0
   10.1110   -5.0070   24.5510 C   0  0  0  0  0  0  0  0  0  0  0  0
    7.3590   -6.4760   23.7510 C   0  0  0  0  0  0  0  0  0  0  0  0
    6.6770   -6.9820   23.7850 N   0  0  0  0  0  0  0  0  0  0  0  0
    5.8760   -6.2830   23.8670 C   0  0  0  0  0  0  0  0  0  0  0  0
    5.4630   -7.4550   23.8680 C   0  0  0  0  0  0  0  0  0  0  0  0
    8.1340   -8.0090   23.6530 S   0  0  0  0  0  0  0  0  0  0  0  0
    5.1810   -5.0630   23.9530 C   0  0  0  0  0  0  0  0  0  0  0  0
    9.2700   -7.3970   23.0480 O   0  0  0  0  0  0  0  0  0  0  0  0
    8.7060   -7.7050   24.9450 O   0  0  0  0  0  0  0  0  0  0  0  0
    7.9880  -10.0160   23.2620 C   0  0  0  0  0  0  0  0  0  0  0  0
    4.7640   -4.9860   25.3580 N   0  0  0  0  0  0  0  0  0  0  0  0
    7.7170  -10.5720   22.2250 C   0  0  0  0  0  0  0  0  0  0  0  0
    8.2960  -11.2250   24.0140 C   0  0  0  0  0  0  0  0  0  0  0  0
    5.8950   -4.6330   26.2140 C   0  0  0  0  0  0  0  0  0  0  0  0
    7.7820  -11.9640   21.9170 C   0  0  0  0  0  0  0  0  0  0  0  0
    8.3550  -12.7470   23.9270 N   0  0  0  0  0  0  0  0  0  0  0  0
    8.0730  -13.0160   22.7440 C   0  0  0  0  0  0  0  0  0  0  0  0
  1  2  1  0
  2  3  1  0
  3  4  2  0
  3  5  1  0
  5  6  1  0
  5  7  1  0
  6  8  1  0
  7  9  1  0
  8 10  1  0
  9 10  1  0
 10 11  1  0
 11 12  2  0
 11 13  1  0
 13 14  1  0
 13 15  1  0
 15 16  1  1
 15 17  1  0
 17 18  1  0
 18 19  2  0
 18 20  1  0
 19 21  1  0
 20 22  2  0
 20 23  1  0
 21 24  2  0
 22 24  1  0
 23 25  2  0
 23 26  1  0
 25 27  1  0
 26 28  1  0
 27 28  2  0
 26 29  1  0
 27 30  1  0
 29 31  2  0
 29 32  2  0
 29 33  1  0
 30 34  1  0
 33 35  2  0
 33 36  1  0
 34 37  1  0
 35 38  1  0
 36 39  2  0
 38 40  2  0
 39 40  1  0
M  END
