MAK-UNK-8fdbca50-32
     RDKit          3D

 40 43  0  0  0  0  0  0  0  0999 V2000
    7.5320   -1.2320   20.1080 C   0  0  0  0  0  0  0  0  0  0  0  0
    7.4900   -1.9410   21.4300 C   0  0  0  0  0  0  0  0  0  0  0  0
    6.4030   -3.0240   21.5780 C   0  0  0  0  0  0  0  0  0  0  0  0
    8.7930   -2.4490   21.9460 N   0  0  0  0  0  0  0  0  0  0  0  0
    8.5720   -3.3530   23.0920 C   0  0  0  0  0  0  0  0  0  0  0  0
    9.9750   -1.5370   21.8050 C   0  0  0  0  0  0  0  0  0  0  0  0
    9.8930   -0.4160   21.3540 O   0  0  0  0  0  0  0  0  0  0  0  0
   11.1960   -2.0600   22.2690 C   0  0  0  0  0  0  0  0  0  0  0  0
   12.4480   -1.4140   22.2500 C   0  0  0  0  0  0  0  0  0  0  0  0
   10.9140   -2.3910   23.6930 C   0  0  0  0  0  0  0  0  0  0  0  0
   12.4890   -0.0880   22.9260 C   0  0  0  0  0  0  0  0  0  0  0  0
   10.9420   -1.0920   24.4240 C   0  0  0  0  0  0  0  0  0  0  0  0
   11.3120    0.0840   23.6110 N   0  0  0  0  0  0  0  0  0  0  0  0
   10.2400    0.9880   23.1340 C   0  0  0  0  0  0  0  0  0  0  0  0
   10.4630    2.1180   22.6960 O   0  0  0  0  0  0  0  0  0  0  0  0
    8.8250    0.4690   23.2180 C   0  0  0  0  0  0  0  0  0  0  0  0
    7.9890    1.2980   24.2100 C   0  0  0  0  0  0  0  0  0  0  0  0
    8.0000    2.5940   23.7570 N   0  0  0  0  0  0  0  0  0  0  0  0
    7.1440    3.3120   24.5440 C   0  0  0  0  0  0  0  0  0  0  0  0
    7.9490    4.1330   25.5220 C   0  0  0  0  0  0  0  0  0  0  0  0
    8.6480    5.2240   25.0590 C   0  0  0  0  0  0  0  0  0  0  0  0
    8.1890    4.0740   26.9020 C   0  0  0  0  0  0  0  0  0  0  0  0
    9.2930    5.8140   26.1030 C   0  0  0  0  0  0  0  0  0  0  0  0
    9.0310    5.1170   27.2670 N   0  0  0  0  0  0  0  0  0  0  0  0
   10.0660    6.9490   25.8890 C   0  0  0  0  0  0  0  0  0  0  0  0
    9.5420    5.3480   28.9020 S   0  0  0  0  0  0  0  0  0  0  0  0
    9.7100    8.1510   26.5000 C   0  0  0  0  0  0  0  0  0  0  0  0
   11.2090    6.8770   25.0460 C   0  0  0  0  0  0  0  0  0  0  0  0
    9.9960    4.0520   29.3620 O   0  0  0  0  0  0  0  0  0  0  0  0
    8.4330    6.0170   29.5550 O   0  0  0  0  0  0  0  0  0  0  0  0
   10.9570    6.3940   29.0080 C   0  0  0  0  0  0  0  0  0  0  0  0
   10.4580    9.3190   26.3100 C   0  0  0  0  0  0  0  0  0  0  0  0
   11.9780    8.0100   24.8300 C   0  0  0  0  0  0  0  0  0  0  0  0
   11.5580    5.7270   24.4510 F   0  0  0  0  0  0  0  0  0  0  0  0
   11.4610    7.1100   27.9360 C   0  0  0  0  0  0  0  0  0  0  0  0
   11.6090    6.5200   30.2290 C   0  0  0  0  0  0  0  0  0  0  0  0
   11.5750    9.3150   25.5080 C   0  0  0  0  0  0  0  0  0  0  0  0
   12.5580    7.9450   27.9800 C   0  0  0  0  0  0  0  0  0  0  0  0
   12.7110    7.3060   30.4330 N   0  0  0  0  0  0  0  0  0  0  0  0
   13.1850    8.0010   29.3680 C   0  0  0  0  0  0  0  0  0  0  0  0
  1  2  1  0
  2  3  1  0
  2  4  1  0
  4  5  1  0
  4  6  1  0
  6  7  2  0
  6  8  1  0
  8  9  1  0
  8 10  1  0
  9 11  1  0
 10 12  1  0
 11 13  1  0
 12 13  1  0
 13 14  1  0
 14 15  2  0
 14 16  1  0
 16 17  1  0
 17 18  1  0
 18 19  1  0
 19 20  1  0
 20 21  1  0
 20 22  2  0
 21 23  2  0
 22 24  1  0
 23 24  1  0
 23 25  1  0
 24 26  1  0
 25 27  2  0
 25 28  1  0
 26 29  2  0
 26 30  2  0
 26 31  1  0
 27 32  1  0
 28 33  2  0
 28 34  1  0
 31 35  2  0
 31 36  1  0
 32 37  2  0
 33 37  1  0
 35 38  1  0
 36 39  2  0
 38 40  2  0
 39 40  1  0
M  END
