MAK-UNK-6ca90168-22-bromoalkyne
     RDKit          3D

 16 17  0  0  0  0  0  0  0  0999 V2000
    7.5600   -3.2780   20.2830 C   0  0  0  0  0  0  0  0  0  0  0  0
    7.1610   -2.5400   18.9750 C   0  0  0  0  0  0  0  0  0  0  0  0
    8.6650   -2.7510   21.4180 N   0  0  0  0  0  0  0  0  0  0  0  0
   10.1960   -2.3170   21.6700 C   0  0  0  0  0  0  0  0  0  0  0  0
    8.4000   -2.6410   22.9050 C   0  0  0  0  0  0  0  0  0  0  0  0
   10.3840   -0.7500   22.0540 C   0  0  0  0  0  0  0  0  0  0  0  0
    8.4650   -1.3220   23.4320 C   0  0  0  0  0  0  0  0  0  0  0  0
    9.9080   -0.7540   23.5280 C   0  0  0  0  0  0  0  0  0  0  0  0
    9.8800    0.7210   24.0380 C   0  0  2  0  0  0  0  0  0  0  0  0
    8.4650    1.1260   23.5640 C   0  0  0  0  0  0  0  0  0  0  0  0
   10.8350    1.7420   23.4600 C   0  0  0  0  0  0  0  0  0  0  0  0
    7.7640    1.4510   24.8460 N   0  0  0  0  0  0  0  0  0  0  0  0
   12.3410    1.6340   23.2780 C   0  0  0  0  0  0  0  0  0  0  0  0
   10.4440    3.0150   22.9890 C   0  0  0  0  0  0  0  0  0  0  0  0
   12.9100    2.8800   22.6860 C   0  0  0  0  0  0  0  0  0  0  0  0
   11.7050    4.0490   22.3770 S   0  0  0  0  0  0  0  0  0  0  0  0
  1  2  2  3
  1  3  1  0
  3  4  1  0
  3  5  1  0
  4  6  1  0
  5  7  1  0
  6  8  1  0
  7  8  1  0
  8  9  1  0
  9 10  1  6
  9 11  1  0
 10 12  3  0
 11 13  1  0
 11 14  2  0
 13 15  2  0
 14 16  1  0
 15 16  1  0
M  END
