MAK-UNK-516d8086-16-acrylamide
     RDKit          3D

 24 26  0  0  0  0  0  0  0  0999 V2000
    7.8030   -5.0250   21.0870 C   0  0  0  0  0  0  0  0  0  0  0  0
    6.4320   -5.5950   21.3720 C   0  0  0  0  0  0  0  0  0  0  0  0
    5.8050   -4.7370   22.4140 C   0  0  0  0  0  0  0  0  0  0  0  0
    4.7500   -4.1190   22.1590 O   0  0  0  0  0  0  0  0  0  0  0  0
    6.4190   -4.6510   23.7850 C   0  0  0  0  0  0  0  0  0  0  0  0
    5.4720   -4.4100   24.7530 C   0  0  0  0  0  0  0  0  0  0  0  0
    7.8130   -4.7920   24.1600 C   0  0  0  0  0  0  0  0  0  0  0  0
    5.8380   -4.3130   26.0630 C   0  0  0  0  0  0  0  0  0  0  0  0
    8.2360   -4.6900   25.5500 C   0  0  0  0  0  0  0  0  0  0  0  0
    7.1630   -4.4490   26.4690 C   0  0  0  0  0  0  0  0  0  0  0  0
    9.7670   -4.8420   26.0140 C   0  0  0  0  0  0  0  0  0  0  0  0
    7.3380   -4.3440   27.9250 C   0  0  0  0  0  0  0  0  0  0  0  0
   10.7520   -3.9020   25.3520 C   0  0  0  0  0  0  0  0  0  0  0  0
    7.9850   -5.6350   28.2760 C   0  0  0  0  0  0  0  0  0  0  0  0
   12.1010   -3.4240   25.5970 C   0  0  0  0  0  0  0  0  0  0  0  0
   10.0980   -3.4870   24.3060 C   0  0  0  0  0  0  0  0  0  0  0  0
    9.4260   -5.5770   27.8320 C   0  0  0  0  0  0  0  0  0  0  0  0
   12.6990   -2.5060   24.6960 C   0  0  0  0  0  0  0  0  0  0  0  0
   10.6490   -2.6720   23.5020 C   0  0  0  0  0  0  0  0  0  0  0  0
   11.9110   -2.1510   23.6150 C   0  0  0  0  0  0  0  0  0  0  0  0
    9.9620   -2.2290   22.3770 C   0  0  0  0  0  0  0  0  0  0  0  0
    8.8540   -2.6080   22.0710 O   0  0  0  0  0  0  0  0  0  0  0  0
   10.7930   -1.3450   21.7820 N   0  0  0  0  0  0  0  0  0  0  0  0
   12.1010   -1.2960   22.4420 C   0  0  0  0  0  0  0  0  0  0  0  0
  1  2  1  0
  2  3  1  0
  3  4  2  0
  3  5  1  0
  5  6  2  0
  5  7  1  0
  6  8  1  0
  7  9  2  0
  8 10  2  0
  9 10  1  0
  9 11  1  0
 10 12  1  0
 11 13  1  0
 12 14  1  0
 13 15  2  0
 13 16  1  0
 14 17  1  0
 15 18  1  0
 16 19  2  0
 18 20  2  0
 19 20  1  0
 19 21  1  0
 21 22  2  0
 21 23  1  0
 20 24  1  0
 23 24  1  0
M  END
