MAK-UNK-c8c8f7e2-33
     RDKit          3D

 16 17  0  0  0  0  0  0  0  0999 V2000
    6.8730    0.5010   18.7650 C   0  0  0  0  0  0  0  0  0  0  0  0
    7.0670    0.8140   20.2280 C   0  0  0  0  0  0  0  0  0  0  0  0
    7.5570   -0.3350   21.1400 C   0  0  1  0  0  0  0  0  0  0  0  0
    7.4130   -0.0970   22.5040 N   0  0  0  0  0  0  0  0  0  0  0  0
    6.9180   -1.6990   20.8060 C   0  0  0  0  0  0  0  0  0  0  0  0
    6.0280   -1.7250   19.5900 C   0  0  0  0  0  0  0  0  0  0  0  0
    7.0670   -2.9210   21.5080 C   0  0  0  0  0  0  0  0  0  0  0  0
    5.4020   -3.0090   19.2450 C   0  0  0  0  0  0  0  0  0  0  0  0
    6.4130   -4.1210   21.1030 C   0  0  0  0  0  0  0  0  0  0  0  0
    5.5930   -4.1780   19.9850 C   0  0  0  0  0  0  0  0  0  0  0  0
    6.6960   -5.1270   21.9380 N   0  0  0  0  0  0  0  0  0  0  0  0
    5.5960   -5.8550   22.2350 C   0  0  0  0  0  0  0  0  0  0  0  0
    7.2270   -4.8450   23.2740 C   0  0  0  0  0  0  0  0  0  0  0  0
    5.0110   -5.4020   23.4650 C   0  0  0  0  0  0  0  0  0  0  0  0
    6.1030   -4.7790   24.0990 C   0  0  0  0  0  0  0  0  0  0  0  0
    8.3920   -4.6960   23.6240 O   0  0  0  0  0  0  0  0  0  0  0  0
  1  2  1  0
  2  3  1  0
  3  4  1  1
  3  5  1  0
  5  6  2  0
  5  7  1  0
  6  8  1  0
  7  9  2  0
  8 10  2  0
  9 10  1  0
  9 11  1  0
 11 12  1  0
 11 13  1  0
 12 14  1  0
 13 15  1  0
 14 15  1  0
 13 16  2  0
M  END
