MAK-UNK-176ca439-3-nitrile
     RDKit          3D

 22 23  0  0  0  0  0  0  0  0999 V2000
    6.7660   -3.5770   19.7590 C   0  0  0  0  0  0  0  0  0  0  0  0
    6.3700   -3.0360   18.6670 N   0  0  0  0  0  0  0  0  0  0  0  0
    6.5790   -2.7490   20.8240 N   0  0  0  0  0  0  0  0  0  0  0  0
    7.2100   -1.5490   20.9350 C   0  0  0  0  0  0  0  0  0  0  0  0
    6.3190   -3.2940   22.1760 C   0  0  0  0  0  0  0  0  0  0  0  0
    8.5010   -1.7280   21.6850 C   0  0  0  0  0  0  0  0  0  0  0  0
    7.5330   -3.4380   22.8660 C   0  0  0  0  0  0  0  0  0  0  0  0
    8.3100   -2.2620   22.9190 N   0  0  0  0  0  0  0  0  0  0  0  0
    9.3170   -2.2880   23.8150 C   0  0  0  0  0  0  0  0  0  0  0  0
   10.4420   -1.2940   23.5390 C   0  0  0  0  0  0  0  0  0  0  0  0
   11.7740   -1.9940   23.4240 C   0  0  0  0  0  0  0  0  0  0  0  0
   10.2490    0.0770   23.4070 C   0  0  0  0  0  0  0  0  0  0  0  0
   12.9770   -1.1100   23.1440 C   0  0  0  0  0  0  0  0  0  0  0  0
   11.3270    0.9380   23.1540 C   0  0  0  0  0  0  0  0  0  0  0  0
   12.7690    0.4080   23.0050 C   0  0  0  0  0  0  0  0  0  0  0  0
   10.9770    2.2850   23.0580 C   0  0  0  0  0  0  0  0  0  0  0  0
    9.8640    2.5580   23.4840 O   0  0  0  0  0  0  0  0  0  0  0  0
   12.0790    3.3830   22.3800 S   0  0  0  0  0  0  0  0  0  0  0  0
   11.4280    4.7100   23.2220 C   0  0  0  0  0  0  0  0  0  0  0  0
   11.8520    5.9740   22.7750 C   0  0  0  0  0  0  0  0  0  0  0  0
   13.0690    6.0290   22.0780 N   0  0  0  0  0  0  0  0  0  0  0  0
   14.0280    4.9280   22.1980 C   0  0  0  0  0  0  0  0  0  0  0  0
  1  2  2  3
  1  3  1  0
  3  4  1  0
  3  5  1  0
  4  6  1  0
  5  7  1  0
  6  8  1  0
  7  8  1  0
  8  9  1  0
  9 10  1  0
 10 11  2  0
 10 12  1  0
 11 13  1  0
 12 14  2  0
 13 15  2  0
 14 15  1  0
 14 16  1  0
 16 17  2  0
 16 18  1  0
 18 19  1  0
 19 20  1  0
 20 21  1  0
 21 22  1  0
M  END
