MAK-UNK-10799360-16-vinylsulfonamide
     RDKit          3D

 27 30  0  0  0  0  0  0  0  0999 V2000
    7.5470   -2.9080   18.3600 C   0  0  0  0  0  0  0  0  0  0  0  0
    6.9890   -2.2640   19.5990 C   0  0  0  0  0  0  0  0  0  0  0  0
    5.7520   -3.3300   20.2800 S   0  0  0  0  0  0  0  0  0  0  0  0
    4.5830   -3.3200   19.4560 O   0  0  0  0  0  0  0  0  0  0  0  0
    6.3050   -4.5810   20.7200 O   0  0  0  0  0  0  0  0  0  0  0  0
    5.4410   -2.4550   21.6530 N   0  0  0  0  0  0  0  0  0  0  0  0
    5.1760   -3.2660   22.8280 C   0  0  0  0  0  0  0  0  0  0  0  0
    6.5910   -1.6300   22.0130 C   0  0  2  0  0  0  0  0  0  0  0  0
    6.5420   -3.1850   23.5660 C   0  0  1  0  0  0  0  0  0  0  0  0
    7.5170   -2.7530   22.4710 C   0  0  0  0  0  0  0  0  0  0  0  0
    6.3210   -0.8860   23.3420 C   0  0  0  0  0  0  0  0  0  0  0  0
    6.5090   -1.9490   24.3600 N   0  0  0  0  0  0  0  0  0  0  0  0
    7.6220   -1.8880   25.2990 C   0  0  0  0  0  0  0  0  0  0  0  0
    8.8620   -1.1820   24.7520 C   0  0  0  0  0  0  0  0  0  0  0  0
    8.8800    0.2060   24.5250 C   0  0  0  0  0  0  0  0  0  0  0  0
   10.0240   -1.9110   24.4580 C   0  0  0  0  0  0  0  0  0  0  0  0
   10.0210    0.8070   24.0150 C   0  0  0  0  0  0  0  0  0  0  0  0
   11.1570   -1.3200   23.9600 C   0  0  0  0  0  0  0  0  0  0  0  0
   11.1330    0.0410   23.7370 C   0  0  0  0  0  0  0  0  0  0  0  0
   12.3730   -2.1680   23.6780 C   0  0  0  0  0  0  0  0  0  0  0  0
   13.2820   -1.5110   22.7860 N   0  0  0  0  0  0  0  0  0  0  0  0
   12.3130    0.6980   23.1870 C   0  0  0  0  0  0  0  0  0  0  0  0
   12.9980   -1.8220   21.1810 S   0  0  0  0  0  0  0  0  0  0  0  0
   13.4130   -0.0950   23.0900 C   0  0  0  0  0  0  0  0  0  0  0  0
   13.4810   -3.4340   20.7530 C   0  0  0  0  0  0  0  0  0  0  0  0
   13.8660   -0.9830   20.3980 O   0  0  0  0  0  0  0  0  0  0  0  0
   11.5670   -1.8180   21.1160 O   0  0  0  0  0  0  0  0  0  0  0  0
  1  2  1  0
  3  2  1  0
  3  4  2  0
  3  5  2  0
  3  6  1  0
  6  7  1  0
  6  8  1  0
  9  7  1  6
  8 10  1  0
  9 10  1  0
  8 11  1  1
  9 12  1  0
 11 12  1  0
 12 13  1  0
 13 14  1  0
 14 15  2  0
 14 16  1  0
 15 17  1  0
 16 18  2  0
 17 19  2  0
 18 19  1  0
 18 20  1  0
 20 21  1  0
 19 22  1  0
 21 23  1  0
 21 24  1  0
 22 24  1  0
 23 25  1  0
 23 26  2  0
 23 27  2  0
M  END
