MAK-UNK-176ca439-5-bromoalkyne
     RDKit          3D

 32 35  0  0  0  0  0  0  0  0999 V2000
    6.5330   -3.8170   19.8190 C   0  0  0  0  0  0  0  0  0  0  0  0
    5.6960   -5.0470   20.0620 C   0  0  0  0  0  0  0  0  0  0  0  0
    6.4590   -2.8030   20.7560 N   0  0  0  0  0  0  0  0  0  0  0  0
    6.0050   -3.0670   22.0470 C   0  0  0  0  0  0  0  0  0  0  0  0
    7.3000   -1.5940   20.8050 C   0  0  0  0  0  0  0  0  0  0  0  0
    7.1340   -3.3600   23.0050 C   0  0  0  0  0  0  0  0  0  0  0  0
    8.4250   -1.7330   21.8420 C   0  0  0  0  0  0  0  0  0  0  0  0
    7.9580   -2.3390   23.1170 N   0  0  0  0  0  0  0  0  0  0  0  0
    9.0490   -2.5190   24.0710 C   0  0  0  0  0  0  0  0  0  0  0  0
   10.1860   -1.5940   23.7640 C   0  0  0  0  0  0  0  0  0  0  0  0
    9.8750   -0.2400   24.3980 C   0  0  0  0  0  0  0  0  0  0  0  0
   11.3120   -1.9090   23.0130 C   0  0  0  0  0  0  0  0  0  0  0  0
   10.8750    0.8770   24.1680 C   0  0  0  0  0  0  0  0  0  0  0  0
   12.2470   -0.9450   22.7710 C   0  0  0  0  0  0  0  0  0  0  0  0
   12.0420    0.4590   23.3280 C   0  0  0  0  0  0  0  0  0  0  0  0
   13.0520    1.1840   22.9110 C   0  0  0  0  0  0  0  0  0  0  0  0
   12.7260    2.5430   22.9540 N   0  0  0  0  0  0  0  0  0  0  0  0
   11.3920    3.0240   22.7090 C   0  0  0  0  0  0  0  0  0  0  0  0
   10.2110    2.7340   22.5660 O   0  0  0  0  0  0  0  0  0  0  0  0
   12.0330    4.2820   22.6650 C   0  0  0  0  0  0  0  0  0  0  0  0
   11.1400    5.3670   22.5700 N   0  0  0  0  0  0  0  0  0  0  0  0
   10.2120    5.5490   23.6880 C   0  0  0  0  0  0  0  0  0  0  0  0
    9.1930    6.4600   23.3250 C   0  0  0  0  0  0  0  0  0  0  0  0
    8.2240    6.2500   22.3350 C   0  0  0  0  0  0  0  0  0  0  0  0
    8.8840    7.7820   23.8510 C   0  0  0  0  0  0  0  0  0  0  0  0
    7.4230    7.3120   22.2660 N   0  0  0  0  0  0  0  0  0  0  0  0
    7.7590    8.2580   23.1380 C   0  0  0  0  0  0  0  0  0  0  0  0
    9.3950    8.6450   24.8320 C   0  0  0  0  0  0  0  0  0  0  0  0
    7.1840    9.6170   23.4510 C   0  0  0  0  0  0  0  0  0  0  0  0
    8.9070    9.9310   25.1750 C   0  0  0  0  0  0  0  0  0  0  0  0
    7.7870   10.4030   24.4620 C   0  0  0  0  0  0  0  0  0  0  0  0
    9.4780   10.6720   26.1330 F   0  0  0  0  0  0  0  0  0  0  0  0
  1  2  2  3
  1  3  1  0
  3  4  1  0
  3  5  1  0
  4  6  1  0
  5  7  1  0
  6  8  1  0
  7  8  1  0
  8  9  1  0
  9 10  1  0
 10 11  2  0
 10 12  1  0
 11 13  1  0
 12 14  2  0
 13 15  2  0
 14 15  1  0
 15 16  1  0
 16 17  1  0
 17 18  1  0
 18 19  2  0
 18 20  1  0
 20 21  1  0
 21 22  1  0
 22 23  1  0
 23 24  2  0
 23 25  1  0
 24 26  1  0
 25 27  2  0
 26 27  1  0
 25 28  1  0
 27 29  1  0
 28 30  2  0
 29 31  2  0
 30 31  1  0
 30 32  1  0
M  END
