MAK-UNK-8fdbca50-36-nitrile
     RDKit          3D

 38 41  0  0  0  0  0  0  0  0999 V2000
    7.5730   -3.3610   20.3810 C   0  0  0  0  0  0  0  0  0  0  0  0
    6.2820   -3.6080   19.9010 N   0  0  0  0  0  0  0  0  0  0  0  0
    8.2320   -2.2890   21.5350 N   0  0  0  0  0  0  0  0  0  0  0  0
    9.5890   -1.5920   21.4300 C   0  0  0  0  0  0  0  0  0  0  0  0
    8.3160   -2.1550   22.9870 C   0  0  0  0  0  0  0  0  0  0  0  0
   10.2660   -0.9780   22.6980 C   0  0  0  0  0  0  0  0  0  0  0  0
    9.2790   -2.9950   23.4750 C   0  0  0  0  0  0  0  0  0  0  0  0
    7.6460   -1.3370   23.9500 N   0  0  0  0  0  0  0  0  0  0  0  0
   10.3870   -2.0200   23.7920 C   0  0  1  0  0  0  0  0  0  0  0  0
    8.4070   -0.5490   24.7450 C   0  0  0  0  0  0  0  0  0  0  0  0
   11.6230   -2.5820   23.8820 C   0  0  0  0  0  0  0  0  0  0  0  0
    7.8020   -0.0660   26.0510 C   0  0  0  0  0  0  0  0  0  0  0  0
   12.1200   -3.1720   24.8270 O   0  0  0  0  0  0  0  0  0  0  0  0
   12.1630   -2.2780   22.5670 N   0  0  0  0  0  0  0  0  0  0  0  0
    8.6170   -0.1050   27.1580 C   0  0  0  0  0  0  0  0  0  0  0  0
    6.5700    0.4620   26.4940 C   0  0  0  0  0  0  0  0  0  0  0  0
   11.2390   -2.5410   21.5140 C   0  0  0  0  0  0  0  0  0  0  0  0
   12.5990   -0.9650   22.3160 C   0  0  0  0  0  0  0  0  0  0  0  0
    7.9240    0.3650   28.2120 C   0  0  0  0  0  0  0  0  0  0  0  0
    6.6450    0.7400   27.8500 N   0  0  0  0  0  0  0  0  0  0  0  0
   13.3630   -1.4460   21.1330 C   0  0  0  0  0  0  0  0  0  0  0  0
   13.3230   -0.3750   23.5050 C   0  0  0  0  0  0  0  0  0  0  0  0
    8.4340    0.4760   29.5150 C   0  0  0  0  0  0  0  0  0  0  0  0
    5.3530    1.4200   28.7450 S   0  0  0  0  0  0  0  0  0  0  0  0
    9.7750    0.8100   29.6350 C   0  0  0  0  0  0  0  0  0  0  0  0
    7.6570    0.2600   30.6960 C   0  0  0  0  0  0  0  0  0  0  0  0
    4.7870    0.3830   29.5730 O   0  0  0  0  0  0  0  0  0  0  0  0
    4.5240    2.0770   27.7520 O   0  0  0  0  0  0  0  0  0  0  0  0
    6.0680    2.7000   29.7170 C   0  0  0  0  0  0  0  0  0  0  0  0
   10.4170    0.9620   30.8660 C   0  0  0  0  0  0  0  0  0  0  0  0
    8.2520    0.4020   31.9540 C   0  0  0  0  0  0  0  0  0  0  0  0
    6.3670   -0.0770   30.6400 F   0  0  0  0  0  0  0  0  0  0  0  0
    7.3550    3.1590   29.4480 C   0  0  0  0  0  0  0  0  0  0  0  0
    5.3710    3.2800   30.7650 C   0  0  0  0  0  0  0  0  0  0  0  0
    9.7260    0.7790   32.0360 C   0  0  0  0  0  0  0  0  0  0  0  0
    8.0050    4.1570   30.1480 C   0  0  0  0  0  0  0  0  0  0  0  0
    5.8820    4.2790   31.5470 N   0  0  0  0  0  0  0  0  0  0  0  0
    7.1410    4.7180   31.2740 C   0  0  0  0  0  0  0  0  0  0  0  0
  1  2  2  3
  1  3  1  0
  3  4  1  0
  3  5  1  0
  4  6  1  0
  5  7  1  0
  5  8  1  0
  6  9  1  0
  7  9  1  0
  8 10  1  0
  9 11  1  6
 10 12  1  0
 11 13  2  0
 11 14  1  0
 12 15  1  0
 12 16  2  0
 14 17  1  0
 14 18  1  0
 15 19  2  0
 16 20  1  0
 19 20  1  0
 18 21  1  0
 18 22  1  0
 19 23  1  0
 20 24  1  0
 23 25  2  0
 23 26  1  0
 24 27  2  0
 24 28  2  0
 24 29  1  0
 25 30  1  0
 26 31  2  0
 26 32  1  0
 29 33  2  0
 29 34  1  0
 30 35  2  0
 31 35  1  0
 33 36  1  0
 34 37  2  0
 36 38  2  0
 37 38  1  0
M  END
