MAK-UNK-902cc841-6
     RDKit          3D

 32 35  0  0  0  0  0  0  0  0999 V2000
    6.2780   -2.1120   18.6350 C   0  0  0  0  0  0  0  0  0  0  0  0
    5.9170   -2.9230   19.7620 C   0  0  0  0  0  0  0  0  0  0  0  0
    5.4470   -4.0630   19.6320 O   0  0  0  0  0  0  0  0  0  0  0  0
    6.1260   -2.3650   20.9950 N   0  0  0  0  0  0  0  0  0  0  0  0
    6.3450   -3.1780   22.1820 C   0  0  0  0  0  0  0  0  0  0  0  0
    6.7000   -1.0260   21.1370 C   0  0  0  0  0  0  0  0  0  0  0  0
    7.8390   -3.5610   21.9960 C   0  0  0  0  0  0  0  0  0  0  0  0
    8.2110   -1.1070   21.3070 C   0  0  0  0  0  0  0  0  0  0  0  0
    8.5860   -2.2760   22.0990 N   0  0  0  0  0  0  0  0  0  0  0  0
    9.4760   -2.1420   23.2200 C   0  0  2  0  0  0  0  0  0  0  0  0
    8.5190   -2.0090   24.4030 C   0  0  0  0  0  0  0  0  0  0  0  0
   10.5520   -1.1990   23.2080 C   0  0  0  0  0  0  0  0  0  0  0  0
    7.4120   -1.4820   24.2770 O   0  0  0  0  0  0  0  0  0  0  0  0
    9.2180   -2.5980   25.5120 N   0  0  0  0  0  0  0  0  0  0  0  0
   11.7780   -1.3340   22.5770 C   0  0  0  0  0  0  0  0  0  0  0  0
   10.5430    0.0510   23.8560 C   0  0  0  0  0  0  0  0  0  0  0  0
    8.5260   -3.4900   26.4700 C   0  0  0  0  0  0  0  0  0  0  0  0
   10.5550   -2.6050   25.1340 C   0  0  1  0  0  0  0  0  0  0  0  0
   12.7110   -0.2260   22.7200 C   0  0  0  0  0  0  0  0  0  0  0  0
   11.9930    0.9800   23.6640 S   0  0  0  0  0  0  0  0  0  0  0  0
    9.0160   -4.8810   26.9310 C   0  0  0  0  0  0  0  0  0  0  0  0
    7.1650   -2.9630   27.0730 C   0  0  0  0  0  0  0  0  0  0  0  0
   11.2020   -1.2230   25.1720 C   0  0  0  0  0  0  0  0  0  0  0  0
   11.5100   -3.5510   25.4210 C   0  0  0  0  0  0  0  0  0  0  0  0
    8.2110   -5.7210   27.9370 C   0  0  0  0  0  0  0  0  0  0  0  0
    6.4490   -3.7380   27.9860 C   0  0  0  0  0  0  0  0  0  0  0  0
   12.6860   -1.2760   25.0440 C   0  0  0  0  0  0  0  0  0  0  0  0
   13.1350   -2.9030   24.9200 S   0  0  0  0  0  0  0  0  0  0  0  0
    6.9080   -5.1130   28.4560 C   0  0  0  0  0  0  0  0  0  0  0  0
   14.0950   -3.2420   25.9460 O   0  0  0  0  0  0  0  0  0  0  0  0
   13.3900   -3.1230   23.5170 O   0  0  0  0  0  0  0  0  0  0  0  0
    6.1570   -5.7860   29.3340 F   0  0  0  0  0  0  0  0  0  0  0  0
  1  2  1  0
  2  3  2  0
  2  4  1  0
  4  5  1  0
  4  6  1  0
  5  7  1  0
  6  8  1  0
  7  9  1  0
  8  9  1  0
  9 10  1  0
 10 11  1  1
 10 12  1  0
 11 13  2  0
 11 14  1  0
 12 15  1  0
 12 16  2  0
 14 17  1  0
 18 14  1  1
 15 19  2  0
 16 20  1  0
 19 20  1  0
 17 21  2  0
 17 22  1  0
 18 23  1  0
 18 24  1  0
 21 25  1  0
 22 26  2  0
 23 27  2  0
 24 28  1  0
 28 27  1  0
 25 29  2  0
 26 29  1  0
 28 30  2  0
 28 31  2  0
 29 32  1  0
M  END
