MAK-UNK-2084232d-11
     RDKit          3D

 22 24  0  0  0  0  0  0  0  0999 V2000
    9.8390   -6.5830   26.0890 N   0  0  0  0  0  0  0  0  0  0  0  0
   10.0420   -5.3170   25.7920 C   0  0  0  0  0  0  0  0  0  0  0  0
    9.9270   -3.8250   25.7910 C   0  0  2  0  0  0  0  0  0  0  0  0
    8.8300   -3.3660   25.5450 O   0  0  0  0  0  0  0  0  0  0  0  0
   11.0130   -3.0680   25.0230 C   0  0  0  0  0  0  0  0  0  0  0  0
    8.4240   -3.2050   24.2440 C   0  0  2  0  0  0  0  0  0  0  0  0
   10.7080   -2.3780   23.9250 C   0  0  0  0  0  0  0  0  0  0  0  0
   12.4840   -3.1040   25.5320 C   0  0  0  0  0  0  0  0  0  0  0  0
    7.9990   -4.4600   23.4780 C   0  0  1  0  0  0  0  0  0  0  0  0
    9.4130   -2.3700   23.4860 C   0  0  0  0  0  0  0  0  0  0  0  0
   13.4870   -2.3500   24.7910 C   0  0  0  0  0  0  0  0  0  0  0  0
   11.6400   -1.6860   23.2280 C   0  0  0  0  0  0  0  0  0  0  0  0
    6.9940   -5.2530   24.3430 C   0  0  0  0  0  0  0  0  0  0  0  0
    7.6500   -3.9640   22.1860 C   0  0  0  0  0  0  0  0  0  0  0  0
   12.9650   -1.6280   23.5890 C   0  0  0  0  0  0  0  0  0  0  0  0
   11.2530   -1.0040   22.1110 O   0  0  0  0  0  0  0  0  0  0  0  0
    7.0050   -6.0350   23.0610 C   0  0  0  0  0  0  0  0  0  0  0  0
    6.8000   -4.6610   21.3580 C   0  0  1  0  0  0  0  0  0  0  0  0
   13.8530   -0.8740   22.8180 O   0  0  0  0  0  0  0  0  0  0  0  0
    6.1520   -5.5710   22.1010 C   0  0  0  0  0  0  0  0  0  0  0  0
    5.9810   -3.8650   20.3770 C   0  0  0  0  0  0  0  0  0  0  0  0
    6.6060   -2.6310   20.0140 O   0  0  0  0  0  0  0  0  0  0  0  0
  1  2  1  0
  3  2  1  6
  3  4  1  0
  3  5  1  0
  4  6  1  0
  5  7  2  0
  5  8  1  0
  6  9  1  0
  6 10  1  6
  7 10  1  0
  8 11  2  0
  7 12  1  0
  9 13  1  1
  9 14  1  0
 11 15  1  0
 12 15  2  0
 12 16  1  0
 13 17  1  0
 14 18  1  0
 15 19  1  0
 17 20  1  0
 18 20  1  0
 18 21  1  1
 21 22  1  0
M  END
