MAK-UNK-6ca90168-5-acrylamide
     RDKit          3D

 22 23  0  0  0  0  0  0  0  0999 V2000
    7.9210   -3.7330   20.2580 C   0  0  0  0  0  0  0  0  0  0  0  0
    6.9940   -4.7490   20.9200 C   0  0  0  0  0  0  0  0  0  0  0  0
    6.2610   -3.9840   21.9770 C   0  0  0  0  0  0  0  0  0  0  0  0
    4.9380   -4.0800   21.9680 O   0  0  0  0  0  0  0  0  0  0  0  0
    7.0420   -3.1650   22.8190 N   0  0  0  0  0  0  0  0  0  0  0  0
    6.1850   -2.2010   23.4130 C   0  0  0  0  0  0  0  0  0  0  0  0
    8.2010   -2.4130   22.2860 C   0  0  0  0  0  0  0  0  0  0  0  0
    5.4940   -1.5380   22.2170 C   0  0  0  0  0  0  0  0  0  0  0  0
    7.7250   -1.4080   21.2170 C   0  0  0  0  0  0  0  0  0  0  0  0
    6.2910   -1.6100   20.9700 N   0  0  0  0  0  0  0  0  0  0  0  0
    5.8030   -2.4950   20.0010 C   0  0  0  0  0  0  0  0  0  0  0  0
    5.1690   -3.5170   20.2260 O   0  0  0  0  0  0  0  0  0  0  0  0
    5.9770   -2.3210   18.5250 C   0  0  0  0  0  0  0  0  0  0  0  0
    5.5890   -3.2730   17.9330 O   0  0  0  0  0  0  0  0  0  0  0  0
    6.4790   -1.1740   17.7790 C   0  0  0  0  0  0  0  0  0  0  0  0
    7.5270   -1.5630   16.8510 C   0  0  0  0  0  0  0  0  0  0  0  0
    5.8780    0.0440   18.0530 C   0  0  0  0  0  0  0  0  0  0  0  0
    7.8070   -0.3000   16.2650 C   0  0  0  0  0  0  0  0  0  0  0  0
    6.2640    1.1090   17.3910 C   0  0  0  0  0  0  0  0  0  0  0  0
    4.8440    0.2870   19.0040 C   0  0  0  0  0  0  0  0  0  0  0  0
    7.2480    0.9370   16.4890 C   0  0  0  0  0  0  0  0  0  0  0  0
    4.0080    0.5840   19.8030 C   0  0  0  0  0  0  0  0  0  0  0  0
  1  2  1  0
  2  3  1  0
  3  4  2  0
  3  5  1  0
  5  6  1  0
  5  7  1  0
  6  8  1  0
  7  9  1  0
  8 10  1  0
  9 10  1  0
 10 11  1  0
 11 12  2  0
 11 13  1  0
 13 14  2  0
 13 15  1  0
 15 16  2  0
 15 17  1  0
 16 18  1  0
 17 19  2  0
 17 20  1  0
 18 21  2  0
 19 21  1  0
 20 22  3  0
M  END
