MAK-UNK-8fdbca50-10-bromoalkyne
     RDKit          3D

 38 41  0  0  0  0  0  0  0  0999 V2000
    8.0560   -3.4080   19.6310 C   0  0  0  0  0  0  0  0  0  0  0  0
    6.8070   -3.1090   18.7780 C   0  0  0  0  0  0  0  0  0  0  0  0
    7.8600   -3.2650   20.9690 N   0  0  0  0  0  0  0  0  0  0  0  0
    6.5870   -2.6950   21.4300 C   0  0  0  0  0  0  0  0  0  0  0  0
    8.9510   -2.6940   21.7580 C   0  0  0  0  0  0  0  0  0  0  0  0
    6.6700   -1.1750   21.4490 C   0  0  0  0  0  0  0  0  0  0  0  0
    9.0120   -1.3020   21.6770 C   0  0  0  0  0  0  0  0  0  0  0  0
    7.9210   -0.5560   21.1920 C   0  0  0  0  0  0  0  0  0  0  0  0
    8.0760    0.8180   21.4820 C   0  0  0  0  0  0  0  0  0  0  0  0
    7.8770    1.6730   20.6170 O   0  0  0  0  0  0  0  0  0  0  0  0
    8.4910    1.1540   22.8950 N   0  0  0  0  0  0  0  0  0  0  0  0
    7.4800    1.9300   23.6890 C   0  0  0  0  0  0  0  0  0  0  0  0
    9.9230    1.5280   23.1250 C   0  0  1  0  0  0  0  0  0  0  0  0
   10.0050    2.1580   24.3780 C   0  0  0  0  0  0  0  0  0  0  0  0
   10.7370    0.2390   23.1460 C   0  0  0  0  0  0  0  0  0  0  0  0
   11.9280    0.3410   22.4610 N   0  0  0  0  0  0  0  0  0  0  0  0
   10.3000   -0.9180   23.7820 C   0  0  0  0  0  0  0  0  0  0  0  0
   12.6950   -0.7990   22.3880 C   0  0  0  0  0  0  0  0  0  0  0  0
   11.1030   -2.0260   23.6630 C   0  0  0  0  0  0  0  0  0  0  0  0
    8.7970   -1.0450   24.7180 S   0  0  0  0  0  0  0  0  0  0  0  0
   12.2970   -1.9850   22.9700 C   0  0  0  0  0  0  0  0  0  0  0  0
    7.6890   -0.7260   23.8500 O   0  0  0  0  0  0  0  0  0  0  0  0
    8.9570   -0.3100   25.9550 O   0  0  0  0  0  0  0  0  0  0  0  0
    8.5930   -2.6840   25.0160 N   0  0  0  0  0  0  0  0  0  0  0  0
    8.9430   -3.7200   24.0750 C   0  0  0  0  0  0  0  0  0  0  0  0
    8.0530   -3.3780   26.1860 C   0  0  0  0  0  0  0  0  0  0  0  0
    8.7350   -5.0310   24.3860 C   0  0  0  0  0  0  0  0  0  0  0  0
    8.1470   -4.8840   25.7930 C   0  0  0  0  0  0  0  0  0  0  0  0
    7.5550   -2.8320   27.3790 C   0  0  0  0  0  0  0  0  0  0  0  0
    9.0370   -6.0470   23.5180 C   0  0  0  0  0  0  0  0  0  0  0  0
    8.1760   -1.7590   28.0070 C   0  0  0  0  0  0  0  0  0  0  0  0
    6.3950   -3.3160   28.0050 C   0  0  0  0  0  0  0  0  0  0  0  0
    8.4240   -5.6250   22.3750 N   0  0  0  0  0  0  0  0  0  0  0  0
    7.6910   -1.1860   29.1790 C   0  0  0  0  0  0  0  0  0  0  0  0
    5.8960   -2.7500   29.1820 C   0  0  0  0  0  0  0  0  0  0  0  0
    5.7080   -4.3470   27.4910 F   0  0  0  0  0  0  0  0  0  0  0  0
    7.1500   -6.1240   22.3590 C   0  0  0  0  0  0  0  0  0  0  0  0
    6.5330   -1.6660   29.7980 C   0  0  0  0  0  0  0  0  0  0  0  0
  1  2  2  3
  1  3  1  0
  3  4  1  0
  3  5  1  0
  4  6  1  0
  5  7  1  0
  6  8  1  0
  7  8  1  0
  8  9  1  0
  9 10  2  0
  9 11  1  0
 11 12  1  0
 11 13  1  0
 13 14  1  1
 13 15  1  0
 15 16  2  0
 15 17  1  0
 16 18  1  0
 17 19  2  0
 20 17  1  0
 18 21  2  0
 19 21  1  0
 20 22  2  0
 20 23  2  0
 20 24  1  0
 24 25  1  0
 24 26  1  0
 25 27  2  0
 26 28  2  0
 27 28  1  0
 26 29  1  0
 27 30  1  0
 29 31  2  0
 29 32  1  0
 30 33  1  0
 31 34  1  0
 32 35  2  0
 32 36  1  0
 33 37  1  0
 34 38  2  0
 35 38  1  0
M  END
