MAK-UNK-be5ffcbc-2
     RDKit          3D

 23 25  0  0  0  0  0  0  0  0999 V2000
    8.9840    6.6050   22.5730 C   0  0  0  0  0  0  0  0  0  0  0  0
   10.2300    6.2270   23.3390 C   0  0  0  0  0  0  0  0  0  0  0  0
   10.2880    6.3660   24.5620 O   0  0  0  0  0  0  0  0  0  0  0  0
   11.2640    5.7270   22.5860 N   0  0  0  0  0  0  0  0  0  0  0  0
   12.3760    5.0580   23.2720 C   0  0  0  0  0  0  0  0  0  0  0  0
   12.6770    3.6740   22.6760 C   0  0  0  0  0  0  0  0  0  0  0  0
   11.8130    2.4800   23.1420 C   0  0  0  0  0  0  0  0  0  0  0  0
   10.5190    2.7710   23.8560 C   0  0  0  0  0  0  0  0  0  0  0  0
   11.9160    1.0560   23.0570 C   0  0  0  0  0  0  0  0  0  0  0  0
    9.9610    1.5540   24.1220 N   0  0  0  0  0  0  0  0  0  0  0  0
   10.7610    0.5140   23.6530 C   0  0  0  0  0  0  0  0  0  0  0  0
   12.8650    0.1670   22.5270 C   0  0  0  0  0  0  0  0  0  0  0  0
   10.5220   -0.9940   23.7120 C   0  0  0  0  0  0  0  0  0  0  0  0
   12.6480   -1.2000   22.5690 C   0  0  0  0  0  0  0  0  0  0  0  0
    9.2980   -1.6870   24.3280 C   0  0  0  0  0  0  0  0  0  0  0  0
   11.5250   -1.7780   23.1360 C   0  0  0  0  0  0  0  0  0  0  0  0
   13.5520   -1.9980   22.0360 F   0  0  0  0  0  0  0  0  0  0  0  0
    9.3570   -3.1590   24.2750 N   0  0  0  0  0  0  0  0  0  0  0  0
    8.0260   -3.7220   24.0280 C   0  0  0  0  0  0  0  0  0  0  0  0
    9.9330   -3.7760   25.4950 C   0  0  0  0  0  0  0  0  0  0  0  0
    7.2090   -3.6290   25.1510 C   0  0  0  0  0  0  0  0  0  0  0  0
    9.1330   -4.7850   26.0460 C   0  0  0  0  0  0  0  0  0  0  0  0
    7.7390   -4.3750   26.3020 N   0  0  0  0  0  0  0  0  0  0  0  0
  1  2  1  0
  2  3  2  0
  2  4  1  0
  4  5  1  0
  5  6  1  0
  6  7  1  0
  7  8  2  0
  7  9  1  0
  8 10  1  0
  9 11  2  0
 10 11  1  0
  9 12  1  0
 11 13  1  0
 12 14  2  0
 13 15  1  0
 13 16  2  0
 14 16  1  0
 14 17  1  0
 15 18  1  0
 18 19  1  0
 18 20  1  0
 19 21  1  0
 20 22  1  0
 21 23  1  0
 22 23  1  0
M  END
