MAK-UNK-9e4a73aa-9
     RDKit          3D

 26 29  0  0  0  0  0  0  0  0999 V2000
   10.7470   -5.0530   25.9440 F   0  0  0  0  0  0  0  0  0  0  0  0
   10.1430   -3.9790   25.4550 C   0  0  0  0  0  0  0  0  0  0  0  0
   10.7230   -3.2640   24.2720 C   0  0  0  0  0  0  0  0  0  0  0  0
    8.9860   -3.5050   26.0060 C   0  0  0  0  0  0  0  0  0  0  0  0
   10.0320   -2.0800   23.7460 C   0  0  0  0  0  0  0  0  0  0  0  0
    8.3540   -2.3540   25.4990 C   0  0  0  0  0  0  0  0  0  0  0  0
    8.2100   -4.3070   27.3930 Cl  0  0  0  0  0  0  0  0  0  0  0  0
   10.4360   -1.3860   22.6420 C   0  0  0  0  0  0  0  0  0  0  0  0
    8.8620   -1.6210   24.3770 C   0  0  0  0  0  0  0  0  0  0  0  0
   12.1130   -1.4620   22.2880 S   0  0  0  0  0  0  0  0  0  0  0  0
    9.4420   -0.7880   21.9740 N   0  0  0  0  0  0  0  0  0  0  0  0
    8.2580   -0.4980   23.8850 N   0  0  0  0  0  0  0  0  0  0  0  0
    8.4940   -1.7050   21.8690 C   0  0  0  0  0  0  0  0  0  0  0  0
    8.7570    0.1170   22.6210 C   0  0  0  0  0  0  0  0  0  0  0  0
    7.2790    0.1180   24.8140 C   0  0  0  0  0  0  0  0  0  0  0  0
    8.6510   -2.9610   22.4550 C   0  0  0  0  0  0  0  0  0  0  0  0
    7.3060   -1.4460   21.2100 C   0  0  0  0  0  0  0  0  0  0  0  0
    8.4590    1.7150   22.0710 S   0  0  0  0  0  0  0  0  0  0  0  0
    6.4730   -0.7250   25.6070 C   0  0  0  0  0  0  0  0  0  0  0  0
    7.1510    1.5150   24.9090 C   0  0  0  0  0  0  0  0  0  0  0  0
    7.6400   -3.9160   22.3950 C   0  0  0  0  0  0  0  0  0  0  0  0
    6.2280   -2.4280   21.1250 N   0  0  0  0  0  0  0  0  0  0  0  0
    5.4800   -0.1450   26.5620 C   0  0  0  0  0  0  0  0  0  0  0  0
    6.2120    2.0050   25.8160 C   0  0  0  0  0  0  0  0  0  0  0  0
    6.4420   -3.6400   21.7390 C   0  0  0  0  0  0  0  0  0  0  0  0
    5.4230    1.1830   26.5970 C   0  0  0  0  0  0  0  0  0  0  0  0
  1  2  1  0
  2  3  2  0
  2  4  1  0
  3  5  1  0
  4  6  2  0
  4  7  1  0
  5  8  1  0
  5  9  2  0
  6  9  1  0
  8 10  2  0
  8 11  1  0
  9 12  1  0
 11 13  1  0
 11 14  1  0
 12 14  1  0
 12 15  1  0
 13 16  2  0
 13 17  1  0
 14 18  2  0
 15 19  2  0
 15 20  1  0
 16 21  1  0
 17 22  2  0
 19 23  1  0
 20 24  2  0
 21 25  2  0
 22 25  1  0
 23 26  2  0
 24 26  1  0
M  END
