MAK-UNK-ec98eaf6-55-acrylamide
     RDKit          3D

 36 40  0  0  0  0  0  0  0  0999 V2000
    6.8830   -3.0910   18.8520 C   0  0  0  0  0  0  0  0  0  0  0  0
    5.7010   -3.6420   19.6620 C   0  0  0  0  0  0  0  0  0  0  0  0
    5.7790   -3.3330   21.1260 C   0  0  0  0  0  0  0  0  0  0  0  0
    4.8410   -3.6310   21.8600 O   0  0  0  0  0  0  0  0  0  0  0  0
    6.9210   -2.7410   21.6010 N   0  0  0  0  0  0  0  0  0  0  0  0
    7.3830   -2.7810   22.9710 C   0  0  0  0  0  0  0  0  0  0  0  0
    7.4320   -1.4310   21.1170 C   0  0  2  0  0  0  0  0  0  0  0  0
    8.2290   -1.5470   22.9960 C   0  0  1  0  0  0  0  0  0  0  0  0
    8.7610   -1.5190   21.5490 C   0  0  0  0  0  0  0  0  0  0  0  0
    6.6890   -0.3780   21.8740 C   0  0  0  0  0  0  0  0  0  0  0  0
    7.5440   -0.2240   23.0460 N   0  0  0  0  0  0  0  0  0  0  0  0
    8.4270    0.9380   23.0030 C   0  0  1  0  0  0  0  0  0  0  0  0
    7.9480    1.8710   23.9380 C   0  0  0  0  0  0  0  0  0  0  0  0
    9.8340    0.6660   23.0930 C   0  0  0  0  0  0  0  0  0  0  0  0
    7.8200    1.3670   25.2540 C   0  0  0  0  0  0  0  0  0  0  0  0
   10.6710    1.7830   22.8900 C   0  0  0  0  0  0  0  0  0  0  0  0
   10.4830   -0.6000   23.3690 C   0  0  0  0  0  0  0  0  0  0  0  0
    8.2140    0.0250   25.3660 C   0  0  0  0  0  0  0  0  0  0  0  0
   12.1730    1.7090   22.9550 C   0  0  0  0  0  0  0  0  0  0  0  0
   11.8540   -0.7620   23.4560 C   0  0  0  0  0  0  0  0  0  0  0  0
    9.9910   -1.8800   23.6080 N   0  0  0  0  0  0  0  0  0  0  0  0
    7.2890   -1.1590   25.4610 C   0  0  0  0  0  0  0  0  0  0  0  0
    9.5800   -0.3230   25.4040 C   0  0  0  0  0  0  0  0  0  0  0  0
   12.7810    0.3910   23.2480 C   0  0  0  0  0  0  0  0  0  0  0  0
   12.1860   -2.1780   23.7740 C   0  0  0  0  0  0  0  0  0  0  0  0
   10.9840   -2.8120   23.8480 C   0  0  0  0  0  0  0  0  0  0  0  0
    7.8630   -2.5360   25.5810 C   0  0  0  0  0  0  0  0  0  0  0  0
   10.0230   -1.6590   25.5200 C   0  0  0  0  0  0  0  0  0  0  0  0
   13.6020   -2.6560   23.9540 C   0  0  0  0  0  0  0  0  0  0  0  0
    9.1710   -2.7880   25.6120 C   0  0  0  0  0  0  0  0  0  0  0  0
   13.9120   -3.1770   25.3640 C   0  0  0  0  0  0  0  0  0  0  0  0
    9.6430   -4.2360   25.7460 C   0  0  0  0  0  0  0  0  0  0  0  0
   14.9270   -4.2530   25.5820 N   0  0  0  0  0  0  0  0  0  0  0  0
   15.9410   -4.7140   24.7320 C   0  0  0  0  0  0  0  0  0  0  0  0
   16.9670   -5.6570   25.3190 C   0  0  0  0  0  0  0  0  0  0  0  0
   16.0220   -4.4530   23.5650 O   0  0  0  0  0  0  0  0  0  0  0  0
  1  2  1  0
  2  3  1  0
  3  4  2  0
  3  5  1  0
  5  6  1  0
  5  7  1  0
  8  6  1  6
  7  9  1  0
  8  9  1  0
  7 10  1  1
  8 11  1  0
 10 11  1  0
 11 12  1  0
 12 13  1  1
 12 14  1  0
 13 15  1  0
 14 16  1  0
 14 17  2  0
 15 18  1  0
 16 19  2  0
 17 20  1  0
 17 21  1  0
 18 22  2  0
 18 23  1  0
 19 24  1  0
 20 24  2  0
 20 25  1  0
 21 26  1  0
 25 26  2  0
 22 27  1  0
 23 28  2  0
 25 29  1  0
 27 30  2  0
 28 30  1  0
 29 31  1  0
 30 32  1  0
 31 33  1  0
 33 34  1  0
 34 35  1  0
 34 36  2  0
M  END
