MAK-UNK-9955b1f3-8-chloroacetamide
     RDKit          3D

 16 16  0  0  0  0  0  0  0  0999 V2000
    7.8010   -2.7560   18.9690 C   0  0  0  0  0  0  0  0  0  0  0  0
    7.0230   -3.0550   20.1400 C   0  0  0  0  0  0  0  0  0  0  0  0
    5.9510   -3.7370   19.8270 O   0  0  0  0  0  0  0  0  0  0  0  0
    7.5710   -2.7580   21.5810 C   0  0  0  0  0  0  0  0  0  0  0  0
    7.2030   -1.7440   22.5190 C   0  0  0  0  0  0  0  0  0  0  0  0
    8.4940   -3.6790   21.8890 N   0  0  0  0  0  0  0  0  0  0  0  0
    7.7640   -1.7820   23.7730 C   0  0  0  0  0  0  0  0  0  0  0  0
    9.0320   -3.7100   23.1010 C   0  0  0  0  0  0  0  0  0  0  0  0
    8.7240   -2.8580   24.1060 C   0  0  0  0  0  0  0  0  0  0  0  0
    9.3540   -3.1180   25.4290 C   0  0  0  0  0  0  0  0  0  0  0  0
    9.9340   -4.5070   25.4400 C   0  0  0  0  0  0  0  0  0  0  0  0
   11.1640   -4.6080   26.0250 N   0  0  0  0  0  0  0  0  0  0  0  0
    9.2150   -5.5860   24.8790 C   0  0  0  0  0  0  0  0  0  0  0  0
    7.9440   -5.4810   24.3100 C   0  0  0  0  0  0  0  0  0  0  0  0
    6.8860   -5.3890   25.2060 C   0  0  0  0  0  0  0  0  0  0  0  0
    7.0740   -4.9370   26.4540 C   0  0  0  0  0  0  0  0  0  0  0  0
  1  2  1  0
  2  3  2  0
  2  4  1  0
  4  5  2  0
  4  6  1  0
  5  7  1  0
  6  8  2  0
  7  9  2  0
  8  9  1  0
  9 10  1  0
 10 11  1  0
 11 12  1  0
 11 13  2  3
 13 14  1  0
 14 15  1  0
 15 16  2  3
M  END
