MAK-UNK-ec98eaf6-39-nitrile
     RDKit          3D

 20 23  0  0  0  0  0  0  0  0999 V2000
    6.9210   -3.5410   20.0380 C   0  0  0  0  0  0  0  0  0  0  0  0
    5.7630   -3.6010   19.4920 N   0  0  0  0  0  0  0  0  0  0  0  0
    7.1560   -3.2780   21.4170 N   0  0  0  0  0  0  0  0  0  0  0  0
    8.4320   -3.3810   22.1410 C   0  0  0  0  0  0  0  0  0  0  0  0
    6.4480   -2.3220   22.2870 C   0  0  1  0  0  0  0  0  0  0  0  0
    8.6490   -1.9970   22.8390 C   0  0  1  0  0  0  0  0  0  0  0  0
    7.2550   -2.2120   23.5340 C   0  0  0  0  0  0  0  0  0  0  0  0
    6.8810   -1.0240   21.7990 C   0  0  0  0  0  0  0  0  0  0  0  0
   10.1190   -1.5540   23.2690 C   0  0  0  0  0  0  0  0  0  0  0  0
    5.8440   -0.2190   21.0840 C   0  0  0  0  0  0  0  0  0  0  0  0
    8.1580   -0.7740   22.0910 C   0  0  0  0  0  0  0  0  0  0  0  0
   10.4910   -0.9590   24.5930 C   0  0  0  0  0  0  0  0  0  0  0  0
   11.1550   -1.6940   22.3240 C   0  0  0  0  0  0  0  0  0  0  0  0
    6.5600    1.0600   20.7250 C   0  0  0  0  0  0  0  0  0  0  0  0
    8.7090    0.4450   21.7000 C   0  0  0  0  0  0  0  0  0  0  0  0
   11.8360   -0.5910   24.7850 C   0  0  0  0  0  0  0  0  0  0  0  0
   12.4660   -1.3030   22.5670 C   0  0  0  0  0  0  0  0  0  0  0  0
    7.8860    1.3650   21.0140 C   0  0  0  0  0  0  0  0  0  0  0  0
   12.7930   -0.7560   23.7900 C   0  0  0  0  0  0  0  0  0  0  0  0
   13.4390   -1.4650   21.5800 N   0  0  0  0  0  0  0  0  0  0  0  0
  1  2  2  3
  1  3  1  0
  3  4  1  0
  5  3  1  6
  4  6  1  0
  5  7  1  0
  6  7  1  0
  5  8  1  0
  6  9  1  1
  8 10  2  0
  6 11  1  0
  8 11  1  0
  9 12  2  0
  9 13  1  0
 10 14  1  0
 11 15  2  0
 12 16  1  0
 13 17  2  0
 14 18  2  0
 15 18  1  0
 16 19  2  0
 17 19  1  0
 17 20  1  0
M  END
