MAK-UNK-702fb7d3-8-acrylamide
     RDKit          3D

 43 48  0  0  0  0  0  0  0  0999 V2000
    7.8400   -5.1570   21.1390 C   0  0  0  0  0  0  0  0  0  0  0  0
    6.4840   -5.5050   21.6750 C   0  0  0  0  0  0  0  0  0  0  0  0
    5.9780   -4.3150   22.3970 C   0  0  0  0  0  0  0  0  0  0  0  0
    4.8380   -3.8680   22.0170 O   0  0  0  0  0  0  0  0  0  0  0  0
    6.7960   -3.7800   23.4800 N   0  0  0  0  0  0  0  0  0  0  0  0
    8.3420   -3.7090   23.6660 C   0  0  0  0  0  0  0  0  0  0  0  0
    6.0540   -3.0040   24.4730 C   0  0  0  0  0  0  0  0  0  0  0  0
    8.5770   -2.3360   24.3200 C   0  0  0  0  0  0  0  0  0  0  0  0
    6.3000   -1.4920   24.3270 C   0  0  2  0  0  0  0  0  0  0  0  0
   10.1340   -2.3030   24.6060 C   0  0  0  0  0  0  0  0  0  0  0  0
    7.6650   -1.3150   24.6150 C   0  0  0  0  0  0  0  0  0  0  0  0
    5.4490   -0.8890   25.4320 C   0  0  0  0  0  0  0  0  0  0  0  0
   11.1810   -3.2510   24.3930 N   0  0  0  0  0  0  0  0  0  0  0  0
   10.4680   -1.0660   25.1850 C   0  0  0  0  0  0  0  0  0  0  0  0
    8.1690   -0.1670   25.1900 C   0  0  0  0  0  0  0  0  0  0  0  0
    5.6320   -1.3340   26.7450 C   0  0  0  0  0  0  0  0  0  0  0  0
    4.4850    0.0990   25.1780 C   0  0  0  0  0  0  0  0  0  0  0  0
   12.2510   -3.0900   25.3900 C   0  0  0  0  0  0  0  0  0  0  0  0
    9.5260   -0.0540   25.4580 C   0  0  0  0  0  0  0  0  0  0  0  0
    4.8650   -0.8030   27.7860 C   0  0  0  0  0  0  0  0  0  0  0  0
    3.7300    0.6200   26.2210 C   0  0  0  0  0  0  0  0  0  0  0  0
   13.7250   -3.8100   25.4610 C   0  0  0  0  0  0  0  0  0  0  0  0
    3.9090    0.1780   27.5290 C   0  0  0  0  0  0  0  0  0  0  0  0
   14.6900   -3.6220   24.4450 C   0  0  0  0  0  0  0  0  0  0  0  0
   14.5310   -4.7450   26.2600 C   0  0  0  0  0  0  0  0  0  0  0  0
   15.8740   -4.4010   24.5380 C   0  0  0  0  0  0  0  0  0  0  0  0
   15.8390   -5.0630   25.5820 N   0  0  0  0  0  0  0  0  0  0  0  0
   17.0090   -4.6050   23.7190 C   0  0  0  0  0  0  0  0  0  0  0  0
   17.3270   -5.9550   25.6010 S   0  0  0  0  0  0  0  0  0  0  0  0
   16.8030   -5.4170   22.5660 C   0  0  0  0  0  0  0  0  0  0  0  0
   18.3040   -4.0300   23.9760 C   0  0  0  0  0  0  0  0  0  0  0  0
   17.5230   -6.6020   26.8430 O   0  0  0  0  0  0  0  0  0  0  0  0
   17.3180   -6.7660   24.4300 O   0  0  0  0  0  0  0  0  0  0  0  0
   18.6550   -4.7430   25.2310 C   0  0  0  0  0  0  0  0  0  0  0  0
   17.9230   -5.6630   21.5440 C   0  0  0  0  0  0  0  0  0  0  0  0
   19.3520   -4.2440   23.0470 C   0  0  0  0  0  0  0  0  0  0  0  0
   18.5390   -3.2760   25.0650 F   0  0  0  0  0  0  0  0  0  0  0  0
   18.6050   -3.9730   24.0840 C   0  0  0  0  0  0  0  0  0  0  0  0
   19.8070   -4.4460   26.0280 C   0  0  0  0  0  0  0  0  0  0  0  0
   19.2540   -4.9760   21.8820 C   0  0  0  0  0  0  0  0  0  0  0  0
   19.5790   -3.0020   23.7670 C   0  0  0  0  0  0  0  0  0  0  0  0
   20.7760   -3.5080   25.7550 N   0  0  0  0  0  0  0  0  0  0  0  0
   20.6380   -2.8050   24.6310 C   0  0  0  0  0  0  0  0  0  0  0  0
  1  2  1  0
  2  3  1  0
  3  4  2  0
  3  5  1  0
  5  6  1  0
  5  7  1  0
  6  8  1  0
  7  9  1  0
  8 10  1  0
  8 11  2  0
  9 11  1  0
  9 12  1  1
 10 13  1  0
 10 14  2  0
 11 15  1  0
 12 16  2  0
 12 17  1  0
 13 18  1  0
 14 19  1  0
 15 19  2  0
 16 20  1  0
 17 21  2  0
 18 22  1  0
 20 23  2  0
 21 23  1  0
 22 24  1  0
 22 25  2  0
 24 26  2  0
 25 27  1  0
 26 27  1  0
 26 28  1  0
 27 29  1  0
 28 30  2  0
 28 31  1  0
 29 32  2  0
 29 33  2  0
 29 34  1  0
 30 35  1  0
 31 36  2  0
 31 37  1  0
 34 38  2  0
 34 39  1  0
 35 40  2  0
 36 40  1  0
 38 41  1  0
 39 42  2  0
 41 43  2  0
 42 43  1  0
M  END
