MAK-UNK-ed378e62-28
     RDKit          3D

 14 15  0  0  0  0  0  0  0  0999 V2000
    8.9110   -2.8850   22.8620 N   0  0  0  0  0  0  0  0  0  0  0  0
    8.0260   -3.6250   22.9740 C   0  0  0  0  0  0  0  0  0  0  0  0
    6.9510   -4.5270   23.1260 C   0  0  0  0  0  0  0  0  0  0  0  0
    6.6610   -5.3580   22.1540 N   0  0  0  0  0  0  0  0  0  0  0  0
    6.3120   -4.4260   24.3160 N   0  0  0  0  0  0  0  0  0  0  0  0
    5.6240   -6.2010   22.4010 C   0  0  0  0  0  0  0  0  0  0  0  0
    5.2960   -5.2690   24.5270 C   0  0  0  0  0  0  0  0  0  0  0  0
    4.9010   -6.1830   23.6180 C   0  0  0  0  0  0  0  0  0  0  0  0
    3.7470   -7.1280   23.9360 C   0  0  0  0  0  0  0  0  0  0  0  0
    2.3810   -6.7580   23.4430 C   0  0  0  0  0  0  0  0  0  0  0  0
    1.6940   -7.5110   22.4950 C   0  0  0  0  0  0  0  0  0  0  0  0
    1.4950   -5.3950   23.9880 S   0  0  0  0  0  0  0  0  0  0  0  0
    0.4400   -7.0080   22.1770 C   0  0  0  0  0  0  0  0  0  0  0  0
    0.1590   -5.8540   22.8940 C   0  0  0  0  0  0  0  0  0  0  0  0
  1  2  3  0
  2  3  1  0
  3  4  2  0
  3  5  1  0
  4  6  1  0
  5  7  2  0
  6  8  2  0
  7  8  1  0
  8  9  1  0
  9 10  1  0
 10 11  2  0
 10 12  1  0
 11 13  1  0
 12 14  1  0
 13 14  2  0
M  END
