MAK-UNK-c44f4be0-6
     RDKit          3D

 32 33  0  0  0  0  0  0  0  0999 V2000
    7.8980    4.5160   23.8790 C   0  0  0  0  0  0  0  0  0  0  0  0
    7.0920    3.2160   24.0750 C   0  0  0  0  0  0  0  0  0  0  0  0
    5.8670    3.2330   24.1570 O   0  0  0  0  0  0  0  0  0  0  0  0
    7.8160    2.0290   24.1480 N   0  0  0  0  0  0  0  0  0  0  0  0
    7.9010    1.3370   22.9620 C   0  0  2  0  0  0  0  0  0  0  0  0
    6.5430    0.8330   22.5230 C   0  0  0  0  0  0  0  0  0  0  0  0
    9.0450    0.4990   22.8650 C   0  0  0  0  0  0  0  0  0  0  0  0
    8.4040    2.5830   21.8300 S   0  0  0  0  0  0  0  0  0  0  0  0
    6.3600    0.6780   21.0330 C   0  0  0  0  0  0  0  0  0  0  0  0
   10.3180    1.1130   22.6470 O   0  0  0  0  0  0  0  0  0  0  0  0
    8.8910   -0.8580   22.9240 N   0  0  0  0  0  0  0  0  0  0  0  0
    7.4770    3.6680   21.7010 O   0  0  0  0  0  0  0  0  0  0  0  0
    8.8770    1.8260   20.7470 O   0  0  0  0  0  0  0  0  0  0  0  0
    9.8050    3.0570   22.6780 N   0  0  0  0  0  0  0  0  0  0  0  0
    5.3360    1.6710   20.5060 C   0  0  0  0  0  0  0  0  0  0  0  0
    7.0430   -0.2450   20.2520 C   0  0  0  0  0  0  0  0  0  0  0  0
    9.6820   -1.8730   22.2850 C   0  0  0  0  0  0  0  0  0  0  0  0
   10.3520    4.4220   22.6610 C   0  0  0  0  0  0  0  0  0  0  0  0
    5.0440    1.6490   19.0150 C   0  0  0  0  0  0  0  0  0  0  0  0
    6.8330   -0.3270   18.9010 C   0  0  0  0  0  0  0  0  0  0  0  0
   11.0390   -1.5820   22.0580 C   0  0  0  0  0  0  0  0  0  0  0  0
   11.0190    4.7720   23.9770 C   0  0  0  0  0  0  0  0  0  0  0  0
    5.8340    0.6080   18.2140 C   0  0  0  0  0  0  0  0  0  0  0  0
   12.0100   -1.8800   23.0140 C   0  0  0  0  0  0  0  0  0  0  0  0
   10.7910    6.1910   24.5240 C   0  0  0  0  0  0  0  0  0  0  0  0
    5.5740    0.6310   17.0550 O   0  0  0  0  0  0  0  0  0  0  0  0
   13.2970   -2.3050   24.3410 Br  0  0  0  0  0  0  0  0  0  0  0  0
    9.7120    7.0490   24.1650 C   0  0  0  0  0  0  0  0  0  0  0  0
   11.7490    6.5850   25.4230 C   0  0  0  0  0  0  0  0  0  0  0  0
    9.6130    8.3470   24.7450 C   0  0  0  0  0  0  0  0  0  0  0  0
   11.6650    7.8570   25.9980 C   0  0  0  0  0  0  0  0  0  0  0  0
   10.6270    8.7380   25.6810 C   0  0  0  0  0  0  0  0  0  0  0  0
  1  2  1  0
  2  3  2  0
  2  4  1  0
  4  5  1  0
  5  6  1  6
  5  7  1  0
  5  8  1  0
  6  9  1  0
  7 10  2  0
  7 11  1  0
  8 12  2  0
  8 13  2  0
  8 14  1  0
  9 15  2  0
  9 16  1  0
 11 17  1  0
 14 18  1  0
 15 19  1  0
 16 20  2  0
 17 21  1  0
 18 22  1  0
 19 23  2  0
 20 23  1  0
 21 24  3  0
 22 25  1  0
 23 26  1  0
 24 27  1  0
 25 28  2  0
 25 29  1  0
 28 30  1  0
 29 31  2  0
 30 32  2  0
 31 32  1  0
M  END
