MAK-UNK-5d2caa6f-16-bromoalkyne
     RDKit          3D

 19 21  0  0  0  0  0  0  0  0999 V2000
    7.2950   -4.2650   20.2300 C   0  0  0  0  0  0  0  0  0  0  0  0
    6.0050   -5.0810   20.0870 C   0  0  0  0  0  0  0  0  0  0  0  0
    7.3890   -3.1350   21.0070 N   0  0  0  0  0  0  0  0  0  0  0  0
    8.4860   -2.6670   21.7300 C   0  0  0  0  0  0  0  0  0  0  0  0
    6.3330   -2.3770   21.3880 C   0  0  2  0  0  0  0  0  0  0  0  0
    7.9690   -1.2740   21.8470 C   0  0  1  0  0  0  0  0  0  0  0  0
    6.8260   -1.1850   20.8300 C   0  0  0  0  0  0  0  0  0  0  0  0
    6.4950   -2.4840   22.7540 C   0  0  0  0  0  0  0  0  0  0  0  0
    7.1150   -1.2450   23.1510 C   0  0  1  0  0  0  0  0  0  0  0  0
    7.8780   -1.3620   24.5050 C   0  0  0  0  0  0  0  0  0  0  0  0
    7.3950   -2.2780   25.3790 O   0  0  0  0  0  0  0  0  0  0  0  0
    8.9780   -0.5650   24.8520 N   0  0  0  0  0  0  0  0  0  0  0  0
   10.1280   -0.6590   24.0950 C   0  0  0  0  0  0  0  0  0  0  0  0
   10.2620   -1.8440   23.4200 C   0  0  0  0  0  0  0  0  0  0  0  0
   11.1310    0.3680   23.9600 C   0  0  0  0  0  0  0  0  0  0  0  0
   11.3940   -2.0550   22.5340 C   0  0  0  0  0  0  0  0  0  0  0  0
   12.2480    0.2010   23.1200 C   0  0  0  0  0  0  0  0  0  0  0  0
   12.3500   -1.1230   22.3440 C   0  0  0  0  0  0  0  0  0  0  0  0
   13.5310   -1.5300   21.2510 Cl  0  0  0  0  0  0  0  0  0  0  0  0
  1  2  2  3
  1  3  1  0
  3  4  1  0
  3  5  1  0
  6  4  1  6
  5  7  1  0
  6  7  1  0
  5  8  1  1
  6  9  1  0
  8  9  1  0
  9 10  1  1
 10 11  2  0
 10 12  1  0
 12 13  1  0
 13 14  2  0
 13 15  1  0
 14 16  1  0
 15 17  2  0
 16 18  2  0
 17 18  1  0
 18 19  1  0
M  END
