MAK-UNK-ed378e62-13
     RDKit          3D

 15 16  0  0  0  0  0  0  0  0999 V2000
    8.9960   -2.7910   23.6870 N   0  0  0  0  0  0  0  0  0  0  0  0
    8.1570   -3.5640   23.4930 C   0  0  0  0  0  0  0  0  0  0  0  0
    7.1210   -4.4960   23.2480 C   0  0  0  0  0  0  0  0  0  0  0  0
    7.0940   -5.1280   22.1050 N   0  0  0  0  0  0  0  0  0  0  0  0
    6.2380   -4.6260   24.2680 N   0  0  0  0  0  0  0  0  0  0  0  0
    6.0620   -5.9800   21.9660 C   0  0  0  0  0  0  0  0  0  0  0  0
    5.2240   -5.4880   24.1040 C   0  0  0  0  0  0  0  0  0  0  0  0
    5.0800   -6.2070   22.9450 C   0  0  0  0  0  0  0  0  0  0  0  0
    4.4240   -5.6070   25.0280 O   0  0  0  0  0  0  0  0  0  0  0  0
    4.7490   -5.9740   26.2970 C   0  0  0  0  0  0  0  0  0  0  0  0
    4.2400   -7.0770   26.9680 C   0  0  0  0  0  0  0  0  0  0  0  0
    5.6370   -5.1770   26.9430 N   0  0  0  0  0  0  0  0  0  0  0  0
    4.6750   -7.2980   28.2750 C   0  0  0  0  0  0  0  0  0  0  0  0
    5.9960   -5.4890   28.2170 C   0  0  0  0  0  0  0  0  0  0  0  0
    5.5540   -6.5230   28.9350 N   0  0  0  0  0  0  0  0  0  0  0  0
  1  2  3  0
  2  3  1  0
  3  4  2  0
  3  5  1  0
  4  6  1  0
  5  7  2  0
  6  8  2  0
  7  8  1  0
  7  9  1  0
  9 10  1  0
 10 11  2  0
 10 12  1  0
 11 13  1  0
 12 14  2  0
 13 15  2  0
 14 15  1  0
M  END
