MAK-UNK-be3f299e-7
     RDKit          3D

 11 11  0  0  0  0  0  0  0  0999 V2000
   12.6460   -0.5920   25.2620 C   0  0  0  0  0  0  0  0  0  0  0  0
   11.3800   -0.0380   24.7960 C   0  0  0  0  0  0  0  0  0  0  0  0
   10.1000   -0.0890   25.6890 C   0  0  0  0  0  0  0  0  0  0  0  0
   11.5250    1.2890   24.0980 C   0  0  0  0  0  0  0  0  0  0  0  0
   11.2440   -0.9110   23.7960 N   0  0  0  0  0  0  0  0  0  0  0  0
   11.6000    2.2960   23.5190 N   0  0  0  0  0  0  0  0  0  0  0  0
   11.9910   -0.5500   22.6150 C   0  0  0  0  0  0  0  0  0  0  0  0
    9.8750   -1.2090   23.5620 C   0  0  0  0  0  0  0  0  0  0  0  0
   12.2060   -1.8350   21.8540 C   0  0  0  0  0  0  0  0  0  0  0  0
    9.9060   -2.2090   22.4310 C   0  0  0  0  0  0  0  0  0  0  0  0
   11.2260   -2.7750   22.3120 O   0  0  0  0  0  0  0  0  0  0  0  0
  1  2  1  0
  2  3  1  0
  2  4  1  0
  2  5  1  0
  4  6  3  0
  5  7  1  0
  5  8  1  0
  7  9  1  0
  8 10  1  0
  9 11  1  0
 10 11  1  0
M  END
