MAK-UNK-9955b1f3-1-nitrile
     RDKit          3D

 37 41  0  0  0  0  0  0  0  0999 V2000
    8.3930   -3.4300   19.8020 C   0  0  0  0  0  0  0  0  0  0  0  0
    7.0760   -3.4310   19.5570 N   0  0  0  0  0  0  0  0  0  0  0  0
    9.0860   -2.5110   21.0800 C   0  0  0  0  0  0  0  0  0  0  0  0
   10.6750   -2.1740   21.4710 C   0  0  0  0  0  0  0  0  0  0  0  0
    8.1790   -1.9050   21.9650 C   0  0  0  0  0  0  0  0  0  0  0  0
   10.9830   -1.2240   22.7270 C   0  0  0  0  0  0  0  0  0  0  0  0
    8.4760   -1.0890   23.0600 C   0  0  0  0  0  0  0  0  0  0  0  0
    9.7420   -0.7380   23.4500 C   0  0  0  0  0  0  0  0  0  0  0  0
   10.0280    0.1800   24.6530 C   0  0  0  0  0  0  0  0  0  0  0  0
    8.5890    0.5610   24.9440 N   0  0  0  0  0  0  0  0  0  0  0  0
    7.6830    1.3600   24.0800 C   0  0  0  0  0  0  0  0  0  0  0  0
    8.4820    2.4720   23.3820 C   0  0  0  0  0  0  0  0  0  0  0  0
    6.2990    1.1270   23.9620 N   0  0  0  0  0  0  0  0  0  0  0  0
    9.9830    2.6400   23.5470 C   0  0  0  0  0  0  0  0  0  0  0  0
    7.9160    3.4410   22.5600 N   0  0  0  0  0  0  0  0  0  0  0  0
    5.5730    1.6440   22.7730 C   0  0  0  0  0  0  0  0  0  0  0  0
    5.4540    0.9600   25.1680 C   0  0  0  0  0  0  0  0  0  0  0  0
   10.4660    3.9470   23.5500 C   0  0  0  0  0  0  0  0  0  0  0  0
    8.2680    4.7410   22.9030 C   0  0  0  0  0  0  0  0  0  0  0  0
    4.3680    1.0120   22.5550 C   0  0  0  0  0  0  0  0  0  0  0  0
    4.2780    0.2570   24.7940 C   0  0  0  0  0  0  0  0  0  0  0  0
    9.5620    5.0060   23.4250 C   0  0  0  0  0  0  0  0  0  0  0  0
    3.5660    0.9070   23.7350 O   0  0  0  0  0  0  0  0  0  0  0  0
    9.9870    6.2560   23.8440 C   0  0  0  0  0  0  0  0  0  0  0  0
    8.8830    7.0360   24.4610 N   0  0  0  0  0  0  0  0  0  0  0  0
   11.4180    6.7080   23.7120 C   0  0  0  0  0  0  0  0  0  0  0  0
    9.4840    8.2790   24.9110 C   0  0  0  0  0  0  0  0  0  0  0  0
   11.8450    7.5380   24.7570 C   0  0  0  0  0  0  0  0  0  0  0  0
   10.8300    8.0610   25.5980 C   0  0  1  0  0  0  0  0  0  0  0  0
   11.3170    9.3030   26.2760 C   0  0  0  0  0  0  0  0  0  0  0  0
   11.1360   10.6580   25.6960 C   0  0  0  0  0  0  0  0  0  0  0  0
   11.9770    9.2460   27.5120 C   0  0  0  0  0  0  0  0  0  0  0  0
   11.6790   11.8350   26.4880 C   0  0  0  0  0  0  0  0  0  0  0  0
   12.4580   10.3340   28.2110 N   0  0  0  0  0  0  0  0  0  0  0  0
   12.3240   11.6300   27.7260 C   0  0  0  0  0  0  0  0  0  0  0  0
   12.8470   12.6610   28.5090 C   0  0  0  0  0  0  0  0  0  0  0  0
   13.9380   12.4170   29.3560 N   0  0  0  0  0  0  0  0  0  0  0  0
  1  2  2  3
  1  3  1  0
  3  4  2  0
  3  5  1  0
  4  6  1  0
  5  7  2  0
  6  8  2  0
  7  8  1  0
  8  9  1  0
  9 10  1  0
 10 11  1  0
 11 12  2  3
 11 13  1  0
 12 14  1  0
 12 15  1  0
 13 16  1  0
 13 17  1  0
 14 18  2  0
 15 19  1  0
 16 20  1  0
 17 21  1  0
 18 22  1  0
 19 22  2  0
 20 23  1  0
 21 23  1  0
 22 24  1  0
 24 25  2  0
 24 26  1  0
 25 27  1  0
 26 28  1  0
 27 29  1  0
 28 29  1  0
 29 30  1  6
 30 31  2  0
 30 32  1  0
 31 33  1  0
 32 34  2  0
 33 35  2  0
 34 35  1  0
 35 36  1  0
 36 37  3  0
M  END
