MAK-UNK-e05327b2-1-chloroacetamide
     RDKit          3D

 51 57  0  0  0  0  0  0  0  0999 V2000
    7.1030   -3.4610   20.0100 C   0  0  0  0  0  0  0  0  0  0  0  0
    6.2640   -4.5960   20.5980 C   0  0  0  0  0  0  0  0  0  0  0  0
    5.3020   -5.0020   19.9760 O   0  0  0  0  0  0  0  0  0  0  0  0
    6.5450   -5.1810   21.8040 N   0  0  0  0  0  0  0  0  0  0  0  0
    5.7890   -6.3730   22.1820 C   0  0  0  0  0  0  0  0  0  0  0  0
    7.3170   -4.5660   22.8880 C   0  0  0  0  0  0  0  0  0  0  0  0
    4.7720   -5.8450   23.2360 C   0  0  0  0  0  0  0  0  0  0  0  0
    6.4800   -4.1750   23.9550 C   0  0  0  0  0  0  0  0  0  0  0  0
    5.6050   -5.3070   24.3410 N   0  0  0  0  0  0  0  0  0  0  0  0
    4.9340   -5.3460   25.8890 S   0  0  0  0  0  0  0  0  0  0  0  0
    6.0050   -5.2410   26.8500 O   0  0  0  0  0  0  0  0  0  0  0  0
    3.9810   -6.4330   25.9340 O   0  0  0  0  0  0  0  0  0  0  0  0
    4.0130   -3.8320   25.9720 C   0  0  0  0  0  0  0  0  0  0  0  0
    4.6470   -2.4410   26.0840 C   0  0  0  0  0  0  0  0  0  0  0  0
    2.2940   -3.8220   25.9360 S   0  0  0  0  0  0  0  0  0  0  0  0
    3.5190   -1.4080   26.1380 C   0  0  0  0  0  0  0  0  0  0  0  0
    2.1590   -2.1040   26.0660 C   0  0  0  0  0  0  0  0  0  0  0  0
    0.8130   -1.3660   26.1040 C   0  0  0  0  0  0  0  0  0  0  0  0
    0.5990   -0.5100   27.0940 N   0  0  0  0  0  0  0  0  0  0  0  0
    0.7560    0.7810   26.6380 C   0  0  0  0  0  0  0  0  0  0  0  0
    1.3590   -0.7120   28.3410 C   0  0  0  0  0  0  0  0  0  0  0  0
    0.3120    1.7190   27.5800 C   0  0  0  0  0  0  0  0  0  0  0  0
    2.1290    0.5040   28.8100 C   0  0  0  0  0  0  0  0  0  0  0  0
    1.3500    1.7800   28.6280 N   0  0  0  0  0  0  0  0  0  0  0  0
    2.2380    3.2400   28.7630 S   0  0  0  0  0  0  0  0  0  0  0  0
    3.4150    2.9140   29.5420 O   0  0  0  0  0  0  0  0  0  0  0  0
    2.3240    3.8380   27.4510 O   0  0  0  0  0  0  0  0  0  0  0  0
    1.2100    4.3320   29.7340 C   0  0  0  0  0  0  0  0  0  0  0  0
    0.1450    3.7480   30.4150 C   0  0  0  0  0  0  0  0  0  0  0  0
    1.4840    5.7490   29.7980 C   0  0  0  0  0  0  0  0  0  0  0  0
   -0.7440    4.6290   31.2420 C   0  0  0  0  0  0  0  0  0  0  0  0
    0.6450    6.5940   30.5820 C   0  0  0  0  0  0  0  0  0  0  0  0
    2.5390    6.3850   29.1330 C   0  0  0  0  0  0  0  0  0  0  0  0
   -0.4380    6.0810   31.2890 C   0  0  0  0  0  0  0  0  0  0  0  0
    0.9230    8.0900   30.6600 C   0  0  0  0  0  0  0  0  0  0  0  0
    2.8270    7.7740   29.1820 C   0  0  0  0  0  0  0  0  0  0  0  0
    2.0000    8.6540   29.9660 C   0  0  0  0  0  0  0  0  0  0  0  0
    3.9270    8.2080   28.4410 C   0  0  0  0  0  0  0  0  0  0  0  0
    2.2330   10.0270   30.0550 C   0  0  0  0  0  0  0  0  0  0  0  0
    3.5830    8.7530   27.2040 C   0  0  0  0  0  0  0  0  0  0  0  0
    1.2110   10.7330   29.4220 C   0  0  0  0  0  0  0  0  0  0  0  0
    2.3330    8.7540   26.5920 C   0  0  0  0  0  0  0  0  0  0  0  0
    4.7770    9.5320   26.2630 S   0  0  0  0  0  0  0  0  0  0  0  0
    1.7340   11.8650   28.7820 C   0  0  0  0  0  0  0  0  0  0  0  0
    2.3580    9.3870   25.3650 C   0  0  0  0  0  0  0  0  0  0  0  0
    3.6260    9.8740   25.0310 C   0  0  0  0  0  0  0  0  0  0  0  0
    2.3140   11.8720   27.5230 C   0  0  0  0  0  0  0  0  0  0  0  0
    1.7560   13.4800   29.4410 S   0  0  0  0  0  0  0  0  0  0  0  0
    2.7480   13.1090   27.1200 C   0  0  0  0  0  0  0  0  0  0  0  0
    2.5190   14.1140   28.0560 C   0  0  0  0  0  0  0  0  0  0  0  0
    2.9090   15.7810   27.9440 Cl  0  0  0  0  0  0  0  0  0  0  0  0
  1  2  1  0
  2  3  2  0
  2  4  1  0
  4  5  1  0
  4  6  1  0
  5  7  1  0
  6  8  1  0
  7  9  1  0
  8  9  1  0
  9 10  1  0
 10 11  2  0
 10 12  2  0
 10 13  1  0
 13 14  2  0
 13 15  1  0
 14 16  1  0
 15 17  1  0
 16 17  2  0
 17 18  1  0
 18 19  1  0
 19 20  1  0
 19 21  1  0
 20 22  1  0
 21 23  1  0
 22 24  1  0
 23 24  1  0
 24 25  1  0
 25 26  2  0
 25 27  2  0
 25 28  1  0
 28 29  2  0
 28 30  1  0
 29 31  1  0
 30 32  2  0
 30 33  1  0
 31 34  2  0
 32 34  1  0
 32 35  1  0
 33 36  2  0
 35 37  2  0
 36 37  1  0
 36 38  1  0
 37 39  1  0
 38 40  1  0
 39 41  1  0
 40 42  2  0
 40 43  1  0
 41 44  1  0
 42 45  1  0
 43 46  1  0
 45 46  2  0
 44 47  2  0
 44 48  1  0
 47 49  1  0
 48 50  1  0
 49 50  2  0
 50 51  1  0
M  END
