MAK-UNK-849bee6c-9-vinylsulfonamide
     RDKit          3D

 28 30  0  0  0  0  0  0  0  0999 V2000
    7.1920   -2.7930   18.2970 C   0  0  0  0  0  0  0  0  0  0  0  0
    6.2580   -2.2130   19.3330 C   0  0  0  0  0  0  0  0  0  0  0  0
    5.6910   -3.3980   20.5070 S   0  0  0  0  0  0  0  0  0  0  0  0
    4.6420   -2.9180   21.3270 O   0  0  0  0  0  0  0  0  0  0  0  0
    5.5910   -4.7220   19.9270 O   0  0  0  0  0  0  0  0  0  0  0  0
    6.9170   -3.1390   21.5570 N   0  0  0  0  0  0  0  0  0  0  0  0
    7.3500   -1.7660   21.4160 C   0  0  0  0  0  0  0  0  0  0  0  0
    6.5550   -3.4960   22.9050 C   0  0  0  0  0  0  0  0  0  0  0  0
    8.4250   -1.4450   22.4090 C   0  0  0  0  0  0  0  0  0  0  0  0
    7.7160   -3.2090   23.8490 C   0  0  0  0  0  0  0  0  0  0  0  0
    8.7730   -2.6040   23.2240 N   0  0  0  0  0  0  0  0  0  0  0  0
    9.8940   -2.4810   24.0680 C   0  0  0  0  0  0  0  0  0  0  0  0
   10.8270   -1.4010   23.6450 C   0  0  0  0  0  0  0  0  0  0  0  0
   12.2700   -1.6890   23.3430 C   0  0  0  0  0  0  0  0  0  0  0  0
   10.3440   -0.0790   23.5180 C   0  0  0  0  0  0  0  0  0  0  0  0
   13.0470   -0.5220   22.9440 C   0  0  0  0  0  0  0  0  0  0  0  0
   11.1510    1.0020   23.1210 C   0  0  0  0  0  0  0  0  0  0  0  0
   12.4840    0.7390   22.8550 C   0  0  0  0  0  0  0  0  0  0  0  0
   10.6000    2.2870   23.0120 C   0  0  0  0  0  0  0  0  0  0  0  0
   11.4390    3.4930   23.0850 C   0  0  0  0  0  0  0  0  0  0  0  0
   11.0890    4.4610   24.0320 C   0  0  0  0  0  0  0  0  0  0  0  0
   11.7890    5.6470   24.2530 C   0  0  0  0  0  0  0  0  0  0  0  0
    9.8560    4.3010   24.9540 C   0  0  0  0  0  0  0  0  0  0  0  0
   11.3570    6.5810   25.2500 N   0  0  0  0  0  0  0  0  0  0  0  0
    9.4310    5.2350   25.9490 N   0  0  0  0  0  0  0  0  0  0  0  0
   10.2750    6.3960   26.0340 C   0  0  0  0  0  0  0  0  0  0  0  0
    9.7040    7.2810   27.1250 C   0  0  0  0  0  0  0  0  0  0  0  0
    9.1680    8.5300   26.9440 N   0  0  0  0  0  0  0  0  0  0  0  0
  1  2  1  0
  3  2  1  0
  3  4  2  0
  3  5  2  0
  3  6  1  0
  6  7  1  0
  6  8  1  0
  7  9  1  0
  8 10  1  0
  9 11  1  0
 10 11  1  0
 11 12  1  0
 12 13  1  0
 13 14  2  0
 13 15  1  0
 14 16  1  0
 15 17  2  0
 16 18  2  0
 17 18  1  0
 17 19  1  0
 19 20  1  0
 20 21  1  0
 21 22  2  0
 21 23  1  0
 22 24  1  0
 23 25  2  0
 24 26  2  0
 25 26  1  0
 26 27  1  0
 27 28  3  0
M  END
