MAK-UNK-f983951f-11-vinylsulfonamide
     RDKit          3D

 16 16  0  0  0  0  0  0  0  0999 V2000
    6.2470   -4.3160   19.9280 C   0  0  0  0  0  0  0  0  0  0  0  0
    6.2130   -4.0260   21.3830 C   0  0  0  0  0  0  0  0  0  0  0  0
    5.8510   -5.4960   22.2060 S   0  0  0  0  0  0  0  0  0  0  0  0
    4.4850   -5.6800   21.7740 O   0  0  0  0  0  0  0  0  0  0  0  0
    6.9230   -6.4530   22.0730 O   0  0  0  0  0  0  0  0  0  0  0  0
    5.7000   -4.9950   23.7760 N   0  0  0  0  0  0  0  0  0  0  0  0
    4.3220   -5.1600   24.2140 C   0  0  0  0  0  0  0  0  0  0  0  0
    3.7870   -3.9450   24.9850 C   0  0  0  0  0  0  0  0  0  0  0  0
    2.2590   -3.8690   24.9430 C   0  0  0  0  0  0  0  0  0  0  0  0
    4.5720   -2.9980   25.6500 C   0  0  0  0  0  0  0  0  0  0  0  0
    1.7200   -2.6590   25.6890 C   0  0  0  0  0  0  0  0  0  0  0  0
    3.9860   -1.9200   26.3050 C   0  0  0  0  0  0  0  0  0  0  0  0
    0.1850   -2.5690   25.6570 C   0  0  0  0  0  0  0  0  0  0  0  0
    2.5970   -1.7630   26.3170 C   0  0  0  0  0  0  0  0  0  0  0  0
    4.8640   -0.9180   27.0090 C   0  0  0  0  0  0  0  0  0  0  0  0
    2.1650   -0.6810   26.9840 O   0  0  0  0  0  0  0  0  0  0  0  0
  1  2  1  0
  2  3  1  0
  3  4  2  0
  3  5  2  0
  3  6  1  0
  6  7  1  0
  7  8  1  0
  8  9  2  0
  8 10  1  0
  9 11  1  0
 10 12  2  0
 11 13  1  0
 11 14  2  0
 12 14  1  0
 12 15  1  0
 14 16  1  0
M  END
