MAK-UNK-0955449e-31
     RDKit          3D

 36 39  0  0  0  0  0  0  0  0999 V2000
    6.8270   -6.4230   22.6140 C   0  0  0  0  0  0  0  0  0  0  0  0
    5.8320   -6.2410   23.5770 N   0  0  0  0  0  0  0  0  0  0  0  0
    5.9790   -5.4620   24.7220 C   0  0  0  0  0  0  0  0  0  0  0  0
    7.1940   -4.5530   24.5660 C   0  0  0  0  0  0  0  0  0  0  0  0
    6.3660   -4.3460   23.2700 C   0  0  0  0  0  0  0  0  0  0  0  0
    8.1110   -3.5380   23.8930 N   0  0  0  0  0  0  0  0  0  0  0  0
    6.7280   -3.4570   22.1700 C   0  0  0  0  0  0  0  0  0  0  0  0
    7.9030   -2.9340   22.6190 C   0  0  0  0  0  0  0  0  0  0  0  0
    9.2380   -3.0120   24.2970 C   0  0  0  0  0  0  0  0  0  0  0  0
    5.6420   -3.3730   20.8290 S   0  0  0  0  0  0  0  0  0  0  0  0
    9.0400   -2.0830   22.4870 C   0  0  0  0  0  0  0  0  0  0  0  0
   10.4170   -3.7800   24.4020 C   0  0  0  0  0  0  0  0  0  0  0  0
    9.1390   -1.5900   24.5630 C   0  0  0  0  0  0  0  0  0  0  0  0
    5.8500   -4.4110   19.8530 O   0  0  0  0  0  0  0  0  0  0  0  0
    4.4520   -3.5480   21.6100 O   0  0  0  0  0  0  0  0  0  0  0  0
    5.5770   -1.7340   20.1380 C   0  0  0  0  0  0  0  0  0  0  0  0
   10.4300   -2.7690   22.6830 C   0  0  0  0  0  0  0  0  0  0  0  0
    8.9840   -0.6870   22.2450 C   0  0  0  0  0  0  0  0  0  0  0  0
   10.3610   -4.9860   24.1860 O   0  0  0  0  0  0  0  0  0  0  0  0
   11.6310   -3.1940   24.7290 C   0  0  0  0  0  0  0  0  0  0  0  0
   10.2770   -0.8740   24.8950 C   0  0  0  0  0  0  0  0  0  0  0  0
    7.3120   -0.5160   24.4550 I   0  0  0  0  0  0  0  0  0  0  0  0
    5.7820   -1.4620   18.7870 C   0  0  0  0  0  0  0  0  0  0  0  0
    5.2870   -0.6090   20.9960 C   0  0  0  0  0  0  0  0  0  0  0  0
   11.6890   -1.8690   22.6230 C   0  0  0  0  0  0  0  0  0  0  0  0
   10.1600    0.1160   22.2050 C   0  0  0  0  0  0  0  0  0  0  0  0
    7.8080   -0.0600   22.0610 F   0  0  0  0  0  0  0  0  0  0  0  0
   11.4710   -1.7550   24.9380 C   0  0  0  0  0  0  0  0  0  0  0  0
   10.2580    0.4770   25.1320 O   0  0  0  0  0  0  0  0  0  0  0  0
    5.6850   -0.0050   18.2690 C   0  0  0  0  0  0  0  0  0  0  0  0
    5.1810    0.7410   20.6410 N   0  0  0  0  0  0  0  0  0  0  0  0
   11.4440   -0.4390   22.3890 C   0  0  0  0  0  0  0  0  0  0  0  0
   13.0020   -1.6620   25.1960 C   0  0  0  0  0  0  0  0  0  0  0  0
    5.3810    1.0650   19.2440 C   0  0  0  0  0  0  0  0  0  0  0  0
   13.3790   -0.7600   25.8850 O   0  0  0  0  0  0  0  0  0  0  0  0
   13.8080   -2.5960   24.6400 O   0  0  0  0  0  0  0  0  0  0  0  0
  1  2  1  0
  2  3  1  0
  3  4  1  0
  4  5  2  0
  4  6  1  0
  5  7  1  0
  6  8  1  0
  7  8  2  0
  6  9  1  0
 10  7  1  0
  8 11  1  0
  9 12  2  0
  9 13  1  0
 10 14  2  0
 10 15  2  0
 10 16  1  0
 11 17  2  0
 11 18  1  0
 12 19  1  0
 12 20  1  0
 13 21  2  0
 13 22  1  0
 16 23  2  0
 16 24  1  0
 17 25  1  0
 18 26  2  0
 18 27  1  0
 20 28  2  0
 21 28  1  0
 21 29  1  0
 23 30  1  0
 24 31  2  0
 25 32  2  0
 26 32  1  0
 28 33  1  0
 30 34  2  0
 31 34  1  0
 33 35  2  0
 33 36  1  0
M  END
