MAK-UNK-10799360-20-nitrile
     RDKit          3D

 24 27  0  0  0  0  0  0  0  0999 V2000
    6.8280   -3.5490   19.7490 C   0  0  0  0  0  0  0  0  0  0  0  0
    6.3850   -3.0790   18.6500 N   0  0  0  0  0  0  0  0  0  0  0  0
    6.5200   -2.8980   20.9360 N   0  0  0  0  0  0  0  0  0  0  0  0
    6.6050   -1.4220   20.9620 C   0  0  0  0  0  0  0  0  0  0  0  0
    7.0080   -3.2230   22.2830 C   0  0  1  0  0  0  0  0  0  0  0  0
    7.7020   -1.1520   22.0500 C   0  0  2  0  0  0  0  0  0  0  0  0
    8.3680   -2.5400   22.1720 C   0  0  0  0  0  0  0  0  0  0  0  0
    6.2960   -2.3610   23.3700 C   0  0  0  0  0  0  0  0  0  0  0  0
    7.1350   -1.1330   23.4120 N   0  0  0  0  0  0  0  0  0  0  0  0
    8.0950   -0.9220   24.5370 C   0  0  0  0  0  0  0  0  0  0  0  0
    9.3340   -0.0780   24.1610 C   0  0  0  0  0  0  0  0  0  0  0  0
    9.3060    1.4370   23.9460 C   0  0  0  0  0  0  0  0  0  0  0  0
   10.5710   -0.6880   23.9990 C   0  0  0  0  0  0  0  0  0  0  0  0
   10.5020    2.0960   23.6020 C   0  0  0  0  0  0  0  0  0  0  0  0
   11.7160    0.0300   23.6540 C   0  0  0  0  0  0  0  0  0  0  0  0
   10.7210   -2.1560   24.1960 C   0  0  0  0  0  0  0  0  0  0  0  0
   11.6970    1.4000   23.4550 C   0  0  0  0  0  0  0  0  0  0  0  0
   11.6580   -2.6700   23.2740 N   0  0  0  0  0  0  0  0  0  0  0  0
   13.0750   -0.5920   23.4690 C   0  0  0  0  0  0  0  0  0  0  0  0
   11.6730   -2.2030   21.9900 C   0  0  0  0  0  0  0  0  0  0  0  0
   12.7900   -2.7870   23.8720 C   0  0  0  0  0  0  0  0  0  0  0  0
   13.2880   -1.6240   24.3830 C   0  0  0  0  0  0  0  0  0  0  0  0
   12.9720   -2.2240   21.2770 C   0  0  0  0  0  0  0  0  0  0  0  0
   10.6750   -1.7670   21.4640 O   0  0  0  0  0  0  0  0  0  0  0  0
  1  2  2  3
  1  3  1  0
  3  4  1  0
  3  5  1  0
  6  4  1  6
  5  7  1  0
  6  7  1  0
  5  8  1  1
  6  9  1  0
  8  9  1  0
  9 10  1  0
 10 11  1  0
 11 12  2  0
 11 13  1  0
 12 14  1  0
 13 15  2  0
 13 16  1  0
 14 17  2  0
 15 17  1  0
 16 18  1  0
 15 19  1  0
 18 20  1  0
 18 21  1  0
 19 22  1  0
 21 22  1  0
 20 23  1  0
 20 24  2  0
M  END
