MAK-UNK-27459e11-4
     RDKit          3D

 15 15  0  0  0  0  0  0  0  0999 V2000
    5.6510   -5.2870   25.9580 N   0  0  0  0  0  0  0  0  0  0  0  0
    6.7060   -5.3770   26.6990 C   0  0  0  0  0  0  0  0  0  0  0  0
    6.6830   -6.0950   27.8470 N   0  0  0  0  0  0  0  0  0  0  0  0
    8.2550   -4.5920   26.2970 S   0  0  0  0  0  0  0  0  0  0  0  0
    8.6060   -3.7390   27.3940 O   0  0  0  0  0  0  0  0  0  0  0  0
    9.1390   -5.6080   25.8040 O   0  0  0  0  0  0  0  0  0  0  0  0
    7.9090   -3.6090   24.9760 N   0  0  0  0  0  0  0  0  0  0  0  0
    9.0350   -3.3610   24.0540 C   0  0  0  0  0  0  0  0  0  0  0  0
    9.0750   -1.9230   23.5550 C   0  0  0  0  0  0  0  0  0  0  0  0
   10.4260   -1.2790   23.3590 C   0  0  0  0  0  0  0  0  0  0  0  0
   11.4340   -1.9570   22.4250 C   0  0  0  0  0  0  0  0  0  0  0  0
   10.7400   -0.0980   24.0080 C   0  0  0  0  0  0  0  0  0  0  0  0
   12.8000   -1.2980   22.2210 C   0  0  0  0  0  0  0  0  0  0  0  0
   12.0700    0.6140   23.8490 C   0  0  0  0  0  0  0  0  0  0  0  0
   13.1290    0.0100   22.9360 C   0  0  0  0  0  0  0  0  0  0  0  0
  1  2  2  3
  2  3  1  0
  4  2  1  0
  4  5  2  0
  4  6  2  0
  4  7  1  0
  7  8  1  0
  8  9  1  0
  9 10  1  0
 10 11  2  0
 10 12  1  0
 11 13  1  0
 12 14  2  0
 13 15  2  0
 14 15  1  0
M  END
