MAK-UNK-10799360-16-acrylamide
     RDKit          3D

 26 29  0  0  0  0  0  0  0  0999 V2000
    7.5250   -2.9350   18.5870 C   0  0  0  0  0  0  0  0  0  0  0  0
    6.6190   -2.4990   19.7580 C   0  0  0  0  0  0  0  0  0  0  0  0
    6.0590   -3.6200   20.6030 C   0  0  0  0  0  0  0  0  0  0  0  0
    5.2710   -4.4870   20.1760 O   0  0  0  0  0  0  0  0  0  0  0  0
    6.5500   -3.5320   21.8830 N   0  0  0  0  0  0  0  0  0  0  0  0
    6.1820   -4.3350   23.0700 C   0  0  0  0  0  0  0  0  0  0  0  0
    7.8530   -3.0130   22.2320 C   0  0  2  0  0  0  0  0  0  0  0  0
    7.5690   -4.5410   23.7560 C   0  0  1  0  0  0  0  0  0  0  0  0
    8.4910   -4.3600   22.5640 C   0  0  0  0  0  0  0  0  0  0  0  0
    7.7280   -2.2640   23.5660 C   0  0  0  0  0  0  0  0  0  0  0  0
    8.0390   -3.3490   24.4990 N   0  0  0  0  0  0  0  0  0  0  0  0
    9.4490   -3.3970   24.9190 C   0  0  0  0  0  0  0  0  0  0  0  0
   10.1850   -2.2960   24.3910 C   0  0  0  0  0  0  0  0  0  0  0  0
    9.9320   -1.0040   24.8690 C   0  0  0  0  0  0  0  0  0  0  0  0
   11.1980   -2.4040   23.3790 C   0  0  0  0  0  0  0  0  0  0  0  0
   10.6610    0.0500   24.3530 C   0  0  0  0  0  0  0  0  0  0  0  0
   11.9170   -1.2910   22.8810 C   0  0  0  0  0  0  0  0  0  0  0  0
   11.6360   -0.0480   23.3900 C   0  0  0  0  0  0  0  0  0  0  0  0
   12.9850   -1.4330   21.8070 C   0  0  0  0  0  0  0  0  0  0  0  0
   13.5980   -0.2400   21.3640 N   0  0  0  0  0  0  0  0  0  0  0  0
   12.3610    1.1700   22.9170 C   0  0  0  0  0  0  0  0  0  0  0  0
   14.4030   -0.3610   19.7340 S   0  0  0  0  0  0  0  0  0  0  0  0
   13.5350    1.0040   22.1550 C   0  0  0  0  0  0  0  0  0  0  0  0
   15.6180    0.9600   19.4550 C   0  0  0  0  0  0  0  0  0  0  0  0
   13.9080   -0.1740   18.4750 O   0  0  0  0  0  0  0  0  0  0  0  0
   14.6180   -1.6790   19.8960 O   0  0  0  0  0  0  0  0  0  0  0  0
  1  2  1  0
  2  3  1  0
  3  4  2  0
  3  5  1  0
  5  6  1  0
  5  7  1  0
  8  6  1  6
  7  9  1  0
  8  9  1  0
  7 10  1  1
  8 11  1  0
 10 11  1  0
 11 12  1  0
 12 13  1  0
 13 14  2  0
 13 15  1  0
 14 16  1  0
 15 17  2  0
 16 18  2  0
 17 18  1  0
 17 19  1  0
 19 20  1  0
 18 21  1  0
 20 22  1  0
 20 23  1  0
 21 23  1  0
 22 24  1  0
 22 25  2  0
 22 26  2  0
M  END
