MAK-UNK-9a6be56d-11
     RDKit          3D

 38 42  0  0  0  0  0  0  0  0999 V2000
    6.6240    0.1100   18.9760 C   0  0  0  0  0  0  0  0  0  0  0  0
    6.1970    0.2930   20.3650 N   0  0  0  0  0  0  0  0  0  0  0  0
    6.9620    1.3600   21.0340 C   0  0  0  0  0  0  0  0  0  0  0  0
    7.5440    0.9230   22.2220 C   0  0  0  0  0  0  0  0  0  0  0  0
    8.4540   -0.0840   22.2180 C   0  0  0  0  0  0  0  0  0  0  0  0
    7.4160    1.3010   23.5370 C   0  0  0  0  0  0  0  0  0  0  0  0
    9.0300   -0.4830   23.4140 C   0  0  2  0  0  0  0  0  0  0  0  0
    8.2400    0.5410   24.3190 C   0  0  0  0  0  0  0  0  0  0  0  0
   10.4350   -0.3550   23.5320 N   0  0  0  0  0  0  0  0  0  0  0  0
    8.2550   -2.0000   23.7610 S   0  0  0  0  0  0  0  0  0  0  0  0
    8.3250    0.6970   25.7940 C   0  0  0  0  0  0  0  0  0  0  0  0
   11.0010   -1.4190   22.6490 C   0  0  0  0  0  0  0  0  0  0  0  0
   11.0500    0.9140   23.3230 C   0  0  0  0  0  0  0  0  0  0  0  0
    7.1800   -2.2500   22.8270 O   0  0  0  0  0  0  0  0  0  0  0  0
    9.2800   -3.0040   23.9530 O   0  0  0  0  0  0  0  0  0  0  0  0
    7.4180   -2.0880   25.3350 C   0  0  0  0  0  0  0  0  0  0  0  0
    7.2330    1.4130   26.2640 C   0  0  0  0  0  0  0  0  0  0  0  0
    9.3390    0.2030   26.6010 C   0  0  0  0  0  0  0  0  0  0  0  0
   12.5020   -1.3510   22.4150 C   0  0  0  0  0  0  0  0  0  0  0  0
   12.4040    0.8950   23.0230 C   0  0  0  0  0  0  0  0  0  0  0  0
   10.3760    2.1190   23.3870 C   0  0  0  0  0  0  0  0  0  0  0  0
    8.1970   -1.9210   26.4760 C   0  0  0  0  0  0  0  0  0  0  0  0
    6.0570   -2.3180   25.4790 C   0  0  0  0  0  0  0  0  0  0  0  0
    7.1870    1.6260   27.6430 C   0  0  0  0  0  0  0  0  0  0  0  0
    9.2360    0.4620   28.0720 C   0  0  0  0  0  0  0  0  0  0  0  0
   10.3730   -0.4770   26.1140 F   0  0  0  0  0  0  0  0  0  0  0  0
   13.1500   -0.2580   22.9370 C   0  0  0  0  0  0  0  0  0  0  0  0
   13.1890    2.1460   22.7510 C   0  0  0  0  0  0  0  0  0  0  0  0
   10.9900    3.4610   23.1440 C   0  0  0  0  0  0  0  0  0  0  0  0
    7.6270   -1.9830   27.7500 C   0  0  0  0  0  0  0  0  0  0  0  0
    5.4160   -2.3960   26.6760 N   0  0  0  0  0  0  0  0  0  0  0  0
    8.1550    1.1690   28.5390 C   0  0  0  0  0  0  0  0  0  0  0  0
   12.4540    3.4430   22.8140 C   0  0  0  0  0  0  0  0  0  0  0  0
   10.1430    5.0340   23.1940 S   0  0  0  0  0  0  0  0  0  0  0  0
    6.2580   -2.2170   27.8510 C   0  0  0  0  0  0  0  0  0  0  0  0
   11.1370    5.9510   22.2160 N   0  0  0  0  0  0  0  0  0  0  0  0
    8.8640    4.9200   22.5490 O   0  0  0  0  0  0  0  0  0  0  0  0
   10.2670    5.7610   24.4080 O   0  0  0  0  0  0  0  0  0  0  0  0
  1  2  1  0
  2  3  1  0
  3  4  1  0
  4  5  2  0
  4  6  1  0
  5  7  1  0
  6  8  2  0
  7  8  1  0
  7  9  1  0
  7 10  1  1
  8 11  1  0
  9 12  1  0
  9 13  1  0
 10 14  2  0
 10 15  2  0
 10 16  1  0
 11 17  2  0
 11 18  1  0
 12 19  1  0
 13 20  2  0
 13 21  1  0
 16 22  2  0
 16 23  1  0
 17 24  1  0
 18 25  2  0
 18 26  1  0
 19 27  1  0
 20 27  1  0
 20 28  1  0
 21 29  2  0
 22 30  1  0
 23 31  2  0
 24 32  2  0
 25 32  1  0
 28 33  2  0
 29 33  1  0
 29 34  1  0
 30 35  2  0
 31 35  1  0
 34 36  1  0
 34 37  2  0
 34 38  2  0
M  END
