MAK-UNK-f983951f-5-chloroacetamide
     RDKit          3D

 14 14  0  0  0  0  0  0  0  0999 V2000
    7.5110   -3.6780   20.4770 C   0  0  0  0  0  0  0  0  0  0  0  0
    6.3370   -4.6080   20.7190 C   0  0  0  0  0  0  0  0  0  0  0  0
    5.3900   -4.7060   19.9470 O   0  0  0  0  0  0  0  0  0  0  0  0
    6.3820   -5.3240   21.8970 N   0  0  0  0  0  0  0  0  0  0  0  0
    7.0890   -4.8150   23.0840 C   0  0  0  0  0  0  0  0  0  0  0  0
    8.1720   -4.2570   23.0650 O   0  0  0  0  0  0  0  0  0  0  0  0
    6.3680   -5.0540   24.2070 O   0  0  0  0  0  0  0  0  0  0  0  0
    4.9400   -5.0900   24.0770 C   0  0  0  0  0  0  0  0  0  0  0  0
    4.3260   -4.1160   25.1060 C   0  0  0  0  0  0  0  0  0  0  0  0
    2.8940   -3.8130   24.7110 C   0  0  0  0  0  0  0  0  0  0  0  0
    4.8870   -3.5320   26.2280 C   0  0  0  0  0  0  0  0  0  0  0  0
    2.0750   -2.8420   25.5420 C   0  0  0  0  0  0  0  0  0  0  0  0
    4.1150   -2.6290   27.0020 C   0  0  0  0  0  0  0  0  0  0  0  0
    2.7890   -2.2530   26.7350 C   0  0  0  0  0  0  0  0  0  0  0  0
  1  2  1  0
  2  3  2  0
  2  4  1  0
  4  5  1  0
  5  6  2  0
  5  7  1  0
  7  8  1  0
  8  9  1  0
  9 10  2  0
  9 11  1  0
 10 12  1  0
 11 13  2  0
 12 14  2  0
 13 14  1  0
M  END
