MAK-UNK-10dfa458-1-acrylamide
     RDKit          3D

 16 17  0  0  0  0  0  0  0  0999 V2000
    8.1170   -3.6770   20.2400 C   0  0  0  0  0  0  0  0  0  0  0  0
    6.8020   -3.0680   19.9370 C   0  0  0  0  0  0  0  0  0  0  0  0
    5.8770   -4.1220   20.4370 C   0  0  0  0  0  0  0  0  0  0  0  0
    5.0610   -4.6090   19.6990 O   0  0  0  0  0  0  0  0  0  0  0  0
    6.0130   -4.5570   21.7520 N   0  0  0  0  0  0  0  0  0  0  0  0
    6.7160   -3.8710   22.8360 C   0  0  0  0  0  0  0  0  0  0  0  0
    5.4660   -5.8810   22.1490 C   0  0  0  0  0  0  0  0  0  0  0  0
    6.1110   -4.5670   24.0260 C   0  0  0  0  0  0  0  0  0  0  0  0
    4.5900   -5.7530   23.2600 C   0  0  0  0  0  0  0  0  0  0  0  0
    5.3930   -5.3270   24.4700 N   0  0  0  0  0  0  0  0  0  0  0  0
    4.6420   -5.0240   25.7260 C   0  0  0  0  0  0  0  0  0  0  0  0
    3.5280   -3.9290   25.6730 C   0  0  0  0  0  0  0  0  0  0  0  0
    3.7110   -2.5620   25.8190 C   0  0  0  0  0  0  0  0  0  0  0  0
    2.1880   -4.2170   25.4810 C   0  0  0  0  0  0  0  0  0  0  0  0
    2.5970   -1.7440   25.7590 C   0  0  0  0  0  0  0  0  0  0  0  0
    1.2090   -2.7190   25.5060 S   0  0  0  0  0  0  0  0  0  0  0  0
  1  2  1  0
  2  3  1  0
  3  4  2  0
  3  5  1  0
  5  6  1  0
  5  7  1  0
  6  8  1  0
  7  9  1  0
  8 10  1  0
  9 10  1  0
 10 11  1  0
 11 12  1  0
 12 13  1  0
 12 14  2  0
 13 15  2  0
 14 16  1  0
 15 16  1  0
M  END
