MAK-UNK-9955b1f3-5-acrylamide
     RDKit          3D

 17 17  0  0  0  0  0  0  0  0999 V2000
    7.3420   -3.0810   19.8050 C   0  0  0  0  0  0  0  0  0  0  0  0
    7.2670   -2.6300   21.2810 C   0  0  0  0  0  0  0  0  0  0  0  0
    6.1340   -3.3440   22.0360 C   0  0  0  0  0  0  0  0  0  0  0  0
    5.1280   -3.8100   21.4560 O   0  0  0  0  0  0  0  0  0  0  0  0
    6.2470   -3.4530   23.5400 C   0  0  0  0  0  0  0  0  0  0  0  0
    5.4350   -2.0250   23.2740 C   0  0  0  0  0  0  0  0  0  0  0  0
    6.0250   -2.9670   25.0230 N   0  0  0  0  0  0  0  0  0  0  0  0
    5.6650   -2.5300   21.7770 C   0  0  0  0  0  0  0  0  0  0  0  0
    5.5540   -2.1780   24.1380 C   0  0  0  0  0  0  0  0  0  0  0  0
    5.9710   -2.9820   23.0770 C   0  0  0  0  0  0  0  0  0  0  0  0
    6.7470   -4.3560   23.0870 C   0  0  0  0  0  0  0  0  0  0  0  0
    8.0680   -4.2670   23.8000 N   0  0  0  0  0  0  0  0  0  0  0  0
    9.1610   -3.5950   23.3440 C   0  0  0  0  0  0  0  0  0  0  0  0
    8.5210   -5.5420   24.3950 C   0  0  0  0  0  0  0  0  0  0  0  0
    8.0050   -5.6810   25.6950 C   0  0  0  0  0  0  0  0  0  0  0  0
    6.6430   -5.1930   25.9290 N   0  0  0  0  0  0  0  0  0  0  0  0
    8.8480   -6.3060   26.7020 N   0  0  0  0  0  0  0  0  0  0  0  0
  1  2  1  0
  2  3  1  0
  3  4  2  0
  3  5  1  0
  5  6  2  0
  5  7  1  0
  6  8  1  0
  7  9  2  0
  8 10  2  0
  9 10  1  0
 10 11  1  0
 11 12  1  0
 12 13  1  0
 12 14  1  0
 14 15  1  0
 15 16  2  3
 15 17  1  0
M  END
