MAK-UNK-10dfa458-3-vinylsulfonamide
     RDKit          3D

 18 19  0  0  0  0  0  0  0  0999 V2000
    7.0680   -3.4550   19.4860 C   0  0  0  0  0  0  0  0  0  0  0  0
    7.3140   -2.4560   20.6010 C   0  0  0  0  0  0  0  0  0  0  0  0
    6.1260   -2.7310   21.8960 S   0  0  0  0  0  0  0  0  0  0  0  0
    5.0810   -3.5900   21.3780 O   0  0  0  0  0  0  0  0  0  0  0  0
    5.8170   -1.4570   22.5170 O   0  0  0  0  0  0  0  0  0  0  0  0
    7.0810   -3.6080   23.0070 N   0  0  0  0  0  0  0  0  0  0  0  0
    8.3960   -3.0150   22.9500 C   0  0  0  0  0  0  0  0  0  0  0  0
    9.9010   -3.0160   23.2190 C   0  0  0  0  0  0  0  0  0  0  0  0
    9.0790   -3.9510   23.5240 C   0  0  0  0  0  0  0  0  0  0  0  0
    9.8030   -4.5580   23.9530 C   0  0  0  0  0  0  0  0  0  0  0  0
    8.0470   -4.7410   23.7240 C   0  0  0  0  0  0  0  0  0  0  0  0
    8.7970   -5.7460   24.3490 C   0  0  0  0  0  0  0  0  0  0  0  0
    6.6080   -4.8920   23.5400 N   0  0  0  0  0  0  0  0  0  0  0  0
    6.0810   -5.8500   22.6990 C   0  0  0  0  0  0  0  0  0  0  0  0
    5.6700   -4.8870   24.6620 C   0  0  0  0  0  0  0  0  0  0  0  0
    4.9530   -6.4170   23.2850 C   0  0  0  0  0  0  0  0  0  0  0  0
    4.5360   -5.6910   24.4240 C   0  0  0  0  0  0  0  0  0  0  0  0
    5.7860   -4.2820   25.7250 O   0  0  0  0  0  0  0  0  0  0  0  0
  1  2  1  0
  2  3  1  0
  3  4  2  0
  3  5  2  0
  3  6  1  0
  6  7  1  0
  7  8  2  0
  7  9  1  0
  8 10  1  0
  9 11  2  0
 10 12  2  0
 11 12  1  0
 11 13  1  0
 13 14  1  0
 13 15  1  0
 14 16  1  0
 15 17  1  0
 16 17  1  0
 15 18  2  0
M  END
