MAK-UNK-69bf97dd-6-nitrile
     RDKit          3D

 27 29  0  0  0  0  0  0  0  0999 V2000
    7.1680   -3.6880   19.8900 C   0  0  0  0  0  0  0  0  0  0  0  0
    6.0940   -3.5160   19.1980 N   0  0  0  0  0  0  0  0  0  0  0  0
    7.1490   -4.1230   21.1810 N   0  0  0  0  0  0  0  0  0  0  0  0
    6.2660   -5.2010   21.6720 C   0  0  0  0  0  0  0  0  0  0  0  0
    8.1560   -3.5610   22.1150 C   0  0  0  0  0  0  0  0  0  0  0  0
    5.8310   -4.7970   23.1350 C   0  0  0  0  0  0  0  0  0  0  0  0
    7.4270   -2.8030   23.1920 C   0  0  0  0  0  0  0  0  0  0  0  0
    5.9680   -3.2370   23.1770 C   0  0  0  0  0  0  0  0  0  0  0  0
    5.2820   -2.9070   24.5370 C   0  0  0  0  0  0  0  0  0  0  0  0
    4.5110   -3.6960   25.0710 O   0  0  0  0  0  0  0  0  0  0  0  0
    5.5760   -1.6770   25.0820 N   0  0  0  0  0  0  0  0  0  0  0  0
    6.9270   -1.3280   25.5100 C   0  0  0  0  0  0  0  0  0  0  0  0
    6.8620   -1.0100   27.0090 C   0  0  0  0  0  0  0  0  0  0  0  0
    6.5570    0.4830   27.1680 C   0  0  0  0  0  0  0  0  0  0  0  0
    7.0350   -1.8460   28.1360 C   0  0  0  0  0  0  0  0  0  0  0  0
    6.4450    1.0590   28.5560 C   0  0  0  0  0  0  0  0  0  0  0  0
    6.9280   -1.3060   29.4250 C   0  0  0  0  0  0  0  0  0  0  0  0
    7.3940   -3.5870   27.9480 S   0  0  0  0  0  0  0  0  0  0  0  0
    6.6530    0.0530   29.6750 C   0  0  0  0  0  0  0  0  0  0  0  0
    7.2530   -3.9220   26.5520 O   0  0  0  0  0  0  0  0  0  0  0  0
    8.6300   -3.8720   28.6220 O   0  0  0  0  0  0  0  0  0  0  0  0
    6.1980   -4.4260   28.8190 N   0  0  0  0  0  0  0  0  0  0  0  0
    4.7850   -3.9500   28.6530 C   0  0  0  0  0  0  0  0  0  0  0  0
    6.2340   -5.8910   28.4990 C   0  0  0  0  0  0  0  0  0  0  0  0
    4.0050   -4.5910   29.7850 C   0  0  0  0  0  0  0  0  0  0  0  0
    5.3880   -6.5480   29.5760 C   0  0  0  0  0  0  0  0  0  0  0  0
    4.7680   -5.6060   30.4580 O   0  0  0  0  0  0  0  0  0  0  0  0
  1  2  2  3
  1  3  1  0
  3  4  1  0
  3  5  1  0
  4  6  1  0
  5  7  1  0
  6  8  1  0
  7  8  1  0
  8  9  1  0
  9 10  2  0
  9 11  1  0
 11 12  1  0
 12 13  1  0
 13 14  2  0
 13 15  1  0
 14 16  1  0
 15 17  2  0
 18 15  1  0
 16 19  2  0
 17 19  1  0
 18 20  2  0
 18 21  2  0
 18 22  1  0
 22 23  1  0
 22 24  1  0
 23 25  1  0
 24 26  1  0
 25 27  1  0
 26 27  1  0
M  END
