MAK-UNK-5d2caa6f-11-bromoalkyne
     RDKit          3D

 25 29  0  0  0  0  0  0  0  0999 V2000
    7.4440   -3.3010   19.6070 C   0  0  0  0  0  0  0  0  0  0  0  0
    6.2530   -2.9650   18.7130 C   0  0  0  0  0  0  0  0  0  0  0  0
    7.4840   -2.9510   20.9370 N   0  0  0  0  0  0  0  0  0  0  0  0
    8.0920   -1.7370   21.1470 C   0  0  0  0  0  0  0  0  0  0  0  0
    6.4350   -3.0440   21.8800 C   0  0  2  0  0  0  0  0  0  0  0  0
    6.9550   -1.0900   21.8070 C   0  0  1  0  0  0  0  0  0  0  0  0
    5.7230   -1.9110   21.4770 C   0  0  0  0  0  0  0  0  0  0  0  0
    7.0870   -2.8560   23.0940 C   0  0  0  0  0  0  0  0  0  0  0  0
    7.2400   -1.4250   23.2790 C   0  0  1  0  0  0  0  0  0  0  0  0
    8.7040   -1.0340   23.5060 C   0  0  0  0  0  0  0  0  0  0  0  0
    9.4520   -1.9740   24.1200 N   0  0  0  0  0  0  0  0  0  0  0  0
    9.3440    0.1990   23.1420 C   0  0  0  0  0  0  0  0  0  0  0  0
   10.7730   -1.7920   24.3940 C   0  0  0  0  0  0  0  0  0  0  0  0
   10.7530    0.3850   23.4200 C   0  0  0  0  0  0  0  0  0  0  0  0
    8.7930    1.3440   22.5120 C   0  0  0  0  0  0  0  0  0  0  0  0
   11.6480   -2.5430   25.0020 C   0  0  0  0  0  0  0  0  0  0  0  0
   11.4630   -0.6570   24.0600 N   0  0  0  0  0  0  0  0  0  0  0  0
   11.4710    1.5300   23.1060 C   0  0  0  0  0  0  0  0  0  0  0  0
    9.5150    2.5010   22.2050 C   0  0  0  0  0  0  0  0  0  0  0  0
   13.0300   -2.0060   24.9510 C   0  0  0  0  0  0  0  0  0  0  0  0
   11.4040   -3.6900   25.6590 C   0  0  0  0  0  0  0  0  0  0  0  0
   10.8690    2.5890   22.5100 C   0  0  0  0  0  0  0  0  0  0  0  0
   13.9910   -2.7090   25.5900 C   0  0  0  0  0  0  0  0  0  0  0  0
   12.4170   -4.3750   26.3000 N   0  0  0  0  0  0  0  0  0  0  0  0
   13.6920   -3.8530   26.2390 C   0  0  0  0  0  0  0  0  0  0  0  0
  1  2  2  3
  1  3  1  0
  3  4  1  0
  3  5  1  0
  6  4  1  6
  5  7  1  0
  6  7  1  0
  5  8  1  1
  6  9  1  0
  8  9  1  0
  9 10  1  6
 10 11  2  0
 10 12  1  0
 11 13  1  0
 12 14  2  0
 12 15  1  0
 13 16  1  0
 13 17  2  0
 14 17  1  0
 14 18  1  0
 15 19  2  0
 16 20  2  0
 16 21  1  0
 18 22  2  0
 19 22  1  0
 20 23  1  0
 21 24  2  0
 23 25  2  0
 24 25  1  0
M  END
