MAK-UNK-e4a48a85-6
     RDKit          3D

 21 23  0  0  0  0  0  0  0  0999 V2000
   13.3920   -1.8020   22.3440 C   0  0  0  0  0  0  0  0  0  0  0  0
   12.8530   -0.5250   22.5390 C   0  0  0  0  0  0  0  0  0  0  0  0
   13.4580    0.7200   22.7150 C   0  0  0  0  0  0  0  0  0  0  0  0
   11.5330   -0.5640   22.5370 C   0  0  0  0  0  0  0  0  0  0  0  0
   12.7400    1.9150   22.8930 C   0  0  0  0  0  0  0  0  0  0  0  0
   10.7830    0.5460   22.6930 C   0  0  0  0  0  0  0  0  0  0  0  0
   11.2880    1.7910   22.8710 C   0  0  0  0  0  0  0  0  0  0  0  0
    9.5610    0.2180   22.6430 C   0  0  0  0  0  0  0  0  0  0  0  0
    9.6120   -0.6110   23.7520 C   0  0  0  0  0  0  0  0  0  0  0  0
    8.4370    0.1220   22.3210 N   0  0  0  0  0  0  0  0  0  0  0  0
    8.4280   -1.1310   23.9490 C   0  0  0  0  0  0  0  0  0  0  0  0
    7.5810   -0.6780   23.0080 N   0  0  0  0  0  0  0  0  0  0  0  0
    7.9560    0.8640   21.1680 C   0  0  0  0  0  0  0  0  0  0  0  0
    8.0330   -1.9960   24.9310 C   0  0  0  0  0  0  0  0  0  0  0  0
    8.6430   -3.3070   24.6950 N   0  0  0  0  0  0  0  0  0  0  0  0
   10.0690   -3.3270   25.1490 C   0  0  0  0  0  0  0  0  0  0  0  0
    7.6540   -4.2040   25.3310 C   0  0  0  0  0  0  0  0  0  0  0  0
   10.4690   -4.5250   25.9800 C   0  0  0  0  0  0  0  0  0  0  0  0
    8.2350   -5.4150   26.0220 C   0  0  0  0  0  0  0  0  0  0  0  0
    9.4330   -5.1110   26.8720 C   0  0  0  0  0  0  0  0  0  0  0  0
    9.0350   -4.4370   27.8180 O   0  0  0  0  0  0  0  0  0  0  0  0
  1  2  1  0
  2  3  2  0
  2  4  1  0
  3  5  1  0
  4  6  2  0
  5  7  2  0
  6  7  1  0
  6  8  1  0
  8  9  2  0
  8 10  1  0
  9 11  1  0
 10 12  1  0
 11 12  2  0
 10 13  1  0
 11 14  1  0
 14 15  1  0
 15 16  1  0
 15 17  1  0
 16 18  1  0
 17 19  1  0
 18 20  1  0
 19 20  1  0
 20 21  1  0
M  END
