MAK-UNK-ec98eaf6-7-vinylsulfonamide
     RDKit          3D

 27 30  0  0  0  0  0  0  0  0999 V2000
    7.5770   -2.9390   18.3430 C   0  0  0  0  0  0  0  0  0  0  0  0
    7.0390   -2.3670   19.5940 C   0  0  0  0  0  0  0  0  0  0  0  0
    5.8630   -3.4940   20.2810 S   0  0  0  0  0  0  0  0  0  0  0  0
    4.6960   -3.4900   19.4620 O   0  0  0  0  0  0  0  0  0  0  0  0
    6.4740   -4.7250   20.7050 O   0  0  0  0  0  0  0  0  0  0  0  0
    5.5820   -2.7210   21.6790 N   0  0  0  0  0  0  0  0  0  0  0  0
    6.0150   -1.2860   21.7030 C   0  0  0  0  0  0  0  0  0  0  0  0
    6.3000   -3.3340   22.8110 C   0  0  1  0  0  0  0  0  0  0  0  0
    7.3430   -1.5400   22.4600 C   0  0  2  0  0  0  0  0  0  0  0  0
    7.7120   -3.0020   22.3590 C   0  0  0  0  0  0  0  0  0  0  0  0
    5.9390   -2.6340   23.9410 C   0  0  0  0  0  0  0  0  0  0  0  0
    7.0100   -1.5910   23.9000 N   0  0  0  0  0  0  0  0  0  0  0  0
    8.1540   -1.9370   24.6960 C   0  0  0  0  0  0  0  0  0  0  0  0
    9.2590   -1.3290   24.1560 C   0  0  0  0  0  0  0  0  0  0  0  0
    9.5620   -0.0660   24.8000 N   0  0  0  0  0  0  0  0  0  0  0  0
    9.9160   -1.9210   23.1340 N   0  0  0  0  0  0  0  0  0  0  0  0
   10.6520    0.5730   24.3180 C   0  0  0  0  0  0  0  0  0  0  0  0
   11.0760   -1.2170   22.6350 C   0  0  0  0  0  0  0  0  0  0  0  0
   11.4310   -0.0260   23.2170 C   0  0  0  0  0  0  0  0  0  0  0  0
   11.7770   -1.8810   21.5360 N   0  0  0  0  0  0  0  0  0  0  0  0
   12.5540    0.8550   22.9920 C   0  0  0  0  0  0  0  0  0  0  0  0
   12.9550   -0.4530   23.5640 C   0  0  0  0  0  0  0  0  0  0  0  0
   13.2600   -1.4560   22.5460 C   0  0  0  0  0  0  0  0  0  0  0  0
   12.9870   -0.7010   24.9220 C   0  0  0  0  0  0  0  0  0  0  0  0
   13.5930   -2.7060   22.9160 C   0  0  0  0  0  0  0  0  0  0  0  0
   13.3560   -1.9820   25.2870 C   0  0  0  0  0  0  0  0  0  0  0  0
   13.6310   -2.8940   24.3010 C   0  0  0  0  0  0  0  0  0  0  0  0
  1  2  1  0
  3  2  1  0
  3  4  2  0
  3  5  2  0
  3  6  1  0
  6  7  1  0
  6  8  1  0
  9  7  1  6
  8 10  1  0
  9 10  1  0
  8 11  1  1
  9 12  1  0
 11 12  1  0
 12 13  1  0
 13 14  1  0
 14 15  2  0
 14 16  1  0
 15 17  1  0
 16 18  2  0
 17 19  2  0
 18 19  1  0
 18 20  1  0
 19 21  1  0
 21 22  1  0
 22 23  2  0
 22 24  1  0
 23 25  1  0
 24 26  2  0
 25 27  2  0
 26 27  1  0
M  END
