MAK-UNK-516d8086-18-vinylsulfonamide
     RDKit          3D

 25 27  0  0  0  0  0  0  0  0999 V2000
    6.9900   -3.4680   19.9230 C   0  0  0  0  0  0  0  0  0  0  0  0
    7.3520   -3.4720   21.4020 C   0  0  0  0  0  0  0  0  0  0  0  0
    6.0430   -3.3990   22.6120 S   0  0  0  0  0  0  0  0  0  0  0  0
    4.7210   -3.3800   21.8790 O   0  0  0  0  0  0  0  0  0  0  0  0
    6.2720   -4.5710   23.4400 O   0  0  0  0  0  0  0  0  0  0  0  0
    6.3920   -1.9890   23.7330 C   0  0  0  0  0  0  0  0  0  0  0  0
    5.3700   -1.1370   24.1620 C   0  0  0  0  0  0  0  0  0  0  0  0
    7.7130   -1.6810   24.2350 C   0  0  0  0  0  0  0  0  0  0  0  0
    5.5740   -0.0740   24.9990 N   0  0  0  0  0  0  0  0  0  0  0  0
    7.9740   -0.5520   25.1280 C   0  0  0  0  0  0  0  0  0  0  0  0
    6.8240    0.2160   25.4690 C   0  0  0  0  0  0  0  0  0  0  0  0
    9.3060   -0.1620   25.6780 N   0  0  0  0  0  0  0  0  0  0  0  0
    7.0210    1.3300   26.3340 N   0  0  0  0  0  0  0  0  0  0  0  0
   10.5000   -0.6650   25.1280 C   0  0  0  0  0  0  0  0  0  0  0  0
    7.2500    1.0620   27.7520 C   0  0  0  0  0  0  0  0  0  0  0  0
   11.9010   -0.6340   25.4040 C   0  0  0  0  0  0  0  0  0  0  0  0
   10.0570   -1.3280   24.0830 C   0  0  0  0  0  0  0  0  0  0  0  0
    8.3610    0.0440   27.9640 C   0  0  0  0  0  0  0  0  0  0  0  0
   12.7980   -1.2510   24.6050 C   0  0  0  0  0  0  0  0  0  0  0  0
   10.8940   -1.9080   23.3320 C   0  0  0  0  0  0  0  0  0  0  0  0
   12.2320   -1.8930   23.5030 C   0  0  0  0  0  0  0  0  0  0  0  0
   10.5740   -2.6510   22.2230 C   0  0  0  0  0  0  0  0  0  0  0  0
    9.5350   -3.2220   22.0280 O   0  0  0  0  0  0  0  0  0  0  0  0
   11.7150   -2.5740   21.5250 N   0  0  0  0  0  0  0  0  0  0  0  0
   12.8530   -2.5660   22.4210 C   0  0  0  0  0  0  0  0  0  0  0  0
  1  2  1  0
  3  2  1  0
  3  4  2  0
  3  5  2  0
  3  6  1  0
  6  7  2  0
  6  8  1  0
  7  9  1  0
  8 10  2  0
  9 11  2  0
 10 11  1  0
 10 12  1  0
 11 13  1  0
 12 14  1  0
 13 15  1  0
 14 16  2  0
 14 17  1  0
 15 18  1  0
 16 19  1  0
 17 20  2  0
 19 21  2  0
 20 21  1  0
 20 22  1  0
 22 23  2  0
 22 24  1  0
 21 25  1  0
 24 25  1  0
M  END
