MAK-UNK-ec98eaf6-49-nitrile
     RDKit          3D

 25 28  0  0  0  0  0  0  0  0999 V2000
    6.8420   -3.6700   19.8110 C   0  0  0  0  0  0  0  0  0  0  0  0
    6.3680   -3.0700   18.7770 N   0  0  0  0  0  0  0  0  0  0  0  0
    6.7480   -3.0950   21.0830 N   0  0  0  0  0  0  0  0  0  0  0  0
    7.1060   -1.6750   21.2640 C   0  0  0  0  0  0  0  0  0  0  0  0
    7.4010   -3.6150   22.1660 C   0  0  1  0  0  0  0  0  0  0  0  0
    8.3740   -1.7390   22.0980 C   0  0  2  0  0  0  0  0  0  0  0  0
    8.8370   -3.1390   21.8680 C   0  0  0  0  0  0  0  0  0  0  0  0
    6.9350   -2.8840   23.4260 C   0  0  0  0  0  0  0  0  0  0  0  0
    8.0180   -1.8670   23.5460 N   0  0  0  0  0  0  0  0  0  0  0  0
    9.1760   -2.2510   24.3910 C   0  0  1  0  0  0  0  0  0  0  0  0
    9.5530   -3.7250   24.3400 C   0  0  0  0  0  0  0  0  0  0  0  0
   10.3590   -1.4240   23.9150 C   0  0  0  0  0  0  0  0  0  0  0  0
    8.4820   -4.7660   24.5930 C   0  0  0  0  0  0  0  0  0  0  0  0
   10.5760   -0.0430   24.5360 C   0  0  0  0  0  0  0  0  0  0  0  0
   11.2400   -1.8800   22.9250 C   0  0  0  0  0  0  0  0  0  0  0  0
    8.0880   -4.9080   25.9150 C   0  0  0  0  0  0  0  0  0  0  0  0
   11.7630    0.7840   24.0310 C   0  0  0  0  0  0  0  0  0  0  0  0
   12.4080   -1.0480   22.4390 C   0  0  0  0  0  0  0  0  0  0  0  0
    8.9940   -4.5260   26.9290 C   0  0  0  0  0  0  0  0  0  0  0  0
    6.7960   -5.4270   26.2580 C   0  0  0  0  0  0  0  0  0  0  0  0
   12.6730    0.2100   22.9530 C   0  0  0  0  0  0  0  0  0  0  0  0
   13.3820   -1.7010   21.2270 Cl  0  0  0  0  0  0  0  0  0  0  0  0
    8.6280   -4.6530   28.2590 C   0  0  0  0  0  0  0  0  0  0  0  0
    6.3910   -5.5760   27.5860 C   0  0  0  0  0  0  0  0  0  0  0  0
    7.2820   -5.1980   28.5530 C   0  0  0  0  0  0  0  0  0  0  0  0
  1  2  2  3
  1  3  1  0
  3  4  1  0
  3  5  1  0
  6  4  1  6
  5  7  1  0
  6  7  1  0
  5  8  1  1
  6  9  1  0
  8  9  1  0
  9 10  1  0
 10 11  1  6
 10 12  1  0
 11 13  1  0
 12 14  2  0
 12 15  1  0
 13 16  1  0
 14 17  1  0
 15 18  2  0
 16 19  2  0
 16 20  1  0
 17 21  2  0
 18 21  1  0
 18 22  1  0
 19 23  1  0
 20 24  2  0
 23 25  2  0
 24 25  1  0
M  END
