MAK-UNK-212f693e-13-bromoalkyne
     RDKit          3D

 14 15  0  0  0  0  0  0  0  0999 V2000
    6.6580   -4.5390   20.3460 C   0  0  0  0  0  0  0  0  0  0  0  0
    6.0300   -3.4620   19.4770 C   0  0  0  0  0  0  0  0  0  0  0  0
    6.3260   -4.7690   21.6940 N   0  0  0  0  0  0  0  0  0  0  0  0
    7.2240   -4.2790   22.7410 C   0  0  0  0  0  0  0  0  0  0  0  0
    5.4760   -5.7920   22.1080 C   0  0  0  0  0  0  0  0  0  0  0  0
    6.4350   -3.9140   23.9940 C   0  0  0  0  0  0  0  0  0  0  0  0
    4.7070   -5.4840   23.2480 C   0  0  0  0  0  0  0  0  0  0  0  0
    5.4910   -5.0250   24.3060 C   0  0  0  0  0  0  0  0  0  0  0  0
    4.7190   -4.8090   25.5940 N   0  0  0  0  0  0  0  0  0  0  0  0
    3.6260   -3.9070   25.5860 C   0  0  0  0  0  0  0  0  0  0  0  0
    3.8140   -2.5510   25.8090 C   0  0  0  0  0  0  0  0  0  0  0  0
    2.2540   -4.1870   25.3820 C   0  0  0  0  0  0  0  0  0  0  0  0
    2.5090   -1.7650   25.7750 C   0  0  0  0  0  0  0  0  0  0  0  0
    1.1610   -2.8300   25.4660 S   0  0  0  0  0  0  0  0  0  0  0  0
  1  2  2  3
  1  3  1  0
  3  4  1  0
  3  5  1  0
  4  6  1  0
  5  7  1  0
  6  8  1  0
  7  8  1  0
  8  9  1  0
  9 10  1  0
 10 11  1  0
 10 12  2  0
 11 13  2  0
 12 14  1  0
 13 14  1  0
M  END
