MAK-UNK-1cb0e944-2
     RDKit          3D

 28 30  0  0  0  0  0  0  0  0999 V2000
   12.5710    6.3330   22.4620 C   0  0  0  0  0  0  0  0  0  0  0  0
   12.4110    4.8650   22.5920 C   0  0  0  0  0  0  0  0  0  0  0  0
   11.2500    4.4010   23.0650 N   0  0  0  0  0  0  0  0  0  0  0  0
   13.2040    3.7740   22.3260 C   0  0  0  0  0  0  0  0  0  0  0  0
   11.1820    2.9670   23.1540 C   0  0  0  0  0  0  0  0  0  0  0  0
   12.4830    2.5330   22.6770 C   0  0  0  0  0  0  0  0  0  0  0  0
   14.5790    3.8980   21.7580 C   0  0  0  0  0  0  0  0  0  0  0  0
    9.8140    2.5060   23.6940 C   0  0  0  0  0  0  0  0  0  0  0  0
   13.2050    1.2080   22.4690 C   0  0  0  0  0  0  0  0  0  0  0  0
   14.9370    4.7110   20.9150 O   0  0  0  0  0  0  0  0  0  0  0  0
    9.8400    1.4580   24.3350 O   0  0  0  0  0  0  0  0  0  0  0  0
    8.2940    3.3670   23.4440 S   0  0  0  0  0  0  0  0  0  0  0  0
   12.4190    0.0860   22.6780 C   0  0  0  0  0  0  0  0  0  0  0  0
    7.9840    3.4320   21.7850 N   0  0  0  0  0  0  0  0  0  0  0  0
    7.2570    2.5440   24.0160 O   0  0  0  0  0  0  0  0  0  0  0  0
    8.5010    4.7220   23.8990 O   0  0  0  0  0  0  0  0  0  0  0  0
   11.3520    0.0220   23.5230 C   0  0  0  0  0  0  0  0  0  0  0  0
   12.7520   -1.4310   21.8250 S   0  0  0  0  0  0  0  0  0  0  0  0
   10.7760   -1.2540   23.4660 C   0  0  0  0  0  0  0  0  0  0  0  0
   11.3940   -2.1430   22.5960 C   0  0  0  0  0  0  0  0  0  0  0  0
    9.6690   -1.8390   24.1680 C   0  0  0  0  0  0  0  0  0  0  0  0
    9.1970   -2.7220   24.7710 N   0  0  0  0  0  0  0  0  0  0  0  0
    9.6030   -4.0070   24.5690 C   0  0  0  0  0  0  0  0  0  0  0  0
    7.8380   -2.6160   24.9900 C   0  0  0  0  0  0  0  0  0  0  0  0
    9.3210   -5.0210   25.6780 C   0  0  0  0  0  0  0  0  0  0  0  0
    7.2840   -3.6380   26.0120 C   0  0  0  0  0  0  0  0  0  0  0  0
    8.3500   -4.4880   26.6990 C   0  0  0  0  0  0  0  0  0  0  0  0
    7.9740   -5.4350   27.3560 O   0  0  0  0  0  0  0  0  0  0  0  0
  1  2  1  0
  2  3  1  0
  2  4  2  0
  3  5  1  0
  4  6  1  0
  5  6  2  0
  4  7  1  0
  5  8  1  0
  6  9  1  0
  7 10  2  0
  8 11  2  0
 12  8  1  0
  9 13  1  0
 12 14  1  0
 12 15  2  0
 12 16  2  0
 13 17  2  0
 13 18  1  0
 17 19  1  0
 18 20  1  0
 19 20  2  0
 19 21  1  0
 21 22  1  0
 22 23  1  0
 22 24  1  0
 23 25  1  0
 24 26  1  0
 25 27  1  0
 26 27  1  0
 27 28  1  0
M  END
