MAK-UNK-8fdbca50-36-bromoalkyne
     RDKit          3D

 38 41  0  0  0  0  0  0  0  0999 V2000
    7.7380   -3.2380   20.2720 C   0  0  0  0  0  0  0  0  0  0  0  0
    6.3320   -2.9440   19.5540 C   0  0  0  0  0  0  0  0  0  0  0  0
    8.4470   -2.3510   21.4660 N   0  0  0  0  0  0  0  0  0  0  0  0
    9.1160   -1.0190   21.3920 C   0  0  0  0  0  0  0  0  0  0  0  0
    8.5010   -2.5610   23.0080 C   0  0  1  0  0  0  0  0  0  0  0  0
   10.4640   -0.8840   22.1090 C   0  0  0  0  0  0  0  0  0  0  0  0
    9.8090   -2.8060   23.3480 C   0  0  0  0  0  0  0  0  0  0  0  0
    7.9490   -1.3750   23.6090 N   0  0  0  0  0  0  0  0  0  0  0  0
   10.3830   -1.4080   23.3820 C   0  0  1  0  0  0  0  0  0  0  0  0
    8.3130   -0.9020   24.8900 C   0  0  0  0  0  0  0  0  0  0  0  0
   11.4170   -1.4630   24.2520 C   0  0  0  0  0  0  0  0  0  0  0  0
    7.2450   -1.1940   25.7370 C   0  0  0  0  0  0  0  0  0  0  0  0
   11.4040   -0.8460   25.3070 O   0  0  0  0  0  0  0  0  0  0  0  0
   12.4960   -2.3040   23.7750 N   0  0  0  0  0  0  0  0  0  0  0  0
    5.9870   -1.5360   25.2760 C   0  0  0  0  0  0  0  0  0  0  0  0
    7.1170   -1.2390   27.1540 C   0  0  0  0  0  0  0  0  0  0  0  0
   13.2640   -2.8490   24.9240 C   0  0  0  0  0  0  0  0  0  0  0  0
   13.3680   -1.5010   22.9400 C   0  0  0  0  0  0  0  0  0  0  0  0
    5.1550   -1.7800   26.3000 C   0  0  0  0  0  0  0  0  0  0  0  0
    5.8030   -1.6170   27.4930 N   0  0  0  0  0  0  0  0  0  0  0  0
   13.1460   -0.1450   23.3330 C   0  0  0  0  0  0  0  0  0  0  0  0
   13.1400   -1.5020   21.4520 C   0  0  0  0  0  0  0  0  0  0  0  0
    3.8260   -2.1480   26.2170 C   0  0  0  0  0  0  0  0  0  0  0  0
    5.1700   -1.8280   29.0730 S   0  0  0  0  0  0  0  0  0  0  0  0
    2.8450   -1.2820   26.7180 C   0  0  0  0  0  0  0  0  0  0  0  0
    3.3880   -3.3690   25.6400 C   0  0  0  0  0  0  0  0  0  0  0  0
    5.4220   -3.2100   29.4160 O   0  0  0  0  0  0  0  0  0  0  0  0
    3.8230   -1.3010   29.0630 O   0  0  0  0  0  0  0  0  0  0  0  0
    6.1030   -0.8080   30.1520 C   0  0  0  0  0  0  0  0  0  0  0  0
    1.5020   -1.5940   26.6590 C   0  0  0  0  0  0  0  0  0  0  0  0
    2.0130   -3.6780   25.5830 C   0  0  0  0  0  0  0  0  0  0  0  0
    4.2660   -4.2510   25.1360 F   0  0  0  0  0  0  0  0  0  0  0  0
    5.4520   -0.2040   31.2300 C   0  0  0  0  0  0  0  0  0  0  0  0
    7.4640   -0.6210   29.9160 C   0  0  0  0  0  0  0  0  0  0  0  0
    1.0720   -2.7820   26.0970 C   0  0  0  0  0  0  0  0  0  0  0  0
    6.3070    0.6700   32.1380 C   0  0  0  0  0  0  0  0  0  0  0  0
    8.2840    0.1430   30.6760 N   0  0  0  0  0  0  0  0  0  0  0  0
    7.7530    0.7690   31.7450 C   0  0  0  0  0  0  0  0  0  0  0  0
  1  2  2  3
  1  3  1  0
  3  4  1  0
  3  5  1  0
  4  6  1  0
  5  7  1  0
  5  8  1  1
  6  9  1  0
  7  9  1  0
  8 10  1  0
  9 11  1  6
 10 12  1  0
 11 13  2  0
 11 14  1  0
 12 15  1  0
 12 16  2  0
 14 17  1  0
 14 18  1  0
 15 19  2  0
 16 20  1  0
 19 20  1  0
 18 21  1  0
 18 22  1  0
 19 23  1  0
 20 24  1  0
 23 25  2  0
 23 26  1  0
 24 27  2  0
 24 28  2  0
 24 29  1  0
 25 30  1  0
 26 31  2  0
 26 32  1  0
 29 33  2  0
 29 34  1  0
 30 35  2  0
 31 35  1  0
 33 36  1  0
 34 37  2  0
 36 38  2  0
 37 38  1  0
M  END
