MAK-UNK-f983951f-3
     RDKit          3D

 16 18  0  0  0  0  0  0  0  0999 V2000
    2.3910   -7.6670   23.7020 C   0  0  0  0  0  0  0  0  0  0  0  0
    3.5970   -7.2770   24.4580 C   0  0  1  0  0  0  0  0  0  0  0  0
    4.8710   -6.6700   23.3590 Cl  0  0  0  0  0  0  0  0  0  0  0  0
    3.3650   -6.2080   25.5270 C   0  0  0  0  0  0  0  0  0  0  0  0
    2.0950   -6.3450   26.2000 O   0  0  0  0  0  0  0  0  0  0  0  0
    4.4310   -5.2380   25.6990 N   0  0  0  0  0  0  0  0  0  0  0  0
    4.1580   -3.8300   25.4580 C   0  0  2  0  0  0  0  0  0  0  0  0
    4.8370   -3.3280   24.1910 C   0  0  0  0  0  0  0  0  0  0  0  0
    4.5230   -3.3050   26.7170 C   0  0  0  0  0  0  0  0  0  0  0  0
    2.6650   -3.5480   25.2200 C   0  0  0  0  0  0  0  0  0  0  0  0
    4.8880   -1.8130   24.4130 C   0  0  1  0  0  0  0  0  0  0  0  0
    2.5210   -2.0190   25.1330 C   0  0  2  0  0  0  0  0  0  0  0  0
    4.3830   -1.9210   26.6740 C   0  0  2  0  0  0  0  0  0  0  0  0
    3.4750   -1.3970   24.0410 C   0  0  0  0  0  0  0  0  0  0  0  0
    3.0650   -1.5270   26.4640 C   0  0  0  0  0  0  0  0  0  0  0  0
    5.3010   -1.3690   25.6550 C   0  0  0  0  0  0  0  0  0  0  0  0
  2  1  1  6
  2  3  1  0
  2  4  1  0
  4  5  2  0
  4  6  1  0
  7  6  1  1
  7  8  1  0
  7  9  1  0
  7 10  1  0
 11  8  1  1
 12 10  1  1
 13  9  1  6
 11 14  1  0
 12 14  1  0
 12 15  1  0
 13 15  1  0
 11 16  1  0
 13 16  1  0
M  END
