MAK-UNK-6ca90168-20-chloroacetamide
     RDKit          3D

 16 17  0  0  0  0  0  0  0  0999 V2000
    7.1420   -2.9550   18.7330 C   0  0  0  0  0  0  0  0  0  0  0  0
    6.2240   -3.2550   19.8790 C   0  0  0  0  0  0  0  0  0  0  0  0
    5.3870   -4.1620   19.7620 O   0  0  0  0  0  0  0  0  0  0  0  0
    6.3720   -2.5060   21.0280 N   0  0  0  0  0  0  0  0  0  0  0  0
    6.0680   -2.9500   22.3860 C   0  0  0  0  0  0  0  0  0  0  0  0
    7.1370   -1.2510   21.0300 C   0  0  0  0  0  0  0  0  0  0  0  0
    7.4620   -3.4660   22.8790 C   0  0  0  0  0  0  0  0  0  0  0  0
    8.4890   -1.4820   21.7130 C   0  0  0  0  0  0  0  0  0  0  0  0
    8.3640   -2.2730   22.9370 N   0  0  0  0  0  0  0  0  0  0  0  0
    9.6560   -2.5630   23.5920 C   0  0  0  0  0  0  0  0  0  0  0  0
    9.8580   -3.6020   24.1990 O   0  0  0  0  0  0  0  0  0  0  0  0
   10.7090   -1.4660   23.4000 C   0  0  0  0  0  0  0  0  0  0  0  0
   12.0010   -2.1160   22.9070 C   0  0  0  0  0  0  0  0  0  0  0  0
   10.7680   -0.0830   23.5590 C   0  0  0  0  0  0  0  0  0  0  0  0
   12.9150   -0.9180   22.7680 C   0  0  0  0  0  0  0  0  0  0  0  0
   12.3090    0.6310   23.1600 S   0  0  0  0  0  0  0  0  0  0  0  0
  1  2  1  0
  2  3  2  0
  2  4  1  0
  4  5  1  0
  4  6  1  0
  5  7  1  0
  6  8  1  0
  7  9  1  0
  8  9  1  0
  9 10  1  0
 10 11  2  0
 10 12  1  0
 12 13  1  0
 12 14  2  0
 13 15  2  0
 14 16  1  0
 15 16  1  0
M  END
