MAK-UNK-8fdbca50-24-vinylsulfonamide
     RDKit          3D

 41 44  0  0  0  0  0  0  0  0999 V2000
    7.9760   -3.4730   19.8070 C   0  0  0  0  0  0  0  0  0  0  0  0
    7.1010   -3.8640   20.9580 C   0  0  0  0  0  0  0  0  0  0  0  0
    5.5700   -3.0780   20.6030 S   0  0  0  0  0  0  0  0  0  0  0  0
    4.7300   -3.3010   21.7510 O   0  0  0  0  0  0  0  0  0  0  0  0
    5.1230   -3.5360   19.3010 O   0  0  0  0  0  0  0  0  0  0  0  0
    5.9430   -1.4220   20.5350 N   0  0  0  0  0  0  0  0  0  0  0  0
    7.2750   -0.9480   20.9660 C   0  0  0  0  0  0  0  0  0  0  0  0
    4.7950   -0.4980   20.5990 C   0  0  0  0  0  0  0  0  0  0  0  0
    7.2500    0.4610   21.5330 C   0  0  0  0  0  0  0  0  0  0  0  0
    5.1070    0.9340   21.0040 C   0  0  0  0  0  0  0  0  0  0  0  0
    6.0660    0.8730   22.1780 C   0  0  0  0  0  0  0  0  0  0  0  0
    5.9770    2.0270   22.9780 C   0  0  0  0  0  0  0  0  0  0  0  0
    5.4670    3.0850   22.5910 O   0  0  0  0  0  0  0  0  0  0  0  0
    6.5810    1.8160   24.3420 N   0  0  0  0  0  0  0  0  0  0  0  0
    7.5650    0.7220   24.2180 C   0  0  0  0  0  0  0  0  0  0  0  0
    5.7340    1.7340   25.5520 C   0  0  0  0  0  0  0  0  0  0  0  0
    7.0750   -0.6860   24.3430 C   0  0  0  0  0  0  0  0  0  0  0  0
    8.9310    0.9000   23.9770 C   0  0  0  0  0  0  0  0  0  0  0  0
    6.3610    0.8650   26.6260 C   0  0  0  0  0  0  0  0  0  0  0  0
    4.3090    1.2810   25.2300 C   0  0  0  0  0  0  0  0  0  0  0  0
    7.8670   -1.8250   24.2310 C   0  0  0  0  0  0  0  0  0  0  0  0
    9.7640   -0.2360   23.8550 C   0  0  0  0  0  0  0  0  0  0  0  0
    9.3040   -1.5550   23.9660 C   0  0  0  0  0  0  0  0  0  0  0  0
   11.4540    0.0310   23.5420 S   0  0  0  0  0  0  0  0  0  0  0  0
   11.6180    1.1800   22.6850 O   0  0  0  0  0  0  0  0  0  0  0  0
   12.1470   -0.0680   24.7970 O   0  0  0  0  0  0  0  0  0  0  0  0
   11.9200   -1.3360   22.6770 N   0  0  0  0  0  0  0  0  0  0  0  0
   11.3420   -1.6940   21.4030 C   0  0  0  0  0  0  0  0  0  0  0  0
   12.8350   -2.1670   23.1250 C   0  0  0  0  0  0  0  0  0  0  0  0
   12.2750   -2.9470   21.2990 C   0  0  0  0  0  0  0  0  0  0  0  0
   13.0260   -3.0550   22.3000 C   0  0  0  0  0  0  0  0  0  0  0  0
   13.6770   -2.5550   24.0340 C   0  0  0  0  0  0  0  0  0  0  0  0
   12.3700   -3.8910   20.2950 C   0  0  0  0  0  0  0  0  0  0  0  0
   14.4240   -3.4900   23.4540 C   0  0  0  0  0  0  0  0  0  0  0  0
   13.8520   -2.2320   25.2690 C   0  0  0  0  0  0  0  0  0  0  0  0
   13.8350   -4.0010   20.1070 N   0  0  0  0  0  0  0  0  0  0  0  0
   15.4300   -4.2270   24.0600 C   0  0  0  0  0  0  0  0  0  0  0  0
   14.8270   -2.9190   25.9600 C   0  0  0  0  0  0  0  0  0  0  0  0
   13.1090   -1.2890   25.7780 F   0  0  0  0  0  0  0  0  0  0  0  0
   14.5060   -5.2790   20.3770 C   0  0  0  0  0  0  0  0  0  0  0  0
   15.6180   -3.9490   25.3350 C   0  0  0  0  0  0  0  0  0  0  0  0
  1  2  1  0
  3  2  1  0
  3  4  2  0
  3  5  2  0
  3  6  1  0
  6  7  1  0
  6  8  1  0
  7  9  1  0
  8 10  1  0
  9 11  1  0
 10 11  1  0
 11 12  1  0
 12 13  2  0
 12 14  1  0
 14 15  1  0
 14 16  1  0
 15 17  2  0
 15 18  1  0
 16 19  1  0
 16 20  1  0
 17 21  1  0
 18 22  2  0
 21 23  2  0
 22 23  1  0
 24 22  1  0
 24 25  2  0
 24 26  2  0
 24 27  1  0
 27 28  1  0
 27 29  1  0
 28 30  2  0
 29 31  2  0
 30 31  1  0
 29 32  1  0
 30 33  1  0
 32 34  2  0
 32 35  1  0
 33 36  1  0
 34 37  1  0
 35 38  2  0
 35 39  1  0
 36 40  1  0
 37 41  2  0
 38 41  1  0
M  END
