MAK-UNK-bae89c02-2-nitrile
     RDKit          3D

 26 29  0  0  0  0  0  0  0  0999 V2000
    6.7860   -4.3000   20.2600 C   0  0  0  0  0  0  0  0  0  0  0  0
    5.7330   -3.8840   19.6560 N   0  0  0  0  0  0  0  0  0  0  0  0
    6.6550   -5.0330   21.4740 N   0  0  0  0  0  0  0  0  0  0  0  0
    7.7700   -5.2480   22.4230 C   0  0  0  0  0  0  0  0  0  0  0  0
    5.6260   -4.6220   22.3120 C   0  0  1  0  0  0  0  0  0  0  0  0
    7.3200   -4.5880   23.6340 C   0  0  2  0  0  0  0  0  0  0  0  0
    5.9170   -5.1570   23.7150 C   0  0  0  0  0  0  0  0  0  0  0  0
    5.8370   -3.1400   22.5330 C   0  0  0  0  0  0  0  0  0  0  0  0
    7.3130   -3.1690   22.9510 C   0  0  1  0  0  0  0  0  0  0  0  0
    7.9890   -2.0040   23.5780 N   0  0  0  0  0  0  0  0  0  0  0  0
    9.4480   -2.3300   23.6680 C   0  0  0  0  0  0  0  0  0  0  0  0
    7.7020   -0.8420   22.6410 C   0  0  2  0  0  0  0  0  0  0  0  0
   10.3980   -1.1300   23.6330 C   0  0  0  0  0  0  0  0  0  0  0  0
    6.5550   -1.2510   21.7020 C   0  0  0  0  0  0  0  0  0  0  0  0
    8.7020   -0.1620   21.9410 C   0  0  0  0  0  0  0  0  0  0  0  0
    9.9780    0.1450   24.0750 C   0  0  0  0  0  0  0  0  0  0  0  0
   11.7220   -1.2820   23.1480 C   0  0  0  0  0  0  0  0  0  0  0  0
    5.9620   -0.1200   20.8790 C   0  0  0  0  0  0  0  0  0  0  0  0
    8.1070    1.0130   21.1560 C   0  0  0  0  0  0  0  0  0  0  0  0
   10.8520    1.2400   24.0180 C   0  0  0  0  0  0  0  0  0  0  0  0
   12.5670   -0.1850   23.0970 C   0  0  0  0  0  0  0  0  0  0  0  0
   12.1790   -2.4370   22.7490 C   0  0  0  0  0  0  0  0  0  0  0  0
    7.1050    0.6340   20.2220 C   0  0  1  0  0  0  0  0  0  0  0  0
   12.1220    1.0410   23.5260 C   0  0  0  0  0  0  0  0  0  0  0  0
   13.5130   -2.8220   23.2170 N   0  0  0  0  0  0  0  0  0  0  0  0
    7.5830   -0.3260   19.2490 O   0  0  0  0  0  0  0  0  0  0  0  0
  1  2  2  3
  1  3  1  0
  3  4  1  0
  3  5  1  0
  6  4  1  6
  5  7  1  0
  6  7  1  0
  5  8  1  1
  6  9  1  0
  8  9  1  0
  9 10  1  1
 10 11  1  0
 12 10  1  6
 11 13  1  0
 12 14  1  0
 12 15  1  0
 13 16  2  0
 13 17  1  0
 14 18  1  0
 15 19  1  0
 16 20  1  0
 17 21  2  0
 17 22  1  0
 18 23  1  0
 19 23  1  0
 20 24  2  0
 21 24  1  0
 22 25  3  0
 23 26  1  6
M  END
