MAK-UNK-1bb0b7ee-2
     RDKit          3D

 19 21  0  0  0  0  0  0  0  0999 V2000
    7.5250   -8.5520   22.9680 O   0  0  0  0  0  0  0  0  0  0  0  0
    7.2390   -7.3190   23.6600 S   0  0  0  0  0  0  0  0  0  0  0  0
    6.0490   -7.1470   24.4610 O   0  0  0  0  0  0  0  0  0  0  0  0
    7.6470   -5.8720   22.7620 C   0  0  0  0  0  0  0  0  0  0  0  0
    8.6790   -6.6700   24.4520 C   0  0  0  0  0  0  0  0  0  0  0  0
    8.2430   -5.2590   24.0060 C   0  0  0  0  0  0  0  0  0  0  0  0
    9.3370   -4.3400   23.7920 O   0  0  0  0  0  0  0  0  0  0  0  0
    9.1750   -3.2850   22.8420 C   0  0  0  0  0  0  0  0  0  0  0  0
    7.8090   -2.6440   22.9360 C   0  0  0  0  0  0  0  0  0  0  0  0
    6.7300   -3.5420   22.8870 C   0  0  0  0  0  0  0  0  0  0  0  0
    7.7050   -1.6500   23.9420 C   0  0  0  0  0  0  0  0  0  0  0  0
    7.7050   -1.7490   21.6640 C   0  0  0  0  0  0  0  0  0  0  0  0
    5.9200   -3.6990   24.0330 C   0  0  0  0  0  0  0  0  0  0  0  0
    6.4690   -4.2480   21.7540 N   0  0  0  0  0  0  0  0  0  0  0  0
    6.6740   -0.7120   23.4340 C   0  0  0  0  0  0  0  0  0  0  0  0
    6.5980   -0.7470   21.9550 C   0  0  0  0  0  0  0  0  0  0  0  0
    4.8230   -4.5940   24.0290 C   0  0  0  0  0  0  0  0  0  0  0  0
    5.3250   -5.1830   21.7720 C   0  0  0  0  0  0  0  0  0  0  0  0
    4.5360   -5.3350   22.8890 C   0  0  0  0  0  0  0  0  0  0  0  0
  1  2  2  0
  2  3  2  0
  2  4  1  0
  2  5  1  0
  4  6  1  0
  5  6  1  0
  6  7  1  0
  7  8  1  0
  9  8  1  0
  9 10  1  0
  9 11  1  0
  9 12  1  0
 10 13  2  0
 10 14  1  0
 11 15  1  0
 12 16  1  0
 15 16  1  0
 13 17  1  0
 14 18  2  0
 17 19  2  0
 18 19  1  0
M  END
