MAK-UNK-702fb7d3-6-chloroacetamide
     RDKit          3D

 42 47  0  0  0  0  0  0  0  0999 V2000
    8.4060   -3.3920   20.3110 C   0  0  0  0  0  0  0  0  0  0  0  0
    7.2900   -4.0530   21.0190 C   0  0  0  0  0  0  0  0  0  0  0  0
    6.2560   -4.5180   20.2150 O   0  0  0  0  0  0  0  0  0  0  0  0
    7.5650   -4.0360   22.5450 N   0  0  0  0  0  0  0  0  0  0  0  0
    8.6970   -3.2320   23.2000 C   0  0  0  0  0  0  0  0  0  0  0  0
    6.9600   -4.9390   23.5400 C   0  0  0  0  0  0  0  0  0  0  0  0
    9.2780   -3.8130   24.5490 C   0  0  0  0  0  0  0  0  0  0  0  0
    7.0680   -4.4800   25.0140 C   0  0  2  0  0  0  0  0  0  0  0  0
   10.8000   -3.5790   24.7110 C   0  0  0  0  0  0  0  0  0  0  0  0
    8.3870   -4.4490   25.4130 C   0  0  0  0  0  0  0  0  0  0  0  0
    6.3500   -5.3000   25.8430 N   0  0  0  0  0  0  0  0  0  0  0  0
    6.4970   -3.0290   25.1520 C   0  0  0  0  0  0  0  0  0  0  0  0
   10.9590   -4.2790   26.0670 C   0  0  0  0  0  0  0  0  0  0  0  0
    8.8000   -4.9900   26.5740 C   0  0  0  0  0  0  0  0  0  0  0  0
    5.4070   -4.7220   26.6860 C   0  0  0  0  0  0  0  0  0  0  0  0
    5.0410   -2.6940   24.8820 C   0  0  0  0  0  0  0  0  0  0  0  0
    7.3410   -1.9800   25.5380 C   0  0  0  0  0  0  0  0  0  0  0  0
   10.0750   -4.9260   26.9360 C   0  0  0  0  0  0  0  0  0  0  0  0
    4.1280   -5.1050   26.3070 C   0  0  0  0  0  0  0  0  0  0  0  0
    4.6070   -1.3770   25.0300 C   0  0  0  0  0  0  0  0  0  0  0  0
    6.8520   -0.6860   25.6680 C   0  0  0  0  0  0  0  0  0  0  0  0
    3.8480   -6.4350   25.6080 C   0  0  0  0  0  0  0  0  0  0  0  0
    2.8680   -4.4740   26.4310 C   0  0  0  0  0  0  0  0  0  0  0  0
    5.5130   -0.3800   25.4220 C   0  0  0  0  0  0  0  0  0  0  0  0
    2.3460   -6.4340   25.3870 C   0  0  0  0  0  0  0  0  0  0  0  0
    1.8230   -5.2690   25.8860 N   0  0  0  0  0  0  0  0  0  0  0  0
    1.5710   -7.5380   24.7300 C   0  0  0  0  0  0  0  0  0  0  0  0
    0.2040   -4.7660   25.9010 S   0  0  0  0  0  0  0  0  0  0  0  0
    1.3240   -8.8040   25.5250 C   0  0  0  0  0  0  0  0  0  0  0  0
    1.1090   -7.3690   23.4180 C   0  0  0  0  0  0  0  0  0  0  0  0
   -0.5300   -5.7370   26.6870 O   0  0  0  0  0  0  0  0  0  0  0  0
   -0.2320   -4.4340   24.5630 O   0  0  0  0  0  0  0  0  0  0  0  0
    0.2030   -3.2670   26.8570 C   0  0  0  0  0  0  0  0  0  0  0  0
    0.5380   -9.8090   24.7350 C   0  0  0  0  0  0  0  0  0  0  0  0
    0.3880   -8.3670   22.7740 C   0  0  0  0  0  0  0  0  0  0  0  0
    1.3540   -6.2320   22.7530 F   0  0  0  0  0  0  0  0  0  0  0  0
   -0.4590   -1.9500   26.3300 C   0  0  0  0  0  0  0  0  0  0  0  0
    0.7920   -3.2250   28.1070 C   0  0  0  0  0  0  0  0  0  0  0  0
    0.1090   -9.5640   23.4250 C   0  0  0  0  0  0  0  0  0  0  0  0
   -0.3920   -0.8410   27.1720 C   0  0  0  0  0  0  0  0  0  0  0  0
    0.8170   -2.1030   28.8790 N   0  0  0  0  0  0  0  0  0  0  0  0
    0.2400   -0.9610   28.4090 C   0  0  0  0  0  0  0  0  0  0  0  0
  1  2  1  0
  2  3  2  0
  2  4  1  0
  4  5  1  0
  4  6  1  0
  5  7  1  0
  6  8  1  0
  7  9  1  0
  7 10  2  0
  8 10  1  0
  8 11  1  1
  8 12  1  0
  9 13  2  0
 10 14  1  0
 11 15  1  0
 12 16  2  0
 12 17  1  0
 13 18  1  0
 14 18  2  0
 15 19  1  0
 16 20  1  0
 17 21  2  0
 19 22  1  0
 19 23  2  0
 20 24  2  0
 21 24  1  0
 22 25  2  0
 23 26  1  0
 25 26  1  0
 25 27  1  0
 26 28  1  0
 27 29  2  0
 27 30  1  0
 28 31  2  0
 28 32  2  0
 28 33  1  0
 29 34  1  0
 30 35  2  0
 30 36  1  0
 33 37  2  0
 33 38  1  0
 34 39  2  0
 35 39  1  0
 37 40  1  0
 38 41  2  0
 40 42  2  0
 41 42  1  0
M  END
