MAK-UNK-6ca90168-3-chloroacetamide
     RDKit          3D

 21 22  0  0  0  0  0  0  0  0999 V2000
    7.2180   -2.9860   18.7730 C   0  0  0  0  0  0  0  0  0  0  0  0
    6.2480   -3.2510   19.8880 C   0  0  0  0  0  0  0  0  0  0  0  0
    5.3530   -4.0920   19.7280 O   0  0  0  0  0  0  0  0  0  0  0  0
    6.4320   -2.5520   21.0570 N   0  0  0  0  0  0  0  0  0  0  0  0
    7.2680   -1.3340   21.1940 C   0  0  0  0  0  0  0  0  0  0  0  0
    6.1430   -3.1620   22.3470 C   0  0  0  0  0  0  0  0  0  0  0  0
    8.5530   -1.7800   21.9500 C   0  0  0  0  0  0  0  0  0  0  0  0
    7.3230   -3.5560   22.9740 C   0  0  0  0  0  0  0  0  0  0  0  0
    8.2550   -2.4370   23.1050 N   0  0  0  0  0  0  0  0  0  0  0  0
    8.3060   -1.7630   24.3210 C   0  0  0  0  0  0  0  0  0  0  0  0
    7.3750   -2.0430   25.3750 O   0  0  0  0  0  0  0  0  0  0  0  0
    9.3220   -0.6770   24.6000 C   0  0  0  0  0  0  0  0  0  0  0  0
    9.0340    0.1930   25.4130 O   0  0  0  0  0  0  0  0  0  0  0  0
   10.5480   -0.6440   23.9780 C   0  0  0  0  0  0  0  0  0  0  0  0
   11.1080   -1.8790   23.6290 C   0  0  0  0  0  0  0  0  0  0  0  0
   11.2130    0.6030   23.7020 C   0  0  0  0  0  0  0  0  0  0  0  0
   12.3260   -2.0190   22.9970 C   0  0  0  0  0  0  0  0  0  0  0  0
   12.4490    0.5710   23.0720 C   0  0  0  0  0  0  0  0  0  0  0  0
   10.6910    1.8790   24.0240 C   0  0  0  0  0  0  0  0  0  0  0  0
   13.0790   -0.7430   22.6770 C   0  0  0  0  0  0  0  0  0  0  0  0
    9.3170    2.0930   24.1640 C   0  0  0  0  0  0  0  0  0  0  0  0
  1  2  1  0
  2  3  2  0
  2  4  1  0
  4  5  1  0
  4  6  1  0
  5  7  1  0
  6  8  1  0
  7  9  1  0
  8  9  1  0
  9 10  1  0
 10 11  2  0
 10 12  1  0
 12 13  2  0
 12 14  1  0
 14 15  2  0
 14 16  1  0
 15 17  1  0
 16 18  2  0
 16 19  1  0
 17 20  2  0
 18 20  1  0
 19 21  2  3
M  END
