MAK-UNK-3e0761f8-8-bromoalkyne
     RDKit          3D

 19 21  0  0  0  0  0  0  0  0999 V2000
    7.3300   -4.0490   20.2990 C   0  0  0  0  0  0  0  0  0  0  0  0
    5.9590   -4.7380   20.0930 C   0  0  0  0  0  0  0  0  0  0  0  0
    7.5870   -3.0340   21.2420 N   0  0  0  0  0  0  0  0  0  0  0  0
    8.0540   -3.4370   22.5840 C   0  0  0  0  0  0  0  0  0  0  0  0
    8.2400   -1.7050   20.9880 C   0  0  2  0  0  0  0  0  0  0  0  0
    8.7670   -2.1590   23.0770 C   0  0  1  0  0  0  0  0  0  0  0  0
    9.5460   -1.8170   21.7710 C   0  0  0  0  0  0  0  0  0  0  0  0
    7.6600   -0.4950   21.7570 C   0  0  0  0  0  0  0  0  0  0  0  0
    7.6870   -1.0400   23.1900 C   0  0  1  0  0  0  0  0  0  0  0  0
    6.3900   -1.5990   23.7700 C   0  0  0  0  0  0  0  0  0  0  0  0
    6.2320   -1.6110   24.9950 O   0  0  0  0  0  0  0  0  0  0  0  0
    5.4370   -2.0620   22.8280 N   0  0  0  0  0  0  0  0  0  0  0  0
    4.6940   -3.2970   23.0930 C   0  0  0  0  0  0  0  0  0  0  0  0
    5.3300   -1.4330   21.4960 C   0  0  0  0  0  0  0  0  0  0  0  0
    5.0090   -0.0690   21.3280 C   0  0  0  0  0  0  0  0  0  0  0  0
    5.5410   -2.1650   20.3180 C   0  0  0  0  0  0  0  0  0  0  0  0
    4.9100    0.5140   20.0520 C   0  0  0  0  0  0  0  0  0  0  0  0
    5.4470   -1.5980   19.0710 C   0  0  0  0  0  0  0  0  0  0  0  0
    5.1320   -0.2580   18.9020 C   0  0  0  0  0  0  0  0  0  0  0  0
  1  2  2  3
  1  3  1  0
  3  4  1  0
  3  5  1  0
  6  4  1  6
  5  7  1  0
  6  7  1  0
  5  8  1  1
  6  9  1  0
  8  9  1  0
  9 10  1  6
 10 11  2  0
 10 12  1  0
 12 13  1  0
 12 14  1  0
 14 15  2  0
 14 16  1  0
 15 17  1  0
 16 18  2  0
 17 19  2  0
 18 19  1  0
M  END
