MAK-UNK-ec98eaf6-50-nitrile
     RDKit          3D

 26 29  0  0  0  0  0  0  0  0999 V2000
    6.7850   -3.3550   19.5590 C   0  0  0  0  0  0  0  0  0  0  0  0
    5.9520   -3.0610   18.6420 N   0  0  0  0  0  0  0  0  0  0  0  0
    6.5800   -3.0140   20.8920 N   0  0  0  0  0  0  0  0  0  0  0  0
    6.9270   -3.8190   22.0610 C   0  0  0  0  0  0  0  0  0  0  0  0
    6.6460   -1.7340   21.3660 C   0  0  1  0  0  0  0  0  0  0  0  0
    6.7250   -2.8460   23.1870 C   0  0  2  0  0  0  0  0  0  0  0  0
    5.7390   -1.8470   22.6030 C   0  0  0  0  0  0  0  0  0  0  0  0
    8.0680   -1.4640   21.8930 C   0  0  0  0  0  0  0  0  0  0  0  0
    7.9430   -1.9800   23.2970 N   0  0  0  0  0  0  0  0  0  0  0  0
    9.1590   -2.5810   23.8130 C   0  0  2  0  0  0  0  0  0  0  0  0
    9.3990   -2.5220   25.2870 C   0  0  0  0  0  0  0  0  0  0  0  0
   10.3680   -1.6690   23.5800 C   0  0  0  0  0  0  0  0  0  0  0  0
    9.6230   -3.8650   25.9420 C   0  0  0  0  0  0  0  0  0  0  0  0
   10.6170   -0.3670   24.3710 C   0  0  0  0  0  0  0  0  0  0  0  0
   11.2860   -1.9890   22.6090 C   0  0  0  0  0  0  0  0  0  0  0  0
    8.6180   -4.3260   26.7930 C   0  0  0  0  0  0  0  0  0  0  0  0
   11.8510    0.5120   24.0540 C   0  0  0  0  0  0  0  0  0  0  0  0
   12.4720   -1.1280   22.3180 C   0  0  0  0  0  0  0  0  0  0  0  0
    8.7640   -5.5570   27.4180 C   0  0  0  0  0  0  0  0  0  0  0  0
    7.4370   -3.5750   27.0450 C   0  0  0  0  0  0  0  0  0  0  0  0
   12.7480    0.1550   23.0740 C   0  0  0  0  0  0  0  0  0  0  0  0
   13.4580   -1.6880   21.0840 Cl  0  0  0  0  0  0  0  0  0  0  0  0
    7.7690   -6.0200   28.2650 C   0  0  0  0  0  0  0  0  0  0  0  0
    6.4340   -4.0350   27.9000 C   0  0  0  0  0  0  0  0  0  0  0  0
    6.5090   -5.2760   28.5740 C   0  0  0  0  0  0  0  0  0  0  0  0
    5.4220   -5.7600   29.4910 C   0  0  0  0  0  0  0  0  0  0  0  0
  1  2  2  3
  1  3  1  0
  3  4  1  0
  3  5  1  0
  6  4  1  6
  5  7  1  0
  6  7  1  0
  5  8  1  1
  6  9  1  0
  8  9  1  0
  9 10  1  0
 10 11  1  1
 10 12  1  0
 11 13  1  0
 12 14  2  0
 12 15  1  0
 13 16  1  0
 14 17  1  0
 15 18  2  0
 16 19  2  0
 16 20  1  0
 17 21  2  0
 18 21  1  0
 18 22  1  0
 19 23  1  0
 20 24  2  0
 23 25  2  0
 24 25  1  0
 25 26  1  0
M  END
