MAK-UNK-148caf23-21-nitrile
     RDKit          3D

 34 37  0  0  0  0  0  0  0  0999 V2000
    8.0940   -3.2320   19.9960 C   0  0  0  0  0  0  0  0  0  0  0  0
    7.7060   -2.6840   18.8310 N   0  0  0  0  0  0  0  0  0  0  0  0
    9.0090   -2.3940   21.3960 C   0  0  0  0  0  0  0  0  0  0  0  0
    7.8980   -1.8500   22.5320 C   0  0  0  0  0  0  0  0  0  0  0  0
   10.4690   -2.2280   21.5020 C   0  0  0  0  0  0  0  0  0  0  0  0
    8.5630   -2.3540   21.5270 C   0  0  0  0  0  0  0  0  0  0  0  0
   10.2590   -1.6260   22.6110 N   0  0  0  0  0  0  0  0  0  0  0  0
    8.9830   -1.5900   22.8600 C   0  0  0  0  0  0  0  0  0  0  0  0
    9.6280   -0.8750   24.0740 N   0  0  0  0  0  0  0  0  0  0  0  0
    8.6420   -0.6740   25.1780 C   0  0  0  0  0  0  0  0  0  0  0  0
    9.1680   -0.3120   26.4300 C   0  0  0  0  0  0  0  0  0  0  0  0
    9.4200    0.0860   27.8940 C   0  0  0  0  0  0  0  0  0  0  0  0
    7.7110   -0.3770   26.5710 C   0  0  0  0  0  0  0  0  0  0  0  0
    8.6460    0.3250   29.0330 C   0  0  0  0  0  0  0  0  0  0  0  0
    6.8140   -0.1570   27.6640 C   0  0  0  0  0  0  0  0  0  0  0  0
    7.2230    0.1980   28.9270 C   0  0  0  0  0  0  0  0  0  0  0  0
    5.5040   -0.3130   27.4180 F   0  0  0  0  0  0  0  0  0  0  0  0
    6.3780    0.4600   30.1820 C   0  0  0  0  0  0  0  0  0  0  0  0
    5.7310   -0.4520   30.8440 C   0  0  0  0  0  0  0  0  0  0  0  0
    6.0830    1.6180   30.9090 N   0  0  0  0  0  0  0  0  0  0  0  0
    5.0560    0.1730   31.9630 C   0  0  0  0  0  0  0  0  0  0  0  0
    5.2400    1.6290   32.0970 C   0  0  0  0  0  0  0  0  0  0  0  0
    6.7020    3.1530   30.4490 S   0  0  0  0  0  0  0  0  0  0  0  0
    4.3200   -0.7020   32.7610 C   0  0  0  0  0  0  0  0  0  0  0  0
    6.1740    4.1000   31.4090 O   0  0  0  0  0  0  0  0  0  0  0  0
    6.4190    3.3040   29.0410 O   0  0  0  0  0  0  0  0  0  0  0  0
    8.4500    3.0930   30.6240 C   0  0  0  0  0  0  0  0  0  0  0  0
    3.0080   -0.1210   32.9930 N   0  0  0  0  0  0  0  0  0  0  0  0
    9.1560    4.2230   30.0650 C   0  0  0  0  0  0  0  0  0  0  0  0
    8.9320    1.9670   31.2770 C   0  0  0  0  0  0  0  0  0  0  0  0
    2.5590    0.1970   34.2600 C   0  0  0  0  0  0  0  0  0  0  0  0
   10.4900    3.8230   30.3860 C   0  0  0  0  0  0  0  0  0  0  0  0
   10.2110    1.7280   31.5060 N   0  0  0  0  0  0  0  0  0  0  0  0
   10.9580    2.6940   31.0340 C   0  0  0  0  0  0  0  0  0  0  0  0
  1  2  2  3
  1  3  1  0
  3  4  2  0
  3  5  1  0
  4  6  1  0
  5  7  2  0
  6  8  2  0
  7  8  1  0
  8  9  1  0
  9 10  1  0
 10 11  1  0
 11 12  2  0
 11 13  1  0
 12 14  1  0
 13 15  2  0
 14 16  2  0
 15 16  1  0
 15 17  1  0
 16 18  1  0
 18 19  2  0
 18 20  1  0
 19 21  1  0
 20 22  1  0
 21 22  2  0
 20 23  1  0
 21 24  1  0
 23 25  2  0
 23 26  2  0
 23 27  1  0
 24 28  1  0
 27 29  2  0
 27 30  1  0
 28 31  1  0
 29 32  1  0
 30 33  2  0
 32 34  2  0
 33 34  1  0
M  END
