MAK-UNK-7c9d1431-24-nitrile
     RDKit          3D

 15 16  0  0  0  0  0  0  0  0999 V2000
    6.4680   -4.5200   20.3820 C   0  0  0  0  0  0  0  0  0  0  0  0
    5.3700   -4.2250   19.8610 N   0  0  0  0  0  0  0  0  0  0  0  0
    6.5880   -5.1280   21.6490 N   0  0  0  0  0  0  0  0  0  0  0  0
    7.1250   -4.4330   22.7780 C   0  0  0  0  0  0  0  0  0  0  0  0
    5.6920   -6.2390   22.0240 C   0  0  0  0  0  0  0  0  0  0  0  0
    6.3480   -4.2410   23.9540 C   0  0  0  0  0  0  0  0  0  0  0  0
    4.8020   -5.8990   23.0560 C   0  0  0  0  0  0  0  0  0  0  0  0
    5.4690   -5.3880   24.2660 N   0  0  0  0  0  0  0  0  0  0  0  0
    4.6830   -5.3290   25.5370 C   0  0  0  0  0  0  0  0  0  0  0  0
    3.7070   -4.3730   25.6130 C   0  0  0  0  0  0  0  0  0  0  0  0
    2.2630   -4.7690   25.5830 C   0  0  0  0  0  0  0  0  0  0  0  0
    4.0440   -2.9970   25.7290 C   0  0  0  0  0  0  0  0  0  0  0  0
    1.1760   -3.7230   25.6790 C   0  0  0  0  0  0  0  0  0  0  0  0
    3.0440   -2.0180   25.8170 C   0  0  0  0  0  0  0  0  0  0  0  0
    1.7000   -2.3270   25.8030 C   0  0  0  0  0  0  0  0  0  0  0  0
  1  2  2  3
  1  3  1  0
  3  4  1  0
  3  5  1  0
  4  6  1  0
  5  7  1  0
  6  8  1  0
  7  8  1  0
  8  9  1  0
  9 10  1  0
 10 11  2  0
 10 12  1  0
 11 13  1  0
 12 14  2  0
 13 15  2  0
 14 15  1  0
M  END
