MAK-UNK-c8c8f7e2-36
     RDKit          3D

 17 18  0  0  0  0  0  0  0  0999 V2000
    6.7950    0.4650   18.7790 C   0  0  0  0  0  0  0  0  0  0  0  0
    7.4110    0.3910   20.1610 C   0  0  0  0  0  0  0  0  0  0  0  0
    7.3330    1.3230   20.9550 O   0  0  0  0  0  0  0  0  0  0  0  0
    8.0720   -0.7990   20.4380 N   0  0  0  0  0  0  0  0  0  0  0  0
    7.3020   -2.0220   20.4320 C   0  0  0  0  0  0  0  0  0  0  0  0
    6.1460   -1.9330   19.4630 C   0  0  0  0  0  0  0  0  0  0  0  0
    7.5620   -3.1630   21.2100 C   0  0  0  0  0  0  0  0  0  0  0  0
    5.2740   -3.1310   19.3670 C   0  0  0  0  0  0  0  0  0  0  0  0
    6.6820   -4.2600   21.0740 C   0  0  0  0  0  0  0  0  0  0  0  0
    8.7770   -3.0470   22.1210 C   0  0  0  0  0  0  0  0  0  0  0  0
    5.5900   -4.3170   20.2220 C   0  0  0  0  0  0  0  0  0  0  0  0
    6.9020   -5.3530   21.8460 N   0  0  0  0  0  0  0  0  0  0  0  0
    5.7380   -5.9930   22.1210 C   0  0  0  0  0  0  0  0  0  0  0  0
    7.3850   -5.2610   23.1170 C   0  0  0  0  0  0  0  0  0  0  0  0
    5.1590   -5.4510   23.3000 C   0  0  0  0  0  0  0  0  0  0  0  0
    6.3040   -4.8710   23.9430 C   0  0  0  0  0  0  0  0  0  0  0  0
    8.6070   -5.4940   23.6850 O   0  0  0  0  0  0  0  0  0  0  0  0
  1  2  1  0
  2  3  2  0
  2  4  1  0
  4  5  1  0
  5  6  2  0
  5  7  1  0
  6  8  1  0
  7  9  2  0
  7 10  1  0
  8 11  2  0
  9 11  1  0
  9 12  1  0
 12 13  1  0
 12 14  1  0
 13 15  1  0
 14 16  1  0
 15 16  1  0
 14 17  2  0
M  END
