MAK-UNK-2084232d-16
     RDKit          3D

 23 25  0  0  0  0  0  0  0  0999 V2000
    8.4910   -4.1070   27.5610 N   0  0  0  0  0  0  0  0  0  0  0  0
    9.3780   -4.4830   26.6370 C   0  0  0  0  0  0  0  0  0  0  0  0
   10.2350   -4.5700   25.3710 C   0  0  1  0  0  0  0  0  0  0  0  0
    9.6880   -4.9020   24.3130 O   0  0  0  0  0  0  0  0  0  0  0  0
   11.2050   -3.4340   25.1120 C   0  0  0  0  0  0  0  0  0  0  0  0
    9.0570   -3.9420   23.5360 C   0  0  1  0  0  0  0  0  0  0  0  0
   10.7020   -2.4010   24.3910 C   0  0  0  0  0  0  0  0  0  0  0  0
   12.6710   -3.4150   25.5920 C   0  0  0  0  0  0  0  0  0  0  0  0
    7.5450   -4.1090   23.4320 C   0  0  2  0  0  0  0  0  0  0  0  0
    9.4060   -2.5450   24.0100 C   0  0  0  0  0  0  0  0  0  0  0  0
   13.4600   -2.1860   25.1930 C   0  0  0  0  0  0  0  0  0  0  0  0
   11.4290   -1.3010   24.0530 C   0  0  0  0  0  0  0  0  0  0  0  0
    7.1040   -5.3540   24.2500 C   0  0  0  0  0  0  0  0  0  0  0  0
    6.9000   -3.6900   22.2030 C   0  0  2  0  0  0  0  0  0  0  0  0
   12.7470   -1.1510   24.4060 C   0  0  0  0  0  0  0  0  0  0  0  0
   10.9610   -0.2410   23.3400 O   0  0  0  0  0  0  0  0  0  0  0  0
    7.3170   -5.8840   22.8790 C   0  0  1  0  0  0  0  0  0  0  0  0
    6.4370   -4.7000   21.3680 C   0  0  1  0  0  0  0  0  0  0  0  0
    7.6530   -2.6620   21.7090 O   0  0  0  0  0  0  0  0  0  0  0  0
   13.4460   -0.0670   24.0510 O   0  0  0  0  0  0  0  0  0  0  0  0
    7.5860   -7.0470   22.9950 O   0  0  0  0  0  0  0  0  0  0  0  0
    6.1990   -5.7630   22.1160 C   0  0  0  0  0  0  0  0  0  0  0  0
    5.5500   -4.1850   20.4410 O   0  0  0  0  0  0  0  0  0  0  0  0
  1  2  1  0
  3  2  1  1
  3  4  1  0
  3  5  1  0
  4  6  1  0
  5  7  2  0
  5  8  1  0
  6  9  1  0
  6 10  1  1
  7 10  1  0
  8 11  2  0
  7 12  1  0
  9 13  1  6
  9 14  1  0
 11 15  1  0
 12 15  2  0
 12 16  1  0
 13 17  1  0
 14 18  1  0
 14 19  1  6
 15 20  1  0
 17 21  1  1
 17 22  1  0
 18 22  1  0
 18 23  1  1
M  END
