MAK-UNK-90d0606b-3-acrylamide
     RDKit          3D

 24 26  0  0  0  0  0  0  0  0999 V2000
    7.7990   -2.9040   18.5690 C   0  0  0  0  0  0  0  0  0  0  0  0
    6.3120   -2.7480   18.7580 C   0  0  0  0  0  0  0  0  0  0  0  0
    5.8460   -3.2700   20.0500 C   0  0  0  0  0  0  0  0  0  0  0  0
    5.2490   -4.3450   20.0920 O   0  0  0  0  0  0  0  0  0  0  0  0
    6.1540   -2.4380   21.0960 N   0  0  0  0  0  0  0  0  0  0  0  0
    7.0870   -1.2910   21.0540 C   0  0  0  0  0  0  0  0  0  0  0  0
    5.9860   -2.7940   22.5000 C   0  0  2  0  0  0  0  0  0  0  0  0
    7.5810   -1.2370   22.5220 C   0  0  1  0  0  0  0  0  0  0  0  0
    6.2240   -1.4640   23.2100 C   0  0  0  0  0  0  0  0  0  0  0  0
    7.2490   -3.5320   22.9520 C   0  0  0  0  0  0  0  0  0  0  0  0
    8.3050   -2.5030   22.7370 N   0  0  0  0  0  0  0  0  0  0  0  0
    9.3780   -2.5910   23.7080 C   0  0  1  0  0  0  0  0  0  0  0  0
    9.8290   -4.0810   23.8580 C   0  0  0  0  0  0  0  0  0  0  0  0
   10.5160   -1.5550   23.5310 C   0  0  0  0  0  0  0  0  0  0  0  0
    8.7440   -4.9100   24.4740 N   0  0  0  0  0  0  0  0  0  0  0  0
   11.5930   -1.7750   22.6730 C   0  0  0  0  0  0  0  0  0  0  0  0
   10.5050   -0.3370   24.2420 C   0  0  0  0  0  0  0  0  0  0  0  0
    8.5740   -6.4710   23.8940 S   0  0  0  0  0  0  0  0  0  0  0  0
   12.6270   -0.8470   22.5150 C   0  0  0  0  0  0  0  0  0  0  0  0
   11.5370    0.5980   24.0770 C   0  0  0  0  0  0  0  0  0  0  0  0
    6.8240   -6.7120   23.6750 C   0  0  0  0  0  0  0  0  0  0  0  0
    9.0120   -7.3300   24.9500 O   0  0  0  0  0  0  0  0  0  0  0  0
    9.1780   -6.4560   22.6110 O   0  0  0  0  0  0  0  0  0  0  0  0
   12.5970    0.3430   23.2180 C   0  0  0  0  0  0  0  0  0  0  0  0
  1  2  1  0
  2  3  1  0
  3  4  2  0
  3  5  1  0
  5  6  1  0
  5  7  1  0
  8  6  1  6
  7  9  1  0
  8  9  1  0
  7 10  1  1
  8 11  1  0
 10 11  1  0
 11 12  1  0
 12 13  1  6
 12 14  1  0
 13 15  1  0
 14 16  2  0
 14 17  1  0
 18 15  1  0
 16 19  1  0
 17 20  2  0
 18 21  1  0
 18 22  2  0
 18 23  2  0
 19 24  2  0
 20 24  1  0
M  END
