MAK-UNK-8fdbca50-18-chloroacetamide
     RDKit          3D

 39 42  0  0  0  0  0  0  0  0999 V2000
    7.1080   -2.8170   18.5950 C   0  0  0  0  0  0  0  0  0  0  0  0
    5.7930   -2.7520   19.3120 C   0  0  0  0  0  0  0  0  0  0  0  0
    5.1750   -3.8070   19.5230 O   0  0  0  0  0  0  0  0  0  0  0  0
    5.3160   -1.4760   19.6560 N   0  0  0  0  0  0  0  0  0  0  0  0
    5.1500   -1.0230   21.0300 C   0  0  0  0  0  0  0  0  0  0  0  0
    5.4280   -0.3510   18.6990 C   0  0  0  0  0  0  0  0  0  0  0  0
    4.3110    0.2240   21.0010 C   0  0  0  0  0  0  0  0  0  0  0  0
    5.6580    0.9200   19.2780 C   0  0  0  0  0  0  0  0  0  0  0  0
    4.8770    1.3300   20.3820 C   0  0  0  0  0  0  0  0  0  0  0  0
    5.4760    2.2330   21.2640 C   0  0  0  0  0  0  0  0  0  0  0  0
    5.0860    3.5710   21.3810 O   0  0  0  0  0  0  0  0  0  0  0  0
    6.5700    1.6050   22.0820 N   0  0  0  0  0  0  0  0  0  0  0  0
    7.8440    1.3510   21.3340 C   0  0  0  0  0  0  0  0  0  0  0  0
    6.5240    1.7530   23.5660 C   0  0  1  0  0  0  0  0  0  0  0  0
    8.1340   -0.1380   21.1900 C   0  0  0  0  0  0  0  0  0  0  0  0
    9.0530    2.0380   22.0260 C   0  0  0  0  0  0  0  0  0  0  0  0
    5.3090    2.1630   24.0580 N   0  0  0  0  0  0  0  0  0  0  0  0
    7.0280    0.4490   24.2010 C   0  0  0  0  0  0  0  0  0  0  0  0
    4.4480    1.1150   23.9920 C   0  0  0  0  0  0  0  0  0  0  0  0
    6.3320   -0.2940   25.2930 C   0  0  0  0  0  0  0  0  0  0  0  0
    8.1660   -0.3030   23.9330 C   0  0  0  0  0  0  0  0  0  0  0  0
    7.0320   -1.4220   25.6420 C   0  0  0  0  0  0  0  0  0  0  0  0
    8.2030   -1.4090   24.7580 N   0  0  0  0  0  0  0  0  0  0  0  0
    6.7980   -2.4230   26.6010 C   0  0  0  0  0  0  0  0  0  0  0  0
    9.5040   -2.5030   24.6360 S   0  0  0  0  0  0  0  0  0  0  0  0
    7.4810   -3.6710   26.5470 C   0  0  0  0  0  0  0  0  0  0  0  0
    5.8770   -2.2080   27.6680 C   0  0  0  0  0  0  0  0  0  0  0  0
    9.8940   -2.8460   25.9800 O   0  0  0  0  0  0  0  0  0  0  0  0
    9.0990   -3.4880   23.6600 O   0  0  0  0  0  0  0  0  0  0  0  0
   10.7850   -1.5230   23.9670 C   0  0  0  0  0  0  0  0  0  0  0  0
    7.3610   -4.7340   27.4340 C   0  0  0  0  0  0  0  0  0  0  0  0
    5.6960   -3.3400   28.6840 C   0  0  0  0  0  0  0  0  0  0  0  0
    5.1860   -1.0660   27.8070 F   0  0  0  0  0  0  0  0  0  0  0  0
   11.5710   -1.9330   22.8870 C   0  0  0  0  0  0  0  0  0  0  0  0
   11.0340   -0.2860   24.5320 C   0  0  0  0  0  0  0  0  0  0  0  0
    6.4920   -4.6240   28.5120 C   0  0  0  0  0  0  0  0  0  0  0  0
   12.5760   -1.0980   22.4180 C   0  0  0  0  0  0  0  0  0  0  0  0
   12.0120    0.5450   24.0840 N   0  0  0  0  0  0  0  0  0  0  0  0
   12.7620    0.1270   23.0430 C   0  0  0  0  0  0  0  0  0  0  0  0
  1  2  1  0
  2  3  2  0
  2  4  1  0
  4  5  1  0
  4  6  1  0
  5  7  1  0
  6  8  1  0
  7  9  1  0
  8  9  1  0
  9 10  1  0
 10 11  2  0
 10 12  1  0
 12 13  1  0
 12 14  1  0
 13 15  1  0
 13 16  1  0
 14 17  1  1
 14 18  1  0
 17 19  1  0
 18 20  1  0
 18 21  2  0
 20 22  2  0
 21 23  1  0
 22 23  1  0
 22 24  1  0
 23 25  1  0
 24 26  2  0
 24 27  1  0
 25 28  2  0
 25 29  2  0
 25 30  1  0
 26 31  1  0
 27 32  2  0
 27 33  1  0
 30 34  2  0
 30 35  1  0
 31 36  2  0
 32 36  1  0
 34 37  1  0
 35 38  2  0
 37 39  2  0
 38 39  1  0
M  END
