MAK-UNK-942dcb71-2-bromoalkyne
     RDKit          3D

 18 19  0  0  0  0  0  0  0  0999 V2000
    6.5460   -4.2560   20.3570 C   0  0  0  0  0  0  0  0  0  0  0  0
    5.5460   -3.7130   19.7200 C   0  0  0  0  0  0  0  0  0  0  0  0
    6.5160   -4.4730   21.8190 N   0  0  0  0  0  0  0  0  0  0  0  0
    7.5920   -4.4320   22.7740 C   0  0  0  0  0  0  0  0  0  0  0  0
    5.4750   -5.0140   22.7590 C   0  0  1  0  0  0  0  0  0  0  0  0
    8.1840   -5.6130   23.2510 C   0  0  0  0  0  0  0  0  0  0  0  0
    8.0710   -3.2260   23.3070 C   0  0  0  0  0  0  0  0  0  0  0  0
    4.0970   -4.4750   23.0690 C   0  0  0  0  0  0  0  0  0  0  0  0
    5.1850   -6.4770   22.6430 C   0  0  0  0  0  0  0  0  0  0  0  0
    9.1840   -5.5880   24.2140 C   0  0  0  0  0  0  0  0  0  0  0  0
    9.0870   -3.1820   24.2860 C   0  0  0  0  0  0  0  0  0  0  0  0
    3.3190   -5.2720   23.7650 N   0  0  0  0  0  0  0  0  0  0  0  0
    4.1470   -6.6520   24.0780 S   0  0  0  0  0  0  0  0  0  0  0  0
    9.6380   -4.3910   24.7440 C   0  0  0  0  0  0  0  0  0  0  0  0
    9.5320   -1.8370   24.8030 C   0  0  0  0  0  0  0  0  0  0  0  0
    4.8900   -6.3680   25.2500 O   0  0  0  0  0  0  0  0  0  0  0  0
    3.4340   -7.8970   24.0270 O   0  0  0  0  0  0  0  0  0  0  0  0
   10.7000   -4.4590   25.7850 C   0  0  0  0  0  0  0  0  0  0  0  0
  1  2  2  3
  1  3  1  0
  3  4  1  0
  5  3  1  6
  4  6  2  0
  4  7  1  0
  5  8  1  0
  5  9  1  0
  6 10  1  0
  7 11  2  0
  8 12  2  0
  9 13  1  0
 13 12  1  0
 10 14  2  0
 11 14  1  0
 11 15  1  0
 13 16  2  0
 13 17  2  0
 14 18  1  0
M  END
