MAK-UNK-01147c51-1
     RDKit          3D

 22 24  0  0  0  0  0  0  0  0999 V2000
    5.4880    0.3960   18.2920 C   0  0  0  0  0  0  0  0  0  0  0  0
    6.4510    0.0970   19.3470 N   0  0  0  0  0  0  0  0  0  0  0  0
    5.9180   -0.0520   20.7150 C   0  0  2  0  0  0  0  0  0  0  0  0
    5.6100    1.3060   21.3560 C   0  0  0  0  0  0  0  0  0  0  0  0
    6.8340   -0.8740   21.6440 C   0  0  0  0  0  0  0  0  0  0  0  0
    6.8340    1.8010   22.1250 C   0  0  0  0  0  0  0  0  0  0  0  0
    8.2550   -0.2690   21.6590 C   0  0  1  0  0  0  0  0  0  0  0  0
    8.1290    1.2610   21.5150 C   0  0  0  0  0  0  0  0  0  0  0  0
    9.0830   -0.7150   22.8960 C   0  0  2  0  0  0  0  0  0  0  0  0
   10.5700   -0.9910   22.5380 C   0  0  0  0  0  0  0  0  0  0  0  0
    8.4580   -1.8670   23.4890 O   0  0  0  0  0  0  0  0  0  0  0  0
   11.3280   -1.7270   23.6300 C   0  0  0  0  0  0  0  0  0  0  0  0
    9.2630   -3.0540   23.5620 C   0  0  1  0  0  0  0  0  0  0  0  0
   10.6290   -2.7970   24.1260 C   0  0  0  0  0  0  0  0  0  0  0  0
   12.6040   -1.4650   24.1610 C   0  0  0  0  0  0  0  0  0  0  0  0
    8.5360   -4.1780   24.3560 C   0  0  0  0  0  0  0  0  0  0  0  0
   11.1580   -3.6180   25.1100 C   0  0  0  0  0  0  0  0  0  0  0  0
   13.1160   -2.3290   25.1630 C   0  0  0  0  0  0  0  0  0  0  0  0
   13.3520   -0.4110   23.7350 O   0  0  0  0  0  0  0  0  0  0  0  0
    7.4060   -4.8070   23.6540 N   0  0  0  0  0  0  0  0  0  0  0  0
   12.4020   -3.3850   25.6200 C   0  0  0  0  0  0  0  0  0  0  0  0
   14.3130   -2.2230   25.7630 O   0  0  0  0  0  0  0  0  0  0  0  0
  1  2  1  0
  3  2  1  6
  3  4  1  0
  3  5  1  0
  4  6  1  0
  7  5  1  1
  6  8  1  0
  7  8  1  0
  7  9  1  0
  9 10  1  6
  9 11  1  0
 10 12  1  0
 11 13  1  0
 12 14  2  0
 13 14  1  0
 12 15  1  0
 13 16  1  1
 14 17  1  0
 15 18  2  0
 15 19  1  0
 16 20  1  0
 17 21  2  0
 18 21  1  0
 18 22  1  0
M  END
