MAK-UNK-ec98eaf6-49-bromoalkyne
     RDKit          3D

 25 28  0  0  0  0  0  0  0  0999 V2000
    8.0650   -3.4250   19.7250 C   0  0  0  0  0  0  0  0  0  0  0  0
    6.8610   -3.1070   18.8160 C   0  0  0  0  0  0  0  0  0  0  0  0
    7.9970   -3.1560   21.0690 N   0  0  0  0  0  0  0  0  0  0  0  0
    8.8150   -2.0470   21.5230 C   0  0  0  0  0  0  0  0  0  0  0  0
    6.8150   -3.0440   21.9910 C   0  0  2  0  0  0  0  0  0  0  0  0
    8.0940   -1.4270   22.6560 C   0  0  1  0  0  0  0  0  0  0  0  0
    6.6410   -1.5260   22.1680 C   0  0  0  0  0  0  0  0  0  0  0  0
    7.3550   -3.4020   23.3560 C   0  0  0  0  0  0  0  0  0  0  0  0
    8.1670   -2.3650   23.8360 N   0  0  0  0  0  0  0  0  0  0  0  0
    9.5010   -2.6160   24.4720 C   0  0  1  0  0  0  0  0  0  0  0  0
    9.9600   -4.0570   24.3380 C   0  0  0  0  0  0  0  0  0  0  0  0
   10.4510   -1.6840   24.0440 C   0  0  0  0  0  0  0  0  0  0  0  0
    9.2810   -4.9770   25.1530 C   0  0  0  0  0  0  0  0  0  0  0  0
   10.6540   -0.2660   24.6150 C   0  0  0  0  0  0  0  0  0  0  0  0
   11.3220   -2.0500   23.0060 C   0  0  0  0  0  0  0  0  0  0  0  0
    8.0890   -5.3760   24.5390 C   0  0  0  0  0  0  0  0  0  0  0  0
   11.7560    0.6630   24.0520 C   0  0  0  0  0  0  0  0  0  0  0  0
   12.3940   -1.1130   22.4760 C   0  0  0  0  0  0  0  0  0  0  0  0
    6.8360   -5.2750   25.1820 C   0  0  0  0  0  0  0  0  0  0  0  0
    8.1620   -5.9030   23.1900 C   0  0  0  0  0  0  0  0  0  0  0  0
   12.5860    0.2720   23.0430 C   0  0  0  0  0  0  0  0  0  0  0  0
   13.3840   -1.6390   21.2180 Cl  0  0  0  0  0  0  0  0  0  0  0  0
    5.6290   -5.7210   24.4260 C   0  0  0  0  0  0  0  0  0  0  0  0
    7.0070   -6.3220   22.4840 C   0  0  0  0  0  0  0  0  0  0  0  0
    5.7450   -6.2500   23.0530 C   0  0  0  0  0  0  0  0  0  0  0  0
  1  2  2  3
  1  3  1  0
  3  4  1  0
  3  5  1  0
  6  4  1  6
  5  7  1  0
  6  7  1  0
  5  8  1  1
  6  9  1  0
  8  9  1  0
  9 10  1  0
 10 11  1  6
 10 12  1  0
 11 13  1  0
 12 14  2  0
 12 15  1  0
 13 16  1  0
 14 17  1  0
 15 18  2  0
 16 19  2  0
 16 20  1  0
 17 21  2  0
 18 21  1  0
 18 22  1  0
 19 23  1  0
 20 24  2  0
 23 25  2  0
 24 25  1  0
M  END
