MAK-UNK-ec98eaf6-28-acrylamide
     RDKit          3D

 28 31  0  0  0  0  0  0  0  0999 V2000
    7.6310   -2.8620   18.5920 C   0  0  0  0  0  0  0  0  0  0  0  0
    6.1800   -2.9220   19.0830 C   0  0  0  0  0  0  0  0  0  0  0  0
    5.8280   -3.6500   20.3490 C   0  0  0  0  0  0  0  0  0  0  0  0
    5.2620   -4.7370   20.2740 O   0  0  0  0  0  0  0  0  0  0  0  0
    6.1520   -2.9790   21.5050 N   0  0  0  0  0  0  0  0  0  0  0  0
    7.0720   -1.8440   21.3870 C   0  0  0  0  0  0  0  0  0  0  0  0
    6.4730   -3.5570   22.8380 C   0  0  1  0  0  0  0  0  0  0  0  0
    8.0560   -2.3110   22.3900 C   0  0  2  0  0  0  0  0  0  0  0  0
    7.9810   -3.7010   22.6950 C   0  0  0  0  0  0  0  0  0  0  0  0
    6.2510   -2.5380   23.7510 C   0  0  0  0  0  0  0  0  0  0  0  0
    7.4440   -1.7010   23.6050 N   0  0  0  0  0  0  0  0  0  0  0  0
    8.4120   -1.4710   24.5740 C   0  0  0  0  0  0  0  0  0  0  0  0
    9.3450   -0.4130   24.2820 C   0  0  0  0  0  0  0  0  0  0  0  0
    8.7440    0.9660   24.3610 C   0  0  0  0  0  0  0  0  0  0  0  0
   10.6750   -0.6100   23.9530 C   0  0  0  0  0  0  0  0  0  0  0  0
    9.7230    2.1140   24.0440 C   0  0  0  0  0  0  0  0  0  0  0  0
   11.5440    0.4200   23.6820 C   0  0  0  0  0  0  0  0  0  0  0  0
   11.2670   -1.8180   23.8510 N   0  0  0  0  0  0  0  0  0  0  0  0
    9.3140    3.3920   24.0740 F   0  0  0  0  0  0  0  0  0  0  0  0
   11.1870    1.7650   23.6960 C   0  0  0  0  0  0  0  0  0  0  0  0
   12.4860   -1.5320   23.5170 C   0  0  0  0  0  0  0  0  0  0  0  0
   12.8950   -0.1910   23.3940 C   0  0  1  0  0  0  0  0  0  0  0  0
   13.4270    0.3210   22.0580 C   0  0  0  0  0  0  0  0  0  0  0  0
   13.6050   -0.9310   21.1870 C   0  0  0  0  0  0  0  0  0  0  0  0
   14.4140   -0.9670   19.8370 N   0  0  0  0  0  0  0  0  0  0  0  0
   15.2060   -0.2000   18.8400 C   0  0  0  0  0  0  0  0  0  0  0  0
   16.0040    1.0630   18.9660 C   0  0  0  0  0  0  0  0  0  0  0  0
   15.3500   -0.5610   17.7040 O   0  0  0  0  0  0  0  0  0  0  0  0
  1  2  1  0
  2  3  1  0
  3  4  2  0
  3  5  1  0
  5  6  1  0
  5  7  1  0
  8  6  1  6
  7  9  1  0
  8  9  1  0
  7 10  1  1
  8 11  1  0
 10 11  1  0
 11 12  1  0
 12 13  1  0
 13 14  1  0
 13 15  2  0
 14 16  2  0
 15 17  1  0
 15 18  1  0
 16 19  1  0
 16 20  1  0
 17 20  2  0
 18 21  2  0
 17 22  1  0
 21 22  1  0
 22 23  1  6
 23 24  1  0
 24 25  1  0
 25 26  1  0
 26 27  1  0
 26 28  2  0
M  END
