MAK-UNK-30aad1f1-12-bromoalkyne
     RDKit          3D

 25 27  0  0  0  0  0  0  0  0999 V2000
    7.4690   -4.0600   20.2900 C   0  0  0  0  0  0  0  0  0  0  0  0
    6.1860   -4.5740   20.0980 C   0  0  0  0  0  0  0  0  0  0  0  0
    8.3980   -4.0610   21.5070 C   0  0  0  0  0  0  0  0  0  0  0  0
    9.2740   -2.8120   21.4890 C   0  0  0  0  0  0  0  0  0  0  0  0
    8.6390   -4.9550   22.6070 C   0  0  0  0  0  0  0  0  0  0  0  0
   10.3080   -2.6520   22.5600 C   0  0  0  0  0  0  0  0  0  0  0  0
    9.6260   -4.7750   23.6330 N   0  0  0  0  0  0  0  0  0  0  0  0
   10.4650   -3.6710   23.6330 C   0  0  0  0  0  0  0  0  0  0  0  0
   11.5200   -3.2930   24.5330 N   0  0  0  0  0  0  0  0  0  0  0  0
   11.4130   -1.9230   24.0490 C   0  0  0  0  0  0  0  0  0  0  0  0
   12.2820   -0.8260   23.9570 C   0  0  0  0  0  0  0  0  0  0  0  0
   10.1580   -1.8140   23.5980 C   0  0  0  0  0  0  0  0  0  0  0  0
   11.7650    0.3950   23.3530 C   0  0  0  0  0  0  0  0  0  0  0  0
    9.6230   -0.6290   23.0040 C   0  0  0  0  0  0  0  0  0  0  0  0
   10.3920    0.4370   22.8780 C   0  0  0  0  0  0  0  0  0  0  0  0
    9.6000    1.3090   22.2900 N   0  0  0  0  0  0  0  0  0  0  0  0
    8.7650    0.4880   21.5740 C   0  0  0  0  0  0  0  0  0  0  0  0
    9.1740   -0.4870   21.0260 O   0  0  0  0  0  0  0  0  0  0  0  0
    7.4630    0.7970   21.5290 N   0  0  0  0  0  0  0  0  0  0  0  0
    6.7450    0.7930   20.3530 C   0  0  0  0  0  0  0  0  0  0  0  0
    5.5040    1.6310   20.2860 C   0  0  0  0  0  0  0  0  0  0  0  0
    7.0040    0.0870   19.1140 C   0  0  0  0  0  0  0  0  0  0  0  0
    4.6950    1.6800   19.0190 C   0  0  0  0  0  0  0  0  0  0  0  0
    6.1800    0.1950   17.9440 N   0  0  0  0  0  0  0  0  0  0  0  0
    5.0630    0.9840   17.9370 C   0  0  0  0  0  0  0  0  0  0  0  0
  1  2  2  3
  1  3  1  0
  3  4  2  0
  3  5  1  0
  4  6  1  0
  5  7  2  0
  6  8  2  0
  7  8  1  0
  8  9  1  0
  9 10  1  0
 10 11  2  0
 10 12  1  0
 11 13  1  0
 12 14  2  0
 13 15  2  0
 14 15  1  0
 15 16  1  0
 16 17  1  0
 17 18  2  0
 17 19  1  0
 19 20  1  0
 20 21  2  0
 20 22  1  0
 21 23  1  0
 22 24  2  0
 23 25  2  0
 24 25  1  0
M  END
