MAK-UNK-ec98eaf6-48-bromoalkyne
     RDKit          3D

 23 25  0  0  0  0  0  0  0  0999 V2000
    6.5170   -3.9580   19.4230 C   0  0  0  0  0  0  0  0  0  0  0  0
    5.8550   -5.1550   20.0660 C   0  0  0  0  0  0  0  0  0  0  0  0
    5.9410   -2.7190   19.4790 N   0  0  0  0  0  0  0  0  0  0  0  0
    5.8060   -2.3250   20.7910 C   0  0  0  0  0  0  0  0  0  0  0  0
    6.1250   -1.4020   18.7520 C   0  0  1  0  0  0  0  0  0  0  0  0
    5.8270   -0.8350   20.8190 C   0  0  2  0  0  0  0  0  0  0  0  0
    5.1620   -0.4700   19.4820 C   0  0  0  0  0  0  0  0  0  0  0  0
    7.3670   -0.7300   19.2410 C   0  0  0  0  0  0  0  0  0  0  0  0
    7.3360   -0.4530   20.7170 C   0  0  2  0  0  0  0  0  0  0  0  0
    8.2050   -1.2900   21.6680 C   0  0  0  0  0  0  0  0  0  0  0  0
    7.7760   -1.4150   23.0970 N   0  0  0  0  0  0  0  0  0  0  0  0
    8.7780   -1.3380   24.1440 C   0  0  0  0  0  0  0  0  0  0  0  0
    6.6890   -2.6240   23.5450 S   0  0  0  0  0  0  0  0  0  0  0  0
    9.7570   -2.2410   23.7420 C   0  0  0  0  0  0  0  0  0  0  0  0
    7.6310   -4.1210   23.3080 C   0  0  0  0  0  0  0  0  0  0  0  0
    6.4690   -2.5090   24.9740 O   0  0  0  0  0  0  0  0  0  0  0  0
    5.5700   -2.6290   22.6420 O   0  0  0  0  0  0  0  0  0  0  0  0
   10.8480   -1.4710   23.4800 C   0  0  0  0  0  0  0  0  0  0  0  0
   11.9180   -1.8080   22.5280 C   0  0  0  0  0  0  0  0  0  0  0  0
   10.9540   -0.2460   24.1690 C   0  0  0  0  0  0  0  0  0  0  0  0
   13.0060   -0.8470   22.3620 C   0  0  0  0  0  0  0  0  0  0  0  0
   12.0580    0.5910   23.9070 C   0  0  0  0  0  0  0  0  0  0  0  0
   13.0930    0.3040   23.0050 C   0  0  0  0  0  0  0  0  0  0  0  0
  1  2  2  3
  1  3  1  0
  3  4  1  0
  3  5  1  0
  6  4  1  6
  5  7  1  0
  6  7  1  0
  5  8  1  1
  6  9  1  0
  8  9  1  0
  9 10  1  1
 10 11  1  0
 11 12  1  0
 13 11  1  0
 12 14  1  0
 13 15  1  0
 13 16  2  0
 13 17  2  0
 14 18  1  0
 18 19  2  0
 18 20  1  0
 19 21  1  0
 20 22  2  0
 21 23  2  0
 22 23  1  0
M  END
