MAK-UNK-702fb7d3-7-bromoalkyne
     RDKit          3D

 41 46  0  0  0  0  0  0  0  0999 V2000
    7.6370   -3.8620   20.5150 C   0  0  0  0  0  0  0  0  0  0  0  0
    7.0730   -2.9190   19.4830 C   0  0  0  0  0  0  0  0  0  0  0  0
    7.5410   -3.6780   22.0070 N   0  0  0  0  0  0  0  0  0  0  0  0
    6.4490   -4.1950   22.8470 C   0  0  0  0  0  0  0  0  0  0  0  0
    8.4410   -2.8920   22.9170 C   0  0  2  0  0  0  0  0  0  0  0  0
    6.1550   -3.3370   24.0960 C   0  0  0  0  0  0  0  0  0  0  0  0
    8.4070   -3.5410   24.3660 C   0  0  1  0  0  0  0  0  0  0  0  0
    7.8730   -1.6320   22.9070 N   0  0  0  0  0  0  0  0  0  0  0  0
    4.6340   -3.0180   24.2010 C   0  0  0  0  0  0  0  0  0  0  0  0
    7.2360   -2.9880   24.8850 C   0  0  0  0  0  0  0  0  0  0  0  0
    8.1690   -4.8000   23.8780 C   0  0  0  0  0  0  0  0  0  0  0  0
    8.5040   -0.5300   23.6290 C   0  0  0  0  0  0  0  0  0  0  0  0
    4.6960   -2.1680   25.4700 C   0  0  0  0  0  0  0  0  0  0  0  0
    6.9850   -2.1950   25.9630 C   0  0  0  0  0  0  0  0  0  0  0  0
    9.1850   -5.6740   23.6710 C   0  0  0  0  0  0  0  0  0  0  0  0
    6.8120   -5.1030   23.5750 C   0  0  0  0  0  0  0  0  0  0  0  0
    7.6600    0.1310   24.5250 C   0  0  0  0  0  0  0  0  0  0  0  0
    5.7420   -1.7760   26.2850 C   0  0  0  0  0  0  0  0  0  0  0  0
    8.8600   -7.0330   23.0500 C   0  0  0  0  0  0  0  0  0  0  0  0
    6.4340   -6.3230   23.0070 C   0  0  0  0  0  0  0  0  0  0  0  0
    7.9570    0.2210   25.8660 C   0  0  0  0  0  0  0  0  0  0  0  0
    6.4030    0.8350   24.3760 C   0  0  0  0  0  0  0  0  0  0  0  0
    7.3610   -7.2920   22.7130 C   0  0  0  0  0  0  0  0  0  0  0  0
    6.8870    0.9830   26.4830 C   0  0  0  0  0  0  0  0  0  0  0  0
    5.9500    1.3520   25.6220 N   0  0  0  0  0  0  0  0  0  0  0  0
    7.6200    0.8450   27.8730 C   0  0  0  0  0  0  0  0  0  0  0  0
    4.5320    2.2360   25.8990 S   0  0  0  0  0  0  0  0  0  0  0  0
    7.6260   -0.3960   28.5180 C   0  0  0  0  0  0  0  0  0  0  0  0
    8.2720    1.9420   28.4670 C   0  0  0  0  0  0  0  0  0  0  0  0
    4.8540    3.6460   25.8380 O   0  0  0  0  0  0  0  0  0  0  0  0
    3.4830    1.6730   25.0720 O   0  0  0  0  0  0  0  0  0  0  0  0
    4.1590    1.8560   27.5720 C   0  0  0  0  0  0  0  0  0  0  0  0
    8.2680   -0.5620   29.7350 C   0  0  0  0  0  0  0  0  0  0  0  0
    8.9200    1.7570   29.7010 C   0  0  0  0  0  0  0  0  0  0  0  0
    8.2930    3.1520   27.8880 F   0  0  0  0  0  0  0  0  0  0  0  0
    5.1010    2.0700   28.5830 C   0  0  0  0  0  0  0  0  0  0  0  0
    2.9210    1.3370   27.9060 C   0  0  0  0  0  0  0  0  0  0  0  0
    8.9180    0.5150   30.3300 C   0  0  0  0  0  0  0  0  0  0  0  0
    4.7570    1.7510   29.8970 C   0  0  0  0  0  0  0  0  0  0  0  0
    2.5670    1.0200   29.1770 N   0  0  0  0  0  0  0  0  0  0  0  0
    3.4920    1.2330   30.1450 C   0  0  0  0  0  0  0  0  0  0  0  0
  1  2  2  3
  1  3  1  0
  3  4  1  0
  3  5  1  0
  4  6  1  0
  5  7  1  0
  5  8  1  1
  6  9  1  0
  6 10  2  0
  7 10  1  0
  7 11  1  6
  8 12  1  0
  9 13  2  0
 10 14  1  0
 11 15  2  0
 11 16  1  0
 12 17  1  0
 13 18  1  0
 14 18  2  0
 15 19  1  0
 16 20  2  0
 17 21  1  0
 17 22  2  0
 19 23  2  0
 20 23  1  0
 21 24  2  0
 22 25  1  0
 24 25  1  0
 24 26  1  0
 25 27  1  0
 26 28  2  0
 26 29  1  0
 27 30  2  0
 27 31  2  0
 27 32  1  0
 28 33  1  0
 29 34  2  0
 29 35  1  0
 32 36  2  0
 32 37  1  0
 33 38  2  0
 34 38  1  0
 36 39  1  0
 37 40  2  0
 39 41  2  0
 40 41  1  0
M  END
