MAK-UNK-30aad1f1-14-nitrile
     RDKit          3D

 25 27  0  0  0  0  0  0  0  0999 V2000
    8.5040   -3.9940   19.7840 C   0  0  0  0  0  0  0  0  0  0  0  0
    7.2060   -3.9650   19.4080 N   0  0  0  0  0  0  0  0  0  0  0  0
    8.9720   -3.5750   21.0840 C   0  0  0  0  0  0  0  0  0  0  0  0
   10.4550   -3.2630   21.1700 C   0  0  0  0  0  0  0  0  0  0  0  0
    8.1860   -3.4350   22.2210 C   0  0  0  0  0  0  0  0  0  0  0  0
   11.0290   -2.8000   22.4140 C   0  0  0  0  0  0  0  0  0  0  0  0
    8.6720   -3.0060   23.4190 N   0  0  0  0  0  0  0  0  0  0  0  0
    9.9940   -2.7090   23.4660 C   0  0  0  0  0  0  0  0  0  0  0  0
   10.6670   -2.1910   24.5720 N   0  0  0  0  0  0  0  0  0  0  0  0
   11.1680   -0.9790   23.9050 C   0  0  0  0  0  0  0  0  0  0  0  0
   12.5430   -0.7240   23.9460 C   0  0  0  0  0  0  0  0  0  0  0  0
   10.3010   -0.0810   23.2300 C   0  0  0  0  0  0  0  0  0  0  0  0
   13.0100    0.4190   23.3600 C   0  0  0  0  0  0  0  0  0  0  0  0
   10.8110    1.0650   22.6830 C   0  0  0  0  0  0  0  0  0  0  0  0
    8.9650   -0.2130   23.0400 N   0  0  0  0  0  0  0  0  0  0  0  0
   12.1560    1.3300   22.7470 C   0  0  0  0  0  0  0  0  0  0  0  0
    8.3600    0.2370   21.8370 C   0  0  0  0  0  0  0  0  0  0  0  0
    8.7940    1.2500   21.2450 O   0  0  0  0  0  0  0  0  0  0  0  0
    7.2540   -0.4820   21.3350 N   0  0  0  0  0  0  0  0  0  0  0  0
    6.5740    0.0990   20.1730 C   0  0  0  0  0  0  0  0  0  0  0  0
    5.3230    0.8960   20.4800 C   0  0  0  0  0  0  0  0  0  0  0  0
    6.9630   -0.0080   18.8430 C   0  0  0  0  0  0  0  0  0  0  0  0
    4.6920    1.4450   19.4410 C   0  0  0  0  0  0  0  0  0  0  0  0
    6.3190    0.5590   17.7560 N   0  0  0  0  0  0  0  0  0  0  0  0
    5.1990    1.2770   18.0590 C   0  0  0  0  0  0  0  0  0  0  0  0
  1  2  2  3
  1  3  1  0
  3  4  2  0
  3  5  1  0
  4  6  1  0
  5  7  2  0
  6  8  2  0
  7  8  1  0
  8  9  1  0
  9 10  1  0
 10 11  2  0
 10 12  1  0
 11 13  1  0
 12 14  2  0
 12 15  1  0
 13 16  2  0
 14 16  1  0
 15 17  1  0
 17 18  2  0
 17 19  1  0
 19 20  1  0
 20 21  2  0
 20 22  1  0
 21 23  1  0
 22 24  2  0
 23 25  2  0
 24 25  1  0
M  END
