MAK-UNK-9b4e5ff2-5
     RDKit          3D

  7  7  0  0  0  0  0  0  0  0999 V2000
    3.5660   -3.2950   28.3880 C   0  0  0  0  0  0  0  0  0  0  0  0
    3.3490   -4.2580   27.3110 N   0  0  0  0  0  0  0  0  0  0  0  0
    3.4150   -3.5530   26.0410 C   0  0  1  0  0  0  0  0  0  0  0  0
    2.4320   -3.7070   24.9250 C   0  0  0  0  0  0  0  0  0  0  0  0
    2.4310   -2.4480   25.7640 C   0  0  2  0  0  0  0  0  0  0  0  0
    3.0350   -1.2050   25.3840 C   0  0  0  0  0  0  0  0  0  0  0  0
    3.5570   -0.2060   25.1150 N   0  0  0  0  0  0  0  0  0  0  0  0
  1  2  1  0
  3  2  1  1
  3  4  1  0
  3  5  1  0
  4  5  1  0
  5  6  1  6
  6  7  3  0
M  END
