MAK-UNK-c74072e5-1-chloroacetamide
     RDKit          3D

 29 32  0  0  0  0  0  0  0  0999 V2000
    7.1290   -3.0440   18.8690 C   0  0  0  0  0  0  0  0  0  0  0  0
    6.0900   -3.4230   19.9210 C   0  0  0  0  0  0  0  0  0  0  0  0
    5.5060   -4.5080   19.8860 O   0  0  0  0  0  0  0  0  0  0  0  0
    5.8420   -2.4780   20.8940 N   0  0  0  0  0  0  0  0  0  0  0  0
    5.6800   -2.8890   22.2180 C   0  0  0  0  0  0  0  0  0  0  0  0
    6.2540   -1.1090   20.6420 C   0  0  0  0  0  0  0  0  0  0  0  0
    6.8770   -2.3280   22.9870 C   0  0  0  0  0  0  0  0  0  0  0  0
    7.4700   -0.8990   21.2590 C   0  0  0  0  0  0  0  0  0  0  0  0
    7.2010   -1.0180   22.6640 N   0  0  0  0  0  0  0  0  0  0  0  0
    8.0070   -0.1050   23.3200 C   0  0  0  0  0  0  0  0  0  0  0  0
    9.3760   -0.5310   23.3470 C   0  0  0  0  0  0  0  0  0  0  0  0
   10.4240   -0.3950   22.4260 C   0  0  0  0  0  0  0  0  0  0  0  0
    9.7320   -1.3570   24.7570 S   0  0  0  0  0  0  0  0  0  0  0  0
   11.5940   -0.9910   22.8400 C   0  0  0  0  0  0  0  0  0  0  0  0
   11.2720   -1.5890   24.1720 C   0  0  0  0  0  0  0  0  0  0  0  0
   12.0770   -2.2630   24.8650 C   0  0  0  0  0  0  0  0  0  0  0  0
   13.3410   -1.8890   24.9510 C   0  0  0  0  0  0  0  0  0  0  0  0
   11.8410   -3.4550   25.6370 N   0  0  0  0  0  0  0  0  0  0  0  0
   13.9880   -2.8610   25.8130 C   0  0  0  0  0  0  0  0  0  0  0  0
   13.0520   -3.8120   26.2110 C   0  0  0  0  0  0  0  0  0  0  0  0
   10.4310   -4.4730   25.9870 S   0  0  0  0  0  0  0  0  0  0  0  0
    9.7100   -4.0250   27.1450 O   0  0  0  0  0  0  0  0  0  0  0  0
   10.7480   -5.8100   25.8220 O   0  0  0  0  0  0  0  0  0  0  0  0
    9.3240   -4.3400   24.6820 C   0  0  0  0  0  0  0  0  0  0  0  0
    9.8770   -3.4900   23.6260 C   0  0  0  0  0  0  0  0  0  0  0  0
    8.0510   -4.9310   24.5540 C   0  0  0  0  0  0  0  0  0  0  0  0
    9.1270   -3.1910   22.3680 C   0  0  0  0  0  0  0  0  0  0  0  0
    7.3260   -4.6750   23.3920 C   0  0  0  0  0  0  0  0  0  0  0  0
    7.8870   -3.7930   22.2960 C   0  0  0  0  0  0  0  0  0  0  0  0
  1  2  1  0
  2  3  2  0
  2  4  1  0
  4  5  1  0
  4  6  1  0
  5  7  1  0
  6  8  1  0
  7  9  1  0
  8  9  1  0
  9 10  1  0
 10 11  1  0
 11 12  2  0
 11 13  1  0
 12 14  1  0
 13 15  1  0
 14 15  2  0
 15 16  1  0
 16 17  2  0
 16 18  1  0
 17 19  1  0
 18 20  1  0
 19 20  2  0
 18 21  1  0
 21 22  2  0
 21 23  2  0
 21 24  1  0
 24 25  2  0
 24 26  1  0
 25 27  1  0
 26 28  2  0
 27 29  2  0
 28 29  1  0
M  END
