MAK-UNK-30aad1f1-7-nitrile
     RDKit          3D

 26 28  0  0  0  0  0  0  0  0999 V2000
    7.4270   -4.0700   20.3070 C   0  0  0  0  0  0  0  0  0  0  0  0
    6.2230   -4.5790   20.0630 N   0  0  0  0  0  0  0  0  0  0  0  0
    8.2960   -4.0040   21.5600 C   0  0  0  0  0  0  0  0  0  0  0  0
    9.2350   -2.7840   21.6340 C   0  0  0  0  0  0  0  0  0  0  0  0
    8.4170   -4.9020   22.6520 C   0  0  0  0  0  0  0  0  0  0  0  0
   10.2460   -2.6230   22.7710 C   0  0  0  0  0  0  0  0  0  0  0  0
    9.3360   -4.7750   23.7200 N   0  0  0  0  0  0  0  0  0  0  0  0
   10.2420   -3.7340   23.8060 C   0  0  0  0  0  0  0  0  0  0  0  0
   11.3010   -3.6430   24.9230 N   0  0  0  0  0  0  0  0  0  0  0  0
   12.4770   -2.6790   24.7540 C   0  0  0  0  0  0  0  0  0  0  0  0
   11.7900   -1.6780   24.1600 C   0  0  0  0  0  0  0  0  0  0  0  0
   11.7230   -1.7750   22.8250 C   0  0  0  0  0  0  0  0  0  0  0  0
   11.1210   -0.6420   24.7760 C   0  0  0  0  0  0  0  0  0  0  0  0
   10.9660   -0.9270   22.0490 C   0  0  0  0  0  0  0  0  0  0  0  0
   10.3100    0.2670   23.9100 C   0  0  0  0  0  0  0  0  0  0  0  0
   10.1700    0.1590   22.5210 C   0  0  0  0  0  0  0  0  0  0  0  0
    9.4670    1.0000   22.3770 N   0  0  0  0  0  0  0  0  0  0  0  0
    8.4810    1.0200   21.4790 C   0  0  0  0  0  0  0  0  0  0  0  0
    8.3650    1.9900   20.7840 O   0  0  0  0  0  0  0  0  0  0  0  0
    7.6300   -0.0270   21.3360 N   0  0  0  0  0  0  0  0  0  0  0  0
    6.7800    0.2910   20.2050 C   0  0  0  0  0  0  0  0  0  0  0  0
    5.5460    1.1150   20.4530 C   0  0  0  0  0  0  0  0  0  0  0  0
    6.9920   -0.0820   18.8260 C   0  0  0  0  0  0  0  0  0  0  0  0
    4.6940    1.4660   19.2650 C   0  0  0  0  0  0  0  0  0  0  0  0
    6.1780    0.2690   17.7730 N   0  0  0  0  0  0  0  0  0  0  0  0
    5.0770    1.0290   18.0610 C   0  0  0  0  0  0  0  0  0  0  0  0
  1  2  2  3
  1  3  1  0
  3  4  2  0
  3  5  1  0
  4  6  1  0
  5  7  2  0
  6  8  2  0
  7  8  1  0
  8  9  1  0
  9 10  1  0
 10 11  1  0
 11 12  2  0
 11 13  1  0
 12 14  1  0
 13 15  2  0
 14 16  2  0
 15 16  1  0
 16 17  1  0
 17 18  1  0
 18 19  2  0
 18 20  1  0
 20 21  1  0
 21 22  2  0
 21 23  1  0
 22 24  1  0
 23 25  2  0
 24 26  2  0
 25 26  1  0
M  END
