MAK-UNK-3d7e3904-3-acrylamide
     RDKit          3D

 23 25  0  0  0  0  0  0  0  0999 V2000
    7.9760   -3.3760   19.7570 C   0  0  0  0  0  0  0  0  0  0  0  0
    6.8460   -2.9410   19.2130 C   0  0  0  0  0  0  0  0  0  0  0  0
    5.9080   -3.7720   19.9990 C   0  0  0  0  0  0  0  0  0  0  0  0
    4.9880   -4.3830   19.5400 O   0  0  0  0  0  0  0  0  0  0  0  0
    6.2400   -3.8200   21.3170 N   0  0  0  0  0  0  0  0  0  0  0  0
    5.8880   -4.9500   22.0760 C   0  0  0  0  0  0  0  0  0  0  0  0
    7.2660   -2.9480   21.8760 C   0  0  0  0  0  0  0  0  0  0  0  0
    5.3830   -4.4800   23.2940 C   0  0  0  0  0  0  0  0  0  0  0  0
    7.0200   -2.6350   23.3330 C   0  0  0  0  0  0  0  0  0  0  0  0
    6.2620   -3.7290   24.1000 C   0  0  0  0  0  0  0  0  0  0  0  0
    5.8690   -3.0330   25.2320 C   0  0  0  0  0  0  0  0  0  0  0  0
    4.7200   -3.1020   25.6530 O   0  0  0  0  0  0  0  0  0  0  0  0
    6.9090   -2.3090   25.7520 N   0  0  0  0  0  0  0  0  0  0  0  0
    6.6150   -1.4980   26.7280 C   0  0  0  0  0  0  0  0  0  0  0  0
    6.3310   -0.1740   26.4300 C   0  0  0  0  0  0  0  0  0  0  0  0
    6.6150   -2.0200   28.0580 C   0  0  0  0  0  0  0  0  0  0  0  0
    6.0200    0.8550   27.5120 C   0  0  0  0  0  0  0  0  0  0  0  0
    6.3180   -1.0270   29.1890 C   0  0  0  0  0  0  0  0  0  0  0  0
    6.8700   -3.4730   28.4920 C   0  0  0  0  0  0  0  0  0  0  0  0
    6.0220    0.4410   28.8370 C   0  0  0  0  0  0  0  0  0  0  0  0
    6.7720   -4.4220   27.3480 C   0  0  0  0  0  0  0  0  0  0  0  0
    8.2800   -4.0520   28.3910 C   0  0  0  0  0  0  0  0  0  0  0  0
    8.1930   -4.1440   27.1600 O   0  0  0  0  0  0  0  0  0  0  0  0
  1  2  1  0
  2  3  1  0
  3  4  2  0
  3  5  1  0
  5  6  1  0
  5  7  1  0
  6  8  1  0
  7  9  1  0
  8 10  1  0
  9 10  1  0
 10 11  1  0
 11 12  2  0
 11 13  1  0
 13 14  1  0
 14 15  2  0
 14 16  1  0
 15 17  1  0
 16 18  2  0
 16 19  1  0
 17 20  2  0
 18 20  1  0
 19 21  1  0
 19 22  1  0
 21 23  1  0
 22 23  1  0
M  END
