MAK-UNK-ec98eaf6-19-vinylsulfonamide
     RDKit          3D

 27 30  0  0  0  0  0  0  0  0999 V2000
    6.3690   -5.7070   19.9310 C   0  0  0  0  0  0  0  0  0  0  0  0
    6.1350   -6.0240   21.3910 C   0  0  0  0  0  0  0  0  0  0  0  0
    5.2670   -4.6270   21.9870 S   0  0  0  0  0  0  0  0  0  0  0  0
    4.0070   -5.0420   22.5490 O   0  0  0  0  0  0  0  0  0  0  0  0
    5.2000   -3.7310   20.8650 O   0  0  0  0  0  0  0  0  0  0  0  0
    6.3240   -3.9910   23.1030 N   0  0  0  0  0  0  0  0  0  0  0  0
    7.7290   -3.7200   22.5980 C   0  0  0  0  0  0  0  0  0  0  0  0
    6.1950   -2.5990   23.3470 C   0  0  0  0  0  0  0  0  0  0  0  0
    7.7060   -2.1500   22.8720 C   0  0  2  0  0  0  0  0  0  0  0  0
    7.1630   -2.0660   24.2940 C   0  0  0  0  0  0  0  0  0  0  0  0
    5.2580   -1.8980   22.7950 C   0  0  0  0  0  0  0  0  0  0  0  0
    6.5120   -1.4660   22.0760 N   0  0  0  0  0  0  0  0  0  0  0  0
    6.4330   -1.8650   20.6520 C   0  0  0  0  0  0  0  0  0  0  0  0
    7.1770   -0.9960   19.8920 C   0  0  0  0  0  0  0  0  0  0  0  0
    8.1840   -0.3740   20.7290 N   0  0  0  0  0  0  0  0  0  0  0  0
    8.0140    0.9560   21.1220 C   0  0  0  0  0  0  0  0  0  0  0  0
    8.9150    1.7900   21.1340 O   0  0  0  0  0  0  0  0  0  0  0  0
    6.6290    1.3880   21.5380 C   0  0  0  0  0  0  0  0  0  0  0  0
    6.6550    1.3910   23.0650 C   0  0  0  0  0  0  0  0  0  0  0  0
    5.5790    1.7090   20.6780 C   0  0  0  0  0  0  0  0  0  0  0  0
    5.3000    1.8160   23.6540 C   0  0  0  0  0  0  0  0  0  0  0  0
    4.3530    2.0950   21.2270 C   0  0  0  0  0  0  0  0  0  0  0  0
    5.6630    1.6740   19.2790 C   0  0  0  0  0  0  0  0  0  0  0  0
    4.2620    2.1320   22.6010 C   0  0  0  0  0  0  0  0  0  0  0  0
    3.2480    2.4370   20.4600 C   0  0  0  0  0  0  0  0  0  0  0  0
    4.6010    2.0050   18.4740 C   0  0  0  0  0  0  0  0  0  0  0  0
    3.3900    2.3880   19.0640 C   0  0  0  0  0  0  0  0  0  0  0  0
  1  2  1  0
  3  2  1  0
  3  4  2  0
  3  5  2  0
  3  6  1  0
  6  7  1  0
  6  8  1  0
  9  7  1  6
  8 10  1  0
  9 10  1  0
  8 11  1  0
  9 12  1  0
 11 12  1  0
 12 13  1  0
 13 14  1  0
 14 15  1  0
 15 16  1  0
 16 17  2  0
 16 18  1  0
 18 19  2  0
 18 20  1  0
 19 21  1  0
 20 22  2  0
 20 23  1  0
 21 24  2  0
 22 24  1  0
 22 25  1  0
 23 26  2  0
 25 27  2  0
 26 27  1  0
M  END
