MAK-UNK-849bee6c-23-nitrile
     RDKit          3D

 28 30  0  0  0  0  0  0  0  0999 V2000
    6.6470   -3.4260   19.4730 C   0  0  0  0  0  0  0  0  0  0  0  0
    5.9490   -3.0480   18.4840 N   0  0  0  0  0  0  0  0  0  0  0  0
    6.5240   -2.7910   20.6870 N   0  0  0  0  0  0  0  0  0  0  0  0
    6.1870   -3.5030   21.9000 C   0  0  0  0  0  0  0  0  0  0  0  0
    6.9950   -1.4390   20.8650 C   0  0  0  0  0  0  0  0  0  0  0  0
    7.3760   -3.4730   22.8760 C   0  0  0  0  0  0  0  0  0  0  0  0
    8.2290   -1.4730   21.7690 C   0  0  0  0  0  0  0  0  0  0  0  0
    8.5270   -2.8500   22.2270 N   0  0  0  0  0  0  0  0  0  0  0  0
    9.7950   -2.8260   22.7460 C   0  0  0  0  0  0  0  0  0  0  0  0
    9.9570   -1.5040   23.3330 C   0  0  0  0  0  0  0  0  0  0  0  0
    9.3910   -1.3490   24.6250 C   0  0  0  0  0  0  0  0  0  0  0  0
   10.5650   -0.4500   22.7150 C   0  0  0  0  0  0  0  0  0  0  0  0
    9.5570   -0.0290   25.1640 C   0  0  0  0  0  0  0  0  0  0  0  0
   10.6880    0.8500   23.2610 C   0  0  0  0  0  0  0  0  0  0  0  0
    9.0200    0.2130   26.4540 C   0  0  0  0  0  0  0  0  0  0  0  0
   10.1660    0.9390   24.4860 C   0  0  0  0  0  0  0  0  0  0  0  0
   11.1650    1.3470   22.4820 N   0  0  0  0  0  0  0  0  0  0  0  0
   11.4800    2.6880   22.6130 C   0  0  0  0  0  0  0  0  0  0  0  0
   10.6160    3.7190   22.5920 N   0  0  0  0  0  0  0  0  0  0  0  0
   12.9220    2.7260   22.7800 C   0  0  0  0  0  0  0  0  0  0  0  0
   11.1470    4.9470   22.7360 C   0  0  0  0  0  0  0  0  0  0  0  0
   13.3170    4.2040   22.9170 C   0  0  0  0  0  0  0  0  0  0  0  0
   13.5650    1.4430   22.7770 N   0  0  0  0  0  0  0  0  0  0  0  0
   10.2640    6.0310   22.7330 C   0  0  0  0  0  0  0  0  0  0  0  0
   12.4430    5.2390   22.8900 N   0  0  0  0  0  0  0  0  0  0  0  0
   13.0410    0.2110   23.2040 C   0  0  0  0  0  0  0  0  0  0  0  0
    9.4190    7.0770   22.7440 N   0  0  0  0  0  0  0  0  0  0  0  0
   13.2030   -0.9690   22.2340 C   0  0  0  0  0  0  0  0  0  0  0  0
  1  2  2  3
  1  3  1  0
  3  4  1  0
  3  5  1  0
  4  6  1  0
  5  7  1  0
  6  8  1  0
  7  8  1  0
  8  9  1  0
  9 10  1  0
 10 11  2  0
 10 12  1  0
 11 13  1  0
 12 14  2  0
 13 15  1  0
 13 16  2  0
 14 16  1  0
 14 17  1  0
 17 18  1  0
 18 19  2  0
 18 20  1  0
 19 21  1  0
 20 22  2  0
 20 23  1  0
 21 24  1  0
 21 25  2  0
 22 25  1  0
 23 26  1  0
 24 27  3  0
 26 28  1  0
M  END
