MAK-UNK-ec98eaf6-11-bromoalkyne
     RDKit          3D

 22 25  0  0  0  0  0  0  0  0999 V2000
    6.9200   -3.4420   19.6630 C   0  0  0  0  0  0  0  0  0  0  0  0
    5.9470   -2.8660   18.7060 C   0  0  0  0  0  0  0  0  0  0  0  0
    6.8990   -2.9660   20.9590 N   0  0  0  0  0  0  0  0  0  0  0  0
    7.0180   -1.4840   21.2030 C   0  0  0  0  0  0  0  0  0  0  0  0
    7.6090   -3.5270   22.1190 C   0  0  1  0  0  0  0  0  0  0  0  0
    8.2330   -1.5280   22.1720 C   0  0  2  0  0  0  0  0  0  0  0  0
    8.9700   -2.8080   22.0190 C   0  0  0  0  0  0  0  0  0  0  0  0
    6.9510   -3.1080   23.2540 C   0  0  0  0  0  0  0  0  0  0  0  0
    7.8340   -1.9230   23.5300 N   0  0  0  0  0  0  0  0  0  0  0  0
    9.0040   -2.2990   24.3170 C   0  0  0  0  0  0  0  0  0  0  0  0
   10.1550   -1.5700   23.9970 C   0  0  0  0  0  0  0  0  0  0  0  0
   10.7330   -0.6670   24.9400 C   0  0  0  0  0  0  0  0  0  0  0  0
   11.0710   -1.5770   22.4990 S   0  0  0  0  0  0  0  0  0  0  0  0
   11.8360   -0.0540   24.3640 N   0  0  0  0  0  0  0  0  0  0  0  0
   12.1040   -0.3830   23.1620 C   0  0  0  0  0  0  0  0  0  0  0  0
   13.1870    0.3320   22.5860 C   0  0  0  0  0  0  0  0  0  0  0  0
   12.3700    1.6400   22.6990 C   0  0  0  0  0  0  0  0  0  0  0  0
   13.1070    2.9190   22.5650 C   0  0  0  0  0  0  0  0  0  0  0  0
   10.9880    1.6190   22.9170 C   0  0  0  0  0  0  0  0  0  0  0  0
   12.4500    4.1120   22.6490 C   0  0  0  0  0  0  0  0  0  0  0  0
   10.3160    2.8550   23.0050 C   0  0  0  0  0  0  0  0  0  0  0  0
   11.0590    4.0650   22.8700 C   0  0  0  0  0  0  0  0  0  0  0  0
  1  2  2  3
  1  3  1  0
  3  4  1  0
  3  5  1  0
  6  4  1  6
  5  7  1  0
  6  7  1  0
  5  8  1  1
  6  9  1  0
  8  9  1  0
  9 10  1  0
 10 11  1  0
 11 12  2  0
 11 13  1  0
 12 14  1  0
 13 15  1  0
 14 15  2  0
 15 16  1  0
 16 17  1  0
 17 18  2  0
 17 19  1  0
 18 20  1  0
 19 21  2  0
 20 22  2  0
 21 22  1  0
M  END
