MAK-UNK-1cb0e944-13
     RDKit          3D

 23 25  0  0  0  0  0  0  0  0999 V2000
   10.6770    7.1980   23.3650 N   0  0  0  0  0  0  0  0  0  0  0  0
   12.1390    7.5160   24.1550 S   0  0  0  0  0  0  0  0  0  0  0  0
   11.8750    7.7890   25.5510 O   0  0  0  0  0  0  0  0  0  0  0  0
   12.9590    8.3550   23.3190 O   0  0  0  0  0  0  0  0  0  0  0  0
   12.7770    5.9810   24.0730 N   0  0  0  0  0  0  0  0  0  0  0  0
   12.8060    5.3420   22.7570 C   0  0  1  0  0  0  0  0  0  0  0  0
   14.1620    4.8200   22.4080 C   0  0  0  0  0  0  0  0  0  0  0  0
   11.9510    4.0850   22.8930 C   0  0  0  0  0  0  0  0  0  0  0  0
   14.0300    3.4290   21.8670 C   0  0  0  0  0  0  0  0  0  0  0  0
   12.5950    2.9770   22.0960 C   0  0  1  0  0  0  0  0  0  0  0  0
   12.3310    1.5020   22.6280 C   0  0  0  0  0  0  0  0  0  0  0  0
   11.1360    0.9420   23.3160 C   0  0  0  0  0  0  0  0  0  0  0  0
   13.4180    0.1890   22.4980 S   0  0  0  0  0  0  0  0  0  0  0  0
   11.1570   -0.3980   23.6860 C   0  0  0  0  0  0  0  0  0  0  0  0
   12.3820   -0.9700   23.2910 C   0  0  0  0  0  0  0  0  0  0  0  0
   10.0740   -0.9940   24.3530 C   0  0  0  0  0  0  0  0  0  0  0  0
    9.8590   -2.3390   24.2990 N   0  0  0  0  0  0  0  0  0  0  0  0
   10.8250   -3.1690   24.8240 C   0  0  0  0  0  0  0  0  0  0  0  0
    8.4360   -2.6980   24.6090 C   0  0  0  0  0  0  0  0  0  0  0  0
   10.5090   -4.2730   25.7030 C   0  0  0  0  0  0  0  0  0  0  0  0
    8.2860   -3.9570   25.1650 C   0  0  0  0  0  0  0  0  0  0  0  0
    9.1950   -4.3250   26.1420 C   0  0  0  0  0  0  0  0  0  0  0  0
    9.0540   -5.3730   26.7440 O   0  0  0  0  0  0  0  0  0  0  0  0
  2  1  1  0
  2  3  2  0
  2  4  2  0
  2  5  1  0
  6  5  1  1
  6  7  1  0
  6  8  1  0
  7  9  1  0
  8 10  1  0
  9 10  1  0
 10 11  1  1
 11 12  2  0
 11 13  1  0
 12 14  1  0
 13 15  1  0
 14 15  2  0
 14 16  1  0
 16 17  1  0
 17 18  1  0
 17 19  1  0
 18 20  1  0
 19 21  1  0
 20 22  1  0
 21 22  1  0
 22 23  1  0
M  END
