MAK-UNK-702fb7d3-7-vinylsulfonamide
     RDKit          3D

 44 49  0  0  0  0  0  0  0  0999 V2000
    6.6430   -4.4840   20.1340 C   0  0  0  0  0  0  0  0  0  0  0  0
    7.3880   -3.4840   20.9940 C   0  0  0  0  0  0  0  0  0  0  0  0
    6.1450   -2.8640   22.0790 S   0  0  0  0  0  0  0  0  0  0  0  0
    4.9200   -3.5580   21.7040 O   0  0  0  0  0  0  0  0  0  0  0  0
    6.2410   -1.4250   22.0520 O   0  0  0  0  0  0  0  0  0  0  0  0
    6.6480   -3.3860   23.6030 N   0  0  0  0  0  0  0  0  0  0  0  0
    7.5780   -4.5040   23.6200 C   0  0  0  0  0  0  0  0  0  0  0  0
    6.0340   -3.0210   24.8750 C   0  0  1  0  0  0  0  0  0  0  0  0
    8.2220   -4.7710   24.9730 C   0  0  0  0  0  0  0  0  0  0  0  0
    6.9260   -3.0790   26.1920 C   0  0  2  0  0  0  0  0  0  0  0  0
    5.5380   -1.7420   24.6910 N   0  0  0  0  0  0  0  0  0  0  0  0
    9.2730   -5.8350   25.0110 C   0  0  0  0  0  0  0  0  0  0  0  0
    7.8980   -4.0930   26.1820 C   0  0  0  0  0  0  0  0  0  0  0  0
    6.1210   -3.0010   27.3340 C   0  0  0  0  0  0  0  0  0  0  0  0
    4.1110   -1.4170   24.8570 C   0  0  0  0  0  0  0  0  0  0  0  0
    9.2250   -5.3970   26.4000 C   0  0  0  0  0  0  0  0  0  0  0  0
    8.5330   -4.3970   27.4290 C   0  0  0  0  0  0  0  0  0  0  0  0
    5.9880   -4.1340   28.1450 C   0  0  0  0  0  0  0  0  0  0  0  0
    5.4660   -1.7890   27.6520 C   0  0  0  0  0  0  0  0  0  0  0  0
    3.6830   -0.6530   23.7710 C   0  0  0  0  0  0  0  0  0  0  0  0
    9.5290   -5.3420   27.7110 C   0  0  0  0  0  0  0  0  0  0  0  0
    5.1080   -4.0710   29.4190 C   0  0  0  0  0  0  0  0  0  0  0  0
    4.6520   -1.6530   28.7910 C   0  0  0  0  0  0  0  0  0  0  0  0
    2.7580    0.5260   23.8420 C   0  0  0  0  0  0  0  0  0  0  0  0
    2.8910    0.3420   23.8980 C   0  0  0  0  0  0  0  0  0  0  0  0
    4.4260   -2.6980   29.6950 C   0  0  0  0  0  0  0  0  0  0  0  0
    1.8920    1.7540   23.3150 C   0  0  0  0  0  0  0  0  0  0  0  0
    2.5970    0.9590   22.6260 N   0  0  0  0  0  0  0  0  0  0  0  0
    1.9000    2.1110   21.8410 C   0  0  0  0  0  0  0  0  0  0  0  0
    2.1350    1.8250   21.1710 S   0  0  0  0  0  0  0  0  0  0  0  0
    0.6190    1.5650   21.9560 C   0  0  0  0  0  0  0  0  0  0  0  0
    3.1640    2.5340   22.3770 C   0  0  0  0  0  0  0  0  0  0  0  0
    0.9720    1.1230   20.6330 O   0  0  0  0  0  0  0  0  0  0  0  0
    2.0920    3.2690   21.4060 O   0  0  0  0  0  0  0  0  0  0  0  0
    3.4870    1.4120   20.1050 C   0  0  0  0  0  0  0  0  0  0  0  0
    0.3310    1.2310   23.2270 C   0  0  0  0  0  0  0  0  0  0  0  0
    2.6460    2.1000   23.6910 C   0  0  0  0  0  0  0  0  0  0  0  0
    3.3370    2.8270   21.0810 F   0  0  0  0  0  0  0  0  0  0  0  0
    4.3120    0.3350   20.4300 C   0  0  0  0  0  0  0  0  0  0  0  0
    3.7470    2.1300   18.9490 C   0  0  0  0  0  0  0  0  0  0  0  0
    1.3740    1.5140   24.1080 C   0  0  0  0  0  0  0  0  0  0  0  0
    5.3740    0.0150   19.5810 C   0  0  0  0  0  0  0  0  0  0  0  0
    4.7770    1.8240   18.1160 N   0  0  0  0  0  0  0  0  0  0  0  0
    5.5630    0.7860   18.4440 C   0  0  0  0  0  0  0  0  0  0  0  0
  1  2  1  0
  3  2  1  0
  3  4  2  0
  3  5  2  0
  3  6  1  0
  6  7  1  0
  6  8  1  0
  7  9  1  0
  8 10  1  0
  8 11  1  6
  9 12  1  0
  9 13  2  0
 10 13  1  0
 10 14  1  1
 11 15  1  0
 12 16  2  0
 13 17  1  0
 14 18  2  0
 14 19  1  0
 15 20  1  0
 16 21  1  0
 17 21  2  0
 18 22  1  0
 19 23  2  0
 20 24  1  0
 20 25  2  0
 22 26  2  0
 23 26  1  0
 24 27  2  0
 25 28  1  0
 27 28  1  0
 27 29  1  0
 28 30  1  0
 29 31  2  0
 29 32  1  0
 30 33  2  0
 30 34  2  0
 30 35  1  0
 31 36  1  0
 32 37  2  0
 32 38  1  0
 35 39  2  0
 35 40  1  0
 36 41  2  0
 37 41  1  0
 39 42  1  0
 40 43  2  0
 42 44  2  0
 43 44  1  0
M  END
