MAK-UNK-ec98eaf6-12-bromoalkyne
     RDKit          3D

 22 25  0  0  0  0  0  0  0  0999 V2000
    7.4680   -3.5650   20.0380 C   0  0  0  0  0  0  0  0  0  0  0  0
    6.0210   -3.6210   19.5710 C   0  0  0  0  0  0  0  0  0  0  0  0
    7.9280   -3.0860   21.3050 N   0  0  0  0  0  0  0  0  0  0  0  0
    8.2210   -3.9490   22.5120 C   0  0  0  0  0  0  0  0  0  0  0  0
    8.7420   -1.8520   21.6360 C   0  0  2  0  0  0  0  0  0  0  0  0
    9.5490   -3.2360   22.9730 C   0  0  1  0  0  0  0  0  0  0  0  0
   10.1320   -2.4580   21.8180 C   0  0  0  0  0  0  0  0  0  0  0  0
    8.3240   -1.4280   22.8970 C   0  0  2  0  0  0  0  0  0  0  0  0
    9.0890   -2.0490   23.8600 C   0  0  0  0  0  0  0  0  0  0  0  0
    6.8850   -1.8500   23.1700 C   0  0  0  0  0  0  0  0  0  0  0  0
    8.2930    0.1180   23.1720 C   0  0  0  0  0  0  0  0  0  0  0  0
    6.6060   -0.9260   24.1790 C   0  0  1  0  0  0  0  0  0  0  0  0
    6.9890    0.4090   23.6580 C   0  0  1  0  0  0  0  0  0  0  0  0
    5.1280   -0.9850   24.4590 C   0  0  0  0  0  0  0  0  0  0  0  0
    7.0350    1.4270   24.7830 C   0  0  0  0  0  0  0  0  0  0  0  0
    4.3890    0.1640   24.3670 N   0  0  0  0  0  0  0  0  0  0  0  0
    4.6050   -2.2030   24.7970 O   0  0  0  0  0  0  0  0  0  0  0  0
    7.4570    0.9090   26.1160 C   0  0  0  0  0  0  0  0  0  0  0  0
    6.6970    2.7660   24.5950 C   0  0  0  0  0  0  0  0  0  0  0  0
    7.5330    1.7160   27.2270 C   0  0  0  0  0  0  0  0  0  0  0  0
    6.7760    3.5850   25.7300 C   0  0  0  0  0  0  0  0  0  0  0  0
    7.1800    3.0740   26.9920 C   0  0  0  0  0  0  0  0  0  0  0  0
  1  2  2  3
  1  3  1  0
  3  4  1  0
  5  3  1  1
  6  4  1  6
  5  7  1  0
  6  7  1  0
  5  8  1  0
  6  9  1  0
  8  9  1  1
  8 10  1  0
  8 11  1  0
 10 12  1  0
 11 13  1  0
 12 13  1  0
 12 14  1  6
 13 15  1  1
 14 16  1  0
 14 17  2  0
 15 18  2  0
 15 19  1  0
 18 20  1  0
 19 21  2  0
 20 22  2  0
 21 22  1  0
M  END
