MAK-UNK-9955b1f3-17-nitrile
     RDKit          3D

 13 13  0  0  0  0  0  0  0  0999 V2000
    8.3910   -3.4600   19.7950 C   0  0  0  0  0  0  0  0  0  0  0  0
    7.0840   -3.4190   19.5950 N   0  0  0  0  0  0  0  0  0  0  0  0
    9.1210   -2.5290   21.0390 C   0  0  0  0  0  0  0  0  0  0  0  0
   10.7040   -2.1680   21.5160 C   0  0  0  0  0  0  0  0  0  0  0  0
    8.2320   -1.9700   21.7510 N   0  0  0  0  0  0  0  0  0  0  0  0
   10.4400   -1.1120   22.8130 C   0  0  0  0  0  0  0  0  0  0  0  0
    8.9280   -1.3200   22.5480 C   0  0  0  0  0  0  0  0  0  0  0  0
    9.2760   -0.5560   23.4840 C   0  0  0  0  0  0  0  0  0  0  0  0
    9.8940    0.2250   24.4400 C   0  0  0  0  0  0  0  0  0  0  0  0
    8.7190    0.7810   24.9580 C   0  0  0  0  0  0  0  0  0  0  0  0
    8.0140    1.8020   24.3520 N   0  0  0  0  0  0  0  0  0  0  0  0
    8.1100    0.2770   26.0850 C   0  0  0  0  0  0  0  0  0  0  0  0
    6.9150    0.8130   26.4660 C   0  0  0  0  0  0  0  0  0  0  0  0
  1  2  2  3
  1  3  1  0
  3  4  2  0
  3  5  1  0
  4  6  1  0
  5  7  2  0
  6  8  2  0
  7  8  1  0
  8  9  1  0
  9 10  1  0
 10 11  1  0
 10 12  2  3
 12 13  1  0
M  END
