MAK-UNK-ec98eaf6-22-acrylamide
     RDKit          3D

 23 25  0  0  0  0  0  0  0  0999 V2000
    7.3500   -2.8170   18.1570 C   0  0  0  0  0  0  0  0  0  0  0  0
    6.4240   -2.2150   19.1660 C   0  0  0  0  0  0  0  0  0  0  0  0
    5.9340   -3.1220   20.2480 C   0  0  0  0  0  0  0  0  0  0  0  0
    5.2340   -4.1510   20.0580 O   0  0  0  0  0  0  0  0  0  0  0  0
    6.3740   -2.6490   21.4510 N   0  0  0  0  0  0  0  0  0  0  0  0
    6.0470   -3.2080   22.7720 C   0  0  0  0  0  0  0  0  0  0  0  0
    7.7660   -2.2110   21.5780 C   0  0  2  0  0  0  0  0  0  0  0  0
    7.4620   -3.3520   23.2610 C   0  0  1  0  0  0  0  0  0  0  0  0
    8.3240   -3.5030   22.1870 C   0  0  0  0  0  0  0  0  0  0  0  0
    7.7910   -1.2260   22.5030 C   0  0  0  0  0  0  0  0  0  0  0  0
    7.9290   -2.0010   23.7130 N   0  0  0  0  0  0  0  0  0  0  0  0
    9.1460   -2.0930   24.3840 C   0  0  0  0  0  0  0  0  0  0  0  0
   10.2640   -1.2920   23.9920 C   0  0  0  0  0  0  0  0  0  0  0  0
   11.1660   -1.8660   22.9280 C   0  0  0  0  0  0  0  0  0  0  0  0
   10.4920   -0.0430   24.5770 C   0  0  0  0  0  0  0  0  0  0  0  0
   12.2490   -0.8460   22.6980 C   0  0  0  0  0  0  0  0  0  0  0  0
   11.5800    0.7790   24.2180 N   0  0  0  0  0  0  0  0  0  0  0  0
    9.5670    0.4200   25.5900 N   0  0  0  0  0  0  0  0  0  0  0  0
   13.0820   -1.4560   21.6400 C   0  0  0  0  0  0  0  0  0  0  0  0
   12.4020    0.3710   23.3240 C   0  0  0  0  0  0  0  0  0  0  0  0
    8.4850    1.1630   25.1990 C   0  0  0  0  0  0  0  0  0  0  0  0
   13.6220   -1.8970   20.7640 N   0  0  0  0  0  0  0  0  0  0  0  0
    8.9340    2.2550   24.4330 C   0  0  0  0  0  0  0  0  0  0  0  0
  1  2  1  0
  2  3  1  0
  3  4  2  0
  3  5  1  0
  5  6  1  0
  5  7  1  0
  8  6  1  6
  7  9  1  0
  8  9  1  0
  7 10  1  1
  8 11  1  0
 10 11  1  0
 11 12  1  0
 12 13  1  0
 13 14  2  0
 13 15  1  0
 14 16  1  0
 15 17  2  0
 15 18  1  0
 16 19  1  0
 16 20  2  0
 17 20  1  0
 18 21  1  0
 19 22  3  0
 21 23  1  0
M  END
