MAK-UNK-148caf23-6-chloroacetamide
     RDKit          3D

 35 38  0  0  0  0  0  0  0  0999 V2000
    8.4670   -3.7400   19.4970 C   0  0  0  0  0  0  0  0  0  0  0  0
    7.6290   -2.7270   19.9910 C   0  0  0  0  0  0  0  0  0  0  0  0
    6.5000   -2.8260   19.2590 O   0  0  0  0  0  0  0  0  0  0  0  0
    8.1500   -1.9110   21.2650 C   0  0  0  0  0  0  0  0  0  0  0  0
    8.4310   -2.6280   22.5880 C   0  0  0  0  0  0  0  0  0  0  0  0
    8.4070   -0.5720   21.3600 C   0  0  0  0  0  0  0  0  0  0  0  0
    8.9210   -2.0730   23.9520 C   0  0  0  0  0  0  0  0  0  0  0  0
    8.8300    0.0150   22.5080 N   0  0  0  0  0  0  0  0  0  0  0  0
    9.0580   -0.5730   23.6800 C   0  0  0  0  0  0  0  0  0  0  0  0
    9.4310    0.2410   24.7700 C   0  0  1  0  0  0  0  0  0  0  0  0
    8.4410    1.4080   25.0590 C   0  0  0  0  0  0  0  0  0  0  0  0
    9.5810   -0.4410   25.9560 N   0  0  0  0  0  0  0  0  0  0  0  0
    7.0500    0.8840   25.3480 C   0  0  0  0  0  0  0  0  0  0  0  0
    8.4080   -0.2380   26.7380 C   0  0  0  0  0  0  0  0  0  0  0  0
    8.5090    0.0090   28.1250 C   0  0  0  0  0  0  0  0  0  0  0  0
    7.4320   -0.1560   28.9730 C   0  0  0  0  0  0  0  0  0  0  0  0
    9.5670    0.4410   28.9730 C   0  0  0  0  0  0  0  0  0  0  0  0
    7.8640    0.1920   30.3780 C   0  0  0  0  0  0  0  0  0  0  0  0
    9.1650    0.5460   30.3250 N   0  0  0  0  0  0  0  0  0  0  0  0
    6.8990    0.1200   31.6250 C   0  0  0  0  0  0  0  0  0  0  0  0
   10.2160    1.0360   31.5950 S   0  0  0  0  0  0  0  0  0  0  0  0
    7.4470    0.0870   33.0200 C   0  0  0  0  0  0  0  0  0  0  0  0
    5.4980    0.0770   31.4630 C   0  0  0  0  0  0  0  0  0  0  0  0
    9.6280    0.6380   32.8500 O   0  0  0  0  0  0  0  0  0  0  0  0
   11.5310    0.5830   31.2290 O   0  0  0  0  0  0  0  0  0  0  0  0
   10.2620    2.7910   31.6040 C   0  0  0  0  0  0  0  0  0  0  0  0
    6.5110    0.0100   34.1890 C   0  0  0  0  0  0  0  0  0  0  0  0
    4.6170    0.0060   32.5640 C   0  0  0  0  0  0  0  0  0  0  0  0
    4.9700    0.1020   30.2330 F   0  0  0  0  0  0  0  0  0  0  0  0
   11.1030    3.4150   32.7430 C   0  0  0  0  0  0  0  0  0  0  0  0
    9.5420    3.4510   30.5980 C   0  0  0  0  0  0  0  0  0  0  0  0
    5.0580   -0.0280   33.8810 C   0  0  0  0  0  0  0  0  0  0  0  0
   10.8880    4.9610   32.3960 C   0  0  0  0  0  0  0  0  0  0  0  0
    9.4680    4.7890   30.4570 N   0  0  0  0  0  0  0  0  0  0  0  0
   10.1380    5.4910   31.3510 C   0  0  0  0  0  0  0  0  0  0  0  0
  1  2  1  0
  2  3  2  0
  2  4  1  0
  4  5  2  0
  4  6  1  0
  5  7  1  0
  6  8  2  0
  7  9  2  0
  8  9  1  0
  9 10  1  0
 10 11  1  1
 10 12  1  0
 11 13  1  0
 12 14  1  0
 14 15  1  0
 15 16  1  0
 15 17  2  0
 16 18  2  0
 17 19  1  0
 18 19  1  0
 18 20  1  0
 19 21  1  0
 20 22  2  0
 20 23  1  0
 21 24  2  0
 21 25  2  0
 21 26  1  0
 22 27  1  0
 23 28  2  0
 23 29  1  0
 26 30  2  0
 26 31  1  0
 27 32  2  0
 28 32  1  0
 30 33  1  0
 31 34  2  0
 33 35  2  0
 34 35  1  0
M  END
