MAK-UNK-9e4a73aa-3
     RDKit          3D

 26 29  0  0  0  0  0  0  0  0999 V2000
    7.9930    0.4500   23.5810 O   0  0  0  0  0  0  0  0  0  0  0  0
    8.0700   -0.6280   22.9790 C   0  0  0  0  0  0  0  0  0  0  0  0
    7.3850   -0.9120   21.6980 C   0  0  0  0  0  0  0  0  0  0  0  0
    8.8390   -1.7370   23.4230 N   0  0  0  0  0  0  0  0  0  0  0  0
    7.1900    0.2800   20.8500 C   0  0  0  0  0  0  0  0  0  0  0  0
    6.9650   -2.1930   21.3220 C   0  0  0  0  0  0  0  0  0  0  0  0
    8.3090   -3.1030   23.2010 C   0  0  0  0  0  0  0  0  0  0  0  0
   10.2290   -1.3230   23.4440 C   0  0  0  0  0  0  0  0  0  0  0  0
    6.5730    0.0750   19.6610 C   0  0  0  0  0  0  0  0  0  0  0  0
    6.3280   -2.3410   20.1070 C   0  0  0  0  0  0  0  0  0  0  0  0
    7.1900   -3.2930   22.1460 C   0  0  1  0  0  0  0  0  0  0  0  0
    8.6690   -4.1010   23.8070 O   0  0  0  0  0  0  0  0  0  0  0  0
   11.2830   -2.0880   23.8930 C   0  0  0  0  0  0  0  0  0  0  0  0
   10.5460   -0.0230   22.9780 C   0  0  0  0  0  0  0  0  0  0  0  0
    6.3510    1.0850   18.8180 F   0  0  0  0  0  0  0  0  0  0  0  0
    6.1520   -1.2140   19.2970 C   0  0  0  0  0  0  0  0  0  0  0  0
    5.9990   -4.1030   22.6860 C   0  0  0  0  0  0  0  0  0  0  0  0
   12.5890   -1.6000   23.8610 C   0  0  0  0  0  0  0  0  0  0  0  0
   11.7690    0.5730   22.9200 N   0  0  0  0  0  0  0  0  0  0  0  0
    5.4030   -1.3630   17.8160 Cl  0  0  0  0  0  0  0  0  0  0  0  0
    4.7850   -3.3260   23.2000 C   0  0  0  0  0  0  0  0  0  0  0  0
    5.8480   -5.4820   22.7740 C   0  0  0  0  0  0  0  0  0  0  0  0
   12.8200   -0.2140   23.3490 C   0  0  0  0  0  0  0  0  0  0  0  0
    3.5830   -4.1090   23.7380 C   0  0  0  0  0  0  0  0  0  0  0  0
    4.7500   -6.1780   23.2630 C   0  0  0  0  0  0  0  0  0  0  0  0
    3.6200   -5.4960   23.7450 C   0  0  0  0  0  0  0  0  0  0  0  0
  1  2  2  0
  2  3  1  0
  2  4  1  0
  3  5  1  0
  3  6  2  0
  4  7  1  0
  4  8  1  0
  5  9  2  0
  6 10  1  0
  6 11  1  0
  7 11  1  0
  7 12  2  0
  8 13  2  0
  8 14  1  0
  9 15  1  0
  9 16  1  0
 10 16  2  0
 11 17  1  1
 13 18  1  0
 14 19  2  0
 16 20  1  0
 17 21  2  0
 17 22  1  0
 18 23  2  0
 19 23  1  0
 21 24  1  0
 22 25  2  0
 24 26  2  0
 25 26  1  0
M  END
