MAK-UNK-69bf97dd-10-bromoalkyne
     RDKit          3D

 25 27  0  0  0  0  0  0  0  0999 V2000
    6.8760   -4.1240   20.0520 C   0  0  0  0  0  0  0  0  0  0  0  0
    6.1650   -3.1620   19.1070 C   0  0  0  0  0  0  0  0  0  0  0  0
    6.7300   -4.1010   21.4020 N   0  0  0  0  0  0  0  0  0  0  0  0
    7.7440   -3.3970   22.2020 C   0  0  0  0  0  0  0  0  0  0  0  0
    5.9800   -5.1690   22.0960 C   0  0  0  0  0  0  0  0  0  0  0  0
    6.8860   -2.6060   23.2180 C   0  0  0  0  0  0  0  0  0  0  0  0
    5.4590   -4.6960   23.4300 C   0  0  0  0  0  0  0  0  0  0  0  0
    6.4950   -3.8100   24.1130 C   0  0  0  0  0  0  0  0  0  0  0  0
    5.8610   -3.0760   25.2900 C   0  0  0  0  0  0  0  0  0  0  0  0
    4.6800   -3.2640   25.5950 O   0  0  0  0  0  0  0  0  0  0  0  0
    6.7020   -2.2160   25.9560 N   0  0  0  0  0  0  0  0  0  0  0  0
    6.2230   -1.4100   27.0750 C   0  0  2  0  0  0  0  0  0  0  0  0
    5.4980   -0.1710   26.5270 C   0  0  0  0  0  0  0  0  0  0  0  0
    7.3930   -0.9760   27.9770 C   0  0  0  0  0  0  0  0  0  0  0  0
    5.9680    1.1730   27.0670 C   0  0  0  0  0  0  0  0  0  0  0  0
    6.9340   -0.0120   28.9880 N   0  0  0  0  0  0  0  0  0  0  0  0
    6.3650    1.1580   28.5390 C   0  0  0  0  0  0  0  0  0  0  0  0
    6.2480   -0.7670   30.3440 S   0  0  0  0  0  0  0  0  0  0  0  0
    6.0630   -2.1560   29.9740 O   0  0  0  0  0  0  0  0  0  0  0  0
    7.0260   -0.3440   31.4920 O   0  0  0  0  0  0  0  0  0  0  0  0
    4.6160   -0.1300   30.6540 C   0  0  0  0  0  0  0  0  0  0  0  0
    3.6650    0.4940   29.8330 C   0  0  0  0  0  0  0  0  0  0  0  0
    4.0330   -0.2870   32.2840 S   0  0  0  0  0  0  0  0  0  0  0  0
    2.5000    0.8430   30.4710 C   0  0  0  0  0  0  0  0  0  0  0  0
    2.5310    0.4640   31.9150 C   0  0  0  0  0  0  0  0  0  0  0  0
  1  2  2  3
  1  3  1  0
  3  4  1  0
  3  5  1  0
  4  6  1  0
  5  7  1  0
  6  8  1  0
  7  8  1  0
  8  9  1  0
  9 10  2  0
  9 11  1  0
 12 11  1  6
 12 13  1  0
 12 14  1  0
 13 15  1  0
 14 16  1  0
 15 17  1  0
 16 17  1  0
 16 18  1  0
 18 19  2  0
 18 20  2  0
 18 21  1  0
 21 22  2  0
 21 23  1  0
 22 24  1  0
 23 25  1  0
 24 25  2  0
M  END
