MAK-UNK-748f8b7a-11
     RDKit          3D

 16 17  0  0  0  0  0  0  0  0999 V2000
    0.9680  -19.8860   -0.2340 O   0  0  0  0  0  0  0  0  0  0  0  0
    2.0380  -20.4450   -0.4810 C   0  0  0  0  0  0  0  0  0  0  0  0
    2.6910  -20.2060   -1.6970 C   0  0  0  0  0  0  0  0  0  0  0  0
    2.7320  -21.4250    0.4730 C   0  0  0  0  0  0  0  0  0  0  0  0
    2.6730  -18.8730   -2.1330 C   0  0  0  0  0  0  0  0  0  0  0  0
    2.7190  -22.8160   -0.0240 N   0  0  0  0  0  0  0  0  0  0  0  0
    1.7300  -17.9330   -1.6660 C   0  0  0  0  0  0  0  0  0  0  0  0
    3.5710  -18.3790   -3.0540 C   0  0  0  0  0  0  0  0  0  0  0  0
    1.8130  -23.6490    0.8060 C   0  0  0  0  0  0  0  0  0  0  0  0
    4.0750  -23.3760   -0.3030 C   0  0  0  0  0  0  0  0  0  0  0  0
    1.7000  -16.6520   -2.0810 N   0  0  0  0  0  0  0  0  0  0  0  0
    3.5740  -17.1060   -3.4940 N   0  0  0  0  0  0  0  0  0  0  0  0
    2.1190  -25.0060    0.8100 C   0  0  0  0  0  0  0  0  0  0  0  0
    4.3140  -24.7190    0.0250 C   0  0  0  0  0  0  0  0  0  0  0  0
    2.6300  -16.3010   -2.9780 C   0  0  0  0  0  0  0  0  0  0  0  0
    3.4990  -25.1870    1.0950 O   0  0  0  0  0  0  0  0  0  0  0  0
  1  2  2  0
  2  3  1  0
  2  4  1  0
  3  5  1  0
  4  6  1  0
  5  7  2  0
  5  8  1  0
  6  9  1  0
  6 10  1  0
  7 11  1  0
  8 12  2  0
  9 13  1  0
 10 14  1  0
 11 15  2  0
 12 15  1  0
 13 16  1  0
 14 16  1  0
M  END
