MAK-UNK-7c9d1431-4-bromoalkyne
     RDKit          3D

 20 21  0  0  0  0  0  0  0  0999 V2000
    6.6560   -4.0510   20.0460 C   0  0  0  0  0  0  0  0  0  0  0  0
    5.5160   -3.3820   19.3810 C   0  0  0  0  0  0  0  0  0  0  0  0
    6.6090   -4.5560   21.3790 N   0  0  0  0  0  0  0  0  0  0  0  0
    7.3850   -3.9360   22.4850 C   0  0  0  0  0  0  0  0  0  0  0  0
    6.2130   -5.9200   21.7720 C   0  0  0  0  0  0  0  0  0  0  0  0
    6.3710   -3.7840   23.6350 C   0  0  0  0  0  0  0  0  0  0  0  0
    5.3140   -5.7720   22.8600 C   0  0  0  0  0  0  0  0  0  0  0  0
    5.9190   -5.0040   23.9890 N   0  0  0  0  0  0  0  0  0  0  0  0
    5.2240   -5.1980   25.5040 S   0  0  0  0  0  0  0  0  0  0  0  0
    6.1850   -4.8160   26.5110 O   0  0  0  0  0  0  0  0  0  0  0  0
    4.5890   -6.4980   25.5340 O   0  0  0  0  0  0  0  0  0  0  0  0
    3.9160   -3.9830   25.6020 C   0  0  0  0  0  0  0  0  0  0  0  0
    4.2430   -2.5220   25.8120 C   0  0  0  0  0  0  0  0  0  0  0  0
    2.5550   -4.3620   25.4890 C   0  0  0  0  0  0  0  0  0  0  0  0
    3.1840   -1.6190   25.8870 C   0  0  0  0  0  0  0  0  0  0  0  0
    1.5330   -3.3970   25.5750 C   0  0  0  0  0  0  0  0  0  0  0  0
    1.8800   -2.0690   25.7700 C   0  0  0  0  0  0  0  0  0  0  0  0
    0.1670   -3.7770   25.4670 N   0  0  0  0  0  0  0  0  0  0  0  0
   -0.6540   -3.1610   26.1610 O   0  0  0  0  0  0  0  0  0  0  0  0
   -0.1330   -4.5920   24.5820 O   0  0  0  0  0  0  0  0  0  0  0  0
  1  2  2  3
  1  3  1  0
  3  4  1  0
  3  5  1  0
  4  6  1  0
  5  7  1  0
  6  8  1  0
  7  8  1  0
  8  9  1  0
  9 10  2  0
  9 11  2  0
  9 12  1  0
 12 13  2  0
 12 14  1  0
 13 15  1  0
 14 16  2  0
 15 17  2  0
 16 17  1  0
 16 18  1  0
 18 19  2  0
 18 20  1  0
M  CHG  2  18   1  20  -1
M  END
