MAK-UNK-10dfa458-8-acrylamide
     RDKit          3D

 23 25  0  0  0  0  0  0  0  0999 V2000
    8.1470   -3.6150   20.1230 C   0  0  0  0  0  0  0  0  0  0  0  0
    6.8380   -3.0620   19.7160 C   0  0  0  0  0  0  0  0  0  0  0  0
    5.9060   -4.0750   20.3080 C   0  0  0  0  0  0  0  0  0  0  0  0
    5.0340   -4.5410   19.6330 O   0  0  0  0  0  0  0  0  0  0  0  0
    6.1130   -4.5230   21.6170 N   0  0  0  0  0  0  0  0  0  0  0  0
    6.6200   -3.7330   22.7480 C   0  0  0  0  0  0  0  0  0  0  0  0
    5.5020   -5.7310   22.1040 C   0  0  0  0  0  0  0  0  0  0  0  0
    6.0200   -4.4090   23.9620 C   0  0  0  0  0  0  0  0  0  0  0  0
    4.6930   -5.8370   23.2740 C   0  0  0  0  0  0  0  0  0  0  0  0
    5.3920   -5.2270   24.4290 N   0  0  0  0  0  0  0  0  0  0  0  0
    4.5880   -5.0080   25.6730 C   0  0  0  0  0  0  0  0  0  0  0  0
    3.4870   -3.8930   25.7180 C   0  0  0  0  0  0  0  0  0  0  0  0
    2.1860   -4.2440   25.3310 C   0  0  0  0  0  0  0  0  0  0  0  0
    3.7060   -2.5840   26.1330 C   0  0  0  0  0  0  0  0  0  0  0  0
    1.1660   -3.2080   25.4130 N   0  0  0  0  0  0  0  0  0  0  0  0
    2.7120   -1.5910   26.2070 N   0  0  0  0  0  0  0  0  0  0  0  0
    1.4590   -1.9310   25.8530 C   0  0  0  0  0  0  0  0  0  0  0  0
    0.4760   -0.9410   25.9590 C   0  0  0  0  0  0  0  0  0  0  0  0
    0.7500    0.3510   26.4280 C   0  0  0  0  0  0  0  0  0  0  0  0
   -0.8560   -1.1920   25.5980 C   0  0  0  0  0  0  0  0  0  0  0  0
   -0.2180    1.3510   26.5420 C   0  0  0  0  0  0  0  0  0  0  0  0
   -1.9250   -0.1000   25.7210 C   0  0  0  0  0  0  0  0  0  0  0  0
   -1.5940    1.1720   26.1960 C   0  0  0  0  0  0  0  0  0  0  0  0
  1  2  1  0
  2  3  1  0
  3  4  2  0
  3  5  1  0
  5  6  1  0
  5  7  1  0
  6  8  1  0
  7  9  1  0
  8 10  1  0
  9 10  1  0
 10 11  1  0
 11 12  1  0
 12 13  2  0
 12 14  1  0
 13 15  1  0
 14 16  2  0
 15 17  2  0
 16 17  1  0
 17 18  1  0
 18 19  2  0
 18 20  1  0
 19 21  1  0
 20 22  2  0
 21 23  2  0
 22 23  1  0
M  END
