MAK-UNK-8fdbca50-5-nitrile
     RDKit          3D

 38 41  0  0  0  0  0  0  0  0999 V2000
    7.1770   -4.0000   19.9910 C   0  0  0  0  0  0  0  0  0  0  0  0
    6.0480   -3.6900   19.4680 N   0  0  0  0  0  0  0  0  0  0  0  0
    7.9690   -3.0670   20.5990 N   0  0  0  0  0  0  0  0  0  0  0  0
    7.6640   -1.6370   20.3940 C   0  0  0  0  0  0  0  0  0  0  0  0
    8.6600   -3.3880   21.8440 C   0  0  0  0  0  0  0  0  0  0  0  0
    8.2550   -0.6700   21.4540 C   0  0  0  0  0  0  0  0  0  0  0  0
    9.8020   -2.6350   21.9610 C   0  0  0  0  0  0  0  0  0  0  0  0
    9.3860   -1.2060   22.3170 C   0  0  0  0  0  0  0  0  0  0  0  0
   10.5670   -0.4580   22.4620 C   0  0  0  0  0  0  0  0  0  0  0  0
   10.6150    0.7520   22.3110 O   0  0  0  0  0  0  0  0  0  0  0  0
   11.7070   -1.3660   22.8450 N   0  0  0  0  0  0  0  0  0  0  0  0
   12.8290   -1.5640   21.9060 C   0  0  0  0  0  0  0  0  0  0  0  0
   11.6840   -1.9300   24.1990 C   0  0  1  0  0  0  0  0  0  0  0  0
   12.5210   -0.9410   24.9700 C   0  0  0  0  0  0  0  0  0  0  0  0
   10.1980   -1.9390   24.7140 C   0  0  0  0  0  0  0  0  0  0  0  0
    8.7530   -2.9170   25.1200 S   0  0  2  0  0  0  0  0  0  0  0  0
    7.4040   -2.7850   25.6070 O   0  0  0  0  0  0  0  0  0  0  0  0
    7.9240   -1.4220   25.4850 C   0  0  0  0  0  0  0  0  0  0  0  0
    8.5860   -4.5630   25.0010 N   0  0  0  0  0  0  0  0  0  0  0  0
    8.5390   -0.0530   25.1560 C   0  0  0  0  0  0  0  0  0  0  0  0
    6.6540   -1.4350   26.1000 C   0  0  0  0  0  0  0  0  0  0  0  0
    9.2910   -5.4060   25.7560 C   0  0  0  0  0  0  0  0  0  0  0  0
    7.7780   -5.2630   24.1800 C   0  0  0  0  0  0  0  0  0  0  0  0
    7.8170    1.0930   25.4780 C   0  0  0  0  0  0  0  0  0  0  0  0
    5.8720   -0.2530   26.4550 N   0  0  0  0  0  0  0  0  0  0  0  0
    9.0580   -6.7450   25.5420 C   0  0  0  0  0  0  0  0  0  0  0  0
    8.0290   -6.7530   24.4590 C   0  0  0  0  0  0  0  0  0  0  0  0
    6.9160   -4.7520   23.2730 C   0  0  0  0  0  0  0  0  0  0  0  0
    6.4830    0.9260   26.1310 C   0  0  0  0  0  0  0  0  0  0  0  0
    9.8250   -7.4600   26.3710 C   0  0  0  0  0  0  0  0  0  0  0  0
    6.6950   -3.3890   23.1710 C   0  0  0  0  0  0  0  0  0  0  0  0
    6.2160   -5.5540   22.3940 C   0  0  0  0  0  0  0  0  0  0  0  0
   10.0600   -9.3320   26.6670 N   0  0  0  0  0  0  0  0  0  0  0  0
    5.8540   -2.8480   22.2530 C   0  0  0  0  0  0  0  0  0  0  0  0
    5.3630   -4.9980   21.4560 C   0  0  0  0  0  0  0  0  0  0  0  0
    6.3510   -6.8890   22.4180 F   0  0  0  0  0  0  0  0  0  0  0  0
   10.0620  -10.7140   28.0750 C   0  0  0  0  0  0  0  0  0  0  0  0
    5.1620   -3.6040   21.3560 C   0  0  0  0  0  0  0  0  0  0  0  0
  1  2  2  3
  1  3  1  0
  3  4  1  0
  3  5  1  0
  4  6  1  0
  5  7  1  0
  6  8  1  0
  7  8  1  0
  8  9  1  0
  9 10  2  0
  9 11  1  0
 11 12  1  0
 11 13  1  0
 13 14  1  1
 13 15  1  0
 15 16  2  0
 16 17  2  0
 16 18  1  6
 16 19  1  0
 18 20  2  0
 18 21  1  0
 19 22  1  0
 19 23  1  0
 20 24  1  0
 21 25  2  0
 22 26  2  0
 23 27  2  0
 26 27  1  0
 23 28  1  0
 24 29  2  0
 25 29  1  0
 26 30  1  0
 28 31  2  0
 28 32  1  0
 30 33  1  0
 31 34  1  0
 32 35  2  0
 32 36  1  0
 33 37  1  0
 34 38  2  0
 35 38  1  0
M  END
