MAK-UNK-198e6d85-6
     RDKit          3D

 22 24  0  0  0  0  0  0  0  0999 V2000
    6.6890   -2.3400   19.6970 C   0  0  0  0  0  0  0  0  0  0  0  0
    6.0010   -3.4950   20.4410 C   0  0  0  0  0  0  0  0  0  0  0  0
    6.8250   -4.3340   21.1490 N   0  0  0  0  0  0  0  0  0  0  0  0
    6.3840   -5.6340   21.5620 C   0  0  0  0  0  0  0  0  0  0  0  0
    7.6520   -3.7130   22.1510 C   0  0  0  0  0  0  0  0  0  0  0  0
    6.9670   -5.9600   22.9200 C   0  0  0  0  0  0  0  0  0  0  0  0
    7.8500   -4.5970   23.4110 C   0  0  2  0  0  0  0  0  0  0  0  0
    6.6170   -4.9340   23.9700 C   0  0  0  0  0  0  0  0  0  0  0  0
    8.7260   -3.9770   24.3010 C   0  0  2  0  0  0  0  0  0  0  0  0
    9.3570   -2.5920   23.9250 C   0  0  0  0  0  0  0  0  0  0  0  0
    9.8040   -4.8650   24.6130 O   0  0  0  0  0  0  0  0  0  0  0  0
   10.7790   -2.4270   24.3390 C   0  0  0  0  0  0  0  0  0  0  0  0
   10.5580   -4.4830   25.6470 C   0  0  1  0  0  0  0  0  0  0  0  0
   11.3340   -3.3950   25.1960 C   0  0  0  0  0  0  0  0  0  0  0  0
   11.5580   -1.3600   23.8950 C   0  0  0  0  0  0  0  0  0  0  0  0
    9.6480   -4.5340   26.8570 C   0  0  0  0  0  0  0  0  0  0  0  0
   12.6640   -3.2400   25.5560 C   0  0  0  0  0  0  0  0  0  0  0  0
   12.8720   -1.2200   24.2610 C   0  0  0  0  0  0  0  0  0  0  0  0
   11.1140   -0.3180   23.0270 O   0  0  0  0  0  0  0  0  0  0  0  0
    8.6630   -5.6240   26.7650 N   0  0  0  0  0  0  0  0  0  0  0  0
   13.4110   -2.1840   25.1030 C   0  0  0  0  0  0  0  0  0  0  0  0
   13.5430   -0.1570   23.7660 O   0  0  0  0  0  0  0  0  0  0  0  0
  1  2  1  0
  2  3  1  0
  3  4  1  0
  3  5  1  0
  4  6  1  0
  7  5  1  6
  6  8  1  0
  7  8  1  0
  7  9  1  0
  9 10  1  6
  9 11  1  0
 10 12  1  0
 11 13  1  0
 12 14  2  0
 13 14  1  0
 12 15  1  0
 13 16  1  1
 14 17  1  0
 15 18  2  0
 15 19  1  0
 16 20  1  0
 17 21  2  0
 18 21  1  0
 18 22  1  0
M  END
