MAK-UNK-ec98eaf6-56-nitrile
     RDKit          3D

 37 41  0  0  0  0  0  0  0  0999 V2000
    6.7610   -3.6230   20.0080 C   0  0  0  0  0  0  0  0  0  0  0  0
    5.8920   -3.3580   19.1050 N   0  0  0  0  0  0  0  0  0  0  0  0
    6.6910   -3.1120   21.3140 N   0  0  0  0  0  0  0  0  0  0  0  0
    5.5550   -2.3320   21.8460 C   0  0  0  0  0  0  0  0  0  0  0  0
    7.7120   -2.3830   21.8530 C   0  0  2  0  0  0  0  0  0  0  0  0
    6.1630   -1.5890   23.0400 C   0  0  1  0  0  0  0  0  0  0  0  0
    7.3720   -2.4290   23.3450 C   0  0  0  0  0  0  0  0  0  0  0  0
    7.5580   -0.9170   21.3730 C   0  0  0  0  0  0  0  0  0  0  0  0
    6.8160   -0.3270   22.5350 N   0  0  0  0  0  0  0  0  0  0  0  0
    7.5730    0.5760   23.4770 C   0  0  1  0  0  0  0  0  0  0  0  0
    7.7630    0.1810   24.9420 C   0  0  0  0  0  0  0  0  0  0  0  0
    9.1190    0.6800   23.3020 C   0  0  0  0  0  0  0  0  0  0  0  0
    8.8060   -0.8530   25.3410 C   0  0  0  0  0  0  0  0  0  0  0  0
    9.8790    1.9520   23.7230 C   0  0  0  0  0  0  0  0  0  0  0  0
    9.9800   -0.2950   22.7530 C   0  0  0  0  0  0  0  0  0  0  0  0
    8.2860   -1.9100   26.0930 C   0  0  0  0  0  0  0  0  0  0  0  0
   11.4030    2.1130   23.5500 C   0  0  0  0  0  0  0  0  0  0  0  0
   11.3660   -0.1670   22.5850 C   0  0  0  0  0  0  0  0  0  0  0  0
    9.6720   -1.5310   22.2730 N   0  0  0  0  0  0  0  0  0  0  0  0
    7.7100   -1.6680   27.3390 C   0  0  0  0  0  0  0  0  0  0  0  0
    8.3280   -3.2430   25.5940 C   0  0  0  0  0  0  0  0  0  0  0  0
   12.1360    1.0770   22.9980 C   0  0  0  0  0  0  0  0  0  0  0  0
   11.8430   -1.4320   21.9480 C   0  0  0  0  0  0  0  0  0  0  0  0
   10.7460   -2.1970   21.7990 C   0  0  0  0  0  0  0  0  0  0  0  0
    7.1740   -2.7170   28.0740 C   0  0  0  0  0  0  0  0  0  0  0  0
    7.7950   -4.3150   26.3180 C   0  0  0  0  0  0  0  0  0  0  0  0
   13.1860   -1.8670   21.5140 C   0  0  0  0  0  0  0  0  0  0  0  0
    7.1810   -4.1430   27.5870 C   0  0  0  0  0  0  0  0  0  0  0  0
   13.0900   -3.3020   21.0860 C   0  0  0  0  0  0  0  0  0  0  0  0
    6.6030   -5.3120   28.3260 C   0  0  0  0  0  0  0  0  0  0  0  0
   14.0730   -3.9030   20.2120 N   0  0  0  0  0  0  0  0  0  0  0  0
    5.9100   -4.9390   29.4350 F   0  0  0  0  0  0  0  0  0  0  0  0
    7.5250   -6.2100   28.7360 F   0  0  0  0  0  0  0  0  0  0  0  0
    5.7130   -6.0060   27.5600 F   0  0  0  0  0  0  0  0  0  0  0  0
   14.4980   -5.1740   20.3690 C   0  0  0  0  0  0  0  0  0  0  0  0
   15.8760   -5.4070   20.1290 C   0  0  0  0  0  0  0  0  0  0  0  0
   13.8810   -6.1320   20.6170 O   0  0  0  0  0  0  0  0  0  0  0  0
  1  2  2  3
  1  3  1  0
  3  4  1  0
  3  5  1  0
  6  4  1  6
  5  7  1  0
  6  7  1  0
  5  8  1  6
  6  9  1  0
  8  9  1  0
  9 10  1  0
 10 11  1  1
 10 12  1  0
 11 13  1  0
 12 14  1  0
 12 15  2  0
 13 16  1  0
 14 17  2  0
 15 18  1  0
 15 19  1  0
 16 20  2  0
 16 21  1  0
 17 22  1  0
 18 22  2  0
 18 23  1  0
 19 24  1  0
 23 24  2  0
 20 25  1  0
 21 26  2  0
 23 27  1  0
 25 28  2  0
 26 28  1  0
 27 29  1  0
 28 30  1  0
 29 31  1  0
 30 32  1  0
 30 33  1  0
 30 34  1  0
 31 35  1  0
 35 36  1  0
 35 37  2  0
M  END
