MAK-UNK-72659d64-9-bromoalkyne
     RDKit          3D

 16 16  0  0  0  0  0  0  0  0999 V2000
    6.2340   -4.6380   20.0250 C   0  0  0  0  0  0  0  0  0  0  0  0
    5.7660   -6.0470   19.8970 C   0  0  0  0  0  0  0  0  0  0  0  0
    5.7470   -3.9010   21.0930 N   0  0  0  0  0  0  0  0  0  0  0  0
    5.9270   -4.3480   22.4640 C   0  0  0  0  0  0  0  0  0  0  0  0
    7.4000   -4.5690   22.7610 C   0  0  0  0  0  0  0  0  0  0  0  0
    4.9940   -4.5850   23.5070 C   0  0  0  0  0  0  0  0  0  0  0  0
    7.7170   -4.9880   24.0980 N   0  0  0  0  0  0  0  0  0  0  0  0
    5.3670   -4.9810   24.7470 N   0  0  0  0  0  0  0  0  0  0  0  0
    3.6510   -4.4370   23.3830 N   0  0  0  0  0  0  0  0  0  0  0  0
    6.6580   -5.1670   25.0330 C   0  0  0  0  0  0  0  0  0  0  0  0
    2.8480   -4.6050   24.4570 C   0  0  0  0  0  0  0  0  0  0  0  0
    7.0220   -5.5940   26.4440 C   0  0  0  0  0  0  0  0  0  0  0  0
    2.5260   -5.8580   25.0290 O   0  0  0  0  0  0  0  0  0  0  0  0
    2.3050   -3.4660   25.0680 C   0  0  0  0  0  0  0  0  0  0  0  0
    8.0000   -4.8550   27.2580 N   0  0  0  0  0  0  0  0  0  0  0  0
    0.6030   -3.3980   25.2790 Cl  0  0  0  0  0  0  0  0  0  0  0  0
  1  2  2  3
  1  3  1  0
  3  4  1  0
  4  5  2  0
  4  6  1  0
  5  7  1  0
  6  8  2  0
  6  9  1  0
  7 10  2  0
  8 10  1  0
  9 11  1  0
 10 12  1  0
 11 13  2  0
 11 14  1  0
 12 15  3  0
 14 16  1  0
M  END
