MAK-UNK-ec98eaf6-57-vinylsulfonamide
     RDKit          3D

 26 29  0  0  0  0  0  0  0  0999 V2000
    7.9090   -3.6200   19.9830 C   0  0  0  0  0  0  0  0  0  0  0  0
    7.0990   -2.5220   19.3080 C   0  0  0  0  0  0  0  0  0  0  0  0
    5.5340   -2.4490   20.1350 S   0  0  0  0  0  0  0  0  0  0  0  0
    4.7630   -3.5220   19.5270 O   0  0  0  0  0  0  0  0  0  0  0  0
    5.0560   -1.0820   20.1900 O   0  0  0  0  0  0  0  0  0  0  0  0
    5.9950   -2.9130   21.7220 N   0  0  0  0  0  0  0  0  0  0  0  0
    5.1370   -2.8230   22.9000 C   0  0  0  0  0  0  0  0  0  0  0  0
    7.3020   -2.4230   22.2420 C   0  0  1  0  0  0  0  0  0  0  0  0
    6.0040   -2.1580   23.9650 C   0  0  2  0  0  0  0  0  0  0  0  0
    6.8630   -1.2370   23.1100 C   0  0  0  0  0  0  0  0  0  0  0  0
    7.6660   -3.4620   23.2810 C   0  0  0  0  0  0  0  0  0  0  0  0
    7.0410   -3.1440   24.4870 N   0  0  0  0  0  0  0  0  0  0  0  0
    7.8930   -2.6120   25.5720 C   0  0  0  0  0  0  0  0  0  0  0  0
    9.3640   -2.5220   25.1810 C   0  0  0  0  0  0  0  0  0  0  0  0
    9.8720   -1.7270   24.1700 C   0  0  0  0  0  0  0  0  0  0  0  0
   10.4120   -3.2070   25.7450 N   0  0  0  0  0  0  0  0  0  0  0  0
   11.2160   -1.9500   24.1250 N   0  0  0  0  0  0  0  0  0  0  0  0
   11.5360   -2.8500   25.0940 N   0  0  0  0  0  0  0  0  0  0  0  0
   12.0710   -1.3890   23.2300 C   0  0  0  0  0  0  0  0  0  0  0  0
   12.6300   -0.1130   23.1810 C   0  0  0  0  0  0  0  0  0  0  0  0
   12.3730   -2.2880   22.2140 C   0  0  0  0  0  0  0  0  0  0  0  0
   13.4940    0.1940   21.9990 C   0  0  0  0  0  0  0  0  0  0  0  0
   13.1810   -2.0130   21.1170 C   0  0  0  0  0  0  0  0  0  0  0  0
   13.8090   -0.7690   20.8630 C   0  0  0  0  0  0  0  0  0  0  0  0
   14.6610   -0.2750   19.6750 O   0  0  0  0  0  0  0  0  0  0  0  0
   15.5740    0.8930   19.4610 C   0  0  0  0  0  0  0  0  0  0  0  0
  1  2  1  0
  3  2  1  0
  3  4  2  0
  3  5  2  0
  3  6  1  0
  6  7  1  0
  6  8  1  0
  9  7  1  6
  8 10  1  0
  9 10  1  0
  8 11  1  1
  9 12  1  0
 11 12  1  0
 12 13  1  0
 13 14  1  0
 14 15  2  0
 14 16  1  0
 15 17  1  0
 16 18  2  0
 17 18  1  0
 17 19  1  0
 19 20  2  0
 19 21  1  0
 20 22  1  0
 21 23  2  0
 22 24  2  0
 23 24  1  0
 24 25  1  0
 25 26  1  0
M  END
