MAK-UNK-f983951f-6
     RDKit          3D

 11 11  0  0  0  0  0  0  0  0999 V2000
    6.4990   -2.1090   19.2910 C   0  0  0  0  0  0  0  0  0  0  0  0
    6.5470   -2.6290   20.6770 C   0  0  2  0  0  0  0  0  0  0  0  0
    8.1490   -2.2960   21.3940 Cl  0  0  0  0  0  0  0  0  0  0  0  0
    6.1290   -4.1180   20.7780 C   0  0  0  0  0  0  0  0  0  0  0  0
    5.3140   -4.4690   19.6440 O   0  0  0  0  0  0  0  0  0  0  0  0
    6.5170   -4.9790   21.8980 N   0  0  0  0  0  0  0  0  0  0  0  0
    5.6410   -6.1310   22.1270 C   0  0  0  0  0  0  0  0  0  0  0  0
    7.1340   -4.5440   23.1560 C   0  0  0  0  0  0  0  0  0  0  0  0
    4.5820   -5.8600   23.2100 C   0  0  0  0  0  0  0  0  0  0  0  0
    6.0830   -4.3270   24.2620 C   0  0  0  0  0  0  0  0  0  0  0  0
    4.7530   -4.5570   23.7840 O   0  0  0  0  0  0  0  0  0  0  0  0
  2  1  1  6
  2  3  1  0
  2  4  1  0
  4  5  2  0
  4  6  1  0
  6  7  1  0
  6  8  1  0
  7  9  1  0
  8 10  1  0
  9 11  1  0
 10 11  1  0
M  END
