MAK-UNK-c74072e5-1-nitrile
     RDKit          3D

 28 31  0  0  0  0  0  0  0  0999 V2000
    6.9980   -3.7310   19.9040 C   0  0  0  0  0  0  0  0  0  0  0  0
    5.9100   -4.4170   19.8810 N   0  0  0  0  0  0  0  0  0  0  0  0
    6.9950   -2.4910   20.5010 N   0  0  0  0  0  0  0  0  0  0  0  0
    5.9470   -2.2500   21.5150 C   0  0  0  0  0  0  0  0  0  0  0  0
    7.1140   -1.2690   19.7010 C   0  0  0  0  0  0  0  0  0  0  0  0
    6.3150   -1.0320   22.3890 C   0  0  0  0  0  0  0  0  0  0  0  0
    7.6190   -0.2470   20.5000 C   0  0  0  0  0  0  0  0  0  0  0  0
    6.7330    0.1640   21.6110 N   0  0  0  0  0  0  0  0  0  0  0  0
    7.4280    1.1670   22.4460 C   0  0  0  0  0  0  0  0  0  0  0  0
    8.7790    0.6180   22.8770 C   0  0  0  0  0  0  0  0  0  0  0  0
   10.0710    1.3140   22.6380 C   0  0  0  0  0  0  0  0  0  0  0  0
    9.0340   -0.8570   23.6900 S   0  0  0  0  0  0  0  0  0  0  0  0
   11.1320    0.6060   23.1190 C   0  0  0  0  0  0  0  0  0  0  0  0
   10.7320   -0.6250   23.7320 C   0  0  0  0  0  0  0  0  0  0  0  0
   11.6330   -1.6540   24.3640 C   0  0  0  0  0  0  0  0  0  0  0  0
   12.9940   -1.6420   24.2630 C   0  0  0  0  0  0  0  0  0  0  0  0
   11.2230   -2.8190   25.1840 N   0  0  0  0  0  0  0  0  0  0  0  0
   13.5000   -2.6950   24.9470 C   0  0  0  0  0  0  0  0  0  0  0  0
   12.3640   -3.4690   25.5410 C   0  0  0  0  0  0  0  0  0  0  0  0
    9.6430   -3.2840   25.6380 S   0  0  0  0  0  0  0  0  0  0  0  0
    9.7790   -4.0720   26.8380 O   0  0  0  0  0  0  0  0  0  0  0  0
    8.8640   -2.0800   25.5860 O   0  0  0  0  0  0  0  0  0  0  0  0
    8.8640   -4.3960   24.4330 C   0  0  0  0  0  0  0  0  0  0  0  0
    7.7670   -3.8800   23.7580 C   0  0  0  0  0  0  0  0  0  0  0  0
    9.3230   -5.6750   24.2140 C   0  0  0  0  0  0  0  0  0  0  0  0
    7.0060   -4.7130   22.7380 C   0  0  0  0  0  0  0  0  0  0  0  0
    8.6570   -6.5910   23.2340 C   0  0  0  0  0  0  0  0  0  0  0  0
    7.4510   -6.1280   22.4550 C   0  0  0  0  0  0  0  0  0  0  0  0
  1  2  2  3
  1  3  1  0
  3  4  1  0
  3  5  1  0
  4  6  1  0
  5  7  1  0
  6  8  1  0
  7  8  1  0
  8  9  1  0
  9 10  1  0
 10 11  2  0
 10 12  1  0
 11 13  1  0
 12 14  1  0
 13 14  2  0
 14 15  1  0
 15 16  2  0
 15 17  1  0
 16 18  1  0
 17 19  1  0
 18 19  2  0
 17 20  1  0
 20 21  2  0
 20 22  2  0
 20 23  1  0
 23 24  2  0
 23 25  1  0
 24 26  1  0
 25 27  2  0
 26 28  2  0
 27 28  1  0
M  END
