MAK-UNK-69bf97dd-2-nitrile
     RDKit          3D

 28 31  0  0  0  0  0  0  0  0999 V2000
    6.7210   -3.8500   19.8860 C   0  0  0  0  0  0  0  0  0  0  0  0
    5.7070   -3.4750   19.2010 N   0  0  0  0  0  0  0  0  0  0  0  0
    6.7970   -3.9280   21.2360 N   0  0  0  0  0  0  0  0  0  0  0  0
    6.3380   -5.1050   22.0070 C   0  0  0  0  0  0  0  0  0  0  0  0
    7.7660   -3.0020   21.8840 C   0  0  0  0  0  0  0  0  0  0  0  0
    5.5200   -4.4630   23.1870 C   0  0  0  0  0  0  0  0  0  0  0  0
    7.2590   -2.5910   23.2410 C   0  0  0  0  0  0  0  0  0  0  0  0
    6.6700   -3.7750   23.9910 C   0  0  0  0  0  0  0  0  0  0  0  0
    5.9410   -3.2380   25.2510 C   0  0  0  0  0  0  0  0  0  0  0  0
    4.7910   -3.5570   25.5310 O   0  0  0  0  0  0  0  0  0  0  0  0
    6.6950   -2.3770   26.0150 N   0  0  0  0  0  0  0  0  0  0  0  0
    6.0920   -1.4770   26.9920 C   0  0  0  0  0  0  0  0  0  0  0  0
    6.4130    0.0050   26.6860 C   0  0  0  0  0  0  0  0  0  0  0  0
    6.8790   -1.2340   28.2930 C   0  0  0  0  0  0  0  0  0  0  0  0
    6.8120    0.2370   28.0450 N   0  0  0  0  0  0  0  0  0  0  0  0
    6.0750    1.3180   29.1040 S   0  0  0  0  0  0  0  0  0  0  0  0
    4.9060    1.8590   28.4390 O   0  0  0  0  0  0  0  0  0  0  0  0
    5.9810    0.7000   30.4140 O   0  0  0  0  0  0  0  0  0  0  0  0
    7.3220    2.5790   29.1440 C   0  0  0  0  0  0  0  0  0  0  0  0
    7.7770    3.2940   27.8700 C   0  0  0  0  0  0  0  0  0  0  0  0
    7.9320    2.9570   30.3530 C   0  0  0  0  0  0  0  0  0  0  0  0
    8.8520    4.3600   28.0090 C   0  0  0  0  0  0  0  0  0  0  0  0
    8.9140    3.9480   30.3850 C   0  0  0  0  0  0  0  0  0  0  0  0
    9.3790    4.6430   29.2750 C   0  0  0  0  0  0  0  0  0  0  0  0
    9.5090    4.2960   31.6320 O   0  0  0  0  0  0  0  0  0  0  0  0
   10.9090    4.4790   31.4280 C   0  0  0  0  0  0  0  0  0  0  0  0
   10.3890    5.6650   29.3100 O   0  0  0  0  0  0  0  0  0  0  0  0
   11.1610    5.7030   30.5270 C   0  0  0  0  0  0  0  0  0  0  0  0
  1  2  2  3
  1  3  1  0
  3  4  1  0
  3  5  1  0
  4  6  1  0
  5  7  1  0
  6  8  1  0
  7  8  1  0
  8  9  1  0
  9 10  2  0
  9 11  1  0
 11 12  1  0
 12 13  1  0
 12 14  1  0
 13 15  1  0
 14 15  1  0
 15 16  1  0
 16 17  2  0
 16 18  2  0
 16 19  1  0
 19 20  2  0
 19 21  1  0
 20 22  1  0
 21 23  2  0
 22 24  2  0
 23 24  1  0
 23 25  1  0
 25 26  1  0
 24 27  1  0
 26 28  1  0
 27 28  1  0
M  END
