MAK-UNK-10799360-17-chloroacetamide
     RDKit          3D

 26 29  0  0  0  0  0  0  0  0999 V2000
    6.8630   -3.2230   19.3630 C   0  0  0  0  0  0  0  0  0  0  0  0
    5.9510   -3.9840   20.3350 C   0  0  0  0  0  0  0  0  0  0  0  0
    5.1240   -4.7500   19.9000 O   0  0  0  0  0  0  0  0  0  0  0  0
    6.0540   -3.8460   21.6850 N   0  0  0  0  0  0  0  0  0  0  0  0
    6.5880   -2.6360   22.3040 C   0  0  0  0  0  0  0  0  0  0  0  0
    6.1730   -4.9360   22.6740 C   0  0  2  0  0  0  0  0  0  0  0  0
    7.2540   -3.2370   23.5630 C   0  0  1  0  0  0  0  0  0  0  0  0
    6.1410   -4.1830   24.0000 C   0  0  0  0  0  0  0  0  0  0  0  0
    7.6360   -5.4090   22.7000 C   0  0  0  0  0  0  0  0  0  0  0  0
    8.3330   -4.1570   23.0950 N   0  0  0  0  0  0  0  0  0  0  0  0
    9.5030   -4.2430   23.9840 C   0  0  0  0  0  0  0  0  0  0  0  0
   10.5390   -3.1320   23.7500 C   0  0  0  0  0  0  0  0  0  0  0  0
   10.8710   -2.3730   24.8520 C   0  0  0  0  0  0  0  0  0  0  0  0
   11.1710   -2.8330   22.4950 C   0  0  0  0  0  0  0  0  0  0  0  0
   11.7770   -1.3630   24.7330 C   0  0  0  0  0  0  0  0  0  0  0  0
   12.1280   -1.8060   22.3440 C   0  0  0  0  0  0  0  0  0  0  0  0
   12.3640   -1.1090   23.5190 C   0  0  0  0  0  0  0  0  0  0  0  0
   12.8230   -1.4480   21.1010 C   0  0  0  0  0  0  0  0  0  0  0  0
   13.1970   -0.1240   23.5210 C   0  0  0  0  0  0  0  0  0  0  0  0
   13.7670   -0.2910   21.0170 C   0  0  0  0  0  0  0  0  0  0  0  0
   13.8890    0.2780   22.2940 C   0  0  0  0  0  0  0  0  0  0  0  0
   14.7710    0.5370   19.5190 S   0  0  0  0  0  0  0  0  0  0  0  0
   14.3130   -0.0790   18.3350 O   0  0  0  0  0  0  0  0  0  0  0  0
   16.1100    0.8280   19.5610 O   0  0  0  0  0  0  0  0  0  0  0  0
   14.5630    2.1910   19.1110 N   0  0  0  0  0  0  0  0  0  0  0  0
   15.4760    3.1520   19.1950 C   0  0  0  0  0  0  0  0  0  0  0  0
  1  2  1  0
  2  3  2  0
  2  4  1  0
  4  5  1  0
  4  6  1  0
  7  5  1  6
  6  8  1  0
  7  8  1  0
  6  9  1  6
  7 10  1  0
  9 10  1  0
 10 11  1  0
 11 12  1  0
 12 13  2  0
 12 14  1  0
 13 15  1  0
 14 16  2  0
 15 17  2  0
 16 17  1  0
 16 18  1  0
 17 19  1  0
 18 20  2  0
 19 21  2  0
 20 21  1  0
 20 22  1  0
 22 23  2  0
 22 24  2  0
 22 25  1  0
 25 26  1  0
M  END
