MAK-UNK-9955b1f3-9-chloroacetamide
     RDKit          3D

 15 15  0  0  0  0  0  0  0  0999 V2000
    8.2360   -3.8900   20.3410 C   0  0  0  0  0  0  0  0  0  0  0  0
    7.2820   -2.6870   20.2780 C   0  0  0  0  0  0  0  0  0  0  0  0
    6.4930   -3.4310   19.5300 O   0  0  0  0  0  0  0  0  0  0  0  0
    8.4990   -2.2620   21.1340 C   0  0  0  0  0  0  0  0  0  0  0  0
    9.1930   -3.2730   21.7830 C   0  0  0  0  0  0  0  0  0  0  0  0
    8.8740   -0.9230   21.2070 N   0  0  0  0  0  0  0  0  0  0  0  0
   10.4490   -2.9680   22.5870 C   0  0  0  0  0  0  0  0  0  0  0  0
   10.0050   -0.5820   21.9240 C   0  0  0  0  0  0  0  0  0  0  0  0
   10.8000   -1.5050   22.5850 C   0  0  0  0  0  0  0  0  0  0  0  0
   12.0620   -1.4030   23.3900 C   0  0  0  0  0  0  0  0  0  0  0  0
   12.1680   -2.5320   24.4030 C   0  0  0  0  0  0  0  0  0  0  0  0
   13.3460   -2.5540   25.1600 N   0  0  0  0  0  0  0  0  0  0  0  0
   11.1600   -3.4650   24.5490 C   0  0  0  0  0  0  0  0  0  0  0  0
    9.9350   -3.6310   23.9170 C   0  0  0  0  0  0  0  0  0  0  0  0
    8.7050   -2.8440   24.2440 C   0  0  0  0  0  0  0  0  0  0  0  0
  1  2  1  0
  2  3  2  0
  2  4  1  0
  4  5  2  0
  4  6  1  0
  5  7  1  0
  6  8  2  0
  7  9  2  0
  8  9  1  0
  9 10  1  0
 10 11  1  0
 11 12  1  0
 11 13  2  3
 13 14  1  0
 14 15  1  0
M  END
