MAK-UNK-6ca90168-15-acrylamide
     RDKit          3D

 19 20  0  0  0  0  0  0  0  0999 V2000
    7.9250   -3.3030   19.1110 C   0  0  0  0  0  0  0  0  0  0  0  0
    6.7390   -2.4150   18.8830 C   0  0  0  0  0  0  0  0  0  0  0  0
    5.7910   -2.7630   19.9620 C   0  0  0  0  0  0  0  0  0  0  0  0
    4.8980   -3.5610   19.7070 O   0  0  0  0  0  0  0  0  0  0  0  0
    6.0660   -2.2090   21.1840 N   0  0  0  0  0  0  0  0  0  0  0  0
    5.8100   -2.9270   22.4440 C   0  0  0  0  0  0  0  0  0  0  0  0
    7.0160   -1.1110   21.3110 C   0  0  0  0  0  0  0  0  0  0  0  0
    7.2030   -3.4920   22.9240 C   0  0  0  0  0  0  0  0  0  0  0  0
    8.2600   -1.5610   21.7150 C   0  0  0  0  0  0  0  0  0  0  0  0
    8.2170   -2.3980   22.9170 N   0  0  0  0  0  0  0  0  0  0  0  0
    9.3990   -2.6360   23.6130 C   0  0  0  0  0  0  0  0  0  0  0  0
    9.6110   -3.6840   24.2050 O   0  0  0  0  0  0  0  0  0  0  0  0
   10.3970   -1.4780   23.5270 C   0  0  0  0  0  0  0  0  0  0  0  0
   11.8000   -1.9470   23.1430 C   0  0  0  0  0  0  0  0  0  0  0  0
   10.1820    0.0560   23.7490 C   0  0  0  0  0  0  0  0  0  0  0  0
   12.9540   -0.9600   22.9750 C   0  0  0  0  0  0  0  0  0  0  0  0
   11.2230    0.9780   23.5930 C   0  0  0  0  0  0  0  0  0  0  0  0
   12.6370    0.5190   23.2060 C   0  0  0  0  0  0  0  0  0  0  0  0
   10.8830    2.6370   23.8300 Cl  0  0  0  0  0  0  0  0  0  0  0  0
  1  2  1  0
  2  3  1  0
  3  4  2  0
  3  5  1  0
  5  6  1  0
  5  7  1  0
  6  8  1  0
  7  9  1  0
  8 10  1  0
  9 10  1  0
 10 11  1  0
 11 12  2  0
 11 13  1  0
 13 14  2  0
 13 15  1  0
 14 16  1  0
 15 17  2  0
 16 18  2  0
 17 18  1  0
 17 19  1  0
M  END
