MAK-UNK-516d8086-21-acrylamide
     RDKit          3D

 24 26  0  0  0  0  0  0  0  0999 V2000
    6.8570   -3.6560   19.8640 C   0  0  0  0  0  0  0  0  0  0  0  0
    6.7860   -4.2290   21.0720 C   0  0  0  0  0  0  0  0  0  0  0  0
    5.4350   -3.9720   21.6460 C   0  0  0  0  0  0  0  0  0  0  0  0
    4.4710   -3.4390   22.1580 O   0  0  0  0  0  0  0  0  0  0  0  0
    6.1710   -2.6670   21.8540 C   0  0  0  0  0  0  0  0  0  0  0  0
    5.8430   -1.2690   21.3370 C   0  0  0  0  0  0  0  0  0  0  0  0
    7.5050   -2.5260   22.6870 C   0  0  0  0  0  0  0  0  0  0  0  0
    6.8700   -0.7660   21.8770 N   0  0  0  0  0  0  0  0  0  0  0  0
    8.3890   -1.2880   22.9760 C   0  0  0  0  0  0  0  0  0  0  0  0
    7.9240   -0.0940   22.3950 C   0  0  0  0  0  0  0  0  0  0  0  0
    9.5900   -1.3390   23.7700 C   0  0  0  0  0  0  0  0  0  0  0  0
    8.3800    1.2420   22.3670 N   0  0  0  0  0  0  0  0  0  0  0  0
   10.3710   -2.5230   23.4950 C   0  0  0  0  0  0  0  0  0  0  0  0
    7.4280    2.1780   21.7460 C   0  0  0  0  0  0  0  0  0  0  0  0
   11.0750   -1.5110   22.5420 C   0  0  0  0  0  0  0  0  0  0  0  0
    9.3650   -2.7710   24.4730 C   0  0  0  0  0  0  0  0  0  0  0  0
    6.8390    1.5480   20.6420 C   0  0  0  0  0  0  0  0  0  0  0  0
   10.3760   -0.4640   22.8320 N   0  0  0  0  0  0  0  0  0  0  0  0
    8.6260   -1.6060   24.7570 C   0  0  0  0  0  0  0  0  0  0  0  0
    9.7020   -1.4100   23.7440 C   0  0  0  0  0  0  0  0  0  0  0  0
    8.1000   -2.7650   25.6000 C   0  0  0  0  0  0  0  0  0  0  0  0
    7.1390   -2.0440   25.9120 O   0  0  0  0  0  0  0  0  0  0  0  0
    9.4010   -3.3110   24.9930 N   0  0  0  0  0  0  0  0  0  0  0  0
   10.0500   -2.7390   23.8950 C   0  0  0  0  0  0  0  0  0  0  0  0
  1  2  1  0
  2  3  1  0
  3  4  2  0
  3  5  1  0
  5  6  2  0
  5  7  1  0
  6  8  1  0
  7  9  2  0
  8 10  2  0
  9 10  1  0
  9 11  1  0
 10 12  1  0
 11 13  1  0
 12 14  1  0
 13 15  2  0
 13 16  1  0
 14 17  1  0
 15 18  1  0
 16 19  2  0
 18 20  2  0
 19 20  1  0
 19 21  1  0
 21 22  2  0
 21 23  1  0
 20 24  1  0
 23 24  1  0
M  END
