MAK-UNK-8fdbca50-18-vinylsulfonamide
     RDKit          3D

 41 44  0  0  0  0  0  0  0  0999 V2000
    6.5170   -4.8290   20.3800 C   0  0  0  0  0  0  0  0  0  0  0  0
    5.9210   -5.4770   21.6150 C   0  0  0  0  0  0  0  0  0  0  0  0
    5.1600   -4.2680   22.6460 S   0  0  0  0  0  0  0  0  0  0  0  0
    4.6440   -3.2370   21.8010 O   0  0  0  0  0  0  0  0  0  0  0  0
    6.0280   -3.9790   23.7560 O   0  0  0  0  0  0  0  0  0  0  0  0
    3.8240   -5.0990   23.2140 N   0  0  0  0  0  0  0  0  0  0  0  0
    2.9620   -4.3800   24.1570 C   0  0  0  0  0  0  0  0  0  0  0  0
    3.9580   -6.5470   23.4650 C   0  0  0  0  0  0  0  0  0  0  0  0
    3.4230   -4.7000   25.5390 C   0  0  0  0  0  0  0  0  0  0  0  0
    3.9610   -6.8190   24.8400 C   0  0  0  0  0  0  0  0  0  0  0  0
    4.3910   -5.7080   25.5800 C   0  0  0  0  0  0  0  0  0  0  0  0
    4.9670   -5.9730   26.8100 C   0  0  0  0  0  0  0  0  0  0  0  0
    4.8110   -7.0370   27.4160 O   0  0  0  0  0  0  0  0  0  0  0  0
    5.7720   -4.8000   27.2980 N   0  0  0  0  0  0  0  0  0  0  0  0
    5.0340   -3.7490   28.0690 C   0  0  0  0  0  0  0  0  0  0  0  0
    7.2450   -4.8850   27.3120 C   0  0  1  0  0  0  0  0  0  0  0  0
    5.7370   -3.5270   29.3770 C   0  0  0  0  0  0  0  0  0  0  0  0
    5.0210   -2.3930   27.3060 C   0  0  0  0  0  0  0  0  0  0  0  0
    7.7980   -6.0830   27.0100 N   0  0  0  0  0  0  0  0  0  0  0  0
    7.9100   -3.8860   26.3790 C   0  0  0  0  0  0  0  0  0  0  0  0
    9.0810   -5.9530   27.4270 C   0  0  0  0  0  0  0  0  0  0  0  0
    9.2390   -4.2590   25.7840 C   0  0  0  0  0  0  0  0  0  0  0  0
    7.5580   -2.6220   25.9130 C   0  0  0  0  0  0  0  0  0  0  0  0
    9.5930   -3.1970   25.0170 C   0  0  0  0  0  0  0  0  0  0  0  0
    8.5630   -2.1880   25.0940 N   0  0  0  0  0  0  0  0  0  0  0  0
   10.6880   -2.9470   24.2410 C   0  0  0  0  0  0  0  0  0  0  0  0
    8.5700   -0.6790   24.3090 S   0  0  0  0  0  0  0  0  0  0  0  0
   11.9960   -2.9140   24.7650 C   0  0  0  0  0  0  0  0  0  0  0  0
   10.4720   -2.7060   22.8640 C   0  0  0  0  0  0  0  0  0  0  0  0
    8.4390    0.2840   25.3870 O   0  0  0  0  0  0  0  0  0  0  0  0
    7.6280   -0.7480   23.2100 O   0  0  0  0  0  0  0  0  0  0  0  0
   10.1990   -0.4740   23.6930 C   0  0  0  0  0  0  0  0  0  0  0  0
   13.1530   -2.6490   24.0680 C   0  0  0  0  0  0  0  0  0  0  0  0
   11.7030   -2.4060   22.0210 C   0  0  0  0  0  0  0  0  0  0  0  0
    9.2400   -2.7370   22.3220 F   0  0  0  0  0  0  0  0  0  0  0  0
   10.8280   -1.0930   22.6250 C   0  0  0  0  0  0  0  0  0  0  0  0
   10.9360    0.4250   24.3700 C   0  0  0  0  0  0  0  0  0  0  0  0
   13.0520   -2.3870   22.7040 C   0  0  0  0  0  0  0  0  0  0  0  0
   12.1410   -0.7720   22.3200 C   0  0  0  0  0  0  0  0  0  0  0  0
   12.2330    0.7730   24.0880 N   0  0  0  0  0  0  0  0  0  0  0  0
   12.8270    0.1560   23.0500 C   0  0  0  0  0  0  0  0  0  0  0  0
  1  2  1  0
  3  2  1  0
  3  4  2  0
  3  5  2  0
  3  6  1  0
  6  7  1  0
  6  8  1  0
  7  9  1  0
  8 10  1  0
  9 11  1  0
 10 11  1  0
 11 12  1  0
 12 13  2  0
 12 14  1  0
 14 15  1  0
 14 16  1  0
 15 17  1  0
 15 18  1  0
 16 19  1  6
 16 20  1  0
 19 21  1  0
 20 22  1  0
 20 23  2  0
 22 24  2  0
 23 25  1  0
 24 25  1  0
 24 26  1  0
 25 27  1  0
 26 28  2  0
 26 29  1  0
 27 30  2  0
 27 31  2  0
 27 32  1  0
 28 33  1  0
 29 34  2  0
 29 35  1  0
 32 36  2  0
 32 37  1  0
 33 38  2  0
 34 38  1  0
 36 39  1  0
 37 40  2  0
 39 41  2  0
 40 41  1  0
M  END
