MAK-UNK-e4a48a85-26-nitrile
     RDKit          3D

 25 27  0  0  0  0  0  0  0  0999 V2000
    6.6980   -3.3580   19.4890 C   0  0  0  0  0  0  0  0  0  0  0  0
    5.8950   -3.0650   18.5520 N   0  0  0  0  0  0  0  0  0  0  0  0
    6.6770   -2.6440   20.6740 N   0  0  0  0  0  0  0  0  0  0  0  0
    7.3480   -1.3500   20.8000 C   0  0  0  0  0  0  0  0  0  0  0  0
    6.2750   -3.2400   21.9510 C   0  0  0  0  0  0  0  0  0  0  0  0
    8.4690   -1.4790   21.6170 C   0  0  0  0  0  0  0  0  0  0  0  0
    7.3590   -3.3510   22.8240 C   0  0  0  0  0  0  0  0  0  0  0  0
    8.1760   -2.1290   22.8970 N   0  0  0  0  0  0  0  0  0  0  0  0
    9.3590   -2.2670   23.7240 C   0  0  0  0  0  0  0  0  0  0  0  0
   10.4190   -1.4220   23.3980 C   0  0  0  0  0  0  0  0  0  0  0  0
   11.5810   -1.9420   22.7970 C   0  0  0  0  0  0  0  0  0  0  0  0
   10.4190   -0.0110   23.6410 C   0  0  0  0  0  0  0  0  0  0  0  0
   12.7470   -1.0580   22.4700 C   0  0  0  0  0  0  0  0  0  0  0  0
   11.5340    0.8140   23.3090 C   0  0  0  0  0  0  0  0  0  0  0  0
    9.3110    0.6380   24.2120 C   0  0  0  0  0  0  0  0  0  0  0  0
   12.6990    0.2840   22.7360 C   0  0  0  0  0  0  0  0  0  0  0  0
   11.5070    2.1680   23.5290 C   0  0  0  0  0  0  0  0  0  0  0  0
    8.8030    1.4850   23.4720 O   0  0  0  0  0  0  0  0  0  0  0  0
    8.7990    0.4040   25.4550 N   0  0  0  0  0  0  0  0  0  0  0  0
    7.5570    0.8730   25.6860 C   0  0  0  0  0  0  0  0  0  0  0  0
    9.3800   -0.4870   26.4660 C   0  0  0  0  0  0  0  0  0  0  0  0
    6.9760    0.8370   26.9480 C   0  0  0  0  0  0  0  0  0  0  0  0
    9.1290   -0.0130   27.8980 C   0  0  0  0  0  0  0  0  0  0  0  0
    7.9020    0.8930   27.9820 C   0  0  0  0  0  0  0  0  0  0  0  0
    7.2050    0.5800   29.1860 O   0  0  0  0  0  0  0  0  0  0  0  0
  1  2  2  3
  1  3  1  0
  3  4  1  0
  3  5  1  0
  4  6  1  0
  5  7  1  0
  6  8  1  0
  7  8  1  0
  8  9  1  0
  9 10  1  0
 10 11  2  0
 10 12  1  0
 11 13  1  0
 12 14  2  0
 12 15  1  0
 13 16  2  0
 14 16  1  0
 14 17  1  0
 15 18  2  0
 15 19  1  0
 19 20  1  0
 19 21  1  0
 20 22  1  0
 21 23  1  0
 22 24  1  0
 23 24  1  0
 24 25  1  0
M  END
