MAK-UNK-702fb7d3-20
     RDKit          3D

 43 48  0  0  0  0  0  0  0  0999 V2000
    7.2010   -0.8790   20.0700 C   0  0  0  0  0  0  0  0  0  0  0  0
    6.9720   -0.9470   21.4380 N   0  0  0  0  0  0  0  0  0  0  0  0
    7.7400   -0.2630   22.3690 C   0  0  1  0  0  0  0  0  0  0  0  0
    7.5710    1.4130   21.7070 Cl  0  0  0  0  0  0  0  0  0  0  0  0
    6.9000   -0.2680   23.6950 C   0  0  0  0  0  0  0  0  0  0  0  0
    9.1070   -0.6800   22.2460 C   0  0  0  0  0  0  0  0  0  0  0  0
    6.2750    0.7250   24.0600 O   0  0  0  0  0  0  0  0  0  0  0  0
    6.9000   -1.4090   24.3760 N   0  0  0  0  0  0  0  0  0  0  0  0
   10.2740   -0.0990   22.6940 C   0  0  0  0  0  0  0  0  0  0  0  0
    9.6360   -1.7780   21.6240 C   0  0  0  0  0  0  0  0  0  0  0  0
    6.1230   -1.2360   25.5330 C   0  0  0  0  0  0  0  0  0  0  0  0
    8.2530   -1.8640   24.7520 C   0  0  0  0  0  0  0  0  0  0  0  0
   11.6030   -0.8010   22.4060 C   0  0  0  0  0  0  0  0  0  0  0  0
   11.0430   -1.8560   21.7050 N   0  0  0  0  0  0  0  0  0  0  0  0
    6.6170   -2.2980   26.4670 C   0  0  0  0  0  0  0  0  0  0  0  0
    8.5070   -3.0810   25.4270 C   0  0  2  0  0  0  0  0  0  0  0  0
   11.1470    0.5430   23.1280 C   0  0  0  0  0  0  0  0  0  0  0  0
   11.7510   -3.2020   20.8560 S   0  0  0  0  0  0  0  0  0  0  0  0
    5.4930   -2.0710   27.4120 C   0  0  0  0  0  0  0  0  0  0  0  0
    7.6680   -3.1720   26.5050 C   0  0  0  0  0  0  0  0  0  0  0  0
    9.9030   -3.1260   25.5430 C   0  0  0  0  0  0  0  0  0  0  0  0
   11.9560    1.6330   22.8080 C   0  0  0  0  0  0  0  0  0  0  0  0
   10.0430    0.7420   23.9820 C   0  0  0  0  0  0  0  0  0  0  0  0
   10.7520   -3.9700   20.1600 O   0  0  0  0  0  0  0  0  0  0  0  0
   12.4880   -2.1150   20.3370 O   0  0  0  0  0  0  0  0  0  0  0  0
   13.1820   -4.1080   20.4860 C   0  0  0  0  0  0  0  0  0  0  0  0
    5.5380   -2.9120   28.5230 C   0  0  0  0  0  0  0  0  0  0  0  0
    7.7080   -4.0240   27.6310 C   0  0  0  0  0  0  0  0  0  0  0  0
   10.6870   -4.2670   26.2490 C   0  0  0  0  0  0  0  0  0  0  0  0
   10.6110   -2.0400   24.9150 C   0  0  0  0  0  0  0  0  0  0  0  0
   11.7030    2.9050   23.2690 C   0  0  0  0  0  0  0  0  0  0  0  0
    9.7910    2.0460   24.4470 C   0  0  0  0  0  0  0  0  0  0  0  0
    9.2170   -0.2310   24.3610 F   0  0  0  0  0  0  0  0  0  0  0  0
   13.3480   -5.4020   20.5080 C   0  0  0  0  0  0  0  0  0  0  0  0
   14.2210   -3.5660   20.0980 C   0  0  0  0  0  0  0  0  0  0  0  0
    6.7210   -3.9490   28.6250 C   0  0  0  0  0  0  0  0  0  0  0  0
   12.2510   -4.0750   26.1570 C   0  0  0  0  0  0  0  0  0  0  0  0
   12.0230   -1.9140   24.8610 C   0  0  0  0  0  0  0  0  0  0  0  0
   10.6120    3.1140   24.0870 C   0  0  0  0  0  0  0  0  0  0  0  0
   14.5220   -6.0040   20.2130 C   0  0  0  0  0  0  0  0  0  0  0  0
   15.3580   -4.2000   19.7470 N   0  0  0  0  0  0  0  0  0  0  0  0
   12.8140   -2.8930   25.4490 C   0  0  0  0  0  0  0  0  0  0  0  0
   15.5200   -5.3940   19.8330 C   0  0  0  0  0  0  0  0  0  0  0  0
  1  2  1  0
  3  2  1  6
  3  4  1  0
  3  5  1  0
  3  6  1  0
  5  7  2  0
  5  8  1  0
  6  9  1  0
  6 10  2  0
  8 11  1  0
  8 12  1  0
  9 13  2  0
 10 14  1  0
 13 14  1  0
 11 15  1  0
 12 16  1  0
 13 17  1  0
 14 18  1  0
 15 19  2  0
 15 20  1  0
 16 20  1  0
 16 21  1  1
 17 22  2  0
 17 23  1  0
 18 24  2  0
 18 25  2  0
 18 26  1  0
 19 27  1  0
 20 28  2  0
 21 29  2  0
 21 30  1  0
 22 31  1  0
 23 32  2  0
 23 33  1  0
 26 34  2  0
 26 35  1  0
 27 36  2  0
 28 36  1  0
 29 37  1  0
 30 38  2  0
 31 39  2  0
 32 39  1  0
 34 40  1  0
 35 41  2  0
 37 42  2  0
 38 42  1  0
 40 43  2  0
 41 43  1  0
M  END
