MAK-UNK-10799360-33-bromoalkyne
     RDKit          3D

 25 28  0  0  0  0  0  0  0  0999 V2000
    6.9820   -3.4470   19.7330 C   0  0  0  0  0  0  0  0  0  0  0  0
    5.7680   -2.9990   18.9420 C   0  0  0  0  0  0  0  0  0  0  0  0
    7.1590   -2.9590   21.0260 N   0  0  0  0  0  0  0  0  0  0  0  0
    8.0220   -1.8240   21.3800 C   0  0  2  0  0  0  0  0  0  0  0  0
    7.1150   -3.6950   22.2820 C   0  0  2  0  0  0  0  0  0  0  0  0
    9.2200   -2.6300   21.8500 C   0  0  0  0  0  0  0  0  0  0  0  0
    8.4600   -3.3920   22.9400 C   0  0  1  0  0  0  0  0  0  0  0  0
    7.2000   -5.2270   22.1840 C   0  0  0  0  0  0  0  0  0  0  0  0
    7.7530   -1.2030   22.7910 C   0  0  0  0  0  0  0  0  0  0  0  0
    5.9440   -5.5480   22.9570 C   0  0  0  0  0  0  0  0  0  0  0  0
    8.1390   -2.2870   23.7850 N   0  0  0  0  0  0  0  0  0  0  0  0
    5.8700   -5.6490   24.4790 C   0  0  0  0  0  0  0  0  0  0  0  0
    4.7710   -5.7610   22.2710 C   0  0  0  0  0  0  0  0  0  0  0  0
    9.2260   -2.0240   24.7310 C   0  0  0  0  0  0  0  0  0  0  0  0
    4.6460   -5.9500   25.0900 C   0  0  0  0  0  0  0  0  0  0  0  0
    3.5620   -6.0600   22.9190 C   0  0  0  0  0  0  0  0  0  0  0  0
   10.3820   -1.2990   24.1100 C   0  0  0  0  0  0  0  0  0  0  0  0
    3.5000   -6.1530   24.3160 C   0  0  0  0  0  0  0  0  0  0  0  0
   10.6570    0.0780   24.5420 C   0  0  0  0  0  0  0  0  0  0  0  0
   11.2450   -1.8320   23.1250 C   0  0  0  0  0  0  0  0  0  0  0  0
    2.2950   -6.4460   24.8840 O   0  0  0  0  0  0  0  0  0  0  0  0
   11.8070    0.8530   23.9430 C   0  0  0  0  0  0  0  0  0  0  0  0
   12.2990   -1.0740   22.5950 C   0  0  0  0  0  0  0  0  0  0  0  0
   12.5880    0.2320   22.9860 C   0  0  0  0  0  0  0  0  0  0  0  0
   13.2700   -1.7830   21.4020 Cl  0  0  0  0  0  0  0  0  0  0  0  0
  1  2  2  3
  1  3  1  0
  3  4  1  0
  3  5  1  0
  4  6  1  0
  5  7  1  0
  6  7  1  0
  5  8  1  6
  4  9  1  1
  8 10  1  0
  7 11  1  1
  9 11  1  0
 10 12  2  0
 10 13  1  0
 11 14  1  0
 12 15  1  0
 13 16  2  0
 14 17  1  0
 15 18  2  0
 16 18  1  0
 17 19  2  0
 17 20  1  0
 18 21  1  0
 19 22  1  0
 20 23  2  0
 22 24  2  0
 23 24  1  0
 23 25  1  0
M  END
