MAK-UNK-849bee6c-19-acrylamide
     RDKit          3D

 28 30  0  0  0  0  0  0  0  0999 V2000
    6.8180   -5.4620   20.2060 C   0  0  0  0  0  0  0  0  0  0  0  0
    6.1180   -4.6620   21.2440 C   0  0  0  0  0  0  0  0  0  0  0  0
    5.4140   -3.5210   20.5950 C   0  0  0  0  0  0  0  0  0  0  0  0
    4.8440   -3.6800   19.5210 O   0  0  0  0  0  0  0  0  0  0  0  0
    5.4620   -2.3420   21.3030 N   0  0  0  0  0  0  0  0  0  0  0  0
    5.0460   -2.4700   22.6740 C   0  0  0  0  0  0  0  0  0  0  0  0
    6.6560   -1.5080   21.1460 C   0  0  0  0  0  0  0  0  0  0  0  0
    6.1240   -3.1110   23.5250 C   0  0  0  0  0  0  0  0  0  0  0  0
    7.7700   -1.9460   22.0920 C   0  0  0  0  0  0  0  0  0  0  0  0
    7.3260   -2.3060   23.4720 N   0  0  0  0  0  0  0  0  0  0  0  0
    7.6190   -1.3100   24.3870 C   0  0  0  0  0  0  0  0  0  0  0  0
    8.7330   -0.4700   23.8580 C   0  0  0  0  0  0  0  0  0  0  0  0
    8.9040    0.9830   24.1140 C   0  0  0  0  0  0  0  0  0  0  0  0
    9.6560   -1.1100   23.0750 C   0  0  0  0  0  0  0  0  0  0  0  0
    9.9740    1.7270   23.5910 C   0  0  0  0  0  0  0  0  0  0  0  0
   10.7050   -0.4370   22.5430 C   0  0  0  0  0  0  0  0  0  0  0  0
   10.2430    3.0740   23.7510 C   0  0  0  0  0  0  0  0  0  0  0  0
   10.9650    0.9190   22.7260 C   0  0  0  0  0  0  0  0  0  0  0  0
   11.6340   -1.1000   21.7860 N   0  0  0  0  0  0  0  0  0  0  0  0
   12.3930   -1.5240   22.8340 C   0  0  0  0  0  0  0  0  0  0  0  0
   13.1970   -2.5070   22.6770 C   0  0  0  0  0  0  0  0  0  0  0  0
   12.2650   -0.8850   24.0550 C   0  0  0  0  0  0  0  0  0  0  0  0
   13.9380   -2.9560   23.7260 C   0  0  0  0  0  0  0  0  0  0  0  0
   12.9300   -1.2090   25.1670 C   0  0  0  0  0  0  0  0  0  0  0  0
   11.3520    0.2680   24.3420 C   0  0  0  0  0  0  0  0  0  0  0  0
   13.8510   -2.3430   25.0870 C   0  0  0  0  0  0  0  0  0  0  0  0
   10.4000   -0.1910   25.3720 N   0  0  0  0  0  0  0  0  0  0  0  0
   14.5410   -2.7420   26.1670 N   0  0  0  0  0  0  0  0  0  0  0  0
  1  2  1  0
  2  3  1  0
  3  4  2  0
  3  5  1  0
  5  6  1  0
  5  7  1  0
  6  8  1  0
  7  9  1  0
  8 10  1  0
  9 10  1  0
 10 11  1  0
 11 12  1  0
 12 13  2  0
 12 14  1  0
 13 15  1  0
 14 16  2  0
 15 17  1  0
 15 18  2  0
 16 18  1  0
 16 19  1  0
 19 20  1  0
 20 21  2  0
 20 22  1  0
 21 23  1  0
 22 24  2  0
 22 25  1  0
 23 26  2  0
 24 26  1  0
 25 27  3  0
 26 28  1  0
M  END
