MAK-UNK-10799360-5-acrylamide
     RDKit          3D

 25 28  0  0  0  0  0  0  0  0999 V2000
    7.5170   -2.8420   18.2590 C   0  0  0  0  0  0  0  0  0  0  0  0
    6.2580   -2.3550   18.9660 C   0  0  0  0  0  0  0  0  0  0  0  0
    5.8500   -3.1920   20.1180 C   0  0  0  0  0  0  0  0  0  0  0  0
    5.2190   -4.2580   19.9880 O   0  0  0  0  0  0  0  0  0  0  0  0
    6.2570   -2.6380   21.2890 N   0  0  0  0  0  0  0  0  0  0  0  0
    7.1880   -1.4880   21.2940 C   0  0  0  0  0  0  0  0  0  0  0  0
    6.2110   -3.1550   22.6520 C   0  0  2  0  0  0  0  0  0  0  0  0
    7.6270   -1.4750   22.7490 C   0  0  1  0  0  0  0  0  0  0  0  0
    6.2980   -1.8530   23.4460 C   0  0  0  0  0  0  0  0  0  0  0  0
    7.5510   -3.8160   22.9930 C   0  0  0  0  0  0  0  0  0  0  0  0
    8.4710   -2.6600   22.9770 N   0  0  0  0  0  0  0  0  0  0  0  0
    9.3990   -2.5820   24.0860 C   0  0  2  0  0  0  0  0  0  0  0  0
   10.4640   -1.6920   23.7990 C   0  0  0  0  0  0  0  0  0  0  0  0
    9.8720   -3.8900   24.6240 C   0  0  0  0  0  0  0  0  0  0  0  0
    8.7250   -2.5300   25.3290 C   0  0  0  0  0  0  0  0  0  0  0  0
   10.7250   -0.4870   24.4770 C   0  0  0  0  0  0  0  0  0  0  0  0
   11.3290   -2.0060   22.7700 C   0  0  0  0  0  0  0  0  0  0  0  0
    9.5040   -3.7920   25.9350 C   0  0  1  0  0  0  0  0  0  0  0  0
   11.8120    0.3240   24.0970 C   0  0  0  0  0  0  0  0  0  0  0  0
   12.3980   -1.2290   22.3860 C   0  0  0  0  0  0  0  0  0  0  0  0
    8.6760   -4.7830   26.5000 C   0  0  0  0  0  0  0  0  0  0  0  0
   12.6560   -0.0390   23.0550 C   0  0  0  0  0  0  0  0  0  0  0  0
   13.2040   -1.7320   21.2610 C   0  0  0  0  0  0  0  0  0  0  0  0
    9.1200   -6.1850   26.6300 N   0  0  0  0  0  0  0  0  0  0  0  0
    7.3540   -4.4970   26.9920 O   0  0  0  0  0  0  0  0  0  0  0  0
  1  2  1  0
  2  3  1  0
  3  4  2  0
  3  5  1  0
  5  6  1  0
  5  7  1  0
  8  6  1  6
  7  9  1  0
  8  9  1  0
  7 10  1  1
  8 11  1  0
 10 11  1  0
 11 12  1  0
 12 13  1  6
 12 14  1  0
 12 15  1  0
 13 16  2  0
 13 17  1  0
 14 18  1  0
 15 18  1  0
 16 19  1  0
 17 20  2  0
 18 21  1  6
 19 22  2  0
 20 22  1  0
 20 23  1  0
 21 24  1  0
 21 25  2  0
M  END
