MAK-UNK-10572812-6
     RDKit          3D

 34 38  0  0  0  0  0  0  0  0999 V2000
   13.4460   -1.7000   23.6280 C   0  0  0  0  0  0  0  0  0  0  0  0
   12.1420   -1.1520   23.9430 N   0  0  0  0  0  0  0  0  0  0  0  0
   11.2340   -1.9970   23.2930 C   0  0  0  0  0  0  0  0  0  0  0  0
   12.0200    0.2630   23.5700 C   0  0  0  0  0  0  0  0  0  0  0  0
    9.8300   -1.4770   22.9520 C   0  0  0  0  0  0  0  0  0  0  0  0
   10.6150    0.7940   23.1530 C   0  0  1  0  0  0  0  0  0  0  0  0
    9.9150   -0.2420   22.3940 N   0  0  0  0  0  0  0  0  0  0  0  0
    9.7770    1.1870   24.3540 C   0  0  0  0  0  0  0  0  0  0  0  0
    8.9300    0.1100   21.5680 C   0  0  0  0  0  0  0  0  0  0  0  0
    9.3230    2.4690   24.4570 O   0  0  0  0  0  0  0  0  0  0  0  0
    9.5090    0.1250   25.3260 N   0  0  0  0  0  0  0  0  0  0  0  0
    8.8020    1.2890   21.1700 O   0  0  0  0  0  0  0  0  0  0  0  0
    7.9950   -1.0520   21.1410 C   0  0  0  0  0  0  0  0  0  0  0  0
    8.3440   -0.0120   26.0840 C   0  0  0  0  0  0  0  0  0  0  0  0
    7.0590   -0.3570   20.1770 C   0  0  0  0  0  0  0  0  0  0  0  0
    7.2860   -0.9800   25.5390 C   0  0  0  0  0  0  0  0  0  0  0  0
    7.3620   -0.6310   18.7440 C   0  0  0  0  0  0  0  0  0  0  0  0
    5.9280    0.5100   20.2000 C   0  0  0  0  0  0  0  0  0  0  0  0
    6.5270   -1.7070   26.6750 C   0  0  0  0  0  0  0  0  0  0  0  0
    6.4400    0.0690   17.9220 N   0  0  0  0  0  0  0  0  0  0  0  0
    5.5400    0.7820   18.8550 C   0  0  0  0  0  0  0  0  0  0  0  0
    5.1770    1.1020   21.1910 C   0  0  0  0  0  0  0  0  0  0  0  0
    6.0150   -3.1030   26.4720 C   0  0  0  0  0  0  0  0  0  0  0  0
    6.1450   -1.3640   28.0040 C   0  0  0  0  0  0  0  0  0  0  0  0
    4.4220    1.6340   18.4370 N   0  0  0  0  0  0  0  0  0  0  0  0
    4.0980    1.9190   20.8600 C   0  0  0  0  0  0  0  0  0  0  0  0
    5.3980   -3.5050   27.5900 N   0  0  0  0  0  0  0  0  0  0  0  0
    5.4560   -2.4990   28.5150 C   0  0  0  0  0  0  0  0  0  0  0  0
    6.2820   -0.2490   28.8560 C   0  0  0  0  0  0  0  0  0  0  0  0
    3.6790    2.2180   19.5680 C   0  0  0  0  0  0  0  0  0  0  0  0
    4.9180   -2.4390   29.9110 C   0  0  0  0  0  0  0  0  0  0  0  0
    5.7830   -0.1710   30.1760 C   0  0  0  0  0  0  0  0  0  0  0  0
    5.1010   -1.2850   30.6780 C   0  0  0  0  0  0  0  0  0  0  0  0
    5.9500    0.9300   30.9230 F   0  0  0  0  0  0  0  0  0  0  0  0
  1  2  1  0
  2  3  1  0
  2  4  1  0
  3  5  1  0
  4  6  1  0
  5  7  1  0
  6  7  1  0
  6  8  1  1
  7  9  1  0
  8 10  2  0
  8 11  1  0
  9 12  2  0
  9 13  1  0
 11 14  1  0
 13 15  1  0
 14 16  1  0
 15 17  2  0
 15 18  1  0
 16 19  1  0
 17 20  1  0
 18 21  2  0
 20 21  1  0
 18 22  1  0
 19 23  2  0
 19 24  1  0
 21 25  1  0
 22 26  2  0
 23 27  1  0
 24 28  2  0
 27 28  1  0
 24 29  1  0
 25 30  2  0
 26 30  1  0
 28 31  1  0
 29 32  2  0
 31 33  2  0
 32 33  1  0
 32 34  1  0
M  END
