MAK-UNK-90d0606b-3-nitrile
     RDKit          3D

 22 24  0  0  0  0  0  0  0  0999 V2000
    7.5800   -3.5650   19.5080 C   0  0  0  0  0  0  0  0  0  0  0  0
    6.8280   -3.3500   18.5000 N   0  0  0  0  0  0  0  0  0  0  0  0
    7.1470   -3.1850   20.7410 N   0  0  0  0  0  0  0  0  0  0  0  0
    7.0870   -4.0060   21.9710 C   0  0  0  0  0  0  0  0  0  0  0  0
    7.3580   -1.8220   21.1980 C   0  0  1  0  0  0  0  0  0  0  0  0
    7.2590   -2.9380   23.1010 C   0  0  2  0  0  0  0  0  0  0  0  0
    6.5040   -1.7830   22.4700 C   0  0  0  0  0  0  0  0  0  0  0  0
    8.8030   -1.8730   21.7130 C   0  0  0  0  0  0  0  0  0  0  0  0
    8.6490   -2.4300   23.0610 N   0  0  0  0  0  0  0  0  0  0  0  0
    8.9830   -1.3450   23.9200 C   0  0  1  0  0  0  0  0  0  0  0  0
    8.4710   -1.2000   25.3750 C   0  0  0  0  0  0  0  0  0  0  0  0
   10.4170   -0.9320   23.6160 C   0  0  0  0  0  0  0  0  0  0  0  0
    7.5160   -0.0930   25.5840 N   0  0  0  0  0  0  0  0  0  0  0  0
   10.8850    0.2290   24.1610 C   0  0  0  0  0  0  0  0  0  0  0  0
   11.2870   -1.6730   22.7720 C   0  0  0  0  0  0  0  0  0  0  0  0
    6.7620    0.0210   27.0840 S   0  0  0  0  0  0  0  0  0  0  0  0
   12.1540    0.6900   23.8940 C   0  0  0  0  0  0  0  0  0  0  0  0
   12.5820   -1.2030   22.5090 C   0  0  0  0  0  0  0  0  0  0  0  0
    6.3320   -1.6700   27.4590 C   0  0  0  0  0  0  0  0  0  0  0  0
    7.7860    0.4340   28.0170 O   0  0  0  0  0  0  0  0  0  0  0  0
    5.5370    0.7700   26.9180 O   0  0  0  0  0  0  0  0  0  0  0  0
   13.0000   -0.0160   23.0740 C   0  0  0  0  0  0  0  0  0  0  0  0
  1  2  2  3
  1  3  1  0
  3  4  1  0
  3  5  1  0
  6  4  1  6
  5  7  1  0
  6  7  1  0
  5  8  1  1
  6  9  1  0
  8  9  1  0
  9 10  1  0
 10 11  1  1
 10 12  1  0
 11 13  1  0
 12 14  2  0
 12 15  1  0
 16 13  1  0
 14 17  1  0
 15 18  2  0
 16 19  1  0
 16 20  2  0
 16 21  2  0
 17 22  2  0
 18 22  1  0
M  END
