MAK-UNK-516d8086-17-chloroacetamide
     RDKit          3D

 23 25  0  0  0  0  0  0  0  0999 V2000
    8.1710   -3.8520   20.4590 C   0  0  0  0  0  0  0  0  0  0  0  0
    7.5290   -2.7750   20.0200 C   0  0  0  0  0  0  0  0  0  0  0  0
    6.6170   -2.9200   19.0900 O   0  0  0  0  0  0  0  0  0  0  0  0
    7.9680   -1.4270   20.7170 C   0  0  0  0  0  0  0  0  0  0  0  0
    7.1530   -0.2830   20.7740 C   0  0  0  0  0  0  0  0  0  0  0  0
    9.2530   -1.2260   21.3770 C   0  0  0  0  0  0  0  0  0  0  0  0
    7.4960    0.9040   21.3830 N   0  0  0  0  0  0  0  0  0  0  0  0
    9.6500    0.0300   22.0320 C   0  0  0  0  0  0  0  0  0  0  0  0
    8.7080    1.0680   22.0050 C   0  0  0  0  0  0  0  0  0  0  0  0
   10.9370    0.2400   22.6980 C   0  0  0  0  0  0  0  0  0  0  0  0
    9.0170    2.3090   22.6470 N   0  0  0  0  0  0  0  0  0  0  0  0
   11.2850   -0.7870   23.5210 C   0  0  0  0  0  0  0  0  0  0  0  0
    9.9150    3.1910   22.1510 C   0  0  0  0  0  0  0  0  0  0  0  0
   12.5290   -0.9740   24.3660 C   0  0  0  0  0  0  0  0  0  0  0  0
   10.3460   -1.7570   23.5490 C   0  0  0  0  0  0  0  0  0  0  0  0
   11.2840    3.0060   22.5800 C   0  0  0  0  0  0  0  0  0  0  0  0
   12.6410   -2.2020   25.2140 C   0  0  0  0  0  0  0  0  0  0  0  0
   10.4690   -2.8460   24.3090 C   0  0  0  0  0  0  0  0  0  0  0  0
   11.5440   -3.0690   25.1440 C   0  0  0  0  0  0  0  0  0  0  0  0
    9.5370   -3.9820   24.3980 C   0  0  0  0  0  0  0  0  0  0  0  0
    8.4410   -4.0790   23.9330 O   0  0  0  0  0  0  0  0  0  0  0  0
   10.2170   -4.9210   25.0900 N   0  0  0  0  0  0  0  0  0  0  0  0
   11.2190   -4.2030   25.7680 C   0  0  0  0  0  0  0  0  0  0  0  0
  1  2  1  0
  2  3  2  0
  2  4  1  0
  4  5  2  0
  4  6  1  0
  5  7  1  0
  6  8  2  0
  7  9  2  0
  8  9  1  0
  8 10  1  0
  9 11  1  0
 10 12  1  0
 11 13  1  0
 12 14  2  0
 12 15  1  0
 13 16  1  0
 14 17  1  0
 15 18  2  0
 17 19  2  0
 18 19  1  0
 18 20  1  0
 20 21  2  0
 20 22  1  0
 19 23  1  0
 22 23  1  0
M  END
