MAK-UNK-e4a48a85-27-nitrile
     RDKit          3D

 26 28  0  0  0  0  0  0  0  0999 V2000
    6.8340   -3.7720   19.9370 C   0  0  0  0  0  0  0  0  0  0  0  0
    6.0090   -3.3110   19.0720 N   0  0  0  0  0  0  0  0  0  0  0  0
    6.9330   -3.1220   21.1100 N   0  0  0  0  0  0  0  0  0  0  0  0
    6.2660   -3.5160   22.3480 C   0  0  0  0  0  0  0  0  0  0  0  0
    7.2900   -1.7090   21.0050 C   0  0  0  0  0  0  0  0  0  0  0  0
    6.8450   -2.8940   23.4540 C   0  0  0  0  0  0  0  0  0  0  0  0
    8.0520   -1.3430   22.1100 C   0  0  0  0  0  0  0  0  0  0  0  0
    7.2210   -1.4760   23.2510 N   0  0  0  0  0  0  0  0  0  0  0  0
    7.7490   -0.7540   24.4150 C   0  0  0  0  0  0  0  0  0  0  0  0
    8.4670    0.3720   24.0330 C   0  0  0  0  0  0  0  0  0  0  0  0
    7.8730    1.3340   23.2250 N   0  0  0  0  0  0  0  0  0  0  0  0
    9.7870    0.5120   24.4610 C   0  0  0  0  0  0  0  0  0  0  0  0
    8.4870    2.4500   23.0500 C   0  0  0  0  0  0  0  0  0  0  0  0
   10.4390    1.6640   24.0020 C   0  0  0  0  0  0  0  0  0  0  0  0
   10.4530   -0.4060   25.2710 N   0  0  0  0  0  0  0  0  0  0  0  0
    7.8970    3.5380   22.1680 C   0  0  0  0  0  0  0  0  0  0  0  0
    9.6740    2.7070   23.6220 N   0  0  0  0  0  0  0  0  0  0  0  0
   11.6540    1.7330   23.9190 O   0  0  0  0  0  0  0  0  0  0  0  0
   10.8630   -1.7280   24.8360 C   0  0  0  0  0  0  0  0  0  0  0  0
   11.7440   -1.5370   23.6490 C   0  0  0  0  0  0  0  0  0  0  0  0
   12.5990   -0.2670   23.6730 C   0  0  0  0  0  0  0  0  0  0  0  0
   11.7880   -2.4390   22.6010 C   0  0  0  0  0  0  0  0  0  0  0  0
   13.4940   -0.0360   22.4950 C   0  0  0  0  0  0  0  0  0  0  0  0
   12.7090   -2.2020   21.4170 C   0  0  0  0  0  0  0  0  0  0  0  0
   13.4870   -1.0650   21.4090 C   0  0  0  0  0  0  0  0  0  0  0  0
   12.7120   -3.0250   20.5400 O   0  0  0  0  0  0  0  0  0  0  0  0
  1  2  2  3
  1  3  1  0
  3  4  1  0
  3  5  1  0
  4  6  1  0
  5  7  1  0
  6  8  1  0
  7  8  1  0
  8  9  1  0
  9 10  1  0
 10 11  1  0
 10 12  2  0
 11 13  2  0
 12 14  1  0
 12 15  1  0
 13 16  1  0
 13 17  1  0
 14 17  1  0
 14 18  2  0
 15 19  1  0
 19 20  1  0
 20 21  2  0
 20 22  1  0
 21 23  1  0
 22 24  2  0
 23 25  2  0
 24 25  1  0
 24 26  1  0
M  END
