MAK-UNK-ec98eaf6-55-chloroacetamide
     RDKit          3D

 35 39  0  0  0  0  0  0  0  0999 V2000
    7.0140   -3.0550   18.9230 C   0  0  0  0  0  0  0  0  0  0  0  0
    6.0390   -3.5050   19.9940 C   0  0  0  0  0  0  0  0  0  0  0  0
    5.3360   -4.4930   19.8380 O   0  0  0  0  0  0  0  0  0  0  0  0
    5.9300   -2.7980   21.1620 N   0  0  0  0  0  0  0  0  0  0  0  0
    6.2560   -3.4830   22.4080 C   0  0  0  0  0  0  0  0  0  0  0  0
    6.4790   -1.4680   21.4620 C   0  0  1  0  0  0  0  0  0  0  0  0
    6.4890   -2.3630   23.4020 C   0  0  2  0  0  0  0  0  0  0  0  0
    5.7290   -1.1900   22.7730 C   0  0  0  0  0  0  0  0  0  0  0  0
    7.8980   -1.7420   21.9060 C   0  0  0  0  0  0  0  0  0  0  0  0
    7.8910   -1.8670   23.2940 N   0  0  0  0  0  0  0  0  0  0  0  0
    8.0780   -0.5630   23.9190 C   0  0  1  0  0  0  0  0  0  0  0  0
    7.3340   -0.2340   25.2210 C   0  0  0  0  0  0  0  0  0  0  0  0
    9.4050   -0.2190   23.7340 C   0  0  0  0  0  0  0  0  0  0  0  0
    7.8430   -0.8810   26.3300 C   0  0  0  0  0  0  0  0  0  0  0  0
   10.0170    1.0050   24.3860 C   0  0  0  0  0  0  0  0  0  0  0  0
   10.2610   -0.9330   22.9300 C   0  0  0  0  0  0  0  0  0  0  0  0
    7.2690   -0.5260   27.5580 C   0  0  0  0  0  0  0  0  0  0  0  0
   11.3330    1.3610   24.1810 C   0  0  0  0  0  0  0  0  0  0  0  0
   11.5600   -0.6050   22.7440 C   0  0  0  0  0  0  0  0  0  0  0  0
   10.0170   -2.0490   22.1850 N   0  0  0  0  0  0  0  0  0  0  0  0
    6.0940    0.2010   27.6600 C   0  0  0  0  0  0  0  0  0  0  0  0
    7.9120   -0.9260   28.7590 C   0  0  0  0  0  0  0  0  0  0  0  0
   12.2350    0.5620   23.3470 C   0  0  0  0  0  0  0  0  0  0  0  0
   12.0980   -1.5810   21.8890 C   0  0  0  0  0  0  0  0  0  0  0  0
   11.1340   -2.4180   21.5520 C   0  0  0  0  0  0  0  0  0  0  0  0
    5.5850    0.5110   29.0230 C   0  0  0  0  0  0  0  0  0  0  0  0
    7.4060   -0.6180   30.0460 C   0  0  0  0  0  0  0  0  0  0  0  0
   13.4090   -1.6700   21.5040 C   0  0  0  0  0  0  0  0  0  0  0  0
    6.2170    0.1150   30.3190 C   0  0  0  0  0  0  0  0  0  0  0  0
   13.4360   -2.9950   22.1600 C   0  0  0  0  0  0  0  0  0  0  0  0
    5.7980    0.3700   31.5650 C   0  0  0  0  0  0  0  0  0  0  0  0
   14.0600   -2.9630   23.4720 N   0  0  0  0  0  0  0  0  0  0  0  0
   13.3940   -2.7550   24.6290 C   0  0  0  0  0  0  0  0  0  0  0  0
   14.2160   -3.2010   25.7940 C   0  0  0  0  0  0  0  0  0  0  0  0
   12.2800   -2.2680   24.7220 O   0  0  0  0  0  0  0  0  0  0  0  0
  1  2  1  0
  2  3  2  0
  2  4  1  0
  4  5  1  0
  4  6  1  0
  7  5  1  6
  6  8  1  0
  7  8  1  0
  6  9  1  1
  7 10  1  0
  9 10  1  0
 10 11  1  0
 11 12  1  1
 11 13  1  0
 12 14  1  0
 13 15  1  0
 13 16  2  0
 14 17  1  0
 15 18  2  0
 16 19  1  0
 16 20  1  0
 17 21  2  0
 17 22  1  0
 18 23  1  0
 19 23  2  0
 19 24  1  0
 20 25  1  0
 24 25  2  0
 21 26  1  0
 22 27  2  0
 24 28  1  0
 26 29  2  0
 27 29  1  0
 28 30  1  0
 29 31  1  0
 30 32  1  0
 32 33  1  0
 33 34  1  0
 33 35  2  0
M  END
