MAK-UNK-10799360-4-bromoalkyne
     RDKit          3D

 24 27  0  0  0  0  0  0  0  0999 V2000
    6.8720   -3.8290   20.0440 C   0  0  0  0  0  0  0  0  0  0  0  0
    5.7720   -4.9070   20.1030 C   0  0  0  0  0  0  0  0  0  0  0  0
    6.8980   -2.7180   20.9250 N   0  0  0  0  0  0  0  0  0  0  0  0
    7.6800   -1.4660   20.7920 C   0  0  0  0  0  0  0  0  0  0  0  0
    6.2810   -2.6540   22.2840 C   0  0  2  0  0  0  0  0  0  0  0  0
    7.6620   -0.9180   22.2380 C   0  0  1  0  0  0  0  0  0  0  0  0
    6.1770   -1.1460   22.5260 C   0  0  0  0  0  0  0  0  0  0  0  0
    7.3260   -2.9490   23.3830 C   0  0  0  0  0  0  0  0  0  0  0  0
    8.3820   -1.9470   23.0600 N   0  0  0  0  0  0  0  0  0  0  0  0
    9.4570   -1.6150   24.0580 C   0  0  0  0  0  0  0  0  0  0  0  0
   10.7180   -0.8290   23.5860 C   0  0  0  0  0  0  0  0  0  0  0  0
   10.8940    0.4990   23.9910 C   0  0  0  0  0  0  0  0  0  0  0  0
   11.8590   -1.3660   22.6820 C   0  0  0  0  0  0  0  0  0  0  0  0
   12.0170    1.2380   23.5970 C   0  0  0  0  0  0  0  0  0  0  0  0
   12.9210   -0.5970   22.3230 C   0  0  0  0  0  0  0  0  0  0  0  0
   12.1100   -2.5780   22.0650 N   0  0  0  0  0  0  0  0  0  0  0  0
   13.0220    0.7070   22.7830 C   0  0  0  0  0  0  0  0  0  0  0  0
   13.7210   -1.3950   21.4920 N   0  0  0  0  0  0  0  0  0  0  0  0
   13.2380   -2.6510   21.3100 C   0  0  0  0  0  0  0  0  0  0  0  0
   13.8660   -3.7870   20.4010 C   0  0  0  0  0  0  0  0  0  0  0  0
   14.8540   -5.2670   20.5430 S   0  0  0  0  0  0  0  0  0  0  0  0
   15.8370   -5.4080   21.8340 N   0  0  0  0  0  0  0  0  0  0  0  0
   13.9900   -6.3710   20.6100 O   0  0  0  0  0  0  0  0  0  0  0  0
   15.9530   -5.3150   19.6460 O   0  0  0  0  0  0  0  0  0  0  0  0
  1  2  2  3
  1  3  1  0
  3  4  1  0
  3  5  1  0
  6  4  1  6
  5  7  1  0
  6  7  1  0
  5  8  1  1
  6  9  1  0
  8  9  1  0
  9 10  1  0
 10 11  1  0
 11 12  1  0
 11 13  2  0
 12 14  2  0
 13 15  1  0
 13 16  1  0
 14 17  1  0
 15 17  2  0
 15 18  1  0
 16 19  1  0
 18 19  2  0
 19 20  1  0
 20 21  1  0
 21 22  1  0
 21 23  2  0
 21 24  2  0
M  END
