MAK-UNK-ec98eaf6-12-chloroacetamide
     RDKit          3D

 23 26  0  0  0  0  0  0  0  0999 V2000
    7.0710   -2.9500   18.9400 C   0  0  0  0  0  0  0  0  0  0  0  0
    6.1100   -3.5060   19.9570 C   0  0  0  0  0  0  0  0  0  0  0  0
    5.0590   -3.9870   19.5720 O   0  0  0  0  0  0  0  0  0  0  0  0
    6.4000   -3.5920   21.2960 N   0  0  0  0  0  0  0  0  0  0  0  0
    6.5370   -4.9040   22.0030 C   0  0  0  0  0  0  0  0  0  0  0  0
    6.7050   -2.4970   22.3070 C   0  0  1  0  0  0  0  0  0  0  0  0
    7.2430   -4.3050   23.1980 C   0  0  2  0  0  0  0  0  0  0  0  0
    6.2890   -3.1800   23.5900 C   0  0  0  0  0  0  0  0  0  0  0  0
    8.0560   -2.4260   22.4380 C   0  0  1  0  0  0  0  0  0  0  0  0
    8.5070   -3.6910   22.4530 C   0  0  0  0  0  0  0  0  0  0  0  0
    8.6160   -1.3270   21.5320 C   0  0  0  0  0  0  0  0  0  0  0  0
    8.5440   -1.9870   23.8350 C   0  0  0  0  0  0  0  0  0  0  0  0
    8.2990   -0.2970   22.4490 C   0  0  1  0  0  0  0  0  0  0  0  0
    8.9860   -0.6930   23.7150 C   0  0  2  0  0  0  0  0  0  0  0  0
    8.7910    1.0510   21.9460 C   0  0  0  0  0  0  0  0  0  0  0  0
   10.4510   -0.6660   23.3920 C   0  0  0  0  0  0  0  0  0  0  0  0
    7.9140    1.6820   21.1030 N   0  0  0  0  0  0  0  0  0  0  0  0
    9.9630    1.6680   22.2640 O   0  0  0  0  0  0  0  0  0  0  0  0
   11.0070    0.5890   23.8910 C   0  0  0  0  0  0  0  0  0  0  0  0
   11.2220   -1.6180   22.7060 C   0  0  0  0  0  0  0  0  0  0  0  0
   12.2960    0.9190   23.7040 C   0  0  0  0  0  0  0  0  0  0  0  0
   12.5700   -1.2540   22.5230 C   0  0  0  0  0  0  0  0  0  0  0  0
   13.0540   -0.0260   23.0110 C   0  0  0  0  0  0  0  0  0  0  0  0
  1  2  1  0
  2  3  2  0
  2  4  1  0
  4  5  1  0
  6  4  1  6
  7  5  1  6
  6  8  1  0
  7  8  1  0
  6  9  1  0
  7 10  1  0
  9 10  1  6
  9 11  1  0
  9 12  1  0
 11 13  1  0
 12 14  1  0
 13 14  1  0
 13 15  1  6
 14 16  1  6
 15 17  1  0
 15 18  2  0
 16 19  2  0
 16 20  1  0
 19 21  1  0
 20 22  2  0
 21 23  2  0
 22 23  1  0
M  END
