MAK-UNK-5d2caa6f-7-bromoalkyne
     RDKit          3D

 20 23  0  0  0  0  0  0  0  0999 V2000
    6.8390   -3.3940   19.6320 C   0  0  0  0  0  0  0  0  0  0  0  0
    5.8560   -2.8600   18.6710 C   0  0  0  0  0  0  0  0  0  0  0  0
    6.6980   -3.1680   20.9830 N   0  0  0  0  0  0  0  0  0  0  0  0
    6.5760   -4.1370   21.9560 C   0  0  0  0  0  0  0  0  0  0  0  0
    6.7750   -1.8840   21.5610 C   0  0  1  0  0  0  0  0  0  0  0  0
    6.4940   -3.2030   23.0920 C   0  0  2  0  0  0  0  0  0  0  0  0
    5.7370   -2.0300   22.4870 C   0  0  0  0  0  0  0  0  0  0  0  0
    7.9950   -1.9060   22.1670 C   0  0  0  0  0  0  0  0  0  0  0  0
    7.7530   -2.6610   23.3270 N   0  0  0  0  0  0  0  0  0  0  0  0
    8.1640   -2.4370   24.6130 C   0  0  0  0  0  0  0  0  0  0  0  0
    9.5960   -2.0740   24.3920 C   0  0  0  0  0  0  0  0  0  0  0  0
    9.8950   -0.8660   23.8960 N   0  0  0  0  0  0  0  0  0  0  0  0
   10.6260   -2.9430   24.6420 O   0  0  0  0  0  0  0  0  0  0  0  0
   11.2760   -1.1760   23.8100 C   0  0  0  0  0  0  0  0  0  0  0  0
   11.8020   -2.3740   24.2750 N   0  0  0  0  0  0  0  0  0  0  0  0
   12.1370   -0.4350   23.2340 C   0  0  0  0  0  0  0  0  0  0  0  0
   12.7270   -1.2720   22.2240 C   0  0  0  0  0  0  0  0  0  0  0  0
   12.7330    1.1260   23.2780 S   0  0  0  0  0  0  0  0  0  0  0  0
   13.6150   -0.6580   21.5460 C   0  0  0  0  0  0  0  0  0  0  0  0
   13.8140    0.6630   21.9460 C   0  0  0  0  0  0  0  0  0  0  0  0
  1  2  2  3
  1  3  1  0
  3  4  1  0
  3  5  1  0
  6  4  1  6
  5  7  1  0
  6  7  1  0
  5  8  1  1
  6  9  1  0
  8  9  1  0
  9 10  1  0
 10 11  1  0
 11 12  2  0
 11 13  1  0
 12 14  1  0
 13 15  1  0
 14 15  2  0
 14 16  1  0
 16 17  2  0
 16 18  1  0
 17 19  1  0
 18 20  1  0
 19 20  2  0
M  END
