MAK-UNK-ec98eaf6-13-acrylamide
     RDKit          3D

 21 23  0  0  0  0  0  0  0  0999 V2000
    7.2520   -2.8010   18.2990 C   0  0  0  0  0  0  0  0  0  0  0  0
    6.4180   -2.1950   19.3630 C   0  0  0  0  0  0  0  0  0  0  0  0
    5.9510   -3.1420   20.4030 C   0  0  0  0  0  0  0  0  0  0  0  0
    5.2670   -4.1680   20.1630 O   0  0  0  0  0  0  0  0  0  0  0  0
    6.4110   -2.7060   21.6140 N   0  0  0  0  0  0  0  0  0  0  0  0
    6.1370   -3.3220   22.9150 C   0  0  0  0  0  0  0  0  0  0  0  0
    7.8130   -2.2830   21.7150 C   0  0  2  0  0  0  0  0  0  0  0  0
    7.5750   -3.5490   23.3170 C   0  0  1  0  0  0  0  0  0  0  0  0
    8.3810   -3.6240   22.1880 C   0  0  0  0  0  0  0  0  0  0  0  0
    7.8990   -1.3870   22.7380 C   0  0  0  0  0  0  0  0  0  0  0  0
    8.1240   -2.2630   23.8720 N   0  0  0  0  0  0  0  0  0  0  0  0
    9.4240   -2.4860   24.3590 C   0  0  0  0  0  0  0  0  0  0  0  0
    9.7470   -3.7680   24.0370 F   0  0  0  0  0  0  0  0  0  0  0  0
    9.3530   -2.5700   25.6980 F   0  0  0  0  0  0  0  0  0  0  0  0
   10.4820   -1.6200   23.9120 C   0  0  0  0  0  0  0  0  0  0  0  0
   10.5700   -0.2920   24.6110 C   0  0  0  0  0  0  0  0  0  0  0  0
   11.3600   -1.9650   22.9120 C   0  0  0  0  0  0  0  0  0  0  0  0
   11.7050    0.5980   24.0990 C   0  0  0  0  0  0  0  0  0  0  0  0
   12.3600   -1.1270   22.4980 C   0  0  0  0  0  0  0  0  0  0  0  0
   12.6310    0.1370   22.9970 C   0  0  0  0  0  0  0  0  0  0  0  0
   13.3410   -1.7080   21.2510 Cl  0  0  0  0  0  0  0  0  0  0  0  0
  1  2  1  0
  2  3  1  0
  3  4  2  0
  3  5  1  0
  5  6  1  0
  5  7  1  0
  8  6  1  6
  7  9  1  0
  8  9  1  0
  7 10  1  1
  8 11  1  0
 10 11  1  0
 11 12  1  0
 12 13  1  0
 12 14  1  0
 12 15  1  0
 15 16  2  0
 15 17  1  0
 16 18  1  0
 17 19  2  0
 18 20  2  0
 19 20  1  0
 19 21  1  0
M  END
