MAK-UNK-849bee6c-23-chloroacetamide
     RDKit          3D

 29 31  0  0  0  0  0  0  0  0999 V2000
    7.2980   -2.9730   18.9300 C   0  0  0  0  0  0  0  0  0  0  0  0
    6.4380   -3.3910   20.0870 C   0  0  0  0  0  0  0  0  0  0  0  0
    5.5170   -4.2200   19.8730 O   0  0  0  0  0  0  0  0  0  0  0  0
    6.7560   -2.8070   21.3760 N   0  0  0  0  0  0  0  0  0  0  0  0
    7.0000   -1.3730   21.4650 C   0  0  0  0  0  0  0  0  0  0  0  0
    7.5160   -3.5810   22.3700 C   0  0  0  0  0  0  0  0  0  0  0  0
    8.5010   -0.9880   21.5410 C   0  0  0  0  0  0  0  0  0  0  0  0
    8.6170   -2.8330   23.2060 C   0  0  0  0  0  0  0  0  0  0  0  0
    9.2880   -1.6330   22.6150 N   0  0  0  0  0  0  0  0  0  0  0  0
   10.7810   -1.6200   22.7490 C   0  0  0  0  0  0  0  0  0  0  0  0
   11.4130   -0.2010   22.7670 C   0  0  0  0  0  0  0  0  0  0  0  0
   10.5050    0.9150   23.2360 C   0  0  0  0  0  0  0  0  0  0  0  0
   12.7820    0.1180   22.3600 C   0  0  0  0  0  0  0  0  0  0  0  0
   11.0790    2.2660   23.2370 C   0  0  0  0  0  0  0  0  0  0  0  0
   13.3410    1.4610   22.3530 C   0  0  0  0  0  0  0  0  0  0  0  0
   10.3390    3.3820   23.6410 C   0  0  0  0  0  0  0  0  0  0  0  0
   12.5120    2.4970   22.7820 C   0  0  0  0  0  0  0  0  0  0  0  0
   14.6810    1.8820   21.9300 N   0  0  0  0  0  0  0  0  0  0  0  0
   14.8830    3.0500   21.1000 C   0  0  0  0  0  0  0  0  0  0  0  0
   14.1940    4.0430   21.6180 N   0  0  0  0  0  0  0  0  0  0  0  0
   15.6550    3.1340   19.7890 C   0  0  0  0  0  0  0  0  0  0  0  0
   14.1600    5.1480   20.9830 C   0  0  0  0  0  0  0  0  0  0  0  0
   15.5190    4.3700   19.2880 C   0  0  0  0  0  0  0  0  0  0  0  0
   16.4140    1.9820   19.1460 N   0  0  0  0  0  0  0  0  0  0  0  0
   13.3720    6.1170   21.5790 C   0  0  0  0  0  0  0  0  0  0  0  0
   14.8100    5.3660   19.8330 N   0  0  0  0  0  0  0  0  0  0  0  0
   16.9410    1.2770   17.9760 C   0  0  0  0  0  0  0  0  0  0  0  0
   12.1990    5.7000   22.1690 N   0  0  0  0  0  0  0  0  0  0  0  0
   17.3800   -0.1960   17.8590 C   0  0  0  0  0  0  0  0  0  0  0  0
  1  2  1  0
  2  3  2  0
  2  4  1  0
  4  5  1  0
  4  6  1  0
  5  7  1  0
  6  8  1  0
  7  9  1  0
  8  9  1  0
  9 10  1  0
 10 11  1  0
 11 12  2  0
 11 13  1  0
 12 14  1  0
 13 15  2  0
 14 16  1  0
 14 17  2  0
 15 17  1  0
 15 18  1  0
 18 19  1  0
 19 20  2  0
 19 21  1  0
 20 22  1  0
 21 23  2  0
 21 24  1  0
 22 25  1  0
 22 26  2  0
 23 26  1  0
 24 27  1  0
 25 28  3  0
 27 29  1  0
M  END
