MAK-UNK-72659d64-4-acrylamide
     RDKit          3D

 14 14  0  0  0  0  0  0  0  0999 V2000
    7.7040   -4.0640   20.3340 C   0  0  0  0  0  0  0  0  0  0  0  0
    7.1960   -2.8810   19.4700 C   0  0  0  0  0  0  0  0  0  0  0  0
    5.6910   -2.8860   19.3140 C   0  0  0  0  0  0  0  0  0  0  0  0
    4.5320   -3.1060   19.6020 O   0  0  0  0  0  0  0  0  0  0  0  0
    5.8420   -3.4650   20.5420 N   0  0  0  0  0  0  0  0  0  0  0  0
    5.6380   -2.7830   21.7630 C   0  0  0  0  0  0  0  0  0  0  0  0
    5.3570   -3.8550   22.7810 C   0  0  0  0  0  0  0  0  0  0  0  0
    6.1960   -3.9820   24.0520 C   0  0  0  0  0  0  0  0  0  0  0  0
    4.3220   -4.7730   22.5960 N   0  0  0  0  0  0  0  0  0  0  0  0
    5.8110   -5.0960   24.9960 C   0  0  0  0  0  0  0  0  0  0  0  0
    4.0850   -5.7280   23.5280 C   0  0  0  0  0  0  0  0  0  0  0  0
    4.7630   -5.9470   24.7170 N   0  0  0  0  0  0  0  0  0  0  0  0
    3.0390   -6.6350   23.3220 C   0  0  0  0  0  0  0  0  0  0  0  0
    2.9650   -7.7150   24.3060 N   0  0  0  0  0  0  0  0  0  0  0  0
  1  2  1  0
  2  3  1  0
  3  4  2  0
  3  5  1  0
  5  6  1  0
  6  7  1  0
  7  8  2  0
  7  9  1  0
  8 10  1  0
  9 11  2  0
 10 12  2  0
 11 12  1  0
 11 13  1  0
 13 14  3  0
M  END
