MAK-UNK-a7992eb3-7-nitrile
     RDKit          3D

 24 26  0  0  0  0  0  0  0  0999 V2000
    6.4650   -4.3850   20.3510 C   0  0  0  0  0  0  0  0  0  0  0  0
    5.3480   -4.1590   19.7840 N   0  0  0  0  0  0  0  0  0  0  0  0
    6.5910   -5.0790   21.5630 N   0  0  0  0  0  0  0  0  0  0  0  0
    7.4380   -4.6090   22.6880 C   0  0  0  0  0  0  0  0  0  0  0  0
    5.4190   -5.8750   21.9880 C   0  0  0  0  0  0  0  0  0  0  0  0
    6.6390   -3.8300   23.7390 C   0  0  0  0  0  0  0  0  0  0  0  0
    5.1270   -5.8900   23.3750 C   0  0  0  0  0  0  0  0  0  0  0  0
    5.3600   -4.5300   24.0530 C   0  0  0  0  0  0  0  0  0  0  0  0
    5.0190   -4.5920   25.4410 C   0  0  0  0  0  0  0  0  0  0  0  0
    5.7950   -5.0150   26.2900 O   0  0  0  0  0  0  0  0  0  0  0  0
    3.6330   -4.0600   25.7470 N   0  0  0  0  0  0  0  0  0  0  0  0
    3.2920   -2.6670   25.4180 C   0  0  0  0  0  0  0  0  0  0  0  0
    4.2190   -1.8890   24.7020 C   0  0  0  0  0  0  0  0  0  0  0  0
    2.0170   -2.1900   25.8380 C   0  0  0  0  0  0  0  0  0  0  0  0
    3.7060   -0.5080   24.4260 C   0  0  0  0  0  0  0  0  0  0  0  0
    1.6270   -0.8890   25.5280 C   0  0  0  0  0  0  0  0  0  0  0  0
    1.1820   -2.8400   26.4700 O   0  0  0  0  0  0  0  0  0  0  0  0
    2.4490   -0.0190   24.8230 C   0  0  0  0  0  0  0  0  0  0  0  0
    0.0970   -2.2230   27.0740 C   0  0  0  0  0  0  0  0  0  0  0  0
    0.5200   -1.2350   28.0550 C   0  0  0  0  0  0  0  0  0  0  0  0
   -0.5620   -3.1780   28.1180 C   0  0  0  0  0  0  0  0  0  0  0  0
   -0.1610   -2.0200   29.4660 S   0  0  0  0  0  0  0  0  0  0  0  0
   -1.3240   -1.2890   29.9270 O   0  0  0  0  0  0  0  0  0  0  0  0
    0.8920   -2.5470   30.3110 O   0  0  0  0  0  0  0  0  0  0  0  0
  1  2  2  3
  1  3  1  0
  3  4  1  0
  3  5  1  0
  4  6  1  0
  5  7  1  0
  6  8  1  0
  7  8  1  0
  8  9  1  0
  9 10  2  0
  9 11  1  0
 11 12  1  0
 12 13  2  0
 12 14  1  0
 13 15  1  0
 14 16  2  0
 14 17  1  0
 15 18  2  0
 16 18  1  0
 17 19  1  0
 19 20  1  0
 19 21  1  0
 22 20  1  0
 21 22  1  0
 22 23  2  0
 22 24  2  0
M  END
