MAK-UNK-c8c8f7e2-15
     RDKit          3D

 16 17  0  0  0  0  0  0  0  0999 V2000
    5.7520    0.5530   17.7270 N   0  0  0  0  0  0  0  0  0  0  0  0
    5.0810   -0.2600   18.5910 C   0  0  0  0  0  0  0  0  0  0  0  0
    4.2660    0.2900   19.6210 O   0  0  0  0  0  0  0  0  0  0  0  0
    5.3220   -1.7030   18.3220 N   0  0  0  0  0  0  0  0  0  0  0  0
    6.1310   -2.2530   19.3950 C   0  0  0  0  0  0  0  0  0  0  0  0
    7.3200   -1.3860   19.7520 C   0  0  0  0  0  0  0  0  0  0  0  0
    5.8910   -3.4730   20.0890 C   0  0  0  0  0  0  0  0  0  0  0  0
    8.2490   -1.8220   20.8490 C   0  0  0  0  0  0  0  0  0  0  0  0
    6.7730   -3.9170   21.1590 C   0  0  0  0  0  0  0  0  0  0  0  0
    7.8890   -3.1380   21.5140 C   0  0  0  0  0  0  0  0  0  0  0  0
    6.6500   -5.0440   21.8990 N   0  0  0  0  0  0  0  0  0  0  0  0
    5.3370   -5.6250   22.0790 C   0  0  0  0  0  0  0  0  0  0  0  0
    7.0730   -4.8630   23.1790 C   0  0  0  0  0  0  0  0  0  0  0  0
    4.8380   -5.3300   23.3280 C   0  0  0  0  0  0  0  0  0  0  0  0
    5.9420   -4.7180   24.0090 C   0  0  0  0  0  0  0  0  0  0  0  0
    8.2040   -4.8140   23.6380 O   0  0  0  0  0  0  0  0  0  0  0  0
  1  2  1  0
  2  3  2  0
  2  4  1  0
  4  5  1  0
  5  6  2  0
  5  7  1  0
  6  8  1  0
  7  9  2  0
  8 10  2  0
  9 10  1  0
  9 11  1  0
 11 12  1  0
 11 13  1  0
 12 14  1  0
 13 15  1  0
 14 15  1  0
 13 16  2  0
M  END
