MAK-UNK-8fdbca50-21-vinylsulfonamide
     RDKit          3D

 41 44  0  0  0  0  0  0  0  0999 V2000
    8.8430   -3.8920   20.3120 C   0  0  0  0  0  0  0  0  0  0  0  0
    7.6470   -3.0980   19.7680 C   0  0  0  0  0  0  0  0  0  0  0  0
    6.2170   -3.6170   20.7050 S   0  0  0  0  0  0  0  0  0  0  0  0
    5.1240   -4.0120   19.8350 O   0  0  0  0  0  0  0  0  0  0  0  0
    6.6900   -4.5440   21.6820 O   0  0  0  0  0  0  0  0  0  0  0  0
    5.7340   -2.2660   21.5640 N   0  0  0  0  0  0  0  0  0  0  0  0
    6.7630   -1.2850   21.8960 C   0  0  0  0  0  0  0  0  0  0  0  0
    4.7840   -2.4800   22.6670 C   0  0  0  0  0  0  0  0  0  0  0  0
    6.8120   -1.1490   23.3940 C   0  0  0  0  0  0  0  0  0  0  0  0
    5.4080   -2.9720   23.8170 C   0  0  0  0  0  0  0  0  0  0  0  0
    6.6190   -2.3350   24.1290 C   0  0  0  0  0  0  0  0  0  0  0  0
    7.6990   -3.2100   24.1300 C   0  0  0  0  0  0  0  0  0  0  0  0
    8.8510   -2.8090   23.9030 O   0  0  0  0  0  0  0  0  0  0  0  0
    7.3430   -4.6580   24.4070 N   0  0  0  0  0  0  0  0  0  0  0  0
    6.4540   -4.9080   25.6180 C   0  0  0  0  0  0  0  0  0  0  0  0
    7.7280   -5.7950   23.5240 C   0  0  0  0  0  0  0  0  0  0  0  0
    7.3750   -5.8120   26.7650 C   0  0  0  0  0  0  0  0  0  0  0  0
    6.6100   -5.4710   26.6550 C   0  0  0  0  0  0  0  0  0  0  0  0
    6.6420   -6.4510   22.6550 C   0  0  0  0  0  0  0  0  0  0  0  0
    9.0320   -5.5710   22.7930 C   0  0  0  0  0  0  0  0  0  0  0  0
    8.7450   -6.2070   26.5090 C   0  0  0  0  0  0  0  0  0  0  0  0
    7.7590   -5.4420   25.6910 C   0  0  0  0  0  0  0  0  0  0  0  0
    5.9350   -5.9870   28.2320 S   0  0  0  0  0  0  0  0  0  0  0  0
    9.0380   -5.8300   25.4810 N   0  0  0  0  0  0  0  0  0  0  0  0
    4.9980   -7.0440   27.8570 O   0  0  0  0  0  0  0  0  0  0  0  0
    7.1210   -6.2600   29.0560 O   0  0  0  0  0  0  0  0  0  0  0  0
    5.1370   -4.7050   29.0170 N   0  0  0  0  0  0  0  0  0  0  0  0
    4.4750   -4.7730   30.0820 C   0  0  0  0  0  0  0  0  0  0  0  0
    5.2170   -3.6520   28.5100 C   0  0  0  0  0  0  0  0  0  0  0  0
    5.1920   -5.7060   29.2960 C   0  0  0  0  0  0  0  0  0  0  0  0
    5.8090   -4.9500   28.0280 C   0  0  0  0  0  0  0  0  0  0  0  0
    4.4620   -2.9560   29.4790 C   0  0  0  0  0  0  0  0  0  0  0  0
    5.1630   -7.0210   29.8330 C   0  0  0  0  0  0  0  0  0  0  0  0
    5.5610   -2.0470   29.3780 C   0  0  0  0  0  0  0  0  0  0  0  0
    4.1290   -2.0170   30.3370 C   0  0  0  0  0  0  0  0  0  0  0  0
    4.6310   -7.1120   31.1140 N   0  0  0  0  0  0  0  0  0  0  0  0
    5.0790   -1.0600   30.3700 C   0  0  0  0  0  0  0  0  0  0  0  0
    3.0040   -2.0150   31.0800 C   0  0  0  0  0  0  0  0  0  0  0  0
    4.9470   -0.9700   30.5130 F   0  0  0  0  0  0  0  0  0  0  0  0
    5.5410   -7.5820   32.0180 C   0  0  0  0  0  0  0  0  0  0  0  0
    3.8840   -0.9980   31.1970 C   0  0  0  0  0  0  0  0  0  0  0  0
  1  2  1  0
  3  2  1  0
  3  4  2  0
  3  5  2  0
  3  6  1  0
  6  7  1  0
  6  8  1  0
  7  9  1  0
  8 10  1  0
  9 11  1  0
 10 11  1  0
 11 12  1  0
 12 13  2  0
 12 14  1  0
 14 15  1  0
 14 16  1  0
 15 17  2  0
 15 18  1  0
 16 19  1  0
 16 20  1  0
 17 21  1  0
 18 22  2  0
 23 18  1  0
 21 24  2  0
 22 24  1  0
 23 25  2  0
 23 26  2  0
 23 27  1  0
 27 28  1  0
 27 29  1  0
 28 30  2  0
 29 31  2  0
 30 31  1  0
 29 32  1  0
 30 33  1  0
 32 34  2  0
 32 35  1  0
 33 36  1  0
 34 37  1  0
 35 38  2  0
 35 39  1  0
 36 40  1  0
 37 41  2  0
 38 41  1  0
M  END
