MAK-UNK-148caf23-16-chloroacetamide
     RDKit          3D

 35 38  0  0  0  0  0  0  0  0999 V2000
    8.4460   -3.7140   19.4620 C   0  0  0  0  0  0  0  0  0  0  0  0
    7.6200   -2.6850   19.9450 C   0  0  0  0  0  0  0  0  0  0  0  0
    6.4750   -2.8010   19.2340 O   0  0  0  0  0  0  0  0  0  0  0  0
    8.2510   -1.8590   21.1500 C   0  0  0  0  0  0  0  0  0  0  0  0
    8.6010   -2.6390   22.3540 C   0  0  0  0  0  0  0  0  0  0  0  0
    8.5920   -0.4920   21.3490 C   0  0  0  0  0  0  0  0  0  0  0  0
    9.2220   -2.0220   23.5920 C   0  0  0  0  0  0  0  0  0  0  0  0
    9.1700    0.0640   22.4960 N   0  0  0  0  0  0  0  0  0  0  0  0
    9.4740   -0.6800   23.5970 C   0  0  0  0  0  0  0  0  0  0  0  0
   10.0280   -0.1330   24.7580 N   0  0  0  0  0  0  0  0  0  0  0  0
    9.3790   -0.5620   25.9970 C   0  0  0  0  0  0  0  0  0  0  0  0
    8.0200   -0.3600   25.8770 C   0  0  0  0  0  0  0  0  0  0  0  0
    7.7030    0.9900   25.5680 C   0  0  0  0  0  0  0  0  0  0  0  0
    7.0640   -1.3710   26.0330 C   0  0  0  0  0  0  0  0  0  0  0  0
    6.4680    1.4710   25.3910 N   0  0  0  0  0  0  0  0  0  0  0  0
    5.7340   -1.0110   25.8710 C   0  0  0  0  0  0  0  0  0  0  0  0
    5.4150    0.4510   25.5410 C   0  0  0  0  0  0  0  0  0  0  0  0
    4.4460   -2.1690   26.0290 S   0  0  0  0  0  0  0  0  0  0  0  0
    5.0290   -3.4840   26.1960 O   0  0  0  0  0  0  0  0  0  0  0  0
    3.6320   -1.8180   24.8900 O   0  0  0  0  0  0  0  0  0  0  0  0
    3.6000   -1.8040   27.4900 N   0  0  0  0  0  0  0  0  0  0  0  0
    2.2430   -1.8810   27.6110 C   0  0  0  0  0  0  0  0  0  0  0  0
    4.1260   -1.3920   28.7320 C   0  0  0  0  0  0  0  0  0  0  0  0
    1.7920   -1.5540   28.8470 C   0  0  0  0  0  0  0  0  0  0  0  0
    3.0470   -1.2210   29.6130 C   0  0  0  0  0  0  0  0  0  0  0  0
    5.5510   -1.1460   29.1550 C   0  0  0  0  0  0  0  0  0  0  0  0
    0.4390   -1.5600   29.2120 C   0  0  0  0  0  0  0  0  0  0  0  0
    6.6300   -1.9610   28.5210 C   0  0  0  0  0  0  0  0  0  0  0  0
    5.9430   -0.1980   30.1110 C   0  0  0  0  0  0  0  0  0  0  0  0
    0.1820   -1.4010   30.5290 N   0  0  0  0  0  0  0  0  0  0  0  0
    7.9590   -1.7570   28.8850 C   0  0  0  0  0  0  0  0  0  0  0  0
    7.2940   -0.0220   30.4550 C   0  0  0  0  0  0  0  0  0  0  0  0
    5.0280    0.5700   30.7270 F   0  0  0  0  0  0  0  0  0  0  0  0
    0.6570   -0.2810   31.1140 C   0  0  0  0  0  0  0  0  0  0  0  0
    8.3040   -0.8010   29.8410 C   0  0  0  0  0  0  0  0  0  0  0  0
  1  2  1  0
  2  3  2  0
  2  4  1  0
  4  5  2  0
  4  6  1  0
  5  7  1  0
  6  8  2  0
  7  9  2  0
  8  9  1  0
  9 10  1  0
 10 11  1  0
 11 12  1  0
 12 13  2  0
 12 14  1  0
 13 15  1  0
 14 16  2  0
 15 17  2  0
 16 17  1  0
 18 16  1  0
 18 19  2  0
 18 20  2  0
 18 21  1  0
 21 22  1  0
 21 23  1  0
 22 24  2  0
 23 25  2  0
 24 25  1  0
 23 26  1  0
 24 27  1  0
 26 28  2  0
 26 29  1  0
 27 30  1  0
 28 31  1  0
 29 32  2  0
 29 33  1  0
 30 34  1  0
 31 35  2  0
 32 35  1  0
M  END
