MAK-UNK-30aad1f1-4-chloroacetamide
     RDKit          3D

 27 29  0  0  0  0  0  0  0  0999 V2000
    7.5840   -3.0570   18.1020 C   0  0  0  0  0  0  0  0  0  0  0  0
    6.4820   -2.8280   18.7190 C   0  0  0  0  0  0  0  0  0  0  0  0
    5.6720   -3.6580   19.1630 O   0  0  0  0  0  0  0  0  0  0  0  0
    6.3090   -1.4480   18.8770 C   0  0  0  0  0  0  0  0  0  0  0  0
    5.4320   -0.4880   18.0480 C   0  0  0  0  0  0  0  0  0  0  0  0
    7.0780   -1.0460   19.9160 C   0  0  0  0  0  0  0  0  0  0  0  0
    5.5130    0.8780   18.5480 C   0  0  0  0  0  0  0  0  0  0  0  0
    7.1380    0.1570   20.3470 N   0  0  0  0  0  0  0  0  0  0  0  0
    6.3970    1.0310   19.7250 C   0  0  0  0  0  0  0  0  0  0  0  0
    6.4410    2.1550   20.3150 N   0  0  0  0  0  0  0  0  0  0  0  0
    5.1780    1.8520   20.9900 C   0  0  0  0  0  0  0  0  0  0  0  0
    5.3600    1.1890   22.2080 C   0  0  0  0  0  0  0  0  0  0  0  0
    6.1660    0.0170   22.3560 C   0  0  0  0  0  0  0  0  0  0  0  0
    4.7380    1.6690   23.3620 C   0  0  0  0  0  0  0  0  0  0  0  0
    6.2900   -0.5880   23.6490 C   0  0  0  0  0  0  0  0  0  0  0  0
    4.9420    0.9820   24.5720 C   0  0  0  0  0  0  0  0  0  0  0  0
    3.9680    2.7550   23.2710 N   0  0  0  0  0  0  0  0  0  0  0  0
    5.6910   -0.1170   24.7520 N   0  0  0  0  0  0  0  0  0  0  0  0
    2.5850    2.4180   23.6550 C   0  0  0  0  0  0  0  0  0  0  0  0
    2.2930    1.5570   24.4910 O   0  0  0  0  0  0  0  0  0  0  0  0
    1.6470    3.2430   22.9280 N   0  0  0  0  0  0  0  0  0  0  0  0
    0.4630    3.6420   23.4850 C   0  0  0  0  0  0  0  0  0  0  0  0
   -0.6490    2.9940   23.0760 C   0  0  0  0  0  0  0  0  0  0  0  0
    0.4360    4.6810   24.4350 C   0  0  0  0  0  0  0  0  0  0  0  0
   -2.0270    3.2910   23.5630 C   0  0  0  0  0  0  0  0  0  0  0  0
   -0.9060    5.1150   25.0400 C   0  0  0  0  0  0  0  0  0  0  0  0
   -2.1860    4.4040   24.5950 C   0  0  0  0  0  0  0  0  0  0  0  0
  1  2  1  0
  2  3  2  0
  2  4  1  0
  4  5  2  0
  4  6  1  0
  5  7  1  0
  6  8  2  0
  7  9  2  0
  8  9  1  0
  9 10  1  0
 10 11  1  0
 11 12  1  0
 12 13  2  0
 12 14  1  0
 13 15  1  0
 14 16  2  0
 14 17  1  0
 15 18  2  0
 16 18  1  0
 17 19  1  0
 19 20  2  0
 19 21  1  0
 21 22  1  0
 22 23  2  0
 22 24  1  0
 23 25  1  0
 24 26  2  0
 25 27  2  0
 26 27  1  0
M  END
