MAK-UNK-849bee6c-12-bromoalkyne
     RDKit          3D

 24 26  0  0  0  0  0  0  0  0999 V2000
    7.1160   -3.1290   19.5940 C   0  0  0  0  0  0  0  0  0  0  0  0
    5.7970   -3.1140   18.8940 C   0  0  0  0  0  0  0  0  0  0  0  0
    7.1960   -2.8190   20.9060 N   0  0  0  0  0  0  0  0  0  0  0  0
    6.5520   -3.5100   21.9780 C   0  0  0  0  0  0  0  0  0  0  0  0
    7.5930   -1.4720   21.2340 C   0  0  0  0  0  0  0  0  0  0  0  0
    7.4400   -3.4650   23.2320 C   0  0  0  0  0  0  0  0  0  0  0  0
    8.6890   -1.6310   22.0380 C   0  0  0  0  0  0  0  0  0  0  0  0
    8.3580   -2.2990   23.3100 N   0  0  0  0  0  0  0  0  0  0  0  0
    9.4980   -2.2940   24.1630 C   0  0  0  0  0  0  0  0  0  0  0  0
   10.5820   -1.3190   23.7780 C   0  0  0  0  0  0  0  0  0  0  0  0
   11.7830   -1.7790   22.9770 C   0  0  0  0  0  0  0  0  0  0  0  0
   10.4850    0.0250   24.1640 C   0  0  0  0  0  0  0  0  0  0  0  0
   12.7900   -0.7470   22.6580 C   0  0  0  0  0  0  0  0  0  0  0  0
   11.4770    0.9560   23.8270 C   0  0  0  0  0  0  0  0  0  0  0  0
   12.6020    0.5730   23.0920 C   0  0  0  0  0  0  0  0  0  0  0  0
   11.3240    2.1130   24.2130 O   0  0  0  0  0  0  0  0  0  0  0  0
   10.4110    3.0030   23.6830 C   0  0  0  0  0  0  0  0  0  0  0  0
   10.7330    4.4550   23.6790 C   0  0  0  0  0  0  0  0  0  0  0  0
    9.0070    2.7350   23.0550 C   0  0  0  0  0  0  0  0  0  0  0  0
    9.7790    5.3890   23.1430 N   0  0  0  0  0  0  0  0  0  0  0  0
    8.1150    3.6650   22.5450 N   0  0  0  0  0  0  0  0  0  0  0  0
    8.5040    4.9400   22.5980 C   0  0  0  0  0  0  0  0  0  0  0  0
    7.6870    5.9480   22.1180 C   0  0  0  0  0  0  0  0  0  0  0  0
    7.7960    7.2410   22.4900 N   0  0  0  0  0  0  0  0  0  0  0  0
  1  2  2  3
  1  3  1  0
  3  4  1  0
  3  5  1  0
  4  6  1  0
  5  7  1  0
  6  8  1  0
  7  8  1  0
  8  9  1  0
  9 10  1  0
 10 11  2  0
 10 12  1  0
 11 13  1  0
 12 14  2  0
 13 15  2  0
 14 15  1  0
 14 16  1  0
 16 17  1  0
 17 18  2  0
 17 19  1  0
 18 20  1  0
 19 21  2  0
 20 22  2  0
 21 22  1  0
 22 23  1  0
 23 24  3  0
M  END
