MAK-UNK-516d8086-24-acrylamide
     RDKit          3D

 24 26  0  0  0  0  0  0  0  0999 V2000
    7.0650   -3.9140   20.2550 C   0  0  0  0  0  0  0  0  0  0  0  0
    7.2320   -4.3590   21.5330 C   0  0  0  0  0  0  0  0  0  0  0  0
    5.9630   -4.3310   22.4050 C   0  0  0  0  0  0  0  0  0  0  0  0
    5.2820   -4.3010   21.3090 O   0  0  0  0  0  0  0  0  0  0  0  0
    6.9640   -4.3690   23.5880 C   0  0  0  0  0  0  0  0  0  0  0  0
    6.2560   -3.7760   24.6600 N   0  0  0  0  0  0  0  0  0  0  0  0
    8.2690   -4.8610   23.6880 N   0  0  0  0  0  0  0  0  0  0  0  0
    6.8530   -3.6640   25.8670 N   0  0  0  0  0  0  0  0  0  0  0  0
    8.9360   -4.7310   25.0040 C   0  0  0  0  0  0  0  0  0  0  0  0
    8.2150   -4.1560   26.0190 C   0  0  0  0  0  0  0  0  0  0  0  0
   10.2540   -5.1080   25.4100 C   0  0  0  0  0  0  0  0  0  0  0  0
    8.7250   -4.0060   27.2380 N   0  0  0  0  0  0  0  0  0  0  0  0
   11.0080   -3.9640   25.1500 C   0  0  0  0  0  0  0  0  0  0  0  0
    8.7560   -4.9140   28.2810 C   0  0  0  0  0  0  0  0  0  0  0  0
   12.3060   -3.4310   25.5560 C   0  0  0  0  0  0  0  0  0  0  0  0
   10.2230   -3.2960   24.3070 C   0  0  0  0  0  0  0  0  0  0  0  0
    7.5480   -5.5830   28.5020 C   0  0  0  0  0  0  0  0  0  0  0  0
   12.7850   -2.0420   24.9980 C   0  0  0  0  0  0  0  0  0  0  0  0
   10.5780   -2.1560   23.8270 C   0  0  0  0  0  0  0  0  0  0  0  0
   11.8030   -1.3680   24.0530 C   0  0  0  0  0  0  0  0  0  0  0  0
    9.6460   -1.5210   22.9150 C   0  0  0  0  0  0  0  0  0  0  0  0
    8.5550   -1.9470   22.5020 O   0  0  0  0  0  0  0  0  0  0  0  0
   10.4310   -0.2830   22.6880 N   0  0  0  0  0  0  0  0  0  0  0  0
   11.6750   -0.2350   23.3160 C   0  0  0  0  0  0  0  0  0  0  0  0
  1  2  1  0
  2  3  1  0
  3  4  2  0
  3  5  1  0
  5  6  2  0
  5  7  1  0
  6  8  1  0
  7  9  2  0
  8 10  2  0
  9 10  1  0
  9 11  1  0
 10 12  1  0
 11 13  1  0
 12 14  1  0
 13 15  2  0
 13 16  1  0
 14 17  1  0
 15 18  1  0
 16 19  2  0
 18 20  2  0
 19 20  1  0
 19 21  1  0
 21 22  2  0
 21 23  1  0
 20 24  1  0
 23 24  1  0
M  END
