MAK-UNK-9e4a73aa-22
     RDKit          3D

 26 29  0  0  0  0  0  0  0  0999 V2000
    7.7050   -0.7340   26.0260 O   0  0  0  0  0  0  0  0  0  0  0  0
    7.1830   -1.3770   25.1100 C   0  0  0  0  0  0  0  0  0  0  0  0
    7.5360   -2.7070   24.6250 C   0  0  0  0  0  0  0  0  0  0  0  0
    6.1700   -1.0880   24.2820 N   0  0  0  0  0  0  0  0  0  0  0  0
    8.9480   -3.0170   24.4650 C   0  0  0  0  0  0  0  0  0  0  0  0
    6.5050   -3.5960   24.3130 C   0  0  0  0  0  0  0  0  0  0  0  0
    5.0120   -1.7400   24.5470 C   0  0  0  0  0  0  0  0  0  0  0  0
    6.6690   -1.2780   22.9950 C   0  0  0  0  0  0  0  0  0  0  0  0
    9.2270   -4.2380   23.9920 C   0  0  0  0  0  0  0  0  0  0  0  0
    6.8500   -4.8230   23.8330 C   0  0  0  0  0  0  0  0  0  0  0  0
    5.1810   -3.1460   24.5040 N   0  0  0  0  0  0  0  0  0  0  0  0
    3.9250   -1.2140   24.8070 O   0  0  0  0  0  0  0  0  0  0  0  0
    8.1500   -1.4150   22.7870 C   0  0  0  0  0  0  0  0  0  0  0  0
    5.8830   -1.3380   21.8650 C   0  0  0  0  0  0  0  0  0  0  0  0
   10.4830   -4.5650   23.8420 F   0  0  0  0  0  0  0  0  0  0  0  0
    8.1900   -5.1340   23.6710 C   0  0  0  0  0  0  0  0  0  0  0  0
    4.0380   -3.9170   24.3370 C   0  0  0  0  0  0  0  0  0  0  0  0
    8.5900   -1.5530   21.4820 C   0  0  0  0  0  0  0  0  0  0  0  0
    6.3690   -1.4840   20.5800 N   0  0  0  0  0  0  0  0  0  0  0  0
    8.5100   -6.6590   23.0560 Cl  0  0  0  0  0  0  0  0  0  0  0  0
    2.7090   -3.6400   25.0840 C   0  0  0  0  0  0  0  0  0  0  0  0
    4.0160   -5.0080   23.4740 C   0  0  0  0  0  0  0  0  0  0  0  0
    7.6900   -1.5740   20.4130 C   0  0  0  0  0  0  0  0  0  0  0  0
    1.4930   -4.5160   24.8660 C   0  0  0  0  0  0  0  0  0  0  0  0
    2.8870   -5.8380   23.2600 C   0  0  0  0  0  0  0  0  0  0  0  0
    1.6580   -5.6650   23.8840 C   0  0  0  0  0  0  0  0  0  0  0  0
  1  2  2  0
  2  3  1  0
  2  4  1  0
  3  5  2  0
  3  6  1  0
  4  7  1  0
  4  8  1  0
  5  9  1  0
  6 10  2  0
  6 11  1  0
  7 11  1  0
  7 12  2  0
  8 13  2  0
  8 14  1  0
  9 15  1  0
  9 16  2  0
 10 16  1  0
 11 17  1  0
 13 18  1  0
 14 19  2  0
 16 20  1  0
 17 21  2  0
 17 22  1  0
 18 23  2  0
 19 23  1  0
 21 24  1  0
 22 25  2  0
 24 26  2  0
 25 26  1  0
M  END
