MAK-UNK-a7992eb3-9-acrylamide
     RDKit          3D

 32 35  0  0  0  0  0  0  0  0999 V2000
    7.3430   -3.0610   18.9890 C   0  0  0  0  0  0  0  0  0  0  0  0
    6.9140   -3.0600   20.4250 C   0  0  0  0  0  0  0  0  0  0  0  0
    6.0650   -4.2770   20.6730 C   0  0  0  0  0  0  0  0  0  0  0  0
    5.1640   -4.5800   19.8910 O   0  0  0  0  0  0  0  0  0  0  0  0
    6.3380   -5.0400   21.7980 N   0  0  0  0  0  0  0  0  0  0  0  0
    7.0280   -4.5170   22.9810 C   0  0  0  0  0  0  0  0  0  0  0  0
    5.5130   -6.1900   22.1510 C   0  0  0  0  0  0  0  0  0  0  0  0
    6.1550   -4.2760   24.0580 C   0  0  0  0  0  0  0  0  0  0  0  0
    4.5690   -5.7350   23.0810 C   0  0  0  0  0  0  0  0  0  0  0  0
    5.3160   -5.3410   24.3740 C   0  0  0  0  0  0  0  0  0  0  0  0
    4.2960   -5.0490   25.2840 C   0  0  0  0  0  0  0  0  0  0  0  0
    4.2450   -5.6700   26.3420 O   0  0  0  0  0  0  0  0  0  0  0  0
    3.3020   -4.0110   24.8230 N   0  0  0  0  0  0  0  0  0  0  0  0
    3.3440   -2.6160   25.3500 C   0  0  0  0  0  0  0  0  0  0  0  0
    2.0500   -2.3120   25.8360 C   0  0  0  0  0  0  0  0  0  0  0  0
    4.4090   -1.6620   25.4000 C   0  0  0  0  0  0  0  0  0  0  0  0
    1.7610   -1.0090   26.4090 C   0  0  0  0  0  0  0  0  0  0  0  0
    4.1670   -0.3770   25.9550 C   0  0  0  0  0  0  0  0  0  0  0  0
    5.5320   -1.9220   24.9700 O   0  0  0  0  0  0  0  0  0  0  0  0
    2.9080   -0.0220   26.4520 C   0  0  0  0  0  0  0  0  0  0  0  0
    6.6980   -1.5060   25.6110 C   0  0  0  0  0  0  0  0  0  0  0  0
    7.4430   -0.5030   24.9770 C   0  0  0  0  0  0  0  0  0  0  0  0
    8.7630   -0.7950   24.6090 C   0  0  0  0  0  0  0  0  0  0  0  0
    6.6530    0.1110   23.7920 C   0  0  0  0  0  0  0  0  0  0  0  0
    7.4500    0.7660   25.8670 C   0  0  0  0  0  0  0  0  0  0  0  0
    9.8850   -0.3940   25.2990 C   0  0  0  0  0  0  0  0  0  0  0  0
    8.8070   -1.5420   23.4600 N   0  0  0  0  0  0  0  0  0  0  0  0
    7.2750    1.3590   23.6850 C   0  0  0  0  0  0  0  0  0  0  0  0
    7.7840    1.7370   24.9240 C   0  0  0  0  0  0  0  0  0  0  0  0
   11.1380   -0.7720   24.7980 C   0  0  0  0  0  0  0  0  0  0  0  0
    9.9780   -1.9740   22.8690 C   0  0  0  0  0  0  0  0  0  0  0  0
   11.2400   -1.5290   23.6380 C   0  0  0  0  0  0  0  0  0  0  0  0
  1  2  1  0
  2  3  1  0
  3  4  2  0
  3  5  1  0
  5  6  1  0
  5  7  1  0
  6  8  1  0
  7  9  1  0
  8 10  1  0
  9 10  1  0
 10 11  1  0
 11 12  2  0
 11 13  1  0
 13 14  1  0
 14 15  2  0
 14 16  1  0
 15 17  1  0
 16 18  2  0
 16 19  1  0
 17 20  2  0
 18 20  1  0
 19 21  1  0
 22 21  1  0
 22 23  1  0
 22 24  1  0
 22 25  1  0
 23 26  2  0
 23 27  1  0
 24 28  1  0
 25 29  1  0
 28 29  1  0
 26 30  1  0
 27 31  2  0
 30 32  2  0
 31 32  1  0
M  END
