MAK-UNK-8fdbca50-21-acrylamide
     RDKit          3D

 40 43  0  0  0  0  0  0  0  0999 V2000
    7.8030   -2.4050   18.9010 C   0  0  0  0  0  0  0  0  0  0  0  0
    6.2920   -2.4450   18.9440 C   0  0  0  0  0  0  0  0  0  0  0  0
    5.6830   -2.9840   20.1980 C   0  0  0  0  0  0  0  0  0  0  0  0
    5.2450   -4.1000   20.1310 O   0  0  0  0  0  0  0  0  0  0  0  0
    5.5630   -2.2230   21.3680 N   0  0  0  0  0  0  0  0  0  0  0  0
    4.5970   -2.4930   22.4180 C   0  0  0  0  0  0  0  0  0  0  0  0
    6.6450   -1.3420   21.8010 C   0  0  0  0  0  0  0  0  0  0  0  0
    5.1570   -2.8750   23.6060 C   0  0  0  0  0  0  0  0  0  0  0  0
    6.8120   -1.1530   23.3420 C   0  0  0  0  0  0  0  0  0  0  0  0
    5.8150   -1.8900   24.2990 C   0  0  0  0  0  0  0  0  0  0  0  0
    6.5820   -2.4680   25.3100 C   0  0  0  0  0  0  0  0  0  0  0  0
    6.6620   -1.9030   26.3990 O   0  0  0  0  0  0  0  0  0  0  0  0
    7.2380   -3.7810   24.9190 N   0  0  0  0  0  0  0  0  0  0  0  0
    6.3550   -5.0320   24.8680 C   0  0  0  0  0  0  0  0  0  0  0  0
    8.3070   -3.6830   23.8840 C   0  0  0  0  0  0  0  0  0  0  0  0
    5.0830   -4.9700   25.4880 C   0  0  0  0  0  0  0  0  0  0  0  0
    6.6310   -6.2590   24.2780 C   0  0  0  0  0  0  0  0  0  0  0  0
    7.7750   -3.6210   22.4800 C   0  0  0  0  0  0  0  0  0  0  0  0
    9.3200   -2.5480   24.0950 C   0  0  0  0  0  0  0  0  0  0  0  0
    4.0790   -6.0980   25.5250 C   0  0  0  0  0  0  0  0  0  0  0  0
    5.6850   -7.2760   24.3160 C   0  0  0  0  0  0  0  0  0  0  0  0
    8.1540   -6.5570   23.4590 S   0  0  0  0  0  0  0  0  0  0  0  0
    4.4310   -7.2960   24.8920 N   0  0  0  0  0  0  0  0  0  0  0  0
    9.2430   -6.2770   24.3580 O   0  0  0  0  0  0  0  0  0  0  0  0
    7.9180   -5.7350   22.3530 O   0  0  0  0  0  0  0  0  0  0  0  0
    8.2580   -8.1190   22.8180 N   0  0  0  0  0  0  0  0  0  0  0  0
    7.3530   -9.0290   23.2250 C   0  0  0  0  0  0  0  0  0  0  0  0
    8.9250   -8.8850   21.9230 C   0  0  0  0  0  0  0  0  0  0  0  0
    7.6060  -10.2400   22.6470 C   0  0  0  0  0  0  0  0  0  0  0  0
    8.3610  -10.0160   22.0480 C   0  0  0  0  0  0  0  0  0  0  0  0
    9.9220   -9.0260   20.8630 C   0  0  0  0  0  0  0  0  0  0  0  0
    7.5520  -11.6210   22.2540 C   0  0  0  0  0  0  0  0  0  0  0  0
    9.6860  -10.0300   19.7910 C   0  0  0  0  0  0  0  0  0  0  0  0
   10.0820   -9.8330   19.6700 C   0  0  0  0  0  0  0  0  0  0  0  0
    8.2840  -12.2380   21.1660 N   0  0  0  0  0  0  0  0  0  0  0  0
   10.7650  -10.0240   19.9920 C   0  0  0  0  0  0  0  0  0  0  0  0
   10.3010   -8.7990   19.6550 C   0  0  0  0  0  0  0  0  0  0  0  0
    9.6180  -10.8720   19.0260 F   0  0  0  0  0  0  0  0  0  0  0  0
    8.8630  -11.8180   20.0360 C   0  0  0  0  0  0  0  0  0  0  0  0
   10.9420   -8.7960   20.7760 C   0  0  0  0  0  0  0  0  0  0  0  0
  1  2  1  0
  2  3  1  0
  3  4  2  0
  3  5  1  0
  5  6  1  0
  5  7  1  0
  6  8  1  0
  7  9  1  0
  8 10  1  0
  9 10  1  0
 10 11  1  0
 11 12  2  0
 11 13  1  0
 13 14  1  0
 13 15  1  0
 14 16  2  0
 14 17  1  0
 15 18  1  0
 15 19  1  0
 16 20  1  0
 17 21  2  0
 22 17  1  0
 20 23  2  0
 21 23  1  0
 22 24  2  0
 22 25  2  0
 22 26  1  0
 26 27  1  0
 26 28  1  0
 27 29  2  0
 28 30  2  0
 29 30  1  0
 28 31  1  0
 29 32  1  0
 31 33  2  0
 31 34  1  0
 32 35  1  0
 33 36  1  0
 34 37  2  0
 34 38  1  0
 35 39  1  0
 36 40  2  0
 37 40  1  0
M  END
