MAK-UNK-9955b1f3-1-vinylsulfonamide
     RDKit          3D

 40 44  0  0  0  0  0  0  0  0999 V2000
    6.7430   -5.4760   20.6210 C   0  0  0  0  0  0  0  0  0  0  0  0
    6.3110   -4.5130   21.7200 C   0  0  0  0  0  0  0  0  0  0  0  0
    5.4080   -3.1750   20.9830 S   0  0  0  0  0  0  0  0  0  0  0  0
    4.9050   -3.5940   19.6760 O   0  0  0  0  0  0  0  0  0  0  0  0
    4.5290   -2.7080   22.0140 O   0  0  0  0  0  0  0  0  0  0  0  0
    6.6920   -1.9430   20.7470 C   0  0  0  0  0  0  0  0  0  0  0  0
    6.9190   -1.1240   19.6480 C   0  0  0  0  0  0  0  0  0  0  0  0
    7.7760   -1.5250   21.5980 C   0  0  0  0  0  0  0  0  0  0  0  0
    7.3900   -1.5840   21.1450 C   0  0  0  0  0  0  0  0  0  0  0  0
    8.9490   -0.5450   21.5920 C   0  0  0  0  0  0  0  0  0  0  0  0
    8.4170   -1.3880   22.3060 C   0  0  0  0  0  0  0  0  0  0  0  0
    8.4030   -2.1520   23.6590 C   0  0  0  0  0  0  0  0  0  0  0  0
    7.7860   -1.3520   24.6000 N   0  0  0  0  0  0  0  0  0  0  0  0
    8.1120    0.0500   24.5440 C   0  0  0  0  0  0  0  0  0  0  0  0
    7.9440    1.5730   24.5150 C   0  0  0  0  0  0  0  0  0  0  0  0
    6.6920    0.0580   24.6110 N   0  0  0  0  0  0  0  0  0  0  0  0
    9.0790    2.3830   24.4030 C   0  0  0  0  0  0  0  0  0  0  0  0
    6.7170    2.2660   24.5770 N   0  0  0  0  0  0  0  0  0  0  0  0
    5.9420   -0.7680   25.6010 C   0  0  0  0  0  0  0  0  0  0  0  0
    5.9530    0.2160   23.3240 C   0  0  0  0  0  0  0  0  0  0  0  0
    8.9990    3.7540   24.3660 C   0  0  0  0  0  0  0  0  0  0  0  0
    6.6400    3.6240   24.5630 C   0  0  0  0  0  0  0  0  0  0  0  0
    4.6030   -0.3400   25.6970 C   0  0  0  0  0  0  0  0  0  0  0  0
    4.6530    0.6810   23.5610 C   0  0  0  0  0  0  0  0  0  0  0  0
    7.8000    4.4120   24.4530 C   0  0  0  0  0  0  0  0  0  0  0  0
    3.9620   -0.2410   24.4080 O   0  0  0  0  0  0  0  0  0  0  0  0
    7.8140    5.7920   24.4330 C   0  0  0  0  0  0  0  0  0  0  0  0
    8.3260    6.3320   23.1930 N   0  0  0  0  0  0  0  0  0  0  0  0
    7.3800    6.6500   25.6200 C   0  0  0  0  0  0  0  0  0  0  0  0
    8.4480    7.7670   23.0880 C   0  0  0  0  0  0  0  0  0  0  0  0
    7.6780    8.0240   25.3750 C   0  0  0  0  0  0  0  0  0  0  0  0
    8.8910    8.2260   24.4410 C   0  0  1  0  0  0  0  0  0  0  0  0
    9.9960    7.3990   25.0510 C   0  0  0  0  0  0  0  0  0  0  0  0
   11.2920    6.9920   25.8240 C   0  0  0  0  0  0  0  0  0  0  0  0
   10.4570    8.5410   25.4500 C   0  0  0  0  0  0  0  0  0  0  0  0
   11.8890    8.2980   26.3300 C   0  0  0  0  0  0  0  0  0  0  0  0
   10.6300    9.7600   25.6760 N   0  0  0  0  0  0  0  0  0  0  0  0
   11.7420    9.7850   26.3800 C   0  0  0  0  0  0  0  0  0  0  0  0
   11.2800   11.0870   26.2120 C   0  0  0  0  0  0  0  0  0  0  0  0
   12.0790   12.0250   25.5420 N   0  0  0  0  0  0  0  0  0  0  0  0
  1  2  1  0
  3  2  1  0
  3  4  2  0
  3  5  2  0
  3  6  1  0
  6  7  2  0
  6  8  1  0
  7  9  1  0
  8 10  2  0
  9 11  2  0
 10 11  1  0
 11 12  1  0
 12 13  1  0
 13 14  1  0
 14 15  2  3
 14 16  1  0
 15 17  1  0
 15 18  1  0
 16 19  1  0
 16 20  1  0
 17 21  2  0
 18 22  1  0
 19 23  1  0
 20 24  1  0
 21 25  1  0
 22 25  2  0
 23 26  1  0
 24 26  1  0
 25 27  1  0
 27 28  2  0
 27 29  1  0
 28 30  1  0
 29 31  1  0
 30 32  1  0
 31 32  1  0
 32 33  1  1
 33 34  2  0
 33 35  1  0
 34 36  1  0
 35 37  2  0
 36 38  2  0
 37 38  1  0
 38 39  1  0
 39 40  3  0
M  END
