MAK-UNK-69bf97dd-10-chloroacetamide
     RDKit          3D

 26 28  0  0  0  0  0  0  0  0999 V2000
    7.1680   -3.1490   19.0310 C   0  0  0  0  0  0  0  0  0  0  0  0
    6.2310   -3.7910   20.0260 C   0  0  0  0  0  0  0  0  0  0  0  0
    5.1390   -4.2180   19.6950 O   0  0  0  0  0  0  0  0  0  0  0  0
    6.6520   -3.9510   21.3040 N   0  0  0  0  0  0  0  0  0  0  0  0
    6.3720   -5.1210   22.1470 C   0  0  0  0  0  0  0  0  0  0  0  0
    7.5600   -2.9190   21.8110 C   0  0  0  0  0  0  0  0  0  0  0  0
    5.5260   -4.4590   23.2690 C   0  0  0  0  0  0  0  0  0  0  0  0
    7.2470   -2.5500   23.2330 C   0  0  0  0  0  0  0  0  0  0  0  0
    6.6980   -3.7510   23.9970 C   0  0  0  0  0  0  0  0  0  0  0  0
    5.9880   -3.2200   25.2310 C   0  0  0  0  0  0  0  0  0  0  0  0
    4.8280   -3.4890   25.5300 O   0  0  0  0  0  0  0  0  0  0  0  0
    6.8050   -2.3930   25.9580 N   0  0  0  0  0  0  0  0  0  0  0  0
    6.2950   -1.4950   26.9790 C   0  0  2  0  0  0  0  0  0  0  0  0
    6.0510   -0.1040   26.3840 C   0  0  0  0  0  0  0  0  0  0  0  0
    7.2950   -1.3320   28.1300 C   0  0  0  0  0  0  0  0  0  0  0  0
    5.7920    1.0030   27.4120 C   0  0  0  0  0  0  0  0  0  0  0  0
    6.6040   -0.5450   29.1560 N   0  0  0  0  0  0  0  0  0  0  0  0
    6.4730    0.7800   28.7700 C   0  0  0  0  0  0  0  0  0  0  0  0
    5.1740   -1.2710   29.7810 S   0  0  0  0  0  0  0  0  0  0  0  0
    4.0790   -0.8040   28.9520 O   0  0  0  0  0  0  0  0  0  0  0  0
    5.1550   -1.0340   31.2070 O   0  0  0  0  0  0  0  0  0  0  0  0
    5.1630   -3.0530   29.5540 C   0  0  0  0  0  0  0  0  0  0  0  0
    4.2300   -4.0290   29.9440 C   0  0  0  0  0  0  0  0  0  0  0  0
    6.4920   -3.8030   28.7230 S   0  0  0  0  0  0  0  0  0  0  0  0
    4.5560   -5.3220   29.6040 C   0  0  0  0  0  0  0  0  0  0  0  0
    5.8580   -5.3870   28.8790 C   0  0  0  0  0  0  0  0  0  0  0  0
  1  2  1  0
  2  3  2  0
  2  4  1  0
  4  5  1  0
  4  6  1  0
  5  7  1  0
  6  8  1  0
  7  9  1  0
  8  9  1  0
  9 10  1  0
 10 11  2  0
 10 12  1  0
 13 12  1  6
 13 14  1  0
 13 15  1  0
 14 16  1  0
 15 17  1  0
 16 18  1  0
 17 18  1  0
 17 19  1  0
 19 20  2  0
 19 21  2  0
 19 22  1  0
 22 23  2  0
 22 24  1  0
 23 25  1  0
 24 26  1  0
 25 26  2  0
M  END
