MAK-UNK-27459e11-10
     RDKit          3D

 17 17  0  0  0  0  0  0  0  0999 V2000
    6.5860   -5.2680   26.5680 C   0  0  0  0  0  0  0  0  0  0  0  0
    8.2270   -4.6620   26.2380 S   0  0  0  0  0  0  0  0  0  0  0  0
    9.0610   -5.7520   25.8190 O   0  0  0  0  0  0  0  0  0  0  0  0
    8.5710   -3.8040   27.3220 O   0  0  0  0  0  0  0  0  0  0  0  0
    7.9990   -3.6610   24.9190 N   0  0  0  0  0  0  0  0  0  0  0  0
    9.0530   -3.3550   24.0800 C   0  0  0  0  0  0  0  0  0  0  0  0
    9.0900   -1.8710   23.7360 C   0  0  0  0  0  0  0  0  0  0  0  0
   10.4400   -1.2620   23.4190 C   0  0  0  0  0  0  0  0  0  0  0  0
   11.6260   -2.1740   23.1210 C   0  0  0  0  0  0  0  0  0  0  0  0
   10.6430    0.2400   23.3880 C   0  0  0  0  0  0  0  0  0  0  0  0
   12.9830   -1.5470   22.8040 C   0  0  0  0  0  0  0  0  0  0  0  0
   11.8810    0.7900   23.0870 C   0  0  0  0  0  0  0  0  0  0  0  0
   13.1230   -0.0340   22.7850 C   0  0  0  0  0  0  0  0  0  0  0  0
   12.1140    2.2800   23.0180 C   0  0  0  0  0  0  0  0  0  0  0  0
   11.2100    3.1080   22.3760 C   0  0  0  0  0  0  0  0  0  0  0  0
    9.8640    2.8880   22.3570 N   0  0  0  0  0  0  0  0  0  0  0  0
   11.8130    4.1860   21.7510 N   0  0  0  0  0  0  0  0  0  0  0  0
  1  2  1  0
  2  3  2  0
  2  4  2  0
  2  5  1  0
  5  6  1  0
  6  7  1  0
  7  8  1  0
  8  9  2  0
  8 10  1  0
  9 11  1  0
 10 12  2  0
 11 13  2  0
 12 13  1  0
 12 14  1  0
 14 15  1  0
 15 16  2  3
 15 17  1  0
M  END
