MAK-UNK-902cc841-1
     RDKit          3D

 29 32  0  0  0  0  0  0  0  0999 V2000
    8.8970    0.3510   14.8610 C   0  0  0  0  0  0  0  0  0  0  0  0
    7.8780   -0.3520   15.5430 C   0  0  0  0  0  0  0  0  0  0  0  0
    7.1660   -1.1670   14.9820 O   0  0  0  0  0  0  0  0  0  0  0  0
    7.7510   -0.1230   16.8680 N   0  0  0  0  0  0  0  0  0  0  0  0
    7.8370   -1.2750   17.7050 C   0  0  0  0  0  0  0  0  0  0  0  0
    6.7520    0.8480   17.3510 C   0  0  0  0  0  0  0  0  0  0  0  0
    6.5060   -1.8000   17.3900 C   0  0  0  0  0  0  0  0  0  0  0  0
    5.4450    0.2680   17.9040 C   0  0  0  0  0  0  0  0  0  0  0  0
    5.6660   -1.1020   18.3320 N   0  0  0  0  0  0  0  0  0  0  0  0
    6.3010   -1.2810   19.6020 C   0  0  2  0  0  0  0  0  0  0  0  0
    6.2290   -2.7350   20.0630 C   0  0  0  0  0  0  0  0  0  0  0  0
    5.9740   -0.2170   20.4530 C   0  0  0  0  0  0  0  0  0  0  0  0
    5.4560   -3.5830   19.5700 O   0  0  0  0  0  0  0  0  0  0  0  0
    7.2460   -2.8000   21.1100 N   0  0  0  0  0  0  0  0  0  0  0  0
    6.4110    1.0930   20.3480 C   0  0  0  0  0  0  0  0  0  0  0  0
    5.1450   -0.2630   21.5860 C   0  0  0  0  0  0  0  0  0  0  0  0
    7.9490   -1.5160   21.2830 C   0  0  0  0  0  0  0  0  0  0  0  0
    6.9000   -3.4300   22.3420 C   0  0  0  0  0  0  0  0  0  0  0  0
    5.9920    1.9980   21.2690 C   0  0  0  0  0  0  0  0  0  0  0  0
    4.9720    1.2570   22.4020 S   0  0  0  0  0  0  0  0  0  0  0  0
    9.1960   -1.9100   22.0390 C   0  0  0  0  0  0  0  0  0  0  0  0
    8.0850   -3.6000   23.3000 C   0  0  0  0  0  0  0  0  0  0  0  0
    8.9680   -2.5510   23.1890 N   0  0  0  0  0  0  0  0  0  0  0  0
   10.2550   -2.8380   23.8060 C   0  0  0  0  0  0  0  0  0  0  0  0
   11.1130   -1.5870   23.6510 C   0  0  0  0  0  0  0  0  0  0  0  0
   12.2510   -1.4060   22.8560 C   0  0  0  0  0  0  0  0  0  0  0  0
   10.7580   -0.0790   24.5100 S   0  0  0  0  0  0  0  0  0  0  0  0
   12.8460   -0.0930   22.9080 C   0  0  0  0  0  0  0  0  0  0  0  0
   12.1430    0.8080   23.7860 C   0  0  0  0  0  0  0  0  0  0  0  0
  1  2  1  0
  2  3  2  0
  2  4  1  0
  4  5  1  0
  4  6  1  0
  5  7  1  0
  6  8  1  0
  7  9  1  0
  8  9  1  0
  9 10  1  0
 10 11  1  1
 10 12  1  0
 11 13  2  0
 11 14  1  0
 12 15  1  0
 12 16  2  0
 14 17  1  0
 14 18  1  0
 15 19  2  0
 16 20  1  0
 19 20  1  0
 17 21  1  0
 18 22  1  0
 21 23  1  0
 22 23  1  0
 23 24  1  0
 24 25  1  0
 25 26  2  0
 25 27  1  0
 26 28  1  0
 27 29  1  0
 28 29  2  0
M  END
