MAK-UNK-702fb7d3-19
     RDKit          3D

 43 48  0  0  0  0  0  0  0  0999 V2000
    4.5100   -0.9780   24.7280 C   0  0  0  0  0  0  0  0  0  0  0  0
    5.8920   -1.0420   24.8070 N   0  0  0  0  0  0  0  0  0  0  0  0
    6.6590    0.0840   24.8700 C   0  0  0  0  0  0  0  0  0  0  0  0
    6.5280   -2.2300   24.8010 C   0  0  0  0  0  0  0  0  0  0  0  0
    7.4230   -0.1600   23.6000 C   0  0  0  0  0  0  0  0  0  0  0  0
    5.7060   -3.3610   24.7400 C   0  0  0  0  0  0  0  0  0  0  0  0
    7.8620   -2.3770   24.9030 N   0  0  0  0  0  0  0  0  0  0  0  0
    8.8910   -0.0770   23.3670 C   0  0  0  0  0  0  0  0  0  0  0  0
    6.8110   -0.5810   22.2540 C   0  0  0  0  0  0  0  0  0  0  0  0
    4.4060   -3.5460   25.8230 Cl  0  0  0  0  0  0  0  0  0  0  0  0
    8.2380   -2.3230   26.1130 C   0  0  0  0  0  0  0  0  0  0  0  0
    8.9050   -3.1350   24.0690 C   0  0  0  0  0  0  0  0  0  0  0  0
    9.0280   -0.4350   21.9640 C   0  0  0  0  0  0  0  0  0  0  0  0
    7.7280   -0.7490   21.2610 N   0  0  0  0  0  0  0  0  0  0  0  0
    8.3330   -3.7300   26.4320 C   0  0  0  0  0  0  0  0  0  0  0  0
    9.1250   -4.6150   24.5090 C   0  0  1  0  0  0  0  0  0  0  0  0
   10.4850   -0.2300   22.2030 C   0  0  0  0  0  0  0  0  0  0  0  0
    7.1480   -1.2280   19.6930 S   0  0  0  0  0  0  0  0  0  0  0  0
    7.7720   -3.4760   27.8350 C   0  0  0  0  0  0  0  0  0  0  0  0
    8.7340   -4.8070   25.8280 C   0  0  0  0  0  0  0  0  0  0  0  0
    8.0850   -5.2620   23.6400 C   0  0  0  0  0  0  0  0  0  0  0  0
   11.4550   -1.2080   22.0420 C   0  0  0  0  0  0  0  0  0  0  0  0
   10.8400    1.0910   22.6430 C   0  0  0  0  0  0  0  0  0  0  0  0
    6.4780   -2.5030   19.8670 O   0  0  0  0  0  0  0  0  0  0  0  0
    8.0510   -1.0700   18.6240 O   0  0  0  0  0  0  0  0  0  0  0  0
    5.8930   -0.0410   19.3940 C   0  0  0  0  0  0  0  0  0  0  0  0
    7.7240   -4.6800   28.5230 C   0  0  0  0  0  0  0  0  0  0  0  0
    8.6830   -5.9350   26.6120 C   0  0  0  0  0  0  0  0  0  0  0  0
    8.1750   -6.5550   23.2530 C   0  0  0  0  0  0  0  0  0  0  0  0
    6.9760   -4.5110   23.2340 C   0  0  0  0  0  0  0  0  0  0  0  0
   12.9030   -0.8010   22.3470 C   0  0  0  0  0  0  0  0  0  0  0  0
   12.1590    1.4890   22.9260 C   0  0  0  0  0  0  0  0  0  0  0  0
    9.8810    2.0150   22.7950 F   0  0  0  0  0  0  0  0  0  0  0  0
    6.0170    0.9610   18.2170 C   0  0  0  0  0  0  0  0  0  0  0  0
    4.7490    0.0330   20.2140 C   0  0  0  0  0  0  0  0  0  0  0  0
    8.1820   -5.8710   27.9250 C   0  0  0  0  0  0  0  0  0  0  0  0
    7.1550   -7.1210   22.5010 C   0  0  0  0  0  0  0  0  0  0  0  0
    5.9620   -5.0650   22.4740 C   0  0  0  0  0  0  0  0  0  0  0  0
   13.1970    0.5750   22.7850 C   0  0  0  0  0  0  0  0  0  0  0  0
    4.8300    1.9410   18.0830 C   0  0  0  0  0  0  0  0  0  0  0  0
    3.7130    0.9180   20.0790 N   0  0  0  0  0  0  0  0  0  0  0  0
    6.0410   -6.3850   22.1080 C   0  0  0  0  0  0  0  0  0  0  0  0
    3.7450    1.8150   19.0780 C   0  0  0  0  0  0  0  0  0  0  0  0
  1  2  1  0
  2  3  1  0
  2  4  2  3
  3  5  1  0
  4  6  1  0
  4  7  1  0
  5  8  1  0
  5  9  2  0
  6 10  1  0
  7 11  1  0
  7 12  1  0
  8 13  2  0
  9 14  1  0
 13 14  1  0
 11 15  1  0
 12 16  1  0
 13 17  1  0
 14 18  1  0
 15 19  2  0
 15 20  1  0
 16 20  1  0
 16 21  1  6
 17 22  2  0
 17 23  1  0
 18 24  2  0
 18 25  2  0
 18 26  1  0
 19 27  1  0
 20 28  2  0
 21 29  2  0
 21 30  1  0
 22 31  1  0
 23 32  2  0
 23 33  1  0
 26 34  2  0
 26 35  1  0
 27 36  2  0
 28 36  1  0
 29 37  1  0
 30 38  2  0
 31 39  2  0
 32 39  1  0
 34 40  1  0
 35 41  2  0
 37 42  2  0
 38 42  1  0
 40 43  2  0
 41 43  1  0
M  CHG  1   2   1
M  END
