MAK-UNK-987948f6-9-acrylamide
     RDKit          3D

 19 20  0  0  0  0  0  0  0  0999 V2000
    8.1280   -3.7200   20.1910 C   0  0  0  0  0  0  0  0  0  0  0  0
    6.8910   -2.9450   19.9490 C   0  0  0  0  0  0  0  0  0  0  0  0
    5.8320   -3.8450   20.4700 C   0  0  0  0  0  0  0  0  0  0  0  0
    5.0700   -4.3710   19.6820 O   0  0  0  0  0  0  0  0  0  0  0  0
    5.7700   -4.1340   21.8410 N   0  0  0  0  0  0  0  0  0  0  0  0
    6.7380   -3.6400   22.8390 C   0  0  0  0  0  0  0  0  0  0  0  0
    5.1580   -5.4550   22.0700 C   0  0  2  0  0  0  0  0  0  0  0  0
    6.7290   -4.3510   24.2010 C   0  0  0  0  0  0  0  0  0  0  0  0
    5.4980   -6.1800   23.3420 C   0  0  0  0  0  0  0  0  0  0  0  0
    5.4000   -6.0660   20.9060 C   0  0  0  0  0  0  0  0  0  0  0  0
    5.5960   -5.2450   24.4130 N   0  0  0  0  0  0  0  0  0  0  0  0
    5.4880   -6.4430   19.8540 N   0  0  0  0  0  0  0  0  0  0  0  0
    5.0920   -5.6860   25.6380 C   0  0  0  0  0  0  0  0  0  0  0  0
    4.1820   -6.5210   25.6380 O   0  0  0  0  0  0  0  0  0  0  0  0
    5.6170   -5.1890   26.8910 C   0  0  0  0  0  0  0  0  0  0  0  0
    5.8350   -3.7190   27.3550 C   0  0  0  0  0  0  0  0  0  0  0  0
    6.0100   -6.0270   27.8970 O   0  0  0  0  0  0  0  0  0  0  0  0
    6.3650   -3.8070   28.6550 C   0  0  0  0  0  0  0  0  0  0  0  0
    6.4550   -5.2870   28.9450 C   0  0  0  0  0  0  0  0  0  0  0  0
  1  2  1  0
  2  3  1  0
  3  4  2  0
  3  5  1  0
  5  6  1  0
  5  7  1  0
  6  8  1  0
  7  9  1  0
  7 10  1  6
  8 11  1  0
  9 11  1  0
 10 12  3  0
 11 13  1  0
 13 14  2  0
 13 15  1  0
 15 16  2  0
 15 17  1  0
 16 18  1  0
 17 19  1  0
 18 19  2  0
M  END
