MAK-UNK-5e88aa6a-7
     RDKit          3D

 30 32  0  0  0  0  0  0  0  0999 V2000
   11.4210    6.2130   25.0430 C   0  0  0  0  0  0  0  0  0  0  0  0
   10.3560    5.3950   24.3470 C   0  0  2  0  0  0  0  0  0  0  0  0
   10.6850    4.2690   23.9370 O   0  0  0  0  0  0  0  0  0  0  0  0
    9.7350    6.4420   23.1570 S   0  0  0  0  0  0  0  0  0  0  0  0
    9.6530    3.3440   23.5330 C   0  0  2  0  0  0  0  0  0  0  0  0
    9.3310    7.8180   24.0410 N   0  0  0  0  0  0  0  0  0  0  0  0
   10.7970    6.8620   22.2930 O   0  0  0  0  0  0  0  0  0  0  0  0
    8.4670    5.9740   22.6510 O   0  0  0  0  0  0  0  0  0  0  0  0
    8.2940    3.8540   24.0120 C   0  0  0  0  0  0  0  0  0  0  0  0
    9.8260    2.0470   24.0590 C   0  0  1  0  0  0  0  0  0  0  0  0
    7.2780    2.7710   24.4070 C   0  0  0  0  0  0  0  0  0  0  0  0
    8.8590    1.1620   23.5650 C   0  0  0  0  0  0  0  0  0  0  0  0
   11.2160    1.5840   23.9360 N   0  0  0  0  0  0  0  0  0  0  0  0
    5.8990    3.1690   24.9040 C   0  0  0  0  0  0  0  0  0  0  0  0
    7.6570    1.3080   24.3040 C   0  0  0  0  0  0  0  0  0  0  0  0
   11.6160    0.3260   23.4720 C   0  0  0  0  0  0  0  0  0  0  0  0
    4.8890    3.2780   23.9750 O   0  0  0  0  0  0  0  0  0  0  0  0
    5.7960    3.3880   26.2580 O   0  0  0  0  0  0  0  0  0  0  0  0
   12.8410    0.1430   22.8020 C   0  0  0  0  0  0  0  0  0  0  0  0
   10.8970   -0.9630   23.5760 C   0  0  0  0  0  0  0  0  0  0  0  0
   13.1770   -1.4850   22.2580 S   0  0  0  0  0  0  0  0  0  0  0  0
   11.6560   -1.9470   22.9540 C   0  0  0  0  0  0  0  0  0  0  0  0
    9.5440   -1.2620   24.2280 C   0  0  0  0  0  0  0  0  0  0  0  0
    9.3190   -2.6770   24.6460 N   0  0  0  0  0  0  0  0  0  0  0  0
    8.1370   -3.1370   25.2100 C   0  0  0  0  0  0  0  0  0  0  0  0
   10.5780   -3.2900   25.1300 C   0  0  0  0  0  0  0  0  0  0  0  0
    8.0050   -4.5790   25.5600 C   0  0  0  0  0  0  0  0  0  0  0  0
   10.4380   -4.5890   25.9570 C   0  0  0  0  0  0  0  0  0  0  0  0
    9.0940   -5.0280   26.5090 C   0  0  0  0  0  0  0  0  0  0  0  0
    8.8760   -4.4680   27.8080 O   0  0  0  0  0  0  0  0  0  0  0  0
  2  1  1  6
  2  3  1  0
  2  4  1  0
  5  3  1  1
  4  6  1  0
  4  7  2  0
  4  8  2  0
  5  9  1  0
  5 10  1  0
  9 11  2  0
 10 12  1  0
 10 13  1  6
 11 14  1  0
 11 15  1  0
 12 15  1  0
 13 16  1  0
 14 17  2  0
 14 18  1  0
 16 19  2  0
 16 20  1  0
 19 21  1  0
 20 22  2  0
 21 22  1  0
 20 23  1  0
 23 24  1  0
 24 25  1  0
 24 26  1  0
 25 27  1  0
 26 28  1  0
 27 29  1  0
 28 29  1  0
 29 30  1  0
M  END
