MAK-UNK-10dfa458-32
     RDKit          3D

 31 33  0  0  0  0  0  0  0  0999 V2000
    4.2760   -7.3390   41.0750 N   0  0  0  0  0  0  0  0  0  0  0  0
    3.7130   -6.9190   40.1450 C   0  0  0  0  0  0  0  0  0  0  0  0
    2.7690   -6.2270   38.7500 S   0  0  0  0  0  0  0  0  0  0  0  0
    3.3880   -4.9300   38.6270 O   0  0  0  0  0  0  0  0  0  0  0  0
    1.4280   -6.4070   39.2540 O   0  0  0  0  0  0  0  0  0  0  0  0
    2.9520   -7.1810   37.3590 N   0  0  0  0  0  0  0  0  0  0  0  0
    4.1550   -6.9790   36.5370 C   0  0  0  0  0  0  0  0  0  0  0  0
    5.4360   -6.6420   37.3220 C   0  0  0  0  0  0  0  0  0  0  0  0
    4.0920   -7.0970   35.1480 C   0  0  0  0  0  0  0  0  0  0  0  0
    6.7210   -6.4260   36.4920 C   0  0  0  0  0  0  0  0  0  0  0  0
    5.2360   -6.9080   34.3670 C   0  0  0  0  0  0  0  0  0  0  0  0
    6.6060   -6.5650   34.9630 C   0  0  0  0  0  0  0  0  0  0  0  0
    5.1890   -7.0360   32.8140 C   0  0  0  0  0  0  0  0  0  0  0  0
    5.7240   -7.9610   32.2140 O   0  0  0  0  0  0  0  0  0  0  0  0
    4.5120   -6.0090   32.2390 O   0  0  0  0  0  0  0  0  0  0  0  0
    4.3350   -6.0210   30.8060 C   0  0  0  0  0  0  0  0  0  0  0  0
    5.5430   -6.1750   30.1040 C   0  0  0  0  0  0  0  0  0  0  0  0
    6.4150   -6.8790   30.5820 O   0  0  0  0  0  0  0  0  0  0  0  0
    5.6020   -5.4790   28.8980 N   0  0  0  0  0  0  0  0  0  0  0  0
    5.0870   -5.9020   27.6520 C   0  0  0  0  0  0  0  0  0  0  0  0
    4.2620   -6.9930   27.7400 C   0  0  0  0  0  0  0  0  0  0  0  0
    5.3450   -5.3130   26.3880 C   0  0  0  0  0  0  0  0  0  0  0  0
    3.7100   -7.4770   26.5930 C   0  0  0  0  0  0  0  0  0  0  0  0
    4.8190   -5.7440   25.1140 C   0  0  0  0  0  0  0  0  0  0  0  0
    3.9880   -6.8690   25.3390 C   0  0  0  0  0  0  0  0  0  0  0  0
    5.2950   -4.9730   24.3740 N   0  0  0  0  0  0  0  0  0  0  0  0
    6.7610   -4.9580   24.1640 C   0  0  0  0  0  0  0  0  0  0  0  0
    4.6980   -5.0050   23.0160 C   0  0  0  0  0  0  0  0  0  0  0  0
    6.9820   -5.3320   22.8370 C   0  0  0  0  0  0  0  0  0  0  0  0
    5.6450   -5.6080   22.2010 C   0  0  0  0  0  0  0  0  0  0  0  0
    3.6280   -4.5960   22.6060 O   0  0  0  0  0  0  0  0  0  0  0  0
  1  2  3  0
  3  2  1  0
  3  4  2  0
  3  5  2  0
  3  6  1  0
  6  7  1  0
  7  8  2  0
  7  9  1  0
  8 10  1  0
  9 11  2  0
 10 12  2  0
 11 12  1  0
 11 13  1  0
 13 14  2  0
 13 15  1  0
 15 16  1  0
 16 17  1  0
 17 18  2  0
 17 19  1  0
 19 20  1  0
 20 21  2  0
 20 22  1  0
 21 23  1  0
 22 24  2  0
 23 25  2  0
 24 25  1  0
 24 26  1  0
 26 27  1  0
 26 28  1  0
 27 29  1  0
 28 30  1  0
 29 30  1  0
 28 31  2  0
M  END
