MAK-UNK-10799360-2-nitrile
     RDKit          3D

 26 29  0  0  0  0  0  0  0  0999 V2000
    7.2870   -2.9580   19.1300 C   0  0  0  0  0  0  0  0  0  0  0  0
    6.5500   -2.8150   18.1030 N   0  0  0  0  0  0  0  0  0  0  0  0
    7.4510   -1.8690   20.0150 N   0  0  0  0  0  0  0  0  0  0  0  0
    6.8250   -0.5650   19.7590 C   0  0  0  0  0  0  0  0  0  0  0  0
    8.3400   -1.6040   21.2150 C   0  0  1  0  0  0  0  0  0  0  0  0
    6.6520   -0.1660   21.2280 C   0  0  2  0  0  0  0  0  0  0  0  0
    8.1830   -0.0960   21.4940 C   0  0  0  0  0  0  0  0  0  0  0  0
    7.6290   -1.8530   22.5420 C   0  0  2  0  0  0  0  0  0  0  0  0
    7.9400   -3.2340   22.9280 N   0  0  0  0  0  0  0  0  0  0  0  0
    6.2090   -1.4230   22.0480 C   0  0  2  0  0  0  0  0  0  0  0  0
    9.0200   -3.3200   23.9490 C   0  0  0  0  0  0  0  0  0  0  0  0
    5.4930   -2.4170   21.2590 N   0  0  0  0  0  0  0  0  0  0  0  0
   10.3520   -2.6390   23.5320 C   0  0  0  0  0  0  0  0  0  0  0  0
    5.0470   -2.1730   19.9460 C   0  0  0  0  0  0  0  0  0  0  0  0
   11.3580   -2.0320   24.5210 C   0  0  0  0  0  0  0  0  0  0  0  0
   10.7370   -2.5330   22.1930 C   0  0  0  0  0  0  0  0  0  0  0  0
    4.8230   -3.0860   19.1350 O   0  0  0  0  0  0  0  0  0  0  0  0
    4.8330   -0.7170   19.5660 C   0  0  0  0  0  0  0  0  0  0  0  0
   12.5400   -1.4440   24.0350 C   0  0  0  0  0  0  0  0  0  0  0  0
   11.9230   -1.9450   21.7650 C   0  0  0  0  0  0  0  0  0  0  0  0
    4.1860    0.2530   20.5480 C   0  0  0  0  0  0  0  0  0  0  0  0
    5.2100   -0.1820   18.3170 C   0  0  0  0  0  0  0  0  0  0  0  0
   12.8220   -1.4010   22.6720 C   0  0  0  0  0  0  0  0  0  0  0  0
    3.9960    1.5940   20.1880 C   0  0  0  0  0  0  0  0  0  0  0  0
    4.9970    1.1730   18.0180 C   0  0  0  0  0  0  0  0  0  0  0  0
    4.4030    2.0450   18.9310 C   0  0  0  0  0  0  0  0  0  0  0  0
  1  2  2  3
  1  3  1  0
  3  4  1  0
  5  3  1  6
  6  4  1  6
  5  7  1  0
  6  7  1  0
  5  8  1  0
  8  9  1  6
  6 10  1  0
  8 10  1  0
  9 11  1  0
 10 12  1  6
 11 13  1  0
 12 14  1  0
 13 15  2  0
 13 16  1  0
 14 17  2  0
 14 18  1  0
 15 19  1  0
 16 20  2  0
 18 21  2  0
 18 22  1  0
 19 23  2  0
 20 23  1  0
 21 24  1  0
 22 25  2  0
 24 26  2  0
 25 26  1  0
M  END
