MAK-UNK-10799360-14-nitrile
     RDKit          3D

 30 34  0  0  0  0  0  0  0  0999 V2000
    7.1940   -3.4960   19.6810 C   0  0  0  0  0  0  0  0  0  0  0  0
    6.2230   -3.2940   18.8730 N   0  0  0  0  0  0  0  0  0  0  0  0
    7.2430   -2.9360   20.9220 N   0  0  0  0  0  0  0  0  0  0  0  0
    7.8970   -3.5780   22.0980 C   0  0  1  0  0  0  0  0  0  0  0  0
    7.6530   -1.5200   20.9850 C   0  0  2  0  0  0  0  0  0  0  0  0
    9.1860   -2.7490   22.1600 C   0  0  0  0  0  0  0  0  0  0  0  0
    8.4370   -1.4040   22.2820 C   0  0  2  0  0  0  0  0  0  0  0  0
    6.4410   -0.5740   21.2300 C   0  0  0  0  0  0  0  0  0  0  0  0
    7.3180   -3.1290   23.4700 C   0  0  0  0  0  0  0  0  0  0  0  0
    5.4220   -1.3470   22.1140 C   0  0  0  0  0  0  0  0  0  0  0  0
    6.2380    0.7420   20.7740 C   0  0  0  0  0  0  0  0  0  0  0  0
    7.5240   -1.6400   23.4530 N   0  0  0  0  0  0  0  0  0  0  0  0
    4.2250   -0.4280   22.3720 C   0  0  0  0  0  0  0  0  0  0  0  0
    5.1810    1.5050   21.0180 N   0  0  0  0  0  0  0  0  0  0  0  0
    8.1510   -1.0520   24.6330 C   0  0  0  0  0  0  0  0  0  0  0  0
    4.2140    0.9730   21.7730 C   0  0  0  0  0  0  0  0  0  0  0  0
    8.9680   -0.1040   24.0380 C   0  0  0  0  0  0  0  0  0  0  0  0
    8.3650    1.0230   23.5020 C   0  0  0  0  0  0  0  0  0  0  0  0
   10.3710   -0.2710   23.9430 C   0  0  0  0  0  0  0  0  0  0  0  0
    9.1850    2.0730   22.8150 C   0  0  0  0  0  0  0  0  0  0  0  0
   11.1760    0.7230   23.2870 C   0  0  0  0  0  0  0  0  0  0  0  0
   10.9710   -1.3970   24.4740 C   0  0  0  0  0  0  0  0  0  0  0  0
   10.6410    1.8660   22.7380 C   0  0  0  0  0  0  0  0  0  0  0  0
   12.6480    0.5080   23.1900 C   0  0  0  0  0  0  0  0  0  0  0  0
   12.3260   -1.5580   24.3580 C   0  0  0  0  0  0  0  0  0  0  0  0
   13.1270   -0.6440   23.7400 C   0  0  0  0  0  0  0  0  0  0  0  0
   13.1480   -2.9560   24.9610 S   0  0  0  0  0  0  0  0  0  0  0  0
   14.3380   -2.4750   26.0170 N   0  0  0  0  0  0  0  0  0  0  0  0
   13.8530   -3.2970   23.7660 O   0  0  0  0  0  0  0  0  0  0  0  0
   12.2400   -3.8110   25.6970 O   0  0  0  0  0  0  0  0  0  0  0  0
  1  2  2  3
  1  3  1  0
  3  4  1  0
  3  5  1  0
  4  6  1  0
  5  7  1  0
  6  7  1  0
  5  8  1  1
  4  9  1  1
  8 10  2  0
  8 11  1  0
  7 12  1  1
  9 12  1  0
 10 13  1  0
 11 14  2  0
 12 15  1  0
 13 16  2  0
 14 16  1  0
 15 17  1  0
 17 18  2  0
 17 19  1  0
 18 20  1  0
 19 21  2  0
 19 22  1  0
 20 23  2  0
 21 23  1  0
 21 24  1  0
 22 25  2  0
 24 26  2  0
 25 26  1  0
 25 27  1  0
 27 28  1  0
 27 29  2  0
 27 30  2  0
M  END
