MAK-UNK-ec98eaf6-25-acrylamide
     RDKit          3D

 30 33  0  0  0  0  0  0  0  0999 V2000
    7.1230   -3.1130   19.0970 C   0  0  0  0  0  0  0  0  0  0  0  0
    5.9090   -3.6150   19.8630 C   0  0  0  0  0  0  0  0  0  0  0  0
    5.7690   -3.1720   21.3090 C   0  0  0  0  0  0  0  0  0  0  0  0
    4.7220   -3.4520   21.8940 O   0  0  0  0  0  0  0  0  0  0  0  0
    6.7710   -2.4990   21.9870 N   0  0  0  0  0  0  0  0  0  0  0  0
    7.7030   -1.4940   21.4230 C   0  0  0  0  0  0  0  0  0  0  0  0
    6.6970   -2.2100   23.4350 C   0  0  2  0  0  0  0  0  0  0  0  0
    7.9700   -0.7570   22.6950 C   0  0  1  0  0  0  0  0  0  0  0  0
    6.7820   -0.6870   23.4550 C   0  0  0  0  0  0  0  0  0  0  0  0
    7.8640   -2.7240   23.9150 C   0  0  0  0  0  0  0  0  0  0  0  0
    8.8360   -1.7300   23.4860 N   0  0  0  0  0  0  0  0  0  0  0  0
    9.7880   -1.1830   24.3640 C   0  0  0  0  0  0  0  0  0  0  0  0
   10.7790   -0.2650   23.8720 C   0  0  0  0  0  0  0  0  0  0  0  0
   10.3240    1.1840   23.8870 C   0  0  0  0  0  0  0  0  0  0  0  0
   12.0560   -0.7000   23.4270 C   0  0  0  0  0  0  0  0  0  0  0  0
   11.4470    2.0340   23.3620 C   0  0  0  0  0  0  0  0  0  0  0  0
   12.9850    0.2330   22.9710 C   0  0  0  0  0  0  0  0  0  0  0  0
   12.3610   -2.0880   23.4580 C   0  0  0  0  0  0  0  0  0  0  0  0
   10.9400    3.4600   23.3980 C   0  0  0  0  0  0  0  0  0  0  0  0
   12.6890    1.5890   22.9390 C   0  0  0  0  0  0  0  0  0  0  0  0
   13.4940   -2.4740   22.6080 N   0  0  0  0  0  0  0  0  0  0  0  0
   10.5550    4.5510   23.4490 N   0  0  0  0  0  0  0  0  0  0  0  0
   13.2560   -2.7930   21.2840 C   0  0  0  0  0  0  0  0  0  0  0  0
   12.3190   -2.1840   20.8160 O   0  0  0  0  0  0  0  0  0  0  0  0
   13.9860   -3.7270   20.4780 N   0  0  0  0  0  0  0  0  0  0  0  0
   13.2010   -4.6320   19.8640 C   0  0  0  0  0  0  0  0  0  0  0  0
   14.9820   -4.8410   20.8620 C   0  0  0  0  0  0  0  0  0  0  0  0
   14.1960   -5.6960   20.2500 C   0  0  0  0  0  0  0  0  0  0  0  0
   15.9900   -5.1220   19.9490 C   0  0  0  0  0  0  0  0  0  0  0  0
   15.2050   -5.9620   19.2740 O   0  0  0  0  0  0  0  0  0  0  0  0
  1  2  1  0
  2  3  1  0
  3  4  2  0
  3  5  1  0
  5  6  1  0
  5  7  1  0
  8  6  1  6
  7  9  1  0
  8  9  1  0
  7 10  1  1
  8 11  1  0
 10 11  1  0
 11 12  1  0
 12 13  1  0
 13 14  2  0
 13 15  1  0
 14 16  1  0
 15 17  2  0
 15 18  1  0
 16 19  1  0
 16 20  2  0
 17 20  1  0
 18 21  1  0
 19 22  3  0
 21 23  1  0
 23 24  2  0
 23 25  1  0
 25 26  1  0
 25 27  1  0
 26 28  1  0
 27 29  1  0
 28 30  1  0
 29 30  1  0
M  END
