MAK-UNK-8fdbca50-8-bromoalkyne
     RDKit          3D

 38 41  0  0  0  0  0  0  0  0999 V2000
    7.3120   -3.8470   20.1770 C   0  0  0  0  0  0  0  0  0  0  0  0
    6.1120   -3.4350   19.3330 C   0  0  0  0  0  0  0  0  0  0  0  0
    7.1400   -4.0950   21.5490 N   0  0  0  0  0  0  0  0  0  0  0  0
    6.1480   -3.3110   22.2980 C   0  0  0  0  0  0  0  0  0  0  0  0
    8.2240   -4.6330   22.4250 C   0  0  0  0  0  0  0  0  0  0  0  0
    6.7840   -2.6910   23.5180 C   0  0  0  0  0  0  0  0  0  0  0  0
    7.9480   -4.6670   23.8190 C   0  0  0  0  0  0  0  0  0  0  0  0
    7.2740   -3.5970   24.4650 C   0  0  0  0  0  0  0  0  0  0  0  0
    7.9020   -3.1040   25.6380 C   0  0  0  0  0  0  0  0  0  0  0  0
    8.4540   -3.9130   26.3740 O   0  0  0  0  0  0  0  0  0  0  0  0
    7.8180   -1.6060   25.9370 N   0  0  0  0  0  0  0  0  0  0  0  0
    6.8880   -1.2630   27.0560 C   0  0  0  0  0  0  0  0  0  0  0  0
    9.0330   -0.8110   26.1550 C   0  0  2  0  0  0  0  0  0  0  0  0
    8.5610    0.5370   26.1150 C   0  0  0  0  0  0  0  0  0  0  0  0
   10.0400   -0.9230   25.0600 C   0  0  0  0  0  0  0  0  0  0  0  0
   10.0800   -2.1770   24.1610 C   0  0  0  0  0  0  0  0  0  0  0  0
   10.8000    0.0820   24.9760 N   0  0  0  0  0  0  0  0  0  0  0  0
   11.0490   -2.1720   23.1680 C   0  0  0  0  0  0  0  0  0  0  0  0
   11.6970    0.0900   24.0610 C   0  0  0  0  0  0  0  0  0  0  0  0
   11.8590   -0.9260   23.1880 C   0  0  0  0  0  0  0  0  0  0  0  0
   13.0480   -0.3790   22.2260 S   0  0  0  0  0  0  0  0  0  0  0  0
   13.9920    0.4320   22.9010 O   0  0  0  0  0  0  0  0  0  0  0  0
   13.2910   -1.3370   21.1500 O   0  0  0  0  0  0  0  0  0  0  0  0
   11.5080    0.4660   22.2780 N   0  0  0  0  0  0  0  0  0  0  0  0
   10.3710   -0.3000   21.9280 C   0  0  0  0  0  0  0  0  0  0  0  0
   11.0160    1.7930   22.5940 C   0  0  0  0  0  0  0  0  0  0  0  0
    9.1260    0.3000   21.9370 C   0  0  0  0  0  0  0  0  0  0  0  0
    9.4960    1.6820   22.3740 C   0  0  0  0  0  0  0  0  0  0  0  0
   11.4940    3.0570   22.9880 C   0  0  0  0  0  0  0  0  0  0  0  0
    7.9070   -0.2960   21.6050 C   0  0  0  0  0  0  0  0  0  0  0  0
   12.7930    3.5040   22.8030 C   0  0  0  0  0  0  0  0  0  0  0  0
   10.6010    3.9720   23.5980 C   0  0  0  0  0  0  0  0  0  0  0  0
    7.1330    0.4390   20.7150 N   0  0  0  0  0  0  0  0  0  0  0  0
   13.1930    4.7830   23.1870 C   0  0  0  0  0  0  0  0  0  0  0  0
   10.9960    5.2540   23.9890 C   0  0  0  0  0  0  0  0  0  0  0  0
    9.3210    3.6420   23.8260 F   0  0  0  0  0  0  0  0  0  0  0  0
    7.0240   -0.2770   19.5460 C   0  0  0  0  0  0  0  0  0  0  0  0
   12.3020    5.6660   23.7800 C   0  0  0  0  0  0  0  0  0  0  0  0
  1  2  2  3
  1  3  1  0
  3  4  1  0
  3  5  1  0
  4  6  1  0
  5  7  1  0
  6  8  1  0
  7  8  1  0
  8  9  1  0
  9 10  2  0
  9 11  1  0
 11 12  1  0
 11 13  1  0
 13 14  1  6
 13 15  1  0
 15 16  2  0
 15 17  1  0
 16 18  1  0
 17 19  2  0
 18 20  2  0
 19 20  1  0
 21 20  1  0
 21 22  2  0
 21 23  2  0
 21 24  1  0
 24 25  1  0
 24 26  1  0
 25 27  2  0
 26 28  2  0
 27 28  1  0
 26 29  1  0
 27 30  1  0
 29 31  2  0
 29 32  1  0
 30 33  1  0
 31 34  1  0
 32 35  2  0
 32 36  1  0
 33 37  1  0
 34 38  2  0
 35 38  1  0
M  END
