MAK-UNK-6ca90168-27-nitrile
     RDKit          3D

 10 10  0  0  0  0  0  0  0  0999 V2000
    7.5100   -3.3150   19.9900 C   0  0  0  0  0  0  0  0  0  0  0  0
    6.8500   -2.6960   19.0470 N   0  0  0  0  0  0  0  0  0  0  0  0
    8.1940   -2.6740   21.2210 N   0  0  0  0  0  0  0  0  0  0  0  0
    9.3290   -1.6710   21.5770 C   0  0  0  0  0  0  0  0  0  0  0  0
   10.3120   -1.1570   22.3060 C   0  0  0  0  0  0  0  0  0  0  0  0
    9.7580   -2.2540   22.8930 C   0  0  0  0  0  0  0  0  0  0  0  0
   11.1310   -0.1970   22.2700 N   0  0  0  0  0  0  0  0  0  0  0  0
   10.8730   -1.8870   23.9140 C   0  0  0  0  0  0  0  0  0  0  0  0
    9.0470   -3.3390   23.3460 C   0  0  0  0  0  0  0  0  0  0  0  0
   11.5230   -0.7120   23.3630 C   0  0  0  0  0  0  0  0  0  0  0  0
  1  2  2  3
  1  3  1  0
  3  4  1  0
  4  5  2  0
  4  6  1  0
  5  7  1  0
  6  8  2  0
  6  9  1  0
  7 10  2  0
  8 10  1  0
M  END
