MAK-UNK-69bf97dd-3-chloroacetamide
     RDKit          3D

 27 29  0  0  0  0  0  0  0  0999 V2000
    7.0210   -3.1930   19.2050 C   0  0  0  0  0  0  0  0  0  0  0  0
    6.2110   -3.9880   20.2060 C   0  0  0  0  0  0  0  0  0  0  0  0
    5.1880   -4.5570   19.8600 O   0  0  0  0  0  0  0  0  0  0  0  0
    6.6610   -4.1070   21.4930 N   0  0  0  0  0  0  0  0  0  0  0  0
    6.3130   -5.1800   22.4340 C   0  0  0  0  0  0  0  0  0  0  0  0
    7.5570   -3.0450   21.9760 C   0  0  0  0  0  0  0  0  0  0  0  0
    5.4110   -4.3930   23.4240 C   0  0  0  0  0  0  0  0  0  0  0  0
    7.1380   -2.5230   23.3280 C   0  0  0  0  0  0  0  0  0  0  0  0
    6.5380   -3.6380   24.1750 C   0  0  0  0  0  0  0  0  0  0  0  0
    5.7810   -3.0200   25.3580 C   0  0  0  0  0  0  0  0  0  0  0  0
    4.5790   -3.1820   25.5960 O   0  0  0  0  0  0  0  0  0  0  0  0
    6.6240   -2.2410   26.1150 N   0  0  0  0  0  0  0  0  0  0  0  0
    6.2580   -1.7660   27.4380 C   0  0  0  0  0  0  0  0  0  0  0  0
    5.7930   -0.3260   27.4140 C   0  0  0  0  0  0  0  0  0  0  0  0
    6.4040    0.7440   28.2930 C   0  0  0  0  0  0  0  0  0  0  0  0
    4.5280    0.2940   26.4170 S   0  0  0  0  0  0  0  0  0  0  0  0
    5.7160    2.0430   28.0350 C   0  0  0  0  0  0  0  0  0  0  0  0
    4.7050    1.9520   27.0720 C   0  0  0  0  0  0  0  0  0  0  0  0
    3.6760    3.2880   26.5160 S   0  0  0  0  0  0  0  0  0  0  0  0
    3.8480    3.3790   25.0790 O   0  0  0  0  0  0  0  0  0  0  0  0
    3.8970    4.4270   27.3790 O   0  0  0  0  0  0  0  0  0  0  0  0
    2.0930    2.6820   26.8000 N   0  0  0  0  0  0  0  0  0  0  0  0
    1.5950    1.7200   25.7730 C   0  0  0  0  0  0  0  0  0  0  0  0
    1.7840    2.2280   28.1900 C   0  0  0  0  0  0  0  0  0  0  0  0
    0.2030    1.7300   25.8530 C   0  0  0  0  0  0  0  0  0  0  0  0
    0.8610    1.1840   28.0990 C   0  0  0  0  0  0  0  0  0  0  0  0
   -0.2160    1.5040   27.2050 O   0  0  0  0  0  0  0  0  0  0  0  0
  1  2  1  0
  2  3  2  0
  2  4  1  0
  4  5  1  0
  4  6  1  0
  5  7  1  0
  6  8  1  0
  7  9  1  0
  8  9  1  0
  9 10  1  0
 10 11  2  0
 10 12  1  0
 12 13  1  0
 13 14  1  0
 14 15  2  0
 14 16  1  0
 15 17  1  0
 16 18  1  0
 17 18  2  0
 19 18  1  0
 19 20  2  0
 19 21  2  0
 19 22  1  0
 22 23  1  0
 22 24  1  0
 23 25  1  0
 24 26  1  0
 25 27  1  0
 26 27  1  0
M  END
