MAK-UNK-ec98eaf6-57-acrylamide
     RDKit          3D

 25 28  0  0  0  0  0  0  0  0999 V2000
    7.1180   -2.8960   18.8150 C   0  0  0  0  0  0  0  0  0  0  0  0
    6.3960   -2.4890   20.0900 C   0  0  0  0  0  0  0  0  0  0  0  0
    5.5530   -3.6270   20.6270 C   0  0  0  0  0  0  0  0  0  0  0  0
    5.1710   -4.5580   19.9080 O   0  0  0  0  0  0  0  0  0  0  0  0
    5.2150   -3.5820   21.9790 N   0  0  0  0  0  0  0  0  0  0  0  0
    4.9770   -2.3420   22.7240 C   0  0  0  0  0  0  0  0  0  0  0  0
    5.9430   -4.4040   22.9960 C   0  0  2  0  0  0  0  0  0  0  0  0
    5.6280   -2.6500   24.0370 C   0  0  1  0  0  0  0  0  0  0  0  0
    5.2230   -4.1370   24.1660 C   0  0  0  0  0  0  0  0  0  0  0  0
    7.3210   -3.8330   23.1090 C   0  0  0  0  0  0  0  0  0  0  0  0
    7.1350   -2.7080   24.0200 N   0  0  0  0  0  0  0  0  0  0  0  0
    7.8700   -2.7330   25.2900 C   0  0  0  0  0  0  0  0  0  0  0  0
    9.2520   -2.6400   25.0600 C   0  0  0  0  0  0  0  0  0  0  0  0
    9.8290   -2.0240   24.0020 C   0  0  0  0  0  0  0  0  0  0  0  0
   10.3100   -3.1270   25.7990 N   0  0  0  0  0  0  0  0  0  0  0  0
   11.2020   -2.1000   24.0310 N   0  0  0  0  0  0  0  0  0  0  0  0
   11.4810   -2.7960   25.1720 N   0  0  0  0  0  0  0  0  0  0  0  0
   12.0650   -1.6020   23.0810 C   0  0  0  0  0  0  0  0  0  0  0  0
   12.6270   -0.2190   23.0660 C   0  0  0  0  0  0  0  0  0  0  0  0
   12.4320   -2.4160   22.0510 C   0  0  0  0  0  0  0  0  0  0  0  0
   13.5150    0.1640   21.9080 C   0  0  0  0  0  0  0  0  0  0  0  0
   13.2450   -2.0020   21.0400 C   0  0  0  0  0  0  0  0  0  0  0  0
   13.8120   -0.7250   20.8830 C   0  0  0  0  0  0  0  0  0  0  0  0
   14.6330   -0.2860   19.7190 O   0  0  0  0  0  0  0  0  0  0  0  0
   15.5920    0.9080   19.4550 C   0  0  0  0  0  0  0  0  0  0  0  0
  1  2  1  0
  2  3  1  0
  3  4  2  0
  3  5  1  0
  5  6  1  0
  5  7  1  0
  8  6  1  6
  7  9  1  0
  8  9  1  0
  7 10  1  1
  8 11  1  0
 10 11  1  0
 11 12  1  0
 12 13  1  0
 13 14  2  0
 13 15  1  0
 14 16  1  0
 15 17  2  0
 16 17  1  0
 16 18  1  0
 18 19  2  0
 18 20  1  0
 19 21  1  0
 20 22  2  0
 21 23  2  0
 22 23  1  0
 23 24  1  0
 24 25  1  0
M  END
