MAK-UNK-be3f299e-2
     RDKit          3D

 13 13  0  0  0  0  0  0  0  0999 V2000
   14.8130    0.6760   17.4630 C   0  0  0  0  0  0  0  0  0  0  0  0
   15.1960    1.3980   18.6730 C   0  0  0  0  0  0  0  0  0  0  0  0
   14.9740    2.9300   18.6720 C   0  0  0  0  0  0  0  0  0  0  0  0
   16.5890    1.1180   18.4140 C   0  0  0  0  0  0  0  0  0  0  0  0
   14.7310    0.7970   19.9090 O   0  0  0  0  0  0  0  0  0  0  0  0
   17.6310    0.8390   18.1120 N   0  0  0  0  0  0  0  0  0  0  0  0
   14.2310   -0.5390   19.8590 C   0  0  0  0  0  0  0  0  0  0  0  0
   13.4320   -1.0380   21.1620 C   0  0  0  0  0  0  0  0  0  0  0  0
   13.6640   -0.1800   22.4170 C   0  0  0  0  0  0  0  0  0  0  0  0
   12.5680   -2.1280   21.1830 C   0  0  0  0  0  0  0  0  0  0  0  0
   12.9190   -0.5690   23.6900 C   0  0  0  0  0  0  0  0  0  0  0  0
   11.8230   -2.4830   22.4700 C   0  0  0  0  0  0  0  0  0  0  0  0
   11.9960   -1.7600   23.6230 C   0  0  0  0  0  0  0  0  0  0  0  0
  1  2  1  0
  2  3  1  0
  2  4  1  0
  2  5  1  0
  4  6  3  0
  5  7  1  0
  7  8  1  0
  8  9  2  0
  8 10  1  0
  9 11  1  0
 10 12  2  0
 11 13  2  0
 12 13  1  0
M  END
