MAK-UNK-8fdbca50-12-acrylamide
     RDKit          3D

 40 43  0  0  0  0  0  0  0  0999 V2000
    5.6110   -4.8730   21.3290 C   0  0  0  0  0  0  0  0  0  0  0  0
    6.0770   -4.5480   22.6960 C   0  0  0  0  0  0  0  0  0  0  0  0
    6.0530   -3.1270   22.4210 C   0  0  0  0  0  0  0  0  0  0  0  0
    4.8010   -3.1310   21.6440 O   0  0  0  0  0  0  0  0  0  0  0  0
    7.3750   -2.2430   22.9110 N   0  0  0  0  0  0  0  0  0  0  0  0
    7.6370   -1.1480   23.9820 C   0  0  0  0  0  0  0  0  0  0  0  0
    8.8070   -2.7440   22.6990 C   0  0  0  0  0  0  0  0  0  0  0  0
    8.7030   -0.2860   23.6650 C   0  0  0  0  0  0  0  0  0  0  0  0
    9.7990   -1.6410   22.2090 C   0  0  0  0  0  0  0  0  0  0  0  0
    8.9110   -0.4110   22.3330 C   0  0  0  0  0  0  0  0  0  0  0  0
    9.4130    0.5670   21.5700 C   0  0  0  0  0  0  0  0  0  0  0  0
    9.3950    1.2870   22.5770 O   0  0  0  0  0  0  0  0  0  0  0  0
    9.1980   -0.7210   20.8420 N   0  0  0  0  0  0  0  0  0  0  0  0
   10.1590   -1.7200   21.4280 C   0  0  0  0  0  0  0  0  0  0  0  0
    7.9020   -1.0980   20.1500 C   0  0  1  0  0  0  0  0  0  0  0  0
    7.2970    0.0400   19.4070 C   0  0  0  0  0  0  0  0  0  0  0  0
    8.2260   -2.2300   19.1560 C   0  0  0  0  0  0  0  0  0  0  0  0
    7.9000   -2.0780   17.7940 C   0  0  0  0  0  0  0  0  0  0  0  0
    8.8530   -3.4470   19.5470 C   0  0  0  0  0  0  0  0  0  0  0  0
    8.3060   -3.2030   16.8930 C   0  0  0  0  0  0  0  0  0  0  0  0
    9.1520   -4.6150   18.5790 C   0  0  0  0  0  0  0  0  0  0  0  0
    9.1200   -3.4770   20.8560 F   0  0  0  0  0  0  0  0  0  0  0  0
    8.8760   -4.3750   17.3130 C   0  0  0  0  0  0  0  0  0  0  0  0
    9.5410   -5.9910   18.9610 C   0  0  0  0  0  0  0  0  0  0  0  0
    9.9270   -7.3600   19.3410 C   0  0  0  0  0  0  0  0  0  0  0  0
    9.1710   -6.4130   17.8540 N   0  0  0  0  0  0  0  0  0  0  0  0
    9.7350   -8.4950   18.6450 C   0  0  0  0  0  0  0  0  0  0  0  0
    9.1590   -7.8890   17.6270 C   0  0  0  0  0  0  0  0  0  0  0  0
    8.9430   -4.8470   17.2310 S   0  0  0  0  0  0  0  0  0  0  0  0
   10.0180   -9.9580   18.6710 C   0  0  0  0  0  0  0  0  0  0  0  0
   10.2950   -5.0550   17.5680 O   0  0  0  0  0  0  0  0  0  0  0  0
    8.1860   -3.9480   18.0600 O   0  0  0  0  0  0  0  0  0  0  0  0
    8.4160   -4.6910   15.5150 C   0  0  0  0  0  0  0  0  0  0  0  0
   10.1270  -10.8500   19.7240 N   0  0  0  0  0  0  0  0  0  0  0  0
    7.3040   -4.0290   15.2110 C   0  0  0  0  0  0  0  0  0  0  0  0
    9.1030   -5.3640   14.2770 C   0  0  0  0  0  0  0  0  0  0  0  0
    9.4490  -12.0270   19.5350 C   0  0  0  0  0  0  0  0  0  0  0  0
    6.8250   -3.9150   13.8440 C   0  0  0  0  0  0  0  0  0  0  0  0
    8.8440   -5.4140   13.1340 N   0  0  0  0  0  0  0  0  0  0  0  0
    7.8130   -4.6740   12.9180 C   0  0  0  0  0  0  0  0  0  0  0  0
  1  2  1  0
  2  3  1  0
  3  4  2  0
  3  5  1  0
  5  6  1  0
  5  7  1  0
  6  8  1  0
  7  9  1  0
  8 10  1  0
  9 10  1  0
 10 11  1  0
 11 12  2  0
 11 13  1  0
 13 14  1  0
 13 15  1  0
 15 16  1  6
 15 17  1  0
 17 18  2  0
 17 19  1  0
 18 20  1  0
 19 21  2  0
 19 22  1  0
 20 23  2  0
 21 23  1  0
 21 24  1  0
 24 25  2  0
 24 26  1  0
 25 27  1  0
 26 28  1  0
 27 28  2  0
 26 29  1  0
 27 30  1  0
 29 31  2  0
 29 32  2  0
 29 33  1  0
 30 34  1  0
 33 35  2  0
 33 36  1  0
 34 37  1  0
 35 38  1  0
 36 39  2  0
 38 40  2  0
 39 40  1  0
M  END
