MAK-UNK-9a6be56d-26
     RDKit          3D

 38 42  0  0  0  0  0  0  0  0999 V2000
   10.2170   -1.6660   24.2840 C   0  0  0  0  0  0  0  0  0  0  0  0
   10.4160   -0.8760   23.0920 N   0  0  0  0  0  0  0  0  0  0  0  0
   11.2940   -1.6080   22.1820 C   0  0  0  0  0  0  0  0  0  0  0  0
   10.6900    0.4720   23.2470 C   0  0  0  0  0  0  0  0  0  0  0  0
   12.6440   -1.3100   22.3390 C   0  0  0  0  0  0  0  0  0  0  0  0
   12.0100    0.8870   23.1870 C   0  0  0  0  0  0  0  0  0  0  0  0
    9.6060    1.5190   23.4810 C   0  0  0  0  0  0  0  0  0  0  0  0
   12.9970   -0.1210   22.9720 C   0  0  0  0  0  0  0  0  0  0  0  0
   12.2390    2.2510   23.3560 C   0  0  0  0  0  0  0  0  0  0  0  0
    9.8840    2.8770   23.6530 C   0  0  0  0  0  0  0  0  0  0  0  0
   11.2130    3.3520   23.6210 C   0  0  0  0  0  0  0  0  0  0  0  0
    8.4860    3.9180   23.9030 S   0  0  0  0  0  0  0  0  0  0  0  0
   11.7060    4.6690   23.7870 N   0  0  0  0  0  0  0  0  0  0  0  0
    7.8850    4.0660   22.3280 N   0  0  0  0  0  0  0  0  0  0  0  0
    7.4790    3.1620   24.6160 O   0  0  0  0  0  0  0  0  0  0  0  0
    8.9050    5.2180   24.3610 O   0  0  0  0  0  0  0  0  0  0  0  0
   11.8310    5.5520   25.0540 C   0  0  0  0  0  0  0  0  0  0  0  0
   10.6970    6.4020   25.4100 C   0  0  0  0  0  0  0  0  0  0  0  0
   10.5280    6.9710   24.2120 C   0  0  0  0  0  0  0  0  0  0  0  0
    9.7600    6.9150   26.2400 C   0  0  0  0  0  0  0  0  0  0  0  0
    9.5350    7.9200   23.9450 C   0  0  0  0  0  0  0  0  0  0  0  0
    9.0530    7.8250   25.3990 N   0  0  0  0  0  0  0  0  0  0  0  0
   10.7350    7.1380   23.2410 C   0  0  0  0  0  0  0  0  0  0  0  0
    7.7620    8.7620   25.9270 S   0  0  0  0  0  0  0  0  0  0  0  0
   10.5270    5.8950   22.4160 C   0  0  0  0  0  0  0  0  0  0  0  0
   12.0990    7.5200   23.4110 C   0  0  0  0  0  0  0  0  0  0  0  0
    6.7960    7.8460   26.4870 O   0  0  0  0  0  0  0  0  0  0  0  0
    8.3460    9.8230   26.7220 O   0  0  0  0  0  0  0  0  0  0  0  0
    7.0740    9.4480   24.4650 C   0  0  0  0  0  0  0  0  0  0  0  0
   11.7110    5.1460   21.7970 C   0  0  0  0  0  0  0  0  0  0  0  0
   13.1670    6.8470   22.8150 C   0  0  0  0  0  0  0  0  0  0  0  0
   12.4210    8.5750   24.1820 F   0  0  0  0  0  0  0  0  0  0  0  0
    7.3790   10.7530   24.0890 C   0  0  0  0  0  0  0  0  0  0  0  0
    6.2040    8.6470   23.6870 C   0  0  0  0  0  0  0  0  0  0  0  0
   12.9810    5.6160   21.9780 C   0  0  0  0  0  0  0  0  0  0  0  0
    6.8560   11.3140   22.9620 C   0  0  0  0  0  0  0  0  0  0  0  0
    5.6540    9.2150   22.5160 N   0  0  0  0  0  0  0  0  0  0  0  0
    5.9630   10.4850   22.1670 C   0  0  0  0  0  0  0  0  0  0  0  0
  1  2  1  0
  2  3  1  0
  2  4  1  0
  3  5  1  0
  4  6  2  0
  4  7  1  0
  5  8  1  0
  6  8  1  0
  6  9  1  0
  7 10  2  0
  9 11  2  0
 10 11  1  0
 10 12  1  0
 11 13  1  0
 12 14  1  0
 12 15  2  0
 12 16  2  0
 13 17  1  0
 17 18  1  0
 18 19  1  0
 18 20  2  0
 19 21  2  0
 20 22  1  0
 21 22  1  0
 21 23  1  0
 22 24  1  0
 23 25  2  0
 23 26  1  0
 24 27  2  0
 24 28  2  0
 24 29  1  0
 25 30  1  0
 26 31  2  0
 26 32  1  0
 29 33  2  0
 29 34  1  0
 30 35  2  0
 31 35  1  0
 33 36  1  0
 34 37  2  0
 36 38  2  0
 37 38  1  0
M  END
