MAK-UNK-69bf97dd-4-vinylsulfonamide
     RDKit          3D

 28 30  0  0  0  0  0  0  0  0999 V2000
    7.1800   -3.1090   19.0600 C   0  0  0  0  0  0  0  0  0  0  0  0
    6.5550   -2.4970   20.3050 C   0  0  0  0  0  0  0  0  0  0  0  0
    5.4560   -3.6700   21.0800 S   0  0  0  0  0  0  0  0  0  0  0  0
    4.4380   -2.9670   21.7600 O   0  0  0  0  0  0  0  0  0  0  0  0
    5.0440   -4.6810   20.1250 O   0  0  0  0  0  0  0  0  0  0  0  0
    6.3060   -4.3720   22.3110 N   0  0  0  0  0  0  0  0  0  0  0  0
    7.2850   -3.5720   23.0500 C   0  0  0  0  0  0  0  0  0  0  0  0
    5.4220   -5.1340   23.1800 C   0  0  0  0  0  0  0  0  0  0  0  0
    6.5010   -2.2610   23.4390 C   0  0  0  0  0  0  0  0  0  0  0  0
    4.8730   -4.1610   24.2160 C   0  0  0  0  0  0  0  0  0  0  0  0
    5.0160   -2.7090   23.7220 C   0  0  0  0  0  0  0  0  0  0  0  0
    4.6270   -1.7230   24.8350 C   0  0  0  0  0  0  0  0  0  0  0  0
    3.6830   -1.9010   25.5990 O   0  0  0  0  0  0  0  0  0  0  0  0
    5.4300   -0.6050   24.8920 N   0  0  0  0  0  0  0  0  0  0  0  0
    6.1440   -0.2530   26.1100 C   0  0  0  0  0  0  0  0  0  0  0  0
    6.0540    1.2190   26.5330 C   0  0  0  0  0  0  0  0  0  0  0  0
    6.8840   -1.1790   26.8800 C   0  0  0  0  0  0  0  0  0  0  0  0
    6.7530    1.6960   27.7790 C   0  0  0  0  0  0  0  0  0  0  0  0
    7.5590   -0.7380   28.0810 C   0  0  0  0  0  0  0  0  0  0  0  0
    7.0150   -2.6600   26.5010 C   0  0  0  0  0  0  0  0  0  0  0  0
    7.5060    0.6020   28.5140 C   0  0  0  0  0  0  0  0  0  0  0  0
    8.2810   -1.6550   28.8330 C   0  0  0  0  0  0  0  0  0  0  0  0
    7.7720   -3.4950   27.3250 C   0  0  0  0  0  0  0  0  0  0  0  0
    8.3750   -2.9880   28.4510 C   0  0  0  0  0  0  0  0  0  0  0  0
    8.0240   -5.2290   26.9850 S   0  0  0  0  0  0  0  0  0  0  0  0
    6.7050   -6.0210   27.7230 N   0  0  0  0  0  0  0  0  0  0  0  0
    9.2130   -5.6310   27.6920 O   0  0  0  0  0  0  0  0  0  0  0  0
    7.9160   -5.4370   25.5550 O   0  0  0  0  0  0  0  0  0  0  0  0
  1  2  1  0
  3  2  1  0
  3  4  2  0
  3  5  2  0
  3  6  1  0
  6  7  1  0
  6  8  1  0
  7  9  1  0
  8 10  1  0
  9 11  1  0
 10 11  1  0
 11 12  1  0
 12 13  2  0
 12 14  1  0
 14 15  1  0
 15 16  2  0
 15 17  1  0
 16 18  1  0
 17 19  2  0
 17 20  1  0
 18 21  2  0
 19 21  1  0
 19 22  1  0
 20 23  2  0
 22 24  2  0
 23 24  1  0
 23 25  1  0
 25 26  1  0
 25 27  2  0
 25 28  2  0
M  END
