MAK-UNK-72659d64-18-chloroacetamide
     RDKit          3D

 25 25  0  0  0  0  0  0  0  0999 V2000
    6.9100   -3.4720   19.8250 C   0  0  0  0  0  0  0  0  0  0  0  0
    6.1710   -4.5840   20.5880 C   0  0  0  0  0  0  0  0  0  0  0  0
    5.3520   -5.2560   20.0030 O   0  0  0  0  0  0  0  0  0  0  0  0
    6.4480   -4.7990   21.9200 N   0  0  0  0  0  0  0  0  0  0  0  0
    5.9180   -5.9570   22.6250 C   0  0  0  0  0  0  0  0  0  0  0  0
    5.4710   -5.6640   23.9220 C   0  0  0  0  0  0  0  0  0  0  0  0
    4.5510   -6.5670   24.3590 N   0  0  0  0  0  0  0  0  0  0  0  0
    5.8940   -4.5770   24.7160 C   0  0  0  0  0  0  0  0  0  0  0  0
    4.0420   -6.4050   25.5900 C   0  0  0  0  0  0  0  0  0  0  0  0
    5.2920   -4.5130   25.9970 C   0  0  0  0  0  0  0  0  0  0  0  0
    6.9070   -3.5470   24.2530 C   0  0  0  0  0  0  0  0  0  0  0  0
    3.0650   -7.3600   26.0370 C   0  0  0  0  0  0  0  0  0  0  0  0
    4.3740   -5.4220   26.4300 N   0  0  0  0  0  0  0  0  0  0  0  0
    5.5950   -3.4860   26.9550 C   0  0  0  0  0  0  0  0  0  0  0  0
    6.7560   -2.2830   24.9430 N   0  0  0  0  0  0  0  0  0  0  0  0
    2.2630   -8.1220   26.3930 N   0  0  0  0  0  0  0  0  0  0  0  0
    4.7650   -3.6480   28.1320 N   0  0  0  0  0  0  0  0  0  0  0  0
    7.7260   -1.3030   24.9560 C   0  0  0  0  0  0  0  0  0  0  0  0
    5.0110   -2.9480   29.2870 C   0  0  0  0  0  0  0  0  0  0  0  0
    8.7850   -1.4150   24.3320 O   0  0  0  0  0  0  0  0  0  0  0  0
    7.4160   -0.0640   25.7830 C   0  0  0  0  0  0  0  0  0  0  0  0
    6.1070   -2.4480   29.5320 O   0  0  0  0  0  0  0  0  0  0  0  0
    3.8450   -2.8210   30.2530 C   0  0  0  0  0  0  0  0  0  0  0  0
    6.5290    1.1580   24.8380 Cl  0  0  0  0  0  0  0  0  0  0  0  0
    3.9450   -1.3660   31.1760 Cl  0  0  0  0  0  0  0  0  0  0  0  0
  1  2  1  0
  2  3  2  0
  2  4  1  0
  4  5  1  0
  5  6  1  0
  6  7  2  0
  6  8  1  0
  7  9  1  0
  8 10  2  0
  8 11  1  0
  9 12  1  0
  9 13  2  0
 10 13  1  0
 10 14  1  0
 11 15  1  0
 12 16  3  0
 14 17  1  0
 15 18  1  0
 17 19  1  0
 18 20  2  0
 18 21  1  0
 19 22  2  0
 19 23  1  0
 21 24  1  0
 23 25  1  0
M  END
