MAK-UNK-ec98eaf6-40-vinylsulfonamide
     RDKit          3D

 24 27  0  0  0  0  0  0  0  0999 V2000
    9.0820   -4.0000   20.4030 C   0  0  0  0  0  0  0  0  0  0  0  0
    7.7510   -3.2970   20.1640 C   0  0  0  0  0  0  0  0  0  0  0  0
    6.5840   -4.1650   21.2700 S   0  0  0  0  0  0  0  0  0  0  0  0
    5.1860   -3.6560   21.2060 O   0  0  0  0  0  0  0  0  0  0  0  0
    6.7430   -5.5880   21.1480 O   0  0  0  0  0  0  0  0  0  0  0  0
    7.3470   -3.9280   22.7530 N   0  0  0  0  0  0  0  0  0  0  0  0
    8.5080   -2.9540   22.8510 C   0  0  0  0  0  0  0  0  0  0  0  0
    7.9490   -5.1580   23.3250 C   0  0  1  0  0  0  0  0  0  0  0  0
    9.7490   -3.7320   23.4730 C   0  0  1  0  0  0  0  0  0  0  0  0
    9.4190   -5.0840   22.7940 C   0  0  0  0  0  0  0  0  0  0  0  0
    8.2680   -5.0040   24.7920 C   0  0  0  0  0  0  0  0  0  0  0  0
   10.7900   -2.6230   23.3490 C   0  0  0  0  0  0  0  0  0  0  0  0
    7.6610   -5.5470   25.9090 C   0  0  0  0  0  0  0  0  0  0  0  0
    9.3860   -4.1620   24.8950 C   0  0  0  0  0  0  0  0  0  0  0  0
   12.0570   -2.3310   22.7630 C   0  0  0  0  0  0  0  0  0  0  0  0
   10.2150   -1.6810   24.0250 C   0  0  0  0  0  0  0  0  0  0  0  0
    8.2010   -5.2600   27.1510 C   0  0  0  0  0  0  0  0  0  0  0  0
    9.9270   -3.8760   26.1250 C   0  0  0  0  0  0  0  0  0  0  0  0
   12.6230   -1.0560   22.9340 C   0  0  0  0  0  0  0  0  0  0  0  0
   10.6860   -0.5150   24.2040 C   0  0  0  0  0  0  0  0  0  0  0  0
    9.3210   -4.4410   27.2620 C   0  0  0  0  0  0  0  0  0  0  0  0
   11.9140   -0.1090   23.6820 C   0  0  0  0  0  0  0  0  0  0  0  0
    9.6730    0.0390   24.9530 C   0  0  0  0  0  0  0  0  0  0  0  0
    8.7100    0.2990   25.5070 N   0  0  0  0  0  0  0  0  0  0  0  0
  1  2  1  0
  3  2  1  0
  3  4  2  0
  3  5  2  0
  3  6  1  0
  6  7  1  0
  8  6  1  6
  7  9  1  0
  8 10  1  0
  9 10  1  0
  8 11  1  0
  9 12  1  1
 11 13  2  0
  9 14  1  0
 11 14  1  0
 12 15  2  0
 12 16  1  0
 13 17  1  0
 14 18  2  0
 15 19  1  0
 16 20  2  0
 17 21  2  0
 18 21  1  0
 19 22  2  0
 20 22  1  0
 20 23  1  0
 23 24  3  0
M  END
