MAK-UNK-7c9d1431-18-acrylamide
     RDKit          3D

 20 22  0  0  0  0  0  0  0  0999 V2000
    8.1560   -3.6830   20.1780 C   0  0  0  0  0  0  0  0  0  0  0  0
    6.8790   -3.0200   19.9500 C   0  0  0  0  0  0  0  0  0  0  0  0
    5.9540   -4.0880   20.4380 C   0  0  0  0  0  0  0  0  0  0  0  0
    5.0800   -4.5250   19.7210 O   0  0  0  0  0  0  0  0  0  0  0  0
    6.2010   -4.6020   21.7000 N   0  0  0  0  0  0  0  0  0  0  0  0
    5.9130   -5.9180   22.1030 C   0  0  0  0  0  0  0  0  0  0  0  0
    6.8750   -3.8380   22.6850 C   0  0  0  0  0  0  0  0  0  0  0  0
    5.1940   -5.9390   23.4410 C   0  0  0  0  0  0  0  0  0  0  0  0
    6.2030   -3.8640   23.9080 C   0  0  0  0  0  0  0  0  0  0  0  0
    5.8510   -5.2310   24.3690 N   0  0  0  0  0  0  0  0  0  0  0  0
    5.1760   -5.1960   25.6780 C   0  0  0  0  0  0  0  0  0  0  0  0
    4.0400   -4.1660   25.7340 C   0  0  0  0  0  0  0  0  0  0  0  0
    4.4450   -2.7010   25.8830 C   0  0  0  0  0  0  0  0  0  0  0  0
    2.6670   -4.5340   25.6540 C   0  0  0  0  0  0  0  0  0  0  0  0
    3.3380   -1.6710   25.9460 C   0  0  0  0  0  0  0  0  0  0  0  0
    1.5350   -3.4640   25.7210 C   0  0  0  0  0  0  0  0  0  0  0  0
    1.8170   -2.0990   25.8630 C   0  0  0  0  0  0  0  0  0  0  0  0
    0.0660   -3.6160   25.6610 C   0  0  0  0  0  0  0  0  0  0  0  0
   -0.3350   -2.2350   26.2350 C   0  0  0  0  0  0  0  0  0  0  0  0
    0.7180   -1.2880   25.9130 O   0  0  0  0  0  0  0  0  0  0  0  0
  1  2  1  0
  2  3  1  0
  3  4  2  0
  3  5  1  0
  5  6  1  0
  5  7  1  0
  6  8  1  0
  7  9  1  0
  8 10  1  0
  9 10  1  0
 10 11  1  0
 11 12  1  0
 12 13  2  0
 12 14  1  0
 13 15  1  0
 14 16  2  0
 15 17  2  0
 16 17  1  0
 16 18  1  0
 18 19  1  0
 17 20  1  0
 19 20  1  0
M  END
