MAK-UNK-f983951f-13-chloroacetamide
     RDKit          3D

 12 12  0  0  0  0  0  0  0  0999 V2000
    7.6370   -3.6610   20.4370 C   0  0  0  0  0  0  0  0  0  0  0  0
    6.3890   -4.4720   20.6340 C   0  0  0  0  0  0  0  0  0  0  0  0
    5.4170   -4.4130   19.8800 O   0  0  0  0  0  0  0  0  0  0  0  0
    6.4420   -5.2750   21.7330 N   0  0  0  0  0  0  0  0  0  0  0  0
    5.1840   -5.6400   22.2190 O   0  0  0  0  0  0  0  0  0  0  0  0
    5.4100   -5.8250   23.6120 C   0  0  0  0  0  0  0  0  0  0  0  0
    4.6320   -4.7710   24.4110 C   0  0  0  0  0  0  0  0  0  0  0  0
    4.2700   -3.4020   23.8090 C   0  0  0  0  0  0  0  0  0  0  0  0
    4.1950   -5.0900   25.8270 C   0  0  0  0  0  0  0  0  0  0  0  0
    3.4430   -2.4130   24.7110 C   0  0  0  0  0  0  0  0  0  0  0  0
    3.4620   -4.1600   26.5350 C   0  0  0  0  0  0  0  0  0  0  0  0
    3.0200   -2.7850   26.1090 C   0  0  0  0  0  0  0  0  0  0  0  0
  1  2  1  0
  2  3  2  0
  2  4  1  0
  4  5  1  0
  5  6  1  0
  6  7  1  0
  7  8  2  0
  7  9  1  0
  8 10  1  0
  9 11  2  0
 10 12  2  0
 11 12  1  0
M  END
