MAK-UNK-52a1ef4b-1-chloroacetamide
     RDKit          3D

 16 17  0  0  0  0  0  0  0  0999 V2000
    7.3750   -2.9500   18.6900 C   0  0  0  0  0  0  0  0  0  0  0  0
    6.4440   -3.1750   19.8440 C   0  0  0  0  0  0  0  0  0  0  0  0
    5.5070   -3.9870   19.6980 O   0  0  0  0  0  0  0  0  0  0  0  0
    6.6790   -2.4870   21.0360 N   0  0  0  0  0  0  0  0  0  0  0  0
    7.7090   -1.4380   21.0190 C   0  0  0  0  0  0  0  0  0  0  0  0
    6.4300   -3.0360   22.3730 C   0  0  0  0  0  0  0  0  0  0  0  0
    8.9950   -1.9070   21.6010 C   0  0  0  0  0  0  0  0  0  0  0  0
    7.7260   -3.4270   23.1210 C   0  0  0  0  0  0  0  0  0  0  0  0
    8.8640   -2.5060   22.9210 N   0  0  0  0  0  0  0  0  0  0  0  0
    9.3950   -1.7310   23.9340 C   0  0  0  0  0  0  0  0  0  0  0  0
    8.8290   -1.4840   24.9870 O   0  0  0  0  0  0  0  0  0  0  0  0
   10.6580   -1.1450   23.6890 N   0  0  0  0  0  0  0  0  0  0  0  0
   11.7450   -1.5510   22.9190 C   0  0  0  0  0  0  0  0  0  0  0  0
   11.0200    0.0630   24.2430 C   0  0  0  0  0  0  0  0  0  0  0  0
   12.7380   -0.5980   23.0050 C   0  0  0  0  0  0  0  0  0  0  0  0
   12.2780    0.4080   23.8320 C   0  0  0  0  0  0  0  0  0  0  0  0
  1  2  1  0
  2  3  2  0
  2  4  1  0
  4  5  1  0
  4  6  1  0
  5  7  1  0
  6  8  1  0
  7  9  1  0
  8  9  1  0
  9 10  1  0
 10 11  2  0
 10 12  1  0
 12 13  1  0
 12 14  1  0
 13 15  2  0
 14 16  2  0
 15 16  1  0
M  END
