MAK-UNK-ec98eaf6-49-vinylsulfonamide
     RDKit          3D

 28 31  0  0  0  0  0  0  0  0999 V2000
    7.9970   -3.4210   19.4960 C   0  0  0  0  0  0  0  0  0  0  0  0
    6.8210   -2.7440   18.8790 C   0  0  0  0  0  0  0  0  0  0  0  0
    5.6400   -3.3950   19.9850 S   0  0  0  0  0  0  0  0  0  0  0  0
    4.3780   -2.9960   19.5510 O   0  0  0  0  0  0  0  0  0  0  0  0
    5.8060   -4.8150   20.0800 O   0  0  0  0  0  0  0  0  0  0  0  0
    6.1610   -2.5710   21.3940 N   0  0  0  0  0  0  0  0  0  0  0  0
    6.1720   -3.3120   22.6460 C   0  0  0  0  0  0  0  0  0  0  0  0
    7.5790   -2.0490   21.3210 C   0  0  2  0  0  0  0  0  0  0  0  0
    7.6220   -3.3530   23.0760 C   0  0  1  0  0  0  0  0  0  0  0  0
    8.3420   -3.3130   21.7420 C   0  0  0  0  0  0  0  0  0  0  0  0
    7.8880   -1.1940   22.5250 C   0  0  0  0  0  0  0  0  0  0  0  0
    7.9810   -2.0150   23.6540 N   0  0  0  0  0  0  0  0  0  0  0  0
    9.1240   -2.0340   24.5780 C   0  0  2  0  0  0  0  0  0  0  0  0
    8.6900   -1.5100   25.9340 C   0  0  0  0  0  0  0  0  0  0  0  0
   10.2120   -1.3500   24.0390 C   0  0  0  0  0  0  0  0  0  0  0  0
    7.8710   -2.2550   26.7920 C   0  0  0  0  0  0  0  0  0  0  0  0
   10.5640    0.0690   24.5090 C   0  0  0  0  0  0  0  0  0  0  0  0
   11.0480   -1.9130   23.0510 C   0  0  0  0  0  0  0  0  0  0  0  0
    7.5810   -1.6960   28.0360 C   0  0  0  0  0  0  0  0  0  0  0  0
   11.7650    0.8510   23.9490 C   0  0  0  0  0  0  0  0  0  0  0  0
   12.2440   -1.1310   22.5010 C   0  0  0  0  0  0  0  0  0  0  0  0
    8.4780   -0.8470   28.7090 C   0  0  0  0  0  0  0  0  0  0  0  0
    6.3220   -1.9850   28.6620 C   0  0  0  0  0  0  0  0  0  0  0  0
   12.5670    0.2710   22.9950 C   0  0  0  0  0  0  0  0  0  0  0  0
   13.2270   -1.8410   21.3140 Cl  0  0  0  0  0  0  0  0  0  0  0  0
    8.1150   -0.2740   30.0320 C   0  0  0  0  0  0  0  0  0  0  0  0
    5.9380   -1.4610   29.9140 C   0  0  0  0  0  0  0  0  0  0  0  0
    6.7980   -0.6140   30.6130 C   0  0  0  0  0  0  0  0  0  0  0  0
  1  2  1  0
  3  2  1  0
  3  4  2  0
  3  5  2  0
  3  6  1  0
  6  7  1  0
  6  8  1  0
  9  7  1  6
  8 10  1  0
  9 10  1  0
  8 11  1  1
  9 12  1  0
 11 12  1  0
 12 13  1  0
 13 14  1  1
 13 15  1  0
 14 16  1  0
 15 17  2  0
 15 18  1  0
 16 19  1  0
 17 20  1  0
 18 21  2  0
 19 22  2  0
 19 23  1  0
 20 24  2  0
 21 24  1  0
 21 25  1  0
 22 26  1  0
 23 27  2  0
 26 28  2  0
 27 28  1  0
M  END
