MAK-UNK-ec98eaf6-22-vinylsulfonamide
     RDKit          3D

 24 26  0  0  0  0  0  0  0  0999 V2000
    7.7830   -3.6490   19.9560 C   0  0  0  0  0  0  0  0  0  0  0  0
    7.1400   -2.6410   19.0220 C   0  0  0  0  0  0  0  0  0  0  0  0
    5.5360   -2.3450   19.6760 S   0  0  0  0  0  0  0  0  0  0  0  0
    4.8240   -3.6050   19.5470 O   0  0  0  0  0  0  0  0  0  0  0  0
    5.0520   -1.1330   19.0580 O   0  0  0  0  0  0  0  0  0  0  0  0
    5.8150   -1.9850   21.2780 N   0  0  0  0  0  0  0  0  0  0  0  0
    6.3090   -0.6090   21.6460 C   0  0  0  0  0  0  0  0  0  0  0  0
    6.6520   -2.8660   22.1110 C   0  0  1  0  0  0  0  0  0  0  0  0
    7.6960   -1.0400   22.2250 C   0  0  2  0  0  0  0  0  0  0  0  0
    8.0250   -2.3690   21.6240 C   0  0  0  0  0  0  0  0  0  0  0  0
    6.3840   -2.4950   23.4200 C   0  0  0  0  0  0  0  0  0  0  0  0
    7.5570   -1.5860   23.6040 N   0  0  0  0  0  0  0  0  0  0  0  0
    8.7240   -2.3640   24.0100 C   0  0  0  0  0  0  0  0  0  0  0  0
    9.9160   -1.6510   23.9050 C   0  0  0  0  0  0  0  0  0  0  0  0
   10.8400   -2.0040   22.8850 C   0  0  0  0  0  0  0  0  0  0  0  0
   10.2840   -0.5780   24.7590 C   0  0  0  0  0  0  0  0  0  0  0  0
   12.0910   -1.2210   22.8060 C   0  0  0  0  0  0  0  0  0  0  0  0
   11.4620    0.1080   24.6270 N   0  0  0  0  0  0  0  0  0  0  0  0
    9.4130   -0.1950   25.7890 N   0  0  0  0  0  0  0  0  0  0  0  0
   12.8720   -1.7750   21.6810 C   0  0  0  0  0  0  0  0  0  0  0  0
   12.3560   -0.1980   23.6710 C   0  0  0  0  0  0  0  0  0  0  0  0
    8.3380    0.7430   25.4680 C   0  0  0  0  0  0  0  0  0  0  0  0
   13.4360   -2.2150   20.8130 N   0  0  0  0  0  0  0  0  0  0  0  0
    7.9820    1.3510   26.6710 C   0  0  0  0  0  0  0  0  0  0  0  0
  1  2  1  0
  3  2  1  0
  3  4  2  0
  3  5  2  0
  3  6  1  0
  6  7  1  0
  6  8  1  0
  9  7  1  6
  8 10  1  0
  9 10  1  0
  8 11  1  1
  9 12  1  0
 11 12  1  0
 12 13  1  0
 13 14  1  0
 14 15  2  0
 14 16  1  0
 15 17  1  0
 16 18  2  0
 16 19  1  0
 17 20  1  0
 17 21  2  0
 18 21  1  0
 19 22  1  0
 20 23  3  0
 22 24  1  0
M  END
