MAK-UNK-51bb34f9-3-nitrile
     RDKit          3D

 25 26  0  0  0  0  0  0  0  0999 V2000
    7.5420   -3.4530   19.9610 C   0  0  0  0  0  0  0  0  0  0  0  0
    6.2520   -3.7000   19.7160 N   0  0  0  0  0  0  0  0  0  0  0  0
    8.2390   -2.6490   21.1810 C   0  0  0  0  0  0  0  0  0  0  0  0
    9.8040   -2.6820   21.3270 C   0  0  0  0  0  0  0  0  0  0  0  0
    7.7450   -1.8380   22.2690 C   0  0  0  0  0  0  0  0  0  0  0  0
   10.5950   -2.1240   22.2390 N   0  0  0  0  0  0  0  0  0  0  0  0
    8.5920   -1.2630   23.2280 C   0  0  0  0  0  0  0  0  0  0  0  0
    6.4610   -1.4770   22.5750 N   0  0  0  0  0  0  0  0  0  0  0  0
    9.9730   -1.3840   23.2450 C   0  0  0  0  0  0  0  0  0  0  0  0
    6.3080   -0.2620   23.3750 C   0  0  0  0  0  0  0  0  0  0  0  0
   10.7130   -0.7860   24.2220 N   0  0  0  0  0  0  0  0  0  0  0  0
    5.2530    0.3260   23.6160 O   0  0  0  0  0  0  0  0  0  0  0  0
    7.5400    0.2070   23.8950 C   0  0  0  0  0  0  0  0  0  0  0  0
   11.8700   -1.3960   24.5720 C   0  0  0  0  0  0  0  0  0  0  0  0
    7.8900    1.4730   23.2540 N   0  0  0  0  0  0  0  0  0  0  0  0
   12.9140   -1.5730   23.4790 C   0  0  0  0  0  0  0  0  0  0  0  0
    8.1970    1.4760   21.9030 C   0  0  0  0  0  0  0  0  0  0  0  0
    8.9790    2.2770   21.3830 O   0  0  0  0  0  0  0  0  0  0  0  0
    7.5260    0.5210   21.2630 N   0  0  0  0  0  0  0  0  0  0  0  0
    6.7850    0.7330   20.1780 C   0  0  0  0  0  0  0  0  0  0  0  0
    5.8270    1.7430   20.2220 C   0  0  0  0  0  0  0  0  0  0  0  0
    6.8760    0.0390   18.9720 C   0  0  0  0  0  0  0  0  0  0  0  0
    5.0150    2.0560   19.1650 C   0  0  0  0  0  0  0  0  0  0  0  0
    6.0870    0.2990   17.8450 N   0  0  0  0  0  0  0  0  0  0  0  0
    5.1970    1.2910   17.9830 C   0  0  0  0  0  0  0  0  0  0  0  0
  1  2  2  3
  1  3  1  0
  3  4  2  0
  3  5  1  0
  4  6  1  0
  5  7  2  0
  5  8  1  0
  6  9  2  0
  7  9  1  0
  8 10  1  0
  9 11  1  0
 10 12  2  0
 10 13  1  0
 11 14  1  0
 13 15  1  0
 14 16  1  0
 15 17  1  0
 17 18  2  0
 17 19  1  0
 19 20  1  0
 20 21  2  0
 20 22  1  0
 21 23  1  0
 22 24  2  0
 23 25  2  0
 24 25  1  0
M  END
