MAK-UNK-9a6be56d-32
     RDKit          3D

 38 42  0  0  0  0  0  0  0  0999 V2000
   11.2050   -0.7810   25.2750 C   0  0  0  0  0  0  0  0  0  0  0  0
   10.6240   -0.4770   23.9620 C   0  0  2  0  0  0  0  0  0  0  0  0
    9.2510   -0.4730   23.9120 N   0  0  0  0  0  0  0  0  0  0  0  0
   11.1330   -1.5630   22.9700 C   0  0  0  0  0  0  0  0  0  0  0  0
   11.1750    0.8960   23.5840 C   0  0  0  0  0  0  0  0  0  0  0  0
    8.5000    0.2480   24.9420 C   0  0  0  0  0  0  0  0  0  0  0  0
   12.4340   -1.3550   22.4740 C   0  0  0  0  0  0  0  0  0  0  0  0
   12.4480    0.9680   23.0620 C   0  0  0  0  0  0  0  0  0  0  0  0
   10.4880    2.1120   23.7320 C   0  0  0  0  0  0  0  0  0  0  0  0
    7.4510    0.8930   24.3480 C   0  0  0  0  0  0  0  0  0  0  0  0
   13.2370   -0.1610   22.8820 C   0  0  0  0  0  0  0  0  0  0  0  0
   13.0850    2.1290   22.6720 C   0  0  0  0  0  0  0  0  0  0  0  0
   11.1550    3.4140   23.3200 C   0  0  0  0  0  0  0  0  0  0  0  0
    7.1860    0.5560   23.0930 C   0  0  0  0  0  0  0  0  0  0  0  0
    6.5090    1.8780   24.7110 C   0  0  0  0  0  0  0  0  0  0  0  0
   12.4460    3.3720   22.7950 C   0  0  0  0  0  0  0  0  0  0  0  0
   10.2820    4.9670   23.5110 S   0  0  0  0  0  0  0  0  0  0  0  0
    6.1610    1.1720   22.4750 C   0  0  0  0  0  0  0  0  0  0  0  0
    5.6420    2.0710   23.4620 N   0  0  0  0  0  0  0  0  0  0  0  0
   11.3980    6.0900   22.9390 N   0  0  0  0  0  0  0  0  0  0  0  0
    9.1970    5.0120   22.5760 O   0  0  0  0  0  0  0  0  0  0  0  0
   10.0130    5.2900   24.8850 O   0  0  0  0  0  0  0  0  0  0  0  0
    5.7080    0.9230   21.0470 C   0  0  0  0  0  0  0  0  0  0  0  0
    4.3600    3.1970   23.4650 S   0  0  0  0  0  0  0  0  0  0  0  0
    5.4860    1.9450   20.1150 C   0  0  0  0  0  0  0  0  0  0  0  0
    5.5310   -0.4380   20.6870 C   0  0  0  0  0  0  0  0  0  0  0  0
    5.0180    4.4830   23.4350 O   0  0  0  0  0  0  0  0  0  0  0  0
    3.5160    2.8480   24.5870 O   0  0  0  0  0  0  0  0  0  0  0  0
    3.4100    3.1070   21.9940 C   0  0  0  0  0  0  0  0  0  0  0  0
    5.0460    1.7300   18.6830 C   0  0  0  0  0  0  0  0  0  0  0  0
    5.0970   -0.7740   19.2730 C   0  0  0  0  0  0  0  0  0  0  0  0
    5.7420   -1.4370   21.5610 F   0  0  0  0  0  0  0  0  0  0  0  0
    3.8840    3.6430   20.6800 C   0  0  0  0  0  0  0  0  0  0  0  0
    2.1620    2.5350   22.0080 C   0  0  0  0  0  0  0  0  0  0  0  0
    4.8400    0.2930   18.2290 C   0  0  0  0  0  0  0  0  0  0  0  0
    3.0480    3.5330   19.5570 C   0  0  0  0  0  0  0  0  0  0  0  0
    1.3170    2.4290   20.8670 N   0  0  0  0  0  0  0  0  0  0  0  0
    1.7740    2.9490   19.5830 C   0  0  0  0  0  0  0  0  0  0  0  0
  2  1  1  1
  2  3  1  0
  2  4  1  0
  2  5  1  0
  3  6  1  0
  4  7  1  0
  5  8  2  0
  5  9  1  0
  6 10  1  0
  7 11  1  0
  8 11  1  0
  8 12  1  0
  9 13  2  0
 10 14  1  0
 10 15  2  0
 12 16  2  0
 13 16  1  0
 13 17  1  0
 14 18  2  0
 15 19  1  0
 18 19  1  0
 17 20  1  0
 17 21  2  0
 17 22  2  0
 18 23  1  0
 19 24  1  0
 23 25  2  0
 23 26  1  0
 24 27  2  0
 24 28  2  0
 24 29  1  0
 25 30  1  0
 26 31  2  0
 26 32  1  0
 29 33  2  0
 29 34  1  0
 30 35  2  0
 31 35  1  0
 33 36  1  0
 34 37  2  0
 36 38  2  0
 37 38  1  0
M  END
