MAK-UNK-72659d64-7-nitrile
     RDKit          3D

 12 12  0  0  0  0  0  0  0  0999 V2000
    6.5650   -4.1570   20.2980 C   0  0  0  0  0  0  0  0  0  0  0  0
    5.4630   -3.9950   19.6970 N   0  0  0  0  0  0  0  0  0  0  0  0
    6.6710   -4.8660   21.4890 N   0  0  0  0  0  0  0  0  0  0  0  0
    6.4990   -6.2280   21.3350 C   0  0  0  0  0  0  0  0  0  0  0  0
    5.9380   -4.6780   22.6160 C   0  0  0  0  0  0  0  0  0  0  0  0
    6.3790   -3.9940   23.9100 C   0  0  0  0  0  0  0  0  0  0  0  0
    4.6610   -5.2000   22.5760 C   0  0  0  0  0  0  0  0  0  0  0  0
    5.4150   -3.9970   24.8760 N   0  0  0  0  0  0  0  0  0  0  0  0
    3.7770   -5.1520   23.5710 N   0  0  0  0  0  0  0  0  0  0  0  0
    4.2070   -4.5530   24.6670 C   0  0  0  0  0  0  0  0  0  0  0  0
    3.2230   -4.4870   25.8200 C   0  0  0  0  0  0  0  0  0  0  0  0
    2.6080   -5.4100   26.1740 N   0  0  0  0  0  0  0  0  0  0  0  0
  1  2  2  3
  1  3  1  0
  3  4  1  0
  3  5  1  0
  5  6  2  0
  5  7  1  0
  6  8  1  0
  7  9  2  0
  8 10  2  0
  9 10  1  0
 10 11  1  0
 11 12  3  0
M  END
