MAK-UNK-72659d64-4-bromoalkyne
     RDKit          3D

 12 12  0  0  0  0  0  0  0  0999 V2000
    7.5650   -3.2750   19.5060 C   0  0  0  0  0  0  0  0  0  0  0  0
    6.4200   -2.8200   18.6340 C   0  0  0  0  0  0  0  0  0  0  0  0
    7.1800   -3.5260   20.7450 N   0  0  0  0  0  0  0  0  0  0  0  0
    5.9260   -4.2030   20.7840 C   0  0  0  0  0  0  0  0  0  0  0  0
    5.6780   -4.6720   22.1750 C   0  0  0  0  0  0  0  0  0  0  0  0
    6.3800   -4.1940   23.4050 C   0  0  0  0  0  0  0  0  0  0  0  0
    4.7260   -5.6090   22.4080 N   0  0  0  0  0  0  0  0  0  0  0  0
    6.0270   -4.7070   24.7650 C   0  0  0  0  0  0  0  0  0  0  0  0
    4.4710   -6.0190   23.6470 C   0  0  0  0  0  0  0  0  0  0  0  0
    5.0480   -5.6400   24.8750 N   0  0  0  0  0  0  0  0  0  0  0  0
    3.3990   -7.0430   23.7680 C   0  0  0  0  0  0  0  0  0  0  0  0
    2.4260   -7.9560   23.8940 N   0  0  0  0  0  0  0  0  0  0  0  0
  1  2  2  3
  1  3  1  0
  3  4  1  0
  4  5  1  0
  5  6  2  0
  5  7  1  0
  6  8  1  0
  7  9  2  0
  8 10  2  0
  9 10  1  0
  9 11  1  0
 11 12  3  0
M  END
