MAK-UNK-ec98eaf6-32-bromoalkyne
     RDKit          3D

 17 19  0  0  0  0  0  0  0  0999 V2000
    6.5510   -3.8550   19.6760 C   0  0  0  0  0  0  0  0  0  0  0  0
    5.7120   -5.0760   20.1040 C   0  0  0  0  0  0  0  0  0  0  0  0
    6.3990   -2.6670   20.3590 N   0  0  0  0  0  0  0  0  0  0  0  0
    6.9250   -2.5430   21.7650 C   0  0  0  0  0  0  0  0  0  0  0  0
    6.1510   -1.2650   19.8550 C   0  0  1  0  0  0  0  0  0  0  0  0
    6.8760   -1.0140   21.8140 C   0  0  2  0  0  0  0  0  0  0  0  0
    5.5870   -0.6290   21.1070 C   0  0  0  0  0  0  0  0  0  0  0  0
    7.3610   -0.6430   19.6340 C   0  0  0  0  0  0  0  0  0  0  0  0
    8.0600   -0.6790   20.8400 C   0  0  1  0  0  0  0  0  0  0  0  0
    8.8670    0.4770   21.2620 N   0  0  0  0  0  0  0  0  0  0  0  0
    9.5710    0.2940   22.4490 C   0  0  0  0  0  0  0  0  0  0  0  0
   10.7690    1.0060   22.8330 C   0  0  0  0  0  0  0  0  0  0  0  0
    9.0090   -0.6380   23.2510 C   0  0  0  0  0  0  0  0  0  0  0  0
   11.4360    0.7370   24.1590 C   0  0  0  0  0  0  0  0  0  0  0  0
    9.5250   -0.9230   24.4410 C   0  0  0  0  0  0  0  0  0  0  0  0
   10.7630   -0.2970   25.0490 C   0  0  0  0  0  0  0  0  0  0  0  0
    8.9650   -1.9150   25.4040 C   0  0  0  0  0  0  0  0  0  0  0  0
  1  2  2  3
  1  3  1  0
  3  4  1  0
  3  5  1  0
  6  4  1  6
  5  7  1  0
  6  7  1  0
  5  8  1  1
  6  9  1  0
  8  9  1  0
  9 10  1  1
 10 11  1  0
 11 12  2  0
 11 13  1  0
 12 14  1  0
 13 15  2  0
 14 16  2  0
 15 16  1  0
 15 17  1  0
M  END
