MAK-UNK-10dfa458-9-acrylamide
     RDKit          3D

 20 21  0  0  0  0  0  0  0  0999 V2000
    8.2930   -3.7800   20.3710 C   0  0  0  0  0  0  0  0  0  0  0  0
    6.9390   -3.1950   20.6180 C   0  0  0  0  0  0  0  0  0  0  0  0
    6.0850   -4.4090   20.7270 C   0  0  0  0  0  0  0  0  0  0  0  0
    5.1730   -4.6180   19.9320 O   0  0  0  0  0  0  0  0  0  0  0  0
    6.4280   -5.2850   21.7600 N   0  0  0  0  0  0  0  0  0  0  0  0
    5.5250   -6.3050   22.2560 C   0  0  0  0  0  0  0  0  0  0  0  0
    7.1830   -4.6750   22.8850 C   0  0  0  0  0  0  0  0  0  0  0  0
    4.9810   -5.6210   23.4790 C   0  0  0  0  0  0  0  0  0  0  0  0
    6.2870   -4.0730   24.0040 C   0  0  0  0  0  0  0  0  0  0  0  0
    4.9820   -4.7560   24.2110 N   0  0  0  0  0  0  0  0  0  0  0  0
    4.5720   -4.9460   25.6270 C   0  0  2  0  0  0  0  0  0  0  0  0
    4.1490   -6.3990   25.9920 C   0  0  0  0  0  0  0  0  0  0  0  0
    3.3390   -4.0560   25.8880 C   0  0  0  0  0  0  0  0  0  0  0  0
    3.5040   -2.6710   25.7280 C   0  0  0  0  0  0  0  0  0  0  0  0
    2.3770   -1.9040   26.0270 C   0  0  0  0  0  0  0  0  0  0  0  0
    1.0910   -2.4420   25.7990 C   0  0  0  0  0  0  0  0  0  0  0  0
    2.4850   -0.6160   26.5550 C   0  0  0  0  0  0  0  0  0  0  0  0
   -0.0870   -1.7200   26.0920 C   0  0  0  0  0  0  0  0  0  0  0  0
    1.2240    0.1590   26.8690 C   0  0  0  0  0  0  0  0  0  0  0  0
   -0.0210   -0.3930   26.6390 C   0  0  0  0  0  0  0  0  0  0  0  0
  1  2  1  0
  2  3  1  0
  3  4  2  0
  3  5  1  0
  5  6  1  0
  5  7  1  0
  6  8  1  0
  7  9  1  0
  8 10  1  0
  9 10  1  0
 10 11  1  0
 11 12  1  6
 11 13  1  0
 13 14  1  0
 14 15  1  0
 15 16  2  0
 15 17  1  0
 16 18  1  0
 17 19  2  0
 18 20  2  0
 19 20  1  0
M  END
