MAK-UNK-8fdbca50-27-chloroacetamide
     RDKit          3D

 39 42  0  0  0  0  0  0  0  0999 V2000
    7.4050   -4.8080   21.2300 C   0  0  0  0  0  0  0  0  0  0  0  0
    5.9520   -5.2520   21.1430 C   0  0  0  0  0  0  0  0  0  0  0  0
    5.3050   -5.2150   20.0770 O   0  0  0  0  0  0  0  0  0  0  0  0
    5.3560   -5.7160   22.3130 N   0  0  0  0  0  0  0  0  0  0  0  0
    6.1510   -6.4430   23.2560 C   0  0  0  0  0  0  0  0  0  0  0  0
    4.2980   -5.0120   23.0560 C   0  0  0  0  0  0  0  0  0  0  0  0
    6.8610   -5.4370   24.1400 C   0  0  0  0  0  0  0  0  0  0  0  0
    4.7450   -4.5750   24.3230 C   0  0  0  0  0  0  0  0  0  0  0  0
    6.1220   -4.2880   24.4690 C   0  0  0  0  0  0  0  0  0  0  0  0
    6.4980   -3.6100   25.6420 C   0  0  0  0  0  0  0  0  0  0  0  0
    6.5100   -4.2540   26.8850 O   0  0  0  0  0  0  0  0  0  0  0  0
    6.8890   -2.1440   25.4980 N   0  0  0  0  0  0  0  0  0  0  0  0
    7.7690   -1.7730   24.3250 C   0  0  0  0  0  0  0  0  0  0  0  0
    6.9400   -1.1970   26.6420 C   0  0  0  0  0  0  0  0  0  0  0  0
    8.7460   -0.6450   24.5400 C   0  0  0  0  0  0  0  0  0  0  0  0
    7.7770   -2.3690   23.0390 C   0  0  0  0  0  0  0  0  0  0  0  0
    6.6500    0.2510   26.2390 C   0  0  0  0  0  0  0  0  0  0  0  0
    8.2820   -1.2840   27.3840 C   0  0  0  0  0  0  0  0  0  0  0  0
    9.6170   -0.2080   23.5260 C   0  0  0  0  0  0  0  0  0  0  0  0
    8.6500   -1.9530   21.9900 C   0  0  0  0  0  0  0  0  0  0  0  0
    6.9280   -3.3660   22.8060 F   0  0  0  0  0  0  0  0  0  0  0  0
    9.5550   -0.8990   22.2080 C   0  0  0  0  0  0  0  0  0  0  0  0
    8.6620   -2.5690   20.7270 C   0  0  0  0  0  0  0  0  0  0  0  0
    9.6450   -3.5990   20.2910 C   0  0  0  0  0  0  0  0  0  0  0  0
    7.7870   -2.3540   19.5790 N   0  0  0  0  0  0  0  0  0  0  0  0
    9.3900   -4.0980   18.7770 C   0  0  0  0  0  0  0  0  0  0  0  0
    8.1820   -3.2020   18.5240 C   0  0  0  0  0  0  0  0  0  0  0  0
    6.4850   -1.2660   19.4460 S   0  0  0  0  0  0  0  0  0  0  0  0
   10.1260   -5.2080   17.8800 C   0  0  0  0  0  0  0  0  0  0  0  0
    5.6120   -1.7700   18.4100 O   0  0  0  0  0  0  0  0  0  0  0  0
    7.0350    0.0780   19.4320 O   0  0  0  0  0  0  0  0  0  0  0  0
    5.7010   -1.5220   20.9680 C   0  0  0  0  0  0  0  0  0  0  0  0
   11.5730   -5.4640   17.1660 N   0  0  0  0  0  0  0  0  0  0  0  0
    5.6140   -0.5410   21.9550 C   0  0  0  0  0  0  0  0  0  0  0  0
    5.1560   -2.7580   21.1700 C   0  0  0  0  0  0  0  0  0  0  0  0
   12.1370   -6.2950   15.9490 C   0  0  0  0  0  0  0  0  0  0  0  0
    4.9590   -0.8620   23.1360 C   0  0  0  0  0  0  0  0  0  0  0  0
    4.5090   -3.1010   22.3000 N   0  0  0  0  0  0  0  0  0  0  0  0
    4.4240   -2.1420   23.2660 C   0  0  0  0  0  0  0  0  0  0  0  0
  1  2  1  0
  2  3  2  0
  2  4  1  0
  4  5  1  0
  4  6  1  0
  5  7  1  0
  6  8  1  0
  7  9  1  0
  8  9  1  0
  9 10  1  0
 10 11  2  0
 10 12  1  0
 12 13  1  0
 12 14  1  0
 13 15  2  0
 13 16  1  0
 14 17  1  0
 14 18  1  0
 15 19  1  0
 16 20  2  0
 16 21  1  0
 19 22  2  0
 20 22  1  0
 20 23  1  0
 23 24  2  0
 23 25  1  0
 24 26  1  0
 25 27  1  0
 26 27  2  0
 25 28  1  0
 26 29  1  0
 28 30  2  0
 28 31  2  0
 28 32  1  0
 29 33  1  0
 32 34  2  0
 32 35  1  0
 33 36  1  0
 34 37  1  0
 35 38  2  0
 37 39  2  0
 38 39  1  0
M  END
