MAK-UNK-69bf97dd-9-acrylamide
     RDKit          3D

 29 31  0  0  0  0  0  0  0  0999 V2000
    7.4240   -2.8840   18.4960 C   0  0  0  0  0  0  0  0  0  0  0  0
    6.4380   -2.5790   19.5910 C   0  0  0  0  0  0  0  0  0  0  0  0
    5.9750   -3.8140   20.3010 C   0  0  0  0  0  0  0  0  0  0  0  0
    5.1430   -4.5890   19.8400 O   0  0  0  0  0  0  0  0  0  0  0  0
    6.5920   -4.0220   21.4880 N   0  0  0  0  0  0  0  0  0  0  0  0
    7.5380   -3.0400   22.0600 C   0  0  0  0  0  0  0  0  0  0  0  0
    6.3500   -5.2850   22.1880 C   0  0  0  0  0  0  0  0  0  0  0  0
    7.4060   -3.1530   23.5990 C   0  0  0  0  0  0  0  0  0  0  0  0
    5.6380   -4.9240   23.4730 C   0  0  0  0  0  0  0  0  0  0  0  0
    5.9000   -3.4360   23.7120 C   0  0  0  0  0  0  0  0  0  0  0  0
    5.6480   -3.0560   25.1790 C   0  0  0  0  0  0  0  0  0  0  0  0
    4.6400   -3.2820   25.8340 O   0  0  0  0  0  0  0  0  0  0  0  0
    6.8720   -2.3700   25.6200 N   0  0  0  0  0  0  0  0  0  0  0  0
    6.9660   -0.9160   25.7420 C   0  0  0  0  0  0  0  0  0  0  0  0
    6.4810   -0.5340   27.0930 C   0  0  0  0  0  0  0  0  0  0  0  0
    6.3480   -1.6540   28.0590 C   0  0  0  0  0  0  0  0  0  0  0  0
    6.1580    0.7410   27.5490 C   0  0  0  0  0  0  0  0  0  0  0  0
    5.9360   -1.4810   29.3750 C   0  0  0  0  0  0  0  0  0  0  0  0
    5.7160    0.9060   28.9850 C   0  0  0  0  0  0  0  0  0  0  0  0
    5.6250   -0.2050   29.8400 C   0  0  0  0  0  0  0  0  0  0  0  0
    5.0930    0.0230   31.5230 S   0  0  0  0  0  0  0  0  0  0  0  0
    4.1310    1.1090   31.5490 O   0  0  0  0  0  0  0  0  0  0  0  0
    4.7460   -1.2890   32.0380 O   0  0  0  0  0  0  0  0  0  0  0  0
    6.4860    0.5900   32.3530 N   0  0  0  0  0  0  0  0  0  0  0  0
    7.6700    0.4300   31.7200 C   0  0  0  0  0  0  0  0  0  0  0  0
    6.4650    0.3580   33.8410 C   0  0  0  0  0  0  0  0  0  0  0  0
    8.6710    1.2340   32.5130 C   0  0  0  0  0  0  0  0  0  0  0  0
    7.8210   -0.0190   34.4370 C   0  0  0  0  0  0  0  0  0  0  0  0
    8.9520    0.8920   33.9780 C   0  0  0  0  0  0  0  0  0  0  0  0
  1  2  1  0
  2  3  1  0
  3  4  2  0
  3  5  1  0
  5  6  1  0
  5  7  1  0
  6  8  1  0
  7  9  1  0
  8 10  1  0
  9 10  1  0
 10 11  1  0
 11 12  2  0
 11 13  1  0
 13 14  1  0
 14 15  1  0
 15 16  2  0
 15 17  1  0
 16 18  1  0
 17 19  2  0
 18 20  2  0
 19 20  1  0
 21 20  1  0
 21 22  2  0
 21 23  2  0
 21 24  1  0
 24 25  1  0
 24 26  1  0
 25 27  1  0
 26 28  1  0
 27 29  1  0
 28 29  1  0
M  END
