MAK-MCD-2210d2de-1-bromoalkyne
     RDKit          3D

 40 44  0  0  0  0  0  0  0  0999 V2000
    6.6960   -4.6370   20.3590 C   0  0  0  0  0  0  0  0  0  0  0  0
    6.0340   -3.5460   19.5450 C   0  0  0  0  0  0  0  0  0  0  0  0
    6.3090   -4.9950   21.6810 N   0  0  0  0  0  0  0  0  0  0  0  0
    5.5520   -6.2360   21.9890 C   0  0  0  0  0  0  0  0  0  0  0  0
    6.7330   -4.3440   22.9060 C   0  0  0  0  0  0  0  0  0  0  0  0
    4.5740   -6.1470   23.1810 C   0  0  0  0  0  0  0  0  0  0  0  0
    6.2710   -4.7930   24.1470 C   0  0  0  0  0  0  0  0  0  0  0  0
    7.6870   -3.1150   23.0580 C   0  0  0  0  0  0  0  0  0  0  0  0
    5.3410   -5.9070   24.3880 N   0  0  0  0  0  0  0  0  0  0  0  0
    6.7810   -4.0540   25.1650 C   0  0  0  0  0  0  0  0  0  0  0  0
    7.9670   -2.6150   24.3640 C   0  0  0  0  0  0  0  0  0  0  0  0
    4.4780   -5.7850   25.8430 S   0  0  0  0  0  0  0  0  0  0  0  0
    7.4120   -3.2220   25.5540 N   0  0  0  0  0  0  0  0  0  0  0  0
    8.7590   -1.5240   24.5680 N   0  0  0  0  0  0  0  0  0  0  0  0
    5.4000   -5.3820   26.8770 O   0  0  0  0  0  0  0  0  0  0  0  0
    3.7160   -7.0010   25.9690 O   0  0  0  0  0  0  0  0  0  0  0  0
    3.3540   -4.4680   25.7880 C   0  0  0  0  0  0  0  0  0  0  0  0
    8.3490   -0.4520   23.6820 C   0  0  0  0  0  0  0  0  0  0  0  0
    1.9020   -4.6790   25.6310 C   0  0  0  0  0  0  0  0  0  0  0  0
    3.8030   -3.1380   25.9000 C   0  0  0  0  0  0  0  0  0  0  0  0
    8.9990   -0.6140   22.4780 N   0  0  0  0  0  0  0  0  0  0  0  0
    0.9550   -3.4600   25.6040 C   0  0  0  0  0  0  0  0  0  0  0  0
    2.8830   -2.0710   25.8680 C   0  0  0  0  0  0  0  0  0  0  0  0
   10.4110   -0.4280   22.5650 C   0  0  0  0  0  0  0  0  0  0  0  0
    8.2960   -0.2110   21.3930 C   0  0  2  0  0  0  0  0  0  0  0  0
    1.4980   -2.1860   25.7290 C   0  0  0  0  0  0  0  0  0  0  0  0
    3.3650   -0.8260   25.9830 F   0  0  0  0  0  0  0  0  0  0  0  0
   10.6880    0.7950   23.1610 C   0  0  0  0  0  0  0  0  0  0  0  0
   11.4620   -1.2740   22.1490 C   0  0  0  0  0  0  0  0  0  0  0  0
    8.5670    1.1800   21.1650 O   0  0  0  0  0  0  0  0  0  0  0  0
    6.9320   -0.3070   21.4210 N   0  0  0  0  0  0  0  0  0  0  0  0
   12.0700    1.3160   23.3960 C   0  0  0  0  0  0  0  0  0  0  0  0
   12.9020   -0.8050   22.3600 C   0  0  0  0  0  0  0  0  0  0  0  0
    6.1950   -0.1040   20.1550 C   0  0  1  0  0  0  0  0  0  0  0  0
   13.1560    0.4060   22.9370 C   0  0  0  0  0  0  0  0  0  0  0  0
    5.0170    0.8740   20.3890 C   0  0  0  0  0  0  0  0  0  0  0  0
    7.0700    0.3230   18.9700 C   0  0  0  0  0  0  0  0  0  0  0  0
    4.5410    1.5340   19.2710 C   0  0  0  0  0  0  0  0  0  0  0  0
    6.4490    0.8300   17.8530 N   0  0  0  0  0  0  0  0  0  0  0  0
    5.0250    1.0230   17.9230 C   0  0  0  0  0  0  0  0  0  0  0  0
  1  2  2  3
  1  3  1  0
  3  4  1  0
  3  5  1  0
  4  6  1  0
  5  7  2  0
  5  8  1  0
  6  9  1  0
  7  9  1  0
  7 10  1  0
  8 11  2  0
  9 12  1  0
 10 13  2  0
 11 13  1  0
 11 14  1  0
 12 15  2  0
 12 16  2  0
 12 17  1  0
 14 18  1  0
 17 19  2  0
 17 20  1  0
 18 21  1  0
 19 22  1  0
 20 23  2  0
 21 24  1  0
 21 25  1  0
 22 26  2  0
 23 26  1  0
 23 27  1  0
 24 28  2  0
 24 29  1  0
 25 30  1  1
 25 31  1  0
 28 32  1  0
 29 33  2  0
 34 31  1  1
 32 35  2  0
 33 35  1  0
 34 36  1  0
 34 37  1  0
 36 38  1  0
 37 39  1  0
 38 40  1  0
 39 40  1  0
M  END
