MAK-UNK-516d8086-23-bromoalkyne
     RDKit          3D

 22 24  0  0  0  0  0  0  0  0999 V2000
    8.0000   -5.3960   20.3870 C   0  0  0  0  0  0  0  0  0  0  0  0
    7.1510   -6.1510   19.7150 C   0  0  0  0  0  0  0  0  0  0  0  0
    9.5660   -4.7720   20.3540 C   0  0  0  0  0  0  0  0  0  0  0  0
   10.7060   -5.3280   19.5780 C   0  0  0  0  0  0  0  0  0  0  0  0
    9.9990   -3.5850   21.2790 N   0  0  0  0  0  0  0  0  0  0  0  0
   12.0060   -4.8500   19.6980 N   0  0  0  0  0  0  0  0  0  0  0  0
   11.3710   -3.1390   21.3570 C   0  0  0  0  0  0  0  0  0  0  0  0
   12.2820   -3.7760   20.6170 C   0  0  0  0  0  0  0  0  0  0  0  0
   11.7230   -2.0930   22.2090 C   0  0  0  0  0  0  0  0  0  0  0  0
   13.6660   -3.4960   20.6860 N   0  0  0  0  0  0  0  0  0  0  0  0
   10.6940   -1.6090   23.0200 C   0  0  0  0  0  0  0  0  0  0  0  0
   13.9910   -4.8490   20.2810 C   0  0  0  0  0  0  0  0  0  0  0  0
   11.0610   -1.1320   24.3140 C   0  0  0  0  0  0  0  0  0  0  0  0
    9.3230   -1.5760   22.5960 C   0  0  0  0  0  0  0  0  0  0  0  0
   15.2950   -5.3280   20.4040 C   0  0  0  0  0  0  0  0  0  0  0  0
   10.0170   -0.5720   25.2940 C   0  0  0  0  0  0  0  0  0  0  0  0
    8.3530   -1.0740   23.4770 C   0  0  0  0  0  0  0  0  0  0  0  0
    8.5760   -0.5420   24.8510 C   0  0  0  0  0  0  0  0  0  0  0  0
    6.8630   -0.9780   23.1790 C   0  0  0  0  0  0  0  0  0  0  0  0
    6.2770   -1.3330   22.1760 O   0  0  0  0  0  0  0  0  0  0  0  0
    6.3300   -0.3810   24.3630 N   0  0  0  0  0  0  0  0  0  0  0  0
    7.3900   -0.1460   25.3930 C   0  0  0  0  0  0  0  0  0  0  0  0
  1  2  2  3
  1  3  1  0
  3  4  2  0
  3  5  1  0
  4  6  1  0
  5  7  2  0
  6  8  2  0
  7  8  1  0
  7  9  1  0
  8 10  1  0
  9 11  1  0
 10 12  1  0
 11 13  2  0
 11 14  1  0
 12 15  1  0
 13 16  1  0
 14 17  2  0
 16 18  2  0
 17 18  1  0
 17 19  1  0
 19 20  2  0
 19 21  1  0
 18 22  1  0
 21 22  1  0
M  END
