MAK-UNK-10799360-32-chloroacetamide
     RDKit          3D

 32 36  0  0  0  0  0  0  0  0999 V2000
    7.0730   -3.0840   19.0710 C   0  0  0  0  0  0  0  0  0  0  0  0
    6.0120   -3.4930   20.0960 C   0  0  0  0  0  0  0  0  0  0  0  0
    5.2120   -4.3870   19.8270 O   0  0  0  0  0  0  0  0  0  0  0  0
    5.9780   -2.8560   21.3110 N   0  0  0  0  0  0  0  0  0  0  0  0
    6.4980   -3.5370   22.5010 C   0  0  0  0  0  0  0  0  0  0  0  0
    6.1340   -1.4100   21.5650 C   0  0  1  0  0  0  0  0  0  0  0  0
    7.0930   -2.3570   23.3060 C   0  0  2  0  0  0  0  0  0  0  0  0
    5.9900   -1.3270   23.0820 C   0  0  0  0  0  0  0  0  0  0  0  0
    7.6280   -1.0260   21.4320 C   0  0  0  0  0  0  0  0  0  0  0  0
    8.2510   -1.8060   22.5360 N   0  0  0  0  0  0  0  0  0  0  0  0
    9.3220   -1.1920   23.3500 C   0  0  0  0  0  0  0  0  0  0  0  0
   10.7310   -1.2450   22.7280 C   0  0  0  0  0  0  0  0  0  0  0  0
   11.6490   -0.2390   23.0360 C   0  0  0  0  0  0  0  0  0  0  0  0
   11.1330   -2.2740   21.8630 C   0  0  0  0  0  0  0  0  0  0  0  0
   12.9100   -0.2630   22.4990 C   0  0  0  0  0  0  0  0  0  0  0  0
   12.4320   -2.3220   21.3030 C   0  0  0  0  0  0  0  0  0  0  0  0
   13.2690   -1.2910   21.6450 C   0  0  0  0  0  0  0  0  0  0  0  0
   12.7850   -3.4220   20.4180 N   0  0  0  0  0  0  0  0  0  0  0  0
   14.0080   -4.1300   20.0510 C   0  0  0  0  0  0  0  0  0  0  0  0
   14.1630   -5.3150   20.3460 O   0  0  0  0  0  0  0  0  0  0  0  0
   15.1720   -3.4590   19.2090 C   0  0  0  0  0  0  0  0  0  0  0  0
   15.5040   -1.9160   18.6730 C   0  0  0  0  0  0  0  0  0  0  0  0
   16.4460   -4.2950   18.6740 S   0  0  0  0  0  0  0  0  0  0  0  0
   16.6190   -1.7620   18.0030 N   0  0  0  0  0  0  0  0  0  0  0  0
   17.2790   -2.8450   17.9020 C   0  0  0  0  0  0  0  0  0  0  0  0
   18.5140   -2.5990   17.1900 C   0  0  0  0  0  0  0  0  0  0  0  0
   19.7410   -2.4470   17.9200 C   0  0  0  0  0  0  0  0  0  0  0  0
   19.7720   -2.0800   19.2410 C   0  0  0  0  0  0  0  0  0  0  0  0
   20.9870   -2.6930   17.2910 C   0  0  0  0  0  0  0  0  0  0  0  0
   20.9810   -1.9460   19.9410 C   0  0  0  0  0  0  0  0  0  0  0  0
   22.1940   -2.5640   17.9630 C   0  0  0  0  0  0  0  0  0  0  0  0
   22.1940   -2.1820   19.3150 C   0  0  0  0  0  0  0  0  0  0  0  0
  1  2  1  0
  2  3  2  0
  2  4  1  0
  4  5  1  0
  4  6  1  0
  7  5  1  6
  6  8  1  0
  7  8  1  0
  6  9  1  1
  7 10  1  0
  9 10  1  0
 10 11  1  0
 11 12  1  0
 12 13  2  0
 12 14  1  0
 13 15  1  0
 14 16  2  0
 15 17  2  0
 16 17  1  0
 16 18  1  0
 18 19  1  0
 19 20  2  0
 19 21  1  0
 21 22  2  0
 21 23  1  0
 22 24  1  0
 23 25  1  0
 24 25  2  0
 25 26  1  0
 26 27  1  0
 27 28  2  0
 27 29  1  0
 28 30  1  0
 29 31  2  0
 30 32  2  0
 31 32  1  0
M  END
