MAK-UNK-8fdbca50-39-bromoalkyne
     RDKit          3D

 38 41  0  0  0  0  0  0  0  0999 V2000
    6.6360   -3.2070   20.2660 C   0  0  0  0  0  0  0  0  0  0  0  0
    5.3430   -3.3870   19.5420 C   0  0  0  0  0  0  0  0  0  0  0  0
    7.0240   -2.0470   20.9560 N   0  0  0  0  0  0  0  0  0  0  0  0
    7.2540   -2.0770   22.4000 C   0  0  0  0  0  0  0  0  0  0  0  0
    7.7410   -0.9010   20.4160 C   0  0  0  0  0  0  0  0  0  0  0  0
    8.7440   -2.1690   22.6320 C   0  0  0  0  0  0  0  0  0  0  0  0
    8.6690   -0.1900   21.4730 C   0  0  0  0  0  0  0  0  0  0  0  0
    9.5670   -1.0960   22.3690 C   0  0  0  0  0  0  0  0  0  0  0  0
   10.9560   -1.2820   21.9750 C   0  0  0  0  0  0  0  0  0  0  0  0
   11.5010   -2.3600   21.1510 C   0  0  0  0  0  0  0  0  0  0  0  0
   11.9150   -0.3420   22.4670 N   0  0  0  0  0  0  0  0  0  0  0  0
   10.5520   -3.4800   20.6210 N   0  0  0  0  0  0  0  0  0  0  0  0
   13.2080   -0.6900   22.2820 C   0  0  0  0  0  0  0  0  0  0  0  0
   11.7480    0.2400   23.6820 C   0  0  0  0  0  0  0  0  0  0  0  0
   10.7390   -4.9480   20.0850 C   0  0  0  0  0  0  0  0  0  0  0  0
   11.3780   -0.7670   24.7500 C   0  0  0  0  0  0  0  0  0  0  0  0
   10.7700    1.4160   23.6440 C   0  0  0  0  0  0  0  0  0  0  0  0
   11.5860   -5.8840   20.5010 C   0  0  0  0  0  0  0  0  0  0  0  0
   12.8540   -5.3600   20.4670 C   0  0  0  0  0  0  0  0  0  0  0  0
   11.4670   -7.4560   21.0140 C   0  0  0  0  0  0  0  0  0  0  0  0
   13.6510   -6.4050   20.9330 C   0  0  0  0  0  0  0  0  0  0  0  0
   12.7000   -8.2450   21.3260 N   0  0  0  0  0  0  0  0  0  0  0  0
   15.1620   -5.7760   21.8490 C   0  0  0  0  0  0  0  0  0  0  0  0
   13.5050  -11.3130   22.0830 S   0  0  0  0  0  0  0  0  0  0  0  0
   16.1800   -6.3380   23.2670 C   0  0  0  0  0  0  0  0  0  0  0  0
   15.0140   -4.7500   21.8840 C   0  0  0  0  0  0  0  0  0  0  0  0
   14.7000  -12.1110   22.4600 O   0  0  0  0  0  0  0  0  0  0  0  0
   13.3420  -11.4660   23.4180 O   0  0  0  0  0  0  0  0  0  0  0  0
   13.2910  -12.6490   21.1950 C   0  0  0  0  0  0  0  0  0  0  0  0
   16.7790   -5.7230   24.2330 C   0  0  0  0  0  0  0  0  0  0  0  0
   15.5960   -4.2210   23.1790 C   0  0  0  0  0  0  0  0  0  0  0  0
   14.1700   -4.1640   20.9550 F   0  0  0  0  0  0  0  0  0  0  0  0
   13.8430  -12.5410   20.1410 C   0  0  0  0  0  0  0  0  0  0  0  0
   12.6050  -13.7490   21.5820 C   0  0  0  0  0  0  0  0  0  0  0  0
   16.4150   -4.5840   24.2330 C   0  0  0  0  0  0  0  0  0  0  0  0
   13.7340  -13.4270   19.4680 C   0  0  0  0  0  0  0  0  0  0  0  0
   12.4830  -14.6520   20.8630 N   0  0  0  0  0  0  0  0  0  0  0  0
   13.0860  -14.4630   19.7520 C   0  0  0  0  0  0  0  0  0  0  0  0
  1  2  2  3
  1  3  1  0
  3  4  1  0
  3  5  1  0
  4  6  1  0
  5  7  1  0
  6  8  1  0
  7  8  1  0
  8  9  1  0
  9 10  2  3
  9 11  1  0
 10 12  1  0
 11 13  1  0
 11 14  1  0
 12 15  1  0
 14 16  1  0
 14 17  1  0
 15 18  1  0
 18 19  1  0
 18 20  2  0
 19 21  2  0
 20 22  1  0
 21 22  1  0
 21 23  1  0
 22 24  1  0
 23 25  2  0
 23 26  1  0
 24 27  2  0
 24 28  2  0
 24 29  1  0
 25 30  1  0
 26 31  2  0
 26 32  1  0
 29 33  2  0
 29 34  1  0
 30 35  2  0
 31 35  1  0
 33 36  1  0
 34 37  2  0
 36 38  2  0
 37 38  1  0
M  END
