MAK-UNK-30aad1f1-6-nitrile
     RDKit          3D

 26 28  0  0  0  0  0  0  0  0999 V2000
    7.7710   -4.1270   20.1470 C   0  0  0  0  0  0  0  0  0  0  0  0
    6.4830   -4.3800   19.9050 N   0  0  0  0  0  0  0  0  0  0  0  0
    8.6030   -4.0040   21.3590 C   0  0  0  0  0  0  0  0  0  0  0  0
    9.3300   -2.6710   21.4780 C   0  0  0  0  0  0  0  0  0  0  0  0
    8.8430   -4.9620   22.3580 C   0  0  0  0  0  0  0  0  0  0  0  0
   10.3030   -2.4510   22.6050 C   0  0  0  0  0  0  0  0  0  0  0  0
    9.7190   -4.7880   23.4190 N   0  0  0  0  0  0  0  0  0  0  0  0
   10.4340   -3.6310   23.5440 C   0  0  0  0  0  0  0  0  0  0  0  0
   11.4340   -3.4350   24.6340 N   0  0  0  0  0  0  0  0  0  0  0  0
   12.5950   -2.5880   24.2040 C   0  0  0  0  0  0  0  0  0  0  0  0
   12.1130   -1.3510   23.7560 C   0  0  0  0  0  0  0  0  0  0  0  0
   12.8940   -0.2290   23.5980 C   0  0  0  0  0  0  0  0  0  0  0  0
   10.7680   -1.2120   23.4530 C   0  0  0  0  0  0  0  0  0  0  0  0
   12.3560    1.0110   23.1590 C   0  0  0  0  0  0  0  0  0  0  0  0
   10.1950   -0.0530   23.0240 C   0  0  0  0  0  0  0  0  0  0  0  0
   10.9580    1.0900   22.8670 C   0  0  0  0  0  0  0  0  0  0  0  0
    8.8840   -0.0890   22.7740 N   0  0  0  0  0  0  0  0  0  0  0  0
    8.3070    0.3520   21.6130 C   0  0  0  0  0  0  0  0  0  0  0  0
    8.7220    1.3850   21.0670 O   0  0  0  0  0  0  0  0  0  0  0  0
    7.2430   -0.4270   21.1360 N   0  0  0  0  0  0  0  0  0  0  0  0
    6.5430    0.1620   20.0220 C   0  0  0  0  0  0  0  0  0  0  0  0
    5.2990    0.9450   20.3780 C   0  0  0  0  0  0  0  0  0  0  0  0
    6.9150    0.0740   18.7020 C   0  0  0  0  0  0  0  0  0  0  0  0
    4.6590    1.5060   19.3610 C   0  0  0  0  0  0  0  0  0  0  0  0
    6.2590    0.6510   17.6380 N   0  0  0  0  0  0  0  0  0  0  0  0
    5.1440    1.3650   17.9720 C   0  0  0  0  0  0  0  0  0  0  0  0
  1  2  2  3
  1  3  1  0
  3  4  2  0
  3  5  1  0
  4  6  1  0
  5  7  2  0
  6  8  2  0
  7  8  1  0
  8  9  1  0
  9 10  1  0
 10 11  1  0
 11 12  2  0
 11 13  1  0
 12 14  1  0
 13 15  2  0
 14 16  2  0
 15 16  1  0
 15 17  1  0
 17 18  1  0
 18 19  2  0
 18 20  1  0
 20 21  1  0
 21 22  2  0
 21 23  1  0
 22 24  1  0
 23 25  2  0
 24 26  2  0
 25 26  1  0
M  END
