MAK-UNK-7c9d1431-28-acrylamide
     RDKit          3D

 16 17  0  0  0  0  0  0  0  0999 V2000
    7.8740   -3.4140   19.7130 C   0  0  0  0  0  0  0  0  0  0  0  0
    6.6370   -3.1070   20.5370 C   0  0  0  0  0  0  0  0  0  0  0  0
    5.9720   -4.4150   20.8370 C   0  0  0  0  0  0  0  0  0  0  0  0
    5.1590   -4.8850   20.0600 O   0  0  0  0  0  0  0  0  0  0  0  0
    6.4030   -5.0620   21.9520 N   0  0  0  0  0  0  0  0  0  0  0  0
    5.6410   -6.2060   22.4450 C   0  0  0  0  0  0  0  0  0  0  0  0
    7.1550   -4.3300   23.0060 C   0  0  0  0  0  0  0  0  0  0  0  0
    5.3610   -5.7450   23.8280 C   0  0  0  0  0  0  0  0  0  0  0  0
    6.3770   -3.9680   24.1430 C   0  0  0  0  0  0  0  0  0  0  0  0
    5.6750   -5.1340   24.7260 N   0  0  0  0  0  0  0  0  0  0  0  0
    4.9130   -4.9300   25.8390 C   0  0  0  0  0  0  0  0  0  0  0  0
    4.1150   -3.6010   25.8460 C   0  0  0  0  0  0  0  0  0  0  0  0
    2.6140   -3.7080   25.5720 C   0  0  0  0  0  0  0  0  0  0  0  0
    4.5550   -2.2980   26.0720 O   0  0  0  0  0  0  0  0  0  0  0  0
    2.2020   -2.2630   25.6730 C   0  0  0  0  0  0  0  0  0  0  0  0
    3.4330   -1.4770   25.9720 C   0  0  0  0  0  0  0  0  0  0  0  0
  1  2  1  0
  2  3  1  0
  3  4  2  0
  3  5  1  0
  5  6  1  0
  5  7  1  0
  6  8  1  0
  7  9  1  0
  8 10  1  0
  9 10  1  0
 10 11  1  0
 11 12  1  0
 12 13  2  0
 12 14  1  0
 13 15  1  0
 14 16  1  0
 15 16  2  0
M  END
