MAK-UNK-5d2caa6f-15-bromoalkyne
     RDKit          3D

 22 25  0  0  0  0  0  0  0  0999 V2000
    7.7890   -3.3050   19.7010 C   0  0  0  0  0  0  0  0  0  0  0  0
    6.3360   -3.1820   19.1490 C   0  0  0  0  0  0  0  0  0  0  0  0
    8.0930   -3.0450   21.0870 N   0  0  0  0  0  0  0  0  0  0  0  0
    9.3860   -2.9500   21.6860 C   0  0  0  0  0  0  0  0  0  0  0  0
    7.4050   -2.0090   21.7590 C   0  0  2  0  0  0  0  0  0  0  0  0
    9.3310   -1.5140   22.0530 C   0  0  1  0  0  0  0  0  0  0  0  0
    8.1810   -0.9520   21.2570 C   0  0  0  0  0  0  0  0  0  0  0  0
    7.6230   -2.2750   23.1000 C   0  0  0  0  0  0  0  0  0  0  0  0
    8.7440   -1.4730   23.4830 C   0  0  1  0  0  0  0  0  0  0  0  0
    9.6940   -2.1840   24.4440 C   0  0  0  0  0  0  0  0  0  0  0  0
   11.0320   -2.1740   24.2110 O   0  0  0  0  0  0  0  0  0  0  0  0
    9.1580   -2.8310   25.5330 N   0  0  0  0  0  0  0  0  0  0  0  0
    7.7950   -3.1580   25.7290 C   0  0  0  0  0  0  0  0  0  0  0  0
    6.7820   -2.5100   26.3980 C   0  0  0  0  0  0  0  0  0  0  0  0
    7.1220   -4.3110   25.2460 C   0  0  0  0  0  0  0  0  0  0  0  0
    5.5230   -3.1350   26.4010 N   0  0  0  0  0  0  0  0  0  0  0  0
    5.7270   -4.2900   25.6650 C   0  0  0  0  0  0  0  0  0  0  0  0
    7.5570   -5.4850   24.4280 C   0  0  0  0  0  0  0  0  0  0  0  0
    4.8740   -5.3480   25.2930 C   0  0  0  0  0  0  0  0  0  0  0  0
    6.6770   -6.4860   24.0890 C   0  0  0  0  0  0  0  0  0  0  0  0
    5.3490   -6.4030   24.5280 C   0  0  0  0  0  0  0  0  0  0  0  0
    7.2470   -7.9310   23.0540 Br  0  0  0  0  0  0  0  0  0  0  0  0
  1  2  2  3
  1  3  1  0
  3  4  1  0
  3  5  1  0
  6  4  1  6
  5  7  1  0
  6  7  1  0
  5  8  1  1
  6  9  1  0
  8  9  1  0
  9 10  1  1
 10 11  2  0
 10 12  1  0
 12 13  1  0
 13 14  2  0
 13 15  1  0
 14 16  1  0
 15 17  2  0
 16 17  1  0
 15 18  1  0
 17 19  1  0
 18 20  2  0
 19 21  2  0
 20 21  1  0
 20 22  1  0
M  END
