MAK-UNK-a7992eb3-26
     RDKit          3D

 34 36  0  0  0  0  0  0  0  0999 V2000
    7.4480   -1.3550   29.3900 C   0  0  0  0  0  0  0  0  0  0  0  0
    6.3830   -0.4330   28.8520 C   0  0  0  0  0  0  0  0  0  0  0  0
    6.5110    0.0480   27.7300 O   0  0  0  0  0  0  0  0  0  0  0  0
    5.2500   -0.1770   29.7680 N   0  0  0  0  0  0  0  0  0  0  0  0
    4.0800   -1.0170   29.4870 C   0  0  2  0  0  0  0  0  0  0  0  0
    3.6520   -0.8980   28.0410 C   0  0  0  0  0  0  0  0  0  0  0  0
    2.9640   -0.5470   30.4440 C   0  0  0  0  0  0  0  0  0  0  0  0
    3.9970   -1.9560   27.1720 C   0  0  0  0  0  0  0  0  0  0  0  0
    1.9740   -1.2420   30.6760 O   0  0  0  0  0  0  0  0  0  0  0  0
    3.1540    0.6900   31.0110 N   0  0  0  0  0  0  0  0  0  0  0  0
    5.1750   -2.6850   27.3610 C   0  0  0  0  0  0  0  0  0  0  0  0
    3.1580   -2.3100   26.0840 C   0  0  0  0  0  0  0  0  0  0  0  0
    2.0970    1.4180   31.6700 C   0  0  0  0  0  0  0  0  0  0  0  0
    5.5090   -3.7180   26.5070 C   0  0  0  0  0  0  0  0  0  0  0  0
    3.4560   -3.3540   25.1900 C   0  0  0  0  0  0  0  0  0  0  0  0
    2.6240    2.8160   31.8970 C   0  0  0  0  0  0  0  0  0  0  0  0
    4.6200   -4.0830   25.3610 C   0  0  0  0  0  0  0  0  0  0  0  0
    1.7590    3.8650   32.2320 C   0  0  0  0  0  0  0  0  0  0  0  0
    5.0000   -5.0070   24.6590 O   0  0  0  0  0  0  0  0  0  0  0  0
    0.5900    5.2990   32.6880 Br  0  0  0  0  0  0  0  0  0  0  0  0
    5.2220   -4.6090   23.3020 C   0  0  1  0  0  0  0  0  0  0  0  0
    4.9550   -3.1550   23.0430 C   0  0  0  0  0  0  0  0  0  0  0  0
    6.7450   -4.7810   23.1070 C   0  0  1  0  0  0  0  0  0  0  0  0
    5.7980   -2.2180   23.9090 C   0  0  0  0  0  0  0  0  0  0  0  0
    7.5380   -3.5100   23.3090 N   0  0  0  0  0  0  0  0  0  0  0  0
    7.4980   -5.6900   23.8450 C   0  0  0  0  0  0  0  0  0  0  0  0
    7.0330   -2.7260   24.2890 C   0  0  0  0  0  0  0  0  0  0  0  0
    7.9610   -3.1600   22.0970 C   0  0  0  0  0  0  0  0  0  0  0  0
    7.2080   -4.1070   21.6100 C   0  0  0  0  0  0  0  0  0  0  0  0
    6.3040   -3.9060   20.6340 C   0  0  0  0  0  0  0  0  0  0  0  0
    7.3710   -5.3630   22.1820 C   0  0  0  0  0  0  0  0  0  0  0  0
    5.5500   -4.9020   20.1800 C   0  0  0  0  0  0  0  0  0  0  0  0
    6.4980   -6.4580   21.6650 C   0  0  0  0  0  0  0  0  0  0  0  0
    5.6050   -6.1740   20.6530 C   0  0  0  0  0  0  0  0  0  0  0  0
  1  2  1  0
  2  3  2  0
  2  4  1  0
  4  5  1  0
  5  6  1  6
  5  7  1  0
  6  8  1  0
  7  9  2  0
  7 10  1  0
  8 11  2  0
  8 12  1  0
 10 13  1  0
 11 14  1  0
 12 15  2  0
 13 16  1  0
 14 17  2  0
 15 17  1  0
 16 18  3  0
 17 19  1  0
 18 20  1  0
 21 19  1  1
 21 22  1  0
 21 23  1  0
 22 24  1  0
 23 25  1  0
 23 26  1  1
 24 27  1  0
 25 27  1  0
 25 28  1  0
 28 29  1  0
 29 30  2  0
 29 31  1  0
 30 32  1  0
 31 33  2  0
 32 34  2  0
 33 34  1  0
M  END
