MAK-UNK-30aad1f1-8-acrylamide
     RDKit          3D

 27 29  0  0  0  0  0  0  0  0999 V2000
    6.7900   -4.9930   20.1880 C   0  0  0  0  0  0  0  0  0  0  0  0
    6.6550   -3.6850   20.4860 C   0  0  0  0  0  0  0  0  0  0  0  0
    6.2320   -3.5000   21.9420 C   0  0  0  0  0  0  0  0  0  0  0  0
    5.1360   -3.8260   21.4480 O   0  0  0  0  0  0  0  0  0  0  0  0
    7.6920   -3.1760   22.0560 C   0  0  0  0  0  0  0  0  0  0  0  0
    8.7360   -3.5670   23.2870 C   0  0  0  0  0  0  0  0  0  0  0  0
    8.4200   -2.5180   21.1840 C   0  0  0  0  0  0  0  0  0  0  0  0
   10.3750   -3.2900   23.5420 C   0  0  0  0  0  0  0  0  0  0  0  0
    9.3380   -2.7060   21.9540 N   0  0  0  0  0  0  0  0  0  0  0  0
   10.4670   -2.6240   22.3080 C   0  0  0  0  0  0  0  0  0  0  0  0
   11.5350   -2.0130   21.6010 N   0  0  0  0  0  0  0  0  0  0  0  0
   12.4120   -1.1110   22.3350 C   0  0  0  0  0  0  0  0  0  0  0  0
   12.7780   -0.0040   23.1960 C   0  0  0  0  0  0  0  0  0  0  0  0
   11.0180   -0.9270   22.3790 C   0  0  0  0  0  0  0  0  0  0  0  0
   11.9680    0.9420   23.8670 C   0  0  0  0  0  0  0  0  0  0  0  0
   10.1680   -0.0520   22.9890 C   0  0  0  0  0  0  0  0  0  0  0  0
   10.6330    0.9220   23.7710 C   0  0  0  0  0  0  0  0  0  0  0  0
    8.7450   -0.2780   22.6870 N   0  0  0  0  0  0  0  0  0  0  0  0
    8.2060    0.3290   21.5860 C   0  0  0  0  0  0  0  0  0  0  0  0
    8.6720    1.3710   21.0880 O   0  0  0  0  0  0  0  0  0  0  0  0
    7.0260   -0.3910   21.0890 N   0  0  0  0  0  0  0  0  0  0  0  0
    6.4160    0.1800   20.0210 C   0  0  0  0  0  0  0  0  0  0  0  0
    5.2930    0.8520   20.2820 C   0  0  0  0  0  0  0  0  0  0  0  0
    6.8810    0.1210   18.7180 C   0  0  0  0  0  0  0  0  0  0  0  0
    4.5540    1.5350   19.2100 C   0  0  0  0  0  0  0  0  0  0  0  0
    6.3180    0.7030   17.6010 N   0  0  0  0  0  0  0  0  0  0  0  0
    5.1710    1.4060   17.8390 C   0  0  0  0  0  0  0  0  0  0  0  0
  1  2  1  0
  2  3  1  0
  3  4  2  0
  3  5  1  0
  5  6  2  0
  5  7  1  0
  6  8  1  0
  7  9  2  0
  8 10  2  0
  9 10  1  0
 10 11  1  0
 11 12  1  0
 12 13  2  0
 12 14  1  0
 13 15  1  0
 14 16  2  0
 15 17  2  0
 16 17  1  0
 16 18  1  0
 18 19  1  0
 19 20  2  0
 19 21  1  0
 21 22  1  0
 22 23  2  0
 22 24  1  0
 23 25  1  0
 24 26  2  0
 25 27  2  0
 26 27  1  0
M  END
