MAK-UNK-8fdbca50-7-nitrile
     RDKit          3D

 38 41  0  0  0  0  0  0  0  0999 V2000
    6.6130   -4.0790   20.0210 C   0  0  0  0  0  0  0  0  0  0  0  0
    5.8500   -5.1050   20.0550 N   0  0  0  0  0  0  0  0  0  0  0  0
    6.6300   -3.1180   21.0060 N   0  0  0  0  0  0  0  0  0  0  0  0
    7.1090   -3.3750   22.3700 C   0  0  0  0  0  0  0  0  0  0  0  0
    6.5200   -1.7010   20.6810 C   0  0  0  0  0  0  0  0  0  0  0  0
    8.2390   -2.3890   22.7410 C   0  0  0  0  0  0  0  0  0  0  0  0
    7.7980   -1.1320   20.6120 C   0  0  0  0  0  0  0  0  0  0  0  0
    8.8880   -1.7980   21.5090 C   0  0  0  0  0  0  0  0  0  0  0  0
    9.8880   -0.8110   21.6480 C   0  0  0  0  0  0  0  0  0  0  0  0
    9.5620    0.3690   21.7230 O   0  0  0  0  0  0  0  0  0  0  0  0
   11.3470   -1.2790   21.6850 N   0  0  0  0  0  0  0  0  0  0  0  0
   11.7630   -2.5930   21.2370 C   0  0  0  0  0  0  0  0  0  0  0  0
   12.1930   -0.5060   22.5440 C   0  0  2  0  0  0  0  0  0  0  0  0
   13.1880   -1.4740   23.0870 C   0  0  0  0  0  0  0  0  0  0  0  0
   11.0950   -0.1330   23.5150 C   0  0  0  0  0  0  0  0  0  0  0  0
   10.8770    1.2810   23.7780 C   0  0  0  0  0  0  0  0  0  0  0  0
   10.2570   -1.0210   24.1620 C   0  0  0  0  0  0  0  0  0  0  0  0
    9.9200    1.7520   24.5990 N   0  0  0  0  0  0  0  0  0  0  0  0
    9.2770   -0.4970   25.0150 C   0  0  0  0  0  0  0  0  0  0  0  0
    9.1280    0.8790   25.2160 C   0  0  0  0  0  0  0  0  0  0  0  0
    8.1960   -1.6260   25.8850 S   0  0  0  0  0  0  0  0  0  0  0  0
    8.5830   -2.9480   25.4680 O   0  0  0  0  0  0  0  0  0  0  0  0
    8.2870   -1.3000   27.2880 O   0  0  0  0  0  0  0  0  0  0  0  0
    6.5760   -1.3980   25.5120 N   0  0  0  0  0  0  0  0  0  0  0  0
    5.7040   -2.4400   25.5230 C   0  0  0  0  0  0  0  0  0  0  0  0
    5.7880   -0.3000   25.1520 C   0  0  0  0  0  0  0  0  0  0  0  0
    4.3950   -2.2140   25.2130 C   0  0  0  0  0  0  0  0  0  0  0  0
    4.4680   -0.8150   24.9760 C   0  0  0  0  0  0  0  0  0  0  0  0
    6.0560    1.0610   24.9620 C   0  0  0  0  0  0  0  0  0  0  0  0
    3.3550   -3.1340   25.1650 C   0  0  0  0  0  0  0  0  0  0  0  0
    6.3550    1.8800   26.0550 C   0  0  0  0  0  0  0  0  0  0  0  0
    6.0190    1.6380   23.6710 C   0  0  0  0  0  0  0  0  0  0  0  0
    2.6010   -2.9570   26.4030 N   0  0  0  0  0  0  0  0  0  0  0  0
    6.6060    3.2330   25.8300 C   0  0  0  0  0  0  0  0  0  0  0  0
    6.2770    2.9960   23.4590 C   0  0  0  0  0  0  0  0  0  0  0  0
    5.7280    0.8840   22.6000 F   0  0  0  0  0  0  0  0  0  0  0  0
    1.5310   -2.1830   26.1990 C   0  0  0  0  0  0  0  0  0  0  0  0
    6.5720    3.7890   24.5600 C   0  0  0  0  0  0  0  0  0  0  0  0
  1  2  2  3
  1  3  1  0
  3  4  1  0
  3  5  1  0
  4  6  1  0
  5  7  1  0
  6  8  1  0
  7  8  1  0
  8  9  1  0
  9 10  2  0
  9 11  1  0
 11 12  1  0
 11 13  1  0
 13 14  1  1
 13 15  1  0
 15 16  2  0
 15 17  1  0
 16 18  1  0
 17 19  2  0
 18 20  2  0
 19 20  1  0
 21 19  1  0
 21 22  2  0
 21 23  2  0
 21 24  1  0
 24 25  1  0
 24 26  1  0
 25 27  2  0
 26 28  2  0
 27 28  1  0
 26 29  1  0
 27 30  1  0
 29 31  2  0
 29 32  1  0
 30 33  1  0
 31 34  1  0
 32 35  2  0
 32 36  1  0
 33 37  1  0
 34 38  2  0
 35 38  1  0
M  END
