MAK-UNK-acefcb18-2
     RDKit          3D

 17 18  0  0  0  0  0  0  0  0999 V2000
    5.2890    0.9540   17.8260 C   0  0  0  0  0  0  0  0  0  0  0  0
    6.0830    0.8420   19.1060 C   0  0  0  0  0  0  0  0  0  0  0  0
    6.8820   -0.4780   19.2640 C   0  0  0  0  0  0  0  0  0  0  0  0
    6.0850    1.8520   20.0560 C   0  0  0  0  0  0  0  0  0  0  0  0
    7.6960   -0.5870   20.5910 C   0  0  0  0  0  0  0  0  0  0  0  0
    6.8140    1.7430   21.2300 C   0  0  0  0  0  0  0  0  0  0  0  0
    7.5880    0.6190   21.5340 C   0  0  0  0  0  0  0  0  0  0  0  0
    8.2230    0.7260   22.7440 O   0  0  0  0  0  0  0  0  0  0  0  0
    7.6670    0.0360   23.8650 C   0  0  0  0  0  0  0  0  0  0  0  0
    8.8150   -0.4210   24.8020 C   0  0  0  0  0  0  0  0  0  0  0  0
    9.5170   -1.5070   23.9680 C   0  0  1  0  0  0  0  0  0  0  0  0
    8.7130   -1.6350   22.7570 O   0  0  0  0  0  0  0  0  0  0  0  0
   10.9190   -1.1650   23.4420 C   0  0  0  0  0  0  0  0  0  0  0  0
   11.7010   -0.0630   23.7950 C   0  0  0  0  0  0  0  0  0  0  0  0
   11.5360   -1.9910   22.5090 C   0  0  0  0  0  0  0  0  0  0  0  0
   12.9360   -0.0030   23.1470 C   0  0  0  0  0  0  0  0  0  0  0  0
   13.1550   -1.3950   22.0400 S   0  0  0  0  0  0  0  0  0  0  0  0
  1  2  1  0
  2  3  2  0
  2  4  1  0
  3  5  1  0
  4  6  2  0
  5  7  2  0
  6  7  1  0
  7  8  1  0
  8  9  1  0
  9 10  1  0
 10 11  1  0
 11 12  1  6
 11 13  1  0
 13 14  1  0
 13 15  2  0
 14 16  2  0
 15 17  1  0
 16 17  1  0
M  END
