MAK-UNK-51bb34f9-1-bromoalkyne
     RDKit          3D

 29 31  0  0  0  0  0  0  0  0999 V2000
    6.3480   -4.6600   20.2000 C   0  0  0  0  0  0  0  0  0  0  0  0
    5.7400   -6.0170   19.9450 C   0  0  0  0  0  0  0  0  0  0  0  0
    6.2030   -4.2370   21.6030 C   0  0  0  0  0  0  0  0  0  0  0  0
    6.6120   -5.2190   22.7030 C   0  0  0  0  0  0  0  0  0  0  0  0
    5.7150   -3.0000   22.0360 C   0  0  0  0  0  0  0  0  0  0  0  0
    6.4760   -4.8180   24.1300 C   0  0  0  0  0  0  0  0  0  0  0  0
    5.5850   -2.6110   23.3550 N   0  0  0  0  0  0  0  0  0  0  0  0
    5.9360   -3.4350   24.3770 C   0  0  0  0  0  0  0  0  0  0  0  0
    5.7910   -2.9760   25.7650 N   0  0  0  0  0  0  0  0  0  0  0  0
    5.9910   -1.5280   25.8830 C   0  0  0  0  0  0  0  0  0  0  0  0
    7.1290   -1.1450   26.6080 N   0  0  0  0  0  0  0  0  0  0  0  0
    7.9780    0.0130   26.2300 C   0  0  0  0  0  0  0  0  0  0  0  0
    8.5650   -0.2840   24.9800 C   0  0  0  0  0  0  0  0  0  0  0  0
    9.4750    0.4780   24.6010 O   0  0  0  0  0  0  0  0  0  0  0  0
   10.6070   -0.1310   24.0720 C   0  0  2  0  0  0  0  0  0  0  0  0
   11.8750    0.4360   24.1760 C   0  0  0  0  0  0  0  0  0  0  0  0
   10.5290   -0.3870   22.6830 C   0  0  1  0  0  0  0  0  0  0  0  0
   12.5810   -0.0480   23.1020 N   0  0  0  0  0  0  0  0  0  0  0  0
   11.7900   -1.0260   22.4930 C   0  0  0  0  0  0  0  0  0  0  0  0
    9.2370   -1.0030   22.3580 N   0  0  0  0  0  0  0  0  0  0  0  0
    8.4320   -0.2290   21.5970 C   0  0  0  0  0  0  0  0  0  0  0  0
    8.8130    0.8790   21.2160 O   0  0  0  0  0  0  0  0  0  0  0  0
    7.1620   -0.6400   21.2320 N   0  0  0  0  0  0  0  0  0  0  0  0
    6.4550    0.0090   20.1460 C   0  0  0  0  0  0  0  0  0  0  0  0
    5.1210    0.7030   20.5550 C   0  0  0  0  0  0  0  0  0  0  0  0
    6.9460    0.0540   18.6240 C   0  0  0  0  0  0  0  0  0  0  0  0
    4.3720    1.3970   19.4250 C   0  0  0  0  0  0  0  0  0  0  0  0
    6.4040    0.5800   17.7230 N   0  0  0  0  0  0  0  0  0  0  0  0
    5.2400    1.1460   18.2650 C   0  0  0  0  0  0  0  0  0  0  0  0
  1  2  2  3
  1  3  1  0
  3  4  2  0
  3  5  1  0
  4  6  1  0
  5  7  2  0
  6  8  2  0
  7  8  1  0
  8  9  1  0
  9 10  1  0
 10 11  1  0
 11 12  1  0
 12 13  1  0
 13 14  1  0
 15 14  1  6
 15 16  1  0
 15 17  1  0
 16 18  1  0
 17 19  1  0
 18 19  1  0
 17 20  1  1
 20 21  1  0
 21 22  2  0
 21 23  1  0
 23 24  1  0
 24 25  2  0
 24 26  1  0
 25 27  1  0
 26 28  2  0
 27 29  2  0
 28 29  1  0
M  END
