MAK-UNK-6ca90168-12-nitrile
     RDKit          3D

 21 23  0  0  0  0  0  0  0  0999 V2000
    6.7160   -3.3990   19.6230 C   0  0  0  0  0  0  0  0  0  0  0  0
    5.8830   -3.1040   18.7190 N   0  0  0  0  0  0  0  0  0  0  0  0
    6.7460   -2.6760   20.7880 N   0  0  0  0  0  0  0  0  0  0  0  0
    6.1620   -3.1120   22.0600 C   0  0  0  0  0  0  0  0  0  0  0  0
    7.4210   -1.3890   20.8660 C   0  0  0  0  0  0  0  0  0  0  0  0
    7.4430   -3.5210   22.8560 C   0  0  0  0  0  0  0  0  0  0  0  0
    8.5840   -1.5390   21.8460 C   0  0  0  0  0  0  0  0  0  0  0  0
    8.2760   -2.3050   23.0900 N   0  0  0  0  0  0  0  0  0  0  0  0
    9.4210   -2.5470   23.7370 C   0  0  0  0  0  0  0  0  0  0  0  0
   10.4660   -1.3850   23.7070 C   0  0  0  0  0  0  0  0  0  0  0  0
    9.0700   -3.1350   25.1200 C   0  0  0  0  0  0  0  0  0  0  0  0
   11.6990   -1.9950   23.0190 C   0  0  0  0  0  0  0  0  0  0  0  0
   10.2680   -0.0940   24.1840 C   0  0  0  0  0  0  0  0  0  0  0  0
    9.9850   -4.0520   25.8300 C   0  0  0  0  0  0  0  0  0  0  0  0
    7.8430   -2.8360   25.7520 C   0  0  0  0  0  0  0  0  0  0  0  0
   12.8700   -0.9810   22.8460 C   0  0  0  0  0  0  0  0  0  0  0  0
   11.4100    0.8920   24.0070 C   0  0  0  0  0  0  0  0  0  0  0  0
    9.6920   -4.6630   27.1400 C   0  0  0  0  0  0  0  0  0  0  0  0
    7.4210   -3.4110   27.1230 C   0  0  0  0  0  0  0  0  0  0  0  0
   12.5570    0.4270   23.3950 C   0  0  0  0  0  0  0  0  0  0  0  0
    8.3810   -4.3620   27.8480 C   0  0  0  0  0  0  0  0  0  0  0  0
  1  2  2  3
  1  3  1  0
  3  4  1  0
  3  5  1  0
  4  6  1  0
  5  7  1  0
  6  8  1  0
  7  8  1  0
  8  9  1  0
  9 10  1  0
  9 11  1  0
 10 12  2  0
 10 13  1  0
 11 14  2  0
 11 15  1  0
 12 16  1  0
 13 17  2  0
 14 18  1  0
 15 19  2  0
 16 20  2  0
 17 20  1  0
 18 21  2  0
 19 21  1  0
M  END
