MAK-UNK-bdda130a-2
     RDKit          3D

 25 28  0  0  0  0  0  0  0  0999 V2000
    4.4740   -6.7600   27.7390 C   0  0  0  0  0  0  0  0  0  0  0  0
    4.3260   -5.3750   26.6440 S   0  0  0  0  0  0  0  0  0  0  0  0
    2.9350   -4.8250   27.4850 C   0  0  0  0  0  0  0  0  0  0  0  0
    3.4160   -3.9720   26.2480 C   0  0  0  0  0  0  0  0  0  0  0  0
    5.3970   -5.1380   25.4150 N   0  0  0  0  0  0  0  0  0  0  0  0
    2.1370   -3.9860   25.7370 C   0  0  0  0  0  0  0  0  0  0  0  0
    3.8780   -2.6720   26.4010 C   0  0  0  0  0  0  0  0  0  0  0  0
    6.6850   -4.4570   25.6870 C   0  0  0  0  0  0  0  0  0  0  0  0
    4.8900   -4.7120   24.1430 C   0  0  0  0  0  0  0  0  0  0  0  0
    1.6070   -2.7500   25.5030 C   0  0  0  0  0  0  0  0  0  0  0  0
    2.7030   -1.5060   25.9110 S   0  0  0  0  0  0  0  0  0  0  0  0
    7.6440   -4.5380   24.6780 C   0  0  0  0  0  0  0  0  0  0  0  0
    5.8240   -5.1540   23.2610 C   0  0  2  0  0  0  0  0  0  0  0  0
    7.0640   -4.6140   23.3650 N   0  0  0  0  0  0  0  0  0  0  0  0
    5.6340   -4.8120   21.8940 C   0  0  0  0  0  0  0  0  0  0  0  0
    7.4860   -3.4770   22.5030 C   0  0  0  0  0  0  0  0  0  0  0  0
    5.4200   -3.5220   21.4040 C   0  0  0  0  0  0  0  0  0  0  0  0
    5.6950   -5.8480   21.0440 C   0  0  0  0  0  0  0  0  0  0  0  0
    8.3530   -3.5200   21.6690 O   0  0  0  0  0  0  0  0  0  0  0  0
    6.6780   -2.2130   22.7590 C   0  0  0  0  0  0  0  0  0  0  0  0
    5.3470   -2.3100   22.2060 N   0  0  0  0  0  0  0  0  0  0  0  0
    5.2560   -3.2440   19.9390 C   0  0  0  0  0  0  0  0  0  0  0  0
    5.5680   -5.6870   19.7960 C   0  0  0  0  0  0  0  0  0  0  0  0
    7.1380   -1.2380   23.3560 O   0  0  0  0  0  0  0  0  0  0  0  0
    5.3550   -4.4720   19.1950 N   0  0  0  0  0  0  0  0  0  0  0  0
  1  2  2  0
  2  3  2  0
  2  4  1  0
  2  5  1  0
  4  6  1  0
  4  7  2  0
  5  8  1  0
  5  9  1  0
  6 10  2  0
  7 11  1  0
 10 11  1  0
  8 12  1  0
 13  9  1  1
 12 14  1  0
 13 14  1  0
 13 15  1  0
 14 16  1  0
 15 17  2  0
 15 18  1  0
 16 19  2  0
 16 20  1  0
 17 21  1  0
 20 21  1  0
 17 22  1  0
 18 23  2  0
 20 24  2  0
 22 25  2  0
 23 25  1  0
M  END
