MAK-UNK-10799360-29-acrylamide
     RDKit          3D

 27 30  0  0  0  0  0  0  0  0999 V2000
    7.5220   -2.8930   18.4360 C   0  0  0  0  0  0  0  0  0  0  0  0
    6.6260   -2.4390   19.5880 C   0  0  0  0  0  0  0  0  0  0  0  0
    5.9340   -3.5940   20.2630 C   0  0  0  0  0  0  0  0  0  0  0  0
    5.1000   -4.3230   19.7270 O   0  0  0  0  0  0  0  0  0  0  0  0
    6.3370   -3.7760   21.5350 N   0  0  0  0  0  0  0  0  0  0  0  0
    5.4290   -4.1540   22.6250 C   0  0  0  0  0  0  0  0  0  0  0  0
    7.4500   -3.0930   22.1770 C   0  0  2  0  0  0  0  0  0  0  0  0
    6.3120   -3.8890   23.8550 C   0  0  1  0  0  0  0  0  0  0  0  0
    7.7310   -4.0900   23.2940 C   0  0  0  0  0  0  0  0  0  0  0  0
    6.8980   -1.8500   22.8830 C   0  0  0  0  0  0  0  0  0  0  0  0
    6.2860   -2.4330   24.0970 N   0  0  0  0  0  0  0  0  0  0  0  0
    6.8210   -1.9510   25.3610 C   0  0  0  0  0  0  0  0  0  0  0  0
    8.1570   -1.6870   25.1050 C   0  0  0  0  0  0  0  0  0  0  0  0
    8.6550   -0.5570   24.5060 C   0  0  0  0  0  0  0  0  0  0  0  0
    9.1980   -2.5340   25.3980 N   0  0  0  0  0  0  0  0  0  0  0  0
   10.0370   -0.7650   24.4230 N   0  0  0  0  0  0  0  0  0  0  0  0
   10.3270   -1.9660   24.9880 N   0  0  0  0  0  0  0  0  0  0  0  0
   10.9820   -0.0250   23.8700 C   0  0  0  0  0  0  0  0  0  0  0  0
   11.2830    1.3040   24.0230 C   0  0  0  0  0  0  0  0  0  0  0  0
   11.6840   -0.8080   23.0400 C   0  0  0  0  0  0  0  0  0  0  0  0
   12.4400    1.8680   23.2440 C   0  0  0  0  0  0  0  0  0  0  0  0
   12.7050   -0.3620   22.3300 C   0  0  0  0  0  0  0  0  0  0  0  0
   13.1880    0.9400   22.3490 C   0  0  0  0  0  0  0  0  0  0  0  0
   13.1060   -1.7630   21.5120 S   0  0  0  0  0  0  0  0  0  0  0  0
   13.6680   -2.5900   22.8710 N   0  0  0  0  0  0  0  0  0  0  0  0
   14.0730   -1.4480   20.5140 O   0  0  0  0  0  0  0  0  0  0  0  0
   11.8750   -2.3910   21.1230 O   0  0  0  0  0  0  0  0  0  0  0  0
  1  2  1  0
  2  3  1  0
  3  4  2  0
  3  5  1  0
  5  6  1  0
  5  7  1  0
  8  6  1  6
  7  9  1  0
  8  9  1  0
  7 10  1  1
  8 11  1  0
 10 11  1  0
 11 12  1  0
 12 13  1  0
 13 14  2  0
 13 15  1  0
 14 16  1  0
 15 17  2  0
 16 17  1  0
 16 18  1  0
 18 19  2  0
 18 20  1  0
 19 21  1  0
 20 22  2  0
 21 23  2  0
 22 23  1  0
 22 24  1  0
 24 25  1  0
 24 26  2  0
 24 27  2  0
M  END
