MAK-UNK-e4a48a85-2-nitrile
     RDKit          3D

 21 22  0  0  0  0  0  0  0  0999 V2000
    6.8440   -4.4890   20.7630 C   0  0  0  0  0  0  0  0  0  0  0  0
    6.1410   -3.6800   19.9610 N   0  0  0  0  0  0  0  0  0  0  0  0
    7.6010   -4.1690   22.0850 N   0  0  0  0  0  0  0  0  0  0  0  0
    7.2870   -4.5320   23.5420 C   0  0  0  0  0  0  0  0  0  0  0  0
    8.6280   -3.1110   22.1510 C   0  0  0  0  0  0  0  0  0  0  0  0
    8.2760   -4.1410   24.5500 C   0  0  0  0  0  0  0  0  0  0  0  0
    8.2680   -2.1660   23.2750 C   0  0  0  0  0  0  0  0  0  0  0  0
    8.7890   -2.7430   24.4390 N   0  0  0  0  0  0  0  0  0  0  0  0
   10.1050   -2.3020   24.6340 C   0  0  0  0  0  0  0  0  0  0  0  0
   10.6410   -1.2980   23.5980 C   0  0  0  0  0  0  0  0  0  0  0  0
   11.6460   -0.2440   24.0030 C   0  0  1  0  0  0  0  0  0  0  0  0
   12.9040   -0.4410   23.5080 N   0  0  0  0  0  0  0  0  0  0  0  0
   11.3620    1.1050   23.7140 C   0  0  0  0  0  0  0  0  0  0  0  0
   13.1940   -1.6420   22.9110 C   0  0  0  0  0  0  0  0  0  0  0  0
   12.2350    1.9020   23.3980 O   0  0  0  0  0  0  0  0  0  0  0  0
   10.0610    1.4660   23.8030 N   0  0  0  0  0  0  0  0  0  0  0  0
   13.3720   -2.6130   23.6570 C   0  0  0  0  0  0  0  0  0  0  0  0
   13.2830   -1.8260   21.5250 C   0  0  0  0  0  0  0  0  0  0  0  0
    9.7100    2.2840   22.6380 C   0  0  0  0  0  0  0  0  0  0  0  0
   13.0990   -1.3510   24.2510 C   0  0  0  0  0  0  0  0  0  0  0  0
   12.9930   -0.5240   22.5680 S   0  0  0  0  0  0  0  0  0  0  0  0
  1  2  2  3
  1  3  1  0
  3  4  1  0
  3  5  1  0
  4  6  1  0
  5  7  1  0
  6  8  1  0
  7  8  1  0
  8  9  1  0
  9 10  1  0
 11 10  1  6
 11 12  1  0
 11 13  1  0
 12 14  1  0
 13 15  2  0
 13 16  1  0
 14 17  1  0
 14 18  2  0
 16 19  1  0
 17 20  2  0
 18 21  1  0
 20 21  1  0
M  END
