MAK-UNK-0955449e-13
     RDKit          3D

 22 24  0  0  0  0  0  0  0  0999 V2000
    5.7700   -2.8950   19.6120 C   0  0  0  0  0  0  0  0  0  0  0  0
    6.1080   -4.0660   20.4090 N   0  0  0  0  0  0  0  0  0  0  0  0
    6.1540   -3.8070   21.8340 C   0  0  0  0  0  0  0  0  0  0  0  0
    7.5180   -3.4040   22.3750 C   0  0  0  0  0  0  0  0  0  0  0  0
    8.3480   -2.2790   22.0770 C   0  0  0  0  0  0  0  0  0  0  0  0
    8.2110   -4.1360   23.3460 C   0  0  0  0  0  0  0  0  0  0  0  0
    9.5820   -2.3600   22.9470 C   0  0  0  0  0  0  0  0  0  0  0  0
    9.3970   -3.5500   23.7070 N   0  0  0  0  0  0  0  0  0  0  0  0
   10.6990   -1.2420   22.8810 C   0  0  0  0  0  0  0  0  0  0  0  0
   10.2720   -4.1350   24.7470 C   0  0  0  0  0  0  0  0  0  0  0  0
   10.3870    0.1080   23.1840 C   0  0  0  0  0  0  0  0  0  0  0  0
   12.0360   -1.4880   22.5460 C   0  0  0  0  0  0  0  0  0  0  0  0
   11.2020   -3.0260   24.8580 C   0  0  0  0  0  0  0  0  0  0  0  0
   11.4420    1.1590   23.1480 C   0  0  0  0  0  0  0  0  0  0  0  0
   13.0060   -0.5160   22.5140 C   0  0  0  0  0  0  0  0  0  0  0  0
   12.4700   -2.6790   22.2410 F   0  0  0  0  0  0  0  0  0  0  0  0
   10.4870   -1.8880   24.9040 C   0  0  0  0  0  0  0  0  0  0  0  0
   12.5880   -2.9940   24.8920 C   0  0  0  0  0  0  0  0  0  0  0  0
   12.7210    0.8010   22.8150 C   0  0  0  0  0  0  0  0  0  0  0  0
   11.1650   -0.5930   24.9590 C   0  0  0  0  0  0  0  0  0  0  0  0
   13.2320   -1.7980   24.9380 C   0  0  0  0  0  0  0  0  0  0  0  0
   12.5270   -0.6000   24.9650 C   0  0  0  0  0  0  0  0  0  0  0  0
  1  2  1  0
  2  3  1  0
  3  4  1  0
  4  5  1  0
  4  6  2  0
  5  7  2  0
  6  8  1  0
  7  8  1  0
  7  9  1  0
  8 10  1  0
  9 11  2  0
  9 12  1  0
 10 13  1  0
 11 14  1  0
 12 15  2  0
 12 16  1  0
 13 17  2  0
 13 18  1  0
 14 19  2  0
 15 19  1  0
 17 20  1  0
 18 21  2  0
 20 22  2  0
 21 22  1  0
M  END
