MAK-UNK-702fb7d3-6-nitrile
     RDKit          3D

 41 46  0  0  0  0  0  0  0  0999 V2000
    7.5200   -3.3740   19.8490 C   0  0  0  0  0  0  0  0  0  0  0  0
    6.2890   -3.5550   19.4400 N   0  0  0  0  0  0  0  0  0  0  0  0
    7.8970   -2.6750   21.0760 N   0  0  0  0  0  0  0  0  0  0  0  0
    6.8470   -2.0160   21.8690 C   0  0  0  0  0  0  0  0  0  0  0  0
    9.3010   -2.1970   21.5160 C   0  0  0  0  0  0  0  0  0  0  0  0
    7.2980   -1.3370   23.1820 C   0  0  0  0  0  0  0  0  0  0  0  0
    9.5360   -2.2880   23.0690 C   0  0  2  0  0  0  0  0  0  0  0  0
    6.2500   -0.4630   23.8970 C   0  0  0  0  0  0  0  0  0  0  0  0
    8.5690   -1.5030   23.6950 C   0  0  0  0  0  0  0  0  0  0  0  0
   10.9660   -2.1930   23.4450 N   0  0  0  0  0  0  0  0  0  0  0  0
    9.1170   -3.7210   23.2520 C   0  0  0  0  0  0  0  0  0  0  0  0
    6.3260    0.3550   25.2010 C   0  0  0  0  0  0  0  0  0  0  0  0
    8.8260   -0.8520   24.8580 C   0  0  0  0  0  0  0  0  0  0  0  0
   11.7170   -1.8400   24.6380 C   0  0  0  0  0  0  0  0  0  0  0  0
    9.7010   -4.6050   24.2930 C   0  0  0  0  0  0  0  0  0  0  0  0
    8.1530   -4.2010   22.3730 C   0  0  0  0  0  0  0  0  0  0  0  0
    7.7620    0.0050   25.5300 C   0  0  0  0  0  0  0  0  0  0  0  0
   12.8750   -2.6740   24.8370 C   0  0  0  0  0  0  0  0  0  0  0  0
    9.1670   -5.9990   24.2590 C   0  0  0  0  0  0  0  0  0  0  0  0
    7.7060   -5.4820   22.3930 C   0  0  0  0  0  0  0  0  0  0  0  0
   13.1420   -3.6040   25.8650 C   0  0  0  0  0  0  0  0  0  0  0  0
   14.0260   -2.7980   24.0210 C   0  0  0  0  0  0  0  0  0  0  0  0
    8.1970   -6.3700   23.3000 C   0  0  0  0  0  0  0  0  0  0  0  0
   14.4490   -4.2630   25.5000 C   0  0  0  0  0  0  0  0  0  0  0  0
   14.9510   -3.7890   24.4860 N   0  0  0  0  0  0  0  0  0  0  0  0
   15.4160   -5.4800   25.9220 C   0  0  0  0  0  0  0  0  0  0  0  0
   16.4640   -4.5460   23.9450 S   0  0  0  0  0  0  0  0  0  0  0  0
   16.2670   -6.1700   24.8280 C   0  0  0  0  0  0  0  0  0  0  0  0
   15.5870   -6.0130   27.1410 C   0  0  0  0  0  0  0  0  0  0  0  0
   17.7470   -3.9200   24.2280 O   0  0  0  0  0  0  0  0  0  0  0  0
   16.2270   -5.3420   22.7630 O   0  0  0  0  0  0  0  0  0  0  0  0
   16.6610   -5.5120   25.2360 C   0  0  0  0  0  0  0  0  0  0  0  0
   17.1730   -7.3550   25.0970 C   0  0  0  0  0  0  0  0  0  0  0  0
   16.4030   -7.0100   27.3780 C   0  0  0  0  0  0  0  0  0  0  0  0
   14.9510   -5.5320   28.2070 F   0  0  0  0  0  0  0  0  0  0  0  0
   18.0890   -5.4660   25.4620 C   0  0  0  0  0  0  0  0  0  0  0  0
   15.6320   -6.1530   25.8840 C   0  0  0  0  0  0  0  0  0  0  0  0
   17.1590   -7.7040   26.4950 C   0  0  0  0  0  0  0  0  0  0  0  0
   17.9300   -6.4060   26.6800 C   0  0  0  0  0  0  0  0  0  0  0  0
   15.7310   -6.9580   26.8890 N   0  0  0  0  0  0  0  0  0  0  0  0
   16.9240   -7.0300   27.2390 C   0  0  0  0  0  0  0  0  0  0  0  0
  1  2  2  3
  1  3  1  0
  3  4  1  0
  3  5  1  0
  4  6  1  0
  5  7  1  0
  6  8  1  0
  6  9  2  0
  7  9  1  0
  7 10  1  6
  7 11  1  0
  8 12  2  0
  9 13  1  0
 10 14  1  0
 11 15  2  0
 11 16  1  0
 12 17  1  0
 13 17  2  0
 14 18  1  0
 15 19  1  0
 16 20  2  0
 18 21  1  0
 18 22  2  0
 19 23  2  0
 20 23  1  0
 21 24  2  0
 22 25  1  0
 24 25  1  0
 24 26  1  0
 25 27  1  0
 26 28  2  0
 26 29  1  0
 27 30  2  0
 27 31  2  0
 27 32  1  0
 28 33  1  0
 29 34  2  0
 29 35  1  0
 32 36  2  0
 32 37  1  0
 33 38  2  0
 34 38  1  0
 36 39  1  0
 37 40  2  0
 39 41  2  0
 40 41  1  0
M  END
