MAK-UNK-b1d4dcd7-1
     RDKit          3D

 32 36  0  0  0  0  0  0  0  0999 V2000
    5.7410   -4.0890   19.8240 O   0  0  0  0  0  0  0  0  0  0  0  0
    6.0270   -3.0320   20.4340 C   0  0  0  0  0  0  0  0  0  0  0  0
    5.2190   -1.8130   20.2900 C   0  0  1  0  0  0  0  0  0  0  0  0
    7.0690   -2.9750   21.3170 N   0  0  0  0  0  0  0  0  0  0  0  0
    4.9410   -1.0620   21.5120 N   0  0  0  0  0  0  0  0  0  0  0  0
    5.6340   -0.8030   19.3640 C   0  0  0  0  0  0  0  0  0  0  0  0
    7.7890   -1.8500   21.2670 C   0  0  0  0  0  0  0  0  0  0  0  0
    7.0110   -3.4940   22.5430 C   0  0  0  0  0  0  0  0  0  0  0  0
    5.4010    0.3100   21.6210 C   0  0  0  0  0  0  0  0  0  0  0  0
    7.0260   -1.0080   18.8860 C   0  0  0  0  0  0  0  0  0  0  0  0
    4.7660    0.2630   18.9770 C   0  0  0  0  0  0  0  0  0  0  0  0
    9.0760   -1.7830   22.0450 C   0  0  0  0  0  0  0  0  0  0  0  0
    8.2990   -3.6630   23.0050 C   0  0  0  0  0  0  0  0  0  0  0  0
    4.6500    1.3850   21.2520 N   0  0  0  0  0  0  0  0  0  0  0  0
    6.6080    0.6850   22.0850 N   0  0  0  0  0  0  0  0  0  0  0  0
    7.3890    0.0260   17.9370 C   0  0  0  0  0  0  0  0  0  0  0  0
    5.1490    1.2130   18.0710 C   0  0  0  0  0  0  0  0  0  0  0  0
    3.6440    0.3610   19.4440 O   0  0  0  0  0  0  0  0  0  0  0  0
    9.0120   -2.5230   23.1670 N   0  0  0  0  0  0  0  0  0  0  0  0
    5.3930    2.5290   21.4770 C   0  0  0  0  0  0  0  0  0  0  0  0
    6.7350    2.1350   22.0380 C   0  0  0  0  0  0  0  0  0  0  0  0
    6.3820    1.0950   17.5750 C   0  0  0  0  0  0  0  0  0  0  0  0
   10.3840   -2.7930   23.5970 C   0  0  0  0  0  0  0  0  0  0  0  0
    5.2020    3.9060   21.3110 C   0  0  0  0  0  0  0  0  0  0  0  0
    7.8770    3.0630   22.4310 C   0  0  0  0  0  0  0  0  0  0  0  0
   11.1440   -1.6460   23.5550 C   0  0  0  0  0  0  0  0  0  0  0  0
    6.1950    4.8460   21.6440 C   0  0  0  0  0  0  0  0  0  0  0  0
    7.5950    4.5420   22.2200 C   0  0  0  0  0  0  0  0  0  0  0  0
   12.2350   -1.4560   22.7180 C   0  0  0  0  0  0  0  0  0  0  0  0
   10.8480   -0.2410   24.5470 S   0  0  0  0  0  0  0  0  0  0  0  0
   12.8770   -0.1370   22.8510 C   0  0  0  0  0  0  0  0  0  0  0  0
   12.1590    0.6520   23.8700 C   0  0  0  0  0  0  0  0  0  0  0  0
  1  2  2  0
  2  3  1  0
  2  4  1  0
  3  5  1  1
  3  6  1  0
  4  7  1  0
  4  8  1  0
  5  9  1  0
  6 10  2  0
  6 11  1  0
  7 12  1  0
  8 13  1  0
  9 14  2  0
  9 15  1  0
 10 16  1  0
 11 17  2  0
 11 18  1  0
 12 19  1  0
 13 19  1  0
 14 20  1  0
 15 21  1  0
 20 21  2  0
 16 22  2  0
 17 22  1  0
 19 23  1  0
 20 24  1  0
 21 25  1  0
 23 26  1  0
 24 27  2  0
 25 28  2  0
 27 28  1  0
 26 29  2  0
 26 30  1  0
 29 31  1  0
 30 32  1  0
 31 32  2  0
M  END
