MAK-UNK-702fb7d3-11-chloroacetamide
     RDKit          3D

 42 47  0  0  0  0  0  0  0  0999 V2000
    8.2870   -4.8380   20.8080 C   0  0  0  0  0  0  0  0  0  0  0  0
    7.3270   -3.7300   21.0190 C   0  0  0  0  0  0  0  0  0  0  0  0
    6.5080   -3.5990   19.9100 O   0  0  0  0  0  0  0  0  0  0  0  0
    7.4070   -3.0590   22.3930 N   0  0  0  0  0  0  0  0  0  0  0  0
    6.7070   -3.8290   23.4280 C   0  0  0  0  0  0  0  0  0  0  0  0
    8.5680   -2.3060   23.0760 C   0  0  0  0  0  0  0  0  0  0  0  0
    6.5340   -3.0920   24.7490 C   0  0  0  0  0  0  0  0  0  0  0  0
    8.7880   -2.7070   24.5930 C   0  0  1  0  0  0  0  0  0  0  0  0
    5.0530   -3.1420   25.1710 C   0  0  0  0  0  0  0  0  0  0  0  0
    7.6630   -2.5070   25.3530 C   0  0  0  0  0  0  0  0  0  0  0  0
    9.0640   -4.0840   24.3770 C   0  0  0  0  0  0  0  0  0  0  0  0
    5.2190   -2.3470   26.4490 C   0  0  0  0  0  0  0  0  0  0  0  0
    7.5460   -1.8410   26.5390 C   0  0  0  0  0  0  0  0  0  0  0  0
    9.2970   -4.9690   25.5260 C   0  0  0  0  0  0  0  0  0  0  0  0
    9.0770   -4.5150   23.0890 C   0  0  0  0  0  0  0  0  0  0  0  0
    6.3050   -1.7580   27.0820 C   0  0  0  0  0  0  0  0  0  0  0  0
    8.4550   -1.2110   27.3330 N   0  0  0  0  0  0  0  0  0  0  0  0
    9.5390   -6.2400   25.2080 C   0  0  0  0  0  0  0  0  0  0  0  0
    9.3110   -5.8010   22.8350 C   0  0  0  0  0  0  0  0  0  0  0  0
    8.2530   -1.2140   28.7810 C   0  0  0  0  0  0  0  0  0  0  0  0
    9.5400   -6.6380   23.8470 C   0  0  0  0  0  0  0  0  0  0  0  0
    7.0360   -1.8700   29.0790 C   0  0  0  0  0  0  0  0  0  0  0  0
    6.7130   -3.1350   28.6120 C   0  0  0  0  0  0  0  0  0  0  0  0
    5.9150   -1.4850   29.8400 C   0  0  0  0  0  0  0  0  0  0  0  0
    5.4780   -3.5320   29.0290 C   0  0  0  0  0  0  0  0  0  0  0  0
    4.9660   -2.5150   29.7990 N   0  0  0  0  0  0  0  0  0  0  0  0
    4.7260   -4.8620   28.7180 C   0  0  0  0  0  0  0  0  0  0  0  0
    3.4650   -2.4380   30.5840 S   0  0  0  0  0  0  0  0  0  0  0  0
    3.6600   -4.7860   27.5890 C   0  0  0  0  0  0  0  0  0  0  0  0
    4.9470   -6.0940   29.3680 C   0  0  0  0  0  0  0  0  0  0  0  0
    3.2280   -3.7240   31.2050 O   0  0  0  0  0  0  0  0  0  0  0  0
    3.3770   -1.2220   31.3640 O   0  0  0  0  0  0  0  0  0  0  0  0
    2.3590   -2.2440   29.2300 C   0  0  0  0  0  0  0  0  0  0  0  0
    2.9300   -6.0290   27.2580 C   0  0  0  0  0  0  0  0  0  0  0  0
    4.2290   -7.2400   29.0160 C   0  0  0  0  0  0  0  0  0  0  0  0
    5.8560   -6.1990   30.3470 F   0  0  0  0  0  0  0  0  0  0  0  0
    2.7580   -1.5480   28.0920 C   0  0  0  0  0  0  0  0  0  0  0  0
    1.0990   -2.7740   29.2750 C   0  0  0  0  0  0  0  0  0  0  0  0
    3.2310   -7.3100   28.0050 C   0  0  0  0  0  0  0  0  0  0  0  0
    2.0350   -1.2180   26.7680 C   0  0  0  0  0  0  0  0  0  0  0  0
    0.2490   -2.6300   28.2420 N   0  0  0  0  0  0  0  0  0  0  0  0
    0.6630   -1.9500   27.1480 C   0  0  0  0  0  0  0  0  0  0  0  0
  1  2  1  0
  2  3  2  0
  2  4  1  0
  4  5  1  0
  4  6  1  0
  5  7  1  0
  6  8  1  0
  7  9  1  0
  7 10  2  0
  8 10  1  0
  8 11  1  6
  9 12  2  0
 10 13  1  0
 11 14  2  0
 11 15  1  0
 12 16  1  0
 13 16  2  0
 13 17  1  0
 14 18  1  0
 15 19  2  0
 17 20  1  0
 18 21  2  0
 19 21  1  0
 20 22  1  0
 22 23  1  0
 22 24  2  0
 23 25  2  0
 24 26  1  0
 25 26  1  0
 25 27  1  0
 26 28  1  0
 27 29  2  0
 27 30  1  0
 28 31  2  0
 28 32  2  0
 28 33  1  0
 29 34  1  0
 30 35  2  0
 30 36  1  0
 33 37  2  0
 33 38  1  0
 34 39  2  0
 35 39  1  0
 37 40  1  0
 38 41  2  0
 40 42  2  0
 41 42  1  0
M  END
