MAK-UNK-72659d64-10-nitrile
     RDKit          3D

 16 16  0  0  0  0  0  0  0  0999 V2000
    6.6040   -4.7820   20.1470 C   0  0  0  0  0  0  0  0  0  0  0  0
    6.0250   -5.8870   19.8750 N   0  0  0  0  0  0  0  0  0  0  0  0
    5.9620   -3.8240   20.7930 N   0  0  0  0  0  0  0  0  0  0  0  0
    5.7250   -4.0580   22.1730 C   0  0  0  0  0  0  0  0  0  0  0  0
    4.8730   -5.2470   22.5270 C   0  0  0  0  0  0  0  0  0  0  0  0
    6.1970   -3.2980   23.1750 N   0  0  0  0  0  0  0  0  0  0  0  0
    4.5930   -5.5030   23.9710 C   0  0  0  0  0  0  0  0  0  0  0  0
    5.8700   -3.6350   24.4660 C   0  0  0  0  0  0  0  0  0  0  0  0
    3.8050   -6.5640   24.2550 N   0  0  0  0  0  0  0  0  0  0  0  0
    5.1110   -4.6760   24.9270 N   0  0  0  0  0  0  0  0  0  0  0  0
    6.4000   -2.7360   25.5250 C   0  0  0  0  0  0  0  0  0  0  0  0
    2.9010   -6.2590   25.2050 C   0  0  0  0  0  0  0  0  0  0  0  0
    6.7520   -2.0140   26.3590 N   0  0  0  0  0  0  0  0  0  0  0  0
    3.1060   -6.3740   26.3960 O   0  0  0  0  0  0  0  0  0  0  0  0
    1.5420   -5.7180   24.7950 C   0  0  0  0  0  0  0  0  0  0  0  0
    0.9360   -6.1890   23.2440 Cl  0  0  0  0  0  0  0  0  0  0  0  0
  1  2  2  3
  1  3  1  0
  3  4  1  0
  4  5  2  0
  4  6  1  0
  5  7  1  0
  6  8  2  0
  7  9  1  0
  7 10  2  0
  8 10  1  0
  8 11  1  0
  9 12  1  0
 11 13  3  0
 12 14  2  0
 12 15  1  0
 15 16  1  0
M  END
