MAK-UNK-849bee6c-14-chloroacetamide
     RDKit          3D

 26 28  0  0  0  0  0  0  0  0999 V2000
    7.1420   -2.9530   18.7420 C   0  0  0  0  0  0  0  0  0  0  0  0
    6.1810   -3.2690   19.8560 C   0  0  0  0  0  0  0  0  0  0  0  0
    5.3750   -4.1970   19.7620 O   0  0  0  0  0  0  0  0  0  0  0  0
    6.2520   -2.4640   21.0090 N   0  0  0  0  0  0  0  0  0  0  0  0
    7.1460   -1.3220   20.9760 C   0  0  0  0  0  0  0  0  0  0  0  0
    6.1150   -3.1000   22.3200 C   0  0  0  0  0  0  0  0  0  0  0  0
    8.4920   -1.5960   21.6660 C   0  0  0  0  0  0  0  0  0  0  0  0
    7.4780   -3.4260   22.9530 C   0  0  0  0  0  0  0  0  0  0  0  0
    8.3560   -2.2520   22.9690 N   0  0  0  0  0  0  0  0  0  0  0  0
    9.4960   -2.4900   23.8050 C   0  0  0  0  0  0  0  0  0  0  0  0
   10.5930   -1.4790   23.5810 C   0  0  0  0  0  0  0  0  0  0  0  0
   11.9070   -1.8350   22.9790 C   0  0  0  0  0  0  0  0  0  0  0  0
   10.3500   -0.1660   23.9540 C   0  0  0  0  0  0  0  0  0  0  0  0
   12.8240   -0.6980   22.8480 C   0  0  0  0  0  0  0  0  0  0  0  0
   11.1940    0.9670   23.8500 C   0  0  0  0  0  0  0  0  0  0  0  0
   12.4390    0.5910   23.2720 C   0  0  0  0  0  0  0  0  0  0  0  0
   10.3810    1.6570   24.3230 N   0  0  0  0  0  0  0  0  0  0  0  0
    9.4410    0.8240   25.1090 C   0  0  0  0  0  0  0  0  0  0  0  0
   10.1160    3.0180   24.0490 C   0  0  0  0  0  0  0  0  0  0  0  0
   11.0090    3.9120   23.4920 C   0  0  0  0  0  0  0  0  0  0  0  0
    8.8740    3.5720   24.3510 C   0  0  0  0  0  0  0  0  0  0  0  0
   10.7060    5.3220   23.2400 N   0  0  0  0  0  0  0  0  0  0  0  0
    8.5210    4.8610   24.1470 N   0  0  0  0  0  0  0  0  0  0  0  0
    9.4510    5.6720   23.6070 C   0  0  0  0  0  0  0  0  0  0  0  0
    9.0420    7.0340   23.4210 C   0  0  0  0  0  0  0  0  0  0  0  0
    8.6070    8.3340   23.3030 N   0  0  0  0  0  0  0  0  0  0  0  0
  1  2  1  0
  2  3  2  0
  2  4  1  0
  4  5  1  0
  4  6  1  0
  5  7  1  0
  6  8  1  0
  7  9  1  0
  8  9  1  0
  9 10  1  0
 10 11  1  0
 11 12  2  0
 11 13  1  0
 12 14  1  0
 13 15  2  0
 14 16  2  0
 15 16  1  0
 15 17  1  0
 17 18  1  0
 17 19  1  0
 19 20  2  0
 19 21  1  0
 20 22  1  0
 21 23  2  0
 22 24  2  0
 23 24  1  0
 24 25  1  0
 25 26  3  0
M  END
