MAK-UNK-c7aa8293-17
     RDKit          3D

 21 23  0  0  0  0  0  0  0  0999 V2000
    5.8640   -3.5910   20.4130 C   0  0  0  0  0  0  0  0  0  0  0  0
    6.3830   -4.8390   21.1120 C   0  0  2  0  0  0  0  0  0  0  0  0
    5.5590   -5.3280   22.2160 C   0  0  0  0  0  0  0  0  0  0  0  0
    7.6990   -4.7580   21.8970 C   0  0  0  0  0  0  0  0  0  0  0  0
    6.5320   -6.0210   23.1290 C   0  0  0  0  0  0  0  0  0  0  0  0
    7.5720   -4.3630   23.3870 C   0  0  1  0  0  0  0  0  0  0  0  0
    6.9860   -5.2600   24.3490 C   0  0  0  0  0  0  0  0  0  0  0  0
    8.8480   -3.9850   23.7480 C   0  0  1  0  0  0  0  0  0  0  0  0
    9.4380   -2.5890   23.4740 C   0  0  0  0  0  0  0  0  0  0  0  0
    9.0610   -4.1360   25.1320 O   0  0  0  0  0  0  0  0  0  0  0  0
   10.8010   -2.4920   24.0730 C   0  0  0  0  0  0  0  0  0  0  0  0
   10.3080   -4.5000   25.4280 C   0  0  1  0  0  0  0  0  0  0  0  0
   11.2020   -3.4590   25.0370 C   0  0  0  0  0  0  0  0  0  0  0  0
   11.6650   -1.4930   23.6980 C   0  0  0  0  0  0  0  0  0  0  0  0
   10.1050   -5.0470   26.8190 C   0  0  0  0  0  0  0  0  0  0  0  0
   12.5010   -3.3260   25.5520 C   0  0  0  0  0  0  0  0  0  0  0  0
   12.9150   -1.3690   24.2150 C   0  0  0  0  0  0  0  0  0  0  0  0
   11.3690   -0.4860   22.7380 O   0  0  0  0  0  0  0  0  0  0  0  0
    8.9240   -4.4810   27.4920 N   0  0  0  0  0  0  0  0  0  0  0  0
   13.3380   -2.2990   25.1490 C   0  0  0  0  0  0  0  0  0  0  0  0
   13.6130   -0.3240   23.7470 O   0  0  0  0  0  0  0  0  0  0  0  0
  2  1  1  1
  2  3  1  0
  2  4  1  0
  3  5  1  0
  6  4  1  6
  5  7  1  0
  6  7  1  0
  6  8  1  0
  8  9  1  1
  8 10  1  0
  9 11  1  0
 10 12  1  0
 11 13  2  0
 12 13  1  0
 11 14  1  0
 12 15  1  1
 13 16  1  0
 14 17  2  0
 14 18  1  0
 15 19  1  0
 16 20  2  0
 17 20  1  0
 17 21  1  0
M  END
