MAK-UNK-1cb0e944-5
     RDKit          3D

 21 22  0  0  0  0  0  0  0  0999 V2000
   13.8010   -2.7170   23.5990 N   0  0  0  0  0  0  0  0  0  0  0  0
   13.0820   -2.5090   25.0860 S   0  0  0  0  0  0  0  0  0  0  0  0
   14.1470   -2.4650   26.0540 O   0  0  0  0  0  0  0  0  0  0  0  0
   12.0300   -3.4880   25.1840 O   0  0  0  0  0  0  0  0  0  0  0  0
   12.3280   -0.9010   24.9470 C   0  0  0  0  0  0  0  0  0  0  0  0
   10.6240   -0.8410   25.0240 S   0  0  0  0  0  0  0  0  0  0  0  0
   10.1130    0.8380   24.4840 C   0  0  0  0  0  0  0  0  0  0  0  0
   11.0850    1.2460   23.4080 C   0  0  0  0  0  0  0  0  0  0  0  0
   11.4360   -0.0360   22.6790 C   0  0  0  0  0  0  0  0  0  0  0  0
   12.8880   -0.3670   22.3490 C   0  0  0  0  0  0  0  0  0  0  0  0
   10.5470   -1.0770   22.2230 C   0  0  0  0  0  0  0  0  0  0  0  0
   13.0360   -1.8500   21.5300 S   0  0  0  0  0  0  0  0  0  0  0  0
   11.3350   -2.0510   21.6160 C   0  0  0  0  0  0  0  0  0  0  0  0
    9.1440   -1.1830   22.3190 C   0  0  0  0  0  0  0  0  0  0  0  0
    8.5640   -2.0690   23.1980 N   0  0  0  0  0  0  0  0  0  0  0  0
    7.8350   -1.6170   24.2560 C   0  0  0  0  0  0  0  0  0  0  0  0
    9.4100   -3.1340   23.4950 C   0  0  0  0  0  0  0  0  0  0  0  0
    7.2930   -2.5760   25.1820 C   0  0  0  0  0  0  0  0  0  0  0  0
    8.8890   -4.0870   24.3660 C   0  0  0  0  0  0  0  0  0  0  0  0
    8.1570   -3.6390   25.4680 C   0  0  0  0  0  0  0  0  0  0  0  0
    7.5340   -4.4400   26.1540 O   0  0  0  0  0  0  0  0  0  0  0  0
  2  1  1  0
  2  3  2  0
  2  4  2  0
  2  5  1  0
  5  6  1  0
  6  7  1  0
  7  8  1  0
  8  9  1  0
  9 10  2  0
  9 11  1  0
 10 12  1  0
 11 13  2  0
 12 13  1  0
 11 14  1  0
 14 15  1  0
 15 16  1  0
 15 17  1  0
 16 18  1  0
 17 19  1  0
 18 20  1  0
 19 20  1  0
 20 21  1  0
M  END
