MAK-UNK-6ca90168-21-acrylamide
     RDKit          3D

 17 18  0  0  0  0  0  0  0  0999 V2000
    7.9010   -3.2540   19.0990 C   0  0  0  0  0  0  0  0  0  0  0  0
    6.7160   -2.3770   18.8490 C   0  0  0  0  0  0  0  0  0  0  0  0
    5.8160   -2.6300   19.9930 C   0  0  0  0  0  0  0  0  0  0  0  0
    4.8130   -3.2830   19.8270 O   0  0  0  0  0  0  0  0  0  0  0  0
    6.2200   -2.1480   21.2100 N   0  0  0  0  0  0  0  0  0  0  0  0
    7.1440   -1.0190   21.3050 C   0  0  0  0  0  0  0  0  0  0  0  0
    5.9950   -2.8590   22.4740 C   0  0  0  0  0  0  0  0  0  0  0  0
    8.4860   -1.6950   21.7070 C   0  0  0  0  0  0  0  0  0  0  0  0
    7.1700   -3.3000   23.0980 C   0  0  0  0  0  0  0  0  0  0  0  0
    8.2880   -2.3560   23.0280 N   0  0  0  0  0  0  0  0  0  0  0  0
    9.4850   -2.6250   23.6780 C   0  0  0  0  0  0  0  0  0  0  0  0
    9.6430   -3.6840   24.2660 O   0  0  0  0  0  0  0  0  0  0  0  0
   10.5820   -1.5580   23.5790 C   0  0  0  0  0  0  0  0  0  0  0  0
   10.2210   -0.2060   24.1610 C   0  0  0  0  0  0  0  0  0  0  0  0
   12.1710   -1.6000   22.9140 S   0  0  0  0  0  0  0  0  0  0  0  0
   11.3510    0.7710   24.0030 C   0  0  0  0  0  0  0  0  0  0  0  0
   12.5280    0.0710   23.2960 C   0  0  0  0  0  0  0  0  0  0  0  0
  1  2  1  0
  2  3  1  0
  3  4  2  0
  3  5  1  0
  5  6  1  0
  5  7  1  0
  6  8  1  0
  7  9  1  0
  8 10  1  0
  9 10  1  0
 10 11  1  0
 11 12  2  0
 11 13  1  0
 13 14  2  0
 13 15  1  0
 14 16  1  0
 15 17  1  0
 16 17  2  0
M  END
