MAK-UNK-e05327b2-2-chloroacetamide
     RDKit          3D

 51 57  0  0  0  0  0  0  0  0999 V2000
    7.5960   -3.7030   20.4010 C   0  0  0  0  0  0  0  0  0  0  0  0
    6.4080   -4.5990   20.7240 C   0  0  0  0  0  0  0  0  0  0  0  0
    5.4310   -4.7020   19.9670 O   0  0  0  0  0  0  0  0  0  0  0  0
    6.4840   -5.2960   21.8950 N   0  0  0  0  0  0  0  0  0  0  0  0
    5.5640   -6.3730   22.2120 C   0  0  0  0  0  0  0  0  0  0  0  0
    7.4210   -4.9750   22.9670 C   0  0  0  0  0  0  0  0  0  0  0  0
    4.6520   -5.6990   23.2760 C   0  0  0  0  0  0  0  0  0  0  0  0
    6.7410   -4.5060   24.1120 C   0  0  0  0  0  0  0  0  0  0  0  0
    5.5650   -5.3630   24.4050 N   0  0  0  0  0  0  0  0  0  0  0  0
    4.9230   -5.3660   25.9630 S   0  0  0  0  0  0  0  0  0  0  0  0
    6.0280   -5.2570   26.8870 O   0  0  0  0  0  0  0  0  0  0  0  0
    3.9600   -6.4440   26.0380 O   0  0  0  0  0  0  0  0  0  0  0  0
    4.0290   -3.8360   26.0390 C   0  0  0  0  0  0  0  0  0  0  0  0
    4.6900   -2.4670   26.2330 C   0  0  0  0  0  0  0  0  0  0  0  0
    2.3160   -3.7810   25.8970 S   0  0  0  0  0  0  0  0  0  0  0  0
    3.5900   -1.4090   26.2500 C   0  0  0  0  0  0  0  0  0  0  0  0
    2.2190   -2.0630   26.0710 C   0  0  0  0  0  0  0  0  0  0  0  0
    0.9020   -1.2710   26.0490 C   0  0  0  0  0  0  0  0  0  0  0  0
    0.4480   -0.7990   27.1960 N   0  0  0  0  0  0  0  0  0  0  0  0
    1.3970    0.0520   27.7380 C   0  0  0  0  0  0  0  0  0  0  0  0
   -0.8870   -0.1670   27.1270 C   0  0  0  0  0  0  0  0  0  0  0  0
    0.8600    0.9150   28.7050 C   0  0  0  0  0  0  0  0  0  0  0  0
   -0.8810    1.3420   27.0250 C   0  0  0  0  0  0  0  0  0  0  0  0
    0.1400    1.9480   27.9440 N   0  0  0  0  0  0  0  0  0  0  0  0
   -0.3860    3.3230   28.8240 S   0  0  0  0  0  0  0  0  0  0  0  0
   -1.3790    3.9660   27.9880 O   0  0  0  0  0  0  0  0  0  0  0  0
   -0.6730    2.9020   30.1760 O   0  0  0  0  0  0  0  0  0  0  0  0
    1.0340    4.4010   28.9400 C   0  0  0  0  0  0  0  0  0  0  0  0
    2.0670    4.1800   28.0320 C   0  0  0  0  0  0  0  0  0  0  0  0
    1.0960    5.4500   29.9360 C   0  0  0  0  0  0  0  0  0  0  0  0
    3.2780    5.0620   28.0950 C   0  0  0  0  0  0  0  0  0  0  0  0
    2.2440    6.2900   30.0010 C   0  0  0  0  0  0  0  0  0  0  0  0
    0.0890    5.7160   30.8710 C   0  0  0  0  0  0  0  0  0  0  0  0
    3.3130    6.1280   29.1260 C   0  0  0  0  0  0  0  0  0  0  0  0
    2.3250    7.3980   31.0440 C   0  0  0  0  0  0  0  0  0  0  0  0
    0.1310    6.7410   31.8560 C   0  0  0  0  0  0  0  0  0  0  0  0
    1.2760    7.6050   31.9470 C   0  0  0  0  0  0  0  0  0  0  0  0
   -0.9760    6.8490   32.6950 C   0  0  0  0  0  0  0  0  0  0  0  0
    1.3720    8.6310   32.8920 C   0  0  0  0  0  0  0  0  0  0  0  0
   -1.9680    7.7000   32.2030 C   0  0  0  0  0  0  0  0  0  0  0  0
    0.9840    9.8470   32.3270 C   0  0  0  0  0  0  0  0  0  0  0  0
   -2.4980    7.5800   30.9170 C   0  0  0  0  0  0  0  0  0  0  0  0
   -2.5640    8.7560   32.8730 C   0  0  0  0  0  0  0  0  0  0  0  0
    1.0910    9.7950   30.9280 C   0  0  0  0  0  0  0  0  0  0  0  0
   -3.4730    8.5140   30.6000 C   0  0  0  0  0  0  0  0  0  0  0  0
   -3.7430    9.5650   31.9230 S   0  0  0  0  0  0  0  0  0  0  0  0
    0.1670    9.2060   30.0780 C   0  0  0  0  0  0  0  0  0  0  0  0
    2.4010   10.4590   29.9870 S   0  0  0  0  0  0  0  0  0  0  0  0
    0.5020    9.2870   28.7480 C   0  0  0  0  0  0  0  0  0  0  0  0
    1.7060    9.9490   28.5180 C   0  0  0  0  0  0  0  0  0  0  0  0
    2.4750   10.2630   27.0150 Cl  0  0  0  0  0  0  0  0  0  0  0  0
  1  2  1  0
  2  3  2  0
  2  4  1  0
  4  5  1  0
  4  6  1  0
  5  7  1  0
  6  8  1  0
  7  9  1  0
  8  9  1  0
  9 10  1  0
 10 11  2  0
 10 12  2  0
 10 13  1  0
 13 14  2  0
 13 15  1  0
 14 16  1  0
 15 17  1  0
 16 17  2  0
 17 18  1  0
 18 19  1  0
 19 20  1  0
 19 21  1  0
 20 22  1  0
 21 23  1  0
 22 24  1  0
 23 24  1  0
 24 25  1  0
 25 26  2  0
 25 27  2  0
 25 28  1  0
 28 29  2  0
 28 30  1  0
 29 31  1  0
 30 32  2  0
 30 33  1  0
 31 34  2  0
 32 34  1  0
 32 35  1  0
 33 36  2  0
 35 37  2  0
 36 37  1  0
 36 38  1  0
 37 39  1  0
 38 40  1  0
 39 41  1  0
 40 42  1  0
 40 43  2  0
 41 44  1  0
 42 45  2  0
 43 46  1  0
 45 46  1  0
 44 47  2  0
 44 48  1  0
 47 49  1  0
 48 50  1  0
 49 50  2  0
 50 51  1  0
M  END
