MAK-UNK-07311286-1
     RDKit          3D

 23 24  0  0  0  0  0  0  0  0999 V2000
    4.6690   -6.1010   22.7570 N   0  0  0  0  0  0  0  0  0  0  0  0
    6.0400   -5.4580   23.4740 S   0  0  0  0  0  0  0  0  0  0  0  0
    7.1270   -6.3110   23.0650 O   0  0  0  0  0  0  0  0  0  0  0  0
    5.9710   -4.0490   23.1920 O   0  0  0  0  0  0  0  0  0  0  0  0
    5.6930   -5.7120   25.2120 C   0  0  0  0  0  0  0  0  0  0  0  0
    4.3520   -6.3520   25.5750 C   0  0  0  0  0  0  0  0  0  0  0  0
    6.5860   -5.3710   26.2920 C   0  0  0  0  0  0  0  0  0  0  0  0
    4.0530   -6.5830   27.0330 C   0  0  0  0  0  0  0  0  0  0  0  0
    6.2330   -5.6210   27.6350 C   0  0  0  0  0  0  0  0  0  0  0  0
    8.1540   -4.6480   26.1050 S   0  0  0  0  0  0  0  0  0  0  0  0
    5.0470   -6.1970   28.0890 C   0  0  0  0  0  0  0  0  0  0  0  0
    9.1490   -5.6510   25.8250 O   0  0  0  0  0  0  0  0  0  0  0  0
    8.3380   -3.7520   27.2180 O   0  0  0  0  0  0  0  0  0  0  0  0
    8.1140   -3.6400   24.7580 N   0  0  0  0  0  0  0  0  0  0  0  0
    4.7160   -6.4720   29.9300 Br  0  0  0  0  0  0  0  0  0  0  0  0
    9.3820   -2.9680   24.4390 C   0  0  0  0  0  0  0  0  0  0  0  0
    9.1870   -2.0180   23.2610 C   0  0  0  0  0  0  0  0  0  0  0  0
   10.5240   -1.2960   23.2080 C   0  0  0  0  0  0  0  0  0  0  0  0
   10.8270   -0.1400   23.9080 C   0  0  0  0  0  0  0  0  0  0  0  0
   11.5400   -1.8340   22.3920 C   0  0  0  0  0  0  0  0  0  0  0  0
   12.0970    0.5290   23.8380 C   0  0  0  0  0  0  0  0  0  0  0  0
   12.7710   -1.1760   22.3360 C   0  0  0  0  0  0  0  0  0  0  0  0
   13.0700   -0.0290   23.0220 C   0  0  0  0  0  0  0  0  0  0  0  0
  2  1  1  0
  2  3  2  0
  2  4  2  0
  2  5  1  0
  5  6  2  0
  5  7  1  0
  6  8  1  0
  7  9  2  0
  7 10  1  0
  8 11  2  0
  9 11  1  0
 10 12  2  0
 10 13  2  0
 10 14  1  0
 11 15  1  0
 14 16  1  0
 16 17  1  0
 17 18  1  0
 18 19  2  0
 18 20  1  0
 19 21  1  0
 20 22  2  0
 21 23  2  0
 22 23  1  0
M  END
