MAK-UNK-30aad1f1-8-chloroacetamide
     RDKit          3D

 26 28  0  0  0  0  0  0  0  0999 V2000
    7.4870   -3.9230   19.4450 C   0  0  0  0  0  0  0  0  0  0  0  0
    6.6500   -3.7240   20.3010 C   0  0  0  0  0  0  0  0  0  0  0  0
    5.4850   -3.9090   19.8560 O   0  0  0  0  0  0  0  0  0  0  0  0
    7.4120   -3.4800   21.5820 C   0  0  0  0  0  0  0  0  0  0  0  0
    7.0540   -3.4250   23.0780 C   0  0  0  0  0  0  0  0  0  0  0  0
    8.7590   -3.3020   21.2850 C   0  0  0  0  0  0  0  0  0  0  0  0
    8.3060   -3.2020   23.9900 C   0  0  0  0  0  0  0  0  0  0  0  0
    9.8240   -3.1090   22.0750 N   0  0  0  0  0  0  0  0  0  0  0  0
    9.7110   -3.0640   23.3740 C   0  0  0  0  0  0  0  0  0  0  0  0
   10.9820   -2.8660   23.9860 N   0  0  0  0  0  0  0  0  0  0  0  0
   11.2130   -1.4540   23.7780 C   0  0  0  0  0  0  0  0  0  0  0  0
   12.4060   -0.7430   23.8520 C   0  0  0  0  0  0  0  0  0  0  0  0
   10.0630   -0.8110   23.4800 C   0  0  0  0  0  0  0  0  0  0  0  0
   12.3440    0.6670   23.6080 C   0  0  0  0  0  0  0  0  0  0  0  0
    9.9490    0.4830   23.2520 C   0  0  0  0  0  0  0  0  0  0  0  0
   11.0820    1.2850   23.3050 C   0  0  0  0  0  0  0  0  0  0  0  0
    8.6940    0.8170   22.9980 N   0  0  0  0  0  0  0  0  0  0  0  0
    8.3420    0.8390   21.5920 C   0  0  0  0  0  0  0  0  0  0  0  0
    8.8210    1.6710   20.8490 O   0  0  0  0  0  0  0  0  0  0  0  0
    7.4420   -0.1160   21.2440 N   0  0  0  0  0  0  0  0  0  0  0  0
    6.6300    0.3500   20.1150 C   0  0  0  0  0  0  0  0  0  0  0  0
    5.3910    1.1440   20.4000 C   0  0  0  0  0  0  0  0  0  0  0  0
    6.9620    0.1020   18.8040 C   0  0  0  0  0  0  0  0  0  0  0  0
    4.7090    1.5640   19.3430 C   0  0  0  0  0  0  0  0  0  0  0  0
    6.2610    0.5350   17.7070 N   0  0  0  0  0  0  0  0  0  0  0  0
    5.1260    1.2790   17.9430 C   0  0  0  0  0  0  0  0  0  0  0  0
  1  2  1  0
  2  3  2  0
  2  4  1  0
  4  5  2  0
  4  6  1  0
  5  7  1  0
  6  8  2  0
  7  9  2  0
  8  9  1  0
  9 10  1  0
 10 11  1  0
 11 12  2  0
 11 13  1  0
 12 14  1  0
 13 15  2  0
 14 16  2  0
 15 16  1  0
 15 17  1  0
 17 18  1  0
 18 19  2  0
 18 20  1  0
 20 21  1  0
 21 22  2  0
 21 23  1  0
 22 24  1  0
 23 25  2  0
 24 26  2  0
 25 26  1  0
M  END
