MAK-UNK-af83ef51-25-nitrile
     RDKit          3D

 29 31  0  0  0  0  0  0  0  0999 V2000
    6.3690   -4.1700   19.9410 C   0  0  0  0  0  0  0  0  0  0  0  0
    6.2600   -3.3240   18.9740 N   0  0  0  0  0  0  0  0  0  0  0  0
    5.6480   -3.9930   21.1130 N   0  0  0  0  0  0  0  0  0  0  0  0
    5.5380   -2.6540   21.6550 C   0  0  0  0  0  0  0  0  0  0  0  0
    5.2970   -5.0370   22.0990 C   0  0  0  0  0  0  0  0  0  0  0  0
    5.0500   -2.7840   23.0860 C   0  0  0  0  0  0  0  0  0  0  0  0
    6.0650   -4.9100   23.2630 C   0  0  0  0  0  0  0  0  0  0  0  0
    6.0530   -3.6550   23.7750 N   0  0  0  0  0  0  0  0  0  0  0  0
    7.3560   -3.2780   24.1470 C   0  0  0  0  0  0  0  0  0  0  0  0
    7.9800   -2.2270   23.2360 C   0  0  1  0  0  0  0  0  0  0  0  0
    8.0750   -1.0520   23.6020 O   0  0  0  0  0  0  0  0  0  0  0  0
    9.4120   -2.8400   23.1010 C   0  0  1  0  0  0  0  0  0  0  0  0
    9.3590   -0.4690   23.4940 C   0  0  1  0  0  0  0  0  0  0  0  0
   10.3150   -1.6600   23.3690 C   0  0  2  0  0  0  0  0  0  0  0  0
    9.6300   -3.7370   23.9020 O   0  0  0  0  0  0  0  0  0  0  0  0
    9.3800    0.5900   22.3820 C   0  0  0  0  0  0  0  0  0  0  0  0
   11.0880   -1.5460   22.4150 O   0  0  0  0  0  0  0  0  0  0  0  0
   12.3830   -2.0360   22.7130 C   0  0  0  0  0  0  0  0  0  0  0  0
   12.8290   -1.7000   23.9790 C   0  0  0  0  0  0  0  0  0  0  0  0
   12.5950   -0.3930   24.3780 C   0  0  0  0  0  0  0  0  0  0  0  0
   11.5870    0.1450   24.1490 N   0  0  0  0  0  0  0  0  0  0  0  0
   11.6840    1.3750   23.6810 C   0  0  0  0  0  0  0  0  0  0  0  0
   12.8220    1.9710   22.9470 C   0  0  0  0  0  0  0  0  0  0  0  0
   10.6210    2.1970   23.9040 N   0  0  0  0  0  0  0  0  0  0  0  0
   12.8340    3.3740   22.4860 C   0  0  0  0  0  0  0  0  0  0  0  0
   10.6960    3.4970   23.4460 C   0  0  0  0  0  0  0  0  0  0  0  0
   11.7730    4.0970   22.7500 C   0  0  0  0  0  0  0  0  0  0  0  0
   11.8220    5.5390   22.2700 C   0  0  0  0  0  0  0  0  0  0  0  0
   12.9970    6.2060   22.1510 N   0  0  0  0  0  0  0  0  0  0  0  0
  1  2  2  3
  1  3  1  0
  3  4  1  0
  3  5  1  0
  4  6  1  0
  5  7  1  0
  6  8  1  0
  7  8  1  0
  8  9  1  0
 10  9  1  1
 10 11  1  0
 10 12  1  0
 11 13  1  0
 12 14  1  0
 13 14  1  0
 12 15  1  1
 13 16  1  6
 14 17  1  6
 17 18  1  0
 18 19  1  0
 19 20  1  0
 20 21  1  0
 21 22  1  0
 22 23  2  0
 22 24  1  0
 23 25  1  0
 24 26  2  0
 25 27  2  0
 26 27  1  0
 27 28  1  0
 28 29  3  0
M  END
