MAK-UNK-10dfa458-12-nitrile
     RDKit          3D

 20 21  0  0  0  0  0  0  0  0999 V2000
    6.8850   -4.2390   20.0760 C   0  0  0  0  0  0  0  0  0  0  0  0
    6.4010   -3.4490   19.1980 N   0  0  0  0  0  0  0  0  0  0  0  0
    7.4110   -5.0960   21.0290 N   0  0  0  0  0  0  0  0  0  0  0  0
    6.8960   -6.4590   21.1120 C   0  0  0  0  0  0  0  0  0  0  0  0
    7.9880   -4.6200   22.2340 C   0  0  1  0  0  0  0  0  0  0  0  0
    5.9380   -6.6230   22.2690 C   0  0  0  0  0  0  0  0  0  0  0  0
    6.9640   -4.4580   23.1950 C   0  0  0  0  0  0  0  0  0  0  0  0
    9.0530   -5.3460   22.8410 C   0  0  0  0  0  0  0  0  0  0  0  0
    5.6630   -5.2450   22.8820 C   0  0  2  0  0  0  0  0  0  0  0  0
    9.6200   -5.0490   23.8890 O   0  0  0  0  0  0  0  0  0  0  0  0
    9.3510   -6.4710   22.0280 O   0  0  0  0  0  0  0  0  0  0  0  0
    4.8530   -5.4330   24.1780 C   0  0  0  0  0  0  0  0  0  0  0  0
    9.5730   -7.6630   22.7410 C   0  0  0  0  0  0  0  0  0  0  0  0
    3.4150   -5.1710   23.9870 C   0  0  0  0  0  0  0  0  0  0  0  0
    2.6920   -6.0690   22.9640 C   0  0  0  0  0  0  0  0  0  0  0  0
    2.6580   -4.1920   24.6530 C   0  0  0  0  0  0  0  0  0  0  0  0
    1.3360   -5.8610   22.7580 C   0  0  0  0  0  0  0  0  0  0  0  0
    1.2760   -4.0390   24.3930 C   0  0  0  0  0  0  0  0  0  0  0  0
    0.6290   -4.8710   23.4540 C   0  0  0  0  0  0  0  0  0  0  0  0
    0.5520   -3.0540   25.0700 C   0  0  0  0  0  0  0  0  0  0  0  0
  1  2  2  3
  1  3  1  0
  3  4  1  0
  3  5  1  0
  4  6  1  0
  5  7  1  0
  5  8  1  1
  6  9  1  0
  7  9  1  0
  8 10  2  0
  8 11  1  0
  9 12  1  1
 11 13  1  0
 12 14  1  0
 14 15  2  0
 14 16  1  0
 15 17  1  0
 16 18  2  0
 17 19  2  0
 18 19  1  0
 18 20  1  0
M  END
