MAK-UNK-7c9d1431-28-bromoalkyne
     RDKit          3D

 14 15  0  0  0  0  0  0  0  0999 V2000
    6.6700   -4.1570   20.0390 C   0  0  0  0  0  0  0  0  0  0  0  0
    5.4910   -3.4770   19.4580 C   0  0  0  0  0  0  0  0  0  0  0  0
    6.7290   -4.6040   21.3580 N   0  0  0  0  0  0  0  0  0  0  0  0
    7.3930   -3.8920   22.4580 C   0  0  0  0  0  0  0  0  0  0  0  0
    6.1280   -5.8730   21.7830 C   0  0  0  0  0  0  0  0  0  0  0  0
    6.4100   -3.6460   23.6250 C   0  0  0  0  0  0  0  0  0  0  0  0
    5.2680   -5.7390   23.0560 C   0  0  0  0  0  0  0  0  0  0  0  0
    5.9120   -4.9270   24.1310 N   0  0  0  0  0  0  0  0  0  0  0  0
    5.1530   -4.8980   25.4150 C   0  0  0  0  0  0  0  0  0  0  0  0
    4.2180   -3.6640   25.5770 C   0  0  0  0  0  0  0  0  0  0  0  0
    2.6920   -3.7470   25.3740 C   0  0  0  0  0  0  0  0  0  0  0  0
    4.6860   -2.3370   25.9340 O   0  0  0  0  0  0  0  0  0  0  0  0
    2.2630   -2.3140   25.6450 C   0  0  0  0  0  0  0  0  0  0  0  0
    3.5490   -1.5610   25.9670 C   0  0  0  0  0  0  0  0  0  0  0  0
  1  2  2  3
  1  3  1  0
  3  4  1  0
  3  5  1  0
  4  6  1  0
  5  7  1  0
  6  8  1  0
  7  8  1  0
  8  9  1  0
  9 10  1  0
 10 11  2  0
 10 12  1  0
 11 13  1  0
 12 14  1  0
 13 14  2  0
M  END
