MAK-UNK-10dfa458-9-bromoalkyne
     RDKit          3D

 18 19  0  0  0  0  0  0  0  0999 V2000
    6.3160   -5.5240   20.4260 C   0  0  0  0  0  0  0  0  0  0  0  0
    5.5640   -6.4650   19.6260 C   0  0  0  0  0  0  0  0  0  0  0  0
    6.2300   -5.6140   21.8520 N   0  0  0  0  0  0  0  0  0  0  0  0
    7.3290   -5.5640   22.7910 C   0  0  0  0  0  0  0  0  0  0  0  0
    5.0210   -5.2670   22.5540 C   0  0  0  0  0  0  0  0  0  0  0  0
    7.5010   -4.1520   23.3250 C   0  0  0  0  0  0  0  0  0  0  0  0
    5.0940   -3.7950   22.8920 C   0  0  0  0  0  0  0  0  0  0  0  0
    6.4760   -3.3060   22.7220 N   0  0  0  0  0  0  0  0  0  0  0  0
    6.6820   -2.1860   21.9400 C   0  0  1  0  0  0  0  0  0  0  0  0
    8.0500   -2.0470   21.4030 C   0  0  0  0  0  0  0  0  0  0  0  0
    5.6160   -2.0800   20.8340 C   0  0  0  0  0  0  0  0  0  0  0  0
    5.9700   -1.3260   19.7050 C   0  0  0  0  0  0  0  0  0  0  0  0
    5.3820   -0.0680   19.5380 C   0  0  0  0  0  0  0  0  0  0  0  0
    4.7270    0.6000   20.5830 C   0  0  0  0  0  0  0  0  0  0  0  0
    5.4290    0.5710   18.2990 C   0  0  0  0  0  0  0  0  0  0  0  0
    4.1430    1.8650   20.3820 C   0  0  0  0  0  0  0  0  0  0  0  0
    4.8600    1.8130   18.0970 C   0  0  0  0  0  0  0  0  0  0  0  0
    4.2110    2.4750   19.1240 C   0  0  0  0  0  0  0  0  0  0  0  0
  1  2  2  3
  1  3  1  0
  3  4  1  0
  3  5  1  0
  4  6  1  0
  5  7  1  0
  6  8  1  0
  7  8  1  0
  8  9  1  0
  9 10  1  6
  9 11  1  0
 11 12  1  0
 12 13  1  0
 13 14  2  0
 13 15  1  0
 14 16  1  0
 15 17  2  0
 16 18  2  0
 17 18  1  0
M  END
