MAK-UNK-6ca90168-11-nitrile
     RDKit          3D

 21 23  0  0  0  0  0  0  0  0999 V2000
    7.0520   -3.3190   19.4240 C   0  0  0  0  0  0  0  0  0  0  0  0
    6.3210   -3.0390   18.4180 N   0  0  0  0  0  0  0  0  0  0  0  0
    6.7910   -2.8140   20.6560 N   0  0  0  0  0  0  0  0  0  0  0  0
    6.3460   -3.5940   21.8300 C   0  0  0  0  0  0  0  0  0  0  0  0
    7.0550   -1.4000   20.9050 C   0  0  0  0  0  0  0  0  0  0  0  0
    6.8680   -2.8110   23.0860 C   0  0  0  0  0  0  0  0  0  0  0  0
    8.3430   -1.3410   21.6900 C   0  0  0  0  0  0  0  0  0  0  0  0
    8.3440   -2.4750   22.7150 C   0  0  0  0  0  0  0  0  0  0  0  0
    8.8470   -1.8760   24.0270 C   0  0  0  0  0  0  0  0  0  0  0  0
    8.8490   -3.1090   24.9280 C   0  0  0  0  0  0  0  0  0  0  0  0
   10.1690   -1.1870   23.6700 C   0  0  0  0  0  0  0  0  0  0  0  0
    9.7330   -4.1750   24.2580 C   0  0  0  0  0  0  0  0  0  0  0  0
    8.1330   -3.1910   26.1360 C   0  0  0  0  0  0  0  0  0  0  0  0
   10.3360    0.1670   24.2250 C   0  0  0  0  0  0  0  0  0  0  0  0
   11.1780   -1.7610   22.8520 C   0  0  0  0  0  0  0  0  0  0  0  0
    9.7220   -5.4280   25.1560 C   0  0  0  0  0  0  0  0  0  0  0  0
    8.1420   -4.4530   27.0170 C   0  0  0  0  0  0  0  0  0  0  0  0
   11.5530    1.0160   23.9700 C   0  0  0  0  0  0  0  0  0  0  0  0
   12.4660   -1.0060   22.5300 C   0  0  0  0  0  0  0  0  0  0  0  0
    8.9760   -5.6090   26.4890 C   0  0  0  0  0  0  0  0  0  0  0  0
   12.6540    0.4040   23.0970 C   0  0  0  0  0  0  0  0  0  0  0  0
  1  2  2  3
  1  3  1  0
  3  4  1  0
  3  5  1  0
  4  6  1  0
  5  7  1  0
  6  8  1  0
  7  8  1  0
  8  9  1  0
  9 10  1  0
  9 11  1  0
 10 12  2  0
 10 13  1  0
 11 14  2  0
 11 15  1  0
 12 16  1  0
 13 17  2  0
 14 18  1  0
 15 19  2  0
 16 20  2  0
 17 20  1  0
 18 21  2  0
 19 21  1  0
M  END
