MAK-UNK-849bee6c-3-acrylamide
     RDKit          3D

 26 28  0  0  0  0  0  0  0  0999 V2000
    7.8990   -3.2610   19.0960 C   0  0  0  0  0  0  0  0  0  0  0  0
    6.6770   -2.4550   18.7530 C   0  0  0  0  0  0  0  0  0  0  0  0
    5.6900   -2.7560   19.8090 C   0  0  0  0  0  0  0  0  0  0  0  0
    4.8410   -3.6060   19.5780 O   0  0  0  0  0  0  0  0  0  0  0  0
    5.8850   -2.0940   21.0040 N   0  0  0  0  0  0  0  0  0  0  0  0
    6.9760   -1.1320   20.9930 C   0  0  0  0  0  0  0  0  0  0  0  0
    5.6830   -2.7490   22.3000 C   0  0  0  0  0  0  0  0  0  0  0  0
    7.7010   -1.0540   22.3150 C   0  0  0  0  0  0  0  0  0  0  0  0
    6.9790   -3.3190   22.9080 C   0  0  0  0  0  0  0  0  0  0  0  0
    8.0870   -2.3730   22.7860 N   0  0  0  0  0  0  0  0  0  0  0  0
    9.3160   -2.9320   22.5760 C   0  0  0  0  0  0  0  0  0  0  0  0
   10.3560   -1.9960   23.0550 C   0  0  0  0  0  0  0  0  0  0  0  0
   11.6870   -1.7100   22.4730 C   0  0  0  0  0  0  0  0  0  0  0  0
    9.9680   -1.3450   24.1710 C   0  0  0  0  0  0  0  0  0  0  0  0
   12.5120   -0.7670   23.0830 C   0  0  0  0  0  0  0  0  0  0  0  0
   10.7520   -0.4420   24.7660 C   0  0  0  0  0  0  0  0  0  0  0  0
   12.0290   -0.1390   24.2290 C   0  0  0  0  0  0  0  0  0  0  0  0
   10.1520    0.0990   25.8940 N   0  0  0  0  0  0  0  0  0  0  0  0
    8.9410   -0.2100   26.5830 C   0  0  0  0  0  0  0  0  0  0  0  0
    7.8360   -0.6950   25.8980 C   0  0  0  0  0  0  0  0  0  0  0  0
    8.8350   -0.0310   27.9220 N   0  0  0  0  0  0  0  0  0  0  0  0
    6.6610   -0.9940   26.5470 C   0  0  0  0  0  0  0  0  0  0  0  0
    7.6520   -0.3460   28.5030 C   0  0  0  0  0  0  0  0  0  0  0  0
    6.5470   -0.8240   27.8770 N   0  0  0  0  0  0  0  0  0  0  0  0
    7.5270   -0.1590   29.9980 C   0  0  0  0  0  0  0  0  0  0  0  0
    8.4010    0.5930   30.6890 N   0  0  0  0  0  0  0  0  0  0  0  0
  1  2  1  0
  2  3  1  0
  3  4  2  0
  3  5  1  0
  5  6  1  0
  5  7  1  0
  6  8  1  0
  7  9  1  0
  8 10  1  0
  9 10  1  0
 10 11  1  0
 11 12  1  0
 12 13  2  0
 12 14  1  0
 13 15  1  0
 14 16  2  0
 15 17  2  0
 16 17  1  0
 16 18  1  0
 18 19  1  0
 19 20  2  0
 19 21  1  0
 20 22  1  0
 21 23  2  0
 22 24  2  0
 23 24  1  0
 23 25  1  0
 25 26  3  0
M  END
