MAK-UNK-849bee6c-22-nitrile
     RDKit          3D

 28 30  0  0  0  0  0  0  0  0999 V2000
    6.6330   -3.7650   20.0580 C   0  0  0  0  0  0  0  0  0  0  0  0
    5.6330   -4.5670   19.9590 N   0  0  0  0  0  0  0  0  0  0  0  0
    6.6780   -2.6770   20.9170 N   0  0  0  0  0  0  0  0  0  0  0  0
    6.5870   -2.8570   22.3540 C   0  0  0  0  0  0  0  0  0  0  0  0
    6.8280   -1.3020   20.4400 C   0  0  0  0  0  0  0  0  0  0  0  0
    7.6500   -2.0350   23.1250 C   0  0  0  0  0  0  0  0  0  0  0  0
    7.9480   -0.5630   21.2240 C   0  0  0  0  0  0  0  0  0  0  0  0
    7.6940   -0.6390   22.6740 N   0  0  0  0  0  0  0  0  0  0  0  0
    8.1990    0.4470   23.4220 C   0  0  0  0  0  0  0  0  0  0  0  0
    9.6770    0.8240   23.2880 C   0  0  0  0  0  0  0  0  0  0  0  0
   10.0630    2.2430   23.0080 C   0  0  0  0  0  0  0  0  0  0  0  0
   10.6780   -0.1540   23.4290 C   0  0  0  0  0  0  0  0  0  0  0  0
   11.5480    2.4370   22.9120 C   0  0  0  0  0  0  0  0  0  0  0  0
   12.0960   -0.0000   23.3420 C   0  0  0  0  0  0  0  0  0  0  0  0
   12.1160    3.7800   22.6340 C   0  0  0  0  0  0  0  0  0  0  0  0
   12.4100    1.3470   23.0790 C   0  0  0  0  0  0  0  0  0  0  0  0
   12.3680   -1.1060   23.5330 N   0  0  0  0  0  0  0  0  0  0  0  0
   12.4850   -2.0910   22.5170 C   0  0  0  0  0  0  0  0  0  0  0  0
   11.4170   -2.3940   21.6270 C   0  0  0  0  0  0  0  0  0  0  0  0
   13.6030   -2.8540   22.2710 N   0  0  0  0  0  0  0  0  0  0  0  0
   11.8940   -3.3360   20.8420 C   0  0  0  0  0  0  0  0  0  0  0  0
   13.6990   -3.8630   21.1810 C   0  0  0  0  0  0  0  0  0  0  0  0
   11.1920   -3.8890   19.9530 N   0  0  0  0  0  0  0  0  0  0  0  0
   12.7580   -4.1070   20.4280 N   0  0  0  0  0  0  0  0  0  0  0  0
   14.9350   -4.7900   20.7910 C   0  0  0  0  0  0  0  0  0  0  0  0
   11.9380   -4.8440   19.4990 C   0  0  0  0  0  0  0  0  0  0  0  0
   15.0010   -6.0370   20.1630 N   0  0  0  0  0  0  0  0  0  0  0  0
   13.1400   -4.8310   20.2880 C   0  0  0  0  0  0  0  0  0  0  0  0
  1  2  2  3
  1  3  1  0
  3  4  1  0
  3  5  1  0
  4  6  1  0
  5  7  1  0
  6  8  1  0
  7  8  1  0
  8  9  1  0
  9 10  1  0
 10 11  2  0
 10 12  1  0
 11 13  1  0
 12 14  2  0
 13 15  1  0
 13 16  2  0
 14 16  1  0
 14 17  1  0
 17 18  1  0
 18 19  2  0
 18 20  1  0
 19 21  1  0
 20 22  2  0
 21 23  1  0
 21 24  2  0
 22 24  1  0
 22 25  1  0
 23 26  1  0
 25 27  3  0
 26 28  1  0
M  END
