MAK-UNK-c8c8f7e2-30
     RDKit          3D

 16 17  0  0  0  0  0  0  0  0999 V2000
    9.0090    1.1040   22.0550 C   0  0  0  0  0  0  0  0  0  0  0  0
    7.9890    0.4600   21.1560 C   0  0  0  0  0  0  0  0  0  0  0  0
    6.9370    1.0200   20.8660 O   0  0  0  0  0  0  0  0  0  0  0  0
    8.3560   -0.7830   20.6870 N   0  0  0  0  0  0  0  0  0  0  0  0
    7.4220   -1.8770   20.4920 C   0  0  0  0  0  0  0  0  0  0  0  0
    6.4210   -1.7460   19.3490 C   0  0  0  0  0  0  0  0  0  0  0  0
    7.4310   -2.9890   21.2930 C   0  0  0  0  0  0  0  0  0  0  0  0
    5.4660   -2.9140   19.1750 C   0  0  0  0  0  0  0  0  0  0  0  0
    6.5340   -4.0320   21.1010 C   0  0  0  0  0  0  0  0  0  0  0  0
    5.5670   -4.0890   20.1160 C   0  0  0  0  0  0  0  0  0  0  0  0
    6.6950   -4.9990   22.0070 N   0  0  0  0  0  0  0  0  0  0  0  0
    5.6580   -5.8490   22.1790 C   0  0  0  0  0  0  0  0  0  0  0  0
    7.0120   -4.5440   23.2560 C   0  0  0  0  0  0  0  0  0  0  0  0
    4.9410   -5.5180   23.3500 C   0  0  0  0  0  0  0  0  0  0  0  0
    5.8850   -4.7410   24.0840 C   0  0  0  0  0  0  0  0  0  0  0  0
    8.4560   -3.7660   23.9030 S   0  0  0  0  0  0  0  0  0  0  0  0
  1  2  1  0
  2  3  2  0
  2  4  1  0
  4  5  1  0
  5  6  2  0
  5  7  1  0
  6  8  1  0
  7  9  2  0
  8 10  2  0
  9 10  1  0
  9 11  1  0
 11 12  1  0
 11 13  1  0
 12 14  1  0
 13 15  1  0
 14 15  1  0
 13 16  2  0
M  END
