MAK-UNK-849bee6c-17-nitrile
     RDKit          3D

 24 26  0  0  0  0  0  0  0  0999 V2000
    6.6680   -3.5550   19.6830 C   0  0  0  0  0  0  0  0  0  0  0  0
    6.3560   -3.1030   18.5280 N   0  0  0  0  0  0  0  0  0  0  0  0
    6.6940   -2.7530   20.8050 N   0  0  0  0  0  0  0  0  0  0  0  0
    6.2370   -3.1970   22.0990 C   0  0  0  0  0  0  0  0  0  0  0  0
    7.5440   -1.5650   20.8640 C   0  0  0  0  0  0  0  0  0  0  0  0
    7.4310   -3.4550   23.0400 C   0  0  0  0  0  0  0  0  0  0  0  0
    8.7800   -1.9120   21.6170 C   0  0  0  0  0  0  0  0  0  0  0  0
    8.4890   -2.4250   22.9750 N   0  0  0  0  0  0  0  0  0  0  0  0
    9.6690   -2.5580   23.6840 C   0  0  0  0  0  0  0  0  0  0  0  0
   10.6210   -1.4060   23.5430 C   0  0  0  0  0  0  0  0  0  0  0  0
   12.0340   -1.5790   23.0370 C   0  0  0  0  0  0  0  0  0  0  0  0
   10.1490   -0.1590   23.8950 C   0  0  0  0  0  0  0  0  0  0  0  0
   12.8450   -0.2970   22.9520 C   0  0  0  0  0  0  0  0  0  0  0  0
   10.8920    1.0040   23.8130 C   0  0  0  0  0  0  0  0  0  0  0  0
   12.2040    0.9920   23.3630 C   0  0  0  0  0  0  0  0  0  0  0  0
    9.9420    2.4140   24.3470 S   0  0  0  0  0  0  0  0  0  0  0  0
   10.5110    3.9890   23.7370 C   0  0  0  0  0  0  0  0  0  0  0  0
    9.5900    5.0400   23.7780 C   0  0  0  0  0  0  0  0  0  0  0  0
   11.7640    4.1270   23.2830 N   0  0  0  0  0  0  0  0  0  0  0  0
   10.0110    6.3580   23.3100 C   0  0  0  0  0  0  0  0  0  0  0  0
   12.1020    5.3670   22.8660 C   0  0  0  0  0  0  0  0  0  0  0  0
   11.2430    6.5530   22.8580 N   0  0  0  0  0  0  0  0  0  0  0  0
   13.3710    5.5480   22.4020 C   0  0  0  0  0  0  0  0  0  0  0  0
   13.6800    4.7840   21.3180 N   0  0  0  0  0  0  0  0  0  0  0  0
  1  2  2  3
  1  3  1  0
  3  4  1  0
  3  5  1  0
  4  6  1  0
  5  7  1  0
  6  8  1  0
  7  8  1  0
  8  9  1  0
  9 10  1  0
 10 11  2  0
 10 12  1  0
 11 13  1  0
 12 14  2  0
 13 15  2  0
 14 15  1  0
 14 16  1  0
 16 17  1  0
 17 18  2  0
 17 19  1  0
 18 20  1  0
 19 21  2  0
 20 22  2  0
 21 22  1  0
 21 23  1  0
 23 24  3  0
M  END
