MAK-UNK-10dfa458-11-nitrile
     RDKit          3D

 18 20  0  0  0  0  0  0  0  0999 V2000
    7.4700   -4.4080   20.7250 C   0  0  0  0  0  0  0  0  0  0  0  0
    8.1120   -4.3690   19.7510 N   0  0  0  0  0  0  0  0  0  0  0  0
    6.6700   -4.4570   21.9390 N   0  0  0  0  0  0  0  0  0  0  0  0
    7.2820   -5.1840   23.0590 C   0  0  2  0  0  0  0  0  0  0  0  0
    5.3510   -5.0890   21.7910 C   0  0  1  0  0  0  0  0  0  0  0  0
    6.9240   -6.6530   22.7790 C   0  0  0  0  0  0  0  0  0  0  0  0
    5.6520   -6.5900   21.9350 C   0  0  0  0  0  0  0  0  0  0  0  0
    4.4570   -4.5920   22.9460 C   0  0  0  0  0  0  0  0  0  0  0  0
    6.6150   -4.6900   24.3590 C   0  0  0  0  0  0  0  0  0  0  0  0
    5.2500   -3.9980   24.1340 C   0  0  2  0  0  0  0  0  0  0  0  0
    4.4350   -3.9760   25.4400 C   0  0  0  0  0  0  0  0  0  0  0  0
    3.1860   -3.1300   25.3670 C   0  0  0  0  0  0  0  0  0  0  0  0
    3.2770   -1.7330   25.3270 C   0  0  0  0  0  0  0  0  0  0  0  0
    1.9190   -3.7300   25.3340 C   0  0  0  0  0  0  0  0  0  0  0  0
    2.1240   -0.9520   25.2590 C   0  0  0  0  0  0  0  0  0  0  0  0
    0.7560   -2.9520   25.2500 C   0  0  0  0  0  0  0  0  0  0  0  0
    0.8680   -1.5580   25.2260 C   0  0  0  0  0  0  0  0  0  0  0  0
   -0.5950   -3.6050   25.2490 C   0  0  0  0  0  0  0  0  0  0  0  0
  1  2  2  3
  1  3  1  0
  3  4  1  0
  3  5  1  0
  4  6  1  6
  5  7  1  1
  6  7  1  0
  5  8  1  0
  4  9  1  0
  8 10  1  0
  9 10  1  0
 10 11  1  1
 11 12  1  0
 12 13  2  0
 12 14  1  0
 13 15  1  0
 14 16  2  0
 15 17  2  0
 16 17  1  0
 16 18  1  0
M  END
