MAK-UNK-9e4a73aa-24
     RDKit          3D

 26 29  0  0  0  0  0  0  0  0999 V2000
    7.7040   -0.7390   26.0280 O   0  0  0  0  0  0  0  0  0  0  0  0
    7.1840   -1.3830   25.1100 C   0  0  0  0  0  0  0  0  0  0  0  0
    7.5410   -2.7110   24.6230 C   0  0  0  0  0  0  0  0  0  0  0  0
    6.1770   -1.0990   24.2810 N   0  0  0  0  0  0  0  0  0  0  0  0
    8.9540   -3.0140   24.4630 C   0  0  0  0  0  0  0  0  0  0  0  0
    6.5130   -3.6020   24.3130 C   0  0  0  0  0  0  0  0  0  0  0  0
    5.0160   -1.7520   24.5440 C   0  0  0  0  0  0  0  0  0  0  0  0
    6.6780   -1.2810   22.9890 C   0  0  0  0  0  0  0  0  0  0  0  0
    9.2360   -4.2340   23.9920 C   0  0  0  0  0  0  0  0  0  0  0  0
    6.8610   -4.8280   23.8330 C   0  0  0  0  0  0  0  0  0  0  0  0
    5.1840   -3.1590   24.5040 N   0  0  0  0  0  0  0  0  0  0  0  0
    3.9320   -1.2270   24.8070 O   0  0  0  0  0  0  0  0  0  0  0  0
    8.1590   -1.4100   22.7760 C   0  0  0  0  0  0  0  0  0  0  0  0
    5.8910   -1.3420   21.8630 C   0  0  0  0  0  0  0  0  0  0  0  0
   10.4940   -4.5580   23.8410 F   0  0  0  0  0  0  0  0  0  0  0  0
    8.2030   -5.1340   23.6720 C   0  0  0  0  0  0  0  0  0  0  0  0
    4.0440   -3.9370   24.3310 C   0  0  0  0  0  0  0  0  0  0  0  0
    8.5950   -1.5420   21.4650 C   0  0  0  0  0  0  0  0  0  0  0  0
    6.3690   -1.4800   20.5740 N   0  0  0  0  0  0  0  0  0  0  0  0
    8.5320   -6.6580   23.0600 Cl  0  0  0  0  0  0  0  0  0  0  0  0
    2.7050   -3.6690   25.0680 C   0  0  0  0  0  0  0  0  0  0  0  0
    4.0310   -5.0310   23.4680 C   0  0  0  0  0  0  0  0  0  0  0  0
    7.6900   -1.5620   20.4010 C   0  0  0  0  0  0  0  0  0  0  0  0
    1.4940   -4.5520   24.8430 C   0  0  0  0  0  0  0  0  0  0  0  0
    2.9040   -5.8670   23.2490 C   0  0  0  0  0  0  0  0  0  0  0  0
    1.6710   -5.7000   23.8640 C   0  0  0  0  0  0  0  0  0  0  0  0
  1  2  2  0
  2  3  1  0
  2  4  1  0
  3  5  2  0
  3  6  1  0
  4  7  1  0
  4  8  1  0
  5  9  1  0
  6 10  2  0
  6 11  1  0
  7 11  1  0
  7 12  2  0
  8 13  2  0
  8 14  1  0
  9 15  1  0
  9 16  2  0
 10 16  1  0
 11 17  1  0
 13 18  1  0
 14 19  2  0
 16 20  1  0
 17 21  2  0
 17 22  1  0
 18 23  2  0
 19 23  1  0
 21 24  1  0
 22 25  2  0
 24 26  2  0
 25 26  1  0
M  END
