MAK-UNK-27459e11-3
     RDKit          3D

 16 16  0  0  0  0  0  0  0  0999 V2000
    4.5940   -5.4740   24.8980 N   0  0  0  0  0  0  0  0  0  0  0  0
    5.8170   -5.6550   25.2750 C   0  0  0  0  0  0  0  0  0  0  0  0
    6.6740   -6.4630   24.5920 N   0  0  0  0  0  0  0  0  0  0  0  0
    6.4040   -4.9750   26.5250 C   0  0  0  0  0  0  0  0  0  0  0  0
    8.1240   -4.5150   26.2990 S   0  0  0  0  0  0  0  0  0  0  0  0
    8.6130   -3.8150   27.4510 O   0  0  0  0  0  0  0  0  0  0  0  0
    8.8030   -5.6580   25.7540 O   0  0  0  0  0  0  0  0  0  0  0  0
    7.9960   -3.4090   25.0390 N   0  0  0  0  0  0  0  0  0  0  0  0
    9.0970   -3.2960   24.0830 C   0  0  0  0  0  0  0  0  0  0  0  0
    9.1630   -1.9370   23.4310 C   0  0  0  0  0  0  0  0  0  0  0  0
   10.5500   -1.3440   23.2160 C   0  0  0  0  0  0  0  0  0  0  0  0
   10.7240   -0.0420   23.9940 C   0  0  0  0  0  0  0  0  0  0  0  0
   11.5580   -1.8900   22.4120 C   0  0  0  0  0  0  0  0  0  0  0  0
   12.0730    0.6470   23.8350 C   0  0  0  0  0  0  0  0  0  0  0  0
   12.8020   -1.3160   22.2330 C   0  0  0  0  0  0  0  0  0  0  0  0
   13.1210   -0.0010   22.9410 C   0  0  0  0  0  0  0  0  0  0  0  0
  1  2  2  3
  2  3  1  0
  2  4  1  0
  4  5  1  0
  5  6  2  0
  5  7  2  0
  5  8  1  0
  8  9  1  0
  9 10  1  0
 10 11  1  0
 11 12  2  0
 11 13  1  0
 12 14  1  0
 13 15  2  0
 14 16  2  0
 15 16  1  0
M  END
