MAK-UNK-8fdbca50-8-vinylsulfonamide
     RDKit          3D

 41 44  0  0  0  0  0  0  0  0999 V2000
    7.8040   -3.6080   20.3470 C   0  0  0  0  0  0  0  0  0  0  0  0
    7.3350   -2.5530   19.3840 C   0  0  0  0  0  0  0  0  0  0  0  0
    5.6080   -2.2870   19.6340 S   0  0  0  0  0  0  0  0  0  0  0  0
    5.0630   -3.3210   20.5150 O   0  0  0  0  0  0  0  0  0  0  0  0
    5.0940   -2.0380   18.3260 O   0  0  0  0  0  0  0  0  0  0  0  0
    5.5780   -0.8450   20.4890 N   0  0  0  0  0  0  0  0  0  0  0  0
    4.7130    0.2370   20.0050 C   0  0  0  0  0  0  0  0  0  0  0  0
    6.7810   -0.3960   21.1900 C   0  0  0  0  0  0  0  0  0  0  0  0
    4.8950    1.4770   20.8510 C   0  0  0  0  0  0  0  0  0  0  0  0
    7.1360    0.8830   20.7420 C   0  0  0  0  0  0  0  0  0  0  0  0
    6.2180    1.8620   21.1460 C   0  0  0  0  0  0  0  0  0  0  0  0
    6.4620    2.3650   22.4260 C   0  0  0  0  0  0  0  0  0  0  0  0
    5.5590    2.5500   23.2500 O   0  0  0  0  0  0  0  0  0  0  0  0
    7.9110    2.6680   22.6970 N   0  0  0  0  0  0  0  0  0  0  0  0
    8.3150    4.0510   22.3080 C   0  0  0  0  0  0  0  0  0  0  0  0
    8.4950    2.2030   23.9900 C   0  0  1  0  0  0  0  0  0  0  0  0
    7.4740    1.6020   24.7940 C   0  0  0  0  0  0  0  0  0  0  0  0
    9.5990    1.1810   23.7290 C   0  0  0  0  0  0  0  0  0  0  0  0
    9.2230    0.1300   22.7020 C   0  0  0  0  0  0  0  0  0  0  0  0
   10.7500    1.2190   24.3370 N   0  0  0  0  0  0  0  0  0  0  0  0
   10.1630   -0.8340   22.4060 C   0  0  0  0  0  0  0  0  0  0  0  0
   11.6780    0.2640   24.0450 C   0  0  0  0  0  0  0  0  0  0  0  0
   11.4720   -0.7600   23.1240 C   0  0  0  0  0  0  0  0  0  0  0  0
   12.6700   -1.9710   22.7610 S   0  0  0  0  0  0  0  0  0  0  0  0
   11.9060   -3.0010   22.1710 O   0  0  0  0  0  0  0  0  0  0  0  0
   13.6050   -2.1460   23.8470 O   0  0  0  0  0  0  0  0  0  0  0  0
   13.4770   -1.3790   21.4350 N   0  0  0  0  0  0  0  0  0  0  0  0
   13.7000   -0.0960   21.3380 C   0  0  0  0  0  0  0  0  0  0  0  0
   14.0210   -1.9730   20.4060 C   0  0  0  0  0  0  0  0  0  0  0  0
   14.4130    0.4730   20.1220 C   0  0  0  0  0  0  0  0  0  0  0  0
   14.6190   -0.8060   19.4700 C   0  0  0  0  0  0  0  0  0  0  0  0
   14.2240   -3.4430   20.1260 C   0  0  0  0  0  0  0  0  0  0  0  0
   14.8540    1.7920   19.7170 C   0  0  0  0  0  0  0  0  0  0  0  0
   15.2530   -3.9200   19.2570 C   0  0  0  0  0  0  0  0  0  0  0  0
   13.6030   -4.3080   20.6870 C   0  0  0  0  0  0  0  0  0  0  0  0
   15.5660    2.0260   18.6020 N   0  0  0  0  0  0  0  0  0  0  0  0
   15.6860   -5.0970   19.0250 C   0  0  0  0  0  0  0  0  0  0  0  0
   14.0730   -5.5970   20.4310 C   0  0  0  0  0  0  0  0  0  0  0  0
   12.6490   -3.8080   21.4230 F   0  0  0  0  0  0  0  0  0  0  0  0
   15.1550    3.3270   18.4750 C   0  0  0  0  0  0  0  0  0  0  0  0
   15.1000   -5.9530   19.6410 C   0  0  0  0  0  0  0  0  0  0  0  0
  1  2  1  0
  3  2  1  0
  3  4  2  0
  3  5  2  0
  3  6  1  0
  6  7  1  0
  6  8  1  0
  7  9  1  0
  8 10  1  0
  9 11  1  0
 10 11  1  0
 11 12  1  0
 12 13  2  0
 12 14  1  0
 14 15  1  0
 14 16  1  0
 16 17  1  1
 16 18  1  0
 18 19  2  0
 18 20  1  0
 19 21  1  0
 20 22  2  0
 21 23  2  0
 22 23  1  0
 24 23  1  0
 24 25  2  0
 24 26  2  0
 24 27  1  0
 27 28  1  0
 27 29  1  0
 28 30  2  0
 29 31  2  0
 30 31  1  0
 29 32  1  0
 30 33  1  0
 32 34  2  0
 32 35  1  0
 33 36  1  0
 34 37  1  0
 35 38  2  0
 35 39  1  0
 36 40  1  0
 37 41  2  0
 38 41  1  0
M  END
