MAK-UNK-10dfa458-3-acrylamide
     RDKit          3D

 17 18  0  0  0  0  0  0  0  0999 V2000
    6.3960   -5.6010   20.3950 C   0  0  0  0  0  0  0  0  0  0  0  0
    6.7420   -5.6340   21.8800 C   0  0  0  0  0  0  0  0  0  0  0  0
    6.0670   -4.3470   22.4190 C   0  0  0  0  0  0  0  0  0  0  0  0
    5.0100   -3.9660   21.8010 O   0  0  0  0  0  0  0  0  0  0  0  0
    6.5880   -3.6060   23.5770 N   0  0  0  0  0  0  0  0  0  0  0  0
    5.8200   -2.3740   23.8340 C   0  0  0  0  0  0  0  0  0  0  0  0
    7.2590   -2.0200   24.0430 C   0  0  0  0  0  0  0  0  0  0  0  0
    5.0730   -3.5760   23.4990 C   0  0  0  0  0  0  0  0  0  0  0  0
    7.3020   -3.5850   23.7490 C   0  0  0  0  0  0  0  0  0  0  0  0
    4.5270   -4.4520   23.2540 C   0  0  0  0  0  0  0  0  0  0  0  0
    6.0950   -4.6840   23.4060 C   0  0  0  0  0  0  0  0  0  0  0  0
    4.5270   -5.7950   22.9850 N   0  0  0  0  0  0  0  0  0  0  0  0
    4.8000   -6.3830   21.7750 C   0  0  0  0  0  0  0  0  0  0  0  0
    4.9930   -6.8300   23.8700 C   0  0  0  0  0  0  0  0  0  0  0  0
    5.9240   -7.1170   21.8250 C   0  0  0  0  0  0  0  0  0  0  0  0
    6.0670   -7.4750   23.1530 C   0  0  0  0  0  0  0  0  0  0  0  0
    4.6440   -7.1900   24.9990 O   0  0  0  0  0  0  0  0  0  0  0  0
  1  2  1  0
  2  3  1  0
  3  4  2  0
  3  5  1  0
  5  6  1  0
  6  7  2  0
  6  8  1  0
  7  9  1  0
  8 10  2  0
  9 11  2  0
 10 11  1  0
 10 12  1  0
 12 13  1  0
 12 14  1  0
 13 15  1  0
 14 16  1  0
 15 16  1  0
 14 17  2  0
M  END
