MAK-UNK-72659d64-8-nitrile
     RDKit          3D

 13 13  0  0  0  0  0  0  0  0999 V2000
    7.1760   -3.5740   19.3050 C   0  0  0  0  0  0  0  0  0  0  0  0
    6.5870   -2.9310   18.3650 N   0  0  0  0  0  0  0  0  0  0  0  0
    6.6260   -3.6610   20.5420 N   0  0  0  0  0  0  0  0  0  0  0  0
    5.7290   -2.5830   20.8860 C   0  0  0  0  0  0  0  0  0  0  0  0
    6.2790   -4.9230   21.0300 C   0  0  0  0  0  0  0  0  0  0  0  0
    5.7040   -5.1020   22.3730 C   0  0  0  0  0  0  0  0  0  0  0  0
    4.6780   -6.0870   22.7940 C   0  0  0  0  0  0  0  0  0  0  0  0
    6.2520   -4.2270   23.2260 N   0  0  0  0  0  0  0  0  0  0  0  0
    4.3130   -6.0120   24.2270 C   0  0  0  0  0  0  0  0  0  0  0  0
    5.8450   -4.2430   24.5170 C   0  0  0  0  0  0  0  0  0  0  0  0
    5.0390   -4.9750   24.9720 N   0  0  0  0  0  0  0  0  0  0  0  0
    6.5090   -3.2180   25.3650 C   0  0  0  0  0  0  0  0  0  0  0  0
    5.9280   -3.0940   26.6140 N   0  0  0  0  0  0  0  0  0  0  0  0
  1  2  2  3
  1  3  1  0
  3  4  1  0
  3  5  1  0
  5  6  1  0
  6  7  2  0
  6  8  1  0
  7  9  1  0
  8 10  2  0
  9 11  2  0
 10 11  1  0
 10 12  1  0
 12 13  3  0
M  END
