MAK-UNK-8fdbca50-39-nitrile
     RDKit          3D

 38 41  0  0  0  0  0  0  0  0999 V2000
    8.2590   -3.8580   20.0060 C   0  0  0  0  0  0  0  0  0  0  0  0
    6.9960   -3.8200   19.5300 N   0  0  0  0  0  0  0  0  0  0  0  0
    8.6340   -3.4920   21.3210 N   0  0  0  0  0  0  0  0  0  0  0  0
    8.6140   -4.4060   22.4970 C   0  0  0  0  0  0  0  0  0  0  0  0
    9.1970   -2.1700   21.5940 C   0  0  0  0  0  0  0  0  0  0  0  0
    9.6820   -4.0920   23.6080 C   0  0  0  0  0  0  0  0  0  0  0  0
    9.0490   -1.8280   22.9430 C   0  0  0  0  0  0  0  0  0  0  0  0
   10.0600   -2.6300   23.7820 C   0  0  0  0  0  0  0  0  0  0  0  0
   11.3940   -2.1050   23.5470 C   0  0  0  0  0  0  0  0  0  0  0  0
   12.6240   -2.4780   24.1100 C   0  0  0  0  0  0  0  0  0  0  0  0
   11.6160   -1.0590   22.6600 N   0  0  0  0  0  0  0  0  0  0  0  0
   12.8840   -3.4530   25.0320 N   0  0  0  0  0  0  0  0  0  0  0  0
   12.7720   -1.2220   21.9510 C   0  0  0  0  0  0  0  0  0  0  0  0
   11.3680    0.1730   23.1950 C   0  0  0  0  0  0  0  0  0  0  0  0
   13.8790   -3.3300   26.1090 C   0  0  0  0  0  0  0  0  0  0  0  0
   10.1580    0.8390   22.5470 C   0  0  0  0  0  0  0  0  0  0  0  0
   12.5690    1.1050   23.0510 C   0  0  0  0  0  0  0  0  0  0  0  0
   15.3690   -3.3360   25.7800 C   0  0  0  0  0  0  0  0  0  0  0  0
   16.4870   -2.3930   26.1410 C   0  0  0  0  0  0  0  0  0  0  0  0
   16.1270   -4.2940   25.0710 C   0  0  0  0  0  0  0  0  0  0  0  0
   17.9670   -2.8660   25.4770 C   0  0  0  0  0  0  0  0  0  0  0  0
   17.5050   -4.0230   24.9300 N   0  0  0  0  0  0  0  0  0  0  0  0
   19.4380   -2.3100   25.4200 C   0  0  0  0  0  0  0  0  0  0  0  0
   18.1590   -5.1650   24.1440 S   0  0  0  0  0  0  0  0  0  0  0  0
   19.8980   -1.1260   24.8160 C   0  0  0  0  0  0  0  0  0  0  0  0
   20.3100   -3.1240   26.0340 C   0  0  0  0  0  0  0  0  0  0  0  0
   19.5530   -5.0760   24.2520 O   0  0  0  0  0  0  0  0  0  0  0  0
   17.3590   -5.3340   23.0210 O   0  0  0  0  0  0  0  0  0  0  0  0
   17.3160   -6.2420   25.0650 C   0  0  0  0  0  0  0  0  0  0  0  0
   21.3510   -0.7390   24.8800 C   0  0  0  0  0  0  0  0  0  0  0  0
   21.6710   -2.7980   26.1220 C   0  0  0  0  0  0  0  0  0  0  0  0
   19.8590   -4.2560   26.5460 F   0  0  0  0  0  0  0  0  0  0  0  0
   17.4610   -7.5300   24.9770 C   0  0  0  0  0  0  0  0  0  0  0  0
   16.4370   -5.7070   25.8960 C   0  0  0  0  0  0  0  0  0  0  0  0
   22.1690   -1.6260   25.5560 C   0  0  0  0  0  0  0  0  0  0  0  0
   16.7330   -8.2490   25.7040 C   0  0  0  0  0  0  0  0  0  0  0  0
   15.6820   -6.4030   26.6980 N   0  0  0  0  0  0  0  0  0  0  0  0
   15.8460   -7.7040   26.5760 C   0  0  0  0  0  0  0  0  0  0  0  0
  1  2  2  3
  1  3  1  0
  3  4  1  0
  3  5  1  0
  4  6  1  0
  5  7  1  0
  6  8  1  0
  7  8  1  0
  8  9  1  0
  9 10  2  3
  9 11  1  0
 10 12  1  0
 11 13  1  0
 11 14  1  0
 12 15  1  0
 14 16  1  0
 14 17  1  0
 15 18  1  0
 18 19  1  0
 18 20  2  0
 19 21  2  0
 20 22  1  0
 21 22  1  0
 21 23  1  0
 22 24  1  0
 23 25  2  0
 23 26  1  0
 24 27  2  0
 24 28  2  0
 24 29  1  0
 25 30  1  0
 26 31  2  0
 26 32  1  0
 29 33  2  0
 29 34  1  0
 30 35  2  0
 31 35  1  0
 33 36  1  0
 34 37  2  0
 36 38  2  0
 37 38  1  0
M  END
