MAK-UNK-c8c8f7e2-23
     RDKit          3D

 17 18  0  0  0  0  0  0  0  0999 V2000
    9.8440   -1.8050   21.8360 C   0  0  0  0  0  0  0  0  0  0  0  0
    9.1210   -0.4770   21.8070 C   0  0  0  0  0  0  0  0  0  0  0  0
    9.5520    0.4990   22.4170 O   0  0  0  0  0  0  0  0  0  0  0  0
    7.9630   -0.4480   21.0540 N   0  0  0  0  0  0  0  0  0  0  0  0
    7.1780   -1.6630   20.7700 C   0  0  0  0  0  0  0  0  0  0  0  0
    6.2240   -1.6150   19.5830 C   0  0  0  0  0  0  0  0  0  0  0  0
    7.2940   -2.8220   21.5530 C   0  0  0  0  0  0  0  0  0  0  0  0
    5.4330   -2.8900   19.3220 C   0  0  0  0  0  0  0  0  0  0  0  0
    6.5450   -4.0000   21.2930 C   0  0  0  0  0  0  0  0  0  0  0  0
    5.6330   -4.0940   20.2260 C   0  0  0  0  0  0  0  0  0  0  0  0
    6.6740   -5.1040   22.0690 N   0  0  0  0  0  0  0  0  0  0  0  0
    7.1290   -4.8370   23.2580 C   0  0  0  0  0  0  0  0  0  0  0  0
    5.4500   -5.8820   22.1520 C   0  0  0  0  0  0  0  0  0  0  0  0
    5.9910   -4.7630   24.0760 C   0  0  0  0  0  0  0  0  0  0  0  0
    4.8480   -5.3520   23.3510 C   0  0  2  0  0  0  0  0  0  0  0  0
    4.1760   -6.3320   24.1020 C   0  0  0  0  0  0  0  0  0  0  0  0
    3.6360   -5.5960   25.6360 Cl  0  0  0  0  0  0  0  0  0  0  0  0
  1  2  1  0
  2  3  2  0
  2  4  1  0
  4  5  1  0
  5  6  2  0
  5  7  1  0
  6  8  1  0
  7  9  2  0
  8 10  2  0
  9 10  1  0
  9 11  1  0
 11 12  1  0
 11 13  1  0
 12 14  1  0
 13 15  1  0
 14 15  1  0
 15 16  1  1
 16 17  1  0
M  END
