MAK-UNK-10799360-21-bromoalkyne
     RDKit          3D

 22 25  0  0  0  0  0  0  0  0999 V2000
    6.8150   -3.6320   19.8720 C   0  0  0  0  0  0  0  0  0  0  0  0
    5.6050   -3.1150   19.1000 C   0  0  0  0  0  0  0  0  0  0  0  0
    7.0670   -3.0380   21.0940 N   0  0  0  0  0  0  0  0  0  0  0  0
    7.3920   -1.6070   21.1410 C   0  0  0  0  0  0  0  0  0  0  0  0
    6.4790   -3.3750   22.4170 C   0  0  2  0  0  0  0  0  0  0  0  0
    6.9630   -1.2150   22.5700 C   0  0  1  0  0  0  0  0  0  0  0  0
    5.7180   -2.0920   22.7340 C   0  0  0  0  0  0  0  0  0  0  0  0
    7.5430   -3.2740   23.5550 C   0  0  0  0  0  0  0  0  0  0  0  0
    7.9670   -1.8430   23.4630 N   0  0  0  0  0  0  0  0  0  0  0  0
    8.5070   -1.0330   24.6030 C   0  0  0  0  0  0  0  0  0  0  0  0
    9.8020   -0.2810   24.2050 C   0  0  0  0  0  0  0  0  0  0  0  0
    9.9400    1.1120   24.2620 C   0  0  0  0  0  0  0  0  0  0  0  0
   10.9060   -0.9960   23.7480 C   0  0  0  0  0  0  0  0  0  0  0  0
   11.1260    1.7510   23.8710 C   0  0  0  0  0  0  0  0  0  0  0  0
   12.0890   -0.3720   23.3490 C   0  0  0  0  0  0  0  0  0  0  0  0
   10.8320   -2.4470   23.6530 C   0  0  0  0  0  0  0  0  0  0  0  0
   12.2030    1.0060   23.4110 C   0  0  0  0  0  0  0  0  0  0  0  0
   10.7110   -2.5730   22.2080 C   0  0  0  0  0  0  0  0  0  0  0  0
   13.1750   -1.1310   22.8780 C   0  0  0  0  0  0  0  0  0  0  0  0
    9.4710   -3.1390   22.0610 O   0  0  0  0  0  0  0  0  0  0  0  0
   11.6290   -2.1620   21.2980 N   0  0  0  0  0  0  0  0  0  0  0  0
   13.0000   -1.8740   21.6920 C   0  0  0  0  0  0  0  0  0  0  0  0
  1  2  2  3
  1  3  1  0
  3  4  1  0
  3  5  1  0
  6  4  1  6
  5  7  1  0
  6  7  1  0
  5  8  1  1
  6  9  1  0
  8  9  1  0
  9 10  1  0
 10 11  1  0
 11 12  2  0
 11 13  1  0
 12 14  1  0
 13 15  2  0
 13 16  1  0
 14 17  2  0
 15 17  1  0
 16 18  1  0
 15 19  1  0
 18 20  2  0
 18 21  1  0
 19 22  1  0
 21 22  1  0
M  END
