MAK-UNK-5d2caa6f-2-bromoalkyne
     RDKit          3D

 29 33  0  0  0  0  0  0  0  0999 V2000
    7.0090   -3.2940   19.8780 C   0  0  0  0  0  0  0  0  0  0  0  0
    5.6980   -3.1200   19.1230 C   0  0  0  0  0  0  0  0  0  0  0  0
    7.1600   -2.6700   21.1730 N   0  0  0  0  0  0  0  0  0  0  0  0
    8.3080   -2.8590   22.1070 C   0  0  0  0  0  0  0  0  0  0  0  0
    6.7430   -1.2270   21.4270 C   0  0  2  0  0  0  0  0  0  0  0  0
    8.5110   -1.4270   22.6090 C   0  0  2  0  0  0  0  0  0  0  0  0
    8.0070   -0.7020   21.3100 C   0  0  0  0  0  0  0  0  0  0  0  0
    6.2950   -0.9990   22.7520 C   0  0  0  0  0  0  0  0  0  0  0  0
   10.0090   -1.2960   22.9800 C   0  0  0  0  0  0  0  0  0  0  0  0
    4.9310   -0.6500   23.3010 C   0  0  0  0  0  0  0  0  0  0  0  0
    7.3980   -1.1320   23.5840 C   0  0  0  0  0  0  0  0  0  0  0  0
   10.1980   -0.7820   24.4150 C   0  0  0  0  0  0  0  0  0  0  0  0
   10.9970   -1.5950   22.1070 C   0  0  0  0  0  0  0  0  0  0  0  0
    3.8600   -0.4790   22.4720 O   0  0  0  0  0  0  0  0  0  0  0  0
    4.8970   -0.5120   24.6950 C   0  0  0  0  0  0  0  0  0  0  0  0
    7.3070   -0.9830   24.9680 C   0  0  0  0  0  0  0  0  0  0  0  0
   11.7180   -0.6320   24.7820 C   0  0  0  0  0  0  0  0  0  0  0  0
   12.2850   -1.4560   22.4250 C   0  0  0  0  0  0  0  0  0  0  0  0
    3.1490    0.7580   22.6990 C   0  0  0  0  0  0  0  0  0  0  0  0
    6.0510   -0.6790   25.5050 C   0  0  0  0  0  0  0  0  0  0  0  0
   12.7100   -1.0120   23.6530 C   0  0  0  0  0  0  0  0  0  0  0  0
   13.3490   -1.8650   21.1920 Cl  0  0  0  0  0  0  0  0  0  0  0  0
    2.4480    1.3530   21.4640 C   0  0  0  0  0  0  0  0  0  0  0  0
    3.1290    1.2750   20.1720 N   0  0  0  0  0  0  0  0  0  0  0  0
    4.4610    0.6430   20.2080 C   0  0  0  0  0  0  0  0  0  0  0  0
    3.1470    2.5420   19.4320 C   0  0  0  0  0  0  0  0  0  0  0  0
    5.0700    0.4090   18.8220 C   0  0  0  0  0  0  0  0  0  0  0  0
    4.3710    2.6460   18.5450 C   0  0  0  0  0  0  0  0  0  0  0  0
    4.7120    1.4260   17.9020 O   0  0  0  0  0  0  0  0  0  0  0  0
  1  2  2  3
  1  3  1  0
  3  4  1  0
  5  3  1  1
  4  6  1  0
  5  7  1  0
  6  7  1  0
  5  8  1  0
  6  9  1  1
  8 10  2  0
  6 11  1  0
  8 11  1  0
  9 12  2  0
  9 13  1  0
 10 14  1  0
 10 15  1  0
 11 16  2  0
 12 17  1  0
 13 18  2  0
 14 19  1  0
 15 20  2  0
 16 20  1  0
 17 21  2  0
 18 21  1  0
 18 22  1  0
 19 23  1  0
 23 24  1  0
 24 25  1  0
 24 26  1  0
 25 27  1  0
 26 28  1  0
 27 29  1  0
 28 29  1  0
M  END
