MAK-UNK-a7992eb3-4-chloroacetamide
     RDKit          3D

 36 40  0  0  0  0  0  0  0  0999 V2000
    7.6490   -3.7370   20.5200 C   0  0  0  0  0  0  0  0  0  0  0  0
    6.4600   -4.6210   20.7710 C   0  0  0  0  0  0  0  0  0  0  0  0
    5.5030   -4.6930   19.9800 O   0  0  0  0  0  0  0  0  0  0  0  0
    6.5090   -5.3520   21.9530 N   0  0  0  0  0  0  0  0  0  0  0  0
    7.4850   -5.0490   23.0080 C   0  0  0  0  0  0  0  0  0  0  0  0
    5.3530   -6.0570   22.4740 C   0  0  0  0  0  0  0  0  0  0  0  0
    6.8190   -4.5240   24.2580 C   0  0  0  0  0  0  0  0  0  0  0  0
    4.8250   -5.3300   23.5400 C   0  0  0  0  0  0  0  0  0  0  0  0
    5.6220   -5.1370   24.6590 C   0  0  0  0  0  0  0  0  0  0  0  0
    5.0340   -4.6250   25.8290 C   0  0  0  0  0  0  0  0  0  0  0  0
    5.7770   -4.5470   27.0030 O   0  0  0  0  0  0  0  0  0  0  0  0
    3.5970   -4.1810   25.7830 N   0  0  0  0  0  0  0  0  0  0  0  0
    3.2750   -2.7760   25.4020 C   0  0  0  0  0  0  0  0  0  0  0  0
    4.1810   -2.0050   24.4890 C   0  0  0  0  0  0  0  0  0  0  0  0
    2.1410   -2.0630   25.8230 C   0  0  0  0  0  0  0  0  0  0  0  0
    3.9530   -0.6850   24.0590 C   0  0  0  0  0  0  0  0  0  0  0  0
    1.8690   -0.7530   25.4200 C   0  0  0  0  0  0  0  0  0  0  0  0
    1.3090   -2.5470   26.5760 O   0  0  0  0  0  0  0  0  0  0  0  0
    2.7140   -0.0220   24.5580 C   0  0  0  0  0  0  0  0  0  0  0  0
    1.0940   -1.8280   27.7270 C   0  0  0  0  0  0  0  0  0  0  0  0
    2.1130   -1.6650   28.6760 C   0  0  0  0  0  0  0  0  0  0  0  0
   -0.1650   -1.2360   27.9740 C   0  0  0  0  0  0  0  0  0  0  0  0
    1.8860   -0.9340   29.8350 C   0  0  0  0  0  0  0  0  0  0  0  0
   -0.3790   -0.4990   29.1520 C   0  0  0  0  0  0  0  0  0  0  0  0
   -1.2040   -1.3780   27.0500 C   0  0  0  0  0  0  0  0  0  0  0  0
    0.6550   -0.3580   30.0690 C   0  0  0  0  0  0  0  0  0  0  0  0
   -2.2060   -2.1210   27.8120 N   0  0  0  0  0  0  0  0  0  0  0  0
   -3.4770   -1.6800   27.5320 C   0  0  0  0  0  0  0  0  0  0  0  0
   -4.0310   -1.5380   26.3040 N   0  0  0  0  0  0  0  0  0  0  0  0
   -4.3290   -1.3310   28.5020 N   0  0  0  0  0  0  0  0  0  0  0  0
   -5.2700   -1.0830   26.5540 C   0  0  0  0  0  0  0  0  0  0  0  0
   -5.4960   -0.9390   27.9290 C   0  0  0  0  0  0  0  0  0  0  0  0
   -6.2830   -0.7620   25.6490 C   0  0  0  0  0  0  0  0  0  0  0  0
   -6.7190   -0.4780   28.4340 C   0  0  0  0  0  0  0  0  0  0  0  0
   -7.4960   -0.3040   26.1600 C   0  0  0  0  0  0  0  0  0  0  0  0
   -7.7280   -0.1590   27.5240 C   0  0  0  0  0  0  0  0  0  0  0  0
  1  2  1  0
  2  3  2  0
  2  4  1  0
  4  5  1  0
  4  6  1  0
  5  7  1  0
  6  8  1  0
  7  9  1  0
  8  9  1  0
  9 10  1  0
 10 11  2  0
 10 12  1  0
 12 13  1  0
 13 14  2  0
 13 15  1  0
 14 16  1  0
 15 17  2  0
 15 18  1  0
 16 19  2  0
 17 19  1  0
 18 20  1  0
 20 21  2  0
 20 22  1  0
 21 23  1  0
 22 24  2  0
 22 25  1  0
 23 26  2  0
 24 26  1  0
 25 27  1  0
 27 28  1  0
 28 29  2  0
 28 30  1  0
 29 31  1  0
 30 32  1  0
 31 32  2  0
 31 33  1  0
 32 34  1  0
 33 35  2  0
 34 36  2  0
 35 36  1  0
M  END
