MAK-UNK-af83ef51-20-vinylsulfonamide
     RDKit          3D

 28 29  0  0  0  0  0  0  0  0999 V2000
    7.6120   -2.8820   18.1610 C   0  0  0  0  0  0  0  0  0  0  0  0
    6.5180   -2.3070   19.0390 C   0  0  0  0  0  0  0  0  0  0  0  0
    5.8700   -3.3980   20.2700 S   0  0  0  0  0  0  0  0  0  0  0  0
    4.7270   -2.8740   20.8890 O   0  0  0  0  0  0  0  0  0  0  0  0
    5.7480   -4.7530   19.8120 O   0  0  0  0  0  0  0  0  0  0  0  0
    7.0160   -3.1280   21.4420 N   0  0  0  0  0  0  0  0  0  0  0  0
    7.5280   -1.7690   21.3480 C   0  0  0  0  0  0  0  0  0  0  0  0
    6.4540   -3.3410   22.7960 C   0  0  0  0  0  0  0  0  0  0  0  0
    8.2170   -1.3300   22.6300 C   0  0  0  0  0  0  0  0  0  0  0  0
    7.4610   -3.4550   23.7370 C   0  0  0  0  0  0  0  0  0  0  0  0
    8.4340   -2.3630   23.6700 N   0  0  0  0  0  0  0  0  0  0  0  0
    9.8170   -2.7620   23.6320 C   0  0  0  0  0  0  0  0  0  0  0  0
   10.7100   -1.5550   23.3910 C   0  0  0  0  0  0  0  0  0  0  0  0
   12.1460   -1.8300   22.9830 C   0  0  0  0  0  0  0  0  0  0  0  0
   10.2270   -0.0740   23.5390 C   0  0  0  0  0  0  0  0  0  0  0  0
   13.0540   -0.6600   22.7390 C   0  0  0  0  0  0  0  0  0  0  0  0
   11.0810    1.0220   23.3090 C   0  0  0  0  0  0  0  0  0  0  0  0
   12.5350    0.7520   22.9030 C   0  0  0  0  0  0  0  0  0  0  0  0
   10.5740    2.1310   23.4760 O   0  0  0  0  0  0  0  0  0  0  0  0
   11.2400    3.3550   23.1450 C   0  0  0  0  0  0  0  0  0  0  0  0
   10.7200    4.3210   24.0200 C   0  0  1  0  0  0  0  0  0  0  0  0
   10.1710    5.5130   23.4910 N   0  0  0  0  0  0  0  0  0  0  0  0
    9.7160    3.6660   24.8030 O   0  0  0  0  0  0  0  0  0  0  0  0
   10.9700    6.4610   22.6930 C   0  0  0  0  0  0  0  0  0  0  0  0
    9.0910    4.5420   25.7440 C   0  0  0  0  0  0  0  0  0  0  0  0
   12.1220    6.8820   23.6300 C   0  0  0  0  0  0  0  0  0  0  0  0
    8.1950    3.7610   26.7040 C   0  0  0  0  0  0  0  0  0  0  0  0
    7.4870    3.1880   27.4260 N   0  0  0  0  0  0  0  0  0  0  0  0
  1  2  1  0
  3  2  1  0
  3  4  2  0
  3  5  2  0
  3  6  1  0
  6  7  1  0
  6  8  1  0
  7  9  1  0
  8 10  1  0
  9 11  1  0
 10 11  1  0
 11 12  1  0
 12 13  1  0
 13 14  2  0
 13 15  1  0
 14 16  1  0
 15 17  2  0
 16 18  2  0
 17 18  1  0
 17 19  1  0
 19 20  1  0
 21 20  1  6
 21 22  1  0
 21 23  1  0
 22 24  1  0
 23 25  1  0
 24 26  1  0
 25 27  1  0
 27 28  3  0
M  END
