MAK-UNK-6ca90168-5-chloroacetamide
     RDKit          3D

 21 22  0  0  0  0  0  0  0  0999 V2000
    7.1650   -2.9580   18.7120 C   0  0  0  0  0  0  0  0  0  0  0  0
    6.1220   -3.1640   19.7490 C   0  0  0  0  0  0  0  0  0  0  0  0
    5.3050   -4.0840   19.6790 O   0  0  0  0  0  0  0  0  0  0  0  0
    6.1320   -2.2740   20.8110 N   0  0  0  0  0  0  0  0  0  0  0  0
    5.5940   -2.8430   22.0820 C   0  0  0  0  0  0  0  0  0  0  0  0
    7.2210   -1.2960   21.0070 C   0  0  0  0  0  0  0  0  0  0  0  0
    6.7310   -3.5340   22.8150 C   0  0  0  0  0  0  0  0  0  0  0  0
    8.3620   -1.8210   21.9010 C   0  0  0  0  0  0  0  0  0  0  0  0
    7.8640   -2.6430   23.0090 N   0  0  0  0  0  0  0  0  0  0  0  0
    8.7320   -3.1030   24.0500 C   0  0  0  0  0  0  0  0  0  0  0  0
    8.8070   -4.2410   24.4890 O   0  0  0  0  0  0  0  0  0  0  0  0
    9.5530   -2.0100   24.5940 C   0  0  0  0  0  0  0  0  0  0  0  0
    9.0080   -0.9640   24.9220 O   0  0  0  0  0  0  0  0  0  0  0  0
   10.9090   -2.2070   24.7250 C   0  0  0  0  0  0  0  0  0  0  0  0
   11.7750   -1.3290   24.0910 C   0  0  0  0  0  0  0  0  0  0  0  0
   11.4030   -3.2750   25.4860 C   0  0  0  0  0  0  0  0  0  0  0  0
   13.1340   -1.4650   24.2060 C   0  0  0  0  0  0  0  0  0  0  0  0
   12.7780   -3.4240   25.6220 C   0  0  0  0  0  0  0  0  0  0  0  0
   10.5400   -4.3190   26.2080 C   0  0  0  0  0  0  0  0  0  0  0  0
   13.5740   -2.5110   24.9780 C   0  0  0  0  0  0  0  0  0  0  0  0
    9.8380   -5.1240   26.7650 C   0  0  0  0  0  0  0  0  0  0  0  0
  1  2  1  0
  2  3  2  0
  2  4  1  0
  4  5  1  0
  4  6  1  0
  5  7  1  0
  6  8  1  0
  7  9  1  0
  8  9  1  0
  9 10  1  0
 10 11  2  0
 10 12  1  0
 12 13  2  0
 12 14  1  0
 14 15  2  0
 14 16  1  0
 15 17  1  0
 16 18  2  0
 16 19  1  0
 17 20  2  0
 18 20  1  0
 19 21  3  0
M  END
