MAK-UNK-a7992eb3-9-nitrile
     RDKit          3D

 30 33  0  0  0  0  0  0  0  0999 V2000
    6.4120   -4.6600   20.3870 C   0  0  0  0  0  0  0  0  0  0  0  0
    5.2650   -4.4020   19.8990 N   0  0  0  0  0  0  0  0  0  0  0  0
    6.6540   -5.0200   21.7030 N   0  0  0  0  0  0  0  0  0  0  0  0
    7.1940   -4.1080   22.7120 C   0  0  0  0  0  0  0  0  0  0  0  0
    6.0190   -6.1740   22.3930 C   0  0  0  0  0  0  0  0  0  0  0  0
    6.7100   -4.5490   24.0980 C   0  0  0  0  0  0  0  0  0  0  0  0
    4.8410   -5.7310   23.0110 C   0  0  0  0  0  0  0  0  0  0  0  0
    5.2110   -4.6920   24.1190 C   0  0  0  0  0  0  0  0  0  0  0  0
    4.5350   -5.1270   25.3070 C   0  0  0  0  0  0  0  0  0  0  0  0
    4.7410   -6.2350   25.7820 O   0  0  0  0  0  0  0  0  0  0  0  0
    3.5320   -4.1480   25.9210 N   0  0  0  0  0  0  0  0  0  0  0  0
    3.4700   -2.7220   25.5590 C   0  0  0  0  0  0  0  0  0  0  0  0
    4.6010   -2.0700   25.0460 C   0  0  0  0  0  0  0  0  0  0  0  0
    2.1990   -2.0860   25.7570 C   0  0  0  0  0  0  0  0  0  0  0  0
    4.3210   -0.6350   24.7180 C   0  0  0  0  0  0  0  0  0  0  0  0
    2.0420   -0.7490   25.4160 C   0  0  0  0  0  0  0  0  0  0  0  0
    1.1910   -2.6300   26.2140 O   0  0  0  0  0  0  0  0  0  0  0  0
    3.0790    0.0090   24.8940 C   0  0  0  0  0  0  0  0  0  0  0  0
   -0.0730   -2.0680   26.0980 C   0  0  0  0  0  0  0  0  0  0  0  0
   -0.4690   -1.4730   27.4280 C   0  0  0  0  0  0  0  0  0  0  0  0
   -1.7500   -0.9230   27.4050 C   0  0  0  0  0  0  0  0  0  0  0  0
    0.5300   -0.3830   27.8950 C   0  0  0  0  0  0  0  0  0  0  0  0
   -0.3500   -2.5590   28.5380 C   0  0  0  0  0  0  0  0  0  0  0  0
   -2.6590   -0.9700   28.4170 C   0  0  0  0  0  0  0  0  0  0  0  0
   -2.0460   -0.2620   26.1480 N   0  0  0  0  0  0  0  0  0  0  0  0
    0.4600   -0.5110   29.2790 C   0  0  0  0  0  0  0  0  0  0  0  0
    0.0810   -1.8150   29.6440 C   0  0  0  0  0  0  0  0  0  0  0  0
   -3.8640   -0.3560   28.1760 C   0  0  0  0  0  0  0  0  0  0  0  0
   -3.2040    0.3390   25.8920 C   0  0  0  0  0  0  0  0  0  0  0  0
   -4.1410    0.2740   26.9760 C   0  0  0  0  0  0  0  0  0  0  0  0
  1  2  2  3
  1  3  1  0
  3  4  1  0
  3  5  1  0
  4  6  1  0
  5  7  1  0
  6  8  1  0
  7  8  1  0
  8  9  1  0
  9 10  2  0
  9 11  1  0
 11 12  1  0
 12 13  2  0
 12 14  1  0
 13 15  1  0
 14 16  2  0
 14 17  1  0
 15 18  2  0
 16 18  1  0
 17 19  1  0
 20 19  1  0
 20 21  1  0
 20 22  1  0
 20 23  1  0
 21 24  2  0
 21 25  1  0
 22 26  1  0
 23 27  1  0
 26 27  1  0
 24 28  1  0
 25 29  2  0
 28 30  2  0
 29 30  1  0
M  END
