MAK-UNK-148caf23-13-chloroacetamide
     RDKit          3D

 35 38  0  0  0  0  0  0  0  0999 V2000
    8.8490   -3.7780   20.0520 C   0  0  0  0  0  0  0  0  0  0  0  0
    7.9980   -2.7370   20.2460 C   0  0  0  0  0  0  0  0  0  0  0  0
    6.8900   -2.9090   19.3390 O   0  0  0  0  0  0  0  0  0  0  0  0
    8.6430   -1.8730   21.5080 C   0  0  0  0  0  0  0  0  0  0  0  0
    8.1570   -2.1370   22.8650 C   0  0  0  0  0  0  0  0  0  0  0  0
    9.6870   -0.8670   21.6210 C   0  0  0  0  0  0  0  0  0  0  0  0
    8.6660   -1.4160   24.1080 C   0  0  0  0  0  0  0  0  0  0  0  0
   10.1460   -0.2040   22.7830 N   0  0  0  0  0  0  0  0  0  0  0  0
    9.6230   -0.4710   24.0010 C   0  0  0  0  0  0  0  0  0  0  0  0
   10.0150    0.1910   25.1740 N   0  0  0  0  0  0  0  0  0  0  0  0
    9.4130    0.0360   26.5240 C   0  0  0  0  0  0  0  0  0  0  0  0
    8.0570    0.1400   26.7840 C   0  0  1  0  0  0  0  0  0  0  0  0
    6.6760   -0.9220   26.5530 S   0  0  0  0  0  0  0  0  0  0  0  0
    8.2150   -0.0340   28.3340 C   0  0  0  0  0  0  0  0  0  0  0  0
    7.5430    1.6240   26.7170 C   0  0  0  0  0  0  0  0  0  0  0  0
    7.0980   -1.8560   25.5470 O   0  0  0  0  0  0  0  0  0  0  0  0
    6.1950   -1.3400   27.8510 O   0  0  0  0  0  0  0  0  0  0  0  0
    5.3910   -0.0220   25.8280 C   0  0  0  0  0  0  0  0  0  0  0  0
    7.8820    1.1390   28.9820 C   0  0  0  0  0  0  0  0  0  0  0  0
    7.4550    2.1790   27.9970 C   0  0  0  0  0  0  0  0  0  0  0  0
    7.1930    2.3870   25.5880 C   0  0  0  0  0  0  0  0  0  0  0  0
    5.5160    0.4650   24.3760 C   0  0  0  0  0  0  0  0  0  0  0  0
    4.2760    0.2450   26.5730 C   0  0  0  0  0  0  0  0  0  0  0  0
    8.1210    0.8020   30.4780 C   0  0  0  0  0  0  0  0  0  0  0  0
    7.5460    1.9340   24.3130 C   0  0  0  0  0  0  0  0  0  0  0  0
    6.4950    3.5960   25.6980 C   0  0  0  0  0  0  0  0  0  0  0  0
    4.2470    1.2780   23.9060 C   0  0  0  0  0  0  0  0  0  0  0  0
    3.2150    0.9220   26.1700 N   0  0  0  0  0  0  0  0  0  0  0  0
    9.1820    1.6500   30.5130 N   0  0  0  0  0  0  0  0  0  0  0  0
    7.2120    2.6640   23.1680 C   0  0  0  0  0  0  0  0  0  0  0  0
    6.1570    4.3300   24.5680 C   0  0  0  0  0  0  0  0  0  0  0  0
    6.1300    4.0840   26.8970 F   0  0  0  0  0  0  0  0  0  0  0  0
    3.0810    1.4660   24.9320 C   0  0  0  0  0  0  0  0  0  0  0  0
   10.3590    0.9860   30.3030 C   0  0  0  0  0  0  0  0  0  0  0  0
    6.5190    3.8560   23.3080 C   0  0  0  0  0  0  0  0  0  0  0  0
  1  2  1  0
  2  3  2  0
  2  4  1  0
  4  5  2  0
  4  6  1  0
  5  7  1  0
  6  8  2  0
  7  9  2  0
  8  9  1  0
  9 10  1  0
 10 11  1  0
 12 11  1  6
 12 13  1  0
 12 14  1  0
 12 15  1  0
 13 16  2  0
 13 17  2  0
 13 18  1  0
 14 19  2  0
 15 20  2  0
 19 20  1  0
 15 21  1  0
 18 22  2  0
 18 23  1  0
 19 24  1  0
 21 25  2  0
 21 26  1  0
 22 27  1  0
 23 28  2  0
 24 29  1  0
 25 30  1  0
 26 31  2  0
 26 32  1  0
 27 33  2  0
 28 33  1  0
 29 34  1  0
 30 35  2  0
 31 35  1  0
M  END
