MAK-UNK-5e88aa6a-12
     RDKit          3D

 12 12  0  0  0  0  0  0  0  0999 V2000
   11.7480   -0.0180   24.7580 C   0  0  0  0  0  0  0  0  0  0  0  0
   11.9160   -0.7860   23.5290 C   0  0  0  0  0  0  0  0  0  0  0  0
   13.2360   -0.6110   22.8050 C   0  0  0  0  0  0  0  0  0  0  0  0
   10.9420   -1.5880   23.1270 C   0  0  0  0  0  0  0  0  0  0  0  0
    9.5820   -1.8520   23.7920 C   0  0  0  0  0  0  0  0  0  0  0  0
    9.4040   -3.0520   24.3950 N   0  0  0  0  0  0  0  0  0  0  0  0
   10.4920   -3.3470   25.1920 C   0  0  0  0  0  0  0  0  0  0  0  0
    8.2580   -3.1340   25.1340 C   0  0  0  0  0  0  0  0  0  0  0  0
   10.3430   -4.5250   25.9700 C   0  0  0  0  0  0  0  0  0  0  0  0
    7.9820   -4.2230   25.9570 C   0  0  0  0  0  0  0  0  0  0  0  0
    9.1070   -4.7960   26.5710 C   0  0  0  0  0  0  0  0  0  0  0  0
    9.1750   -4.3900   27.8660 O   0  0  0  0  0  0  0  0  0  0  0  0
  1  2  1  0
  2  3  1  0
  2  4  2  3
  4  5  1  0
  5  6  1  0
  6  7  1  0
  6  8  1  0
  7  9  1  0
  8 10  1  0
  9 11  1  0
 10 11  1  0
 11 12  1  0
M  END
