MAK-UNK-ed378e62-32
     RDKit          3D

 14 15  0  0  0  0  0  0  0  0999 V2000
    9.1090   -3.0610   23.4820 N   0  0  0  0  0  0  0  0  0  0  0  0
    8.1740   -3.7370   23.3670 C   0  0  0  0  0  0  0  0  0  0  0  0
    7.0250   -4.5470   23.2350 C   0  0  0  0  0  0  0  0  0  0  0  0
    6.8320   -5.2120   22.1270 N   0  0  0  0  0  0  0  0  0  0  0  0
    6.2080   -4.5410   24.3180 N   0  0  0  0  0  0  0  0  0  0  0  0
    5.7040   -5.9550   22.0850 C   0  0  0  0  0  0  0  0  0  0  0  0
    5.0970   -5.2930   24.2500 C   0  0  0  0  0  0  0  0  0  0  0  0
    4.7800   -6.0260   23.1520 C   0  0  0  0  0  0  0  0  0  0  0  0
    3.3610   -6.9150   23.1910 S   0  0  0  0  0  0  0  0  0  0  0  0
    2.0860   -5.8660   23.7960 C   0  0  0  0  0  0  0  0  0  0  0  0
    0.6570   -5.9670   23.3620 C   0  0  0  0  0  0  0  0  0  0  0  0
    2.2500   -4.6020   24.9500 S   0  0  0  0  0  0  0  0  0  0  0  0
   -0.1390   -5.0440   23.9900 C   0  0  0  0  0  0  0  0  0  0  0  0
    0.5700   -4.2340   24.8780 C   0  0  0  0  0  0  0  0  0  0  0  0
  1  2  3  0
  2  3  1  0
  3  4  2  0
  3  5  1  0
  4  6  1  0
  5  7  2  0
  6  8  2  0
  7  8  1  0
  8  9  1  0
  9 10  1  0
 10 11  2  0
 10 12  1  0
 11 13  1  0
 12 14  1  0
 13 14  2  0
M  END
