MAK-UNK-987948f6-1-acrylamide
     RDKit          3D

 27 29  0  0  0  0  0  0  0  0999 V2000
    7.4860   -2.9250   18.7920 C   0  0  0  0  0  0  0  0  0  0  0  0
    6.9430   -2.4120   20.1680 C   0  0  0  0  0  0  0  0  0  0  0  0
    5.5910   -3.0590   20.4300 C   0  0  0  0  0  0  0  0  0  0  0  0
    4.7260   -2.9390   21.3020 O   0  0  0  0  0  0  0  0  0  0  0  0
    5.1930   -3.9750   19.6350 N   0  0  0  0  0  0  0  0  0  0  0  0
    4.0890   -3.1680   18.8400 C   0  0  0  0  0  0  0  0  0  0  0  0
    5.3690   -5.1070   20.6150 C   0  0  0  0  0  0  0  0  0  0  0  0
    1.5280   -3.7220   17.2070 C   0  0  0  0  0  0  0  0  0  0  0  0
    5.1550   -4.6490   22.1160 C   0  0  1  0  0  0  0  0  0  0  0  0
    0.6020   -3.1400   16.2920 C   0  0  0  0  0  0  0  0  0  0  0  0
    0.7040   -5.0210   17.0590 N   0  0  0  0  0  0  0  0  0  0  0  0
    4.1680   -5.5460   22.9250 C   0  0  2  0  0  0  0  0  0  0  0  0
    6.4950   -4.6070   22.8200 N   0  0  0  0  0  0  0  0  0  0  0  0
   -0.5000   -3.8670   15.8360 C   0  0  0  0  0  0  0  0  0  0  0  0
   -0.4320   -4.8610   16.2980 O   0  0  0  0  0  0  0  0  0  0  0  0
    3.5030   -4.8010   23.9430 O   0  0  0  0  0  0  0  0  0  0  0  0
    4.9170   -6.6980   23.5440 C   0  0  0  0  0  0  0  0  0  0  0  0
    6.8320   -5.8090   23.4180 C   0  0  0  0  0  0  0  0  0  0  0  0
    7.5050   -4.1540   22.0760 C   0  0  0  0  0  0  0  0  0  0  0  0
   -1.5210   -3.4880   14.9670 C   0  0  0  0  0  0  0  0  0  0  0  0
    6.1460   -6.9410   22.6850 C   0  0  0  0  0  0  0  0  0  0  0  0
    8.7510   -3.4760   22.6720 C   0  0  0  0  0  0  0  0  0  0  0  0
    9.0960   -2.0720   22.0530 C   0  0  0  0  0  0  0  0  0  0  0  0
    9.4070   -4.2120   23.6740 C   0  0  0  0  0  0  0  0  0  0  0  0
   10.3870   -1.7030   22.8570 C   0  0  0  0  0  0  0  0  0  0  0  0
   10.5250   -3.7600   24.2840 C   0  0  0  0  0  0  0  0  0  0  0  0
   11.0440   -2.5580   23.9350 C   0  0  0  0  0  0  0  0  0  0  0  0
  1  2  1  0
  2  3  1  0
  3  4  2  0
  3  5  1  0
  5  6  1  0
  5  7  1  0
  6  8  1  0
  9  7  1  6
  8 10  1  0
  8 11  2  0
  9 12  1  0
  9 13  1  0
 10 14  2  0
 11 15  1  0
 14 15  1  0
 12 16  1  1
 12 17  1  0
 13 18  1  0
 13 19  1  0
 14 20  1  0
 17 21  1  0
 18 21  1  0
 19 22  1  0
 22 23  2  0
 22 24  1  0
 23 25  1  0
 24 26  2  0
 25 27  2  0
 26 27  1  0
M  END
