MAK-UNK-9a6be56d-10
     RDKit          3D

 38 42  0  0  0  0  0  0  0  0999 V2000
    7.7530    0.8790   20.9250 C   0  0  0  0  0  0  0  0  0  0  0  0
    7.9650   -0.5390   20.6540 N   0  0  0  0  0  0  0  0  0  0  0  0
    8.9900   -1.0910   21.5590 C   0  0  0  0  0  0  0  0  0  0  0  0
    8.4830   -1.0300   22.8250 C   0  0  0  0  0  0  0  0  0  0  0  0
    7.1770   -1.3210   22.9050 C   0  0  0  0  0  0  0  0  0  0  0  0
    9.0490   -0.7180   24.0830 C   0  0  0  0  0  0  0  0  0  0  0  0
    6.6960   -1.2320   24.2640 N   0  0  0  0  0  0  0  0  0  0  0  0
    7.9080   -0.8330   25.0280 C   0  0  0  0  0  0  0  0  0  0  0  0
   10.4000   -0.4010   24.2110 N   0  0  0  0  0  0  0  0  0  0  0  0
    5.0720   -1.5550   24.6360 S   0  0  0  0  0  0  0  0  0  0  0  0
    7.7670   -0.6340   26.5560 C   0  0  0  0  0  0  0  0  0  0  0  0
   11.3010   -1.5780   24.0750 C   0  0  0  0  0  0  0  0  0  0  0  0
   10.9800    0.8310   23.8140 C   0  0  0  0  0  0  0  0  0  0  0  0
    5.0920   -2.5160   25.7160 O   0  0  0  0  0  0  0  0  0  0  0  0
    4.4100   -1.8740   23.3880 O   0  0  0  0  0  0  0  0  0  0  0  0
    4.4080   -0.0110   25.2160 C   0  0  0  0  0  0  0  0  0  0  0  0
    6.3960   -0.9470   27.2170 C   0  0  0  0  0  0  0  0  0  0  0  0
    8.7950   -0.2010   27.3660 C   0  0  0  0  0  0  0  0  0  0  0  0
   12.2340   -1.4270   23.0310 C   0  0  0  0  0  0  0  0  0  0  0  0
   12.2680    0.8700   23.2720 C   0  0  0  0  0  0  0  0  0  0  0  0
   10.3280    2.1820   23.9210 C   0  0  0  0  0  0  0  0  0  0  0  0
    3.7940    0.0870   26.4640 C   0  0  0  0  0  0  0  0  0  0  0  0
    4.4800    1.1610   24.4390 C   0  0  0  0  0  0  0  0  0  0  0  0
    6.2100   -0.7780   28.7370 C   0  0  0  0  0  0  0  0  0  0  0  0
    8.6360   -0.0290   28.8780 C   0  0  0  0  0  0  0  0  0  0  0  0
    9.9570    0.0560   26.7890 F   0  0  0  0  0  0  0  0  0  0  0  0
   13.0190   -0.2820   23.0910 C   0  0  0  0  0  0  0  0  0  0  0  0
   12.9630    1.9830   22.8560 C   0  0  0  0  0  0  0  0  0  0  0  0
   11.0230    3.3070   23.4980 C   0  0  0  0  0  0  0  0  0  0  0  0
    3.2580    1.4300   26.8900 C   0  0  0  0  0  0  0  0  0  0  0  0
    3.9990    2.3960   24.8050 N   0  0  0  0  0  0  0  0  0  0  0  0
    7.4130   -0.3020   29.5200 C   0  0  0  0  0  0  0  0  0  0  0  0
   12.3100    3.2030   22.9750 C   0  0  0  0  0  0  0  0  0  0  0  0
   10.2580    4.9040   23.6360 S   0  0  0  0  0  0  0  0  0  0  0  0
    3.4040    2.4930   26.0180 C   0  0  0  0  0  0  0  0  0  0  0  0
   11.3640    5.9450   22.9180 N   0  0  0  0  0  0  0  0  0  0  0  0
    9.0790    4.9230   22.8160 O   0  0  0  0  0  0  0  0  0  0  0  0
   10.1590    5.3080   25.0160 O   0  0  0  0  0  0  0  0  0  0  0  0
  1  2  1  0
  2  3  1  0
  3  4  1  0
  4  5  2  0
  4  6  1  0
  5  7  1  0
  6  8  2  0
  7  8  1  0
  6  9  1  0
  7 10  1  0
  8 11  1  0
  9 12  1  0
  9 13  1  0
 10 14  2  0
 10 15  2  0
 10 16  1  0
 11 17  2  0
 11 18  1  0
 12 19  1  0
 13 20  2  0
 13 21  1  0
 16 22  2  0
 16 23  1  0
 17 24  1  0
 18 25  2  0
 18 26  1  0
 19 27  1  0
 20 27  1  0
 20 28  1  0
 21 29  2  0
 22 30  1  0
 23 31  2  0
 24 32  2  0
 25 32  1  0
 28 33  2  0
 29 33  1  0
 29 34  1  0
 30 35  2  0
 31 35  1  0
 34 36  1  0
 34 37  2  0
 34 38  2  0
M  END
