MAK-UNK-5d2caa6f-4-bromoalkyne
     RDKit          3D

 22 25  0  0  0  0  0  0  0  0999 V2000
    6.9980   -3.4000   19.6460 C   0  0  0  0  0  0  0  0  0  0  0  0
    5.8600   -2.9330   18.8050 C   0  0  0  0  0  0  0  0  0  0  0  0
    7.1060   -2.9910   20.9500 N   0  0  0  0  0  0  0  0  0  0  0  0
    7.0890   -3.8450   22.1200 C   0  0  0  0  0  0  0  0  0  0  0  0
    7.9540   -1.8520   21.3340 C   0  0  2  0  0  0  0  0  0  0  0  0
    8.4130   -3.4000   22.8270 C   0  0  1  0  0  0  0  0  0  0  0  0
    9.2120   -2.5590   21.7890 C   0  0  0  0  0  0  0  0  0  0  0  0
    7.5540   -1.2510   22.6990 C   0  0  0  0  0  0  0  0  0  0  0  0
    8.0940   -2.2590   23.6520 N   0  0  0  0  0  0  0  0  0  0  0  0
    9.0990   -1.9210   24.6530 C   0  0  1  0  0  0  0  0  0  0  0  0
   10.3770   -1.2340   24.0610 C   0  0  0  0  0  0  0  0  0  0  0  0
    8.4370   -1.2620   25.9290 C   0  0  0  0  0  0  0  0  0  0  0  0
   11.3590   -1.9040   23.0730 C   0  0  0  0  0  0  0  0  0  0  0  0
   10.7120    0.0680   24.4120 C   0  0  0  0  0  0  0  0  0  0  0  0
    7.7580   -2.1970   26.9510 C   0  0  0  0  0  0  0  0  0  0  0  0
    9.2600   -0.2070   26.6860 C   0  0  0  0  0  0  0  0  0  0  0  0
   12.5000   -1.1960   22.5980 C   0  0  0  0  0  0  0  0  0  0  0  0
   11.8470    0.7170   23.9140 C   0  0  0  0  0  0  0  0  0  0  0  0
    6.7380   -1.4070   27.8060 C   0  0  0  0  0  0  0  0  0  0  0  0
    8.8190   -0.0700   28.1460 C   0  0  0  0  0  0  0  0  0  0  0  0
   12.7240    0.1060   23.0330 C   0  0  0  0  0  0  0  0  0  0  0  0
    7.3010   -0.0740   28.2800 C   0  0  0  0  0  0  0  0  0  0  0  0
  1  2  2  3
  1  3  1  0
  3  4  1  0
  3  5  1  0
  6  4  1  6
  5  7  1  0
  6  7  1  0
  5  8  1  1
  6  9  1  0
  8  9  1  0
  9 10  1  0
 10 11  1  6
 10 12  1  0
 11 13  2  0
 11 14  1  0
 12 15  1  0
 12 16  1  0
 13 17  1  0
 14 18  2  0
 15 19  1  0
 16 20  1  0
 17 21  2  0
 18 21  1  0
 19 22  1  0
 20 22  1  0
M  END
