MAK-UNK-8fdbca50-39-vinylsulfonamide
     RDKit          3D

 41 44  0  0  0  0  0  0  0  0999 V2000
    7.4630   -3.5950   19.7950 C   0  0  0  0  0  0  0  0  0  0  0  0
    7.3670   -4.3330   21.1140 C   0  0  0  0  0  0  0  0  0  0  0  0
    6.4830   -3.2540   22.1530 S   0  0  0  0  0  0  0  0  0  0  0  0
    5.0210   -3.3360   21.4110 O   0  0  0  0  0  0  0  0  0  0  0  0
    6.5490   -3.8440   23.4710 O   0  0  0  0  0  0  0  0  0  0  0  0
    7.8520   -1.9650   22.1800 N   0  0  0  0  0  0  0  0  0  0  0  0
    9.3030   -2.1580   21.6340 C   0  0  0  0  0  0  0  0  0  0  0  0
    7.8960   -0.7820   23.0920 C   0  0  0  0  0  0  0  0  0  0  0  0
   10.4760   -2.1050   22.6180 C   0  0  0  0  0  0  0  0  0  0  0  0
    9.3090   -0.2720   23.0980 C   0  0  0  0  0  0  0  0  0  0  0  0
   10.0330   -1.4390   23.7070 C   0  0  0  0  0  0  0  0  0  0  0  0
   10.6910   -0.9690   24.7660 C   0  0  0  0  0  0  0  0  0  0  0  0
    9.8280   -0.4090   25.7100 C   0  0  0  0  0  0  0  0  0  0  0  0
   12.0900   -1.0590   24.8320 N   0  0  0  0  0  0  0  0  0  0  0  0
    8.3340   -0.3980   25.3490 N   0  0  0  0  0  0  0  0  0  0  0  0
   12.6250   -0.1170   24.0230 C   0  0  0  0  0  0  0  0  0  0  0  0
   12.6310   -2.2740   24.5920 C   0  0  0  0  0  0  0  0  0  0  0  0
    7.3880   -1.5510   25.6270 C   0  0  0  0  0  0  0  0  0  0  0  0
   13.1930   -2.3790   23.1910 C   0  0  0  0  0  0  0  0  0  0  0  0
   13.7330   -2.6410   25.5680 C   0  0  0  0  0  0  0  0  0  0  0  0
    6.9860   -1.3030   26.9600 C   0  0  0  0  0  0  0  0  0  0  0  0
    6.3610   -2.2370   27.9560 C   0  0  0  0  0  0  0  0  0  0  0  0
    7.1710   -0.1350   27.4030 C   0  0  0  0  0  0  0  0  0  0  0  0
    6.2080   -1.2350   29.2250 C   0  0  0  0  0  0  0  0  0  0  0  0
    6.7550   -0.0590   28.6330 N   0  0  0  0  0  0  0  0  0  0  0  0
    6.1780   -0.2160   30.1620 C   0  0  0  0  0  0  0  0  0  0  0  0
    6.9480    1.5120   29.3290 S   0  0  0  0  0  0  0  0  0  0  0  0
    5.4810    0.1690   31.3980 C   0  0  0  0  0  0  0  0  0  0  0  0
    5.2220   -0.9290   30.7510 C   0  0  0  0  0  0  0  0  0  0  0  0
    5.7840    1.8820   30.1080 O   0  0  0  0  0  0  0  0  0  0  0  0
    7.3050    2.3340   28.1930 O   0  0  0  0  0  0  0  0  0  0  0  0
    8.3540    1.4830   30.3320 C   0  0  0  0  0  0  0  0  0  0  0  0
    5.0090   -1.1380   30.8380 C   0  0  0  0  0  0  0  0  0  0  0  0
    4.7600   -0.2370   31.9590 C   0  0  0  0  0  0  0  0  0  0  0  0
    4.7290   -2.1160   30.3260 F   0  0  0  0  0  0  0  0  0  0  0  0
    9.2790    0.4400   30.3000 C   0  0  0  0  0  0  0  0  0  0  0  0
    8.5660    2.5470   31.1990 C   0  0  0  0  0  0  0  0  0  0  0  0
    4.0730   -1.3260   31.8660 C   0  0  0  0  0  0  0  0  0  0  0  0
   10.3830    0.5030   31.1410 C   0  0  0  0  0  0  0  0  0  0  0  0
    9.6370    2.6320   32.0290 N   0  0  0  0  0  0  0  0  0  0  0  0
   10.5190    1.6100   31.9840 C   0  0  0  0  0  0  0  0  0  0  0  0
  1  2  1  0
  3  2  1  0
  3  4  2  0
  3  5  2  0
  3  6  1  0
  6  7  1  0
  6  8  1  0
  7  9  1  0
  8 10  1  0
  9 11  1  0
 10 11  1  0
 11 12  1  0
 12 13  2  3
 12 14  1  0
 13 15  1  0
 14 16  1  0
 14 17  1  0
 15 18  1  0
 17 19  1  0
 17 20  1  0
 18 21  1  0
 21 22  1  0
 21 23  2  0
 22 24  2  0
 23 25  1  0
 24 25  1  0
 24 26  1  0
 25 27  1  0
 26 28  2  0
 26 29  1  0
 27 30  2  0
 27 31  2  0
 27 32  1  0
 28 33  1  0
 29 34  2  0
 29 35  1  0
 32 36  2  0
 32 37  1  0
 33 38  2  0
 34 38  1  0
 36 39  1  0
 37 40  2  0
 39 41  2  0
 40 41  1  0
M  END
