MAK-UNK-30aad1f1-12-acrylamide
     RDKit          3D

 27 29  0  0  0  0  0  0  0  0999 V2000
    7.9630   -5.1440   21.0080 C   0  0  0  0  0  0  0  0  0  0  0  0
    6.7750   -5.8090   21.1980 C   0  0  0  0  0  0  0  0  0  0  0  0
    5.6500   -4.9170   21.5900 C   0  0  0  0  0  0  0  0  0  0  0  0
    4.8720   -4.0630   22.0410 O   0  0  0  0  0  0  0  0  0  0  0  0
    6.9340   -4.4190   22.3310 C   0  0  0  0  0  0  0  0  0  0  0  0
    7.4110   -2.9680   22.4070 C   0  0  0  0  0  0  0  0  0  0  0  0
    7.8330   -5.3290   22.9810 C   0  0  0  0  0  0  0  0  0  0  0  0
    8.7460   -2.7010   23.1030 C   0  0  0  0  0  0  0  0  0  0  0  0
    9.0470   -5.0350   23.6120 N   0  0  0  0  0  0  0  0  0  0  0  0
    9.5340   -3.7540   23.6780 C   0  0  0  0  0  0  0  0  0  0  0  0
   10.8320   -3.4370   24.2990 N   0  0  0  0  0  0  0  0  0  0  0  0
   11.0410   -2.1010   23.7570 C   0  0  0  0  0  0  0  0  0  0  0  0
    9.7720   -1.5910   23.9120 C   0  0  0  0  0  0  0  0  0  0  0  0
   12.0990   -1.3870   23.1720 C   0  0  0  0  0  0  0  0  0  0  0  0
    9.4350   -0.3690   23.4380 C   0  0  0  0  0  0  0  0  0  0  0  0
   11.7010   -0.0030   22.6410 C   0  0  0  0  0  0  0  0  0  0  0  0
   10.3460    0.3820   22.7990 C   0  0  0  0  0  0  0  0  0  0  0  0
    9.7550    1.4390   22.3480 N   0  0  0  0  0  0  0  0  0  0  0  0
    8.6980    0.6830   21.5810 C   0  0  0  0  0  0  0  0  0  0  0  0
    8.9620   -0.3610   21.0390 O   0  0  0  0  0  0  0  0  0  0  0  0
    7.4440    1.1610   21.5810 N   0  0  0  0  0  0  0  0  0  0  0  0
    6.6620    1.0070   20.3210 C   0  0  0  0  0  0  0  0  0  0  0  0
    5.4080    1.8170   20.2260 C   0  0  0  0  0  0  0  0  0  0  0  0
    6.9920    0.1940   19.2360 C   0  0  0  0  0  0  0  0  0  0  0  0
    4.7110    1.7100   19.1120 C   0  0  0  0  0  0  0  0  0  0  0  0
    6.2630    0.0920   18.0610 N   0  0  0  0  0  0  0  0  0  0  0  0
    5.1120    0.8450   17.9780 C   0  0  0  0  0  0  0  0  0  0  0  0
  1  2  1  0
  2  3  1  0
  3  4  2  0
  3  5  1  0
  5  6  2  0
  5  7  1  0
  6  8  1  0
  7  9  2  0
  8 10  2  0
  9 10  1  0
 10 11  1  0
 11 12  1  0
 12 13  2  0
 12 14  1  0
 13 15  1  0
 14 16  2  0
 15 17  2  0
 16 17  1  0
 17 18  1  0
 18 19  1  0
 19 20  2  0
 19 21  1  0
 21 22  1  0
 22 23  2  0
 22 24  1  0
 23 25  1  0
 24 26  2  0
 25 27  2  0
 26 27  1  0
M  END
