MAK-UNK-ec98eaf6-24-chloroacetamide
     RDKit          3D

 23 26  0  0  0  0  0  0  0  0999 V2000
    7.1990   -2.9960   18.8070 C   0  0  0  0  0  0  0  0  0  0  0  0
    6.2410   -3.2730   19.9200 C   0  0  0  0  0  0  0  0  0  0  0  0
    5.4310   -4.2090   19.8040 O   0  0  0  0  0  0  0  0  0  0  0  0
    6.3520   -2.4320   21.0080 N   0  0  0  0  0  0  0  0  0  0  0  0
    7.1780   -1.1710   20.9610 C   0  0  0  0  0  0  0  0  0  0  0  0
    6.3370   -2.8720   22.4490 C   0  0  2  0  0  0  0  0  0  0  0  0
    7.5570   -1.1530   22.4440 C   0  0  1  0  0  0  0  0  0  0  0  0
    6.3130   -1.5470   23.2000 C   0  0  0  0  0  0  0  0  0  0  0  0
    7.5240   -3.5290   22.6840 C   0  0  0  0  0  0  0  0  0  0  0  0
    8.4290   -2.3270   22.7420 N   0  0  0  0  0  0  0  0  0  0  0  0
    9.2990   -2.1850   23.9030 C   0  0  0  0  0  0  0  0  0  0  0  0
   10.2440   -1.1750   23.6850 C   0  0  0  0  0  0  0  0  0  0  0  0
   10.0690    0.0730   24.3360 C   0  0  0  0  0  0  0  0  0  0  0  0
   11.3600   -1.3460   22.8190 C   0  0  0  0  0  0  0  0  0  0  0  0
   11.1140    1.1020   24.0330 C   0  0  0  0  0  0  0  0  0  0  0  0
   12.3260   -0.3330   22.6280 C   0  0  0  0  0  0  0  0  0  0  0  0
   11.5200   -2.4780   22.1440 C   0  0  0  0  0  0  0  0  0  0  0  0
   11.1590    2.3610   24.4470 O   0  0  0  0  0  0  0  0  0  0  0  0
   12.1810    0.8510   23.2370 C   0  0  0  0  0  0  0  0  0  0  0  0
   13.3710   -0.5540   21.8170 C   0  0  0  0  0  0  0  0  0  0  0  0
   12.5710   -2.6870   21.2890 C   0  0  0  0  0  0  0  0  0  0  0  0
   11.3360    3.3240   23.4050 C   0  0  0  0  0  0  0  0  0  0  0  0
   13.4720   -1.7240   21.1440 C   0  0  0  0  0  0  0  0  0  0  0  0
  1  2  1  0
  2  3  2  0
  2  4  1  0
  4  5  1  0
  4  6  1  0
  7  5  1  6
  6  8  1  0
  7  8  1  0
  6  9  1  1
  7 10  1  0
  9 10  1  0
 10 11  1  0
 11 12  1  0
 12 13  2  0
 12 14  1  0
 13 15  1  0
 14 16  2  0
 14 17  1  0
 15 18  1  0
 15 19  2  0
 16 19  1  0
 16 20  1  0
 17 21  2  0
 18 22  1  0
 20 23  2  0
 21 23  1  0
M  END
