MAK-UNK-516d8086-21-nitrile
     RDKit          3D

 22 24  0  0  0  0  0  0  0  0999 V2000
    7.3890   -3.4420   19.5550 C   0  0  0  0  0  0  0  0  0  0  0  0
    6.3980   -3.1710   18.7970 N   0  0  0  0  0  0  0  0  0  0  0  0
    7.1780   -3.9070   20.9460 C   0  0  0  0  0  0  0  0  0  0  0  0
    5.7840   -4.2030   21.4450 C   0  0  0  0  0  0  0  0  0  0  0  0
    8.2120   -4.1060   21.8490 C   0  0  0  0  0  0  0  0  0  0  0  0
    5.5350   -4.6420   22.6880 N   0  0  0  0  0  0  0  0  0  0  0  0
    7.9440   -4.5770   23.1320 C   0  0  0  0  0  0  0  0  0  0  0  0
    6.6060   -4.8260   23.5110 C   0  0  0  0  0  0  0  0  0  0  0  0
    8.9850   -4.8140   24.0430 C   0  0  0  0  0  0  0  0  0  0  0  0
    6.3220   -5.3140   24.8630 N   0  0  0  0  0  0  0  0  0  0  0  0
    9.9770   -3.8200   24.1660 C   0  0  0  0  0  0  0  0  0  0  0  0
    5.5680   -4.3590   25.6920 C   0  0  0  0  0  0  0  0  0  0  0  0
   11.1440   -3.9860   24.8710 C   0  0  0  0  0  0  0  0  0  0  0  0
    9.7290   -2.7090   23.5790 C   0  0  0  0  0  0  0  0  0  0  0  0
    6.2420   -2.9890   25.7270 C   0  0  0  0  0  0  0  0  0  0  0  0
   12.2350   -2.9400   24.9920 N   0  0  0  0  0  0  0  0  0  0  0  0
   10.7940   -1.7390   23.7510 C   0  0  0  0  0  0  0  0  0  0  0  0
   11.9620   -1.7780   24.3650 C   0  0  0  0  0  0  0  0  0  0  0  0
   10.5350   -0.4090   23.1240 C   0  0  0  0  0  0  0  0  0  0  0  0
    9.4050   -0.7430   23.4620 O   0  0  0  0  0  0  0  0  0  0  0  0
   11.8650   -0.5010   22.9720 N   0  0  0  0  0  0  0  0  0  0  0  0
   12.6020   -0.6630   24.2100 C   0  0  0  0  0  0  0  0  0  0  0  0
  1  2  2  3
  1  3  1  0
  3  4  2  0
  3  5  1  0
  4  6  1  0
  5  7  2  0
  6  8  2  0
  7  8  1  0
  7  9  1  0
  8 10  1  0
  9 11  1  0
 10 12  1  0
 11 13  2  0
 11 14  1  0
 12 15  1  0
 13 16  1  0
 14 17  2  0
 16 18  2  0
 17 18  1  0
 17 19  1  0
 19 20  2  0
 19 21  1  0
 18 22  1  0
 21 22  1  0
M  END
