MAK-UNK-198e6d85-14
     RDKit          3D

 23 25  0  0  0  0  0  0  0  0999 V2000
    8.6210   -4.6170   27.8450 N   0  0  0  0  0  0  0  0  0  0  0  0
    9.5470   -4.5290   26.8880 C   0  0  0  0  0  0  0  0  0  0  0  0
   10.3240   -4.6870   25.5880 C   0  0  1  0  0  0  0  0  0  0  0  0
    9.7150   -5.0760   24.5940 O   0  0  0  0  0  0  0  0  0  0  0  0
   11.2640   -3.5530   25.2340 C   0  0  0  0  0  0  0  0  0  0  0  0
    9.2560   -4.1700   23.6590 C   0  0  1  0  0  0  0  0  0  0  0  0
   10.7120   -2.5510   24.4610 C   0  0  0  0  0  0  0  0  0  0  0  0
   12.7440   -3.4780   25.6600 C   0  0  0  0  0  0  0  0  0  0  0  0
    7.9230   -4.5790   23.0470 C   0  0  1  0  0  0  0  0  0  0  0  0
    9.4030   -2.7590   24.1540 C   0  0  0  0  0  0  0  0  0  0  0  0
   13.4870   -2.2390   25.1400 C   0  0  0  0  0  0  0  0  0  0  0  0
   11.4050   -1.4450   24.0080 C   0  0  0  0  0  0  0  0  0  0  0  0
    7.0140   -5.1030   24.1510 C   0  0  2  0  0  0  0  0  0  0  0  0
    7.3620   -3.7150   22.0850 C   0  0  2  0  0  0  0  0  0  0  0  0
   12.7420   -1.2410   24.3010 C   0  0  0  0  0  0  0  0  0  0  0  0
   10.8570   -0.4710   23.2370 O   0  0  0  0  0  0  0  0  0  0  0  0
    7.7910   -5.2490   25.3480 O   0  0  0  0  0  0  0  0  0  0  0  0
    6.8840   -5.9340   22.9020 C   0  0  0  0  0  0  0  0  0  0  0  0
    6.1310   -4.1650   21.6290 C   0  0  2  0  0  0  0  0  0  0  0  0
    8.3570   -3.4010   21.2050 O   0  0  0  0  0  0  0  0  0  0  0  0
   13.4040   -0.1620   23.8530 O   0  0  0  0  0  0  0  0  0  0  0  0
    5.8980   -5.4560   22.0590 C   0  0  0  0  0  0  0  0  0  0  0  0
    6.0860   -3.8490   20.3040 O   0  0  0  0  0  0  0  0  0  0  0  0
  1  2  1  0
  3  2  1  1
  3  4  1  0
  3  5  1  0
  4  6  1  0
  5  7  2  0
  5  8  1  0
  9  6  1  1
  6 10  1  1
  7 10  1  0
  8 11  2  0
  7 12  1  0
  9 13  1  0
  9 14  1  0
 11 15  1  0
 12 15  2  0
 12 16  1  0
 13 17  1  1
 13 18  1  0
 14 19  1  0
 14 20  1  6
 15 21  1  0
 18 22  1  0
 19 22  1  0
 19 23  1  6
M  END
