MAK-UNK-10799360-15-chloroacetamide
     RDKit          3D

 28 31  0  0  0  0  0  0  0  0999 V2000
    7.3210   -3.0340   18.8680 C   0  0  0  0  0  0  0  0  0  0  0  0
    6.3080   -3.3650   19.9760 C   0  0  0  0  0  0  0  0  0  0  0  0
    5.4110   -4.1880   19.7710 O   0  0  0  0  0  0  0  0  0  0  0  0
    6.4450   -2.7370   21.1970 N   0  0  0  0  0  0  0  0  0  0  0  0
    7.5240   -1.7920   21.3250 C   0  0  0  0  0  0  0  0  0  0  0  0
    6.5480   -3.5470   22.4280 C   0  0  2  0  0  0  0  0  0  0  0  0
    8.5220   -2.7240   22.0560 C   0  0  2  0  0  0  0  0  0  0  0  0
    6.9500   -2.7920   23.7350 C   0  0  1  0  0  0  0  0  0  0  0  0
    7.7950   -4.0960   22.1880 C   0  0  0  0  0  0  0  0  0  0  0  0
    8.3350   -2.2000   23.4480 C   0  0  0  0  0  0  0  0  0  0  0  0
    6.1650   -1.5080   24.0800 C   0  0  0  0  0  0  0  0  0  0  0  0
    6.8330   -1.1710   25.4170 C   0  0  0  0  0  0  0  0  0  0  0  0
    8.0820   -0.2730   25.4280 C   0  0  0  0  0  0  0  0  0  0  0  0
    7.8650    1.1030   25.3320 C   0  0  0  0  0  0  0  0  0  0  0  0
    8.8620    1.7060   24.4180 N   0  0  0  0  0  0  0  0  0  0  0  0
    8.3250    2.8100   23.6020 C   0  0  0  0  0  0  0  0  0  0  0  0
   10.1550    1.2430   24.1070 C   0  0  0  0  0  0  0  0  0  0  0  0
    9.2840    3.8090   23.4910 C   0  0  0  0  0  0  0  0  0  0  0  0
   11.0000    2.1580   23.4300 C   0  0  0  0  0  0  0  0  0  0  0  0
   10.6500   -0.0550   24.4190 C   0  0  0  0  0  0  0  0  0  0  0  0
   10.5660    3.4410   23.1080 C   0  0  0  0  0  0  0  0  0  0  0  0
   12.3710    1.7500   23.0530 C   0  0  0  0  0  0  0  0  0  0  0  0
   11.9600   -0.4710   24.0690 C   0  0  0  0  0  0  0  0  0  0  0  0
   12.8230    0.3850   23.3970 C   0  0  0  0  0  0  0  0  0  0  0  0
   12.5510   -2.0980   24.4720 S   0  0  0  0  0  0  0  0  0  0  0  0
   13.5670   -2.4040   23.1840 N   0  0  0  0  0  0  0  0  0  0  0  0
   13.4080   -2.0180   25.6280 O   0  0  0  0  0  0  0  0  0  0  0  0
   11.4660   -3.0470   24.4030 O   0  0  0  0  0  0  0  0  0  0  0  0
  1  2  1  0
  2  3  2  0
  2  4  1  0
  4  5  1  0
  6  4  1  6
  7  5  1  6
  6  8  1  0
  6  9  1  0
  7  9  1  0
  7 10  1  0
  8 10  1  0
  8 11  1  6
 11 12  1  0
 12 13  1  0
 13 14  1  0
 14 15  1  0
 15 16  1  0
 15 17  1  0
 16 18  1  0
 17 19  2  0
 17 20  1  0
 18 21  1  0
 19 21  1  0
 19 22  1  0
 20 23  2  0
 22 24  2  0
 23 24  1  0
 23 25  1  0
 25 26  1  0
 25 27  2  0
 25 28  2  0
M  END
