MAK-UNK-10799360-23-nitrile
     RDKit          3D

 30 34  0  0  0  0  0  0  0  0999 V2000
    6.8070   -3.6220   19.7390 C   0  0  0  0  0  0  0  0  0  0  0  0
    6.4800   -3.0720   18.6320 N   0  0  0  0  0  0  0  0  0  0  0  0
    6.4810   -3.0650   20.9460 N   0  0  0  0  0  0  0  0  0  0  0  0
    6.1090   -3.7730   22.1950 C   0  0  0  0  0  0  0  0  0  0  0  0
    6.9420   -1.7220   21.3530 C   0  0  1  0  0  0  0  0  0  0  0  0
    6.8140   -2.8710   23.2310 C   0  0  2  0  0  0  0  0  0  0  0  0
    6.2850   -1.5060   22.7160 C   0  0  0  0  0  0  0  0  0  0  0  0
    8.4100   -1.8780   21.7590 C   0  0  0  0  0  0  0  0  0  0  0  0
    8.2670   -2.7160   22.9720 N   0  0  0  0  0  0  0  0  0  0  0  0
    9.1140   -2.4110   24.1210 C   0  0  0  0  0  0  0  0  0  0  0  0
   10.1400   -1.3930   23.6900 C   0  0  0  0  0  0  0  0  0  0  0  0
   11.3230   -1.8930   22.9320 C   0  0  0  0  0  0  0  0  0  0  0  0
   10.0180    0.0230   23.9360 C   0  0  0  0  0  0  0  0  0  0  0  0
   12.2480   -0.9810   22.5070 C   0  0  0  0  0  0  0  0  0  0  0  0
   11.0680    0.8800   23.4440 C   0  0  0  0  0  0  0  0  0  0  0  0
    8.9460    0.7020   24.6140 C   0  0  0  0  0  0  0  0  0  0  0  0
   13.5000   -1.6140   21.6180 Cl  0  0  0  0  0  0  0  0  0  0  0  0
   12.1540    0.3800   22.7610 C   0  0  0  0  0  0  0  0  0  0  0  0
   10.9950    2.2530   23.6270 C   0  0  0  0  0  0  0  0  0  0  0  0
    8.8070    2.0620   24.8260 C   0  0  0  0  0  0  0  0  0  0  0  0
    7.8110    0.1880   25.1960 O   0  0  0  0  0  0  0  0  0  0  0  0
    9.8200    2.8610   24.3340 C   0  0  0  0  0  0  0  0  0  0  0  0
    7.5990    0.4360   26.5930 C   0  0  0  0  0  0  0  0  0  0  0  0
    6.3980   -0.1930   26.9600 C   0  0  0  0  0  0  0  0  0  0  0  0
    6.2850   -0.1660   28.4300 N   0  0  0  0  0  0  0  0  0  0  0  0
    7.0300   -1.1810   28.9880 C   0  0  0  0  0  0  0  0  0  0  0  0
    4.8900   -0.2930   28.9210 C   0  0  0  0  0  0  0  0  0  0  0  0
    6.3400   -2.3750   28.8030 C   0  0  0  0  0  0  0  0  0  0  0  0
    4.7940   -1.1150   30.0510 C   0  0  0  0  0  0  0  0  0  0  0  0
    5.2740   -2.4320   29.7520 O   0  0  0  0  0  0  0  0  0  0  0  0
  1  2  2  3
  1  3  1  0
  3  4  1  0
  3  5  1  0
  6  4  1  6
  5  7  1  0
  6  7  1  0
  5  8  1  1
  6  9  1  0
  8  9  1  0
  9 10  1  0
 10 11  1  0
 11 12  2  0
 11 13  1  0
 12 14  1  0
 13 15  2  0
 13 16  1  0
 14 17  1  0
 14 18  2  0
 15 18  1  0
 15 19  1  0
 16 20  2  0
 16 21  1  0
 19 22  2  0
 20 22  1  0
 21 23  1  0
 23 24  1  0
 24 25  1  0
 25 26  1  0
 25 27  1  0
 26 28  1  0
 27 29  1  0
 28 30  1  0
 29 30  1  0
M  END
