MAK-UNK-849bee6c-4-nitrile
     RDKit          3D

 24 26  0  0  0  0  0  0  0  0999 V2000
    6.7990   -3.3240   19.5290 C   0  0  0  0  0  0  0  0  0  0  0  0
    6.0040   -3.0300   18.5820 N   0  0  0  0  0  0  0  0  0  0  0  0
    6.7250   -2.6810   20.7490 N   0  0  0  0  0  0  0  0  0  0  0  0
    6.2740   -3.3410   21.9440 C   0  0  0  0  0  0  0  0  0  0  0  0
    7.4310   -1.4100   20.9710 C   0  0  0  0  0  0  0  0  0  0  0  0
    7.4040   -3.4650   22.9880 C   0  0  0  0  0  0  0  0  0  0  0  0
    8.6480   -1.6580   21.8040 C   0  0  0  0  0  0  0  0  0  0  0  0
    8.2980   -2.2950   23.0880 N   0  0  0  0  0  0  0  0  0  0  0  0
    9.3700   -2.2690   23.9640 C   0  0  0  0  0  0  0  0  0  0  0  0
   10.5170   -1.3380   23.6270 C   0  0  0  0  0  0  0  0  0  0  0  0
   11.7060   -1.8280   22.8690 C   0  0  0  0  0  0  0  0  0  0  0  0
   10.4330   -0.0070   24.0430 C   0  0  0  0  0  0  0  0  0  0  0  0
   12.7370   -0.7660   22.6250 C   0  0  0  0  0  0  0  0  0  0  0  0
   11.3640    1.0470   23.8490 C   0  0  0  0  0  0  0  0  0  0  0  0
   12.4850    0.6080   23.1390 C   0  0  0  0  0  0  0  0  0  0  0  0
   10.6850    1.7950   24.4190 N   0  0  0  0  0  0  0  0  0  0  0  0
   10.0450    2.9730   23.8420 C   0  0  0  0  0  0  0  0  0  0  0  0
   10.7770    4.0950   23.4460 C   0  0  0  0  0  0  0  0  0  0  0  0
    8.6790    3.0880   23.6600 C   0  0  0  0  0  0  0  0  0  0  0  0
   10.1920    5.1980   22.9360 N   0  0  0  0  0  0  0  0  0  0  0  0
    8.0500    4.1640   23.1540 N   0  0  0  0  0  0  0  0  0  0  0  0
    8.8510    5.1860   22.8130 C   0  0  0  0  0  0  0  0  0  0  0  0
    8.2330    6.3230   22.2960 C   0  0  0  0  0  0  0  0  0  0  0  0
    7.6230    7.4150   21.8110 N   0  0  0  0  0  0  0  0  0  0  0  0
  1  2  2  3
  1  3  1  0
  3  4  1  0
  3  5  1  0
  4  6  1  0
  5  7  1  0
  6  8  1  0
  7  8  1  0
  8  9  1  0
  9 10  1  0
 10 11  2  0
 10 12  1  0
 11 13  1  0
 12 14  2  0
 13 15  2  0
 14 15  1  0
 14 16  1  0
 16 17  1  0
 17 18  2  0
 17 19  1  0
 18 20  1  0
 19 21  2  0
 20 22  2  0
 21 22  1  0
 22 23  1  0
 23 24  3  0
M  END
