MAK-UNK-10799360-20-vinylsulfonamide
     RDKit          3D

 27 30  0  0  0  0  0  0  0  0999 V2000
    8.0660   -3.0780   18.9340 C   0  0  0  0  0  0  0  0  0  0  0  0
    6.6030   -2.8750   18.8230 C   0  0  0  0  0  0  0  0  0  0  0  0
    5.6760   -3.3510   20.2020 S   0  0  0  0  0  0  0  0  0  0  0  0
    4.4680   -3.1080   19.5580 O   0  0  0  0  0  0  0  0  0  0  0  0
    5.9370   -4.6580   20.7610 O   0  0  0  0  0  0  0  0  0  0  0  0
    6.0130   -2.1310   21.3130 N   0  0  0  0  0  0  0  0  0  0  0  0
    5.6800   -2.3780   22.7180 C   0  0  0  0  0  0  0  0  0  0  0  0
    7.4210   -1.7640   21.3270 C   0  0  2  0  0  0  0  0  0  0  0  0
    7.0820   -2.4880   23.3910 C   0  0  1  0  0  0  0  0  0  0  0  0
    7.8960   -2.8950   22.2120 C   0  0  0  0  0  0  0  0  0  0  0  0
    7.7440   -0.5730   22.2430 C   0  0  0  0  0  0  0  0  0  0  0  0
    7.7020   -1.1670   23.6030 N   0  0  0  0  0  0  0  0  0  0  0  0
    8.9410   -1.2590   24.3910 C   0  0  0  0  0  0  0  0  0  0  0  0
   10.1010   -0.3360   23.9730 C   0  0  0  0  0  0  0  0  0  0  0  0
   10.2010    0.9970   24.3560 C   0  0  0  0  0  0  0  0  0  0  0  0
   11.1210   -0.8370   23.1900 C   0  0  0  0  0  0  0  0  0  0  0  0
   11.3110    1.7470   23.9470 C   0  0  0  0  0  0  0  0  0  0  0  0
   12.2220   -0.1320   22.8120 C   0  0  0  0  0  0  0  0  0  0  0  0
   11.0380   -2.1630   22.7670 C   0  0  0  0  0  0  0  0  0  0  0  0
   12.2960    1.1590   23.1960 C   0  0  0  0  0  0  0  0  0  0  0  0
   12.2510   -2.6310   23.3310 N   0  0  0  0  0  0  0  0  0  0  0  0
   13.3370   -0.7340   22.0220 C   0  0  0  0  0  0  0  0  0  0  0  0
   12.5280   -2.1270   24.5860 C   0  0  0  0  0  0  0  0  0  0  0  0
   13.1590   -2.9570   22.2830 C   0  0  0  0  0  0  0  0  0  0  0  0
   13.0890   -1.9130   21.4060 C   0  0  0  0  0  0  0  0  0  0  0  0
   13.6750   -2.6960   25.3690 C   0  0  0  0  0  0  0  0  0  0  0  0
   11.8180   -1.1350   25.1890 O   0  0  0  0  0  0  0  0  0  0  0  0
  1  2  1  0
  3  2  1  0
  3  4  2  0
  3  5  2  0
  3  6  1  0
  6  7  1  0
  6  8  1  0
  9  7  1  6
  8 10  1  0
  9 10  1  0
  8 11  1  1
  9 12  1  0
 11 12  1  0
 12 13  1  0
 13 14  1  0
 14 15  2  0
 14 16  1  0
 15 17  1  0
 16 18  2  0
 16 19  1  0
 17 20  2  0
 18 20  1  0
 19 21  1  0
 18 22  1  0
 21 23  1  0
 21 24  1  0
 22 25  1  0
 24 25  1  0
 23 26  1  0
 23 27  2  0
M  END
