MAK-UNK-10dfa458-39-bromoalkyne
     RDKit          3D

 19 20  0  0  0  0  0  0  0  0999 V2000
    6.4740   -5.1200   20.4350 C   0  0  0  0  0  0  0  0  0  0  0  0
    5.7130   -3.9820   19.7570 C   0  0  0  0  0  0  0  0  0  0  0  0
    6.1690   -5.7090   21.7170 N   0  0  0  0  0  0  0  0  0  0  0  0
    4.9410   -5.4270   22.4350 C   0  0  0  0  0  0  0  0  0  0  0  0
    7.1910   -5.7140   22.7410 C   0  0  0  0  0  0  0  0  0  0  0  0
    4.9640   -3.9580   22.8040 C   0  0  0  0  0  0  0  0  0  0  0  0
    7.3540   -4.2980   23.2350 C   0  0  0  0  0  0  0  0  0  0  0  0
    6.3270   -3.4740   22.5870 N   0  0  0  0  0  0  0  0  0  0  0  0
    6.7590   -2.5590   21.6420 C   0  0  2  0  0  0  0  0  0  0  0  0
    6.0840   -2.5700   20.3410 C   0  0  0  0  0  0  0  0  0  0  0  0
    8.2950   -2.5870   21.5070 C   0  0  0  0  0  0  0  0  0  0  0  0
    5.4130   -1.3950   19.9880 N   0  0  0  0  0  0  0  0  0  0  0  0
    8.9370   -1.9260   22.5730 C   0  0  0  0  0  0  0  0  0  0  0  0
   10.3160   -2.0910   22.8050 C   0  0  0  0  0  0  0  0  0  0  0  0
   11.2800   -1.6540   21.9180 C   0  0  0  0  0  0  0  0  0  0  0  0
   10.7450   -2.7070   23.9670 C   0  0  0  0  0  0  0  0  0  0  0  0
   12.6500   -1.8080   22.1620 C   0  0  0  0  0  0  0  0  0  0  0  0
   12.1050   -2.8710   24.2390 C   0  0  0  0  0  0  0  0  0  0  0  0
   13.0600   -2.4230   23.3390 C   0  0  0  0  0  0  0  0  0  0  0  0
  1  2  2  3
  1  3  1  0
  3  4  1  0
  3  5  1  0
  4  6  1  0
  5  7  1  0
  6  8  1  0
  7  8  1  0
  8  9  1  0
  9 10  1  6
  9 11  1  0
 10 12  3  0
 11 13  1  0
 13 14  1  0
 14 15  2  0
 14 16  1  0
 15 17  1  0
 16 18  2  0
 17 19  2  0
 18 19  1  0
M  END
