MAK-UNK-5d2caa6f-7-nitrile
     RDKit          3D

 20 23  0  0  0  0  0  0  0  0999 V2000
    6.7280   -3.5210   19.6550 C   0  0  0  0  0  0  0  0  0  0  0  0
    5.8460   -3.1770   18.8120 N   0  0  0  0  0  0  0  0  0  0  0  0
    6.7150   -2.9600   20.9070 N   0  0  0  0  0  0  0  0  0  0  0  0
    5.8190   -3.5080   21.9450 C   0  0  0  0  0  0  0  0  0  0  0  0
    7.8100   -2.5760   21.7180 C   0  0  2  0  0  0  0  0  0  0  0  0
    6.7590   -3.6060   23.1480 C   0  0  1  0  0  0  0  0  0  0  0  0
    8.1480   -3.7590   22.6130 C   0  0  0  0  0  0  0  0  0  0  0  0
    7.3900   -1.6130   22.7360 C   0  0  0  0  0  0  0  0  0  0  0  0
    6.8810   -2.2640   23.7860 N   0  0  0  0  0  0  0  0  0  0  0  0
    7.8090   -2.3010   24.9260 C   0  0  0  0  0  0  0  0  0  0  0  0
    8.7290   -1.2660   24.6560 C   0  0  0  0  0  0  0  0  0  0  0  0
    9.8680   -1.4530   24.0650 N   0  0  0  0  0  0  0  0  0  0  0  0
    8.5310   -0.0860   24.9430 O   0  0  0  0  0  0  0  0  0  0  0  0
   10.3890   -0.2680   23.9730 C   0  0  0  0  0  0  0  0  0  0  0  0
    9.6170    0.6820   24.5120 N   0  0  0  0  0  0  0  0  0  0  0  0
   11.5530   -0.0590   23.3900 C   0  0  0  0  0  0  0  0  0  0  0  0
   12.1540   -1.0920   22.7070 C   0  0  0  0  0  0  0  0  0  0  0  0
   12.3980    1.4070   23.3910 S   0  0  0  0  0  0  0  0  0  0  0  0
   13.4070   -0.6990   22.1320 C   0  0  0  0  0  0  0  0  0  0  0  0
   13.7330    0.6200   22.3990 C   0  0  0  0  0  0  0  0  0  0  0  0
  1  2  2  3
  1  3  1  0
  3  4  1  0
  3  5  1  0
  6  4  1  6
  5  7  1  0
  6  7  1  0
  5  8  1  1
  6  9  1  0
  8  9  1  0
  9 10  1  0
 10 11  1  0
 11 12  2  0
 11 13  1  0
 12 14  1  0
 13 15  1  0
 14 15  2  0
 14 16  1  0
 16 17  2  0
 16 18  1  0
 17 19  1  0
 18 20  1  0
 19 20  2  0
M  END
