MAK-UNK-ec98eaf6-52-vinylsulfonamide
     RDKit          3D

 33 36  0  0  0  0  0  0  0  0999 V2000
    7.5580   -3.6580   20.0970 C   0  0  0  0  0  0  0  0  0  0  0  0
    7.1790   -2.7040   18.9700 C   0  0  0  0  0  0  0  0  0  0  0  0
    5.5410   -2.0800   19.2120 S   0  0  0  0  0  0  0  0  0  0  0  0
    4.7700   -3.0670   20.0100 O   0  0  0  0  0  0  0  0  0  0  0  0
    5.0990   -1.5750   17.9510 O   0  0  0  0  0  0  0  0  0  0  0  0
    5.9520   -0.6690   20.0650 N   0  0  0  0  0  0  0  0  0  0  0  0
    5.1410   -0.2790   21.2010 C   0  0  0  0  0  0  0  0  0  0  0  0
    7.2390   -0.8510   20.7480 C   0  0  2  0  0  0  0  0  0  0  0  0
    5.8560   -0.8600   22.3970 C   0  0  1  0  0  0  0  0  0  0  0  0
    6.7460   -1.9140   21.7480 C   0  0  0  0  0  0  0  0  0  0  0  0
    7.4410    0.3770   21.6120 C   0  0  0  0  0  0  0  0  0  0  0  0
    6.9350    0.0620   22.8680 N   0  0  0  0  0  0  0  0  0  0  0  0
    7.8130   -0.8030   23.6410 C   0  0  2  0  0  0  0  0  0  0  0  0
    7.2780   -1.1180   25.0230 C   0  0  0  0  0  0  0  0  0  0  0  0
    9.1740   -0.4640   23.4280 C   0  0  0  0  0  0  0  0  0  0  0  0
    7.5180   -2.4120   25.4900 C   0  0  0  0  0  0  0  0  0  0  0  0
    9.7660    0.8510   23.9680 C   0  0  0  0  0  0  0  0  0  0  0  0
   10.0210   -1.3650   22.6850 C   0  0  0  0  0  0  0  0  0  0  0  0
    8.8640   -2.7310   25.4360 C   0  0  0  0  0  0  0  0  0  0  0  0
   11.0980    1.1970   23.7610 C   0  0  0  0  0  0  0  0  0  0  0  0
   11.3940   -1.0480   22.4540 C   0  0  0  0  0  0  0  0  0  0  0  0
    9.4270   -3.9670   25.7040 C   0  0  0  0  0  0  0  0  0  0  0  0
    9.7230   -1.6970   25.0830 C   0  0  0  0  0  0  0  0  0  0  0  0
   11.9610    0.2560   22.9960 C   0  0  0  0  0  0  0  0  0  0  0  0
   12.3200   -1.9410   21.6880 C   0  0  0  0  0  0  0  0  0  0  0  0
   10.9090   -4.1220   25.6070 C   0  0  0  0  0  0  0  0  0  0  0  0
   11.0940   -1.8270   24.9870 C   0  0  0  0  0  0  0  0  0  0  0  0
   13.0450   -2.6010   21.0850 N   0  0  0  0  0  0  0  0  0  0  0  0
   11.8320   -2.9960   25.2260 C   0  0  0  0  0  0  0  0  0  0  0  0
   13.1410   -2.9470   25.1070 C   0  0  0  0  0  0  0  0  0  0  0  0
   13.7870   -3.7970   25.9570 F   0  0  0  0  0  0  0  0  0  0  0  0
   13.5620   -1.7230   25.4540 F   0  0  0  0  0  0  0  0  0  0  0  0
   13.5900   -3.1000   23.8430 F   0  0  0  0  0  0  0  0  0  0  0  0
  1  2  1  0
  3  2  1  0
  3  4  2  0
  3  5  2  0
  3  6  1  0
  6  7  1  0
  6  8  1  0
  9  7  1  6
  8 10  1  0
  9 10  1  0
  8 11  1  1
  9 12  1  0
 11 12  1  0
 12 13  1  0
 13 14  1  1
 13 15  1  0
 14 16  1  0
 15 17  2  0
 15 18  1  0
 16 19  1  0
 17 20  1  0
 18 21  2  0
 19 22  2  0
 19 23  1  0
 20 24  2  0
 21 24  1  0
 21 25  1  0
 22 26  1  0
 23 27  2  0
 25 28  3  0
 26 29  2  0
 27 29  1  0
 29 30  1  0
 30 31  1  0
 30 32  1  0
 30 33  1  0
M  END
