MAK-UNK-212f693e-27
     RDKit          3D

 16 17  0  0  0  0  0  0  0  0999 V2000
    5.3870   -4.2780   19.8270 O   0  0  0  0  0  0  0  0  0  0  0  0
    6.2070   -4.0750   20.7250 C   0  0  0  0  0  0  0  0  0  0  0  0
    7.1410   -2.8620   20.6040 C   0  0  0  0  0  0  0  0  0  0  0  0
    6.3340   -4.9200   21.8300 N   0  0  0  0  0  0  0  0  0  0  0  0
    8.6140   -2.9200   21.3900 S   0  0  0  0  0  0  0  0  0  0  0  0
    7.2800   -4.7920   22.9270 C   0  0  0  0  0  0  0  0  0  0  0  0
    5.4660   -5.9640   22.0490 C   0  0  0  0  0  0  0  0  0  0  0  0
    6.5070   -4.6790   24.2350 C   0  0  0  0  0  0  0  0  0  0  0  0
    4.5640   -5.6340   23.0650 C   0  0  0  0  0  0  0  0  0  0  0  0
    5.0380   -4.6580   23.9450 C   0  0  0  0  0  0  0  0  0  0  0  0
    4.3890   -4.8670   25.2180 O   0  0  0  0  0  0  0  0  0  0  0  0
    3.4380   -3.9130   25.4550 C   0  0  0  0  0  0  0  0  0  0  0  0
    3.7380   -2.5970   25.7530 C   0  0  0  0  0  0  0  0  0  0  0  0
    2.0670   -4.1620   25.4200 C   0  0  0  0  0  0  0  0  0  0  0  0
    2.4480   -1.7860   25.9630 C   0  0  0  0  0  0  0  0  0  0  0  0
    1.0790   -2.7760   25.7630 S   0  0  0  0  0  0  0  0  0  0  0  0
  1  2  2  0
  2  3  1  0
  2  4  1  0
  3  5  2  0
  4  6  1  0
  4  7  1  0
  6  8  1  0
  7  9  1  0
  8 10  1  0
  9 10  1  0
 10 11  1  0
 11 12  1  0
 12 13  1  0
 12 14  2  0
 13 15  2  0
 14 16  1  0
 15 16  1  0
M  END
