MAK-UNK-30aad1f1-2-bromoalkyne
     RDKit          3D

 26 28  0  0  0  0  0  0  0  0999 V2000
    7.0320   -3.7080   19.9030 C   0  0  0  0  0  0  0  0  0  0  0  0
    5.8760   -4.6700   20.0070 C   0  0  0  0  0  0  0  0  0  0  0  0
    6.7120   -2.3940   19.4330 C   0  0  0  0  0  0  0  0  0  0  0  0
    5.4000   -2.2220   18.7080 C   0  0  0  0  0  0  0  0  0  0  0  0
    7.5800   -1.3630   19.6080 C   0  0  0  0  0  0  0  0  0  0  0  0
    5.2390   -0.7900   18.1590 C   0  0  0  0  0  0  0  0  0  0  0  0
    7.4350   -0.3230   19.1980 N   0  0  0  0  0  0  0  0  0  0  0  0
    6.4130    0.0790   18.4810 C   0  0  0  0  0  0  0  0  0  0  0  0
    6.4800    1.2700   18.0470 N   0  0  0  0  0  0  0  0  0  0  0  0
    5.0850    1.5000   17.9520 C   0  0  0  0  0  0  0  0  0  0  0  0
    4.8480    1.5450   19.4380 C   0  0  0  0  0  0  0  0  0  0  0  0
    4.7110    0.3900   20.3840 C   0  0  0  0  0  0  0  0  0  0  0  0
    4.7530    2.7810   19.9900 N   0  0  0  0  0  0  0  0  0  0  0  0
    4.4860    0.6140   21.8280 C   0  0  0  0  0  0  0  0  0  0  0  0
    4.5440    2.9400   21.3310 C   0  0  0  0  0  0  0  0  0  0  0  0
    4.4060    1.9080   22.2630 C   0  0  0  0  0  0  0  0  0  0  0  0
    4.1690    2.1370   23.6570 N   0  0  0  0  0  0  0  0  0  0  0  0
    2.7810    2.2020   24.0400 C   0  0  0  0  0  0  0  0  0  0  0  0
    2.4840    1.3910   24.9090 O   0  0  0  0  0  0  0  0  0  0  0  0
    1.9000    3.1700   23.3520 N   0  0  0  0  0  0  0  0  0  0  0  0
    0.6110    3.5930   23.7390 C   0  0  0  0  0  0  0  0  0  0  0  0
    0.4940    4.7560   24.7140 C   0  0  0  0  0  0  0  0  0  0  0  0
   -0.4860    2.9190   23.1970 C   0  0  0  0  0  0  0  0  0  0  0  0
   -0.9340    5.1880   25.1070 C   0  0  0  0  0  0  0  0  0  0  0  0
   -1.9220    3.3000   23.5470 C   0  0  0  0  0  0  0  0  0  0  0  0
   -2.1340    4.4470   24.5110 C   0  0  0  0  0  0  0  0  0  0  0  0
  1  2  2  3
  1  3  1  0
  3  4  2  0
  3  5  1  0
  4  6  1  0
  5  7  2  0
  6  8  2  0
  7  8  1  0
  8  9  1  0
  9 10  1  0
 10 11  1  0
 11 12  2  0
 11 13  1  0
 12 14  1  0
 13 15  2  0
 14 16  2  0
 15 16  1  0
 16 17  1  0
 17 18  1  0
 18 19  2  0
 18 20  1  0
 20 21  1  0
 21 22  2  0
 21 23  1  0
 22 24  1  0
 23 25  2  0
 24 26  2  0
 25 26  1  0
M  END
