MAK-UNK-148caf23-20-nitrile
     RDKit          3D

 34 37  0  0  0  0  0  0  0  0999 V2000
    8.1830   -3.2480   19.7010 C   0  0  0  0  0  0  0  0  0  0  0  0
    6.9020   -3.2820   19.4410 N   0  0  0  0  0  0  0  0  0  0  0  0
    8.8270   -2.5880   21.1600 C   0  0  0  0  0  0  0  0  0  0  0  0
    8.5270   -3.3660   22.4420 C   0  0  0  0  0  0  0  0  0  0  0  0
    9.6070   -1.3660   21.4870 C   0  0  0  0  0  0  0  0  0  0  0  0
    8.9890   -2.7670   23.7620 C   0  0  0  0  0  0  0  0  0  0  0  0
   10.0170   -0.8740   22.7340 N   0  0  0  0  0  0  0  0  0  0  0  0
    9.6760   -1.5610   23.8310 C   0  0  0  0  0  0  0  0  0  0  0  0
    9.9280   -1.1550   25.2520 N   0  0  0  0  0  0  0  0  0  0  0  0
    8.6800   -0.6200   25.9000 C   0  0  0  0  0  0  0  0  0  0  0  0
    7.5570   -0.8970   25.1710 C   0  0  0  0  0  0  0  0  0  0  0  0
    7.2530   -0.0950   23.9370 C   0  0  0  0  0  0  0  0  0  0  0  0
    6.6160   -1.9160   25.4870 C   0  0  0  0  0  0  0  0  0  0  0  0
    6.1280   -0.3210   23.1340 C   0  0  0  0  0  0  0  0  0  0  0  0
    5.4630   -2.1700   24.6980 C   0  0  0  0  0  0  0  0  0  0  0  0
    6.7900   -2.6810   26.5580 F   0  0  0  0  0  0  0  0  0  0  0  0
    5.2090   -1.4110   23.5490 C   0  0  0  0  0  0  0  0  0  0  0  0
    4.5350   -3.1670   25.0020 C   0  0  0  0  0  0  0  0  0  0  0  0
    3.6870   -3.9090   24.0340 C   0  0  0  0  0  0  0  0  0  0  0  0
    4.1910   -3.6890   26.3250 N   0  0  0  0  0  0  0  0  0  0  0  0
    2.8930   -4.8090   24.7150 C   0  0  0  0  0  0  0  0  0  0  0  0
    3.2210   -4.6540   26.1110 C   0  0  0  0  0  0  0  0  0  0  0  0
    4.7580   -3.3150   27.9110 S   0  0  0  0  0  0  0  0  0  0  0  0
    1.9770   -5.6650   24.1080 C   0  0  0  0  0  0  0  0  0  0  0  0
    3.5710   -3.2700   28.7440 O   0  0  0  0  0  0  0  0  0  0  0  0
    5.7980   -4.2720   28.2000 O   0  0  0  0  0  0  0  0  0  0  0  0
    5.4350   -1.6940   27.9230 C   0  0  0  0  0  0  0  0  0  0  0  0
    0.6570   -5.5090   24.4860 N   0  0  0  0  0  0  0  0  0  0  0  0
    5.0280   -0.7110   27.0160 C   0  0  0  0  0  0  0  0  0  0  0  0
    6.4030   -1.3760   28.8660 C   0  0  0  0  0  0  0  0  0  0  0  0
    0.3930   -4.2590   24.9300 C   0  0  0  0  0  0  0  0  0  0  0  0
    5.6150    0.5500   27.0910 C   0  0  0  0  0  0  0  0  0  0  0  0
    6.9880   -0.1510   28.9610 N   0  0  0  0  0  0  0  0  0  0  0  0
    6.5830    0.7880   28.0690 C   0  0  0  0  0  0  0  0  0  0  0  0
  1  2  2  3
  1  3  1  0
  3  4  2  0
  3  5  1  0
  4  6  1  0
  5  7  2  0
  6  8  2  0
  7  8  1  0
  8  9  1  0
  9 10  1  0
 10 11  1  0
 11 12  2  0
 11 13  1  0
 12 14  1  0
 13 15  2  0
 13 16  1  0
 14 17  2  0
 15 17  1  0
 15 18  1  0
 18 19  2  0
 18 20  1  0
 19 21  1  0
 20 22  1  0
 21 22  2  0
 20 23  1  0
 21 24  1  0
 23 25  2  0
 23 26  2  0
 23 27  1  0
 24 28  1  0
 27 29  2  0
 27 30  1  0
 28 31  1  0
 29 32  1  0
 30 33  2  0
 32 34  2  0
 33 34  1  0
M  END
