MAK-UNK-acefcb18-1
     RDKit          3D

 18 19  0  0  0  0  0  0  0  0999 V2000
    7.7930    6.6660   21.6120 C   0  0  0  0  0  0  0  0  0  0  0  0
    8.0210    5.2540   22.1300 C   0  0  0  0  0  0  0  0  0  0  0  0
    9.3540    5.0450   22.9050 C   0  0  0  0  0  0  0  0  0  0  0  0
    7.1210    4.2170   21.9260 C   0  0  0  0  0  0  0  0  0  0  0  0
    9.5850    3.5880   23.4270 C   0  0  0  0  0  0  0  0  0  0  0  0
    7.3240    2.9250   22.3880 C   0  0  0  0  0  0  0  0  0  0  0  0
    8.4740    2.5750   23.1040 C   0  0  0  0  0  0  0  0  0  0  0  0
    8.5050    1.2570   23.4900 O   0  0  0  0  0  0  0  0  0  0  0  0
    9.0580    1.0420   24.7890 C   0  0  0  0  0  0  0  0  0  0  0  0
    8.9150   -0.4200   25.2920 C   0  0  1  0  0  0  0  0  0  0  0  0
    7.6320   -0.9140   25.4310 N   0  0  0  0  0  0  0  0  0  0  0  0
    9.6780   -1.2570   24.2500 C   0  0  0  0  0  0  0  0  0  0  0  0
    8.9980   -2.4910   23.8560 O   0  0  0  0  0  0  0  0  0  0  0  0
   11.0400   -1.0040   23.5830 C   0  0  0  0  0  0  0  0  0  0  0  0
   11.8980    0.0660   23.8390 C   0  0  0  0  0  0  0  0  0  0  0  0
   11.5400   -1.8850   22.6120 C   0  0  0  0  0  0  0  0  0  0  0  0
   13.0610    0.0460   23.0860 C   0  0  0  0  0  0  0  0  0  0  0  0
   13.1440   -1.3660   21.9910 S   0  0  0  0  0  0  0  0  0  0  0  0
  1  2  1  0
  2  3  2  0
  2  4  1  0
  3  5  1  0
  4  6  2  0
  5  7  2  0
  6  7  1  0
  7  8  1  0
  8  9  1  0
  9 10  1  0
 10 11  1  6
 10 12  1  0
 12 13  2  0
 12 14  1  0
 14 15  1  0
 14 16  2  0
 15 17  2  0
 16 18  1  0
 17 18  1  0
M  END
