MAK-UNK-ec98eaf6-20-bromoalkyne
     RDKit          3D

 20 22  0  0  0  0  0  0  0  0999 V2000
    7.5680   -3.7300   20.0260 C   0  0  0  0  0  0  0  0  0  0  0  0
    6.1220   -3.6900   19.5990 C   0  0  0  0  0  0  0  0  0  0  0  0
    7.9650   -4.0540   21.3020 N   0  0  0  0  0  0  0  0  0  0  0  0
    7.0590   -4.7240   22.2890 C   0  0  0  0  0  0  0  0  0  0  0  0
    8.8780   -3.1590   22.0940 C   0  0  2  0  0  0  0  0  0  0  0  0
    7.3210   -3.6770   23.3790 C   0  0  1  0  0  0  0  0  0  0  0  0
    8.8080   -3.6630   23.5230 C   0  0  0  0  0  0  0  0  0  0  0  0
    8.2860   -1.9380   21.9980 C   0  0  0  0  0  0  0  0  0  0  0  0
    7.0830   -2.2720   22.8350 N   0  0  0  0  0  0  0  0  0  0  0  0
    5.8750   -2.1840   22.0120 C   0  0  0  0  0  0  0  0  0  0  0  0
    6.0750   -1.2860   20.9690 C   0  0  0  0  0  0  0  0  0  0  0  0
    4.8340   -0.6940   20.5420 N   0  0  0  0  0  0  0  0  0  0  0  0
    4.3840    0.4600   21.1290 C   0  0  0  0  0  0  0  0  0  0  0  0
    4.2910    0.6710   22.4780 O   0  0  0  0  0  0  0  0  0  0  0  0
    3.9960    1.5180   20.1530 C   0  0  0  0  0  0  0  0  0  0  0  0
    2.7710    2.1820   20.7330 C   0  0  0  0  0  0  0  0  0  0  0  0
    4.6090    1.8290   18.9760 C   0  0  0  0  0  0  0  0  0  0  0  0
    2.2690    3.2940   19.8090 C   0  0  0  0  0  0  0  0  0  0  0  0
    4.1480    2.8250   18.1580 N   0  0  0  0  0  0  0  0  0  0  0  0
    3.1000    3.4710   18.5510 C   0  0  0  0  0  0  0  0  0  0  0  0
  1  2  2  3
  1  3  1  0
  3  4  1  0
  3  5  1  0
  6  4  1  6
  5  7  1  0
  6  7  1  0
  5  8  1  1
  6  9  1  0
  8  9  1  0
  9 10  1  0
 10 11  1  0
 11 12  1  0
 12 13  1  0
 13 14  2  0
 13 15  1  0
 15 16  2  0
 15 17  1  0
 16 18  1  0
 17 19  2  0
 18 20  2  0
 19 20  1  0
M  END
