MAK-UNK-a7992eb3-5-bromoalkyne
     RDKit          3D

 32 35  0  0  0  0  0  0  0  0999 V2000
    6.3970   -4.9060   20.3510 C   0  0  0  0  0  0  0  0  0  0  0  0
    5.6750   -6.1010   19.8600 C   0  0  0  0  0  0  0  0  0  0  0  0
    6.3830   -4.9390   21.7190 N   0  0  0  0  0  0  0  0  0  0  0  0
    5.7310   -6.0830   22.3660 C   0  0  0  0  0  0  0  0  0  0  0  0
    7.0810   -4.0490   22.6420 C   0  0  0  0  0  0  0  0  0  0  0  0
    4.7540   -5.5880   23.3740 C   0  0  0  0  0  0  0  0  0  0  0  0
    6.7520   -4.4510   23.9510 C   0  0  0  0  0  0  0  0  0  0  0  0
    5.2190   -4.5200   24.1360 C   0  0  0  0  0  0  0  0  0  0  0  0
    4.9070   -4.4770   25.4930 C   0  0  0  0  0  0  0  0  0  0  0  0
    5.7170   -4.8090   26.3560 O   0  0  0  0  0  0  0  0  0  0  0  0
    3.5200   -3.9970   25.7700 N   0  0  0  0  0  0  0  0  0  0  0  0
    3.2490   -2.5280   25.7690 C   0  0  0  0  0  0  0  0  0  0  0  0
    1.7980   -2.2330   25.9090 C   0  0  0  0  0  0  0  0  0  0  0  0
    4.0740   -1.3680   25.6640 C   0  0  0  0  0  0  0  0  0  0  0  0
    1.2130   -0.9860   25.9480 C   0  0  0  0  0  0  0  0  0  0  0  0
    3.5090   -0.0660   25.7020 C   0  0  0  0  0  0  0  0  0  0  0  0
    5.5010   -1.3400   25.5130 O   0  0  0  0  0  0  0  0  0  0  0  0
    2.1280    0.1810   25.8400 C   0  0  0  0  0  0  0  0  0  0  0  0
    6.0690   -0.1310   25.1150 C   0  0  1  0  0  0  0  0  0  0  0  0
    6.6800    0.6970   26.0540 C   0  0  0  0  0  0  0  0  0  0  0  0
    7.1610   -0.4990   24.0610 C   0  0  1  0  0  0  0  0  0  0  0  0
    7.1940    1.8510   25.4700 C   0  0  0  0  0  0  0  0  0  0  0  0
    7.9440    0.6180   23.9030 N   0  0  0  0  0  0  0  0  0  0  0  0
    8.0180   -1.6790   24.5110 C   0  0  0  0  0  0  0  0  0  0  0  0
    7.2810    1.7750   24.0870 C   0  0  0  0  0  0  0  0  0  0  0  0
    8.6730    0.7130   22.7550 C   0  0  0  0  0  0  0  0  0  0  0  0
    9.9210    1.3570   22.7850 C   0  0  0  0  0  0  0  0  0  0  0  0
   10.0120    2.7320   22.5450 C   0  0  0  0  0  0  0  0  0  0  0  0
   11.0930    0.6330   23.0530 C   0  0  0  0  0  0  0  0  0  0  0  0
   11.2440    3.3750   22.5700 C   0  0  0  0  0  0  0  0  0  0  0  0
   12.3290    1.2740   23.0810 C   0  0  0  0  0  0  0  0  0  0  0  0
   12.4040    2.6460   22.8380 C   0  0  0  0  0  0  0  0  0  0  0  0
  1  2  2  3
  1  3  1  0
  3  4  1  0
  3  5  1  0
  4  6  1  0
  5  7  1  0
  6  8  1  0
  7  8  1  0
  8  9  1  0
  9 10  2  0
  9 11  1  0
 11 12  1  0
 12 13  2  0
 12 14  1  0
 13 15  1  0
 14 16  2  0
 14 17  1  0
 15 18  2  0
 16 18  1  0
 19 17  1  1
 19 20  1  0
 19 21  1  0
 20 22  1  0
 21 23  1  0
 21 24  1  1
 22 25  1  0
 23 25  1  0
 23 26  1  0
 26 27  1  0
 27 28  2  0
 27 29  1  0
 28 30  1  0
 29 31  2  0
 30 32  2  0
 31 32  1  0
M  END
