MAK-UNK-ec98eaf6-7-acrylamide
     RDKit          3D

 26 29  0  0  0  0  0  0  0  0999 V2000
    7.5750   -2.8930   18.2660 C   0  0  0  0  0  0  0  0  0  0  0  0
    6.6140   -2.2890   19.2470 C   0  0  0  0  0  0  0  0  0  0  0  0
    6.0130   -3.1920   20.2860 C   0  0  0  0  0  0  0  0  0  0  0  0
    5.2370   -4.1590   20.0520 O   0  0  0  0  0  0  0  0  0  0  0  0
    6.4390   -2.7880   21.5190 N   0  0  0  0  0  0  0  0  0  0  0  0
    6.0360   -3.3650   22.8100 C   0  0  0  0  0  0  0  0  0  0  0  0
    7.8460   -2.4400   21.7260 C   0  0  2  0  0  0  0  0  0  0  0  0
    7.4200   -3.6550   23.3270 C   0  0  1  0  0  0  0  0  0  0  0  0
    8.3030   -3.8060   22.2610 C   0  0  0  0  0  0  0  0  0  0  0  0
    7.8690   -1.5220   22.7290 C   0  0  0  0  0  0  0  0  0  0  0  0
    7.9770   -2.3800   23.8980 N   0  0  0  0  0  0  0  0  0  0  0  0
    9.2340   -2.6210   24.4620 C   0  0  0  0  0  0  0  0  0  0  0  0
   10.2970   -1.8100   23.9650 C   0  0  0  0  0  0  0  0  0  0  0  0
   10.3400   -0.4920   24.5570 N   0  0  0  0  0  0  0  0  0  0  0  0
   11.1590   -2.2630   23.0200 N   0  0  0  0  0  0  0  0  0  0  0  0
   11.2830    0.3710   24.1640 C   0  0  0  0  0  0  0  0  0  0  0  0
   12.1150   -1.4140   22.6140 C   0  0  0  0  0  0  0  0  0  0  0  0
   12.1990   -0.1610   23.1350 C   0  0  0  0  0  0  0  0  0  0  0  0
   13.0170   -1.8360   21.6530 N   0  0  0  0  0  0  0  0  0  0  0  0
   13.1590    0.8590   22.8140 C   0  0  0  0  0  0  0  0  0  0  0  0
   12.3260    2.1320   22.7580 C   0  0  0  0  0  0  0  0  0  0  0  0
   12.7560    3.4630   22.7210 C   0  0  0  0  0  0  0  0  0  0  0  0
   10.9390    1.8070   22.7350 C   0  0  0  0  0  0  0  0  0  0  0  0
   11.7920    4.4560   22.6570 C   0  0  0  0  0  0  0  0  0  0  0  0
   10.0170    2.8190   22.6700 C   0  0  0  0  0  0  0  0  0  0  0  0
   10.4360    4.1360   22.6320 C   0  0  0  0  0  0  0  0  0  0  0  0
  1  2  1  0
  2  3  1  0
  3  4  2  0
  3  5  1  0
  5  6  1  0
  5  7  1  0
  8  6  1  6
  7  9  1  0
  8  9  1  0
  7 10  1  1
  8 11  1  0
 10 11  1  0
 11 12  1  0
 12 13  1  0
 13 14  2  0
 13 15  1  0
 14 16  1  0
 15 17  2  0
 16 18  2  0
 17 18  1  0
 17 19  1  0
 18 20  1  0
 20 21  1  0
 21 22  2  0
 21 23  1  0
 22 24  1  0
 23 25  2  0
 24 26  2  0
 25 26  1  0
M  END
