MAK-UNK-849bee6c-14-acrylamide
     RDKit          3D

 27 29  0  0  0  0  0  0  0  0999 V2000
    7.9730   -3.3860   19.6670 C   0  0  0  0  0  0  0  0  0  0  0  0
    6.8610   -2.6390   19.0100 C   0  0  0  0  0  0  0  0  0  0  0  0
    5.8550   -3.0110   20.0080 C   0  0  0  0  0  0  0  0  0  0  0  0
    5.0620   -3.9190   19.7620 O   0  0  0  0  0  0  0  0  0  0  0  0
    6.0030   -2.3010   21.1890 N   0  0  0  0  0  0  0  0  0  0  0  0
    5.8910   -3.0550   22.4180 C   0  0  0  0  0  0  0  0  0  0  0  0
    7.0010   -1.2220   21.3070 C   0  0  0  0  0  0  0  0  0  0  0  0
    7.2460   -3.5310   22.9280 C   0  0  0  0  0  0  0  0  0  0  0  0
    8.3280   -1.6600   21.9750 C   0  0  0  0  0  0  0  0  0  0  0  0
    8.2090   -2.4400   23.1080 N   0  0  0  0  0  0  0  0  0  0  0  0
    9.4490   -2.6680   23.7070 C   0  0  0  0  0  0  0  0  0  0  0  0
   10.4300   -1.5300   23.5940 C   0  0  0  0  0  0  0  0  0  0  0  0
   11.8380   -1.6750   23.1510 C   0  0  0  0  0  0  0  0  0  0  0  0
   10.0010   -0.2580   23.9190 C   0  0  0  0  0  0  0  0  0  0  0  0
   12.6750   -0.5590   23.0730 C   0  0  0  0  0  0  0  0  0  0  0  0
   10.8280    0.8570   23.8390 C   0  0  0  0  0  0  0  0  0  0  0  0
   12.1610    0.6960   23.4180 C   0  0  0  0  0  0  0  0  0  0  0  0
   10.1840    2.0470   24.2060 N   0  0  0  0  0  0  0  0  0  0  0  0
    8.9270    1.9770   24.8660 C   0  0  0  0  0  0  0  0  0  0  0  0
   10.6960    3.3850   24.0160 C   0  0  0  0  0  0  0  0  0  0  0  0
   11.7520    3.7090   23.2010 C   0  0  0  0  0  0  0  0  0  0  0  0
   10.1160    4.6110   24.7160 C   0  0  0  0  0  0  0  0  0  0  0  0
   12.2620    4.9270   23.0180 N   0  0  0  0  0  0  0  0  0  0  0  0
   10.5770    5.9340   24.5970 N   0  0  0  0  0  0  0  0  0  0  0  0
   11.6200    6.0190   23.7690 C   0  0  0  0  0  0  0  0  0  0  0  0
   12.2430    7.3430   23.5520 C   0  0  0  0  0  0  0  0  0  0  0  0
   13.3700    7.3680   22.8550 N   0  0  0  0  0  0  0  0  0  0  0  0
  1  2  1  0
  2  3  1  0
  3  4  2  0
  3  5  1  0
  5  6  1  0
  5  7  1  0
  6  8  1  0
  7  9  1  0
  8 10  1  0
  9 10  1  0
 10 11  1  0
 11 12  1  0
 12 13  2  0
 12 14  1  0
 13 15  1  0
 14 16  2  0
 15 17  2  0
 16 17  1  0
 16 18  1  0
 18 19  1  0
 18 20  1  0
 20 21  2  0
 20 22  1  0
 21 23  1  0
 22 24  2  0
 23 25  2  0
 24 25  1  0
 25 26  1  0
 26 27  3  0
M  END
