MAK-UNK-60abb798-2
     RDKit          3D

 21 23  0  0  0  0  0  0  0  0999 V2000
    8.4960   -0.9900   21.1600 N   0  0  0  0  0  0  0  0  0  0  0  0
    8.6410    0.2040   21.8200 C   0  0  0  0  0  0  0  0  0  0  0  0
    9.9660    0.4700   22.4980 C   0  0  1  0  0  0  0  0  0  0  0  0
   10.9260   -0.2160   22.1110 O   0  0  0  0  0  0  0  0  0  0  0  0
   10.3220    1.8180   22.5710 C   0  0  0  0  0  0  0  0  0  0  0  0
   12.0460   -0.2080   23.0010 C   0  0  2  0  0  0  0  0  0  0  0  0
   11.6480    2.2250   22.8240 C   0  0  0  0  0  0  0  0  0  0  0  0
    9.2590    2.8750   22.3750 C   0  0  0  0  0  0  0  0  0  0  0  0
   11.7780   -0.6430   24.4280 C   0  0  2  0  0  0  0  0  0  0  0  0
   12.5580    1.2010   23.0340 C   0  0  0  0  0  0  0  0  0  0  0  0
    9.6980    4.3110   22.4620 C   0  0  0  0  0  0  0  0  0  0  0  0
   12.0960    3.5960   22.8870 C   0  0  0  0  0  0  0  0  0  0  0  0
   12.9890   -1.4990   24.7990 C   0  0  0  0  0  0  0  0  0  0  0  0
   10.5610   -1.2300   24.6680 C   0  0  0  0  0  0  0  0  0  0  0  0
   11.1820    4.6610   22.7160 C   0  0  0  0  0  0  0  0  0  0  0  0
   13.2650    3.7980   23.0960 O   0  0  0  0  0  0  0  0  0  0  0  0
   12.7150   -2.9720   24.9980 C   0  0  0  0  0  0  0  0  0  0  0  0
   10.4850   -2.5660   24.3980 C   0  0  1  0  0  0  0  0  0  0  0  0
   11.5680    5.9780   22.7790 O   0  0  0  0  0  0  0  0  0  0  0  0
   11.3590   -3.3680   25.0840 C   0  0  0  0  0  0  0  0  0  0  0  0
    9.1320   -3.0890   24.7380 N   0  0  0  0  0  0  0  0  0  0  0  0
  1  2  1  0
  3  2  1  6
  3  4  1  0
  3  5  1  0
  4  6  1  0
  5  7  2  0
  5  8  1  0
  6  9  1  0
  6 10  1  1
  7 10  1  0
  8 11  2  0
  7 12  1  0
  9 13  1  6
  9 14  1  0
 11 15  1  0
 12 15  2  0
 12 16  1  0
 13 17  1  0
 14 18  1  0
 15 19  1  0
 17 20  1  0
 18 20  1  0
 18 21  1  1
M  END
