MAK-UNK-30aad1f1-14-bromoalkyne
     RDKit          3D

 25 27  0  0  0  0  0  0  0  0999 V2000
    8.6000   -3.8630   19.6770 C   0  0  0  0  0  0  0  0  0  0  0  0
    7.3050   -3.5720   19.2020 C   0  0  0  0  0  0  0  0  0  0  0  0
    9.0130   -3.5240   21.0120 C   0  0  0  0  0  0  0  0  0  0  0  0
   10.5160   -3.2910   21.1220 C   0  0  0  0  0  0  0  0  0  0  0  0
    8.1950   -3.3630   22.1170 C   0  0  0  0  0  0  0  0  0  0  0  0
   10.9920   -2.8480   22.4040 C   0  0  0  0  0  0  0  0  0  0  0  0
    8.6580   -2.9510   23.3280 N   0  0  0  0  0  0  0  0  0  0  0  0
    9.9780   -2.6910   23.4210 C   0  0  0  0  0  0  0  0  0  0  0  0
   10.5210   -2.1920   24.4840 N   0  0  0  0  0  0  0  0  0  0  0  0
   11.0650   -0.9650   23.9090 C   0  0  0  0  0  0  0  0  0  0  0  0
   12.4150   -0.7720   24.0180 C   0  0  0  0  0  0  0  0  0  0  0  0
   10.2670   -0.0080   23.2510 C   0  0  0  0  0  0  0  0  0  0  0  0
   12.9700    0.3950   23.4860 C   0  0  0  0  0  0  0  0  0  0  0  0
   10.8250    1.1440   22.7670 C   0  0  0  0  0  0  0  0  0  0  0  0
    8.8010   -0.1950   23.0210 N   0  0  0  0  0  0  0  0  0  0  0  0
   12.1750    1.3700   22.8780 C   0  0  0  0  0  0  0  0  0  0  0  0
    8.2800    0.3010   21.8100 C   0  0  0  0  0  0  0  0  0  0  0  0
    8.7520    1.3000   21.2310 O   0  0  0  0  0  0  0  0  0  0  0  0
    7.1230   -0.4610   21.2850 N   0  0  0  0  0  0  0  0  0  0  0  0
    6.4930    0.0820   20.1860 C   0  0  0  0  0  0  0  0  0  0  0  0
    5.3660    0.7560   20.4420 C   0  0  0  0  0  0  0  0  0  0  0  0
    6.9320   -0.0050   18.8700 C   0  0  0  0  0  0  0  0  0  0  0  0
    4.5700    1.4210   19.3810 C   0  0  0  0  0  0  0  0  0  0  0  0
    6.3280    0.5530   17.7550 N   0  0  0  0  0  0  0  0  0  0  0  0
    5.1810    1.2470   18.0060 C   0  0  0  0  0  0  0  0  0  0  0  0
  1  2  2  3
  1  3  1  0
  3  4  2  0
  3  5  1  0
  4  6  1  0
  5  7  2  0
  6  8  2  0
  7  8  1  0
  8  9  1  0
  9 10  1  0
 10 11  2  0
 10 12  1  0
 11 13  1  0
 12 14  2  0
 12 15  1  0
 13 16  2  0
 14 16  1  0
 15 17  1  0
 17 18  2  0
 17 19  1  0
 19 20  1  0
 20 21  2  0
 20 22  1  0
 21 23  1  0
 22 24  2  0
 23 25  2  0
 24 25  1  0
M  END
