MAK-UNK-212f693e-32-vinylsulfonamide
     RDKit          3D

 17 18  0  0  0  0  0  0  0  0999 V2000
    6.6050   -3.7110   19.9760 C   0  0  0  0  0  0  0  0  0  0  0  0
    6.7650   -2.5370   20.9590 C   0  0  0  0  0  0  0  0  0  0  0  0
    5.7350   -2.7140   22.4130 S   0  0  0  0  0  0  0  0  0  0  0  0
    4.5090   -3.3950   22.0830 O   0  0  0  0  0  0  0  0  0  0  0  0
    5.6820   -1.4080   23.0360 O   0  0  0  0  0  0  0  0  0  0  0  0
    6.5360   -3.7260   23.5040 N   0  0  0  0  0  0  0  0  0  0  0  0
    5.7220   -4.5940   24.3380 C   0  0  0  0  0  0  0  0  0  0  0  0
    7.8170   -4.1630   23.1760 C   0  0  0  0  0  0  0  0  0  0  0  0
    5.4610   -5.8990   23.6070 C   0  0  0  0  0  0  0  0  0  0  0  0
    7.9940   -5.5580   22.9910 C   0  0  0  0  0  0  0  0  0  0  0  0
    6.7030   -6.3660   22.9000 C   0  0  0  0  0  0  0  0  0  0  0  0
    5.6540   -5.8300   22.0150 C   0  0  0  0  0  0  0  0  0  0  0  0
    4.6770   -6.7140   21.5840 C   0  0  0  0  0  0  0  0  0  0  0  0
    3.2920   -7.1100   22.4570 C   0  0  0  0  0  0  0  0  0  0  0  0
    4.5160   -7.5230   20.1980 C   0  0  0  0  0  0  0  0  0  0  0  0
    2.2410   -8.1520   21.7690 C   0  0  0  0  0  0  0  0  0  0  0  0
    2.7170   -8.7850   20.1060 S   0  0  0  0  0  0  0  0  0  0  0  0
  1  2  1  0
  3  2  1  0
  3  4  2  0
  3  5  2  0
  3  6  1  0
  6  7  1  0
  6  8  1  0
  7  9  1  0
  8 10  1  0
  9 11  1  0
 10 11  1  0
 11 12  1  0
 12 13  1  0
 13 14  1  0
 13 15  2  0
 14 16  2  0
 15 17  1  0
 16 17  1  0
M  END
