MAK-UNK-849bee6c-25-bromoalkyne
     RDKit          3D

 30 32  0  0  0  0  0  0  0  0999 V2000
    6.9340   -3.6230   19.8530 C   0  0  0  0  0  0  0  0  0  0  0  0
    5.9110   -3.0690   18.8830 C   0  0  0  0  0  0  0  0  0  0  0  0
    6.6490   -3.7480   21.2130 N   0  0  0  0  0  0  0  0  0  0  0  0
    6.0580   -2.6300   21.9200 C   0  0  0  0  0  0  0  0  0  0  0  0
    6.6740   -4.9760   22.0100 C   0  0  0  0  0  0  0  0  0  0  0  0
    6.8760   -2.2270   23.1600 C   0  0  0  0  0  0  0  0  0  0  0  0
    6.8560   -4.6440   23.5060 C   0  0  0  0  0  0  0  0  0  0  0  0
    7.5750   -3.3720   23.7550 N   0  0  0  0  0  0  0  0  0  0  0  0
    8.9780   -3.6260   23.5510 C   0  0  0  0  0  0  0  0  0  0  0  0
    9.8720   -2.4330   23.2510 C   0  0  0  0  0  0  0  0  0  0  0  0
    9.6740   -1.0710   23.8530 C   0  0  0  0  0  0  0  0  0  0  0  0
   10.9260   -2.6550   22.3630 C   0  0  0  0  0  0  0  0  0  0  0  0
   10.6650   -0.0770   23.4160 C   0  0  0  0  0  0  0  0  0  0  0  0
   11.9050   -1.7790   21.9050 C   0  0  0  0  0  0  0  0  0  0  0  0
   10.6030    1.2410   23.8900 C   0  0  0  0  0  0  0  0  0  0  0  0
   11.7860   -0.4750   22.4270 C   0  0  0  0  0  0  0  0  0  0  0  0
   12.9900   -2.1430   20.9520 N   0  0  0  0  0  0  0  0  0  0  0  0
   13.7910   -1.0400   20.6300 C   0  0  0  0  0  0  0  0  0  0  0  0
   14.7260   -0.5770   19.5310 C   0  0  0  0  0  0  0  0  0  0  0  0
   13.5070   -0.2500   21.6180 N   0  0  0  0  0  0  0  0  0  0  0  0
   15.4010    0.7220   19.5810 C   0  0  0  0  0  0  0  0  0  0  0  0
   13.9950    0.9460   21.7450 C   0  0  0  0  0  0  0  0  0  0  0  0
   16.2430    1.1670   18.6530 N   0  0  0  0  0  0  0  0  0  0  0  0
   14.9870    1.5650   20.8900 N   0  0  0  0  0  0  0  0  0  0  0  0
   13.2840    1.5620   22.8830 C   0  0  0  0  0  0  0  0  0  0  0  0
   15.9880    0.6100   17.3300 C   0  0  0  0  0  0  0  0  0  0  0  0
   12.5330    1.9590   23.6250 N   0  0  0  0  0  0  0  0  0  0  0  0
   14.8670    0.7040   16.8580 O   0  0  0  0  0  0  0  0  0  0  0  0
   17.1520   -0.0440   16.6870 C   0  0  0  0  0  0  0  0  0  0  0  0
   17.5180   -1.5380   17.5760 Cl  0  0  0  0  0  0  0  0  0  0  0  0
  1  2  2  3
  1  3  1  0
  3  4  1  0
  3  5  1  0
  4  6  1  0
  5  7  1  0
  6  8  1  0
  7  8  1  0
  8  9  1  0
  9 10  1  0
 10 11  2  0
 10 12  1  0
 11 13  1  0
 12 14  2  0
 13 15  1  0
 13 16  2  0
 14 16  1  0
 14 17  1  0
 17 18  1  0
 18 19  2  0
 18 20  1  0
 19 21  1  0
 20 22  2  0
 21 23  1  0
 21 24  2  0
 22 24  1  0
 22 25  1  0
 23 26  1  0
 25 27  3  0
 26 28  2  0
 26 29  1  0
 29 30  1  0
M  END
