MAK-UNK-ec98eaf6-46-bromoalkyne
     RDKit          3D

 24 27  0  0  0  0  0  0  0  0999 V2000
    6.7000   -3.5560   19.9000 C   0  0  0  0  0  0  0  0  0  0  0  0
    5.8080   -3.5180   18.8410 C   0  0  0  0  0  0  0  0  0  0  0  0
    7.6750   -3.5960   21.0560 N   0  0  0  0  0  0  0  0  0  0  0  0
    7.3140   -4.0320   22.3960 C   0  0  2  0  0  0  0  0  0  0  0  0
    8.3940   -2.2810   21.3800 C   0  0  2  0  0  0  0  0  0  0  0  0
    7.2120   -2.7960   23.2300 C   0  0  0  0  0  0  0  0  0  0  0  0
    8.6110   -2.3250   22.8920 C   0  0  1  0  0  0  0  0  0  0  0  0
    7.4720   -1.1000   21.1340 C   0  0  0  0  0  0  0  0  0  0  0  0
    8.6340   -4.5910   23.0210 C   0  0  0  0  0  0  0  0  0  0  0  0
    7.6960    0.2310   21.8310 C   0  0  0  0  0  0  0  0  0  0  0  0
    9.5890   -3.4000   22.8580 N   0  0  0  0  0  0  0  0  0  0  0  0
    6.8970    0.5660   23.0890 C   0  0  0  0  0  0  0  0  0  0  0  0
    8.6250    1.2050   21.3790 C   0  0  0  0  0  0  0  0  0  0  0  0
   10.6820   -3.2580   23.8300 C   0  0  0  0  0  0  0  0  0  0  0  0
    7.0880    1.7870   23.7450 C   0  0  0  0  0  0  0  0  0  0  0  0
    8.7750    2.4000   22.0830 C   0  0  0  0  0  0  0  0  0  0  0  0
   11.5060   -2.2460   23.4150 C   0  0  0  0  0  0  0  0  0  0  0  0
    8.0320    2.6940   23.2290 C   0  0  0  0  0  0  0  0  0  0  0  0
   11.6200   -1.0410   24.3450 C   0  0  0  0  0  0  0  0  0  0  0  0
   12.2360   -2.2490   22.1810 C   0  0  0  0  0  0  0  0  0  0  0  0
   12.5140    0.1230   23.9400 C   0  0  0  0  0  0  0  0  0  0  0  0
   13.0710   -1.1680   21.7940 C   0  0  0  0  0  0  0  0  0  0  0  0
   13.2320   -0.0210   22.6020 C   0  0  0  0  0  0  0  0  0  0  0  0
   13.9210   -1.2410   20.3060 Cl  0  0  0  0  0  0  0  0  0  0  0  0
  1  2  2  3
  1  3  1  0
  3  4  1  0
  3  5  1  0
  4  6  1  0
  5  7  1  0
  6  7  1  0
  5  8  1  1
  4  9  1  1
  8 10  1  0
  7 11  1  6
  9 11  1  0
 10 12  2  0
 10 13  1  0
 11 14  1  0
 12 15  1  0
 13 16  2  0
 14 17  1  0
 15 18  2  0
 16 18  1  0
 17 19  2  0
 17 20  1  0
 19 21  1  0
 20 22  2  0
 21 23  2  0
 22 23  1  0
 22 24  1  0
M  END
