MAK-UNK-8fdbca50-11-nitrile
     RDKit          3D

 38 41  0  0  0  0  0  0  0  0999 V2000
    8.2800   -3.4820   20.1570 C   0  0  0  0  0  0  0  0  0  0  0  0
    6.9810   -3.3890   19.6010 N   0  0  0  0  0  0  0  0  0  0  0  0
    9.1140   -2.6770   21.3570 N   0  0  0  0  0  0  0  0  0  0  0  0
    8.5760   -1.7850   22.4700 C   0  0  0  0  0  0  0  0  0  0  0  0
   10.6530   -2.3950   21.4340 C   0  0  0  0  0  0  0  0  0  0  0  0
    9.6360   -0.8750   23.0870 C   0  0  0  0  0  0  0  0  0  0  0  0
   11.3740   -2.5090   22.6300 C   0  0  0  0  0  0  0  0  0  0  0  0
   10.7820   -1.6400   23.6940 C   0  0  0  0  0  0  0  0  0  0  0  0
   10.6940   -2.4760   24.8420 C   0  0  0  0  0  0  0  0  0  0  0  0
   11.7250   -2.8510   25.3760 O   0  0  0  0  0  0  0  0  0  0  0  0
    9.3230   -2.8890   25.3250 N   0  0  0  0  0  0  0  0  0  0  0  0
    8.2630   -1.8640   25.2790 C   0  0  0  0  0  0  0  0  0  0  0  0
    9.2800   -4.0410   26.2760 C   0  0  2  0  0  0  0  0  0  0  0  0
   10.2960   -5.0140   25.7450 C   0  0  0  0  0  0  0  0  0  0  0  0
    7.9280   -4.7830   26.2130 C   0  0  0  0  0  0  0  0  0  0  0  0
    6.8690   -4.2060   27.1010 C   0  0  0  0  0  0  0  0  0  0  0  0
    7.1550   -3.7080   28.4780 C   0  0  0  0  0  0  0  0  0  0  0  0
    5.6350   -4.1720   26.5470 C   0  0  0  0  0  0  0  0  0  0  0  0
    6.0810   -3.1860   29.1860 C   0  0  0  0  0  0  0  0  0  0  0  0
    4.5530   -3.6540   27.2640 C   0  0  0  0  0  0  0  0  0  0  0  0
    5.4640   -4.6440   25.2780 C   0  0  0  0  0  0  0  0  0  0  0  0
    4.7150   -3.1560   28.5620 C   0  0  0  0  0  0  0  0  0  0  0  0
    6.1230   -5.7210   24.7760 C   0  0  0  0  0  0  0  0  0  0  0  0
    4.6450   -4.1480   24.2880 N   0  0  0  0  0  0  0  0  0  0  0  0
    5.7840   -5.9660   23.4770 C   0  0  0  0  0  0  0  0  0  0  0  0
    4.7710   -4.8940   23.1540 C   0  0  0  0  0  0  0  0  0  0  0  0
    3.5980   -2.8190   24.3070 S   0  0  0  0  0  0  0  0  0  0  0  0
    6.2920   -6.9680   22.6930 C   0  0  0  0  0  0  0  0  0  0  0  0
    2.3230   -3.2990   24.7920 O   0  0  0  0  0  0  0  0  0  0  0  0
    3.7780   -2.3380   22.9640 O   0  0  0  0  0  0  0  0  0  0  0  0
    4.1900   -1.5340   25.3460 C   0  0  0  0  0  0  0  0  0  0  0  0
    7.6830   -6.6240   22.4620 N   0  0  0  0  0  0  0  0  0  0  0  0
    5.5470   -1.3170   25.5180 C   0  0  0  0  0  0  0  0  0  0  0  0
    3.3050   -0.7040   26.0150 C   0  0  0  0  0  0  0  0  0  0  0  0
    8.5640   -7.4060   23.3110 C   0  0  0  0  0  0  0  0  0  0  0  0
    6.1000   -0.3270   26.3110 C   0  0  0  0  0  0  0  0  0  0  0  0
    3.7000    0.3180   26.8360 N   0  0  0  0  0  0  0  0  0  0  0  0
    5.0360    0.5190   26.9950 C   0  0  0  0  0  0  0  0  0  0  0  0
  1  2  2  3
  1  3  1  0
  3  4  1  0
  3  5  1  0
  4  6  1  0
  5  7  1  0
  6  8  1  0
  7  8  1  0
  8  9  1  0
  9 10  2  0
  9 11  1  0
 11 12  1  0
 11 13  1  0
 13 14  1  6
 13 15  1  0
 15 16  1  0
 16 17  2  0
 16 18  1  0
 17 19  1  0
 18 20  2  0
 18 21  1  0
 19 22  2  0
 20 22  1  0
 21 23  2  0
 21 24  1  0
 23 25  1  0
 24 26  1  0
 25 26  2  0
 24 27  1  0
 25 28  1  0
 27 29  2  0
 27 30  2  0
 27 31  1  0
 28 32  1  0
 31 33  2  0
 31 34  1  0
 32 35  1  0
 33 36  1  0
 34 37  2  0
 36 38  2  0
 37 38  1  0
M  END
