MAK-UNK-30aad1f1-4-acrylamide
     RDKit          3D

 28 30  0  0  0  0  0  0  0  0999 V2000
    7.2510   -3.5660   19.8100 C   0  0  0  0  0  0  0  0  0  0  0  0
    6.3050   -2.9110   19.1790 C   0  0  0  0  0  0  0  0  0  0  0  0
    4.9780   -3.0910   19.8270 C   0  0  0  0  0  0  0  0  0  0  0  0
    5.1740   -4.3090   19.8580 O   0  0  0  0  0  0  0  0  0  0  0  0
    5.1360   -1.6680   19.5980 C   0  0  0  0  0  0  0  0  0  0  0  0
    5.6860   -1.0620   18.2900 C   0  0  0  0  0  0  0  0  0  0  0  0
    4.7790   -0.8120   20.5690 C   0  0  0  0  0  0  0  0  0  0  0  0
    5.7540    0.4210   18.2160 C   0  0  0  0  0  0  0  0  0  0  0  0
    4.8570    0.4670   20.4630 N   0  0  0  0  0  0  0  0  0  0  0  0
    5.3120    1.0440   19.3700 C   0  0  0  0  0  0  0  0  0  0  0  0
    5.2870    2.3170   19.6610 N   0  0  0  0  0  0  0  0  0  0  0  0
    6.3480    2.1260   20.6430 C   0  0  0  0  0  0  0  0  0  0  0  0
    5.9670    1.2890   21.7580 C   0  0  0  0  0  0  0  0  0  0  0  0
    6.7450    0.0750   21.9060 C   0  0  0  0  0  0  0  0  0  0  0  0
    4.9140    1.4760   22.7790 C   0  0  0  0  0  0  0  0  0  0  0  0
    6.5260   -0.8550   22.9310 C   0  0  0  0  0  0  0  0  0  0  0  0
    4.7600    0.5020   23.7690 C   0  0  0  0  0  0  0  0  0  0  0  0
    3.9950    2.6280   22.8430 N   0  0  0  0  0  0  0  0  0  0  0  0
    5.5970   -0.7310   23.8700 N   0  0  0  0  0  0  0  0  0  0  0  0
    2.7910    2.5310   23.5110 C   0  0  0  0  0  0  0  0  0  0  0  0
    2.5600    1.7700   24.4500 O   0  0  0  0  0  0  0  0  0  0  0  0
    1.8620    3.4690   22.9260 N   0  0  0  0  0  0  0  0  0  0  0  0
    0.6130    3.6730   23.4430 C   0  0  0  0  0  0  0  0  0  0  0  0
   -0.5900    2.8770   23.0170 C   0  0  0  0  0  0  0  0  0  0  0  0
    0.5010    4.6970   24.4110 C   0  0  0  0  0  0  0  0  0  0  0  0
   -1.9510    3.1830   23.6350 C   0  0  0  0  0  0  0  0  0  0  0  0
   -0.8450    5.0530   25.0700 C   0  0  0  0  0  0  0  0  0  0  0  0
   -2.0890    4.2640   24.6560 C   0  0  0  0  0  0  0  0  0  0  0  0
  1  2  1  0
  2  3  1  0
  3  4  2  0
  3  5  1  0
  5  6  2  0
  5  7  1  0
  6  8  1  0
  7  9  2  0
  8 10  2  0
  9 10  1  0
 10 11  1  0
 11 12  1  0
 12 13  1  0
 13 14  2  0
 13 15  1  0
 14 16  1  0
 15 17  2  0
 15 18  1  0
 16 19  2  0
 17 19  1  0
 18 20  1  0
 20 21  2  0
 20 22  1  0
 22 23  1  0
 23 24  2  0
 23 25  1  0
 24 26  1  0
 25 27  2  0
 26 28  2  0
 27 28  1  0
M  END
