MAK-UNK-0955449e-33
     RDKit          3D

 29 32  0  0  0  0  0  0  0  0999 V2000
    6.4090   -0.4250   18.5030 C   0  0  0  0  0  0  0  0  0  0  0  0
    5.6630   -1.3280   19.2410 N   0  0  0  0  0  0  0  0  0  0  0  0
    5.5420   -2.6380   18.8220 C   0  0  0  0  0  0  0  0  0  0  0  0
    5.9070   -3.5120   19.9780 C   0  0  0  0  0  0  0  0  0  0  0  0
    6.9820   -3.1590   20.8260 C   0  0  0  0  0  0  0  0  0  0  0  0
    5.4640   -4.7720   20.5840 C   0  0  0  0  0  0  0  0  0  0  0  0
    6.9560   -4.1990   21.7210 C   0  0  0  0  0  0  0  0  0  0  0  0
    6.1960   -5.1180   21.7460 N   0  0  0  0  0  0  0  0  0  0  0  0
    8.0650   -3.6860   22.3890 C   0  0  0  0  0  0  0  0  0  0  0  0
    6.1280   -6.3700   22.8540 S   0  0  0  0  0  0  0  0  0  0  0  0
    8.4970   -4.4470   23.4120 C   0  0  0  0  0  0  0  0  0  0  0  0
    8.7100   -2.4990   22.0210 C   0  0  0  0  0  0  0  0  0  0  0  0
    4.7420   -6.7540   22.9590 O   0  0  0  0  0  0  0  0  0  0  0  0
    7.1560   -7.3170   22.5260 O   0  0  0  0  0  0  0  0  0  0  0  0
    6.5680   -5.5770   24.3770 C   0  0  0  0  0  0  0  0  0  0  0  0
    9.7070   -4.0360   24.1450 C   0  0  0  0  0  0  0  0  0  0  0  0
    9.9070   -1.9690   22.6570 N   0  0  0  0  0  0  0  0  0  0  0  0
    7.8770   -5.6120   24.9200 C   0  0  0  0  0  0  0  0  0  0  0  0
    5.5990   -4.8680   25.1200 C   0  0  0  0  0  0  0  0  0  0  0  0
   10.3550   -2.8230   23.7120 C   0  0  0  0  0  0  0  0  0  0  0  0
    8.1450   -4.9700   26.1250 C   0  0  0  0  0  0  0  0  0  0  0  0
    5.8330   -4.2280   26.3050 N   0  0  0  0  0  0  0  0  0  0  0  0
   11.4640   -2.5240   24.2990 C   0  0  0  0  0  0  0  0  0  0  0  0
    7.1010   -4.3130   26.7460 C   0  0  0  0  0  0  0  0  0  0  0  0
   12.1190   -1.4010   23.9800 C   0  0  0  0  0  0  0  0  0  0  0  0
   11.9140   -3.4570   25.2140 C   0  0  0  0  0  0  0  0  0  0  0  0
   13.2840   -1.2010   24.5850 C   0  0  0  0  0  0  0  0  0  0  0  0
   13.0960   -3.3370   25.8710 C   0  0  0  0  0  0  0  0  0  0  0  0
   13.8540   -2.2470   25.6250 C   0  0  0  0  0  0  0  0  0  0  0  0
  1  2  1  0
  2  3  1  0
  3  4  1  0
  4  5  1  0
  4  6  2  0
  5  7  2  0
  6  8  1  0
  7  8  1  0
  7  9  1  0
  8 10  1  0
  9 11  2  0
  9 12  1  0
 10 13  2  0
 10 14  2  0
 10 15  1  0
 11 16  1  0
 12 17  2  0
 15 18  2  0
 15 19  1  0
 16 20  2  0
 17 20  1  0
 18 21  1  0
 19 22  2  0
 20 23  1  0
 21 24  2  0
 22 24  1  0
 23 25  2  0
 23 26  1  0
 25 27  1  0
 26 28  2  0
 27 29  2  0
 28 29  1  0
M  END
