MAK-UNK-212f693e-1
     RDKit          3D

 15 16  0  0  0  0  0  0  0  0999 V2000
    7.2050   -3.0040   20.7230 C   0  0  0  0  0  0  0  0  0  0  0  0
    6.2770   -4.2260   20.7530 C   0  0  0  0  0  0  0  0  0  0  0  0
    5.4480   -4.4350   19.8610 O   0  0  0  0  0  0  0  0  0  0  0  0
    6.4700   -5.0450   21.8440 N   0  0  0  0  0  0  0  0  0  0  0  0
    7.1910   -4.5970   23.0310 C   0  0  0  0  0  0  0  0  0  0  0  0
    5.4380   -5.9170   22.2360 C   0  0  0  0  0  0  0  0  0  0  0  0
    6.2120   -4.1570   24.1250 C   0  0  0  0  0  0  0  0  0  0  0  0
    4.5300   -5.6830   23.2910 C   0  0  0  0  0  0  0  0  0  0  0  0
    5.3010   -5.2780   24.4400 N   0  0  0  0  0  0  0  0  0  0  0  0
    4.4740   -5.0260   25.6260 O   0  0  0  0  0  0  0  0  0  0  0  0
    3.5970   -3.9760   25.6140 C   0  0  0  0  0  0  0  0  0  0  0  0
    3.7690   -2.5080   25.7300 C   0  0  0  0  0  0  0  0  0  0  0  0
    2.2220   -4.2280   25.4810 C   0  0  0  0  0  0  0  0  0  0  0  0
    2.6420   -1.7500   25.6950 C   0  0  0  0  0  0  0  0  0  0  0  0
    1.2000   -2.7450   25.5110 S   0  0  0  0  0  0  0  0  0  0  0  0
  1  2  1  0
  2  3  2  0
  2  4  1  0
  4  5  1  0
  4  6  1  0
  5  7  1  0
  6  8  1  0
  7  9  1  0
  8  9  1  0
  9 10  1  0
 10 11  1  0
 11 12  1  0
 11 13  2  0
 12 14  2  0
 13 15  1  0
 14 15  1  0
M  END
