MAK-UNK-10799360-4-acrylamide
     RDKit          3D

 26 29  0  0  0  0  0  0  0  0999 V2000
    7.3760   -2.9020   18.6050 C   0  0  0  0  0  0  0  0  0  0  0  0
    6.8250   -2.0340   19.7180 C   0  0  0  0  0  0  0  0  0  0  0  0
    5.8070   -2.8000   20.5270 C   0  0  0  0  0  0  0  0  0  0  0  0
    5.1620   -3.7780   20.0800 O   0  0  0  0  0  0  0  0  0  0  0  0
    5.6990   -2.3160   21.8070 N   0  0  0  0  0  0  0  0  0  0  0  0
    6.1640   -0.9340   22.0720 C   0  0  0  0  0  0  0  0  0  0  0  0
    6.0950   -3.0550   23.0200 C   0  0  2  0  0  0  0  0  0  0  0  0
    7.0240   -1.1000   23.3350 C   0  0  1  0  0  0  0  0  0  0  0  0
    6.0820   -2.0160   24.1360 C   0  0  0  0  0  0  0  0  0  0  0  0
    7.5920   -3.3320   22.9180 C   0  0  0  0  0  0  0  0  0  0  0  0
    8.1950   -1.9800   23.0270 N   0  0  0  0  0  0  0  0  0  0  0  0
    9.3510   -1.9500   23.9360 C   0  0  0  0  0  0  0  0  0  0  0  0
   10.5170   -1.2180   23.5540 C   0  0  0  0  0  0  0  0  0  0  0  0
   10.6430    0.1010   24.0480 C   0  0  0  0  0  0  0  0  0  0  0  0
   11.6090   -1.6890   22.7200 C   0  0  0  0  0  0  0  0  0  0  0  0
   11.7720    0.8570   23.7270 C   0  0  0  0  0  0  0  0  0  0  0  0
   12.7230   -0.8830   22.4370 C   0  0  0  0  0  0  0  0  0  0  0  0
   11.8710   -2.9010   22.0320 N   0  0  0  0  0  0  0  0  0  0  0  0
   12.7830    0.3800   22.9490 C   0  0  0  0  0  0  0  0  0  0  0  0
   13.6100   -1.5670   21.6350 N   0  0  0  0  0  0  0  0  0  0  0  0
   13.1710   -2.8390   21.3300 C   0  0  0  0  0  0  0  0  0  0  0  0
   13.8490   -3.9100   20.4290 C   0  0  0  0  0  0  0  0  0  0  0  0
   14.9970   -5.2750   20.5730 S   0  0  0  0  0  0  0  0  0  0  0  0
   15.9250   -5.4300   21.9400 N   0  0  0  0  0  0  0  0  0  0  0  0
   16.0930   -5.0990   19.6720 O   0  0  0  0  0  0  0  0  0  0  0  0
   14.2480   -6.4700   20.5040 O   0  0  0  0  0  0  0  0  0  0  0  0
  1  2  1  0
  2  3  1  0
  3  4  2  0
  3  5  1  0
  5  6  1  0
  5  7  1  0
  8  6  1  6
  7  9  1  0
  8  9  1  0
  7 10  1  6
  8 11  1  0
 10 11  1  0
 11 12  1  0
 12 13  1  0
 13 14  1  0
 13 15  2  0
 14 16  2  0
 15 17  1  0
 15 18  1  0
 16 19  1  0
 17 19  2  0
 17 20  1  0
 18 21  1  0
 20 21  2  0
 21 22  1  0
 22 23  1  0
 23 24  1  0
 23 25  2  0
 23 26  2  0
M  END
