MAK-UNK-af83ef51-7-nitrile
     RDKit          3D

 21 22  0  0  0  0  0  0  0  0999 V2000
    6.8170   -3.4540   19.6700 C   0  0  0  0  0  0  0  0  0  0  0  0
    6.3840   -3.0090   18.5540 N   0  0  0  0  0  0  0  0  0  0  0  0
    6.6870   -2.7010   20.8100 N   0  0  0  0  0  0  0  0  0  0  0  0
    6.2120   -3.2230   22.0930 C   0  0  0  0  0  0  0  0  0  0  0  0
    7.4250   -1.4210   20.8780 C   0  0  2  0  0  0  0  0  0  0  0  0
    7.4040   -3.3700   23.0500 C   0  0  0  0  0  0  0  0  0  0  0  0
    8.6660   -1.6080   21.7520 C   0  0  0  0  0  0  0  0  0  0  0  0
    6.6060   -0.2360   21.4090 C   0  0  0  0  0  0  0  0  0  0  0  0
    8.2470   -2.0860   23.1380 C   0  0  2  0  0  0  0  0  0  0  0  0
    5.8070   -0.2820   22.3350 O   0  0  0  0  0  0  0  0  0  0  0  0
    6.8170    0.9420   20.7760 O   0  0  0  0  0  0  0  0  0  0  0  0
    9.4480   -2.2770   24.0610 C   0  0  0  0  0  0  0  0  0  0  0  0
    7.2120    2.0410   21.6100 C   0  0  0  0  0  0  0  0  0  0  0  0
   10.5900   -1.3660   23.7320 C   0  0  0  0  0  0  0  0  0  0  0  0
    8.7130    2.0130   21.8280 C   0  0  0  0  0  0  0  0  0  0  0  0
   11.8380   -1.8490   23.3230 C   0  0  0  0  0  0  0  0  0  0  0  0
   10.3930    0.0120   23.8320 C   0  0  0  0  0  0  0  0  0  0  0  0
   12.8660   -0.9560   23.0230 C   0  0  0  0  0  0  0  0  0  0  0  0
   11.4140    0.9080   23.5270 C   0  0  0  0  0  0  0  0  0  0  0  0
   12.6550    0.4180   23.1250 C   0  0  0  0  0  0  0  0  0  0  0  0
   11.1660    2.3740   23.6260 C   0  0  0  0  0  0  0  0  0  0  0  0
  1  2  2  3
  1  3  1  0
  3  4  1  0
  3  5  1  0
  4  6  1  0
  5  7  1  0
  5  8  1  1
  6  9  1  0
  7  9  1  0
  8 10  2  0
  8 11  1  0
  9 12  1  1
 11 13  1  0
 12 14  1  0
 13 15  1  0
 14 16  2  0
 14 17  1  0
 16 18  1  0
 17 19  2  0
 18 20  2  0
 19 20  1  0
 19 21  1  0
M  END
