MAK-UNK-10572812-2
     RDKit          3D

 34 38  0  0  0  0  0  0  0  0999 V2000
   12.4270    1.1340   23.2740 C   0  0  0  0  0  0  0  0  0  0  0  0
   12.9710   -0.3140   23.3160 C   0  0  0  0  0  0  0  0  0  0  0  0
   13.4000   -0.7990   22.0420 O   0  0  0  0  0  0  0  0  0  0  0  0
   12.9970   -1.0410   24.6110 N   0  0  0  0  0  0  0  0  0  0  0  0
   12.9430   -2.4990   24.4330 C   0  0  2  0  0  0  0  0  0  0  0  0
   13.9560   -2.7580   23.2640 C   0  0  0  0  0  0  0  0  0  0  0  0
   11.5720   -2.6770   23.8910 N   0  0  0  0  0  0  0  0  0  0  0  0
   15.1040   -3.8620   23.7300 C   0  0  0  0  0  0  0  0  0  0  0  0
   10.5330   -2.5500   24.7640 C   0  0  0  0  0  0  0  0  0  0  0  0
   11.3350   -2.0190   22.5700 C   0  0  0  0  0  0  0  0  0  0  0  0
   16.2830   -4.6900   23.0180 C   0  0  0  0  0  0  0  0  0  0  0  0
   15.0880   -4.4340   25.0290 C   0  0  0  0  0  0  0  0  0  0  0  0
    9.8250   -1.2280   24.5390 C   0  0  0  0  0  0  0  0  0  0  0  0
   10.0270   -1.8690   22.1650 C   0  0  0  0  0  0  0  0  0  0  0  0
   16.8450   -5.5480   23.8400 N   0  0  0  0  0  0  0  0  0  0  0  0
   16.1750   -5.4990   25.0330 C   0  0  0  0  0  0  0  0  0  0  0  0
   14.3830   -4.2580   26.0100 C   0  0  0  0  0  0  0  0  0  0  0  0
    9.1930   -1.2650   23.1880 N   0  0  0  0  0  0  0  0  0  0  0  0
   16.4780   -6.4110   26.1370 C   0  0  0  0  0  0  0  0  0  0  0  0
   14.5760   -5.0300   26.9980 C   0  0  0  0  0  0  0  0  0  0  0  0
    8.0330   -0.4420   22.7580 C   0  0  0  0  0  0  0  0  0  0  0  0
   15.5420   -6.1300   27.2230 C   0  0  0  0  0  0  0  0  0  0  0  0
   13.8210   -4.6740   27.8360 F   0  0  0  0  0  0  0  0  0  0  0  0
    7.9260    0.9090   22.8740 O   0  0  0  0  0  0  0  0  0  0  0  0
    6.7910   -1.0890   22.1170 C   0  0  0  0  0  0  0  0  0  0  0  0
    6.4320   -0.4020   20.7710 C   0  0  0  0  0  0  0  0  0  0  0  0
    7.1700   -0.7360   19.5190 C   0  0  0  0  0  0  0  0  0  0  0  0
    5.4670    0.5820   20.3540 C   0  0  0  0  0  0  0  0  0  0  0  0
    6.6710   -0.0180   18.4910 N   0  0  0  0  0  0  0  0  0  0  0  0
    5.6520    0.7840   18.9610 C   0  0  0  0  0  0  0  0  0  0  0  0
    4.4670    1.3200   20.9850 C   0  0  0  0  0  0  0  0  0  0  0  0
    4.9700    1.6180   18.1660 N   0  0  0  0  0  0  0  0  0  0  0  0
    3.6680    2.2290   20.2910 C   0  0  0  0  0  0  0  0  0  0  0  0
    4.0080    2.3200   18.8040 C   0  0  0  0  0  0  0  0  0  0  0  0
  1  2  1  0
  2  3  2  0
  2  4  1  0
  4  5  1  0
  5  6  1  6
  5  7  1  0
  6  8  1  0
  7  9  1  0
  7 10  1  0
  8 11  2  0
  8 12  1  0
  9 13  1  0
 10 14  1  0
 11 15  1  0
 12 16  2  0
 15 16  1  0
 12 17  1  0
 13 18  1  0
 14 18  1  0
 16 19  1  0
 17 20  2  0
 18 21  1  0
 19 22  2  0
 20 22  1  0
 20 23  1  0
 21 24  2  0
 21 25  1  0
 25 26  1  0
 26 27  2  0
 26 28  1  0
 27 29  1  0
 28 30  2  0
 29 30  1  0
 28 31  1  0
 30 32  1  0
 31 33  2  0
 32 34  2  0
 33 34  1  0
M  END
