MAR-UNI-9d4da90d-6-chloroacetamide
     RDKit          3D

 18 19  0  0  0  0  0  0  0  0999 V2000
    7.0680   -4.2590   20.4240 C   0  0  0  0  0  0  0  0  0  0  0  0
    7.5230   -2.8690   19.9590 C   0  0  0  0  0  0  0  0  0  0  0  0
    6.7590   -3.3150   19.0680 O   0  0  0  0  0  0  0  0  0  0  0  0
    8.3630   -2.6830   21.2840 C   0  0  0  0  0  0  0  0  0  0  0  0
    9.7720   -2.7050   21.4570 C   0  0  0  0  0  0  0  0  0  0  0  0
    7.6880   -2.4370   22.4930 C   0  0  0  0  0  0  0  0  0  0  0  0
   10.4510   -2.4990   22.5950 N   0  0  0  0  0  0  0  0  0  0  0  0
    8.4010   -2.2340   23.7160 C   0  0  0  0  0  0  0  0  0  0  0  0
    9.7900   -2.2660   23.7080 C   0  0  0  0  0  0  0  0  0  0  0  0
    7.6850   -1.9840   25.0250 C   0  0  0  0  0  0  0  0  0  0  0  0
   10.5480   -2.0540   24.8790 N   0  0  0  0  0  0  0  0  0  0  0  0
    7.8840   -3.1220   25.9580 N   0  0  0  0  0  0  0  0  0  0  0  0
    6.6830   -3.9680   26.0690 C   0  0  0  0  0  0  0  0  0  0  0  0
    9.1610   -3.8460   25.7570 C   0  0  0  0  0  0  0  0  0  0  0  0
    7.0670   -5.2790   26.3120 C   0  0  0  0  0  0  0  0  0  0  0  0
    9.3730   -5.0520   26.6860 C   0  0  0  0  0  0  0  0  0  0  0  0
    8.1350   -5.4190   27.1850 C   0  0  0  0  0  0  0  0  0  0  0  0
    7.9050   -4.6380   28.3560 O   0  0  0  0  0  0  0  0  0  0  0  0
  1  2  1  0
  2  3  2  0
  2  4  1  0
  4  5  2  0
  4  6  1  0
  5  7  1  0
  6  8  2  0
  7  9  2  0
  8  9  1  0
  8 10  1  0
  9 11  1  0
 10 12  1  0
 12 13  1  0
 12 14  1  0
 13 15  1  0
 14 16  1  0
 15 17  1  0
 16 17  1  0
 17 18  1  0
M  END
