MAR-TRE-3724962b-8
     RDKit          3D

 28 30  0  0  0  0  0  0  0  0999 V2000
    4.3430    0.9010   18.5080 C   0  0  0  0  0  0  0  0  0  0  0  0
    5.5190    0.6070   19.2810 C   0  0  0  0  0  0  0  0  0  0  0  0
    6.2720    1.5720   19.8790 C   0  0  0  0  0  0  0  0  0  0  0  0
    6.0790   -0.5910   19.5500 N   0  0  0  0  0  0  0  0  0  0  0  0
    7.3360    1.0900   20.5440 C   0  0  0  0  0  0  0  0  0  0  0  0
    7.2010   -0.2820   20.3280 N   0  0  0  0  0  0  0  0  0  0  0  0
    8.3000    1.7420   21.2420 N   0  0  0  0  0  0  0  0  0  0  0  0
    8.1560   -1.1130   20.8790 C   0  0  0  0  0  0  0  0  0  0  0  0
    9.2780    0.9950   21.8440 C   0  0  0  0  0  0  0  0  0  0  0  0
    9.2990   -0.4910   21.6940 C   0  0  0  0  0  0  0  0  0  0  0  0
   10.3750   -1.3760   22.2610 C   0  0  0  0  0  0  0  0  0  0  0  0
   11.0960   -1.0880   23.2130 O   0  0  0  0  0  0  0  0  0  0  0  0
   10.3780   -2.5210   21.4970 N   0  0  0  0  0  0  0  0  0  0  0  0
   11.7310   -3.0970   21.2980 C   0  0  0  0  0  0  0  0  0  0  0  0
   11.5520   -4.3200   20.5630 C   0  0  0  0  0  0  0  0  0  0  0  0
   12.6960   -4.3850   19.9150 C   0  0  0  0  0  0  0  0  0  0  0  0
   10.1830   -4.2070   20.0930 C   0  0  0  0  0  0  0  0  0  0  0  0
   11.3570   -5.3380   19.9480 N   0  0  0  0  0  0  0  0  0  0  0  0
   10.4070   -5.4510   18.8110 C   0  0  0  0  0  0  0  0  0  0  0  0
   10.6400   -5.8510   17.3450 C   0  0  0  0  0  0  0  0  0  0  0  0
   11.5990   -5.3950   17.5590 O   0  0  0  0  0  0  0  0  0  0  0  0
   11.1540   -6.8620   16.0150 N   0  0  0  0  0  0  0  0  0  0  0  0
   12.2990   -6.5240   15.2080 C   0  0  0  0  0  0  0  0  0  0  0  0
   11.4440   -8.3870   15.7380 C   0  0  2  0  0  0  0  0  0  0  0  0
   13.3740   -7.5610   15.1090 C   0  0  0  0  0  0  0  0  0  0  0  0
   12.5610   -8.5510   14.9160 C   0  0  0  0  0  0  0  0  0  0  0  0
   10.5400   -9.6150   16.0570 C   0  0  0  0  0  0  0  0  0  0  0  0
    9.1660   -9.2030   17.0250 N   0  0  0  0  0  0  0  0  0  0  0  0
  1  2  1  0
  2  3  1  0
  2  4  2  0
  3  5  2  0
  4  6  1  0
  5  6  1  0
  5  7  1  0
  6  8  1  0
  7  9  2  0
  8 10  2  0
  9 10  1  0
 10 11  1  0
 11 12  2  0
 11 13  1  0
 13 14  1  0
 14 15  1  0
 15 16  1  0
 15 17  1  0
 15 18  1  0
 18 19  1  0
 19 20  1  0
 20 21  2  0
 20 22  1  0
 22 23  1  0
 22 24  1  0
 23 25  1  0
 24 26  1  0
 25 26  1  0
 24 27  1  6
 27 28  3  0
M  END
