MAT-GIT-deadff56-4-nitrile
     RDKit          3D

 32 35  0  0  0  0  0  0  0  0999 V2000
    8.3260   -3.5210   20.0240 C   0  0  0  0  0  0  0  0  0  0  0  0
    6.9270   -3.6560   19.7950 N   0  0  0  0  0  0  0  0  0  0  0  0
    9.0080   -2.2440   21.0760 C   0  0  0  0  0  0  0  0  0  0  0  0
    7.8910   -1.5320   21.7820 C   0  0  0  0  0  0  0  0  0  0  0  0
   10.4050   -1.5510   21.5270 C   0  0  0  0  0  0  0  0  0  0  0  0
    8.0700   -0.3450   22.6820 C   0  0  0  0  0  0  0  0  0  0  0  0
   10.5570   -0.2420   22.3660 C   0  0  0  0  0  0  0  0  0  0  0  0
   12.0020   -2.1230   21.1150 Cl  0  0  0  0  0  0  0  0  0  0  0  0
    6.8270    0.2340   23.3260 C   0  0  0  0  0  0  0  0  0  0  0  0
    9.2470    0.2510   22.9210 C   0  0  0  0  0  0  0  0  0  0  0  0
   11.6860    0.7340   22.7860 C   0  0  0  0  0  0  0  0  0  0  0  0
    5.8970    1.0220   22.5180 N   0  0  0  0  0  0  0  0  0  0  0  0
    6.2370    0.2090   24.7160 C   0  0  0  0  0  0  0  0  0  0  0  0
    9.5090    1.2800   23.6050 N   0  0  0  0  0  0  0  0  0  0  0  0
   10.8590    1.5900   23.5510 C   0  0  0  0  0  0  0  0  0  0  0  0
   12.4120    1.8100   23.3380 C   0  0  0  0  0  0  0  0  0  0  0  0
    4.9700    1.3080   23.5140 C   0  0  0  0  0  0  0  0  0  0  0  0
    5.1640    0.8720   24.6720 O   0  0  0  0  0  0  0  0  0  0  0  0
    6.6790   -0.4410   26.0770 C   0  0  0  0  0  0  0  0  0  0  0  0
   12.2320    3.2070   22.8570 C   0  0  0  0  0  0  0  0  0  0  0  0
    5.9890   -1.7680   26.2970 C   0  0  0  0  0  0  0  0  0  0  0  0
   10.9010    3.8520   23.1930 N   0  0  0  0  0  0  0  0  0  0  0  0
    5.7410   -2.2590   27.5920 C   0  0  0  0  0  0  0  0  0  0  0  0
   10.6930    5.1700   23.5700 C   0  0  0  0  0  0  0  0  0  0  0  0
    6.0190   -3.5970   27.8670 C   0  0  0  0  0  0  0  0  0  0  0  0
    9.6080    5.9740   22.7410 C   0  0  0  0  0  0  0  0  0  0  0  0
   11.3440    5.8120   24.6520 O   0  0  0  0  0  0  0  0  0  0  0  0
    6.7220   -4.4350   27.0350 C   0  0  0  0  0  0  0  0  0  0  0  0
    5.5150   -4.0350   29.0920 C   0  0  0  0  0  0  0  0  0  0  0  0
    6.9510   -5.8830   27.4940 C   0  0  0  0  0  0  0  0  0  0  0  0
    5.6600   -5.3390   29.6050 N   0  0  0  0  0  0  0  0  0  0  0  0
    6.3400   -6.2650   28.8860 C   0  0  0  0  0  0  0  0  0  0  0  0
  1  2  2  3
  1  3  1  0
  3  4  2  0
  3  5  1  0
  4  6  1  0
  5  7  2  0
  5  8  1  0
  6  9  1  0
  6 10  2  0
  7 10  1  0
  7 11  1  0
  9 12  1  0
  9 13  2  0
 10 14  1  0
 11 15  2  0
 14 15  1  0
 11 16  1  0
 12 17  2  0
 13 18  1  0
 17 18  1  0
 13 19  1  0
 16 20  1  0
 19 21  1  0
 20 22  1  0
 21 23  3  0
 22 24  1  0
 23 25  1  0
 24 26  1  0
 24 27  2  0
 25 28  2  0
 25 29  1  0
 28 30  1  0
 29 31  2  0
 30 32  2  0
 31 32  1  0
M  END
