MAT-GIT-deadff56-1-vinylsulfonamide
     RDKit          3D

 20 21  0  0  0  0  0  0  0  0999 V2000
    7.0160   -3.1730   18.8820 C   0  0  0  0  0  0  0  0  0  0  0  0
    7.0430   -2.1300   19.9390 C   0  0  0  0  0  0  0  0  0  0  0  0
    6.8450   -2.9320   21.4980 S   0  0  0  0  0  0  0  0  0  0  0  0
    5.0850   -3.3440   21.4070 O   0  0  0  0  0  0  0  0  0  0  0  0
    7.5440   -4.1870   21.6570 O   0  0  0  0  0  0  0  0  0  0  0  0
    8.3750   -1.8570   22.3450 C   0  0  0  0  0  0  0  0  0  0  0  0
    9.4490   -2.3530   23.4040 C   0  0  0  0  0  0  0  0  0  0  0  0
    9.1460   -0.3900   22.3370 C   0  0  0  0  0  0  0  0  0  0  0  0
    9.1160   -1.1710   22.6630 C   0  0  0  0  0  0  0  0  0  0  0  0
   10.3900    0.3490   23.0080 C   0  0  0  0  0  0  0  0  0  0  0  0
   10.3180   -0.8760   23.4720 C   0  0  0  0  0  0  0  0  0  0  0  0
   11.1540    1.6630   23.0370 C   0  0  0  0  0  0  0  0  0  0  0  0
    9.7300    0.0960   22.6240 N   0  0  0  0  0  0  0  0  0  0  0  0
   10.0470    1.4430   22.3060 C   0  0  0  0  0  0  0  0  0  0  0  0
   11.3250    3.1180   22.5240 C   0  0  0  0  0  0  0  0  0  0  0  0
   11.6940    4.2200   23.3250 C   0  0  0  0  0  0  0  0  0  0  0  0
   11.2810    5.3900   22.7190 N   0  0  0  0  0  0  0  0  0  0  0  0
   10.2620    6.0670   23.3710 C   0  0  0  0  0  0  0  0  0  0  0  0
    9.1980    6.5650   22.6150 C   0  0  0  0  0  0  0  0  0  0  0  0
   10.1820    6.3160   24.7690 O   0  0  0  0  0  0  0  0  0  0  0  0
  1  2  1  0
  3  2  1  0
  3  4  2  0
  3  5  2  0
  3  6  1  0
  6  7  2  0
  6  8  1  0
  7  9  1  0
  8 10  2  0
  9 11  2  0
 10 11  1  0
 10 12  1  0
 11 13  1  0
 12 14  2  0
 13 14  1  0
 12 15  1  0
 15 16  1  0
 16 17  1  0
 17 18  1  0
 18 19  1  0
 18 20  2  0
M  END
