MAT-GIT-deadff56-2-acrylamide
     RDKit          3D

 20 21  0  0  0  0  0  0  0  0999 V2000
    6.0170   -5.1680   20.0310 C   0  0  0  0  0  0  0  0  0  0  0  0
    6.1450   -3.6590   20.0050 C   0  0  0  0  0  0  0  0  0  0  0  0
    5.8370   -3.2390   21.3990 C   0  0  0  0  0  0  0  0  0  0  0  0
    4.7230   -3.4410   21.8930 O   0  0  0  0  0  0  0  0  0  0  0  0
    6.9720   -2.6230   22.1150 C   0  0  0  0  0  0  0  0  0  0  0  0
    7.8450   -3.6030   23.0450 C   0  0  0  0  0  0  0  0  0  0  0  0
    7.2410   -1.2470   21.9410 C   0  0  0  0  0  0  0  0  0  0  0  0
    8.1560   -2.1590   22.8630 C   0  0  0  0  0  0  0  0  0  0  0  0
    8.0740   -0.2220   22.2780 C   0  0  0  0  0  0  0  0  0  0  0  0
    8.4320   -1.8870   22.9990 Cl  0  0  0  0  0  0  0  0  0  0  0  0
    8.7660   -0.8720   22.9410 C   0  0  0  0  0  0  0  0  0  0  0  0
    8.2940    1.0640   22.1050 C   0  0  0  0  0  0  0  0  0  0  0  0
    9.8090   -0.3190   23.5260 N   0  0  0  0  0  0  0  0  0  0  0  0
    9.5320    1.1180   22.9540 C   0  0  0  0  0  0  0  0  0  0  0  0
    8.7510    2.3940   22.0910 C   0  0  0  0  0  0  0  0  0  0  0  0
    7.7160    3.3340   22.2120 C   0  0  0  0  0  0  0  0  0  0  0  0
    8.2460    4.5400   22.2060 N   0  0  0  0  0  0  0  0  0  0  0  0
    7.3560    5.7120   22.3280 C   0  0  0  0  0  0  0  0  0  0  0  0
    7.7490    6.9590   21.4860 C   0  0  0  0  0  0  0  0  0  0  0  0
    6.2360    5.7230   23.1410 O   0  0  0  0  0  0  0  0  0  0  0  0
  1  2  1  0
  2  3  1  0
  3  4  2  0
  3  5  1  0
  5  6  2  0
  5  7  1  0
  6  8  1  0
  7  9  2  0
  7 10  1  0
  8 11  2  0
  9 11  1  0
  9 12  1  0
 11 13  1  0
 12 14  2  0
 13 14  1  0
 12 15  1  0
 15 16  1  0
 16 17  1  0
 17 18  1  0
 18 19  1  0
 18 20  2  0
M  END
