MAT-GIT-deadff56-1-chloroacetamide
     RDKit          3D

 18 19  0  0  0  0  0  0  0  0999 V2000
    7.5340   -4.0260   20.9910 C   0  0  0  0  0  0  0  0  0  0  0  0
    8.0910   -2.7680   20.3210 C   0  0  0  0  0  0  0  0  0  0  0  0
    7.4930   -2.8400   19.0270 O   0  0  0  0  0  0  0  0  0  0  0  0
    9.0860   -1.7360   21.3320 C   0  0  0  0  0  0  0  0  0  0  0  0
    9.9950   -2.4110   22.4270 C   0  0  0  0  0  0  0  0  0  0  0  0
    9.2410   -0.2650   21.4190 C   0  0  0  0  0  0  0  0  0  0  0  0
   10.9680   -1.8630   23.5190 C   0  0  0  0  0  0  0  0  0  0  0  0
   10.0980    0.3950   22.3810 C   0  0  0  0  0  0  0  0  0  0  0  0
   10.7870   -0.4150   23.2350 C   0  0  0  0  0  0  0  0  0  0  0  0
   10.3160    1.9310   22.5660 C   0  0  0  0  0  0  0  0  0  0  0  0
   11.4620    0.4100   24.0050 N   0  0  0  0  0  0  0  0  0  0  0  0
   11.2100    1.7110   23.6460 C   0  0  0  0  0  0  0  0  0  0  0  0
   10.8040    3.3130   23.0860 C   0  0  0  0  0  0  0  0  0  0  0  0
   11.8260    4.0760   22.4600 C   0  0  0  0  0  0  0  0  0  0  0  0
   11.4190    5.3910   22.3050 N   0  0  0  0  0  0  0  0  0  0  0  0
   10.4910    5.9170   23.2140 C   0  0  0  0  0  0  0  0  0  0  0  0
    9.2980    6.3900   22.6700 C   0  0  0  0  0  0  0  0  0  0  0  0
   10.7270    5.9840   24.5600 O   0  0  0  0  0  0  0  0  0  0  0  0
  1  2  1  0
  2  3  2  0
  2  4  1  0
  4  5  2  0
  4  6  1  0
  5  7  1  0
  6  8  2  0
  7  9  2  0
  8  9  1  0
  8 10  1  0
  9 11  1  0
 10 12  2  0
 11 12  1  0
 10 13  1  0
 13 14  1  0
 14 15  1  0
 15 16  1  0
 16 17  1  0
 16 18  2  0
M  END
