MAT-GIT-deadff56-3-chloroacetamide
     RDKit          3D

 25 27  0  0  0  0  0  0  0  0999 V2000
    7.8440   -4.5890   21.1150 C   0  0  0  0  0  0  0  0  0  0  0  0
    8.3120   -3.2640   20.5240 C   0  0  0  0  0  0  0  0  0  0  0  0
    7.6170   -3.2280   19.2610 O   0  0  0  0  0  0  0  0  0  0  0  0
    9.0960   -2.0250   21.3920 C   0  0  0  0  0  0  0  0  0  0  0  0
    7.9700   -1.3890   22.1500 C   0  0  0  0  0  0  0  0  0  0  0  0
   10.5930   -1.2360   21.7640 C   0  0  0  0  0  0  0  0  0  0  0  0
    8.2240   -0.2270   22.9660 C   0  0  0  0  0  0  0  0  0  0  0  0
   10.5840    0.0810   22.5860 C   0  0  0  0  0  0  0  0  0  0  0  0
   12.1220   -1.8540   21.2390 Cl  0  0  0  0  0  0  0  0  0  0  0  0
    6.7740   -0.3420   23.3000 C   0  0  0  0  0  0  0  0  0  0  0  0
    9.2510    0.5170   23.2190 C   0  0  0  0  0  0  0  0  0  0  0  0
   11.3900    1.2350   23.0800 C   0  0  0  0  0  0  0  0  0  0  0  0
    5.9460    0.7710   23.1980 N   0  0  0  0  0  0  0  0  0  0  0  0
    5.9300   -1.4770   23.7740 C   0  0  0  0  0  0  0  0  0  0  0  0
    9.3500    1.6350   23.9610 N   0  0  0  0  0  0  0  0  0  0  0  0
   10.6090    2.0560   23.8620 C   0  0  0  0  0  0  0  0  0  0  0  0
   12.7850    1.8180   22.9800 C   0  0  0  0  0  0  0  0  0  0  0  0
    4.6550    0.2500   23.6160 C   0  0  0  0  0  0  0  0  0  0  0  0
    4.5630   -0.9640   23.9420 O   0  0  0  0  0  0  0  0  0  0  0  0
    6.3620   -2.9050   24.0490 C   0  0  0  0  0  0  0  0  0  0  0  0
   12.6860    3.4630   22.7510 C   0  0  0  0  0  0  0  0  0  0  0  0
   11.4040    4.0590   22.6550 N   0  0  0  0  0  0  0  0  0  0  0  0
   10.9250    5.1790   23.3240 C   0  0  0  0  0  0  0  0  0  0  0  0
    9.7320    5.9380   22.7530 C   0  0  0  0  0  0  0  0  0  0  0  0
   11.4430    5.6710   24.4870 O   0  0  0  0  0  0  0  0  0  0  0  0
  1  2  1  0
  2  3  2  0
  2  4  1  0
  4  5  2  0
  4  6  1  0
  5  7  1  0
  6  8  2  0
  6  9  1  0
  7 10  1  0
  7 11  2  0
  8 11  1  0
  8 12  1  0
 10 13  1  0
 10 14  2  0
 11 15  1  0
 12 16  2  0
 15 16  1  0
 12 17  1  0
 13 18  2  0
 14 19  1  0
 18 19  1  0
 14 20  1  0
 17 21  1  0
 21 22  1  0
 22 23  1  0
 23 24  1  0
 23 25  2  0
M  END
