MAT-GIT-deadff56-3-nitrile
     RDKit          3D

 24 26  0  0  0  0  0  0  0  0999 V2000
    8.1280   -3.2160   19.8910 C   0  0  0  0  0  0  0  0  0  0  0  0
    7.6350   -2.7560   18.7050 N   0  0  0  0  0  0  0  0  0  0  0  0
    8.8860   -2.0720   21.0560 C   0  0  0  0  0  0  0  0  0  0  0  0
    7.8580   -1.4070   21.9110 C   0  0  0  0  0  0  0  0  0  0  0  0
   10.3730   -1.3790   21.6120 C   0  0  0  0  0  0  0  0  0  0  0  0
    7.7430   -0.3080   22.9960 C   0  0  0  0  0  0  0  0  0  0  0  0
   10.2800   -0.1660   22.5320 C   0  0  0  0  0  0  0  0  0  0  0  0
   11.9840   -1.8880   21.1990 Cl  0  0  0  0  0  0  0  0  0  0  0  0
    6.4870   -1.0830   22.6560 C   0  0  0  0  0  0  0  0  0  0  0  0
    9.0360    0.1900   23.0960 C   0  0  0  0  0  0  0  0  0  0  0  0
   11.1420    0.9590   23.1290 C   0  0  0  0  0  0  0  0  0  0  0  0
    5.7660   -1.7030   23.7660 N   0  0  0  0  0  0  0  0  0  0  0  0
    5.7050   -1.4490   21.4090 C   0  0  0  0  0  0  0  0  0  0  0  0
    9.2480    1.2990   23.9250 N   0  0  0  0  0  0  0  0  0  0  0  0
   10.4680    1.7820   23.9650 C   0  0  0  0  0  0  0  0  0  0  0  0
   12.4510    1.4390   23.0400 C   0  0  0  0  0  0  0  0  0  0  0  0
    4.7500   -2.2950   23.0390 C   0  0  0  0  0  0  0  0  0  0  0  0
    4.7320   -2.1530   21.7960 O   0  0  0  0  0  0  0  0  0  0  0  0
    5.8560   -1.1570   19.8660 C   0  0  0  0  0  0  0  0  0  0  0  0
   12.3910    3.0810   22.7770 C   0  0  0  0  0  0  0  0  0  0  0  0
   11.1900    3.7540   22.5380 N   0  0  0  0  0  0  0  0  0  0  0  0
   10.8410    4.9120   23.2290 C   0  0  0  0  0  0  0  0  0  0  0  0
    9.6730    5.7820   22.8230 C   0  0  0  0  0  0  0  0  0  0  0  0
   11.5330    5.3960   24.3740 O   0  0  0  0  0  0  0  0  0  0  0  0
  1  2  2  3
  1  3  1  0
  3  4  2  0
  3  5  1  0
  4  6  1  0
  5  7  2  0
  5  8  1  0
  6  9  1  0
  6 10  2  0
  7 10  1  0
  7 11  1  0
  9 12  1  0
  9 13  2  0
 10 14  1  0
 11 15  2  0
 14 15  1  0
 11 16  1  0
 12 17  2  0
 13 18  1  0
 17 18  1  0
 13 19  1  0
 16 20  1  0
 20 21  1  0
 21 22  1  0
 22 23  1  0
 22 24  2  0
M  END
