MAT-GIT-deadff56-4-vinylsulfonamide
     RDKit          3D

 35 38  0  0  0  0  0  0  0  0999 V2000
    6.2770   -4.6370   20.0730 C   0  0  0  0  0  0  0  0  0  0  0  0
    6.2910   -4.4320   21.5650 C   0  0  0  0  0  0  0  0  0  0  0  0
    5.5190   -2.8800   21.9020 S   0  0  0  0  0  0  0  0  0  0  0  0
    4.1830   -3.3010   22.2800 O   0  0  0  0  0  0  0  0  0  0  0  0
    5.6960   -2.0160   20.7570 O   0  0  0  0  0  0  0  0  0  0  0  0
    6.5460   -2.3050   23.2610 C   0  0  0  0  0  0  0  0  0  0  0  0
    6.6840   -3.1770   24.4750 C   0  0  0  0  0  0  0  0  0  0  0  0
    7.3410   -1.1370   23.4640 C   0  0  0  0  0  0  0  0  0  0  0  0
    7.5490   -1.9390   24.7030 C   0  0  0  0  0  0  0  0  0  0  0  0
    8.2320   -0.3610   24.2810 C   0  0  0  0  0  0  0  0  0  0  0  0
    7.5100   -2.0710   24.9300 Cl  0  0  0  0  0  0  0  0  0  0  0  0
    7.1200   -1.4360   23.3250 C   0  0  0  0  0  0  0  0  0  0  0  0
    8.4150   -1.3010   25.6280 C   0  0  0  0  0  0  0  0  0  0  0  0
    9.0240    0.8970   24.3820 C   0  0  0  0  0  0  0  0  0  0  0  0
    7.1470   -1.1480   21.8880 N   0  0  0  0  0  0  0  0  0  0  0  0
    8.5510   -2.1620   22.9770 C   0  0  0  0  0  0  0  0  0  0  0  0
    9.2800   -0.3450   26.2020 N   0  0  0  0  0  0  0  0  0  0  0  0
    8.7990   -0.1540   25.1030 C   0  0  0  0  0  0  0  0  0  0  0  0
    8.7970    1.6050   23.1960 C   0  0  0  0  0  0  0  0  0  0  0  0
    8.1900   -1.5320   21.0480 C   0  0  0  0  0  0  0  0  0  0  0  0
    9.1350   -2.2070   21.7270 O   0  0  0  0  0  0  0  0  0  0  0  0
    9.4880   -2.9010   23.9040 C   0  0  0  0  0  0  0  0  0  0  0  0
    9.7820    2.7670   23.0590 C   0  0  0  0  0  0  0  0  0  0  0  0
    9.4460   -4.3030   23.8220 C   0  0  0  0  0  0  0  0  0  0  0  0
    9.2860    3.9840   22.6780 N   0  0  0  0  0  0  0  0  0  0  0  0
    8.2920   -5.0490   24.0570 C   0  0  0  0  0  0  0  0  0  0  0  0
    9.3470    5.0610   23.5090 C   0  0  0  0  0  0  0  0  0  0  0  0
    7.9600   -5.2740   25.3770 C   0  0  0  0  0  0  0  0  0  0  0  0
    9.8430    6.2250   22.8870 C   0  0  0  0  0  0  0  0  0  0  0  0
    9.0090    5.0580   24.6930 O   0  0  0  0  0  0  0  0  0  0  0  0
    9.0890   -5.5210   26.3770 C   0  0  0  0  0  0  0  0  0  0  0  0
    6.6490   -5.2870   25.8640 C   0  0  0  0  0  0  0  0  0  0  0  0
    8.6510   -5.7500   27.8370 C   0  0  0  0  0  0  0  0  0  0  0  0
    6.2150   -5.5110   27.2700 N   0  0  0  0  0  0  0  0  0  0  0  0
    7.2050   -5.7350   28.2290 C   0  0  0  0  0  0  0  0  0  0  0  0
  1  2  1  0
  3  2  1  0
  3  4  2  0
  3  5  2  0
  3  6  1  0
  6  7  2  0
  6  8  1  0
  7  9  1  0
  8 10  2  0
  8 11  1  0
  9 12  1  0
  9 13  2  0
 10 13  1  0
 10 14  1  0
 12 15  1  0
 12 16  2  0
 13 17  1  0
 14 18  2  0
 17 18  1  0
 14 19  1  0
 15 20  2  0
 16 21  1  0
 20 21  1  0
 16 22  1  0
 19 23  1  0
 22 24  1  0
 23 25  1  0
 24 26  3  0
 25 27  1  0
 26 28  1  0
 27 29  1  0
 27 30  2  0
 28 31  2  0
 28 32  1  0
 31 33  1  0
 32 34  2  0
 33 35  2  0
 34 35  1  0
M  END
