MED-UNK-7e7dab56-2
     RDKit          3D

 23 24  0  0  0  0  0  0  0  0999 V2000
   16.0760    2.0970   18.9620 C   0  0  0  0  0  0  0  0  0  0  0  0
   15.7400    3.2850   19.9310 C   0  0  0  0  0  0  0  0  0  0  0  0
   15.1850    2.7200   21.1190 N   0  0  0  0  0  0  0  0  0  0  0  0
   14.5470    3.4340   22.1380 C   0  0  0  0  0  0  0  0  0  0  0  0
   15.0110    4.4650   22.5970 O   0  0  0  0  0  0  0  0  0  0  0  0
   13.1390    3.0000   22.6830 C   0  0  0  0  0  0  0  0  0  0  0  0
   12.3710    4.2790   23.0320 C   0  0  0  0  0  0  0  0  0  0  0  0
   12.5190    1.7070   22.8870 C   0  0  0  0  0  0  0  0  0  0  0  0
   10.9540    4.2330   23.5870 C   0  0  0  0  0  0  0  0  0  0  0  0
   11.2120    1.6470   23.3990 C   0  0  0  0  0  0  0  0  0  0  0  0
   13.2840    0.0120   22.5280 Br  0  0  0  0  0  0  0  0  0  0  0  0
   10.0120    5.6070   24.0010 S   0  0  0  0  0  0  0  0  0  0  0  0
   10.3610    2.8490   23.7730 C   0  0  0  0  0  0  0  0  0  0  0  0
   10.4850    0.3210   23.6360 C   0  0  0  0  0  0  0  0  0  0  0  0
    8.9300    5.6550   22.7530 N   0  0  0  0  0  0  0  0  0  0  0  0
   10.8550    6.7600   23.8160 O   0  0  0  0  0  0  0  0  0  0  0  0
    9.2650    5.3580   25.2200 O   0  0  0  0  0  0  0  0  0  0  0  0
   10.9220   -0.6620   23.0530 O   0  0  0  0  0  0  0  0  0  0  0  0
    9.3980    0.2450   24.4510 N   0  0  0  0  0  0  0  0  0  0  0  0
    8.9310   -0.8040   25.2920 C   0  0  1  0  0  0  0  0  0  0  0  0
    8.8280   -0.6310   26.6370 C   0  0  0  0  0  0  0  0  0  0  0  0
    7.5800   -0.5830   26.2000 C   0  0  1  0  0  0  0  0  0  0  0  0
    6.9110    0.5710   26.0310 F   0  0  0  0  0  0  0  0  0  0  0  0
  1  2  1  0
  2  3  1  0
  3  4  1  0
  4  5  2  0
  4  6  1  0
  6  7  2  0
  6  8  1  0
  7  9  1  0
  8 10  2  0
  8 11  1  0
  9 12  1  0
  9 13  2  0
 10 13  1  0
 10 14  1  0
 12 15  1  0
 12 16  2  0
 12 17  2  0
 14 18  2  0
 14 19  1  0
 20 19  1  6
 20 21  1  0
 20 22  1  0
 21 22  1  0
 22 23  1  6
M  END
