MED-UNK-7e7dab56-6
     RDKit          3D

 24 26  0  0  0  0  0  0  0  0999 V2000
    8.0820    6.0480   22.6160 N   0  0  0  0  0  0  0  0  0  0  0  0
    8.8990    5.8810   24.0640 S   0  0  0  0  0  0  0  0  0  0  0  0
    7.9910    5.3150   25.0370 O   0  0  0  0  0  0  0  0  0  0  0  0
    9.6130    7.1160   24.2590 O   0  0  0  0  0  0  0  0  0  0  0  0
   10.0550    4.6180   23.6620 C   0  0  0  0  0  0  0  0  0  0  0  0
   11.4890    4.9880   23.3540 C   0  0  0  0  0  0  0  0  0  0  0  0
    9.6630    3.2780   23.6240 C   0  0  0  0  0  0  0  0  0  0  0  0
   12.5020    3.9300   23.0030 C   0  0  0  0  0  0  0  0  0  0  0  0
   10.5830    2.2600   23.3040 C   0  0  0  0  0  0  0  0  0  0  0  0
   13.9040    4.4390   22.6980 C   0  0  0  0  0  0  0  0  0  0  0  0
   12.0570    2.5800   22.9780 C   0  0  0  0  0  0  0  0  0  0  0  0
   10.0730    0.9680   23.3020 C   0  0  0  0  0  0  0  0  0  0  0  0
   14.2180    5.5790   22.8170 O   0  0  0  0  0  0  0  0  0  0  0  0
   14.7230    3.5230   22.1920 N   0  0  0  0  0  0  0  0  0  0  0  0
   13.1980    1.1210   22.5490 Br  0  0  0  0  0  0  0  0  0  0  0  0
    8.9220    0.7770   22.9270 O   0  0  0  0  0  0  0  0  0  0  0  0
   10.9730    0.0040   23.7400 N   0  0  0  0  0  0  0  0  0  0  0  0
   15.8050    4.0240   21.2930 C   0  0  0  0  0  0  0  0  0  0  0  0
   10.5060   -1.1040   24.5240 C   0  0  1  0  0  0  0  0  0  0  0  0
   15.9290    3.5600   19.9210 C   0  0  0  0  0  0  0  0  0  0  0  0
   15.7190    4.9580   19.9120 C   0  0  0  0  0  0  0  0  0  0  0  0
   11.1620   -1.4610   23.4450 C   0  0  0  0  0  0  0  0  0  0  0  0
   11.3330   -2.4990   24.2410 C   0  0  1  0  0  0  0  0  0  0  0  0
   12.5790   -2.6900   24.8180 F   0  0  0  0  0  0  0  0  0  0  0  0
  2  1  1  0
  2  3  2  0
  2  4  2  0
  2  5  1  0
  5  6  2  0
  5  7  1  0
  6  8  1  0
  7  9  2  0
  8 10  1  0
  8 11  2  0
  9 11  1  0
  9 12  1  0
 10 13  2  0
 10 14  1  0
 11 15  1  0
 12 16  2  0
 12 17  1  0
 14 18  1  0
 19 17  1  1
 18 20  1  0
 18 21  1  0
 20 21  1  0
 19 22  1  0
 19 23  1  0
 22 23  1  0
 23 24  1  1
M  END
