MED-UNK-7e7dab56-5
     RDKit          3D

 25 26  0  0  0  0  0  0  0  0999 V2000
    9.1590   -3.0230   23.4810 C   0  0  0  0  0  0  0  0  0  0  0  0
    9.8570   -1.8130   22.8510 C   0  0  0  0  0  0  0  0  0  0  0  0
   11.2820   -2.0100   22.3230 C   0  0  0  0  0  0  0  0  0  0  0  0
    9.8850   -0.6570   23.8610 C   0  0  0  0  0  0  0  0  0  0  0  0
   10.3350    0.4670   23.2850 N   0  0  0  0  0  0  0  0  0  0  0  0
    9.9540    1.6450   23.8050 C   0  0  0  0  0  0  0  0  0  0  0  0
    8.9620    1.7720   24.5120 O   0  0  0  0  0  0  0  0  0  0  0  0
   10.7660    2.9060   23.5170 C   0  0  0  0  0  0  0  0  0  0  0  0
    9.8930    4.1010   23.7840 C   0  0  0  0  0  0  0  0  0  0  0  0
   12.1000    2.9360   23.0780 C   0  0  0  0  0  0  0  0  0  0  0  0
   10.5480    5.4410   23.5500 C   0  0  0  0  0  0  0  0  0  0  0  0
   12.7710    4.2080   22.8300 C   0  0  0  0  0  0  0  0  0  0  0  0
   12.8090    1.1790   22.8890 Br  0  0  0  0  0  0  0  0  0  0  0  0
    9.6980    6.8980   23.8120 S   0  0  0  0  0  0  0  0  0  0  0  0
   12.0020    5.3630   23.0660 C   0  0  0  0  0  0  0  0  0  0  0  0
   14.1690    4.4100   22.3410 C   0  0  0  0  0  0  0  0  0  0  0  0
    9.2180    7.2550   22.2730 N   0  0  0  0  0  0  0  0  0  0  0  0
    8.4790    6.6000   24.5170 O   0  0  0  0  0  0  0  0  0  0  0  0
   10.6340    7.8700   24.3020 O   0  0  0  0  0  0  0  0  0  0  0  0
   14.2140    4.4320   21.1250 O   0  0  0  0  0  0  0  0  0  0  0  0
   15.3490    4.6090   23.0780 N   0  0  0  0  0  0  0  0  0  0  0  0
   16.6750    4.1060   22.7190 C   0  0  1  0  0  0  0  0  0  0  0  0
   17.8850    4.3410   23.1890 C   0  0  0  0  0  0  0  0  0  0  0  0
   17.6920    3.2940   23.7860 C   0  0  1  0  0  0  0  0  0  0  0  0
   17.7920    3.5710   25.0470 F   0  0  0  0  0  0  0  0  0  0  0  0
  1  2  1  0
  2  3  1  0
  2  4  1  0
  4  5  1  0
  5  6  1  0
  6  7  2  0
  6  8  1  0
  8  9  2  0
  8 10  1  0
  9 11  1  0
 10 12  2  0
 10 13  1  0
 11 14  1  0
 11 15  2  0
 12 15  1  0
 12 16  1  0
 14 17  1  0
 14 18  2  0
 14 19  2  0
 16 20  2  0
 16 21  1  0
 22 21  1  1
 22 23  1  0
 22 24  1  0
 23 24  1  0
 24 25  1  1
M  END
