MED-UNK-28939ac5-1
     RDKit          3D

 14 15  0  0  0  0  0  0  0  0999 V2000
   10.1670    3.0000   22.3930 N   0  0  0  0  0  0  0  0  0  0  0  0
    9.3950    1.9570   22.3710 C   0  0  0  0  0  0  0  0  0  0  0  0
    8.8720    1.4950   21.1340 O   0  0  0  0  0  0  0  0  0  0  0  0
    9.0080    1.3000   23.5720 C   0  0  1  0  0  0  0  0  0  0  0  0
    7.4880    1.1440   23.6040 C   0  0  0  0  0  0  0  0  0  0  0  0
    9.5510   -0.0580   23.7380 C   0  0  1  0  0  0  0  0  0  0  0  0
    7.1860   -0.2790   23.3370 C   0  0  1  0  0  0  0  0  0  0  0  0
    8.5170   -0.9350   23.2130 C   0  0  0  0  0  0  0  0  0  0  0  0
   10.9210   -0.3300   23.1540 C   0  0  0  0  0  0  0  0  0  0  0  0
    6.5630   -0.8990   24.4640 O   0  0  0  0  0  0  0  0  0  0  0  0
   12.0450    0.6010   23.3170 C   0  0  0  0  0  0  0  0  0  0  0  0
   11.3990   -1.4790   22.3790 C   0  0  0  0  0  0  0  0  0  0  0  0
   13.1980    0.1850   22.7350 C   0  0  0  0  0  0  0  0  0  0  0  0
   13.1450   -1.3750   21.9080 S   0  0  0  0  0  0  0  0  0  0  0  0
  1  2  1  0
  2  3  2  0
  4  2  1  6
  4  5  1  0
  4  6  1  0
  5  7  1  0
  6  8  1  0
  7  8  1  0
  6  9  1  6
  7 10  1  1
  9 11  1  0
  9 12  2  0
 11 13  2  0
 12 14  1  0
 13 14  1  0
M  END
