MIC-UNK-e8a42ca9-1-chloroacetamide
     RDKit          3D

 25 27  0  0  0  0  0  0  0  0999 V2000
    7.6600   -2.9350   18.4660 C   0  0  0  0  0  0  0  0  0  0  0  0
    6.7640   -2.8880   19.6400 C   0  0  0  0  0  0  0  0  0  0  0  0
    5.7340   -3.6390   19.5860 O   0  0  0  0  0  0  0  0  0  0  0  0
    7.1960   -2.0580   20.7340 N   0  0  0  0  0  0  0  0  0  0  0  0
    7.7180   -2.6690   21.9220 C   0  0  0  0  0  0  0  0  0  0  0  0
    7.7170   -0.7160   20.5330 N   0  0  0  0  0  0  0  0  0  0  0  0
    9.0880   -2.1320   22.1860 C   0  0  0  0  0  0  0  0  0  0  0  0
    8.5430    0.0780   21.4260 C   0  0  0  0  0  0  0  0  0  0  0  0
    6.8070    0.0020   19.8410 C   0  0  0  0  0  0  0  0  0  0  0  0
    9.1120   -0.6630   22.6160 C   0  0  2  0  0  0  0  0  0  0  0  0
    8.8100    1.2920   21.2770 O   0  0  0  0  0  0  0  0  0  0  0  0
    6.9640    0.1140   18.4980 C   0  0  0  0  0  0  0  0  0  0  0  0
    5.7790    0.5820   20.4660 C   0  0  0  0  0  0  0  0  0  0  0  0
   10.5380   -0.4730   22.9990 C   0  0  0  0  0  0  0  0  0  0  0  0
    6.1790    0.7720   17.6790 N   0  0  0  0  0  0  0  0  0  0  0  0
    4.9600    1.2640   19.6690 C   0  0  0  0  0  0  0  0  0  0  0  0
    5.4690    0.5400   21.9370 C   0  0  0  0  0  0  0  0  0  0  0  0
   11.4160    0.5480   22.6470 C   0  0  0  0  0  0  0  0  0  0  0  0
   10.9570   -1.4950   23.7590 C   0  0  0  0  0  0  0  0  0  0  0  0
    5.1700    1.3480   18.3050 C   0  0  0  0  0  0  0  0  0  0  0  0
   12.7280    0.4580   23.0390 C   0  0  0  0  0  0  0  0  0  0  0  0
   12.2160   -1.5870   24.1420 C   0  0  0  0  0  0  0  0  0  0  0  0
   13.0940   -0.6350   23.7770 C   0  0  0  0  0  0  0  0  0  0  0  0
   12.6680   -2.6530   24.9130 C   0  0  0  0  0  0  0  0  0  0  0  0
   13.1810   -3.4310   25.5810 N   0  0  0  0  0  0  0  0  0  0  0  0
  1  2  1  0
  2  3  2  0
  2  4  1  0
  4  5  1  0
  4  6  1  0
  5  7  1  0
  6  8  1  0
  6  9  1  0
  7 10  1  0
  8 10  1  0
  8 11  2  0
  9 12  2  0
  9 13  1  0
 10 14  1  6
 12 15  1  0
 13 16  2  0
 13 17  1  0
 14 18  2  0
 14 19  1  0
 15 20  2  0
 16 20  1  0
 18 21  1  0
 19 22  2  0
 21 23  2  0
 22 23  1  0
 22 24  1  0
 24 25  3  0
M  END
