MIC-UNK-4e776895-5
     RDKit          3D

 25 28  0  0  0  0  0  0  0  0999 V2000
   10.0420   -2.2660   21.5480 C   0  0  0  0  0  0  0  0  0  0  0  0
   10.8430   -1.9570   22.6930 C   0  0  0  0  0  0  0  0  0  0  0  0
   12.2850   -2.4430   22.8200 C   0  0  0  0  0  0  0  0  0  0  0  0
   10.3150   -1.2270   23.6920 C   0  0  0  0  0  0  0  0  0  0  0  0
   13.0840   -2.1340   24.0310 C   0  0  0  0  0  0  0  0  0  0  0  0
   11.1860   -1.0040   24.7660 C   0  0  0  0  0  0  0  0  0  0  0  0
    9.0210   -0.7340   23.6850 C   0  0  1  0  0  0  0  0  0  0  0  0
   14.2240   -2.4910   24.2380 O   0  0  0  0  0  0  0  0  0  0  0  0
   12.4680   -1.3870   25.0020 N   0  0  0  0  0  0  0  0  0  0  0  0
    8.9520    0.6710   23.4690 C   0  0  0  0  0  0  0  0  0  0  0  0
    7.7740   -1.3920   22.4450 S   0  0  0  0  0  0  0  0  0  0  0  0
    9.8510    1.5860   23.7860 N   0  0  0  0  0  0  0  0  0  0  0  0
    7.8130    1.2100   22.8820 C   0  0  0  0  0  0  0  0  0  0  0  0
    6.7700    0.2090   22.4420 C   0  0  1  0  0  0  0  0  0  0  0  0
    6.9910   -2.4430   23.0590 O   0  0  0  0  0  0  0  0  0  0  0  0
    9.2650    2.7990   23.4450 O   0  0  0  0  0  0  0  0  0  0  0  0
    8.0290    2.5700   22.9160 C   0  0  0  0  0  0  0  0  0  0  0  0
    6.3580    0.4030   21.1190 C   0  0  0  0  0  0  0  0  0  0  0  0
    7.3220    3.7130   22.5680 C   0  0  0  0  0  0  0  0  0  0  0  0
    6.9890   -0.3280   20.1370 C   0  0  0  0  0  0  0  0  0  0  0  0
    5.3420    1.3080   20.7850 C   0  0  0  0  0  0  0  0  0  0  0  0
    6.6660   -0.2310   18.6620 C   0  0  0  0  0  0  0  0  0  0  0  0
    4.8800    1.5390   19.3430 C   0  0  0  0  0  0  0  0  0  0  0  0
    5.5680    0.7430   18.2320 C   0  0  0  0  0  0  0  0  0  0  0  0
    3.6220    2.6670   19.0370 Cl  0  0  0  0  0  0  0  0  0  0  0  0
  1  2  1  0
  2  3  2  0
  2  4  1  0
  3  5  1  0
  4  6  2  0
  7  4  1  6
  5  8  1  0
  5  9  2  0
  6  9  1  0
  7 10  1  0
  7 11  1  0
 10 12  2  0
 10 13  1  0
 11 14  1  0
 13 14  1  0
 11 15  1  1
 12 16  1  0
 13 17  2  0
 16 17  1  0
 14 18  1  6
 17 19  1  0
 18 20  2  0
 18 21  1  0
 20 22  1  0
 21 23  2  0
 22 24  2  0
 23 24  1  0
 23 25  1  0
M  CHG  2  11   1  15  -1
M  END
