MIC-IOC-304754b1-2
     RDKit          3D

 23 25  0  0  0  0  0  0  0  0999 V2000
    7.3340   -3.2190   20.7860 C   0  0  0  0  0  0  0  0  0  0  0  0
    6.3350   -4.2960   20.9400 C   0  0  0  0  0  0  0  0  0  0  0  0
    5.5570   -4.4870   19.9820 O   0  0  0  0  0  0  0  0  0  0  0  0
    6.3540   -5.0420   22.1490 N   0  0  0  0  0  0  0  0  0  0  0  0
    5.4210   -6.1770   22.2300 C   0  0  0  0  0  0  0  0  0  0  0  0
    6.5590   -4.3900   23.4550 C   0  0  0  0  0  0  0  0  0  0  0  0
    4.1510   -5.9030   23.0890 C   0  0  0  0  0  0  0  0  0  0  0  0
    5.3720   -4.0660   24.3310 C   0  0  0  0  0  0  0  0  0  0  0  0
    7.8980   -4.0370   23.9550 C   0  0  0  0  0  0  0  0  0  0  0  0
    4.1360   -4.5210   23.7170 C   0  0  0  0  0  0  0  0  0  0  0  0
    5.7250   -3.4080   25.5770 C   0  0  0  0  0  0  0  0  0  0  0  0
    8.0880   -3.4060   25.1870 C   0  0  0  0  0  0  0  0  0  0  0  0
    7.0390   -3.0700   26.0240 C   0  0  0  0  0  0  0  0  0  0  0  0
    7.2840   -2.3930   27.3380 N   0  0  0  0  0  0  0  0  0  0  0  0
    6.1020   -2.1900   28.1790 C   0  0  0  0  0  0  0  0  0  0  0  0
    6.3600   -1.4010   29.3030 C   0  0  0  0  0  0  0  0  0  0  0  0
    7.7690   -0.9990   29.6200 C   0  0  0  0  0  0  0  0  0  0  0  0
    5.3240   -0.9530   30.1810 C   0  0  0  0  0  0  0  0  0  0  0  0
    8.1450   -0.1410   30.8210 C   0  0  0  0  0  0  0  0  0  0  0  0
    5.6430   -0.1560   31.3040 C   0  0  0  0  0  0  0  0  0  0  0  0
    3.7110   -1.4190   29.8210 Cl  0  0  0  0  0  0  0  0  0  0  0  0
    7.0370    0.3330   31.7500 C   0  0  0  0  0  0  0  0  0  0  0  0
    7.2430    1.0930   32.8360 F   0  0  0  0  0  0  0  0  0  0  0  0
  1  2  1  0
  2  3  2  0
  2  4  1  0
  4  5  1  0
  4  6  1  0
  5  7  1  0
  6  8  2  0
  6  9  1  0
  7 10  1  0
  8 10  1  0
  8 11  1  0
  9 12  2  0
 11 13  2  0
 12 13  1  0
 13 14  1  0
 14 15  1  0
 15 16  1  0
 16 17  2  0
 16 18  1  0
 17 19  1  0
 18 20  2  0
 18 21  1  0
 19 22  2  0
 20 22  1  0
 22 23  1  0
M  END
