MIC-UNK-deda7a44-2
     RDKit          3D

 30 34  0  0  0  0  0  0  0  0999 V2000
    6.2540   -0.0260   23.9920 O   0  0  0  0  0  0  0  0  0  0  0  0
    6.1130   -0.1350   22.7720 C   0  0  0  0  0  0  0  0  0  0  0  0
    5.1080   -0.8840   22.1850 N   0  0  0  0  0  0  0  0  0  0  0  0
    7.0970    0.5960   21.7880 C   0  0  2  0  0  0  0  0  0  0  0  0
    5.0780   -1.0630   20.8230 C   0  0  0  0  0  0  0  0  0  0  0  0
    8.4680   -0.1130   21.5730 C   0  0  0  0  0  0  0  0  0  0  0  0
    7.3010    2.0640   22.2660 C   0  0  0  0  0  0  0  0  0  0  0  0
    6.5360    0.8640   20.3850 C   0  0  0  0  0  0  0  0  0  0  0  0
    4.5910   -0.3030   19.8670 N   0  0  0  0  0  0  0  0  0  0  0  0
    5.6060   -2.1640   20.2250 N   0  0  0  0  0  0  0  0  0  0  0  0
    9.2330   -0.7970   22.6620 C   0  0  0  0  0  0  0  0  0  0  0  0
    5.9850    2.8310   22.3120 C   0  0  0  0  0  0  0  0  0  0  0  0
    5.5210    1.7930   20.2790 C   0  0  0  0  0  0  0  0  0  0  0  0
    7.0040    0.2360   19.2200 C   0  0  0  0  0  0  0  0  0  0  0  0
    4.8270   -0.9220   18.6560 N   0  0  0  0  0  0  0  0  0  0  0  0
    5.4440   -2.0450   18.9010 C   0  0  0  0  0  0  0  0  0  0  0  0
    6.2520   -3.2800   20.8720 C   0  0  0  0  0  0  0  0  0  0  0  0
   10.5570   -0.3980   22.7180 C   0  0  0  0  0  0  0  0  0  0  0  0
    5.0340    2.4520   21.3720 O   0  0  0  0  0  0  0  0  0  0  0  0
    4.9560    2.1020   19.0470 C   0  0  0  0  0  0  0  0  0  0  0  0
    6.4600    0.5460   17.9710 C   0  0  0  0  0  0  0  0  0  0  0  0
    6.6660   -3.3020   22.3180 C   0  0  0  0  0  0  0  0  0  0  0  0
    7.6870   -3.0900   21.2360 C   0  0  0  0  0  0  0  0  0  0  0  0
   11.5810   -1.3160   22.4700 C   0  0  0  0  0  0  0  0  0  0  0  0
   10.8440    0.9430   23.0150 C   0  0  0  0  0  0  0  0  0  0  0  0
    5.4190    1.4860   17.8890 C   0  0  0  0  0  0  0  0  0  0  0  0
    7.1160   -0.2530   16.5940 Cl  0  0  0  0  0  0  0  0  0  0  0  0
   12.9010   -0.9200   22.5120 C   0  0  0  0  0  0  0  0  0  0  0  0
   12.1610    1.3970   23.0700 C   0  0  0  0  0  0  0  0  0  0  0  0
   13.2180    0.5540   22.8360 C   0  0  0  0  0  0  0  0  0  0  0  0
  1  2  2  0
  2  3  1  0
  4  2  1  0
  3  5  1  0
  4  6  1  6
  4  7  1  0
  4  8  1  0
  5  9  2  0
  5 10  1  0
  6 11  1  0
  7 12  1  0
  8 13  2  0
  8 14  1  0
  9 15  1  0
 10 16  1  0
 15 16  2  0
 10 17  1  0
 11 18  1  0
 12 19  1  0
 13 19  1  0
 13 20  1  0
 14 21  2  0
 17 22  1  0
 17 23  1  0
 22 23  1  0
 18 24  2  0
 18 25  1  0
 20 26  2  0
 21 26  1  0
 21 27  1  0
 24 28  1  0
 25 29  2  0
 28 30  2  0
 29 30  1  0
M  END
