MIC-UNK-66895286-1
     RDKit          3D

 16 17  0  0  0  0  0  0  0  0999 V2000
    9.2690    1.5440   21.4210 O   0  0  0  0  0  0  0  0  0  0  0  0
    8.7890    0.5380   21.9490 C   0  0  0  0  0  0  0  0  0  0  0  0
    9.3320    0.0450   23.2880 C   0  0  0  0  0  0  0  0  0  0  0  0
    7.6990   -0.1580   21.3030 N   0  0  0  0  0  0  0  0  0  0  0  0
   10.6640   -0.7210   23.3230 C   0  0  0  0  0  0  0  0  0  0  0  0
    6.9610    0.1900   20.1910 C   0  0  0  0  0  0  0  0  0  0  0  0
   11.0980   -1.1440   21.9380 C   0  0  0  0  0  0  0  0  0  0  0  0
   11.4660   -1.0590   24.4430 C   0  0  0  0  0  0  0  0  0  0  0  0
    7.1620   -0.3110   18.9050 C   0  0  0  0  0  0  0  0  0  0  0  0
    5.9040    1.0600   20.0360 C   0  0  0  0  0  0  0  0  0  0  0  0
   12.4080   -1.9170   21.7750 C   0  0  0  0  0  0  0  0  0  0  0  0
   12.6710   -1.7920   24.2780 C   0  0  0  0  0  0  0  0  0  0  0  0
    6.3310    0.1660   17.9260 N   0  0  0  0  0  0  0  0  0  0  0  0
    5.5540    1.0070   18.6010 N   0  0  0  0  0  0  0  0  0  0  0  0
   13.1400   -2.1960   23.0560 C   0  0  0  0  0  0  0  0  0  0  0  0
   13.6120   -2.2430   25.6050 Cl  0  0  0  0  0  0  0  0  0  0  0  0
  1  2  2  0
  2  3  1  0
  2  4  1  0
  3  5  1  0
  4  6  1  0
  5  7  2  0
  5  8  1  0
  6  9  1  0
  6 10  2  0
  7 11  1  0
  8 12  2  0
  9 13  2  0
 10 14  1  0
 13 14  1  0
 11 15  2  0
 12 15  1  0
 12 16  1  0
M  END
