MIC-UNK-e8a42ca9-2-nitrile
     RDKit          3D

 23 25  0  0  0  0  0  0  0  0999 V2000
    7.3260   -2.9710   19.4960 C   0  0  0  0  0  0  0  0  0  0  0  0
    6.5130   -2.5960   18.5530 N   0  0  0  0  0  0  0  0  0  0  0  0
    7.7620   -2.0170   20.5930 N   0  0  0  0  0  0  0  0  0  0  0  0
    8.8680   -2.2010   21.5660 C   0  0  0  0  0  0  0  0  0  0  0  0
    7.8570   -0.6090   20.3670 N   0  0  0  0  0  0  0  0  0  0  0  0
    9.2520   -0.8030   22.2110 C   0  0  2  0  0  0  0  0  0  0  0  0
    8.7190    0.1460   21.2170 C   0  0  0  0  0  0  0  0  0  0  0  0
    6.8110    0.0100   19.8120 C   0  0  0  0  0  0  0  0  0  0  0  0
   10.6980   -0.8640   22.7360 C   0  0  0  0  0  0  0  0  0  0  0  0
    8.9720    1.3550   21.1700 O   0  0  0  0  0  0  0  0  0  0  0  0
    6.9100    0.2680   18.4810 C   0  0  0  0  0  0  0  0  0  0  0  0
    5.7340    0.3560   20.5440 C   0  0  0  0  0  0  0  0  0  0  0  0
   11.9630   -0.2860   22.5360 C   0  0  0  0  0  0  0  0  0  0  0  0
   10.5960   -1.8030   23.6480 C   0  0  0  0  0  0  0  0  0  0  0  0
    6.0370    0.8610   17.7000 N   0  0  0  0  0  0  0  0  0  0  0  0
    4.7800    0.9680   19.8650 C   0  0  0  0  0  0  0  0  0  0  0  0
    5.5200    0.1250   22.0100 C   0  0  0  0  0  0  0  0  0  0  0  0
   13.0290   -0.7360   23.2560 C   0  0  0  0  0  0  0  0  0  0  0  0
   11.5860   -2.2760   24.3610 C   0  0  0  0  0  0  0  0  0  0  0  0
    4.9600    1.2270   18.3640 C   0  0  0  0  0  0  0  0  0  0  0  0
   12.8630   -1.7590   24.1900 C   0  0  0  0  0  0  0  0  0  0  0  0
   11.0870   -3.2590   25.1700 C   0  0  0  0  0  0  0  0  0  0  0  0
   10.5300   -4.0810   25.7520 N   0  0  0  0  0  0  0  0  0  0  0  0
  1  2  2  3
  1  3  1  0
  3  4  1  0
  3  5  1  0
  4  6  1  0
  5  7  1  0
  6  7  1  0
  5  8  1  0
  6  9  1  6
  7 10  2  0
  8 11  2  0
  8 12  1  0
  9 13  2  0
  9 14  1  0
 11 15  1  0
 12 16  2  0
 12 17  1  0
 13 18  1  0
 14 19  2  0
 15 20  2  0
 16 20  1  0
 18 21  2  0
 19 21  1  0
 19 22  1  0
 22 23  3  0
M  END
