MIC-UNK-deda7a44-7
     RDKit          3D

 23 26  0  0  0  0  0  0  0  0999 V2000
    7.9420   -1.1190   23.3590 O   0  0  0  0  0  0  0  0  0  0  0  0
    7.8630   -0.7320   22.2360 C   0  0  0  0  0  0  0  0  0  0  0  0
    6.9190   -1.1090   21.2870 N   0  0  0  0  0  0  0  0  0  0  0  0
    8.8510    0.2680   21.7870 C   0  0  1  0  0  0  0  0  0  0  0  0
    6.6790   -0.3910   20.1330 C   0  0  0  0  0  0  0  0  0  0  0  0
    8.2760    1.6650   21.9310 C   0  0  0  0  0  0  0  0  0  0  0  0
   10.2550    0.1590   22.3190 C   0  0  0  0  0  0  0  0  0  0  0  0
    7.3390   -0.3680   18.9880 N   0  0  0  0  0  0  0  0  0  0  0  0
    5.6300    0.4740   19.9750 N   0  0  0  0  0  0  0  0  0  0  0  0
    8.8320    2.5420   22.8780 C   0  0  0  0  0  0  0  0  0  0  0  0
   10.8550    1.3210   22.7970 C   0  0  0  0  0  0  0  0  0  0  0  0
   10.9770   -1.0550   22.3290 C   0  0  0  0  0  0  0  0  0  0  0  0
    6.7250    0.5060   18.1130 N   0  0  0  0  0  0  0  0  0  0  0  0
    5.7110    0.9690   18.7720 C   0  0  0  0  0  0  0  0  0  0  0  0
    4.5210    0.9090   20.8340 C   0  0  0  0  0  0  0  0  0  0  0  0
   10.2560    2.5490   22.8280 O   0  0  0  0  0  0  0  0  0  0  0  0
   12.1350    1.2690   23.2630 C   0  0  0  0  0  0  0  0  0  0  0  0
   12.2940   -1.1130   22.8160 C   0  0  0  0  0  0  0  0  0  0  0  0
    4.2060    2.4020   20.9260 C   0  0  0  0  0  0  0  0  0  0  0  0
    4.6830    1.8920   18.4390 C   0  0  0  0  0  0  0  0  0  0  0  0
   12.9420   -0.0110   23.2950 C   0  0  0  0  0  0  0  0  0  0  0  0
   13.1240   -2.5940   22.8180 Cl  0  0  0  0  0  0  0  0  0  0  0  0
    3.7060    1.8170   19.6190 C   0  0  0  0  0  0  0  0  0  0  0  0
  1  2  2  0
  2  3  1  0
  4  2  1  1
  3  5  1  0
  4  6  1  0
  4  7  1  0
  5  8  2  0
  5  9  1  0
  6 10  1  0
  7 11  2  0
  7 12  1  0
  8 13  1  0
  9 14  1  0
 13 14  2  0
  9 15  1  0
 10 16  1  0
 11 16  1  0
 11 17  1  0
 12 18  2  0
 15 19  1  0
 14 20  1  0
 17 21  2  0
 18 21  1  0
 18 22  1  0
 19 23  1  0
 20 23  1  0
M  END
