MIC-UNK-e8a42ca9-1-vinylsulfonamide
     RDKit          3D

 27 29  0  0  0  0  0  0  0  0999 V2000
    6.3200   -4.5640   20.0300 C   0  0  0  0  0  0  0  0  0  0  0  0
    6.7190   -3.2850   19.3810 C   0  0  0  0  0  0  0  0  0  0  0  0
    5.8120   -2.2440   20.3780 S   0  0  0  0  0  0  0  0  0  0  0  0
    4.9080   -3.1300   21.1560 O   0  0  0  0  0  0  0  0  0  0  0  0
    5.2650   -1.2130   19.5340 O   0  0  0  0  0  0  0  0  0  0  0  0
    7.1610   -1.6750   21.2750 N   0  0  0  0  0  0  0  0  0  0  0  0
    8.2810   -2.6220   21.2320 C   0  0  0  0  0  0  0  0  0  0  0  0
    7.5620   -0.2680   20.8640 N   0  0  0  0  0  0  0  0  0  0  0  0
    9.5170   -2.0320   21.8060 C   0  0  0  0  0  0  0  0  0  0  0  0
    8.6970    0.3580   21.3780 C   0  0  0  0  0  0  0  0  0  0  0  0
    6.6980    0.3300   19.9630 C   0  0  0  0  0  0  0  0  0  0  0  0
    9.4030   -0.5840   22.2640 C   0  0  2  0  0  0  0  0  0  0  0  0
    9.1000    1.5090   21.1790 O   0  0  0  0  0  0  0  0  0  0  0  0
    6.9840    0.1970   18.6300 C   0  0  0  0  0  0  0  0  0  0  0  0
    5.5670    1.0390   20.3380 C   0  0  0  0  0  0  0  0  0  0  0  0
   10.5740   -0.2820   22.7760 C   0  0  0  0  0  0  0  0  0  0  0  0
    6.2570    0.7110   17.6370 N   0  0  0  0  0  0  0  0  0  0  0  0
    4.7850    1.5890   19.3180 C   0  0  0  0  0  0  0  0  0  0  0  0
    5.1450    1.2390   21.7630 C   0  0  0  0  0  0  0  0  0  0  0  0
   11.4360    0.7740   22.8140 C   0  0  0  0  0  0  0  0  0  0  0  0
   10.7780   -1.4070   23.3690 C   0  0  0  0  0  0  0  0  0  0  0  0
    5.1720    1.4020   18.0060 C   0  0  0  0  0  0  0  0  0  0  0  0
   12.5510    0.5630   23.5510 C   0  0  0  0  0  0  0  0  0  0  0  0
   11.7850   -1.6370   24.0540 C   0  0  0  0  0  0  0  0  0  0  0  0
   12.7300   -0.6760   24.1980 C   0  0  0  0  0  0  0  0  0  0  0  0
   11.6110   -2.9130   24.5120 C   0  0  0  0  0  0  0  0  0  0  0  0
   11.2410   -3.9300   24.7810 N   0  0  0  0  0  0  0  0  0  0  0  0
  1  2  1  0
  3  2  1  0
  3  4  2  0
  3  5  2  0
  3  6  1  0
  6  7  1  0
  6  8  1  0
  7  9  1  0
  8 10  1  0
  8 11  1  0
  9 12  1  0
 10 12  1  0
 10 13  2  0
 11 14  2  0
 11 15  1  0
 12 16  1  6
 14 17  1  0
 15 18  2  0
 15 19  1  0
 16 20  2  0
 16 21  1  0
 17 22  2  0
 18 22  1  0
 20 23  1  0
 21 24  2  0
 23 25  2  0
 24 25  1  0
 24 26  1  0
 26 27  3  0
M  END
