MIC-UNK-2744a8e2-10
     RDKit          3D

 29 30  0  0  0  0  0  0  0  0999 V2000
    5.2830    0.1990   22.3860 C   0  0  0  0  0  0  0  0  0  0  0  0
    5.0980    0.4490   20.9130 C   0  0  0  0  0  0  0  0  0  0  0  0
    4.8240    1.9200   20.6390 C   0  0  0  0  0  0  0  0  0  0  0  0
    5.1360   -0.4220   19.8900 C   0  0  0  0  0  0  0  0  0  0  0  0
    4.5970    2.5010   19.3700 C   0  0  0  0  0  0  0  0  0  0  0  0
    4.8970    0.1590   18.5330 C   0  0  0  0  0  0  0  0  0  0  0  0
    5.3620   -1.9210   19.7980 C   0  0  2  0  0  0  0  0  0  0  0  0
    4.6260    1.5810   18.1610 N   0  0  0  0  0  0  0  0  0  0  0  0
    5.4820   -2.3330   21.2060 N   0  0  0  0  0  0  0  0  0  0  0  0
    6.7010   -2.3800   19.2370 C   0  0  0  0  0  0  0  0  0  0  0  0
    5.6000   -3.7750   21.1480 C   0  0  0  0  0  0  0  0  0  0  0  0
    7.6370   -2.6360   19.9880 O   0  0  0  0  0  0  0  0  0  0  0  0
    6.7000   -2.4600   17.8780 N   0  0  0  0  0  0  0  0  0  0  0  0
    5.2520   -4.4020   20.1450 O   0  0  0  0  0  0  0  0  0  0  0  0
    6.1800   -4.3930   22.4110 C   0  0  0  0  0  0  0  0  0  0  0  0
    7.0910   -1.3710   17.2120 C   0  0  0  0  0  0  0  0  0  0  0  0
    5.2580   -5.5380   22.7910 C   0  0  0  0  0  0  0  0  0  0  0  0
    6.2480   -0.2030   17.6330 C   0  0  0  0  0  0  0  0  0  0  0  0
    8.1110   -1.3070   16.2870 C   0  0  0  0  0  0  0  0  0  0  0  0
    4.1140   -5.1810   23.5130 C   0  0  0  0  0  0  0  0  0  0  0  0
    6.6270    1.0570   16.9590 C   0  0  0  0  0  0  0  0  0  0  0  0
    8.4070   -0.0920   15.7010 C   0  0  0  0  0  0  0  0  0  0  0  0
    4.1320   -5.3090   24.9040 C   0  0  0  0  0  0  0  0  0  0  0  0
    7.6460    1.1030   16.0600 C   0  0  0  0  0  0  0  0  0  0  0  0
    9.4280    0.1150   14.7490 C   0  0  0  0  0  0  0  0  0  0  0  0
    5.3930   -5.1300   25.6380 N   0  0  0  0  0  0  0  0  0  0  0  0
   10.2080    0.2780   13.9360 N   0  0  0  0  0  0  0  0  0  0  0  0
    5.8970   -3.7630   25.6710 C   0  0  0  0  0  0  0  0  0  0  0  0
    5.5000   -5.9240   26.7730 C   0  0  0  0  0  0  0  0  0  0  0  0
  1  2  1  0
  2  3  2  0
  2  4  1  0
  3  5  1  0
  4  6  2  0
  4  7  1  0
  5  8  2  0
  6  8  1  0
  7  9  1  1
  7 10  1  0
  9 11  1  0
 10 12  2  0
 10 13  1  0
 11 14  2  0
 11 15  1  0
 13 16  1  0
 15 17  1  0
 16 18  2  0
 16 19  1  0
 17 20  1  0
 18 21  1  0
 19 22  2  0
 20 23  1  0
 21 24  2  0
 22 24  1  0
 22 25  1  0
 23 26  1  0
 25 27  3  0
 26 28  1  0
 26 29  1  0
M  END
