MIC-UNK-4ce148f7-3
     RDKit          3D

 30 34  0  0  0  0  0  0  0  0999 V2000
    8.4390    1.3000   21.8390 O   0  0  0  0  0  0  0  0  0  0  0  0
    8.1170    0.1240   21.8870 C   0  0  0  0  0  0  0  0  0  0  0  0
    6.9340   -0.3450   21.3260 N   0  0  0  0  0  0  0  0  0  0  0  0
    9.0810   -0.9390   22.5140 C   0  0  2  0  0  0  0  0  0  0  0  0
    6.5380    0.0820   20.0620 C   0  0  0  0  0  0  0  0  0  0  0  0
    8.9160   -2.2640   21.7480 C   0  0  0  0  0  0  0  0  0  0  0  0
    8.9150   -1.5620   23.9100 C   0  0  0  0  0  0  0  0  0  0  0  0
   10.4510   -0.3310   22.6990 C   0  0  0  0  0  0  0  0  0  0  0  0
    7.0740   -0.1840   18.8870 N   0  0  0  0  0  0  0  0  0  0  0  0
    5.4550    0.9060   19.8220 N   0  0  0  0  0  0  0  0  0  0  0  0
    7.8440   -3.2240   22.2770 C   0  0  0  0  0  0  0  0  0  0  0  0
   10.1330   -2.5270   24.0860 C   0  0  0  0  0  0  0  0  0  0  0  0
   11.4630   -1.1850   22.9280 C   0  0  0  0  0  0  0  0  0  0  0  0
   10.7150    1.0260   22.6630 C   0  0  0  0  0  0  0  0  0  0  0  0
    6.3550    0.4580   17.9030 N   0  0  0  0  0  0  0  0  0  0  0  0
    5.3840    1.1080   18.4850 C   0  0  0  0  0  0  0  0  0  0  0  0
    4.5070    1.4990   20.7840 C   0  0  0  0  0  0  0  0  0  0  0  0
    8.1810   -4.2130   23.2150 C   0  0  0  0  0  0  0  0  0  0  0  0
    6.5060   -3.1560   21.8590 C   0  0  0  0  0  0  0  0  0  0  0  0
   11.1180   -2.4770   23.0140 O   0  0  0  0  0  0  0  0  0  0  0  0
   12.7770   -0.7650   23.0890 C   0  0  0  0  0  0  0  0  0  0  0  0
   12.0020    1.4900   22.8300 C   0  0  0  0  0  0  0  0  0  0  0  0
    4.3180    2.9940   20.8990 C   0  0  0  0  0  0  0  0  0  0  0  0
    4.9370    2.2330   22.0340 C   0  0  0  0  0  0  0  0  0  0  0  0
    7.2300   -5.1030   23.7110 C   0  0  0  0  0  0  0  0  0  0  0  0
    5.5590   -4.0470   22.3640 C   0  0  0  0  0  0  0  0  0  0  0  0
   13.0420    0.5970   23.0310 C   0  0  0  0  0  0  0  0  0  0  0  0
   12.2680    3.1940   22.7640 Cl  0  0  0  0  0  0  0  0  0  0  0  0
    5.9170   -5.0200   23.2850 C   0  0  0  0  0  0  0  0  0  0  0  0
    4.9960   -5.8710   23.7600 F   0  0  0  0  0  0  0  0  0  0  0  0
  1  2  2  0
  2  3  1  0
  4  2  1  0
  3  5  1  0
  4  6  1  6
  4  7  1  0
  4  8  1  0
  5  9  2  0
  5 10  1  0
  6 11  1  0
  7 12  1  0
  8 13  2  0
  8 14  1  0
  9 15  1  0
 10 16  1  0
 15 16  2  0
 10 17  1  0
 11 18  2  0
 11 19  1  0
 12 20  1  0
 13 20  1  0
 13 21  1  0
 14 22  2  0
 17 23  1  0
 17 24  1  0
 23 24  1  0
 18 25  1  0
 19 26  2  0
 21 27  2  0
 22 27  1  0
 22 28  1  0
 25 29  2  0
 26 29  1  0
 29 30  1  0
M  END
