MIC-UNK-4ce148f7-1
     RDKit          3D

 29 33  0  0  0  0  0  0  0  0999 V2000
    8.4570    1.0730   21.8330 O   0  0  0  0  0  0  0  0  0  0  0  0
    8.1320   -0.1050   21.8500 C   0  0  0  0  0  0  0  0  0  0  0  0
    6.9590   -0.5530   21.2610 N   0  0  0  0  0  0  0  0  0  0  0  0
    9.0790   -1.1900   22.4740 C   0  0  2  0  0  0  0  0  0  0  0  0
    6.5250   -0.0220   20.0550 C   0  0  0  0  0  0  0  0  0  0  0  0
    8.8970   -2.5900   21.7670 C   0  0  0  0  0  0  0  0  0  0  0  0
    8.9430   -1.7080   23.9250 C   0  0  0  0  0  0  0  0  0  0  0  0
   10.4360   -0.5420   22.6860 C   0  0  0  0  0  0  0  0  0  0  0  0
    6.9830   -0.2300   18.8350 N   0  0  0  0  0  0  0  0  0  0  0  0
    5.4800    0.8680   19.9500 N   0  0  0  0  0  0  0  0  0  0  0  0
    7.8680   -3.5660   22.3740 C   0  0  0  0  0  0  0  0  0  0  0  0
   10.1310   -2.7150   24.1280 C   0  0  0  0  0  0  0  0  0  0  0  0
   11.4730   -1.3530   22.9810 C   0  0  0  0  0  0  0  0  0  0  0  0
   10.6730    0.8270   22.6220 C   0  0  0  0  0  0  0  0  0  0  0  0
    6.2440    0.5140   17.9450 N   0  0  0  0  0  0  0  0  0  0  0  0
    5.3390    1.1690   18.6280 C   0  0  0  0  0  0  0  0  0  0  0  0
    4.6500    1.4130   21.0480 C   0  0  0  0  0  0  0  0  0  0  0  0
    6.6140   -3.6440   21.7300 C   0  0  0  0  0  0  0  0  0  0  0  0
    8.3270   -4.8180   22.7690 C   0  0  0  0  0  0  0  0  0  0  0  0
   11.1710   -2.6580   23.1010 O   0  0  0  0  0  0  0  0  0  0  0  0
   12.7660   -0.8800   23.1760 C   0  0  0  0  0  0  0  0  0  0  0  0
   11.9390    1.3380   22.8260 C   0  0  0  0  0  0  0  0  0  0  0  0
    3.1400    1.4010   21.0020 C   0  0  0  0  0  0  0  0  0  0  0  0
    3.8620    0.5380   21.9950 C   0  0  0  0  0  0  0  0  0  0  0  0
    5.7760   -4.7630   21.9300 C   0  0  0  0  0  0  0  0  0  0  0  0
    7.4430   -5.7390   23.2880 C   0  0  0  0  0  0  0  0  0  0  0  0
   12.9940    0.4870   23.0880 C   0  0  0  0  0  0  0  0  0  0  0  0
   12.1680    3.0450   22.7280 Cl  0  0  0  0  0  0  0  0  0  0  0  0
    6.2160   -5.8570   22.6730 C   0  0  0  0  0  0  0  0  0  0  0  0
  1  2  2  0
  2  3  1  0
  4  2  1  0
  3  5  1  0
  4  6  1  6
  4  7  1  0
  4  8  1  0
  5  9  2  0
  5 10  1  0
  6 11  1  0
  7 12  1  0
  8 13  2  0
  8 14  1  0
  9 15  1  0
 10 16  1  0
 15 16  2  0
 10 17  1  0
 11 18  1  0
 11 19  1  0
 12 20  1  0
 13 20  1  0
 13 21  1  0
 14 22  2  0
 17 23  1  0
 17 24  1  0
 23 24  1  0
 18 25  1  0
 19 26  1  0
 21 27  2  0
 22 27  1  0
 22 28  1  0
 25 29  1  0
 26 29  1  0
M  END
