MIC-UNK-ea979c74-2
     RDKit          3D

 27 29  0  0  0  0  0  0  0  0999 V2000
   17.8080   -4.5910   24.7770 C   0  0  0  0  0  0  0  0  0  0  0  0
   16.3580   -4.9900   24.8820 C   0  0  0  0  0  0  0  0  0  0  0  0
   16.0840   -6.1240   25.2110 O   0  0  0  0  0  0  0  0  0  0  0  0
   15.4210   -4.0040   24.5590 N   0  0  0  0  0  0  0  0  0  0  0  0
   14.3740   -3.4150   25.4500 C   0  0  0  0  0  0  0  0  0  0  0  0
   13.1320   -2.7410   24.7550 C   0  0  0  0  0  0  0  0  0  0  0  0
   13.2970   -1.9880   23.3980 C   0  0  1  0  0  0  0  0  0  0  0  0
   12.7400   -2.6530   22.1730 C   0  0  0  0  0  0  0  0  0  0  0  0
   12.3840   -0.8490   23.2370 C   0  0  0  0  0  0  0  0  0  0  0  0
   11.3150   -2.6540   22.3970 O   0  0  0  0  0  0  0  0  0  0  0  0
   11.2340   -1.3220   22.6600 C   0  0  0  0  0  0  0  0  0  0  0  0
   12.4980    0.6270   23.5620 C   0  0  0  0  0  0  0  0  0  0  0  0
   10.1990   -0.4550   22.4100 C   0  0  0  0  0  0  0  0  0  0  0  0
   11.4210    1.4370   23.2770 C   0  0  0  0  0  0  0  0  0  0  0  0
    9.0220   -0.7110   21.8430 N   0  0  0  0  0  0  0  0  0  0  0  0
   10.3240    0.8700   22.7290 C   0  0  0  0  0  0  0  0  0  0  0  0
   11.3280    3.1330   23.5300 Cl  0  0  0  0  0  0  0  0  0  0  0  0
    8.0550   -0.2450   21.1560 C   0  0  0  0  0  0  0  0  0  0  0  0
    8.1790    0.9550   20.9280 O   0  0  0  0  0  0  0  0  0  0  0  0
    7.0270   -0.9630   20.7200 N   0  0  0  0  0  0  0  0  0  0  0  0
    6.2870   -0.1630   19.8610 C   0  0  0  0  0  0  0  0  0  0  0  0
    6.7720    0.1660   18.6040 C   0  0  0  0  0  0  0  0  0  0  0  0
    5.0530    0.3710   20.2330 C   0  0  0  0  0  0  0  0  0  0  0  0
    6.1560    0.9700   17.7100 N   0  0  0  0  0  0  0  0  0  0  0  0
    4.3420    1.2730   19.2240 C   0  0  0  0  0  0  0  0  0  0  0  0
    4.3700    0.1280   21.5810 C   0  0  0  0  0  0  0  0  0  0  0  0
    4.9760    1.4990   18.0260 C   0  0  0  0  0  0  0  0  0  0  0  0
  1  2  1  0
  2  3  2  0
  2  4  1  0
  4  5  1  0
  5  6  1  0
  7  6  1  1
  7  8  1  0
  7  9  1  0
  8 10  1  0
  9 11  2  0
 10 11  1  0
  9 12  1  0
 11 13  1  0
 12 14  2  0
 13 15  1  0
 13 16  2  0
 14 16  1  0
 14 17  1  0
 15 18  1  0
 18 19  2  0
 18 20  1  0
 20 21  1  0
 21 22  2  0
 21 23  1  0
 22 24  1  0
 23 25  2  0
 23 26  1  0
 24 27  2  0
 25 27  1  0
M  END
