MIC-UNK-5ce21166-1
     RDKit          3D

 17 18  0  0  0  0  0  0  0  0999 V2000
    9.4050    1.5800   21.3660 O   0  0  0  0  0  0  0  0  0  0  0  0
    8.2760    0.7360   22.2180 S   0  0  0  0  0  0  0  0  0  0  0  0
    7.5050   -0.4940   21.2320 C   0  0  0  0  0  0  0  0  0  0  0  0
    8.8920   -0.2890   23.5900 C   0  0  0  0  0  0  0  0  0  0  0  0
    6.7020    0.0750   20.1480 C   0  0  0  0  0  0  0  0  0  0  0  0
   10.2710   -0.6710   23.5130 C   0  0  0  0  0  0  0  0  0  0  0  0
    5.4630    0.9120   20.5090 C   0  0  0  0  0  0  0  0  0  0  0  0
    7.0490   -0.1230   18.8240 C   0  0  0  0  0  0  0  0  0  0  0  0
   11.1490   -0.4160   24.7320 C   0  0  0  0  0  0  0  0  0  0  0  0
   10.8370   -1.2770   22.4010 C   0  0  0  0  0  0  0  0  0  0  0  0
    4.7550    1.4450   19.3220 C   0  0  0  0  0  0  0  0  0  0  0  0
    6.3930    0.3690   17.7580 N   0  0  0  0  0  0  0  0  0  0  0  0
   12.4950   -0.7820   24.7300 C   0  0  0  0  0  0  0  0  0  0  0  0
   12.3380   -1.6640   22.4770 C   0  0  0  0  0  0  0  0  0  0  0  0
    5.2910    1.1280   17.9510 C   0  0  0  0  0  0  0  0  0  0  0  0
   13.0900   -1.3980   23.6290 C   0  0  0  0  0  0  0  0  0  0  0  0
   13.0370   -2.4240   21.1270 Cl  0  0  0  0  0  0  0  0  0  0  0  0
  2  1  1  6
  2  3  1  0
  2  4  1  0
  3  5  1  0
  4  6  1  0
  5  7  2  0
  5  8  1  0
  6  9  2  0
  6 10  1  0
  7 11  1  0
  8 12  2  0
  9 13  1  0
 10 14  2  0
 11 15  2  0
 12 15  1  0
 13 16  2  0
 14 16  1  0
 14 17  1  0
M  CHG  2   1  -1   2   1
M  END
