MIC-UNK-4e776895-2
     RDKit          3D

 24 27  0  0  0  0  0  0  0  0999 V2000
    9.7250   -2.8570   25.2760 C   0  0  0  0  0  0  0  0  0  0  0  0
   10.6960   -2.3700   24.2660 C   0  0  0  0  0  0  0  0  0  0  0  0
   12.1200   -2.9180   24.2630 C   0  0  0  0  0  0  0  0  0  0  0  0
   10.3750   -1.4140   23.3150 C   0  0  0  0  0  0  0  0  0  0  0  0
   13.1130   -2.4500   23.2560 C   0  0  0  0  0  0  0  0  0  0  0  0
   11.4120   -1.0900   22.4420 C   0  0  0  0  0  0  0  0  0  0  0  0
    9.1100   -0.8330   23.3240 C   0  0  1  0  0  0  0  0  0  0  0  0
   12.7100   -1.5170   22.3310 N   0  0  0  0  0  0  0  0  0  0  0  0
    9.1380    0.5480   22.9680 C   0  0  0  0  0  0  0  0  0  0  0  0
    7.6350   -1.4370   22.3390 S   0  0  0  0  0  0  0  0  0  0  0  0
   10.1470    1.4050   22.9350 N   0  0  0  0  0  0  0  0  0  0  0  0
    7.9430    1.1420   22.6140 C   0  0  0  0  0  0  0  0  0  0  0  0
    6.7580    0.2540   22.5260 C   0  0  1  0  0  0  0  0  0  0  0  0
    6.8640   -2.3910   23.1080 O   0  0  0  0  0  0  0  0  0  0  0  0
    9.5580    2.6330   22.5960 O   0  0  0  0  0  0  0  0  0  0  0  0
    8.2160    2.4520   22.4330 C   0  0  0  0  0  0  0  0  0  0  0  0
    6.2170    0.5730   21.2830 C   0  0  0  0  0  0  0  0  0  0  0  0
    7.4280    3.5520   22.1320 C   0  0  0  0  0  0  0  0  0  0  0  0
    5.6060    1.7600   20.8900 C   0  0  0  0  0  0  0  0  0  0  0  0
    6.3660   -0.4350   20.3950 C   0  0  0  0  0  0  0  0  0  0  0  0
    5.0880    2.0140   19.4560 C   0  0  0  0  0  0  0  0  0  0  0  0
    5.9190   -0.3530   18.9940 C   0  0  0  0  0  0  0  0  0  0  0  0
    5.2650    0.8830   18.4450 C   0  0  0  0  0  0  0  0  0  0  0  0
    6.2040   -1.7260   18.1390 Cl  0  0  0  0  0  0  0  0  0  0  0  0
  1  2  1  0
  2  3  2  0
  2  4  1  0
  3  5  1  0
  4  6  2  0
  7  4  1  6
  5  8  2  0
  6  8  1  0
  7  9  1  0
  7 10  1  0
  9 11  2  0
  9 12  1  0
 10 13  1  0
 12 13  1  0
 10 14  1  1
 11 15  1  0
 12 16  2  0
 15 16  1  0
 13 17  1  6
 16 18  1  0
 17 19  2  0
 17 20  1  0
 19 21  1  0
 20 22  2  0
 21 23  2  0
 22 23  1  0
 22 24  1  0
M  CHG  2  10   1  14  -1
M  END
