MIC-UNK-66895286-5
     RDKit          3D

 22 24  0  0  0  0  0  0  0  0999 V2000
    8.8240    1.3930   21.2310 O   0  0  0  0  0  0  0  0  0  0  0  0
    8.2820    0.4250   21.7890 C   0  0  0  0  0  0  0  0  0  0  0  0
    8.7320    0.0140   23.1300 C   0  0  0  0  0  0  0  0  0  0  0  0
    7.2790   -0.3490   21.3000 N   0  0  0  0  0  0  0  0  0  0  0  0
   10.2100    0.0600   23.1870 C   0  0  0  0  0  0  0  0  0  0  0  0
    6.5870    0.1860   20.1820 C   0  0  0  0  0  0  0  0  0  0  0  0
   10.7720    1.3690   22.7250 C   0  0  0  0  0  0  0  0  0  0  0  0
   11.0480   -0.9360   23.5890 C   0  0  0  0  0  0  0  0  0  0  0  0
    5.4880    1.0050   20.3260 C   0  0  0  0  0  0  0  0  0  0  0  0
    7.1840   -0.2040   18.8290 C   0  0  0  0  0  0  0  0  0  0  0  0
   12.0540    1.6370   22.6650 N   0  0  0  0  0  0  0  0  0  0  0  0
   12.3800   -0.6540   23.5180 C   0  0  0  0  0  0  0  0  0  0  0  0
   10.6210   -2.1750   24.0360 C   0  0  0  0  0  0  0  0  0  0  0  0
    4.8430    1.5700   19.0880 C   0  0  0  0  0  0  0  0  0  0  0  0
    6.6480    0.2850   17.6540 C   0  0  0  0  0  0  0  0  0  0  0  0
   12.9160    0.5480   23.0690 C   0  0  0  0  0  0  0  0  0  0  0  0
   13.3180   -1.6760   23.9280 C   0  0  0  0  0  0  0  0  0  0  0  0
   11.5210   -3.1460   24.4240 C   0  0  0  0  0  0  0  0  0  0  0  0
    5.4270    1.2190   17.7340 C   0  0  0  0  0  0  0  0  0  0  0  0
    7.4100   -0.1940   16.1820 Cl  0  0  0  0  0  0  0  0  0  0  0  0
   14.0950    0.7750   22.9710 O   0  0  0  0  0  0  0  0  0  0  0  0
   12.8760   -2.8790   24.3670 C   0  0  0  0  0  0  0  0  0  0  0  0
  1  2  2  0
  2  3  1  0
  2  4  1  0
  3  5  1  0
  4  6  1  0
  5  7  2  0
  5  8  1  0
  6  9  2  0
  6 10  1  0
  7 11  1  0
  8 12  2  0
  8 13  1  0
  9 14  1  0
 10 15  2  0
 11 16  2  0
 12 16  1  0
 12 17  1  0
 13 18  2  0
 14 19  2  0
 15 19  1  0
 15 20  1  0
 16 21  1  0
 17 22  2  0
 18 22  1  0
M  END
