MIC-IOC-304754b1-1
     RDKit          3D

 35 39  0  0  0  0  0  0  0  0999 V2000
   -1.3640   -6.7960   19.9460 C   0  0  0  0  0  0  0  0  0  0  0  0
   -1.4830   -5.7510   20.9810 C   0  0  0  0  0  0  0  0  0  0  0  0
   -2.2950   -6.3400   22.1390 C   0  0  0  0  0  0  0  0  0  0  0  0
   -3.1890   -7.3840   21.8500 N   0  0  0  0  0  0  0  0  0  0  0  0
   -2.2720   -5.9870   23.4490 C   0  0  0  0  0  0  0  0  0  0  0  0
   -3.7930   -7.8090   23.0430 N   0  0  0  0  0  0  0  0  0  0  0  0
   -3.2800   -6.9490   24.1020 C   0  0  0  0  0  0  0  0  0  0  0  0
   -1.4720   -4.9120   24.2460 C   0  0  0  0  0  0  0  0  0  0  0  0
   -4.3830   -9.1540   23.1010 C   0  0  0  0  0  0  0  0  0  0  0  0
   -3.5430   -6.9330   25.2930 O   0  0  0  0  0  0  0  0  0  0  0  0
   -2.1140   -3.7410   24.9970 C   0  0  0  0  0  0  0  0  0  0  0  0
   -0.0200   -4.8170   24.4190 C   0  0  0  0  0  0  0  0  0  0  0  0
   -5.2940   -9.4640   24.2780 C   0  0  0  0  0  0  0  0  0  0  0  0
   -4.1460  -10.1640   22.1220 C   0  0  0  0  0  0  0  0  0  0  0  0
   -3.4740   -3.3010   25.1990 N   0  0  0  0  0  0  0  0  0  0  0  0
   -0.9040   -3.0370   25.5580 C   0  0  0  0  0  0  0  0  0  0  0  0
    0.2410   -3.7940   25.3170 N   0  0  0  0  0  0  0  0  0  0  0  0
    0.7480   -5.5580   23.8230 O   0  0  0  0  0  0  0  0  0  0  0  0
   -5.9630  -10.7090   24.5140 C   0  0  0  0  0  0  0  0  0  0  0  0
   -4.8620  -11.5320   22.3520 C   0  0  0  0  0  0  0  0  0  0  0  0
   -4.1300   -3.4970   26.3830 C   0  0  0  0  0  0  0  0  0  0  0  0
   -4.3070   -2.8280   24.0810 C   0  0  0  0  0  0  0  0  0  0  0  0
   -0.9930   -1.9580   26.1300 O   0  0  0  0  0  0  0  0  0  0  0  0
    1.5830   -3.3800   25.6200 C   0  0  0  0  0  0  0  0  0  0  0  0
   -5.7790  -11.7810   23.5740 C   0  0  0  0  0  0  0  0  0  0  0  0
   -4.6260  -12.7990   21.2100 Cl  0  0  0  0  0  0  0  0  0  0  0  0
   -5.3270   -2.5990   26.7420 C   0  0  0  0  0  0  0  0  0  0  0  0
   -5.4670   -1.9030   24.4230 C   0  0  0  0  0  0  0  0  0  0  0  0
    1.9590   -2.0270   25.7110 C   0  0  0  0  0  0  0  0  0  0  0  0
    2.5950   -4.3270   25.8390 C   0  0  0  0  0  0  0  0  0  0  0  0
   -5.7390   -1.5070   25.7490 C   0  0  0  0  0  0  0  0  0  0  0  0
    3.2770   -1.6460   25.9940 C   0  0  0  0  0  0  0  0  0  0  0  0
    3.9290   -3.9660   26.1330 C   0  0  0  0  0  0  0  0  0  0  0  0
    4.2610   -2.6070   26.2020 C   0  0  0  0  0  0  0  0  0  0  0  0
    4.9650   -5.0370   26.3720 C   0  0  0  0  0  0  0  0  0  0  0  0
  1  2  1  0
  2  3  1  0
  3  4  1  0
  3  5  2  0
  4  6  1  0
  5  7  1  0
  6  7  1  0
  5  8  1  0
  6  9  1  0
  7 10  2  0
  8 11  2  0
  8 12  1  0
  9 13  2  0
  9 14  1  0
 11 15  1  0
 11 16  1  0
 12 17  1  0
 16 17  1  0
 12 18  2  0
 13 19  1  0
 14 20  2  0
 15 21  1  0
 15 22  1  0
 16 23  2  0
 17 24  1  0
 19 25  2  0
 20 25  1  0
 20 26  1  0
 21 27  2  0
 22 28  2  0
 24 29  2  0
 24 30  1  0
 27 31  1  0
 28 31  1  0
 29 32  1  0
 30 33  2  0
 32 34  2  0
 33 34  1  0
 33 35  1  0
M  END
