MIC-UNK-5ce21166-2
     RDKit          3D

 16 17  0  0  0  0  0  0  0  0999 V2000
    8.7140    1.6820   21.4640 O   0  0  0  0  0  0  0  0  0  0  0  0
    8.5590    0.0110   21.4100 S   0  0  0  0  0  0  0  0  0  0  0  0
    6.9120   -0.4900   21.1680 C   0  0  0  0  0  0  0  0  0  0  0  0
    8.9270   -0.8990   22.9370 C   0  0  0  0  0  0  0  0  0  0  0  0
    6.1890    0.1680   20.0720 C   0  0  0  0  0  0  0  0  0  0  0  0
   10.3940   -0.8920   22.9900 C   0  0  0  0  0  0  0  0  0  0  0  0
    6.7150    0.2830   18.6500 C   0  0  0  0  0  0  0  0  0  0  0  0
    4.9560    0.8040   20.0290 C   0  0  0  0  0  0  0  0  0  0  0  0
   11.2570   -1.9620   23.0040 C   0  0  0  0  0  0  0  0  0  0  0  0
   10.9000    0.3740   23.0040 C   0  0  0  0  0  0  0  0  0  0  0  0
    5.7890    0.9650   17.8670 N   0  0  0  0  0  0  0  0  0  0  0  0
    4.7500    1.2640   18.7150 N   0  0  0  0  0  0  0  0  0  0  0  0
   12.6640   -1.7740   23.0290 C   0  0  0  0  0  0  0  0  0  0  0  0
   12.2250    0.6530   23.0190 C   0  0  0  0  0  0  0  0  0  0  0  0
   13.1720   -0.3420   23.0330 C   0  0  0  0  0  0  0  0  0  0  0  0
   12.6040    2.3170   22.9890 Cl  0  0  0  0  0  0  0  0  0  0  0  0
  2  1  1  1
  2  3  1  0
  2  4  1  0
  3  5  1  0
  4  6  1  0
  5  7  1  0
  5  8  2  0
  6  9  2  0
  6 10  1  0
  7 11  2  0
  8 12  1  0
 11 12  1  0
  9 13  1  0
 10 14  2  0
 13 15  2  0
 14 15  1  0
 14 16  1  0
M  CHG  2   1  -1   2   1
M  END
