MIC-UNK-ea979c74-1
     RDKit          3D

 27 29  0  0  0  0  0  0  0  0999 V2000
   19.6690   -2.5530   26.3970 C   0  0  0  0  0  0  0  0  0  0  0  0
   18.4140   -2.4090   25.5260 C   0  0  0  0  0  0  0  0  0  0  0  0
   18.8530   -1.8020   24.5510 O   0  0  0  0  0  0  0  0  0  0  0  0
   16.8790   -2.9830   25.6650 N   0  0  0  0  0  0  0  0  0  0  0  0
   15.2730   -2.6280   26.0870 C   0  0  0  0  0  0  0  0  0  0  0  0
   13.8760   -2.1700   25.3690 C   0  0  0  0  0  0  0  0  0  0  0  0
   13.4320   -1.8880   23.8810 C   0  0  1  0  0  0  0  0  0  0  0  0
   12.2790   -2.8320   23.6450 C   0  0  0  0  0  0  0  0  0  0  0  0
   12.6390   -0.6380   23.4980 C   0  0  0  0  0  0  0  0  0  0  0  0
   11.0210   -2.1960   23.8610 O   0  0  0  0  0  0  0  0  0  0  0  0
   11.2770   -0.9220   23.5130 C   0  0  0  0  0  0  0  0  0  0  0  0
   13.0510    0.7890   23.1150 C   0  0  0  0  0  0  0  0  0  0  0  0
   10.2440   -0.0140   23.2050 C   0  0  0  0  0  0  0  0  0  0  0  0
   11.9020    1.7580   22.8140 C   0  0  0  0  0  0  0  0  0  0  0  0
    8.9460   -0.4940   23.2590 N   0  0  0  0  0  0  0  0  0  0  0  0
   10.5860    1.2980   22.8700 C   0  0  0  0  0  0  0  0  0  0  0  0
   12.1990    3.4070   22.4080 Cl  0  0  0  0  0  0  0  0  0  0  0  0
    7.7220   -0.9830   23.1360 C   0  0  0  0  0  0  0  0  0  0  0  0
    7.0790   -1.3770   24.1050 O   0  0  0  0  0  0  0  0  0  0  0  0
    7.2310   -1.0110   21.8280 C   0  0  0  0  0  0  0  0  0  0  0  0
    6.5110    0.0990   21.3340 C   0  0  0  0  0  0  0  0  0  0  0  0
    5.8500    0.9990   22.2090 C   0  0  0  0  0  0  0  0  0  0  0  0
    6.4100    0.3690   19.9560 C   0  0  0  0  0  0  0  0  0  0  0  0
    5.1150    2.1160   21.8560 N   0  0  0  0  0  0  0  0  0  0  0  0
    5.6830    1.4800   19.5430 C   0  0  0  0  0  0  0  0  0  0  0  0
    7.0360   -0.4510   18.8250 C   0  0  0  0  0  0  0  0  0  0  0  0
    5.0070    2.3920   20.5460 C   0  0  0  0  0  0  0  0  0  0  0  0
  1  2  1  0
  2  3  2  0
  2  4  1  0
  4  5  1  0
  5  6  1  0
  7  6  1  1
  7  8  1  0
  7  9  1  0
  8 10  1  0
  9 11  2  0
 10 11  1  0
  9 12  1  0
 11 13  1  0
 12 14  2  0
 13 15  1  0
 13 16  2  0
 14 16  1  0
 14 17  1  0
 15 18  1  0
 18 19  2  0
 18 20  1  0
 20 21  1  0
 21 22  2  0
 21 23  1  0
 22 24  1  0
 23 25  2  0
 23 26  1  0
 24 27  2  0
 25 27  1  0
M  END
