MIC-UNK-66895286-2
     RDKit          3D

 16 17  0  0  0  0  0  0  0  0999 V2000
    9.2100    1.4170   21.3160 O   0  0  0  0  0  0  0  0  0  0  0  0
    8.7400    0.3360   21.6770 C   0  0  0  0  0  0  0  0  0  0  0  0
    9.2350   -0.3590   22.9260 C   0  0  0  0  0  0  0  0  0  0  0  0
    7.7380   -0.3610   21.0450 N   0  0  0  0  0  0  0  0  0  0  0  0
   10.7260   -0.5960   23.1500 C   0  0  0  0  0  0  0  0  0  0  0  0
    6.7440    0.2580   20.1860 C   0  0  0  0  0  0  0  0  0  0  0  0
   11.5580   -1.4220   22.2000 C   0  0  0  0  0  0  0  0  0  0  0  0
   11.6440   -0.2320   24.0920 C   0  0  0  0  0  0  0  0  0  0  0  0
    6.9790    0.2730   18.7130 C   0  0  0  0  0  0  0  0  0  0  0  0
    5.5770    0.8540   20.6630 C   0  0  0  0  0  0  0  0  0  0  0  0
   12.8490   -1.5680   22.4980 N   0  0  0  0  0  0  0  0  0  0  0  0
   12.9250   -0.8450   23.6540 N   0  0  0  0  0  0  0  0  0  0  0  0
    6.0510    0.8830   17.8950 C   0  0  0  0  0  0  0  0  0  0  0  0
    4.6840    1.4470   19.7580 C   0  0  0  0  0  0  0  0  0  0  0  0
    4.9210    1.4660   18.3870 C   0  0  0  0  0  0  0  0  0  0  0  0
    3.2480    2.1830   20.3470 Cl  0  0  0  0  0  0  0  0  0  0  0  0
  1  2  2  0
  2  3  1  0
  2  4  1  0
  3  5  1  0
  4  6  1  0
  5  7  1  0
  5  8  2  0
  6  9  2  0
  6 10  1  0
  7 11  2  0
  8 12  1  0
 11 12  1  0
  9 13  1  0
 10 14  2  0
 13 15  2  0
 14 15  1  0
 14 16  1  0
M  END
