MIH-UNI-e573136b-15-vinylsulfonamide
     RDKit          3D

 26 28  0  0  0  0  0  0  0  0999 V2000
    7.2480   -5.8190   21.7930 C   0  0  0  0  0  0  0  0  0  0  0  0
    7.1960   -4.9620   23.1570 C   0  0  0  0  0  0  0  0  0  0  0  0
    5.9620   -3.6700   23.0940 S   0  0  0  0  0  0  0  0  0  0  0  0
    4.9180   -3.8280   21.9230 O   0  0  0  0  0  0  0  0  0  0  0  0
    5.4290   -3.5850   24.4380 O   0  0  0  0  0  0  0  0  0  0  0  0
    7.2100   -2.4600   22.9950 N   0  0  0  0  0  0  0  0  0  0  0  0
    8.5720   -2.9490   22.6670 C   0  0  0  0  0  0  0  0  0  0  0  0
    7.1950   -1.3620   23.9790 C   0  0  0  0  0  0  0  0  0  0  0  0
    9.7190   -2.0210   23.0260 C   0  0  0  0  0  0  0  0  0  0  0  0
    8.3190   -1.5040   24.8210 C   0  0  2  0  0  0  0  0  0  0  0  0
   11.0020   -1.8880   22.2390 C   0  0  0  0  0  0  0  0  0  0  0  0
    9.5220   -1.2570   24.1580 C   0  0  0  0  0  0  0  0  0  0  0  0
    8.3630   -2.7610   25.6200 C   0  0  0  0  0  0  0  0  0  0  0  0
   12.0350   -0.9110   22.6720 C   0  0  0  0  0  0  0  0  0  0  0  0
   10.4570   -0.3360   24.5710 C   0  0  0  0  0  0  0  0  0  0  0  0
    9.0510   -3.9140   25.1690 C   0  0  0  0  0  0  0  0  0  0  0  0
    7.7350   -2.8910   26.8660 C   0  0  0  0  0  0  0  0  0  0  0  0
   11.6370   -0.1270   23.9050 C   0  0  0  0  0  0  0  0  0  0  0  0
    9.1440   -5.1280   25.8540 C   0  0  0  0  0  0  0  0  0  0  0  0
    7.8410   -4.1960   27.5960 C   0  0  0  0  0  0  0  0  0  0  0  0
   12.4280    0.8180   24.3610 N   0  0  0  0  0  0  0  0  0  0  0  0
    8.4990   -5.2560   27.1330 C   0  0  0  0  0  0  0  0  0  0  0  0
   12.7340    1.5380   22.9440 S   0  0  0  0  0  0  0  0  0  0  0  0
   12.6400    3.2530   22.9320 C   0  0  0  0  0  0  0  0  0  0  0  0
   14.0170    1.0120   22.5970 O   0  0  0  0  0  0  0  0  0  0  0  0
   11.5190    1.1170   22.3130 O   0  0  0  0  0  0  0  0  0  0  0  0
  1  2  1  0
  3  2  1  0
  3  4  2  0
  3  5  2  0
  3  6  1  0
  6  7  1  0
  6  8  1  0
  7  9  1  0
  8 10  1  0
  9 11  1  0
  9 12  2  0
 10 12  1  0
 10 13  1  6
 11 14  2  0
 12 15  1  0
 13 16  2  0
 13 17  1  0
 14 18  1  0
 15 18  2  0
 16 19  1  0
 17 20  2  0
 18 21  1  0
 19 22  2  0
 20 22  1  0
 23 21  1  0
 23 24  1  0
 23 25  2  0
 23 26  2  0
M  END
