MIH-UNI-e573136b-13-chloroacetamide
     RDKit          3D

 27 30  0  0  0  0  0  0  0  0999 V2000
    7.7540   -3.8290   20.5100 C   0  0  0  0  0  0  0  0  0  0  0  0
    6.8720   -2.5560   20.1530 C   0  0  0  0  0  0  0  0  0  0  0  0
    6.0920   -3.2270   19.3660 O   0  0  0  0  0  0  0  0  0  0  0  0
    7.8920   -1.9830   21.0990 N   0  0  0  0  0  0  0  0  0  0  0  0
    8.4110   -0.7640   20.6420 C   0  0  0  0  0  0  0  0  0  0  0  0
    7.6370   -1.6590   22.4860 C   0  0  1  0  0  0  0  0  0  0  0  0
    8.1460    0.5220   21.4720 C   0  0  0  0  0  0  0  0  0  0  0  0
    8.6190   -0.8700   23.2490 C   0  0  2  0  0  0  0  0  0  0  0  0
    6.5480   -0.7090   22.1070 N   0  0  0  0  0  0  0  0  0  0  0  0
    7.7570    1.9040   21.0690 C   0  0  0  0  0  0  0  0  0  0  0  0
    8.2990    0.3720   22.8250 C   0  0  0  0  0  0  0  0  0  0  0  0
   10.0490   -1.0460   23.2260 C   0  0  0  0  0  0  0  0  0  0  0  0
    6.2380   -0.1160   20.7440 C   0  0  0  0  0  0  0  0  0  0  0  0
    7.5830    2.9870   22.0950 C   0  0  0  0  0  0  0  0  0  0  0  0
    8.1580    1.3210   23.8360 C   0  0  0  0  0  0  0  0  0  0  0  0
   10.8880   -1.6690   22.1820 C   0  0  0  0  0  0  0  0  0  0  0  0
   10.8010   -0.4920   24.4890 C   0  0  0  0  0  0  0  0  0  0  0  0
    6.9710   -0.3090   19.3840 C   0  0  0  0  0  0  0  0  0  0  0  0
    5.1330    0.7220   20.7130 C   0  0  0  0  0  0  0  0  0  0  0  0
    7.8090    2.6390   23.5620 C   0  0  0  0  0  0  0  0  0  0  0  0
   12.2830   -1.7630   22.3110 C   0  0  0  0  0  0  0  0  0  0  0  0
   12.1410   -0.6050   24.5690 C   0  0  0  0  0  0  0  0  0  0  0  0
    6.5740    0.3320   18.0870 N   0  0  0  0  0  0  0  0  0  0  0  0
    4.7070    1.3800   19.4220 C   0  0  0  0  0  0  0  0  0  0  0  0
    4.4100    0.9460   21.9300 C   0  0  0  0  0  0  0  0  0  0  0  0
   12.9110   -1.2680   23.4320 C   0  0  0  0  0  0  0  0  0  0  0  0
    5.5210    1.1020   18.1630 C   0  0  0  0  0  0  0  0  0  0  0  0
  1  2  1  0
  2  3  2  0
  2  4  1  0
  4  5  1  0
  4  6  1  0
  5  7  1  0
  6  8  1  0
  6  9  1  6
  7 10  1  0
  7 11  2  0
  8 11  1  0
  8 12  1  6
  9 13  1  0
 10 14  2  0
 11 15  1  0
 12 16  2  0
 12 17  1  0
 13 18  2  0
 13 19  1  0
 14 20  1  0
 15 20  2  0
 16 21  1  0
 17 22  2  0
 18 23  1  0
 19 24  2  0
 19 25  1  0
 21 26  2  0
 22 26  1  0
 23 27  2  0
 24 27  1  0
M  END
