MIH-UNI-e573136b-1-chloroacetamide
     RDKit          3D

 29 33  0  0  0  0  0  0  0  0999 V2000
    7.2310   -2.9640   18.8810 C   0  0  0  0  0  0  0  0  0  0  0  0
    6.3760   -3.2260   19.8700 C   0  0  0  0  0  0  0  0  0  0  0  0
    5.4450   -4.0120   19.6690 O   0  0  0  0  0  0  0  0  0  0  0  0
    6.5200   -2.6100   21.1170 N   0  0  0  0  0  0  0  0  0  0  0  0
    6.3600   -3.3050   22.4030 C   0  0  0  0  0  0  0  0  0  0  0  0
    7.1410   -1.2860   21.3470 C   0  0  1  0  0  0  0  0  0  0  0  0
    7.7230   -3.4630   23.1110 C   0  0  0  0  0  0  0  0  0  0  0  0
    8.6210   -1.5060   21.7860 C   0  0  0  0  0  0  0  0  0  0  0  0
    6.6270   -0.2700   20.3080 C   0  0  0  0  0  0  0  0  0  0  0  0
    8.6100   -2.2580   23.0990 N   0  0  0  0  0  0  0  0  0  0  0  0
    7.0170   -0.2950   18.8720 C   0  0  0  0  0  0  0  0  0  0  0  0
    5.7100    0.8090   20.4210 C   0  0  0  0  0  0  0  0  0  0  0  0
    9.8750   -2.3540   23.6950 C   0  0  0  0  0  0  0  0  0  0  0  0
    6.3720    0.6850   18.1380 N   0  0  0  0  0  0  0  0  0  0  0  0
    5.5860    1.3310   19.0050 C   0  0  0  0  0  0  0  0  0  0  0  0
    5.0070    1.4070   21.3950 C   0  0  0  0  0  0  0  0  0  0  0  0
   10.9080   -1.4830   23.3880 C   0  0  0  0  0  0  0  0  0  0  0  0
    4.7270    2.3710   18.7390 N   0  0  0  0  0  0  0  0  0  0  0  0
    4.1140    2.5810   21.0570 C   0  0  0  0  0  0  0  0  0  0  0  0
   12.0800   -1.9050   22.7640 C   0  0  0  0  0  0  0  0  0  0  0  0
   10.7670   -0.1250   23.7080 C   0  0  0  0  0  0  0  0  0  0  0  0
    4.0250    2.9990   19.7420 C   0  0  0  0  0  0  0  0  0  0  0  0
   13.1040   -1.0400   22.4490 C   0  0  0  0  0  0  0  0  0  0  0  0
   11.8270    0.7670   23.3630 C   0  0  0  0  0  0  0  0  0  0  0  0
    9.5130    0.4040   24.4020 C   0  0  0  0  0  0  0  0  0  0  0  0
   12.9740    0.2880   22.7510 C   0  0  0  0  0  0  0  0  0  0  0  0
   11.7150    2.1170   23.6270 C   0  0  0  0  0  0  0  0  0  0  0  0
    9.3910    1.7400   24.6750 C   0  0  0  0  0  0  0  0  0  0  0  0
   10.4880    2.7160   24.2950 C   0  0  0  0  0  0  0  0  0  0  0  0
  1  2  1  0
  2  3  2  0
  2  4  1  0
  4  5  1  0
  4  6  1  0
  5  7  1  0
  6  8  1  0
  6  9  1  6
  7 10  1  0
  8 10  1  0
  9 11  2  0
  9 12  1  0
 10 13  1  0
 11 14  1  0
 12 15  1  0
 14 15  2  0
 12 16  2  0
 13 17  1  0
 15 18  1  0
 16 19  1  0
 17 20  2  0
 17 21  1  0
 18 22  1  0
 19 22  2  0
 20 23  1  0
 21 24  2  0
 21 25  1  0
 23 26  2  0
 24 26  1  0
 24 27  1  0
 25 28  2  0
 27 29  2  0
 28 29  1  0
M  END
