MIH-UNI-e573136b-14-nitrile
     RDKit          3D

 28 32  0  0  0  0  0  0  0  0999 V2000
    7.0200   -2.8960   20.0070 C   0  0  0  0  0  0  0  0  0  0  0  0
    5.8490   -3.2840   19.5130 N   0  0  0  0  0  0  0  0  0  0  0  0
    7.1640   -1.8940   21.2570 N   0  0  0  0  0  0  0  0  0  0  0  0
    6.5340   -2.3550   22.4720 C   0  0  0  0  0  0  0  0  0  0  0  0
    8.1520   -0.8630   21.9620 C   0  0  1  0  0  0  0  0  0  0  0  0
    7.5890   -2.7550   23.5550 C   0  0  0  0  0  0  0  0  0  0  0  0
    9.3040   -1.5720   22.3470 C   0  0  2  0  0  0  0  0  0  0  0  0
    8.4290    0.6730   21.6680 C   0  0  0  0  0  0  0  0  0  0  0  0
    7.3140   -3.5980   24.7970 C   0  0  0  0  0  0  0  0  0  0  0  0
    8.9630   -2.3220   23.4300 C   0  0  0  0  0  0  0  0  0  0  0  0
   10.5610   -0.9630   22.4990 C   0  0  0  0  0  0  0  0  0  0  0  0
    7.0580    1.3430   21.6050 C   0  0  0  0  0  0  0  0  0  0  0  0
    8.4240   -3.8970   25.7410 C   0  0  0  0  0  0  0  0  0  0  0  0
   10.0100   -2.6150   24.3370 C   0  0  0  0  0  0  0  0  0  0  0  0
   10.8050    0.2360   23.1770 C   0  0  0  0  0  0  0  0  0  0  0  0
   11.6300   -1.6340   21.9170 C   0  0  0  0  0  0  0  0  0  0  0  0
    6.4620    2.0020   22.7980 C   0  0  0  0  0  0  0  0  0  0  0  0
    6.1060    1.5310   20.5680 C   0  0  0  0  0  0  0  0  0  0  0  0
    9.7890   -3.3610   25.4470 C   0  0  0  0  0  0  0  0  0  0  0  0
   12.1620    0.7800   23.2620 C   0  0  0  0  0  0  0  0  0  0  0  0
   13.0750   -1.1770   21.9390 C   0  0  0  0  0  0  0  0  0  0  0  0
    5.1580    2.5860   22.5100 N   0  0  0  0  0  0  0  0  0  0  0  0
    4.9580    2.3100   21.2250 C   0  0  0  0  0  0  0  0  0  0  0  0
    6.0370    1.1940   19.2730 C   0  0  0  0  0  0  0  0  0  0  0  0
   13.2380    0.1440   22.6900 C   0  0  0  0  0  0  0  0  0  0  0  0
    3.8580    2.6580   20.4890 N   0  0  0  0  0  0  0  0  0  0  0  0
    4.8330    1.5680   18.4180 C   0  0  0  0  0  0  0  0  0  0  0  0
    3.7520    2.3350   19.1610 C   0  0  0  0  0  0  0  0  0  0  0  0
  1  2  2  3
  1  3  1  0
  3  4  1  0
  3  5  1  0
  4  6  1  0
  5  7  1  0
  5  8  1  6
  6  9  1  0
  6 10  2  0
  7 10  1  0
  7 11  1  1
  8 12  1  0
  9 13  2  0
 10 14  1  0
 11 15  2  0
 11 16  1  0
 12 17  2  0
 12 18  1  0
 13 19  1  0
 14 19  2  0
 15 20  1  0
 16 21  2  0
 17 22  1  0
 18 23  1  0
 22 23  2  0
 18 24  2  0
 20 25  2  0
 21 25  1  0
 23 26  1  0
 24 27  1  0
 26 28  1  0
 27 28  2  0
M  END
