MIH-UNI-e573136b-12-acrylamide
     RDKit          3D

 28 31  0  0  0  0  0  0  0  0999 V2000
    6.5250   -4.6550   20.4930 C   0  0  0  0  0  0  0  0  0  0  0  0
    6.8500   -4.2490   21.9390 C   0  0  0  0  0  0  0  0  0  0  0  0
    6.0250   -3.0430   22.3580 C   0  0  0  0  0  0  0  0  0  0  0  0
    5.0070   -3.7340   21.7530 O   0  0  0  0  0  0  0  0  0  0  0  0
    7.3660   -2.5310   22.9460 N   0  0  0  0  0  0  0  0  0  0  0  0
    8.6290   -3.2340   23.3530 C   0  0  0  0  0  0  0  0  0  0  0  0
    7.4770   -1.2510   23.6840 C   0  0  0  0  0  0  0  0  0  0  0  0
    9.9340   -2.2910   23.3950 C   0  0  0  0  0  0  0  0  0  0  0  0
    8.6360   -0.3420   23.1250 C   0  0  1  0  0  0  0  0  0  0  0  0
   11.3330   -2.8140   23.5920 C   0  0  0  0  0  0  0  0  0  0  0  0
    9.9050   -0.8980   23.2400 C   0  0  0  0  0  0  0  0  0  0  0  0
    8.0690   -0.2540   21.8600 C   0  0  0  0  0  0  0  0  0  0  0  0
   12.5230   -1.9270   23.5670 C   0  0  0  0  0  0  0  0  0  0  0  0
   11.0440   -0.0040   23.1990 C   0  0  0  0  0  0  0  0  0  0  0  0
    8.3930   -1.0750   20.8190 C   0  0  0  0  0  0  0  0  0  0  0  0
    7.1280    0.7020   21.7370 C   0  0  0  0  0  0  0  0  0  0  0  0
   12.3470   -0.5110   23.3540 C   0  0  0  0  0  0  0  0  0  0  0  0
    7.7400   -0.9430   19.6000 C   0  0  0  0  0  0  0  0  0  0  0  0
    6.4320    0.8570   20.4550 C   0  0  0  0  0  0  0  0  0  0  0  0
    6.7550    0.0350   19.4160 C   0  0  0  0  0  0  0  0  0  0  0  0
    5.3810    1.9090   20.3290 C   0  0  0  0  0  0  0  0  0  0  0  0
    6.0450    0.2110   18.1430 C   0  0  0  0  0  0  0  0  0  0  0  0
    4.6430    2.1060   19.0340 C   0  0  0  0  0  0  0  0  0  0  0  0
    4.9810    1.2730   17.9550 C   0  0  0  0  0  0  0  0  0  0  0  0
    3.3770    3.4200   19.0220 S   0  0  0  0  0  0  0  0  0  0  0  0
    1.9800    2.6040   19.2390 N   0  0  0  0  0  0  0  0  0  0  0  0
    3.4810    4.1890   20.2420 O   0  0  0  0  0  0  0  0  0  0  0  0
    3.2900    3.9980   17.7140 O   0  0  0  0  0  0  0  0  0  0  0  0
  1  2  1  0
  2  3  1  0
  3  4  2  0
  3  5  1  0
  5  6  1  0
  5  7  1  0
  6  8  1  0
  7  9  1  0
  8 10  1  0
  8 11  2  0
  9 11  1  0
  9 12  1  6
 10 13  2  0
 11 14  1  0
 12 15  2  0
 12 16  1  0
 13 17  1  0
 14 17  2  0
 15 18  1  0
 16 19  2  0
 18 20  2  0
 19 20  1  0
 19 21  1  0
 20 22  1  0
 21 23  2  0
 22 24  2  0
 23 24  1  0
 23 25  1  0
 25 26  1  0
 25 27  2  0
 25 28  2  0
M  END
