MIH-UNI-e573136b-15-bromoalkyne
     RDKit          3D

 23 25  0  0  0  0  0  0  0  0999 V2000
    7.4180   -3.9390   20.3010 C   0  0  0  0  0  0  0  0  0  0  0  0
    5.9800   -4.4590   20.0250 C   0  0  0  0  0  0  0  0  0  0  0  0
    7.7160   -2.8940   21.1930 N   0  0  0  0  0  0  0  0  0  0  0  0
    8.2280   -3.2910   22.5420 C   0  0  0  0  0  0  0  0  0  0  0  0
    7.3720   -1.4530   21.0100 C   0  0  0  0  0  0  0  0  0  0  0  0
    9.4510   -2.4640   22.9480 C   0  0  0  0  0  0  0  0  0  0  0  0
    8.5090   -0.6950   21.3920 C   0  0  2  0  0  0  0  0  0  0  0  0
   10.5640   -2.8040   23.8710 C   0  0  0  0  0  0  0  0  0  0  0  0
    9.2870   -1.3730   22.2710 C   0  0  0  0  0  0  0  0  0  0  0  0
    8.3950    0.7370   21.6520 C   0  0  0  0  0  0  0  0  0  0  0  0
    9.5380   -3.8840   23.7690 C   0  0  0  0  0  0  0  0  0  0  0  0
    8.2770   -2.3250   22.1170 C   0  0  0  0  0  0  0  0  0  0  0  0
    9.4430    1.4240   22.2840 C   0  0  0  0  0  0  0  0  0  0  0  0
    7.2840    1.4940   21.3040 C   0  0  0  0  0  0  0  0  0  0  0  0
    8.3340   -3.5940   22.8300 C   0  0  0  0  0  0  0  0  0  0  0  0
    9.4590    2.7780   22.5830 C   0  0  0  0  0  0  0  0  0  0  0  0
    7.2910    2.9440   21.6220 C   0  0  0  0  0  0  0  0  0  0  0  0
    7.2590   -4.4940   22.6120 N   0  0  0  0  0  0  0  0  0  0  0  0
    8.3060    3.5590   22.2210 C   0  0  0  0  0  0  0  0  0  0  0  0
    7.2380   -5.9260   23.4780 S   0  0  0  0  0  0  0  0  0  0  0  0
    8.9020   -6.1930   23.7030 C   0  0  0  0  0  0  0  0  0  0  0  0
    6.7300   -6.9430   22.5870 O   0  0  0  0  0  0  0  0  0  0  0  0
    6.6370   -5.5960   24.7500 O   0  0  0  0  0  0  0  0  0  0  0  0
  1  2  2  3
  1  3  1  0
  3  4  1  0
  3  5  1  0
  4  6  1  0
  5  7  1  0
  6  8  1  0
  6  9  2  0
  7  9  1  0
  7 10  1  1
  8 11  2  0
  9 12  1  0
 10 13  2  0
 10 14  1  0
 11 15  1  0
 12 15  2  0
 13 16  1  0
 14 17  2  0
 15 18  1  0
 16 19  2  0
 17 19  1  0
 20 18  1  0
 20 21  1  0
 20 22  2  0
 20 23  2  0
M  END
