MIH-UNI-e573136b-15-nitrile
     RDKit          3D

 23 25  0  0  0  0  0  0  0  0999 V2000
    7.2350   -3.6110   20.1590 C   0  0  0  0  0  0  0  0  0  0  0  0
    5.9710   -3.8830   19.8570 N   0  0  0  0  0  0  0  0  0  0  0  0
    7.8240   -2.8230   21.3550 N   0  0  0  0  0  0  0  0  0  0  0  0
    9.0790   -2.2240   21.1070 C   0  0  0  0  0  0  0  0  0  0  0  0
    7.2460   -1.8520   22.4140 C   0  0  0  0  0  0  0  0  0  0  0  0
   10.0440   -1.9600   22.1440 C   0  0  0  0  0  0  0  0  0  0  0  0
    8.2180   -1.0220   23.2580 C   0  0  1  0  0  0  0  0  0  0  0  0
   11.4880   -2.3200   21.9990 C   0  0  0  0  0  0  0  0  0  0  0  0
    9.5910   -1.3650   23.2510 C   0  0  0  0  0  0  0  0  0  0  0  0
    8.3230    0.3620   22.9220 C   0  0  0  0  0  0  0  0  0  0  0  0
   12.3710   -2.0240   23.0860 C   0  0  0  0  0  0  0  0  0  0  0  0
   10.4130   -1.0450   24.3730 C   0  0  0  0  0  0  0  0  0  0  0  0
    9.6200    1.0600   22.7380 C   0  0  0  0  0  0  0  0  0  0  0  0
    7.0310    1.2240   22.7310 C   0  0  0  0  0  0  0  0  0  0  0  0
   11.8130   -1.3780   24.2970 C   0  0  0  0  0  0  0  0  0  0  0  0
    9.6470    2.4080   22.4210 C   0  0  0  0  0  0  0  0  0  0  0  0
    7.1450    2.5470   22.4190 C   0  0  0  0  0  0  0  0  0  0  0  0
   12.8210   -1.1590   25.3080 N   0  0  0  0  0  0  0  0  0  0  0  0
    8.5350    3.1850   22.2540 C   0  0  0  0  0  0  0  0  0  0  0  0
   13.8500   -2.5290   25.4360 S   0  0  0  0  0  0  0  0  0  0  0  0
   13.0800   -3.8660   26.0870 C   0  0  0  0  0  0  0  0  0  0  0  0
   14.8560   -2.2940   26.4210 O   0  0  0  0  0  0  0  0  0  0  0  0
   14.1360   -2.9250   24.0880 O   0  0  0  0  0  0  0  0  0  0  0  0
  1  2  2  3
  1  3  1  0
  3  4  1  0
  3  5  1  0
  4  6  1  0
  5  7  1  0
  6  8  1  0
  6  9  2  0
  7  9  1  0
  7 10  1  6
  8 11  2  0
  9 12  1  0
 10 13  2  0
 10 14  1  0
 11 15  1  0
 12 15  2  0
 13 16  1  0
 14 17  2  0
 15 18  1  0
 16 19  2  0
 17 19  1  0
 20 18  1  0
 20 21  1  0
 20 22  2  0
 20 23  2  0
M  END
