MIH-UNI-e573136b-13-nitrile
     RDKit          3D

 26 29  0  0  0  0  0  0  0  0999 V2000
    7.4100   -3.0190   19.9590 C   0  0  0  0  0  0  0  0  0  0  0  0
    6.8040   -2.5030   18.9090 N   0  0  0  0  0  0  0  0  0  0  0  0
    7.8790   -2.3090   21.2450 N   0  0  0  0  0  0  0  0  0  0  0  0
    7.9710   -2.9200   22.5770 C   0  0  0  0  0  0  0  0  0  0  0  0
    7.7460   -0.9000   21.5470 C   0  0  1  0  0  0  0  0  0  0  0  0
    7.4140   -2.0000   23.6750 C   0  0  0  0  0  0  0  0  0  0  0  0
    8.5730   -0.3490   22.5630 C   0  0  1  0  0  0  0  0  0  0  0  0
    8.0070   -0.1120   20.4830 N   0  0  0  0  0  0  0  0  0  0  0  0
    6.4980   -2.3800   24.8270 C   0  0  0  0  0  0  0  0  0  0  0  0
    7.7790   -0.6540   23.6040 C   0  0  0  0  0  0  0  0  0  0  0  0
   10.0070   -0.5530   22.5610 C   0  0  0  0  0  0  0  0  0  0  0  0
    6.8900    0.3780   19.9110 C   0  0  0  0  0  0  0  0  0  0  0  0
    6.0590   -1.3120   25.7590 C   0  0  0  0  0  0  0  0  0  0  0  0
    7.3650    0.3730   24.4760 C   0  0  0  0  0  0  0  0  0  0  0  0
   10.6180   -1.7310   22.1110 C   0  0  0  0  0  0  0  0  0  0  0  0
   10.8800    0.4760   23.0090 C   0  0  0  0  0  0  0  0  0  0  0  0
    6.7990    0.5550   18.4700 C   0  0  0  0  0  0  0  0  0  0  0  0
    5.6920    0.7930   20.4970 C   0  0  0  0  0  0  0  0  0  0  0  0
    6.5360    0.0890   25.5240 C   0  0  0  0  0  0  0  0  0  0  0  0
   12.0890   -1.8890   22.1080 C   0  0  0  0  0  0  0  0  0  0  0  0
   12.4190    0.4260   23.0530 C   0  0  0  0  0  0  0  0  0  0  0  0
    6.3300    0.8370   17.5180 N   0  0  0  0  0  0  0  0  0  0  0  0
    4.7000    1.3000   19.4240 C   0  0  0  0  0  0  0  0  0  0  0  0
    5.3820    0.7650   22.0060 C   0  0  0  0  0  0  0  0  0  0  0  0
   12.9530   -0.9040   22.5420 C   0  0  0  0  0  0  0  0  0  0  0  0
    5.1430    1.2780   17.9310 C   0  0  0  0  0  0  0  0  0  0  0  0
  1  2  2  3
  1  3  1  0
  3  4  1  0
  3  5  1  0
  4  6  1  0
  5  7  1  0
  5  8  1  6
  6  9  1  0
  6 10  2  0
  7 10  1  0
  7 11  1  1
  8 12  1  0
  9 13  2  0
 10 14  1  0
 11 15  2  0
 11 16  1  0
 12 17  2  0
 12 18  1  0
 13 19  1  0
 14 19  2  0
 15 20  1  0
 16 21  2  0
 17 22  1  0
 18 23  2  0
 18 24  1  0
 20 25  2  0
 21 25  1  0
 22 26  2  0
 23 26  1  0
M  END
