MIH-UNI-6b9ca91a-8
     RDKit          3D

 19 21  0  0  0  0  0  0  0  0999 V2000
   13.2500   -0.4770   23.5340 O   0  0  0  0  0  0  0  0  0  0  0  0
   12.4350    0.1830   22.9190 C   0  0  2  0  0  0  0  0  0  0  0  0
   12.4210    1.5910   23.0410 C   0  0  0  0  0  0  0  0  0  0  0  0
   11.1440   -0.2050   23.2880 O   0  0  0  0  0  0  0  0  0  0  0  0
   11.2380    2.3220   23.0300 C   0  0  2  0  0  0  0  0  0  0  0  0
   10.8290    0.5590   24.4050 C   0  0  1  0  0  0  0  0  0  0  0  0
   11.5140    3.7080   23.0090 C   0  0  0  0  0  0  0  0  0  0  0  0
   10.3270    1.8110   24.0010 C   0  0  0  0  0  0  0  0  0  0  0  0
   10.1210   -0.4590   25.3380 N   0  0  0  0  0  0  0  0  0  0  0  0
   10.6880    4.7790   23.6300 C   0  0  0  0  0  0  0  0  0  0  0  0
   12.7000    4.4290   22.3590 C   0  0  0  0  0  0  0  0  0  0  0  0
    9.4790   -1.7090   24.9490 C   0  0  0  0  0  0  0  0  0  0  0  0
   11.2400    6.1420   23.4370 C   0  0  0  0  0  0  0  0  0  0  0  0
   12.7120    6.1510   22.5330 S   0  0  0  0  0  0  0  0  0  0  0  0
    8.6510   -2.6540   25.9530 C   0  0  0  0  0  0  0  0  0  0  0  0
    9.5310   -2.2320   23.5810 C   0  0  0  0  0  0  0  0  0  0  0  0
    8.0330   -3.9030   25.4560 C   0  0  0  0  0  0  0  0  0  0  0  0
    8.9470   -3.4360   23.0090 N   0  0  0  0  0  0  0  0  0  0  0  0
    8.3580   -3.9550   24.0770 C   0  0  0  0  0  0  0  0  0  0  0  0
  2  1  1  1
  2  3  1  0
  2  4  1  0
  3  5  1  0
  4  6  1  0
  5  7  1  1
  5  8  1  0
  6  8  1  0
  6  9  1  6
  7 10  1  0
  7 11  2  0
  9 12  1  0
 10 13  2  0
 11 14  1  0
 13 14  1  0
 12 15  2  0
 12 16  1  0
 15 17  1  0
 16 18  2  0
 17 19  2  0
 18 19  1  0
M  END
