MIH-UNI-e573136b-1-nitrile
     RDKit          3D

 28 32  0  0  0  0  0  0  0  0999 V2000
    7.0140   -3.2820   19.5570 C   0  0  0  0  0  0  0  0  0  0  0  0
    6.0880   -3.0970   18.7200 N   0  0  0  0  0  0  0  0  0  0  0  0
    6.9190   -2.8880   20.8810 N   0  0  0  0  0  0  0  0  0  0  0  0
    6.9130   -3.8320   22.0000 C   0  0  0  0  0  0  0  0  0  0  0  0
    7.0910   -1.5810   21.3440 C   0  0  1  0  0  0  0  0  0  0  0  0
    7.6980   -3.2570   23.2230 C   0  0  0  0  0  0  0  0  0  0  0  0
    8.5090   -1.4500   21.8280 C   0  0  0  0  0  0  0  0  0  0  0  0
    6.5940   -0.4920   20.3780 C   0  0  0  0  0  0  0  0  0  0  0  0
    8.6420   -2.2280   23.0910 N   0  0  0  0  0  0  0  0  0  0  0  0
    6.9930   -0.5030   18.9310 C   0  0  0  0  0  0  0  0  0  0  0  0
    5.7400    0.6360   20.4950 C   0  0  0  0  0  0  0  0  0  0  0  0
   10.0120   -2.5050   23.5630 C   0  0  0  0  0  0  0  0  0  0  0  0
    6.4120    0.5210   18.2080 N   0  0  0  0  0  0  0  0  0  0  0  0
    5.6630    1.1920   19.0860 C   0  0  0  0  0  0  0  0  0  0  0  0
    5.0570    1.2650   21.4640 C   0  0  0  0  0  0  0  0  0  0  0  0
   10.9490   -1.5170   23.3190 C   0  0  0  0  0  0  0  0  0  0  0  0
    4.8660    2.2800   18.8590 N   0  0  0  0  0  0  0  0  0  0  0  0
    4.2670    2.4540   21.1540 C   0  0  0  0  0  0  0  0  0  0  0  0
   12.1180   -1.9460   22.6530 C   0  0  0  0  0  0  0  0  0  0  0  0
   10.6770   -0.1790   23.7290 C   0  0  0  0  0  0  0  0  0  0  0  0
    4.2050    2.9050   19.8890 C   0  0  0  0  0  0  0  0  0  0  0  0
   13.1490   -0.8870   22.3620 C   0  0  0  0  0  0  0  0  0  0  0  0
   11.6170    0.8410   23.4500 C   0  0  0  0  0  0  0  0  0  0  0  0
    9.4810    0.1700   24.4060 C   0  0  0  0  0  0  0  0  0  0  0  0
   12.9060    0.5220   22.7630 C   0  0  0  0  0  0  0  0  0  0  0  0
   11.4010    2.2870   23.8010 C   0  0  0  0  0  0  0  0  0  0  0  0
    9.2210    1.4900   24.7680 C   0  0  0  0  0  0  0  0  0  0  0  0
   10.2230    2.5870   24.4370 C   0  0  0  0  0  0  0  0  0  0  0  0
  1  2  2  3
  1  3  1  0
  3  4  1  0
  3  5  1  0
  4  6  1  0
  5  7  1  0
  5  8  1  6
  6  9  1  0
  7  9  1  0
  8 10  2  0
  8 11  1  0
  9 12  1  0
 10 13  1  0
 11 14  1  0
 13 14  2  0
 11 15  2  0
 12 16  1  0
 14 17  1  0
 15 18  1  0
 16 19  2  0
 16 20  1  0
 17 21  1  0
 18 21  2  0
 19 22  1  0
 20 23  2  0
 20 24  1  0
 22 25  2  0
 23 25  1  0
 23 26  1  0
 24 27  2  0
 26 28  2  0
 27 28  1  0
M  END
