MIH-UNI-e573136b-12-vinylsulfonamide
     RDKit          3D

 29 32  0  0  0  0  0  0  0  0999 V2000
    9.0860   -4.0650   20.5690 C   0  0  0  0  0  0  0  0  0  0  0  0
    7.9450   -4.7470   21.4200 C   0  0  0  0  0  0  0  0  0  0  0  0
    6.6760   -3.4680   21.6620 S   0  0  0  0  0  0  0  0  0  0  0  0
    5.1610   -3.9980   21.6070 O   0  0  0  0  0  0  0  0  0  0  0  0
    6.9920   -2.4920   20.6500 O   0  0  0  0  0  0  0  0  0  0  0  0
    7.5230   -2.8810   23.1450 N   0  0  0  0  0  0  0  0  0  0  0  0
    8.8980   -3.3710   23.4880 C   0  0  0  0  0  0  0  0  0  0  0  0
    7.3460   -1.5200   23.7080 C   0  0  0  0  0  0  0  0  0  0  0  0
   10.0930   -2.3230   23.3990 C   0  0  0  0  0  0  0  0  0  0  0  0
    8.4890   -0.4550   23.3900 C   0  0  1  0  0  0  0  0  0  0  0  0
   11.5930   -2.6400   23.3760 C   0  0  0  0  0  0  0  0  0  0  0  0
    9.8030   -0.9770   23.3260 C   0  0  0  0  0  0  0  0  0  0  0  0
    7.8940    0.0280   22.2970 C   0  0  0  0  0  0  0  0  0  0  0  0
   12.6700   -1.5900   23.2530 C   0  0  0  0  0  0  0  0  0  0  0  0
   10.7700    0.0220   23.1970 C   0  0  0  0  0  0  0  0  0  0  0  0
    7.0760    1.2250   22.3880 C   0  0  0  0  0  0  0  0  0  0  0  0
    8.0010   -0.5800   21.1060 C   0  0  0  0  0  0  0  0  0  0  0  0
   12.1470   -0.1930   23.1510 C   0  0  0  0  0  0  0  0  0  0  0  0
    6.4140    1.6980   21.2700 C   0  0  0  0  0  0  0  0  0  0  0  0
    7.2810   -0.0290   19.9170 C   0  0  0  0  0  0  0  0  0  0  0  0
    6.4940    1.1020   20.0440 C   0  0  0  0  0  0  0  0  0  0  0  0
    7.5140   -0.7900   18.6560 C   0  0  0  0  0  0  0  0  0  0  0  0
    5.8350    1.5790   18.9170 C   0  0  0  0  0  0  0  0  0  0  0  0
    6.9540   -0.3590   17.5020 C   0  0  0  0  0  0  0  0  0  0  0  0
    6.0580    0.8700   17.6160 C   0  0  0  0  0  0  0  0  0  0  0  0
    7.4690   -1.3570   16.1280 S   0  0  0  0  0  0  0  0  0  0  0  0
    8.2640   -0.1270   15.3010 N   0  0  0  0  0  0  0  0  0  0  0  0
    8.4350   -2.2850   16.6360 O   0  0  0  0  0  0  0  0  0  0  0  0
    6.4830   -1.8910   15.2520 O   0  0  0  0  0  0  0  0  0  0  0  0
  1  2  1  0
  3  2  1  0
  3  4  2  0
  3  5  2  0
  3  6  1  0
  6  7  1  0
  6  8  1  0
  7  9  1  0
  8 10  1  0
  9 11  1  0
  9 12  2  0
 10 12  1  0
 10 13  1  6
 11 14  2  0
 12 15  1  0
 13 16  2  0
 13 17  1  0
 14 18  1  0
 15 18  2  0
 16 19  1  0
 17 20  2  0
 19 21  2  0
 20 21  1  0
 20 22  1  0
 21 23  1  0
 22 24  2  0
 23 25  2  0
 24 25  1  0
 24 26  1  0
 26 27  1  0
 26 28  2  0
 26 29  2  0
M  END
