MIH-UNI-e573136b-14-bromoalkyne
     RDKit          3D

 28 32  0  0  0  0  0  0  0  0999 V2000
    7.4370   -2.5570   19.6850 C   0  0  0  0  0  0  0  0  0  0  0  0
    6.2700   -2.3800   18.6750 C   0  0  0  0  0  0  0  0  0  0  0  0
    7.5030   -1.6090   20.9920 N   0  0  0  0  0  0  0  0  0  0  0  0
    6.6920   -1.9180   22.1500 C   0  0  0  0  0  0  0  0  0  0  0  0
    8.6560   -0.6120   21.5080 C   0  0  2  0  0  0  0  0  0  0  0  0
    7.6410   -2.8190   22.8810 C   0  0  0  0  0  0  0  0  0  0  0  0
    9.1630   -0.9240   22.7960 C   0  0  1  0  0  0  0  0  0  0  0  0
    8.3050    0.9470   21.4820 C   0  0  0  0  0  0  0  0  0  0  0  0
    7.4800   -4.2320   23.3250 C   0  0  0  0  0  0  0  0  0  0  0  0
    8.8690   -2.2290   23.1500 C   0  0  0  0  0  0  0  0  0  0  0  0
   10.5320   -0.7400   22.7360 C   0  0  0  0  0  0  0  0  0  0  0  0
    8.8870    2.0390   22.4080 C   0  0  0  0  0  0  0  0  0  0  0  0
    8.6100   -4.9180   23.9950 C   0  0  0  0  0  0  0  0  0  0  0  0
    9.9460   -2.8280   23.7710 C   0  0  0  0  0  0  0  0  0  0  0  0
   11.4270   -1.6460   22.0200 C   0  0  0  0  0  0  0  0  0  0  0  0
   11.1180    0.5000   23.4580 C   0  0  0  0  0  0  0  0  0  0  0  0
    7.7270    2.6180   23.1490 C   0  0  0  0  0  0  0  0  0  0  0  0
   10.0330    2.8700   22.7500 C   0  0  0  0  0  0  0  0  0  0  0  0
    9.9000   -4.1380   24.2070 C   0  0  0  0  0  0  0  0  0  0  0  0
   12.7830   -1.4060   21.9690 C   0  0  0  0  0  0  0  0  0  0  0  0
   12.4210    0.6860   23.3750 C   0  0  0  0  0  0  0  0  0  0  0  0
    8.0290    3.7960   23.9410 N   0  0  0  0  0  0  0  0  0  0  0  0
    9.4560    4.0030   23.6140 C   0  0  0  0  0  0  0  0  0  0  0  0
   11.5740    2.9920   22.5620 C   0  0  0  0  0  0  0  0  0  0  0  0
   13.2640   -0.2940   22.6070 C   0  0  0  0  0  0  0  0  0  0  0  0
   10.2940    5.1380   24.0570 N   0  0  0  0  0  0  0  0  0  0  0  0
   12.3020    3.9950   23.0640 C   0  0  0  0  0  0  0  0  0  0  0  0
   11.6450    5.1230   23.8460 C   0  0  0  0  0  0  0  0  0  0  0  0
  1  2  2  3
  1  3  1  0
  3  4  1  0
  3  5  1  0
  4  6  1  0
  5  7  1  0
  5  8  1  1
  6  9  1  0
  6 10  2  0
  7 10  1  0
  7 11  1  6
  8 12  1  0
  9 13  2  0
 10 14  1  0
 11 15  2  0
 11 16  1  0
 12 17  2  0
 12 18  1  0
 13 19  1  0
 14 19  2  0
 15 20  1  0
 16 21  2  0
 17 22  1  0
 18 23  1  0
 22 23  2  0
 18 24  2  0
 20 25  2  0
 21 25  1  0
 23 26  1  0
 24 27  1  0
 26 28  1  0
 27 28  2  0
M  END
