MIH-UNI-e573136b-12-nitrile
     RDKit          3D

 26 29  0  0  0  0  0  0  0  0999 V2000
    7.6780   -3.6570   20.0720 C   0  0  0  0  0  0  0  0  0  0  0  0
    6.3970   -3.8690   19.7590 N   0  0  0  0  0  0  0  0  0  0  0  0
    8.2850   -2.9730   21.2620 N   0  0  0  0  0  0  0  0  0  0  0  0
    9.6850   -3.1860   21.5890 C   0  0  0  0  0  0  0  0  0  0  0  0
    7.6930   -2.8000   22.5990 C   0  0  0  0  0  0  0  0  0  0  0  0
   10.4590   -2.1740   22.4010 C   0  0  0  0  0  0  0  0  0  0  0  0
    8.4050   -1.6770   23.5210 C   0  0  1  0  0  0  0  0  0  0  0  0
   11.9490   -1.8760   22.2540 C   0  0  0  0  0  0  0  0  0  0  0  0
    9.7690   -1.4570   23.3670 C   0  0  0  0  0  0  0  0  0  0  0  0
    7.7980   -0.5640   23.0470 C   0  0  0  0  0  0  0  0  0  0  0  0
   12.5750   -0.8720   23.1310 C   0  0  0  0  0  0  0  0  0  0  0  0
   10.3720   -0.4870   24.2150 C   0  0  0  0  0  0  0  0  0  0  0  0
    7.6190    0.5980   23.8030 C   0  0  0  0  0  0  0  0  0  0  0  0
    7.3540   -0.6130   21.7560 C   0  0  0  0  0  0  0  0  0  0  0  0
   11.7040   -0.1880   24.1250 C   0  0  0  0  0  0  0  0  0  0  0  0
    6.9390    1.7780   23.2270 C   0  0  0  0  0  0  0  0  0  0  0  0
    6.6760    0.5640   21.1880 C   0  0  0  0  0  0  0  0  0  0  0  0
    6.4740    1.7240   21.9140 C   0  0  0  0  0  0  0  0  0  0  0  0
    6.3060    0.3130   19.9120 C   0  0  0  0  0  0  0  0  0  0  0  0
    5.8260    2.7660   21.3190 C   0  0  0  0  0  0  0  0  0  0  0  0
    5.6110    1.4590   19.3380 C   0  0  0  0  0  0  0  0  0  0  0  0
    5.3780    2.6060   19.9760 C   0  0  0  0  0  0  0  0  0  0  0  0
    5.0480    1.3090   17.7460 S   0  0  0  0  0  0  0  0  0  0  0  0
    4.0490    2.6430   17.8490 N   0  0  0  0  0  0  0  0  0  0  0  0
    6.1170    1.5770   16.8500 O   0  0  0  0  0  0  0  0  0  0  0  0
    4.3160    0.0810   17.7350 O   0  0  0  0  0  0  0  0  0  0  0  0
  1  2  2  3
  1  3  1  0
  3  4  1  0
  3  5  1  0
  4  6  1  0
  5  7  1  0
  6  8  1  0
  6  9  2  0
  7  9  1  0
  7 10  1  6
  8 11  2  0
  9 12  1  0
 10 13  2  0
 10 14  1  0
 11 15  1  0
 12 15  2  0
 13 16  1  0
 14 17  2  0
 16 18  2  0
 17 18  1  0
 17 19  1  0
 18 20  1  0
 19 21  2  0
 20 22  2  0
 21 22  1  0
 21 23  1  0
 23 24  1  0
 23 25  2  0
 23 26  2  0
M  END
