MIH-UNI-e573136b-15-chloroacetamide
     RDKit          3D

 24 26  0  0  0  0  0  0  0  0999 V2000
    8.0460   -5.1550   20.7800 C   0  0  0  0  0  0  0  0  0  0  0  0
    6.9360   -4.3150   21.1420 C   0  0  0  0  0  0  0  0  0  0  0  0
    5.9770   -4.2520   20.1550 O   0  0  0  0  0  0  0  0  0  0  0  0
    7.2610   -3.6710   22.5150 N   0  0  0  0  0  0  0  0  0  0  0  0
    7.4050   -4.2740   23.9140 C   0  0  0  0  0  0  0  0  0  0  0  0
    8.5510   -2.9570   22.4530 C   0  0  0  0  0  0  0  0  0  0  0  0
    7.1440   -3.1340   24.8730 C   0  0  0  0  0  0  0  0  0  0  0  0
    8.6470   -1.8580   23.3410 C   0  0  1  0  0  0  0  0  0  0  0  0
    6.2860   -3.1020   26.1100 C   0  0  0  0  0  0  0  0  0  0  0  0
    7.8250   -1.9160   24.5230 C   0  0  0  0  0  0  0  0  0  0  0  0
   10.0490   -1.3150   23.3840 C   0  0  0  0  0  0  0  0  0  0  0  0
    6.1510   -1.8630   26.9360 C   0  0  0  0  0  0  0  0  0  0  0  0
    7.7020   -0.7410   25.3020 C   0  0  0  0  0  0  0  0  0  0  0  0
   11.0790   -1.9150   22.6120 C   0  0  0  0  0  0  0  0  0  0  0  0
   10.4600   -0.2090   24.1360 C   0  0  0  0  0  0  0  0  0  0  0  0
    6.9130   -0.6430   26.4740 C   0  0  0  0  0  0  0  0  0  0  0  0
   12.4150   -1.5100   22.5400 C   0  0  0  0  0  0  0  0  0  0  0  0
   11.8890    0.2250   24.0540 C   0  0  0  0  0  0  0  0  0  0  0  0
    6.8740    0.5850   27.1400 N   0  0  0  0  0  0  0  0  0  0  0  0
   12.8090   -0.3720   23.3160 C   0  0  0  0  0  0  0  0  0  0  0  0
    6.0060    1.8060   26.3430 S   0  0  0  0  0  0  0  0  0  0  0  0
    5.5920    0.9890   24.9020 C   0  0  0  0  0  0  0  0  0  0  0  0
    4.7940    1.9720   27.1090 O   0  0  0  0  0  0  0  0  0  0  0  0
    6.8600    2.9230   26.0050 O   0  0  0  0  0  0  0  0  0  0  0  0
  1  2  1  0
  2  3  2  0
  2  4  1  0
  4  5  1  0
  4  6  1  0
  5  7  1  0
  6  8  1  0
  7  9  1  0
  7 10  2  0
  8 10  1  0
  8 11  1  1
  9 12  2  0
 10 13  1  0
 11 14  2  0
 11 15  1  0
 12 16  1  0
 13 16  2  0
 14 17  1  0
 15 18  2  0
 16 19  1  0
 17 20  2  0
 18 20  1  0
 21 19  1  0
 21 22  1  0
 21 23  2  0
 21 24  2  0
M  END
