MIK-MCD-9143301b-1-acrylamide
     RDKit          3D

 42 46  0  0  0  0  0  0  0  0999 V2000
    8.0810   -3.8400   20.2990 C   0  0  0  0  0  0  0  0  0  0  0  0
    6.6960   -3.3630   19.9880 C   0  0  0  0  0  0  0  0  0  0  0  0
    5.7450   -4.5140   20.1920 C   0  0  0  0  0  0  0  0  0  0  0  0
    5.0690   -5.3770   20.6530 O   0  0  0  0  0  0  0  0  0  0  0  0
    5.9960   -4.4150   21.5810 N   0  0  0  0  0  0  0  0  0  0  0  0
    6.5140   -5.6170   22.2400 C   0  0  0  0  0  0  0  0  0  0  0  0
    4.9400   -3.9470   22.4940 C   0  0  1  0  0  0  0  0  0  0  0  0
    6.5140   -5.4510   23.7710 C   0  0  0  0  0  0  0  0  0  0  0  0
    4.2950   -5.1340   23.2510 C   0  0  0  0  0  0  0  0  0  0  0  0
    5.3470   -2.7020   23.3440 C   0  0  1  0  0  0  0  0  0  0  0  0
    5.1690   -5.7720   24.2440 N   0  0  0  0  0  0  0  0  0  0  0  0
    6.4330   -2.7830   24.4700 C   0  0  0  0  0  0  0  0  0  0  0  0
    5.8940   -1.6730   22.3710 C   0  0  0  0  0  0  0  0  0  0  0  0
    4.6990   -5.5130   25.8550 S   0  0  0  0  0  0  0  0  0  0  0  0
    7.2980   -1.4910   24.4790 C   0  0  0  0  0  0  0  0  0  0  0  0
    7.3560   -2.0290   22.0950 C   0  0  0  0  0  0  0  0  0  0  0  0
    5.8050   -4.9810   26.6160 O   0  0  0  0  0  0  0  0  0  0  0  0
    3.9890   -6.7020   26.2820 O   0  0  0  0  0  0  0  0  0  0  0  0
    3.4750   -4.2860   25.8680 C   0  0  0  0  0  0  0  0  0  0  0  0
    8.1940   -1.4930   23.2340 C   0  0  1  0  0  0  0  0  0  0  0  0
    2.0410   -4.5820   25.7430 C   0  0  0  0  0  0  0  0  0  0  0  0
    3.8710   -2.9540   25.9990 C   0  0  0  0  0  0  0  0  0  0  0  0
    8.8460   -0.2220   22.8080 N   0  0  0  0  0  0  0  0  0  0  0  0
    0.9540   -3.6310   25.7400 C   0  0  0  0  0  0  0  0  0  0  0  0
    2.8200   -1.8650   26.0080 C   0  0  0  0  0  0  0  0  0  0  0  0
    8.3480    0.4660   21.6270 C   0  0  0  0  0  0  0  0  0  0  0  0
   10.2550   -0.1450   22.8850 C   0  0  0  0  0  0  0  0  0  0  0  0
    1.3750   -2.3230   25.8730 C   0  0  0  0  0  0  0  0  0  0  0  0
    3.1370   -0.5670   26.1300 F   0  0  0  0  0  0  0  0  0  0  0  0
    8.8730    1.4860   21.1590 O   0  0  0  0  0  0  0  0  0  0  0  0
    7.2290   -0.1150   21.0790 N   0  0  0  0  0  0  0  0  0  0  0  0
   11.1810   -1.1770   22.3200 C   0  0  0  0  0  0  0  0  0  0  0  0
   10.8140    0.9510   23.5040 C   0  0  0  0  0  0  0  0  0  0  0  0
    6.5330    0.3820   19.9890 C   0  0  0  0  0  0  0  0  0  0  0  0
   12.5540   -0.9950   22.4290 C   0  0  0  0  0  0  0  0  0  0  0  0
   12.1770    1.0840   23.5780 C   0  0  0  0  0  0  0  0  0  0  0  0
    5.3890    1.1370   20.2370 C   0  0  0  0  0  0  0  0  0  0  0  0
    6.9080    0.1770   18.6830 C   0  0  0  0  0  0  0  0  0  0  0  0
   13.0290    0.1380   23.0540 C   0  0  0  0  0  0  0  0  0  0  0  0
    4.6870    1.6580   19.1520 C   0  0  0  0  0  0  0  0  0  0  0  0
    6.2460    0.6760   17.6230 N   0  0  0  0  0  0  0  0  0  0  0  0
    5.1550    1.4080   17.8730 C   0  0  0  0  0  0  0  0  0  0  0  0
  1  2  1  0
  2  3  1  0
  3  4  2  0
  3  5  1  0
  5  6  1  0
  5  7  1  0
  6  8  1  0
  7  9  1  1
  7 10  1  0
  8 11  1  0
  9 11  1  0
 10 12  1  1
 10 13  1  0
 11 14  1  0
 12 15  1  0
 13 16  1  0
 14 17  2  0
 14 18  2  0
 14 19  1  0
 15 20  1  0
 16 20  1  0
 19 21  2  0
 19 22  1  0
 20 23  1  6
 21 24  1  0
 22 25  2  0
 23 26  1  0
 23 27  1  0
 24 28  2  0
 25 28  1  0
 25 29  1  0
 26 30  2  0
 26 31  1  0
 27 32  2  0
 27 33  1  0
 31 34  1  0
 32 35  1  0
 33 36  2  0
 34 37  2  0
 34 38  1  0
 35 39  2  0
 36 39  1  0
 37 40  1  0
 38 41  2  0
 40 42  2  0
 41 42  1  0
M  END
