MIK-MCD-8542a490-1-vinylsulfonamide
     RDKit          3D

 26 28  0  0  0  0  0  0  0  0999 V2000
    7.2860   -5.1200   20.6120 C   0  0  0  0  0  0  0  0  0  0  0  0
    5.8150   -4.7870   20.6800 C   0  0  0  0  0  0  0  0  0  0  0  0
    5.6980   -3.2330   21.4800 S   0  0  0  0  0  0  0  0  0  0  0  0
    4.3740   -3.1110   21.9600 O   0  0  0  0  0  0  0  0  0  0  0  0
    6.2920   -2.2470   20.6180 O   0  0  0  0  0  0  0  0  0  0  0  0
    6.6200   -3.4340   22.8670 N   0  0  0  0  0  0  0  0  0  0  0  0
    6.1670   -2.5340   23.8940 C   0  0  0  0  0  0  0  0  0  0  0  0
    6.4360   -4.6670   23.5790 C   0  0  1  0  0  0  0  0  0  0  0  0
    5.5920   -3.2780   24.9640 C   0  0  0  0  0  0  0  0  0  0  0  0
    5.0580   -5.2110   23.5600 C   0  0  0  0  0  0  0  0  0  0  0  0
    7.5140   -5.5840   23.4460 C   0  0  0  0  0  0  0  0  0  0  0  0
    4.5810   -4.3420   24.6510 N   0  0  0  0  0  0  0  0  0  0  0  0
    8.6340   -5.2320   24.3120 N   0  0  0  0  0  0  0  0  0  0  0  0
    7.5610   -6.9350   22.4420 S   0  0  0  0  0  0  0  0  0  0  0  0
    3.9820   -5.1630   25.9990 S   0  0  0  0  0  0  0  0  0  0  0  0
    9.5750   -6.1350   24.1150 C   0  0  0  0  0  0  0  0  0  0  0  0
    9.1200   -7.1540   23.0860 C   0  0  0  0  0  0  0  0  0  0  0  0
    4.8830   -4.9750   27.1120 O   0  0  0  0  0  0  0  0  0  0  0  0
    3.4650   -6.4500   25.5830 O   0  0  0  0  0  0  0  0  0  0  0  0
    2.6900   -3.9930   26.0940 C   0  0  0  0  0  0  0  0  0  0  0  0
    1.3610   -4.3250   26.0640 C   0  0  0  0  0  0  0  0  0  0  0  0
    3.0380   -2.6350   26.1900 C   0  0  0  0  0  0  0  0  0  0  0  0
    0.3160   -3.2250   26.1320 C   0  0  0  0  0  0  0  0  0  0  0  0
    2.0950   -1.5990   26.2540 C   0  0  0  0  0  0  0  0  0  0  0  0
    0.7240   -1.8900   26.2250 C   0  0  0  0  0  0  0  0  0  0  0  0
    2.5160   -0.3300   26.3410 F   0  0  0  0  0  0  0  0  0  0  0  0
  1  2  1  0
  3  2  1  0
  3  4  2  0
  3  5  2  0
  3  6  1  0
  6  7  1  0
  6  8  1  0
  7  9  1  0
  8 10  1  0
  8 11  1  6
  9 12  1  0
 10 12  1  0
 11 13  2  0
 11 14  1  0
 12 15  1  0
 13 16  1  0
 14 17  1  0
 16 17  2  0
 15 18  2  0
 15 19  2  0
 15 20  1  0
 20 21  2  0
 20 22  1  0
 21 23  1  0
 22 24  2  0
 23 25  2  0
 24 25  1  0
 24 26  1  0
M  END
