MUS-SCH-c2f96c06-8
     RDKit          3D

 21 23  0  0  0  0  0  0  0  0999 V2000
    3.2400    0.1480   22.0980 O   0  0  0  0  0  0  0  0  0  0  0  0
    4.5000    0.7830   21.8750 C   0  0  0  0  0  0  0  0  0  0  0  0
    4.9970    0.5300   20.4830 C   0  0  0  0  0  0  0  0  0  0  0  0
    4.6660    1.4130   19.4540 C   0  0  0  0  0  0  0  0  0  0  0  0
    5.8060   -0.5820   20.1820 C   0  0  0  0  0  0  0  0  0  0  0  0
    5.2110    1.1290   18.0710 C   0  0  0  0  0  0  0  0  0  0  0  0
    6.2540   -0.7370   18.8410 C   0  0  0  0  0  0  0  0  0  0  0  0
    6.1020   -1.4540   21.2520 C   0  0  0  0  0  0  0  0  0  0  0  0
    5.9850    0.0780   17.8010 N   0  0  0  0  0  0  0  0  0  0  0  0
    5.1350   -2.0340   22.0350 N   0  0  0  0  0  0  0  0  0  0  0  0
    7.3470   -1.8590   21.6870 C   0  0  0  0  0  0  0  0  0  0  0  0
    5.7690   -2.7700   22.9170 C   0  0  0  0  0  0  0  0  0  0  0  0
    7.1110   -2.6970   22.7500 N   0  0  0  0  0  0  0  0  0  0  0  0
    8.7030   -1.5640   21.2200 C   0  0  0  0  0  0  0  0  0  0  0  0
    9.3260   -0.5260   21.9220 C   0  0  0  0  0  0  0  0  0  0  0  0
    8.8900    0.7780   21.8900 N   0  0  0  0  0  0  0  0  0  0  0  0
   10.4320   -0.5290   22.7390 C   0  0  0  0  0  0  0  0  0  0  0  0
    9.7370    1.5050   22.6700 C   0  0  0  0  0  0  0  0  0  0  0  0
   10.6710    0.7450   23.1900 N   0  0  0  0  0  0  0  0  0  0  0  0
   11.3170   -1.6720   23.1430 C   0  0  0  0  0  0  0  0  0  0  0  0
   12.9170   -1.4890   22.3840 Cl  0  0  0  0  0  0  0  0  0  0  0  0
  1  2  1  0
  2  3  1  0
  3  4  2  0
  3  5  1  0
  4  6  1  0
  5  7  2  0
  5  8  1  0
  6  9  2  0
  7  9  1  0
  8 10  1  0
  8 11  2  0
 10 12  2  0
 11 13  1  0
 12 13  1  0
 11 14  1  0
 14 15  1  0
 15 16  1  0
 15 17  2  0
 16 18  1  0
 17 19  1  0
 18 19  2  0
 17 20  1  0
 20 21  1  0
M  END
