MUS-SCH-c2f96c06-4
     RDKit          3D

 21 23  0  0  0  0  0  0  0  0999 V2000
    8.2480   -2.7260   17.6300 O   0  0  0  0  0  0  0  0  0  0  0  0
    7.4520   -1.7530   18.2710 C   0  0  0  0  0  0  0  0  0  0  0  0
    7.2510   -1.9910   19.6350 C   0  0  0  0  0  0  0  0  0  0  0  0
    7.8630   -2.9620   20.3830 C   0  0  0  0  0  0  0  0  0  0  0  0
    6.3900   -1.2140   20.2960 C   0  0  0  0  0  0  0  0  0  0  0  0
    7.5980   -3.1580   21.7440 C   0  0  0  0  0  0  0  0  0  0  0  0
    6.1560   -1.4560   21.6660 C   0  0  0  0  0  0  0  0  0  0  0  0
    5.7400   -0.1910   19.7120 C   0  0  0  0  0  0  0  0  0  0  0  0
    6.7310   -2.4130   22.4190 N   0  0  0  0  0  0  0  0  0  0  0  0
    5.1110    0.5000   20.6510 C   0  0  0  0  0  0  0  0  0  0  0  0
    5.7350    0.1000   18.3840 N   0  0  0  0  0  0  0  0  0  0  0  0
    4.4110    1.5690   20.3410 C   0  0  0  0  0  0  0  0  0  0  0  0
    5.0140    1.1990   18.0680 C   0  0  0  0  0  0  0  0  0  0  0  0
    3.7790    2.2390   21.5030 C   0  0  0  0  0  0  0  0  0  0  0  0
    4.3370    1.9620   19.0090 C   0  0  0  0  0  0  0  0  0  0  0  0
    4.6670    2.0740   22.7500 C   0  0  0  0  0  0  0  0  0  0  0  0
    6.1320    2.1840   22.4650 C   0  0  0  0  0  0  0  0  0  0  0  0
    6.8310    3.2520   21.8500 C   0  0  0  0  0  0  0  0  0  0  0  0
    7.1270    1.2650   22.7440 C   0  0  0  0  0  0  0  0  0  0  0  0
    8.1460    3.0240   21.7520 N   0  0  0  0  0  0  0  0  0  0  0  0
    8.3010    1.8060   22.3040 N   0  0  0  0  0  0  0  0  0  0  0  0
  1  2  1  0
  2  3  1  0
  3  4  2  0
  3  5  1  0
  4  6  1  0
  5  7  2  0
  5  8  1  0
  6  9  2  0
  7  9  1  0
  8 10  2  0
  8 11  1  0
 10 12  1  0
 11 13  2  0
 12 14  1  0
 12 15  2  0
 13 15  1  0
 14 16  1  0
 16 17  1  0
 17 18  1  0
 17 19  2  0
 18 20  2  0
 19 21  1  0
 20 21  1  0
M  END
