MUS-SCH-c2f96c06-2
     RDKit          3D

 25 27  0  0  0  0  0  0  0  0999 V2000
    3.5780    0.8240   27.7260 O   0  0  0  0  0  0  0  0  0  0  0  0
    4.1130    1.7880   27.1860 C   0  0  0  0  0  0  0  0  0  0  0  0
    5.4360    2.0030   27.3690 O   0  0  0  0  0  0  0  0  0  0  0  0
    3.4450    2.7660   26.3280 C   0  0  0  0  0  0  0  0  0  0  0  0
    2.5750    3.9560   26.7910 C   0  0  0  0  0  0  0  0  0  0  0  0
    3.4050    2.8970   24.8980 C   0  0  0  0  0  0  0  0  0  0  0  0
    2.1070    4.6660   25.6990 N   0  0  0  0  0  0  0  0  0  0  0  0
    2.5530    4.1070   24.5380 C   0  0  0  0  0  0  0  0  0  0  0  0
    3.9700    2.1740   23.6650 C   0  0  0  0  0  0  0  0  0  0  0  0
    2.0950    4.8260   23.0670 Cl  0  0  0  0  0  0  0  0  0  0  0  0
    5.1580    3.0780   23.3140 C   0  0  0  0  0  0  0  0  0  0  0  0
    6.0430    2.2670   22.4330 C   0  0  0  0  0  0  0  0  0  0  0  0
    7.5630    2.2150   22.6350 C   0  0  0  0  0  0  0  0  0  0  0  0
    5.5220    1.5350   21.4170 C   0  0  0  0  0  0  0  0  0  0  0  0
    8.4190    1.4820   21.8570 C   0  0  0  0  0  0  0  0  0  0  0  0
    6.4370    0.8490   20.7290 C   0  0  0  0  0  0  0  0  0  0  0  0
    7.7580    0.7680   20.8530 N   0  0  0  0  0  0  0  0  0  0  0  0
    6.1890    0.0530   19.7110 C   0  0  0  0  0  0  0  0  0  0  0  0
    6.5400    0.7420   18.5070 C   0  0  0  0  0  0  0  0  0  0  0  0
    5.7250   -1.2180   19.8310 C   0  0  0  0  0  0  0  0  0  0  0  0
    6.4840    0.2230   17.3460 N   0  0  0  0  0  0  0  0  0  0  0  0
    5.6430   -1.8370   18.6390 C   0  0  0  0  0  0  0  0  0  0  0  0
    5.4070   -1.7970   21.0710 C   0  0  0  0  0  0  0  0  0  0  0  0
    6.0670   -1.0260   17.4240 C   0  0  0  0  0  0  0  0  0  0  0  0
    5.1650   -3.2190   21.0020 O   0  0  0  0  0  0  0  0  0  0  0  0
  1  2  2  0
  2  3  1  0
  2  4  1  0
  4  5  2  0
  4  6  1  0
  5  7  1  0
  6  8  2  0
  7  8  1  0
  6  9  1  0
  8 10  1  0
  9 11  1  0
 11 12  1  0
 12 13  2  0
 12 14  1  0
 13 15  1  0
 14 16  2  0
 15 17  2  0
 16 17  1  0
 16 18  1  0
 18 19  2  0
 18 20  1  0
 19 21  1  0
 20 22  2  0
 20 23  1  0
 21 24  2  0
 22 24  1  0
 23 25  1  0
M  END
