NAA-THE-6df3c070-1
     RDKit          3D

 12 12  0  0  0  0  0  0  0  0999 V2000
   13.3710   -0.0010   22.8730 O   0  0  0  0  0  0  0  0  0  0  0  0
   12.5330    0.4970   23.5990 C   0  0  0  0  0  0  0  0  0  0  0  0
   12.1990   -0.1240   24.7410 O   0  0  0  0  0  0  0  0  0  0  0  0
   11.7650    1.7920   23.3260 C   0  0  0  0  0  0  0  0  0  0  0  0
   10.3050    1.7990   23.7390 C   0  0  0  0  0  0  0  0  0  0  0  0
   12.3320    2.9050   22.7220 C   0  0  0  0  0  0  0  0  0  0  0  0
    9.5740    3.1170   23.3520 C   0  0  1  0  0  0  0  0  0  0  0  0
   11.9620    4.3400   23.0930 C   0  0  2  0  0  0  0  0  0  0  0  0
    8.4800    3.2930   24.2540 O   0  0  0  0  0  0  0  0  0  0  0  0
   10.4320    4.4110   23.3410 C   0  0  2  0  0  0  0  0  0  0  0  0
   12.2800    5.1810   21.9750 O   0  0  0  0  0  0  0  0  0  0  0  0
   10.1360    5.2100   24.5010 O   0  0  0  0  0  0  0  0  0  0  0  0
  1  2  2  0
  2  3  1  0
  2  4  1  0
  4  5  2  0
  4  6  1  0
  5  7  1  0
  6  8  1  0
  7  9  1  1
  7 10  1  0
  8 10  1  0
  8 11  1  6
 10 12  1  1
M  END
