NAU-LAT-f723e322-4-vinylsulfonamide
     RDKit          3D

 21 22  0  0  0  0  0  0  0  0999 V2000
    7.6460   -4.2880   20.4890 C   0  0  0  0  0  0  0  0  0  0  0  0
    7.0240   -4.1540   21.8500 C   0  0  0  0  0  0  0  0  0  0  0  0
    5.5810   -3.1660   21.8300 S   0  0  0  0  0  0  0  0  0  0  0  0
    4.4570   -3.9060   22.3680 O   0  0  0  0  0  0  0  0  0  0  0  0
    5.4450   -2.6660   20.4810 O   0  0  0  0  0  0  0  0  0  0  0  0
    6.0200   -1.9130   22.8660 N   0  0  0  0  0  0  0  0  0  0  0  0
    5.1270   -0.7500   22.8740 C   0  0  0  0  0  0  0  0  0  0  0  0
    7.4990   -1.5400   22.9150 C   0  0  1  0  0  0  0  0  0  0  0  0
    5.7110    0.4090   22.4280 C   0  0  0  0  0  0  0  0  0  0  0  0
    7.7800   -0.5570   21.6990 C   0  0  0  0  0  0  0  0  0  0  0  0
    7.9850   -1.1590   24.2190 C   0  0  0  0  0  0  0  0  0  0  0  0
    6.6330    0.1570   21.2940 N   0  0  0  0  0  0  0  0  0  0  0  0
    8.9580   -1.8270   23.3170 C   0  0  0  0  0  0  0  0  0  0  0  0
    6.9250   -1.0200   23.7630 C   0  0  0  0  0  0  0  0  0  0  0  0
    5.9100   -0.2530   19.7070 S   0  0  0  0  0  0  0  0  0  0  0  0
    9.2980   -2.5070   21.9050 C   0  0  0  0  0  0  0  0  0  0  0  0
    8.5060   -1.4630   23.8670 C   0  0  0  0  0  0  0  0  0  0  0  0
    6.4590    1.1000   18.7000 C   0  0  0  0  0  0  0  0  0  0  0  0
    6.5130   -1.4790   19.2440 O   0  0  0  0  0  0  0  0  0  0  0  0
    4.4780   -0.1140   19.8580 O   0  0  0  0  0  0  0  0  0  0  0  0
    9.7800   -2.1510   23.1410 C   0  0  0  0  0  0  0  0  0  0  0  0
  1  2  1  0
  3  2  1  0
  3  4  2  0
  3  5  2  0
  3  6  1  0
  6  7  1  0
  6  8  1  0
  7  9  1  0
  8 10  1  0
  8 11  1  1
  9 12  1  0
 10 12  1  0
 11 13  2  0
 11 14  1  0
 12 15  1  0
 13 16  1  0
 14 17  2  0
 15 18  1  0
 15 19  2  0
 15 20  2  0
 16 21  2  0
 17 21  1  0
M  END
