NAU-LAT-81109c57-8
     RDKit          3D

 18 19  0  0  0  0  0  0  0  0999 V2000
    7.3580    7.2360   24.4310 N   0  0  0  0  0  0  0  0  0  0  0  0
    8.1930    7.7170   23.3320 C   0  0  0  0  0  0  0  0  0  0  0  0
    9.0200    6.6270   22.6550 C   0  0  0  0  0  0  0  0  0  0  0  0
   10.2360    6.1720   23.4440 C   0  0  0  0  0  0  0  0  0  0  0  0
   10.3550    6.2840   24.6610 O   0  0  0  0  0  0  0  0  0  0  0  0
   11.2000    5.6140   22.6330 N   0  0  0  0  0  0  0  0  0  0  0  0
   12.3770    4.9740   23.2090 C   0  0  0  0  0  0  0  0  0  0  0  0
   12.6550    3.5930   22.6100 C   0  0  0  0  0  0  0  0  0  0  0  0
   11.8350    2.5590   23.0960 C   0  0  0  0  0  0  0  0  0  0  0  0
   10.5090    2.8390   23.7940 C   0  0  0  0  0  0  0  0  0  0  0  0
   11.9520    1.1260   23.0810 C   0  0  0  0  0  0  0  0  0  0  0  0
    9.9880    1.6250   24.1120 N   0  0  0  0  0  0  0  0  0  0  0  0
   10.8030    0.5800   23.7020 C   0  0  0  0  0  0  0  0  0  0  0  0
   12.9070    0.2490   22.5980 C   0  0  0  0  0  0  0  0  0  0  0  0
   10.4440   -0.9220   23.9200 C   0  0  0  0  0  0  0  0  0  0  0  0
   12.6630   -1.2160   22.7310 C   0  0  0  0  0  0  0  0  0  0  0  0
   11.5620   -1.7790   23.3240 C   0  0  0  0  0  0  0  0  0  0  0  0
   13.5680   -2.0420   22.2410 F   0  0  0  0  0  0  0  0  0  0  0  0
  1  2  1  0
  2  3  1  0
  3  4  1  0
  4  5  2  0
  4  6  1  0
  6  7  1  0
  7  8  1  0
  8  9  1  0
  9 10  2  0
  9 11  1  0
 10 12  1  0
 11 13  2  0
 12 13  1  0
 11 14  1  0
 13 15  1  0
 14 16  2  0
 15 17  2  0
 16 17  1  0
 16 18  1  0
M  END
