NAU-LAT-f723e322-1-nitrile
     RDKit          3D

 25 27  0  0  0  0  0  0  0  0999 V2000
    6.7250   -4.6480   20.3790 C   0  0  0  0  0  0  0  0  0  0  0  0
    6.1050   -3.7670   19.6730 N   0  0  0  0  0  0  0  0  0  0  0  0
    6.4760   -4.8290   21.7250 N   0  0  0  0  0  0  0  0  0  0  0  0
    7.3200   -4.2640   22.7750 C   0  0  0  0  0  0  0  0  0  0  0  0
    5.7270   -6.0210   22.1880 C   0  0  0  0  0  0  0  0  0  0  0  0
    6.6070   -4.1110   23.9580 C   0  0  0  0  0  0  0  0  0  0  0  0
    4.9830   -5.7460   23.3540 C   0  0  0  0  0  0  0  0  0  0  0  0
    5.8620   -5.3160   24.3880 N   0  0  0  0  0  0  0  0  0  0  0  0
    5.2440   -5.2810   25.7320 C   0  0  0  0  0  0  0  0  0  0  0  0
    4.2210   -4.3410   25.8870 C   0  0  0  0  0  0  0  0  0  0  0  0
    4.4040   -2.9490   26.0930 C   0  0  0  0  0  0  0  0  0  0  0  0
    2.8540   -4.7510   25.8490 C   0  0  0  0  0  0  0  0  0  0  0  0
    3.2360   -1.9690   26.2560 C   0  0  0  0  0  0  0  0  0  0  0  0
    1.7940   -3.8590   25.9990 C   0  0  0  0  0  0  0  0  0  0  0  0
    2.2060   -6.0100   25.6740 N   0  0  0  0  0  0  0  0  0  0  0  0
    3.4450   -0.6590   26.4510 F   0  0  0  0  0  0  0  0  0  0  0  0
    1.9570   -2.4990   26.1960 C   0  0  0  0  0  0  0  0  0  0  0  0
    0.5030   -4.5800   25.9200 C   0  0  0  0  0  0  0  0  0  0  0  0
    0.8000   -5.9170   25.7160 C   0  0  0  0  0  0  0  0  0  0  0  0
   -0.8560   -3.8800   26.0610 C   0  0  0  0  0  0  0  0  0  0  0  0
   -1.4030   -3.5220   24.6540 C   0  0  0  0  0  0  0  0  0  0  0  0
   -1.7710   -4.7670   23.9620 N   0  0  0  0  0  0  0  0  0  0  0  0
   -1.7430   -4.7650   22.5770 C   0  0  0  0  0  0  0  0  0  0  0  0
   -0.7470   -5.6710   21.9000 C   0  0  0  0  0  0  0  0  0  0  0  0
   -2.4980   -4.0580   21.9060 O   0  0  0  0  0  0  0  0  0  0  0  0
  1  2  2  3
  1  3  1  0
  3  4  1  0
  3  5  1  0
  4  6  1  0
  5  7  1  0
  6  8  1  0
  7  8  1  0
  8  9  1  0
  9 10  1  0
 10 11  2  0
 10 12  1  0
 11 13  1  0
 12 14  2  0
 12 15  1  0
 13 16  1  0
 13 17  2  0
 14 17  1  0
 14 18  1  0
 15 19  1  0
 18 19  2  0
 18 20  1  0
 20 21  1  0
 21 22  1  0
 22 23  1  0
 23 24  1  0
 23 25  2  0
M  END
