NAU-LAT-81109c57-5
     RDKit          3D

 24 26  0  0  0  0  0  0  0  0999 V2000
    9.0520    6.6220   22.5840 C   0  0  0  0  0  0  0  0  0  0  0  0
   10.2490    6.1650   23.3920 C   0  0  0  0  0  0  0  0  0  0  0  0
   10.3070    6.2960   24.6140 O   0  0  0  0  0  0  0  0  0  0  0  0
   11.2350    5.6000   22.6300 N   0  0  0  0  0  0  0  0  0  0  0  0
   12.4130    4.9500   23.2570 C   0  0  0  0  0  0  0  0  0  0  0  0
   12.6200    3.6390   22.8060 C   0  0  0  0  0  0  0  0  0  0  0  0
   11.7460    2.5920   23.1310 C   0  0  0  0  0  0  0  0  0  0  0  0
   10.4120    2.8300   23.7660 C   0  0  0  0  0  0  0  0  0  0  0  0
   11.8390    1.1680   22.9530 C   0  0  0  0  0  0  0  0  0  0  0  0
    9.8190    1.6070   23.8970 N   0  0  0  0  0  0  0  0  0  0  0  0
   10.6380    0.6050   23.4030 C   0  0  0  0  0  0  0  0  0  0  0  0
   12.8060    0.3040   22.4490 C   0  0  0  0  0  0  0  0  0  0  0  0
   10.3550   -0.9060   23.3140 C   0  0  0  0  0  0  0  0  0  0  0  0
   12.5590   -1.0730   22.3420 C   0  0  0  0  0  0  0  0  0  0  0  0
    9.1530   -1.3740   23.7780 O   0  0  0  0  0  0  0  0  0  0  0  0
   11.3720   -1.6630   22.7490 C   0  0  0  0  0  0  0  0  0  0  0  0
   13.4960   -1.8540   21.8240 F   0  0  0  0  0  0  0  0  0  0  0  0
    8.6940   -2.6280   23.2670 C   0  0  0  0  0  0  0  0  0  0  0  0
    8.4220   -3.5130   24.3280 C   0  0  0  0  0  0  0  0  0  0  0  0
    9.4470   -4.3200   24.8240 C   0  0  0  0  0  0  0  0  0  0  0  0
    7.1470   -3.6250   24.9130 C   0  0  0  0  0  0  0  0  0  0  0  0
    9.2160   -5.2090   25.8560 C   0  0  0  0  0  0  0  0  0  0  0  0
    6.9030   -4.5220   25.9640 C   0  0  0  0  0  0  0  0  0  0  0  0
    7.9310   -5.3210   26.4440 C   0  0  0  0  0  0  0  0  0  0  0  0
  1  2  1  0
  2  3  2  0
  2  4  1  0
  4  5  1  0
  5  6  1  0
  6  7  1  0
  7  8  2  0
  7  9  1  0
  8 10  1  0
  9 11  2  0
 10 11  1  0
  9 12  1  0
 11 13  1  0
 12 14  2  0
 13 15  1  0
 13 16  2  0
 14 16  1  0
 14 17  1  0
 15 18  1  0
 18 19  1  0
 19 20  2  0
 19 21  1  0
 20 22  1  0
 21 23  2  0
 22 24  2  0
 23 24  1  0
M  END
