NAU-LAT-f723e322-2-nitrile
     RDKit          3D

 27 29  0  0  0  0  0  0  0  0999 V2000
    7.3020   -3.1860   19.4310 C   0  0  0  0  0  0  0  0  0  0  0  0
    7.5180   -1.8530   19.2520 N   0  0  0  0  0  0  0  0  0  0  0  0
    6.0970   -3.7200   20.2260 C   0  0  0  0  0  0  0  0  0  0  0  0
    5.5460   -4.7830   19.9760 O   0  0  0  0  0  0  0  0  0  0  0  0
    5.5890   -2.9240   21.2550 N   0  0  0  0  0  0  0  0  0  0  0  0
    5.2930   -3.3850   22.4580 C   0  0  0  0  0  0  0  0  0  0  0  0
    5.7690   -1.5230   21.2000 C   0  0  0  0  0  0  0  0  0  0  0  0
    5.6950   -2.6300   23.5390 C   0  0  0  0  0  0  0  0  0  0  0  0
    6.6430   -1.0180   22.1490 C   0  0  0  0  0  0  0  0  0  0  0  0
    6.8710   -2.0290   23.0630 N   0  0  0  0  0  0  0  0  0  0  0  0
    7.9020   -1.6510   24.0210 C   0  0  0  0  0  0  0  0  0  0  0  0
    8.0540   -2.6220   25.0160 C   0  0  0  0  0  0  0  0  0  0  0  0
    7.5910   -2.3040   26.4310 C   0  0  0  0  0  0  0  0  0  0  0  0
    8.6130   -3.9110   24.8460 C   0  0  0  0  0  0  0  0  0  0  0  0
    7.7000   -3.1900   27.5030 C   0  0  0  0  0  0  0  0  0  0  0  0
    8.7410   -4.7890   25.9150 C   0  0  0  0  0  0  0  0  0  0  0  0
    9.1470   -4.6500   23.7580 N   0  0  0  0  0  0  0  0  0  0  0  0
    7.2670   -2.8510   28.7200 F   0  0  0  0  0  0  0  0  0  0  0  0
    8.3300   -4.5370   27.2220 C   0  0  0  0  0  0  0  0  0  0  0  0
    9.3800   -6.0620   25.5350 C   0  0  0  0  0  0  0  0  0  0  0  0
    9.6280   -6.0540   24.2140 C   0  0  0  0  0  0  0  0  0  0  0  0
    9.6350   -7.1150   26.6470 C   0  0  0  0  0  0  0  0  0  0  0  0
   10.0790   -8.8860   26.4590 C   0  0  0  0  0  0  0  0  0  0  0  0
   10.0600  -10.2660   27.4840 N   0  0  0  0  0  0  0  0  0  0  0  0
    9.3640  -10.9540   28.6090 C   0  0  0  0  0  0  0  0  0  0  0  0
   10.0140  -11.9680   29.3300 C   0  0  0  0  0  0  0  0  0  0  0  0
    8.2420  -10.6300   28.9870 O   0  0  0  0  0  0  0  0  0  0  0  0
  1  2  2  3
  1  3  1  0
  3  4  2  0
  3  5  1  0
  5  6  1  0
  5  7  1  0
  6  8  1  0
  7  9  1  0
  8 10  1  0
  9 10  1  0
 10 11  1  0
 11 12  1  0
 12 13  2  0
 12 14  1  0
 13 15  1  0
 14 16  2  0
 14 17  1  0
 15 18  1  0
 15 19  2  0
 16 19  1  0
 16 20  1  0
 17 21  1  0
 20 21  2  0
 20 22  1  0
 22 23  1  0
 23 24  1  0
 24 25  1  0
 25 26  1  0
 25 27  2  0
M  END
