NAU-LAT-f723e322-4-acrylamide
     RDKit          3D

 20 21  0  0  0  0  0  0  0  0999 V2000
    8.0480   -1.5000   20.3530 C   0  0  0  0  0  0  0  0  0  0  0  0
    6.6690   -0.9830   20.5700 C   0  0  0  0  0  0  0  0  0  0  0  0
    6.1430   -1.8410   21.6710 C   0  0  0  0  0  0  0  0  0  0  0  0
    4.8850   -2.9830   21.3960 O   0  0  0  0  0  0  0  0  0  0  0  0
    7.1950   -1.1840   22.7580 N   0  0  0  0  0  0  0  0  0  0  0  0
    6.6260   -0.4890   23.9210 C   0  0  0  0  0  0  0  0  0  0  0  0
    8.5940   -0.5720   22.5640 C   0  0  1  0  0  0  0  0  0  0  0  0
    7.4680    0.5280   24.4370 C   0  0  0  0  0  0  0  0  0  0  0  0
    8.4980    0.8280   22.4330 C   0  0  0  0  0  0  0  0  0  0  0  0
    9.7350   -0.6630   23.6120 C   0  0  0  0  0  0  0  0  0  0  0  0
    8.3870    1.3200   23.6940 N   0  0  0  0  0  0  0  0  0  0  0  0
   10.9820   -0.9910   22.9460 C   0  0  0  0  0  0  0  0  0  0  0  0
   11.1590   -0.9340   23.6520 C   0  0  0  0  0  0  0  0  0  0  0  0
    8.8010    2.9500   23.9340 S   0  0  0  0  0  0  0  0  0  0  0  0
   12.3010   -1.1380   23.8330 C   0  0  0  0  0  0  0  0  0  0  0  0
   11.5710   -1.2130   22.2640 C   0  0  0  0  0  0  0  0  0  0  0  0
   10.4080    3.0600   23.1590 C   0  0  0  0  0  0  0  0  0  0  0  0
    8.9680    3.1810   25.3510 O   0  0  0  0  0  0  0  0  0  0  0  0
    7.8820    3.7600   23.1660 O   0  0  0  0  0  0  0  0  0  0  0  0
   12.9250   -1.4420   22.5750 C   0  0  0  0  0  0  0  0  0  0  0  0
  1  2  1  0
  2  3  1  0
  3  4  2  0
  3  5  1  0
  5  6  1  0
  5  7  1  0
  6  8  1  0
  7  9  1  0
  7 10  1  1
  8 11  1  0
  9 11  1  0
 10 12  2  0
 10 13  1  0
 11 14  1  0
 12 15  1  0
 13 16  2  0
 14 17  1  0
 14 18  2  0
 14 19  2  0
 15 20  2  0
 16 20  1  0
M  END
