NAU-LAT-445f63e5-7
     RDKit          3D

 23 25  0  0  0  0  0  0  0  0999 V2000
    8.6090    1.0020   25.3500 O   0  0  0  0  0  0  0  0  0  0  0  0
    7.7290   -0.1380   25.4720 S   0  0  0  0  0  0  0  0  0  0  0  0
    6.4090   -0.1200   24.8840 O   0  0  0  0  0  0  0  0  0  0  0  0
    8.4970   -1.4980   24.8890 N   0  0  0  0  0  0  0  0  0  0  0  0
    7.5170   -0.4810   27.1770 C   0  0  0  0  0  0  0  0  0  0  0  0
    8.4100   -2.1980   23.5650 C   0  0  0  0  0  0  0  0  0  0  0  0
    8.6000   -0.5760   28.0440 C   0  0  0  0  0  0  0  0  0  0  0  0
    6.2390   -0.6610   27.6710 C   0  0  0  0  0  0  0  0  0  0  0  0
    9.1040   -1.3870   22.4340 C   0  0  0  0  0  0  0  0  0  0  0  0
    6.9010   -2.3320   23.2280 C   0  0  0  0  0  0  0  0  0  0  0  0
    8.9860   -3.6160   23.7670 C   0  0  0  0  0  0  0  0  0  0  0  0
    8.3560   -0.8480   29.3870 C   0  0  0  0  0  0  0  0  0  0  0  0
    5.9780   -0.9280   28.9740 N   0  0  0  0  0  0  0  0  0  0  0  0
   10.4480   -0.7570   22.6920 C   0  0  0  0  0  0  0  0  0  0  0  0
    6.2300   -3.4810   23.9820 C   0  0  0  0  0  0  0  0  0  0  0  0
    8.1200   -4.7480   23.1930 C   0  0  0  0  0  0  0  0  0  0  0  0
    7.0450   -1.0130   29.8010 C   0  0  0  0  0  0  0  0  0  0  0  0
   10.5580    0.4040   23.4610 C   0  0  0  0  0  0  0  0  0  0  0  0
   11.6030   -1.3310   22.1500 C   0  0  0  0  0  0  0  0  0  0  0  0
    6.7430   -4.7510   23.5950 O   0  0  0  0  0  0  0  0  0  0  0  0
   11.7970    0.9830   23.6760 C   0  0  0  0  0  0  0  0  0  0  0  0
   12.8420   -0.7490   22.3690 C   0  0  0  0  0  0  0  0  0  0  0  0
   12.9330    0.4060   23.1250 C   0  0  0  0  0  0  0  0  0  0  0  0
  1  2  2  0
  2  3  2  0
  2  4  1  0
  2  5  1  0
  6  4  1  0
  5  7  2  0
  5  8  1  0
  6  9  1  0
  6 10  1  0
  6 11  1  0
  7 12  1  0
  8 13  2  0
  9 14  1  0
 10 15  1  0
 11 16  1  0
 12 17  2  0
 13 17  1  0
 14 18  2  0
 14 19  1  0
 15 20  1  0
 16 20  1  0
 18 21  1  0
 19 22  2  0
 21 23  2  0
 22 23  1  0
M  END
