NAU-LAT-64f4b287-2
     RDKit          3D

 24 26  0  0  0  0  0  0  0  0999 V2000
    5.5310   -4.2150   19.7320 O   0  0  0  0  0  0  0  0  0  0  0  0
    6.2830   -3.9780   20.6720 C   0  0  0  0  0  0  0  0  0  0  0  0
    7.2560   -2.8210   20.7110 C   0  0  0  0  0  0  0  0  0  0  0  0
    6.4070   -4.6950   21.8410 N   0  0  0  0  0  0  0  0  0  0  0  0
    6.9370   -1.7440   21.4530 C   0  0  0  0  0  0  0  0  0  0  0  0
    6.9700   -4.1470   22.9610 C   0  0  0  0  0  0  0  0  0  0  0  0
    5.6540   -5.9300   22.0550 C   0  0  0  0  0  0  0  0  0  0  0  0
    7.7870   -0.4720   21.6570 C   0  0  0  0  0  0  0  0  0  0  0  0
    6.8370   -4.9750   24.2250 C   0  0  0  0  0  0  0  0  0  0  0  0
    4.8330   -5.8240   23.1840 C   0  0  0  0  0  0  0  0  0  0  0  0
    7.3010    0.8960   21.1730 C   0  0  0  0  0  0  0  0  0  0  0  0
    9.3430   -0.3160   22.4240 S   0  0  0  0  0  0  0  0  0  0  0  0
    5.5850   -5.7360   24.3370 N   0  0  0  0  0  0  0  0  0  0  0  0
    8.2540    2.0280   21.4700 C   0  0  0  0  0  0  0  0  0  0  0  0
    9.4370    1.3850   22.1850 C   0  0  0  0  0  0  0  0  0  0  0  0
    4.7220   -5.4370   25.7770 S   0  0  0  0  0  0  0  0  0  0  0  0
    5.6500   -5.6130   26.8680 O   0  0  0  0  0  0  0  0  0  0  0  0
    3.5090   -6.2220   25.7080 O   0  0  0  0  0  0  0  0  0  0  0  0
    4.3810   -3.6820   25.6390 C   0  0  0  0  0  0  0  0  0  0  0  0
    3.0530   -3.3250   25.7230 C   0  0  0  0  0  0  0  0  0  0  0  0
    2.5470   -2.0620   25.8120 C   0  0  0  0  0  0  0  0  0  0  0  0
    1.9880   -4.1800   25.7290 N   0  0  0  0  0  0  0  0  0  0  0  0
    1.1950   -2.0790   25.8760 C   0  0  0  0  0  0  0  0  0  0  0  0
    0.8060   -3.3800   25.8240 O   0  0  0  0  0  0  0  0  0  0  0  0
  1  2  2  0
  2  3  1  0
  2  4  1  0
  3  5  2  3
  4  6  1  0
  4  7  1  0
  5  8  1  0
  6  9  1  0
  7 10  1  0
  8 11  2  0
  8 12  1  0
  9 13  1  0
 10 13  1  0
 11 14  1  0
 12 15  1  0
 14 15  2  0
 13 16  1  0
 16 17  2  0
 16 18  2  0
 16 19  1  0
 19 20  1  0
 20 21  1  0
 20 22  2  0
 21 23  2  0
 22 24  1  0
 23 24  1  0
M  END
