NAU-LAT-c9bfe74c-1
     RDKit          3D

 33 37  0  0  0  0  0  0  0  0999 V2000
    4.6890   12.0230   26.3480 N   0  0  0  0  0  0  0  0  0  0  0  0
    5.6480   11.4900   25.5910 C   0  0  0  0  0  0  0  0  0  0  0  0
    7.0390   11.5750   24.8980 C   0  0  0  0  0  0  0  0  0  0  0  0
    4.9890   10.2160   25.3400 C   0  0  0  0  0  0  0  0  0  0  0  0
    7.7050   12.5970   25.0270 O   0  0  0  0  0  0  0  0  0  0  0  0
    7.5280   10.3860   24.0860 C   0  0  0  0  0  0  0  0  0  0  0  0
    5.4640    9.1080   24.5700 C   0  0  0  0  0  0  0  0  0  0  0  0
    3.7010   10.0270   25.9280 C   0  0  0  0  0  0  0  0  0  0  0  0
    6.7160    9.1440   23.9290 C   0  0  0  0  0  0  0  0  0  0  0  0
    4.6860    7.9650   24.4440 C   0  0  0  0  0  0  0  0  0  0  0  0
    2.9500    8.8430   25.7690 C   0  0  0  0  0  0  0  0  0  0  0  0
    7.3350    7.8380   22.9970 S   0  0  0  0  0  0  0  0  0  0  0  0
    3.4450    7.7900   25.0160 C   0  0  0  0  0  0  0  0  0  0  0  0
    6.3660    7.4340   22.0000 O   0  0  0  0  0  0  0  0  0  0  0  0
    8.7060    8.1320   22.6750 O   0  0  0  0  0  0  0  0  0  0  0  0
    7.4400    6.5710   24.0680 N   0  0  0  0  0  0  0  0  0  0  0  0
    8.3770    6.8310   25.0490 C   0  0  0  0  0  0  0  0  0  0  0  0
    7.7190    5.3220   23.3500 C   0  0  0  0  0  0  0  0  0  0  0  0
    8.9690    5.6290   25.6760 C   0  0  0  0  0  0  0  0  0  0  0  0
    7.9630    4.2950   24.2740 C   0  0  0  0  0  0  0  0  0  0  0  0
    9.1440    4.6150   24.8230 N   0  0  0  0  0  0  0  0  0  0  0  0
   10.3650    4.2150   24.2530 C   0  0  0  0  0  0  0  0  0  0  0  0
   11.2730    4.9930   23.9780 O   0  0  0  0  0  0  0  0  0  0  0  0
   10.7040    2.7320   23.9240 C   0  0  0  0  0  0  0  0  0  0  0  0
   11.9700    2.2920   23.2770 C   0  0  0  0  0  0  0  0  0  0  0  0
   10.0340    1.5380   24.1060 N   0  0  0  0  0  0  0  0  0  0  0  0
   11.9410    0.9430   23.1350 C   0  0  0  0  0  0  0  0  0  0  0  0
   10.7340    0.4450   23.6450 C   0  0  0  0  0  0  0  0  0  0  0  0
   12.9230    0.1270   22.5750 C   0  0  0  0  0  0  0  0  0  0  0  0
   10.4400   -0.9280   23.6170 C   0  0  0  0  0  0  0  0  0  0  0  0
   12.6760   -1.2380   22.5040 C   0  0  0  0  0  0  0  0  0  0  0  0
   11.3530   -1.8020   23.0660 C   0  0  0  0  0  0  0  0  0  0  0  0
   13.5450   -2.0620   21.9630 F   0  0  0  0  0  0  0  0  0  0  0  0
  1  2  1  0
  2  3  2  0
  2  4  1  0
  3  5  1  0
  3  6  1  0
  4  7  2  0
  4  8  1  0
  6  9  2  0
  7  9  1  0
  7 10  1  0
  8 11  2  0
 12  9  1  0
 10 13  2  0
 11 13  1  0
 12 14  2  0
 12 15  2  0
 12 16  1  0
 16 17  1  0
 16 18  1  0
 17 19  1  0
 18 20  1  0
 19 21  1  0
 20 21  1  0
 21 22  1  0
 22 23  2  0
 22 24  1  0
 24 25  2  0
 24 26  1  0
 25 27  1  0
 26 28  1  0
 27 28  2  0
 27 29  1  0
 28 30  1  0
 29 31  2  0
 30 32  2  0
 31 32  1  0
 31 33  1  0
M  END
