NAU-LAT-64f4b287-4-bromoalkyne
     RDKit          3D

 20 22  0  0  0  0  0  0  0  0999 V2000
    5.9000   -5.2320   20.7700 C   0  0  0  0  0  0  0  0  0  0  0  0
    5.4150   -4.2020   20.0060 C   0  0  0  0  0  0  0  0  0  0  0  0
    5.2440   -5.5000   22.2590 N   0  0  0  0  0  0  0  0  0  0  0  0
    3.9120   -5.9730   22.9620 C   0  0  0  0  0  0  0  0  0  0  0  0
    5.5040   -4.5240   23.3440 C   0  0  1  0  0  0  0  0  0  0  0  0
    3.3290   -4.9300   24.1110 C   0  0  0  0  0  0  0  0  0  0  0  0
    5.5230   -4.9870   24.8210 C   0  0  0  0  0  0  0  0  0  0  0  0
    6.5350   -3.8400   22.7070 C   0  0  0  0  0  0  0  0  0  0  0  0
    2.0040   -4.4670   24.2670 C   0  0  0  0  0  0  0  0  0  0  0  0
    4.2260   -4.4010   25.0460 C   0  0  0  0  0  0  0  0  0  0  0  0
    7.9750   -3.9600   22.9690 C   0  0  0  0  0  0  0  0  0  0  0  0
    6.0170   -3.0460   21.7110 C   0  0  0  0  0  0  0  0  0  0  0  0
    1.6440   -3.4690   25.2710 C   0  0  0  0  0  0  0  0  0  0  0  0
    3.9200   -3.4450   26.0200 C   0  0  0  0  0  0  0  0  0  0  0  0
    8.7810   -3.2590   22.1230 C   0  0  0  0  0  0  0  0  0  0  0  0
    6.8500   -2.3720   20.8990 C   0  0  0  0  0  0  0  0  0  0  0  0
    0.3900   -2.9540   25.4660 O   0  0  0  0  0  0  0  0  0  0  0  0
    2.6280   -2.9610   26.1210 C   0  0  0  0  0  0  0  0  0  0  0  0
    8.1770   -2.4970   21.1050 C   0  0  0  0  0  0  0  0  0  0  0  0
   -0.6990   -3.7210   24.9780 C   0  0  0  0  0  0  0  0  0  0  0  0
  1  2  2  3
  1  3  1  0
  3  4  1  0
  3  5  1  0
  4  6  1  0
  5  7  1  0
  5  8  1  6
  6  9  1  0
  6 10  2  0
  7 10  1  0
  8 11  2  0
  8 12  1  0
  9 13  2  0
 10 14  1  0
 11 15  1  0
 12 16  2  0
 13 17  1  0
 13 18  1  0
 14 18  2  0
 15 19  2  0
 16 19  1  0
 17 20  1  0
M  END
