NAU-LAT-f723e322-5-bromoalkyne
     RDKit          3D

 26 28  0  0  0  0  0  0  0  0999 V2000
    7.0000   -3.5830   19.7880 C   0  0  0  0  0  0  0  0  0  0  0  0
    5.8020   -3.0850   19.0490 C   0  0  0  0  0  0  0  0  0  0  0  0
    7.1810   -3.3320   21.1220 N   0  0  0  0  0  0  0  0  0  0  0  0
    8.0870   -2.2440   21.5200 C   0  0  0  0  0  0  0  0  0  0  0  0
    6.4810   -4.1450   22.1310 C   0  0  0  0  0  0  0  0  0  0  0  0
    7.5870   -1.4820   22.5420 C   0  0  0  0  0  0  0  0  0  0  0  0
    6.0920   -3.3740   23.1820 C   0  0  0  0  0  0  0  0  0  0  0  0
    7.1190   -2.3920   23.6060 N   0  0  0  0  0  0  0  0  0  0  0  0
    7.0750   -1.8380   25.2100 S   0  0  0  0  0  0  0  0  0  0  0  0
    8.0550   -0.7810   25.2920 O   0  0  0  0  0  0  0  0  0  0  0  0
    5.6990   -1.5950   25.5700 O   0  0  0  0  0  0  0  0  0  0  0  0
    7.6360   -3.2050   26.1880 C   0  0  0  0  0  0  0  0  0  0  0  0
    6.7880   -3.7420   27.1660 C   0  0  0  0  0  0  0  0  0  0  0  0
    8.9170   -3.8040   26.0490 C   0  0  0  0  0  0  0  0  0  0  0  0
    7.1400   -4.9080   28.0730 C   0  0  0  0  0  0  0  0  0  0  0  0
    9.2720   -4.9760   26.9570 C   0  0  0  0  0  0  0  0  0  0  0  0
    9.9880   -3.4230   25.1070 N   0  0  0  0  0  0  0  0  0  0  0  0
    6.2470   -5.3930   29.0260 C   0  0  0  0  0  0  0  0  0  0  0  0
    8.4040   -5.4830   27.9140 C   0  0  0  0  0  0  0  0  0  0  0  0
    9.7140   -2.2110   24.3300 C   0  0  0  0  0  0  0  0  0  0  0  0
   10.9290   -1.4640   23.7860 C   0  0  0  0  0  0  0  0  0  0  0  0
   11.8480   -2.0320   22.7530 C   0  0  0  0  0  0  0  0  0  0  0  0
   11.1160   -0.2030   24.3290 C   0  0  0  0  0  0  0  0  0  0  0  0
   12.9200   -1.2260   22.3590 C   0  0  0  0  0  0  0  0  0  0  0  0
   12.2080    0.5510   23.8840 C   0  0  0  0  0  0  0  0  0  0  0  0
   13.0880    0.0420   22.9210 C   0  0  0  0  0  0  0  0  0  0  0  0
  1  2  2  3
  1  3  1  0
  3  4  1  0
  3  5  1  0
  4  6  1  0
  5  7  1  0
  6  8  1  0
  7  8  1  0
  8  9  1  0
  9 10  2  0
  9 11  2  0
  9 12  1  0
 12 13  2  0
 12 14  1  0
 13 15  1  0
 14 16  2  0
 14 17  1  0
 15 18  1  0
 15 19  2  0
 16 19  1  0
 17 20  1  0
 20 21  1  0
 21 22  2  0
 21 23  1  0
 22 24  1  0
 23 25  2  0
 24 26  2  0
 25 26  1  0
M  END
