NAU-LAT-f723e322-4-bromoalkyne
     RDKit          3D

 18 19  0  0  0  0  0  0  0  0999 V2000
    7.2330   -3.7320   20.4220 C   0  0  0  0  0  0  0  0  0  0  0  0
    5.7860   -4.1750   20.0710 C   0  0  0  0  0  0  0  0  0  0  0  0
    7.8470   -3.7070   21.8390 N   0  0  0  0  0  0  0  0  0  0  0  0
    7.3960   -4.6660   22.9810 C   0  0  0  0  0  0  0  0  0  0  0  0
    8.4790   -2.3230   22.4910 C   0  0  1  0  0  0  0  0  0  0  0  0
    7.7310   -4.3320   24.2840 C   0  0  0  0  0  0  0  0  0  0  0  0
    8.0710   -2.1220   23.9890 C   0  0  0  0  0  0  0  0  0  0  0  0
    9.8830   -1.8690   22.6320 C   0  0  0  0  0  0  0  0  0  0  0  0
    7.1650   -3.0140   24.4550 N   0  0  0  0  0  0  0  0  0  0  0  0
   11.0690   -2.2460   21.7730 C   0  0  0  0  0  0  0  0  0  0  0  0
   10.1900   -0.9410   23.7040 C   0  0  0  0  0  0  0  0  0  0  0  0
    6.0150   -2.7200   25.6640 S   0  0  0  0  0  0  0  0  0  0  0  0
   12.4980   -1.7060   22.0050 C   0  0  0  0  0  0  0  0  0  0  0  0
   11.5040   -0.3530   24.0260 C   0  0  0  0  0  0  0  0  0  0  0  0
    6.7220   -1.4450   26.6820 C   0  0  0  0  0  0  0  0  0  0  0  0
    5.9360   -3.9290   26.4490 O   0  0  0  0  0  0  0  0  0  0  0  0
    4.8360   -2.1810   25.0210 O   0  0  0  0  0  0  0  0  0  0  0  0
   12.6890   -0.7390   23.1630 C   0  0  0  0  0  0  0  0  0  0  0  0
  1  2  2  3
  1  3  1  0
  3  4  1  0
  3  5  1  0
  4  6  1  0
  5  7  1  0
  5  8  1  1
  6  9  1  0
  7  9  1  0
  8 10  2  0
  8 11  1  0
  9 12  1  0
 10 13  1  0
 11 14  2  0
 12 15  1  0
 12 16  2  0
 12 17  2  0
 13 18  2  0
 14 18  1  0
M  END
