NAU-LAT-64f4b287-3-chloroacetamide
     RDKit          3D

 20 22  0  0  0  0  0  0  0  0999 V2000
    7.7920   -3.7740   20.4950 C   0  0  0  0  0  0  0  0  0  0  0  0
    6.5270   -4.5700   20.7180 C   0  0  0  0  0  0  0  0  0  0  0  0
    5.5420   -4.5770   19.9640 O   0  0  0  0  0  0  0  0  0  0  0  0
    6.5280   -5.3440   21.8670 N   0  0  0  0  0  0  0  0  0  0  0  0
    5.3280   -5.8450   22.3580 C   0  0  0  0  0  0  0  0  0  0  0  0
    7.5370   -5.1520   22.9290 C   0  0  0  0  0  0  0  0  0  0  0  0
    5.0000   -5.6810   23.6980 C   0  0  0  0  0  0  0  0  0  0  0  0
    6.9850   -4.5300   24.0590 C   0  0  0  0  0  0  0  0  0  0  0  0
    5.9620   -5.3960   24.6300 N   0  0  0  0  0  0  0  0  0  0  0  0
    5.5640   -5.0130   25.8600 C   0  0  0  0  0  0  0  0  0  0  0  0
    4.7980   -3.7650   25.9400 C   0  0  0  0  0  0  0  0  0  0  0  0
    3.5200   -3.8620   25.8000 N   0  0  0  0  0  0  0  0  0  0  0  0
    5.1110   -2.5460   26.1250 O   0  0  0  0  0  0  0  0  0  0  0  0
    2.9780   -2.7410   25.8860 C   0  0  0  0  0  0  0  0  0  0  0  0
    3.8650   -1.7520   26.0970 N   0  0  0  0  0  0  0  0  0  0  0  0
    1.5800   -3.0670   25.7030 C   0  0  0  0  0  0  0  0  0  0  0  0
    0.4310   -2.4470   26.0390 C   0  0  0  0  0  0  0  0  0  0  0  0
    1.2840   -4.6120   24.8900 S   0  0  0  0  0  0  0  0  0  0  0  0
   -0.6360   -3.1960   25.6530 C   0  0  0  0  0  0  0  0  0  0  0  0
   -0.4190   -4.3980   25.0130 C   0  0  0  0  0  0  0  0  0  0  0  0
  1  2  1  0
  2  3  2  0
  2  4  1  0
  4  5  1  0
  4  6  1  0
  5  7  1  0
  6  8  1  0
  7  9  1  0
  8  9  1  0
  9 10  1  0
 10 11  1  0
 11 12  2  0
 11 13  1  0
 12 14  1  0
 13 15  1  0
 14 15  2  0
 14 16  1  0
 16 17  2  0
 16 18  1  0
 17 19  1  0
 18 20  1  0
 19 20  2  0
M  END
