NEH-REV-107bcf72-1-bromoalkyne
     RDKit          3D

 22 24  0  0  0  0  0  0  0  0999 V2000
    6.9310   -3.5430   19.8030 C   0  0  0  0  0  0  0  0  0  0  0  0
    6.3310   -2.7990   18.6120 C   0  0  0  0  0  0  0  0  0  0  0  0
    6.7860   -2.9660   21.0720 N   0  0  0  0  0  0  0  0  0  0  0  0
    6.5470   -3.6280   22.3610 C   0  0  0  0  0  0  0  0  0  0  0  0
    7.2050   -1.6180   21.2780 C   0  0  0  0  0  0  0  0  0  0  0  0
    7.6110   -3.5160   23.2810 C   0  0  0  0  0  0  0  0  0  0  0  0
    8.1610   -1.4050   22.2510 C   0  0  0  0  0  0  0  0  0  0  0  0
    6.7000   -0.5340   20.5500 C   0  0  0  0  0  0  0  0  0  0  0  0
    8.6240   -2.4930   22.9330 N   0  0  0  0  0  0  0  0  0  0  0  0
    8.5790    0.0090   22.4470 C   0  0  0  0  0  0  0  0  0  0  0  0
    7.1550    0.7610   20.8070 C   0  0  0  0  0  0  0  0  0  0  0  0
    9.5740   -2.2920   23.8760 C   0  0  0  0  0  0  0  0  0  0  0  0
    8.0830    1.0390   21.7430 N   0  0  0  0  0  0  0  0  0  0  0  0
    6.6590    1.8140   20.0990 N   0  0  0  0  0  0  0  0  0  0  0  0
   10.6180   -1.3810   23.5900 C   0  0  0  0  0  0  0  0  0  0  0  0
   10.5450   -0.0680   24.0600 C   0  0  0  0  0  0  0  0  0  0  0  0
   11.7620   -1.7250   22.8320 C   0  0  0  0  0  0  0  0  0  0  0  0
   11.5030    0.9070   23.8300 C   0  0  0  0  0  0  0  0  0  0  0  0
   12.8640   -0.6920   22.5490 C   0  0  0  0  0  0  0  0  0  0  0  0
   12.0000   -3.0020   22.2780 O   0  0  0  0  0  0  0  0  0  0  0  0
   11.2850    2.0080   24.2890 O   0  0  0  0  0  0  0  0  0  0  0  0
   12.7630    0.5960   23.0260 C   0  0  0  0  0  0  0  0  0  0  0  0
  1  2  2  3
  1  3  1  0
  3  4  1  0
  3  5  1  0
  4  6  1  0
  5  7  2  0
  5  8  1  0
  6  9  1  0
  7  9  1  0
  7 10  1  0
  8 11  2  0
  9 12  1  0
 10 13  2  0
 11 13  1  0
 11 14  1  0
 12 15  1  0
 15 16  2  0
 15 17  1  0
 16 18  1  0
 17 19  2  0
 17 20  1  0
 18 21  1  0
 18 22  2  0
 19 22  1  0
M  END
