NEH-REV-107bcf72-1-nitrile
     RDKit          3D

 22 24  0  0  0  0  0  0  0  0999 V2000
    6.8190   -3.5790   19.8250 C   0  0  0  0  0  0  0  0  0  0  0  0
    6.3800   -3.0620   18.7310 N   0  0  0  0  0  0  0  0  0  0  0  0
    6.6850   -2.8570   21.0110 N   0  0  0  0  0  0  0  0  0  0  0  0
    6.4350   -3.4860   22.3200 C   0  0  0  0  0  0  0  0  0  0  0  0
    7.1960   -1.5990   21.1590 C   0  0  0  0  0  0  0  0  0  0  0  0
    7.7020   -3.5790   23.1420 C   0  0  0  0  0  0  0  0  0  0  0  0
    8.2540   -1.4340   22.0590 C   0  0  0  0  0  0  0  0  0  0  0  0
    6.7070   -0.4950   20.4610 C   0  0  0  0  0  0  0  0  0  0  0  0
    8.7670   -2.5830   22.7920 N   0  0  0  0  0  0  0  0  0  0  0  0
    8.7530   -0.1330   22.1890 C   0  0  0  0  0  0  0  0  0  0  0  0
    7.2710    0.7630   20.6620 C   0  0  0  0  0  0  0  0  0  0  0  0
    9.6880   -2.3080   23.9100 C   0  0  0  0  0  0  0  0  0  0  0  0
    8.2870    0.9580   21.5180 N   0  0  0  0  0  0  0  0  0  0  0  0
    6.8710    1.6870   20.0870 N   0  0  0  0  0  0  0  0  0  0  0  0
   10.6870   -1.3580   23.6150 C   0  0  0  0  0  0  0  0  0  0  0  0
   10.5630   -0.0190   24.0460 C   0  0  0  0  0  0  0  0  0  0  0  0
   11.8480   -1.6900   22.8770 C   0  0  0  0  0  0  0  0  0  0  0  0
   11.5580    0.9200   23.7340 C   0  0  0  0  0  0  0  0  0  0  0  0
   12.8320   -0.7660   22.5790 C   0  0  0  0  0  0  0  0  0  0  0  0
   12.1140   -2.9800   22.3740 O   0  0  0  0  0  0  0  0  0  0  0  0
   11.4250    2.0780   24.0940 O   0  0  0  0  0  0  0  0  0  0  0  0
   12.6610    0.5180   23.0170 C   0  0  0  0  0  0  0  0  0  0  0  0
  1  2  2  3
  1  3  1  0
  3  4  1  0
  3  5  1  0
  4  6  1  0
  5  7  2  0
  5  8  1  0
  6  9  1  0
  7  9  1  0
  7 10  1  0
  8 11  2  0
  9 12  1  0
 10 13  2  0
 11 13  1  0
 11 14  1  0
 12 15  1  0
 15 16  2  0
 15 17  1  0
 16 18  1  0
 17 19  2  0
 17 20  1  0
 18 21  1  0
 18 22  2  0
 19 22  1  0
M  END
