NEH-REV-107bcf72-1-acrylamide
     RDKit          3D

 24 26  0  0  0  0  0  0  0  0999 V2000
    7.6920   -2.6310   18.7120 C   0  0  0  0  0  0  0  0  0  0  0  0
    6.2180   -2.8480   18.8890 C   0  0  0  0  0  0  0  0  0  0  0  0
    5.8610   -3.5230   20.1710 C   0  0  0  0  0  0  0  0  0  0  0  0
    5.2300   -4.5760   20.0770 O   0  0  0  0  0  0  0  0  0  0  0  0
    6.2390   -2.9200   21.3790 N   0  0  0  0  0  0  0  0  0  0  0  0
    6.5210   -3.7680   22.5060 C   0  0  0  0  0  0  0  0  0  0  0  0
    7.0210   -1.6530   21.4980 C   0  0  0  0  0  0  0  0  0  0  0  0
    7.8470   -3.6530   22.9840 C   0  0  0  0  0  0  0  0  0  0  0  0
    8.0490   -1.4590   22.4070 C   0  0  0  0  0  0  0  0  0  0  0  0
    6.7220   -0.5910   20.6830 C   0  0  0  0  0  0  0  0  0  0  0  0
    8.4310   -2.4520   23.3000 N   0  0  0  0  0  0  0  0  0  0  0  0
    8.6150   -0.2380   22.3530 C   0  0  0  0  0  0  0  0  0  0  0  0
    7.3760    0.6370   20.7210 C   0  0  0  0  0  0  0  0  0  0  0  0
    9.7450   -2.5480   23.6530 C   0  0  0  0  0  0  0  0  0  0  0  0
    8.2520    0.7760   21.5050 N   0  0  0  0  0  0  0  0  0  0  0  0
    7.0260    1.6550   19.8930 N   0  0  0  0  0  0  0  0  0  0  0  0
   10.6760   -1.5150   23.4760 C   0  0  0  0  0  0  0  0  0  0  0  0
   10.4400   -0.2530   24.0300 C   0  0  0  0  0  0  0  0  0  0  0  0
   11.9300   -1.7850   22.6790 C   0  0  0  0  0  0  0  0  0  0  0  0
   11.4340    0.9200   23.8470 C   0  0  0  0  0  0  0  0  0  0  0  0
   12.8520   -0.7770   22.4960 C   0  0  0  0  0  0  0  0  0  0  0  0
   12.2240   -2.8350   22.1600 O   0  0  0  0  0  0  0  0  0  0  0  0
   11.2200    2.0320   24.3140 O   0  0  0  0  0  0  0  0  0  0  0  0
   12.6810    0.6240   23.0530 C   0  0  0  0  0  0  0  0  0  0  0  0
  1  2  1  0
  2  3  1  0
  3  4  2  0
  3  5  1  0
  5  6  1  0
  5  7  1  0
  6  8  1  0
  7  9  2  0
  7 10  1  0
  8 11  1  0
  9 11  1  0
  9 12  1  0
 10 13  2  0
 11 14  1  0
 12 15  2  0
 13 15  1  0
 13 16  1  0
 14 17  1  0
 17 18  2  0
 17 19  1  0
 18 20  1  0
 19 21  2  0
 19 22  1  0
 20 23  1  0
 20 24  2  0
 21 24  1  0
M  END
