NEH-REV-107bcf72-3-chloroacetamide
     RDKit          3D

 20 22  0  0  0  0  0  0  0  0999 V2000
    7.3110   -3.0140   18.8190 C   0  0  0  0  0  0  0  0  0  0  0  0
    6.3880   -3.3610   19.9460 C   0  0  0  0  0  0  0  0  0  0  0  0
    5.4970   -4.2120   19.8210 O   0  0  0  0  0  0  0  0  0  0  0  0
    6.5960   -2.6790   21.1500 N   0  0  0  0  0  0  0  0  0  0  0  0
    7.6820   -1.7810   21.2180 C   0  0  0  0  0  0  0  0  0  0  0  0
    6.3570   -3.3780   22.4490 C   0  0  0  0  0  0  0  0  0  0  0  0
    8.7490   -2.1280   21.9890 C   0  0  0  0  0  0  0  0  0  0  0  0
    7.5830   -3.4770   23.3900 C   0  0  0  0  0  0  0  0  0  0  0  0
    8.4830   -2.3120   23.2730 N   0  0  0  0  0  0  0  0  0  0  0  0
    9.5270   -2.2710   24.0920 C   0  0  0  0  0  0  0  0  0  0  0  0
   10.5380   -1.2560   23.7360 C   0  0  0  0  0  0  0  0  0  0  0  0
   10.3580    0.1680   24.1900 C   0  0  0  0  0  0  0  0  0  0  0  0
   11.6480   -1.5610   22.9800 C   0  0  0  0  0  0  0  0  0  0  0  0
   11.4230    1.1420   23.7620 C   0  0  0  0  0  0  0  0  0  0  0  0
   12.7190   -0.5950   22.5480 C   0  0  0  0  0  0  0  0  0  0  0  0
   11.9790   -2.7670   22.4820 O   0  0  0  0  0  0  0  0  0  0  0  0
   11.3610    2.3230   24.0640 O   0  0  0  0  0  0  0  0  0  0  0  0
   12.5070    0.7070   22.9930 C   0  0  0  0  0  0  0  0  0  0  0  0
   12.8940   -2.3470   21.4390 C   0  0  0  0  0  0  0  0  0  0  0  0
   13.6730   -1.1800   21.8020 O   0  0  0  0  0  0  0  0  0  0  0  0
  1  2  1  0
  2  3  2  0
  2  4  1  0
  4  5  1  0
  4  6  1  0
  5  7  1  0
  6  8  1  0
  7  9  1  0
  8  9  1  0
  9 10  1  0
 10 11  1  0
 11 12  2  0
 11 13  1  0
 12 14  1  0
 13 15  2  0
 13 16  1  0
 14 17  1  0
 14 18  2  0
 15 18  1  0
 16 19  1  0
 15 20  1  0
 19 20  1  0
M  END
