NEH-REV-107bcf72-3-nitrile
     RDKit          3D

 19 21  0  0  0  0  0  0  0  0999 V2000
    6.5410   -3.8320   19.9070 C   0  0  0  0  0  0  0  0  0  0  0  0
    5.4450   -3.5670   19.3100 N   0  0  0  0  0  0  0  0  0  0  0  0
    6.9270   -3.1450   20.9760 N   0  0  0  0  0  0  0  0  0  0  0  0
    6.3980   -3.4490   22.2870 C   0  0  0  0  0  0  0  0  0  0  0  0
    7.5140   -1.8190   20.8720 C   0  0  0  0  0  0  0  0  0  0  0  0
    7.5620   -3.4240   23.2570 C   0  0  0  0  0  0  0  0  0  0  0  0
    8.6990   -1.7620   21.8270 C   0  0  0  0  0  0  0  0  0  0  0  0
    8.3350   -2.1730   23.1950 N   0  0  0  0  0  0  0  0  0  0  0  0
    9.5130   -2.2020   24.0270 C   0  0  0  0  0  0  0  0  0  0  0  0
   10.4990   -1.1320   23.6870 C   0  0  0  0  0  0  0  0  0  0  0  0
   11.6830   -1.4200   23.0160 C   0  0  0  0  0  0  0  0  0  0  0  0
   10.2500    0.1850   24.0380 C   0  0  0  0  0  0  0  0  0  0  0  0
   12.5870   -0.4120   22.7140 C   0  0  0  0  0  0  0  0  0  0  0  0
   11.1670    1.1930   23.7290 C   0  0  0  0  0  0  0  0  0  0  0  0
    9.1670    0.6970   24.6860 O   0  0  0  0  0  0  0  0  0  0  0  0
   13.7280   -0.6970   22.0600 O   0  0  0  0  0  0  0  0  0  0  0  0
   12.3530    0.9120   23.0660 C   0  0  0  0  0  0  0  0  0  0  0  0
    9.3410    2.0820   24.3310 C   0  0  0  0  0  0  0  0  0  0  0  0
   10.7350    2.4100   24.1550 O   0  0  0  0  0  0  0  0  0  0  0  0
  1  2  2  3
  1  3  1  0
  3  4  1  0
  3  5  1  0
  4  6  1  0
  5  7  1  0
  6  8  1  0
  7  8  1  0
  8  9  1  0
  9 10  1  0
 10 11  2  0
 10 12  1  0
 11 13  1  0
 12 14  2  0
 12 15  1  0
 13 16  1  0
 13 17  2  0
 14 17  1  0
 15 18  1  0
 14 19  1  0
 18 19  1  0
M  END
