NEH-REV-107bcf72-3-bromoalkyne
     RDKit          3D

 19 21  0  0  0  0  0  0  0  0999 V2000
    6.7960   -3.4110   19.6840 C   0  0  0  0  0  0  0  0  0  0  0  0
    5.8170   -2.8740   18.7290 C   0  0  0  0  0  0  0  0  0  0  0  0
    6.7260   -2.9740   21.0060 N   0  0  0  0  0  0  0  0  0  0  0  0
    6.7790   -3.7870   22.1490 C   0  0  0  0  0  0  0  0  0  0  0  0
    7.2000   -1.6040   21.2900 C   0  0  0  0  0  0  0  0  0  0  0  0
    7.6790   -3.5190   23.1860 C   0  0  0  0  0  0  0  0  0  0  0  0
    8.5140   -1.6520   22.0370 C   0  0  0  0  0  0  0  0  0  0  0  0
    8.3220   -2.3200   23.3310 N   0  0  0  0  0  0  0  0  0  0  0  0
    9.4450   -2.3060   24.0640 C   0  0  0  0  0  0  0  0  0  0  0  0
   10.4850   -1.3140   23.7160 C   0  0  0  0  0  0  0  0  0  0  0  0
   10.3140    0.1010   24.1910 C   0  0  0  0  0  0  0  0  0  0  0  0
   11.6090   -1.6070   22.9680 C   0  0  0  0  0  0  0  0  0  0  0  0
   11.3890    1.0760   23.7950 C   0  0  0  0  0  0  0  0  0  0  0  0
   12.6940   -0.6330   22.5720 C   0  0  0  0  0  0  0  0  0  0  0  0
   11.9600   -2.7950   22.4450 O   0  0  0  0  0  0  0  0  0  0  0  0
   11.3140    2.3810   24.1510 O   0  0  0  0  0  0  0  0  0  0  0  0
   12.4800    0.6540   23.0370 C   0  0  0  0  0  0  0  0  0  0  0  0
   12.8940   -2.3410   21.4280 C   0  0  0  0  0  0  0  0  0  0  0  0
   13.6640   -1.1880   21.8300 O   0  0  0  0  0  0  0  0  0  0  0  0
  1  2  2  3
  1  3  1  0
  3  4  1  0
  3  5  1  0
  4  6  1  0
  5  7  1  0
  6  8  1  0
  7  8  1  0
  8  9  1  0
  9 10  1  0
 10 11  2  0
 10 12  1  0
 11 13  1  0
 12 14  2  0
 12 15  1  0
 13 16  1  0
 13 17  2  0
 14 17  1  0
 15 18  1  0
 14 19  1  0
 18 19  1  0
M  END
