NEH-REV-107bcf72-2-vinylsulfonamide
     RDKit          3D

 25 27  0  0  0  0  0  0  0  0999 V2000
    7.9380   -3.2910   19.2190 C   0  0  0  0  0  0  0  0  0  0  0  0
    6.8450   -2.3980   18.6800 C   0  0  0  0  0  0  0  0  0  0  0  0
    5.5460   -2.3590   19.8380 S   0  0  0  0  0  0  0  0  0  0  0  0
    4.9210   -3.6460   19.6830 O   0  0  0  0  0  0  0  0  0  0  0  0
    4.8230   -1.1270   19.6090 O   0  0  0  0  0  0  0  0  0  0  0  0
    6.3710   -2.1690   21.3130 N   0  0  0  0  0  0  0  0  0  0  0  0
    6.2630   -3.1540   22.3960 C   0  0  0  0  0  0  0  0  0  0  0  0
    7.5420   -1.2240   21.3010 C   0  0  0  0  0  0  0  0  0  0  0  0
    7.4690   -3.4480   23.0070 C   0  0  0  0  0  0  0  0  0  0  0  0
    8.6680   -1.7720   21.9090 C   0  0  0  0  0  0  0  0  0  0  0  0
    8.3190   -2.2740   23.1200 N   0  0  0  0  0  0  0  0  0  0  0  0
    9.3380   -2.4010   23.9690 C   0  0  1  0  0  0  0  0  0  0  0  0
   10.4140   -1.5130   23.6910 C   0  0  0  0  0  0  0  0  0  0  0  0
    8.8110   -2.3120   25.4190 C   0  0  0  0  0  0  0  0  0  0  0  0
   10.5040   -0.2340   24.2900 C   0  0  0  0  0  0  0  0  0  0  0  0
   11.4310   -1.9130   22.7920 C   0  0  0  0  0  0  0  0  0  0  0  0
    8.2110   -3.4990   26.0650 C   0  0  0  0  0  0  0  0  0  0  0  0
    8.8690   -1.1770   26.1400 N   0  0  0  0  0  0  0  0  0  0  0  0
   11.5740    0.6290   24.0100 C   0  0  0  0  0  0  0  0  0  0  0  0
   12.6310   -1.0160   22.4470 C   0  0  0  0  0  0  0  0  0  0  0  0
    7.7700   -3.3680   27.3200 C   0  0  0  0  0  0  0  0  0  0  0  0
    8.3230   -1.2610   27.5080 C   0  0  0  0  0  0  0  0  0  0  0  0
   12.6980    0.2280   23.0470 C   0  0  0  0  0  0  0  0  0  0  0  0
   13.5320   -1.3640   21.6580 O   0  0  0  0  0  0  0  0  0  0  0  0
    7.8450   -2.2120   28.0220 N   0  0  0  0  0  0  0  0  0  0  0  0
  1  2  1  0
  3  2  1  0
  3  4  2  0
  3  5  2  0
  3  6  1  0
  6  7  1  0
  6  8  1  0
  7  9  1  0
  8 10  1  0
  9 11  1  0
 10 11  1  0
 11 12  1  0
 12 13  1  6
 12 14  1  0
 13 15  2  0
 13 16  1  0
 14 17  2  0
 14 18  1  0
 15 19  1  0
 16 20  2  0
 17 21  1  0
 18 22  2  0
 19 23  2  0
 20 23  1  0
 20 24  1  0
 21 25  2  0
 22 25  1  0
M  END
