NEH-REV-107bcf72-1-vinylsulfonamide
     RDKit          3D

 25 27  0  0  0  0  0  0  0  0999 V2000
    7.8770   -3.3690   19.6990 C   0  0  0  0  0  0  0  0  0  0  0  0
    6.9560   -2.4830   18.9330 C   0  0  0  0  0  0  0  0  0  0  0  0
    5.5600   -2.6650   19.9370 S   0  0  0  0  0  0  0  0  0  0  0  0
    5.0960   -4.0300   19.7840 O   0  0  0  0  0  0  0  0  0  0  0  0
    4.7440   -1.5130   19.6490 O   0  0  0  0  0  0  0  0  0  0  0  0
    6.2870   -2.4150   21.4560 N   0  0  0  0  0  0  0  0  0  0  0  0
    6.6910   -3.5750   22.2560 C   0  0  0  0  0  0  0  0  0  0  0  0
    7.0920   -1.2360   21.6190 C   0  0  0  0  0  0  0  0  0  0  0  0
    7.5570   -3.2820   23.3120 C   0  0  0  0  0  0  0  0  0  0  0  0
    8.2820   -1.2730   22.3510 C   0  0  0  0  0  0  0  0  0  0  0  0
    6.6930   -0.0240   21.0450 C   0  0  0  0  0  0  0  0  0  0  0  0
    8.6930   -2.4310   22.9360 N   0  0  0  0  0  0  0  0  0  0  0  0
    9.0220    0.0120   22.4360 C   0  0  0  0  0  0  0  0  0  0  0  0
    7.4630    1.1250   21.1970 C   0  0  0  0  0  0  0  0  0  0  0  0
    9.6340   -2.2820   23.8970 C   0  0  0  0  0  0  0  0  0  0  0  0
    8.6130    1.1580   21.8760 N   0  0  0  0  0  0  0  0  0  0  0  0
    7.0480    2.2890   20.6440 N   0  0  0  0  0  0  0  0  0  0  0  0
   10.6690   -1.3770   23.6100 C   0  0  0  0  0  0  0  0  0  0  0  0
   10.5480   -0.0490   24.0940 C   0  0  0  0  0  0  0  0  0  0  0  0
   11.8100   -1.7390   22.8530 C   0  0  0  0  0  0  0  0  0  0  0  0
   11.5050    0.9400   23.8520 C   0  0  0  0  0  0  0  0  0  0  0  0
   12.8820   -0.6990   22.5770 C   0  0  0  0  0  0  0  0  0  0  0  0
   12.0360   -2.9610   22.3360 O   0  0  0  0  0  0  0  0  0  0  0  0
   11.3630    2.0770   24.2570 O   0  0  0  0  0  0  0  0  0  0  0  0
   12.7530    0.5790   23.0440 C   0  0  0  0  0  0  0  0  0  0  0  0
  1  2  1  0
  3  2  1  0
  3  4  2  0
  3  5  2  0
  3  6  1  0
  6  7  1  0
  6  8  1  0
  7  9  1  0
  8 10  2  0
  8 11  1  0
  9 12  1  0
 10 12  1  0
 10 13  1  0
 11 14  2  0
 12 15  1  0
 13 16  2  0
 14 16  1  0
 14 17  1  0
 15 18  1  0
 18 19  2  0
 18 20  1  0
 19 21  1  0
 20 22  2  0
 20 23  1  0
 21 24  1  0
 21 25  2  0
 22 25  1  0
M  END
