NEH-REV-107bcf72-4-chloroacetamide
     RDKit          3D

 19 20  0  0  0  0  0  0  0  0999 V2000
    7.3250   -3.0310   18.8720 C   0  0  0  0  0  0  0  0  0  0  0  0
    6.4460   -3.3910   20.0570 C   0  0  0  0  0  0  0  0  0  0  0  0
    5.5230   -4.2100   19.8420 O   0  0  0  0  0  0  0  0  0  0  0  0
    6.7440   -2.7940   21.3140 N   0  0  0  0  0  0  0  0  0  0  0  0
    7.7480   -1.7420   21.3660 C   0  0  0  0  0  0  0  0  0  0  0  0
    6.4110   -3.3030   22.5560 C   0  0  2  0  0  0  0  0  0  0  0  0
    8.9660   -2.2490   21.8000 C   0  0  0  0  0  0  0  0  0  0  0  0
    7.5080   -3.5960   23.4170 C   0  0  0  0  0  0  0  0  0  0  0  0
    5.5910   -4.3700   22.2780 O   0  0  0  0  0  0  0  0  0  0  0  0
    8.8470   -3.0570   23.0070 N   0  0  0  0  0  0  0  0  0  0  0  0
    9.7120   -2.5520   24.0710 C   0  0  0  0  0  0  0  0  0  0  0  0
   10.6720   -1.6300   23.6470 C   0  0  0  0  0  0  0  0  0  0  0  0
   10.2300   -0.1560   23.5290 C   0  0  0  0  0  0  0  0  0  0  0  0
   12.0130   -1.9240   23.3090 C   0  0  0  0  0  0  0  0  0  0  0  0
   11.0950    0.8700   23.1120 C   0  0  0  0  0  0  0  0  0  0  0  0
   12.9180   -0.8210   22.8610 C   0  0  0  0  0  0  0  0  0  0  0  0
   12.6680   -3.1660   23.3310 O   0  0  0  0  0  0  0  0  0  0  0  0
   10.6240    2.1500   23.0350 O   0  0  0  0  0  0  0  0  0  0  0  0
   12.5160    0.4870   22.7690 C   0  0  0  0  0  0  0  0  0  0  0  0
  1  2  1  0
  2  3  2  0
  2  4  1  0
  4  5  1  0
  4  6  1  0
  5  7  1  0
  6  8  1  0
  6  9  1  6
  7 10  1  0
  8 10  1  0
 10 11  1  0
 11 12  1  0
 12 13  2  0
 12 14  1  0
 13 15  1  0
 14 16  2  0
 14 17  1  0
 15 18  1  0
 15 19  2  0
 16 19  1  0
M  END
