NEL-UNI-1464a899-1
     RDKit          3D

 18 18  0  0  0  0  0  0  0  0999 V2000
   10.1630    3.9160   24.2270 O   0  0  0  0  0  0  0  0  0  0  0  0
    9.0080    3.5340   24.4440 C   0  0  0  0  0  0  0  0  0  0  0  0
    8.2920    3.9710   25.6910 C   0  0  0  0  0  0  0  0  0  0  0  0
    8.2020    2.6760   23.5930 N   0  0  0  0  0  0  0  0  0  0  0  0
    8.5650    5.2260   26.2830 C   0  0  0  0  0  0  0  0  0  0  0  0
    7.5400    1.5220   24.1280 C   0  0  0  0  0  0  0  0  0  0  0  0
    9.8390    5.1550   26.9630 O   0  0  0  0  0  0  0  0  0  0  0  0
    8.6530    6.2080   25.5460 O   0  0  0  0  0  0  0  0  0  0  0  0
    8.1600    0.7770   25.1400 C   0  0  0  0  0  0  0  0  0  0  0  0
    9.5490    0.8070   25.3110 C   0  0  0  0  0  0  0  0  0  0  0  0
   10.4860    0.1370   24.2960 C   0  0  0  0  0  0  0  0  0  0  0  0
   11.7760    0.8460   23.8310 C   0  0  0  0  0  0  0  0  0  0  0  0
   10.1520   -1.1200   23.7980 C   0  0  0  0  0  0  0  0  0  0  0  0
   12.6780    0.1390   22.8140 C   0  0  0  0  0  0  0  0  0  0  0  0
   10.9500   -1.7810   22.8690 C   0  0  0  0  0  0  0  0  0  0  0  0
   12.1330   -1.2440   22.3740 C   0  0  0  0  0  0  0  0  0  0  0  0
   13.0060   -1.9610   21.3450 C   0  0  0  0  0  0  0  0  0  0  0  0
   13.8410   -1.3450   20.7160 O   0  0  0  0  0  0  0  0  0  0  0  0
  1  2  2  0
  2  3  1  0
  2  4  1  0
  3  5  1  0
  4  6  1  0
  5  7  1  0
  5  8  1  0
  6  9  1  0
  9 10  1  0
 10 11  1  0
 11 12  2  0
 11 13  1  0
 12 14  1  0
 13 15  2  0
 14 16  2  0
 15 16  1  0
 16 17  1  0
 17 18  1  0
M  END
