NEL-UNI-1464a899-8-vinylsulfonamide
     RDKit          3D

 21 21  0  0  0  0  0  0  0  0999 V2000
    7.6170   -2.8310   20.7260 C   0  0  0  0  0  0  0  0  0  0  0  0
    7.5300   -3.7200   21.9140 C   0  0  0  0  0  0  0  0  0  0  0  0
    6.2540   -2.8540   22.6970 S   0  0  0  0  0  0  0  0  0  0  0  0
    4.8820   -3.2810   21.6960 O   0  0  0  0  0  0  0  0  0  0  0  0
    6.2080   -3.3920   24.0380 O   0  0  0  0  0  0  0  0  0  0  0  0
    7.4250   -1.2740   22.9050 C   0  0  0  0  0  0  0  0  0  0  0  0
    8.5080   -2.2570   22.5390 C   0  0  0  0  0  0  0  0  0  0  0  0
    8.4580   -0.1740   23.0200 C   0  0  0  0  0  0  0  0  0  0  0  0
    9.9890   -2.2230   22.3280 C   0  0  0  0  0  0  0  0  0  0  0  0
    9.2760   -1.1280   22.6780 C   0  0  0  0  0  0  0  0  0  0  0  0
   10.7430   -1.0920   22.4540 C   0  0  0  0  0  0  0  0  0  0  0  0
   12.0270   -1.8600   22.0710 C   0  0  0  0  0  0  0  0  0  0  0  0
   13.2630   -0.9940   22.2290 C   0  0  0  0  0  0  0  0  0  0  0  0
   12.9360    0.3190   22.9850 C   0  0  0  0  0  0  0  0  0  0  0  0
   11.5630    0.7320   22.7720 N   0  0  0  0  0  0  0  0  0  0  0  0
   11.0800    2.1330   22.9180 C   0  0  0  0  0  0  0  0  0  0  0  0
   11.8120    3.1160   22.8250 O   0  0  0  0  0  0  0  0  0  0  0  0
    9.5520    2.2240   23.1970 C   0  0  0  0  0  0  0  0  0  0  0  0
    8.6250    2.5700   22.0070 C   0  0  2  0  0  0  0  0  0  0  0  0
    7.6800    1.4760   21.4190 C   0  0  0  0  0  0  0  0  0  0  0  0
    9.2690    3.0980   20.9710 O   0  0  0  0  0  0  0  0  0  0  0  0
  1  2  1  0
  3  2  1  0
  3  4  2  0
  3  5  2  0
  3  6  1  0
  6  7  2  0
  6  8  1  0
  7  9  1  0
  8 10  2  0
  9 11  2  0
 10 11  1  0
 11 12  1  0
 12 13  1  0
 13 14  1  0
 14 15  1  0
 15 16  1  0
 16 17  2  0
 16 18  1  0
 18 19  1  0
 19 20  1  6
 19 21  1  0
M  END
