NEL-UNI-1464a899-8-chloroacetamide
     RDKit          3D

 19 19  0  0  0  0  0  0  0  0999 V2000
    8.5790   -3.8130   19.5020 C   0  0  0  0  0  0  0  0  0  0  0  0
    7.7840   -2.7700   19.9580 C   0  0  0  0  0  0  0  0  0  0  0  0
    6.6260   -2.8840   19.2700 O   0  0  0  0  0  0  0  0  0  0  0  0
    8.3860   -1.8500   21.1170 C   0  0  0  0  0  0  0  0  0  0  0  0
    7.5920   -0.9430   21.7820 C   0  0  0  0  0  0  0  0  0  0  0  0
    9.7810   -1.9030   21.5670 C   0  0  0  0  0  0  0  0  0  0  0  0
    8.0510   -0.1200   22.8160 C   0  0  0  0  0  0  0  0  0  0  0  0
   10.2970   -1.0930   22.5960 C   0  0  0  0  0  0  0  0  0  0  0  0
    9.3580   -0.1200   23.2830 C   0  0  0  0  0  0  0  0  0  0  0  0
    9.7920    0.8060   24.4190 C   0  0  0  0  0  0  0  0  0  0  0  0
    8.5840    1.5740   25.0070 C   0  0  0  0  0  0  0  0  0  0  0  0
    7.4540    1.8680   24.0050 C   0  0  0  0  0  0  0  0  0  0  0  0
    7.7060    3.1010   23.2860 N   0  0  0  0  0  0  0  0  0  0  0  0
    7.8290    4.4190   23.9730 C   0  0  0  0  0  0  0  0  0  0  0  0
    6.9940    4.7990   24.7970 O   0  0  0  0  0  0  0  0  0  0  0  0
    9.0750    5.2520   23.5680 C   0  0  0  0  0  0  0  0  0  0  0  0
    8.9960    6.6030   22.7860 C   0  0  2  0  0  0  0  0  0  0  0  0
    7.8220    6.7030   21.7590 C   0  0  0  0  0  0  0  0  0  0  0  0
   10.0420    6.8650   22.1960 O   0  0  0  0  0  0  0  0  0  0  0  0
  1  2  1  0
  2  3  2  0
  2  4  1  0
  4  5  2  0
  4  6  1  0
  5  7  1  0
  6  8  2  0
  7  9  2  0
  8  9  1  0
  9 10  1  0
 10 11  1  0
 11 12  1  0
 12 13  1  0
 13 14  1  0
 14 15  2  0
 14 16  1  0
 16 17  1  0
 17 18  1  6
 17 19  1  0
M  END
