NEL-UNI-1464a899-8-nitrile
     RDKit          3D

 18 18  0  0  0  0  0  0  0  0999 V2000
    9.3030   -3.5280   19.7560 C   0  0  0  0  0  0  0  0  0  0  0  0
    8.0010   -3.7750   19.8860 N   0  0  0  0  0  0  0  0  0  0  0  0
   10.4910   -2.6070   20.7790 C   0  0  0  0  0  0  0  0  0  0  0  0
   11.5070   -1.8130   21.6620 C   0  0  0  0  0  0  0  0  0  0  0  0
    9.4110   -2.1320   21.6320 C   0  0  0  0  0  0  0  0  0  0  0  0
   11.5120   -0.9480   22.8060 C   0  0  0  0  0  0  0  0  0  0  0  0
    9.3340   -1.2840   22.7850 C   0  0  0  0  0  0  0  0  0  0  0  0
   10.3340   -0.6510   23.4270 C   0  0  0  0  0  0  0  0  0  0  0  0
    9.9270    0.1490   24.5610 C   0  0  0  0  0  0  0  0  0  0  0  0
    8.3890    0.3100   24.8030 C   0  0  0  0  0  0  0  0  0  0  0  0
    7.7520    1.3040   23.7900 C   0  0  0  0  0  0  0  0  0  0  0  0
    7.4760    1.8070   22.7870 N   0  0  0  0  0  0  0  0  0  0  0  0
    6.0540    1.9440   22.3760 C   0  0  0  0  0  0  0  0  0  0  0  0
    5.4970    3.0280   22.2460 O   0  0  0  0  0  0  0  0  0  0  0  0
    5.3120    0.5990   22.1040 C   0  0  0  0  0  0  0  0  0  0  0  0
    4.6940    0.6290   20.6710 C   0  0  2  0  0  0  0  0  0  0  0  0
    4.8310   -0.5980   19.7170 C   0  0  0  0  0  0  0  0  0  0  0  0
    4.9270    1.6260   19.9880 O   0  0  0  0  0  0  0  0  0  0  0  0
  1  2  2  3
  1  3  1  0
  3  4  2  0
  3  5  1  0
  4  6  1  0
  5  7  2  0
  6  8  2  0
  7  8  1  0
  8  9  1  0
  9 10  1  0
 10 11  1  0
 11 12  1  0
 12 13  1  0
 13 14  2  0
 13 15  1  0
 15 16  1  0
 16 17  1  6
 16 18  1  0
M  END
