NEL-UNI-1464a899-8-acrylamide
     RDKit          3D

 20 20  0  0  0  0  0  0  0  0999 V2000
    7.7330   -2.4690   20.2070 C   0  0  0  0  0  0  0  0  0  0  0  0
    6.5340   -1.7780   20.8570 C   0  0  0  0  0  0  0  0  0  0  0  0
    6.2060   -2.5680   22.0550 C   0  0  0  0  0  0  0  0  0  0  0  0
    4.9070   -3.4070   21.8000 O   0  0  0  0  0  0  0  0  0  0  0  0
    7.4890   -2.2940   23.1680 C   0  0  0  0  0  0  0  0  0  0  0  0
    8.8580   -1.9980   23.7270 C   0  0  0  0  0  0  0  0  0  0  0  0
    8.3210   -2.0290   21.8500 C   0  0  0  0  0  0  0  0  0  0  0  0
   10.2830   -1.6890   23.8070 C   0  0  0  0  0  0  0  0  0  0  0  0
    9.5780   -1.8090   22.4170 C   0  0  0  0  0  0  0  0  0  0  0  0
   10.9530   -1.5470   22.4800 C   0  0  0  0  0  0  0  0  0  0  0  0
   12.2810   -1.3270   23.2200 C   0  0  0  0  0  0  0  0  0  0  0  0
   13.1170   -0.2340   22.5920 C   0  0  0  0  0  0  0  0  0  0  0  0
   12.4020    1.0990   22.9530 C   0  0  0  0  0  0  0  0  0  0  0  0
   10.9580    1.0250   22.8720 N   0  0  0  0  0  0  0  0  0  0  0  0
   10.1000    2.1710   23.2890 C   0  0  0  0  0  0  0  0  0  0  0  0
   10.4260    3.3300   23.5530 O   0  0  0  0  0  0  0  0  0  0  0  0
    8.5760    1.8710   23.4030 C   0  0  0  0  0  0  0  0  0  0  0  0
    8.0260    1.4780   24.8100 C   0  0  2  0  0  0  0  0  0  0  0  0
    8.3400    0.1250   25.5210 C   0  0  0  0  0  0  0  0  0  0  0  0
    6.6190    1.6840   24.8410 O   0  0  0  0  0  0  0  0  0  0  0  0
  1  2  1  0
  2  3  1  0
  3  4  2  0
  3  5  1  0
  5  6  2  0
  5  7  1  0
  6  8  1  0
  7  9  2  0
  8 10  2  0
  9 10  1  0
 10 11  1  0
 11 12  1  0
 12 13  1  0
 13 14  1  0
 14 15  1  0
 15 16  2  0
 15 17  1  0
 17 18  1  0
 18 19  1  6
 18 20  1  0
M  END
