NIC-UNI-f08e2453-1
     RDKit          3D

 29 32  0  0  0  0  0  0  0  0999 V2000
   13.3540   -1.7660   24.1180 C   0  0  0  0  0  0  0  0  0  0  0  0
   12.0640   -1.2870   23.7710 N   0  0  0  0  0  0  0  0  0  0  0  0
   11.2080   -1.9680   22.9720 C   0  0  0  0  0  0  0  0  0  0  0  0
   12.1240    0.1200   23.3490 C   0  0  0  0  0  0  0  0  0  0  0  0
    9.7890   -1.4840   23.1890 C   0  0  0  0  0  0  0  0  0  0  0  0
   10.7480    0.8040   23.2720 C   0  0  0  0  0  0  0  0  0  0  0  0
    9.6430   -0.0650   22.8450 N   0  0  0  0  0  0  0  0  0  0  0  0
    8.9240    0.3170   21.7150 C   0  0  0  0  0  0  0  0  0  0  0  0
    9.0110    1.4680   21.2370 O   0  0  0  0  0  0  0  0  0  0  0  0
    8.0420   -0.8070   21.1400 C   0  0  0  0  0  0  0  0  0  0  0  0
    7.1870   -0.3240   20.0190 C   0  0  0  0  0  0  0  0  0  0  0  0
    7.3740   -0.6090   18.6840 C   0  0  0  0  0  0  0  0  0  0  0  0
    6.0300    0.5210   20.1370 C   0  0  0  0  0  0  0  0  0  0  0  0
    6.4060    0.0260   17.9830 N   0  0  0  0  0  0  0  0  0  0  0  0
    5.5240    0.7570   18.8570 C   0  0  0  0  0  0  0  0  0  0  0  0
    5.2680    1.1840   21.2770 C   0  0  0  0  0  0  0  0  0  0  0  0
    4.4680    1.4910   18.5060 N   0  0  0  0  0  0  0  0  0  0  0  0
    4.1570    1.9480   20.9170 C   0  0  0  0  0  0  0  0  0  0  0  0
    3.8230    2.0580   19.5580 C   0  0  0  0  0  0  0  0  0  0  0  0
    3.3330    2.6430   21.9600 C   0  0  0  0  0  0  0  0  0  0  0  0
    4.1750    3.4390   22.8220 N   0  0  0  0  0  0  0  0  0  0  0  0
    4.3970    3.1000   24.1390 C   0  0  0  0  0  0  0  0  0  0  0  0
    3.6360    3.4110   25.0510 O   0  0  0  0  0  0  0  0  0  0  0  0
    5.5670    2.3670   24.4180 C   0  0  0  0  0  0  0  0  0  0  0  0
    5.4410    1.0070   24.7920 C   0  0  0  0  0  0  0  0  0  0  0  0
    6.8590    2.9590   24.3340 C   0  0  0  0  0  0  0  0  0  0  0  0
    6.7660    0.2620   25.0890 C   0  0  0  0  0  0  0  0  0  0  0  0
    8.0380    2.2440   24.6120 C   0  0  0  0  0  0  0  0  0  0  0  0
    7.9980    0.9070   24.9890 C   0  0  0  0  0  0  0  0  0  0  0  0
  1  2  1  0
  2  3  1  0
  2  4  1  0
  3  5  1  0
  4  6  1  0
  5  7  1  0
  6  7  1  0
  7  8  1  0
  8  9  2  0
  8 10  1  0
 10 11  1  0
 11 12  2  0
 11 13  1  0
 12 14  1  0
 13 15  2  0
 14 15  1  0
 13 16  1  0
 15 17  1  0
 16 18  2  0
 17 19  2  0
 18 19  1  0
 18 20  1  0
 20 21  1  0
 21 22  1  0
 22 23  2  0
 22 24  1  0
 24 25  2  0
 24 26  1  0
 25 27  1  0
 26 28  2  0
 27 29  2  0
 28 29  1  0
M  END
