NIC-BIO-ec630548-3
     RDKit          3D

 23 25  0  0  0  0  0  0  0  0999 V2000
    7.8350   -4.8880   23.0660 C   0  0  0  0  0  0  0  0  0  0  0  0
    8.8630   -3.8930   22.7910 N   0  0  0  0  0  0  0  0  0  0  0  0
    8.5120   -2.5400   23.2580 C   0  0  0  0  0  0  0  0  0  0  0  0
    7.3790   -2.1480   23.5160 O   0  0  0  0  0  0  0  0  0  0  0  0
    9.6870   -1.5560   23.4780 C   0  0  1  0  0  0  0  0  0  0  0  0
   11.0850   -2.0200   23.1140 C   0  0  0  0  0  0  0  0  0  0  0  0
    9.5510   -0.1810   22.9230 N   0  0  0  0  0  0  0  0  0  0  0  0
   12.0610   -1.0970   23.6950 N   0  0  0  0  0  0  0  0  0  0  0  0
   10.5920    0.7970   23.3250 C   0  0  0  0  0  0  0  0  0  0  0  0
    8.8940    0.1430   21.7530 C   0  0  0  0  0  0  0  0  0  0  0  0
   13.3870   -1.6350   23.4280 C   0  0  0  0  0  0  0  0  0  0  0  0
   11.9090    0.2910   23.1950 C   0  0  0  0  0  0  0  0  0  0  0  0
    9.0050    1.4220   21.2410 O   0  0  0  0  0  0  0  0  0  0  0  0
    8.0990   -0.8760   21.1230 C   0  0  0  0  0  0  0  0  0  0  0  0
    7.2410   -0.3710   20.0970 C   0  0  0  0  0  0  0  0  0  0  0  0
    7.3880   -0.6290   18.7380 C   0  0  0  0  0  0  0  0  0  0  0  0
    6.0900    0.4690   20.2030 C   0  0  0  0  0  0  0  0  0  0  0  0
    6.4600   -0.0150   18.0310 N   0  0  0  0  0  0  0  0  0  0  0  0
    5.5720    0.7200   18.9020 C   0  0  0  0  0  0  0  0  0  0  0  0
    5.2700    1.1650   21.2920 C   0  0  0  0  0  0  0  0  0  0  0  0
    4.4290    1.5130   18.4720 N   0  0  0  0  0  0  0  0  0  0  0  0
    4.0590    2.0030   20.9260 C   0  0  0  0  0  0  0  0  0  0  0  0
    3.7100    2.1200   19.4530 C   0  0  0  0  0  0  0  0  0  0  0  0
  1  2  1  0
  2  3  1  0
  3  4  2  0
  5  3  1  6
  5  6  1  0
  5  7  1  0
  6  8  1  0
  7  9  1  0
  7 10  1  0
  8 11  1  0
  8 12  1  0
  9 12  1  0
 10 13  2  0
 10 14  1  0
 14 15  1  0
 15 16  2  0
 15 17  1  0
 16 18  1  0
 17 19  2  0
 18 19  1  0
 17 20  1  0
 19 21  1  0
 20 22  2  0
 21 23  2  0
 22 23  1  0
M  END
