NIC-BIO-7d400292-2
     RDKit          3D

 25 26  0  0  0  0  0  0  0  0999 V2000
    7.5460    5.0280   22.2980 C   0  0  0  0  0  0  0  0  0  0  0  0
    7.1430    3.6930   22.8550 C   0  0  0  0  0  0  0  0  0  0  0  0
    6.1910    3.5440   23.6180 O   0  0  0  0  0  0  0  0  0  0  0  0
    7.9390    2.6550   22.4480 N   0  0  0  0  0  0  0  0  0  0  0  0
    7.7920    1.3280   23.0500 C   0  0  1  0  0  0  0  0  0  0  0  0
    6.4680    0.6670   22.6450 C   0  0  0  0  0  0  0  0  0  0  0  0
    9.0090    0.4940   22.6020 C   0  0  0  0  0  0  0  0  0  0  0  0
    6.2330    0.6670   21.1570 C   0  0  0  0  0  0  0  0  0  0  0  0
    9.7730    0.8600   21.7310 O   0  0  0  0  0  0  0  0  0  0  0  0
    9.1630   -0.6840   23.2880 N   0  0  0  0  0  0  0  0  0  0  0  0
    5.4410    1.6610   20.5520 C   0  0  0  0  0  0  0  0  0  0  0  0
    6.8000   -0.3280   20.3650 C   0  0  0  0  0  0  0  0  0  0  0  0
    9.5740   -1.8960   22.6410 C   0  0  0  0  0  0  0  0  0  0  0  0
    5.2250    1.6480   19.1750 C   0  0  0  0  0  0  0  0  0  0  0  0
    6.5760   -0.3300   19.0180 C   0  0  0  0  0  0  0  0  0  0  0  0
    8.3960   -2.8410   22.7220 C   0  0  0  0  0  0  0  0  0  0  0  0
    5.8020    0.6440   18.4220 C   0  0  0  0  0  0  0  0  0  0  0  0
    7.1180   -1.2910   18.2870 F   0  0  0  0  0  0  0  0  0  0  0  0
    7.1790   -2.5370   22.0930 C   0  0  0  0  0  0  0  0  0  0  0  0
    8.4990   -4.0330   23.4340 C   0  0  0  0  0  0  0  0  0  0  0  0
    5.5900    0.6370   17.0990 O   0  0  0  0  0  0  0  0  0  0  0  0
    6.0980   -3.4140   22.1710 C   0  0  0  0  0  0  0  0  0  0  0  0
    7.4230   -4.9170   23.5150 C   0  0  0  0  0  0  0  0  0  0  0  0
    6.2250   -4.6030   22.8800 C   0  0  0  0  0  0  0  0  0  0  0  0
    4.8970   -5.6840   22.9720 Cl  0  0  0  0  0  0  0  0  0  0  0  0
  1  2  1  0
  2  3  2  0
  2  4  1  0
  4  5  1  0
  5  6  1  6
  5  7  1  0
  6  8  1  0
  7  9  2  0
  7 10  1  0
  8 11  2  0
  8 12  1  0
 10 13  1  0
 11 14  1  0
 12 15  2  0
 13 16  1  0
 14 17  2  0
 15 17  1  0
 15 18  1  0
 16 19  2  0
 16 20  1  0
 17 21  1  0
 19 22  1  0
 20 23  2  0
 22 24  2  0
 23 24  1  0
 24 25  1  0
M  END
