NIC-BIO-b40446ce-2
     RDKit          3D

 29 31  0  0  0  0  0  0  0  0999 V2000
    7.5320    4.8220   22.3880 C   0  0  0  0  0  0  0  0  0  0  0  0
    7.1360    3.5030   23.0570 C   0  0  0  0  0  0  0  0  0  0  0  0
    6.3230    3.4540   23.9730 O   0  0  0  0  0  0  0  0  0  0  0  0
    7.7740    2.4030   22.5380 N   0  0  0  0  0  0  0  0  0  0  0  0
    7.7040    1.0880   23.1650 C   0  0  1  0  0  0  0  0  0  0  0  0
    6.4830    0.2620   22.7390 C   0  0  0  0  0  0  0  0  0  0  0  0
    8.9560    0.3440   22.6910 C   0  0  0  0  0  0  0  0  0  0  0  0
    6.2000    0.4870   21.2920 C   0  0  0  0  0  0  0  0  0  0  0  0
   10.0470    1.0100   22.2210 O   0  0  0  0  0  0  0  0  0  0  0  0
    8.8850   -1.0450   22.7750 N   0  0  0  0  0  0  0  0  0  0  0  0
    7.0010   -0.6110   20.9090 C   0  0  0  0  0  0  0  0  0  0  0  0
    5.5970    1.1980   20.3660 C   0  0  0  0  0  0  0  0  0  0  0  0
    9.7660   -1.6510   22.0340 C   0  0  0  0  0  0  0  0  0  0  0  0
    6.9130   -0.6020   19.5590 N   0  0  0  0  0  0  0  0  0  0  0  0
    6.0790    0.4880   19.1990 C   0  0  0  0  0  0  0  0  0  0  0  0
    4.7210    2.3340   20.3050 C   0  0  0  0  0  0  0  0  0  0  0  0
   11.0300   -1.6810   22.8040 C   0  0  0  0  0  0  0  0  0  0  0  0
    5.6080    1.0400   17.8650 C   0  0  0  0  0  0  0  0  0  0  0  0
    4.3310    2.8010   19.0690 C   0  0  0  0  0  0  0  0  0  0  0  0
    4.2870    2.9300   21.4560 O   0  0  0  0  0  0  0  0  0  0  0  0
   11.2950   -2.7510   23.6480 C   0  0  0  0  0  0  0  0  0  0  0  0
   11.9560   -0.6420   22.7010 C   0  0  0  0  0  0  0  0  0  0  0  0
    4.7380    2.2180   17.8880 C   0  0  0  0  0  0  0  0  0  0  0  0
    2.9370    2.7760   21.6000 C   0  0  0  0  0  0  0  0  0  0  0  0
   12.4600   -2.8120   24.3880 C   0  0  0  0  0  0  0  0  0  0  0  0
   13.1170   -0.7340   23.4480 C   0  0  0  0  0  0  0  0  0  0  0  0
    2.3200    1.6090   20.7670 C   0  0  0  0  0  0  0  0  0  0  0  0
    1.9230    3.4510   22.3560 O   0  0  0  0  0  0  0  0  0  0  0  0
   13.3780   -1.8060   24.2860 C   0  0  0  0  0  0  0  0  0  0  0  0
  1  2  1  0
  2  3  2  0
  2  4  1  0
  4  5  1  0
  5  6  1  6
  5  7  1  0
  6  8  1  0
  7  9  2  0
  7 10  1  0
  8 11  2  0
  8 12  1  0
 10 13  1  0
 11 14  1  0
 12 15  2  0
 14 15  1  0
 12 16  1  0
 13 17  1  0
 15 18  1  0
 16 19  2  0
 16 20  1  0
 17 21  2  0
 17 22  1  0
 18 23  2  0
 19 23  1  0
 20 24  1  0
 21 25  1  0
 22 26  2  0
 24 27  1  0
 24 28  2  0
 25 29  2  0
 26 29  1  0
M  END
