NIC-BIO-5044b423-1
     RDKit          3D

 21 23  0  0  0  0  0  0  0  0999 V2000
   13.4210   -1.8650   23.6730 C   0  0  0  0  0  0  0  0  0  0  0  0
   12.1480   -1.2130   23.8500 N   0  0  0  0  0  0  0  0  0  0  0  0
   11.1680   -2.0350   23.1440 C   0  0  0  0  0  0  0  0  0  0  0  0
   12.1670    0.1580   23.2880 C   0  0  0  0  0  0  0  0  0  0  0  0
    9.7750   -1.4540   23.3010 C   0  0  0  0  0  0  0  0  0  0  0  0
   10.7710    0.8160   23.2710 C   0  0  0  0  0  0  0  0  0  0  0  0
    9.7120   -0.0850   22.7920 N   0  0  0  0  0  0  0  0  0  0  0  0
    8.9070    0.2900   21.7230 C   0  0  0  0  0  0  0  0  0  0  0  0
    8.9700    1.4380   21.2330 O   0  0  0  0  0  0  0  0  0  0  0  0
    7.9460   -0.8020   21.2010 C   0  0  1  0  0  0  0  0  0  0  0  0
    7.0200   -1.3660   22.3110 C   0  0  0  0  0  0  0  0  0  0  0  0
    7.1420   -0.3210   20.0280 C   0  0  0  0  0  0  0  0  0  0  0  0
    6.8280   -2.7820   22.2950 O   0  0  0  0  0  0  0  0  0  0  0  0
    7.3550   -0.5730   18.6950 C   0  0  0  0  0  0  0  0  0  0  0  0
    5.9900    0.5030   20.1010 C   0  0  0  0  0  0  0  0  0  0  0  0
    6.4030    0.0680   17.9700 N   0  0  0  0  0  0  0  0  0  0  0  0
    5.5590    0.7290   18.8030 C   0  0  0  0  0  0  0  0  0  0  0  0
    5.2550    1.0920   21.1370 C   0  0  0  0  0  0  0  0  0  0  0  0
    4.5130    1.4560   18.4120 N   0  0  0  0  0  0  0  0  0  0  0  0
    4.1470    1.8570   20.7820 C   0  0  0  0  0  0  0  0  0  0  0  0
    3.8320    2.0010   19.4410 C   0  0  0  0  0  0  0  0  0  0  0  0
  1  2  1  0
  2  3  1  0
  2  4  1  0
  3  5  1  0
  4  6  1  0
  5  7  1  0
  6  7  1  0
  7  8  1  0
  8  9  2  0
  8 10  1  0
 10 11  1  1
 10 12  1  0
 11 13  1  0
 12 14  2  0
 12 15  1  0
 14 16  1  0
 15 17  2  0
 16 17  1  0
 15 18  1  0
 17 19  1  0
 18 20  2  0
 19 21  2  0
 20 21  1  0
M  END
