NIC-BIO-2722da07-1
     RDKit          3D

 24 26  0  0  0  0  0  0  0  0999 V2000
    4.8360   -2.5330   22.5770 C   0  0  0  0  0  0  0  0  0  0  0  0
    5.9090   -2.4160   23.6730 C   0  0  0  0  0  0  0  0  0  0  0  0
    5.9000   -3.0810   24.7070 O   0  0  0  0  0  0  0  0  0  0  0  0
    6.7550   -1.5850   23.3480 O   0  0  0  0  0  0  0  0  0  0  0  0
    7.4210   -1.9100   22.1150 C   0  0  0  0  0  0  0  0  0  0  0  0
    8.0360   -0.8760   21.1770 C   0  0  2  0  0  0  0  0  0  0  0  0
    8.9610    0.2130   21.7680 C   0  0  0  0  0  0  0  0  0  0  0  0
    7.1790   -0.3540   20.0240 C   0  0  0  0  0  0  0  0  0  0  0  0
    8.9600    1.3670   21.2790 O   0  0  0  0  0  0  0  0  0  0  0  0
    9.7990   -0.0580   22.8070 N   0  0  0  0  0  0  0  0  0  0  0  0
    7.3450   -0.5690   18.6730 C   0  0  0  0  0  0  0  0  0  0  0  0
    6.0490    0.4520   20.0990 C   0  0  0  0  0  0  0  0  0  0  0  0
   10.7040    0.8590   23.2240 C   0  0  0  0  0  0  0  0  0  0  0  0
    9.9420   -1.3610   23.2390 C   0  0  0  0  0  0  0  0  0  0  0  0
    6.4150    0.0550   17.9640 N   0  0  0  0  0  0  0  0  0  0  0  0
    5.5850    0.7020   18.8150 C   0  0  0  0  0  0  0  0  0  0  0  0
    5.4060    0.9750   21.2020 C   0  0  0  0  0  0  0  0  0  0  0  0
   12.0570    0.1820   23.4090 C   0  0  0  0  0  0  0  0  0  0  0  0
   11.2170   -1.8200   22.9150 C   0  0  0  0  0  0  0  0  0  0  0  0
    4.5300    1.4370   18.5060 N   0  0  0  0  0  0  0  0  0  0  0  0
    4.2770    1.7600   20.9670 C   0  0  0  0  0  0  0  0  0  0  0  0
   12.1160   -1.1130   23.6580 N   0  0  0  0  0  0  0  0  0  0  0  0
    3.8330    1.9970   19.6530 C   0  0  0  0  0  0  0  0  0  0  0  0
   13.3640   -1.6150   23.4250 C   0  0  0  0  0  0  0  0  0  0  0  0
  1  2  1  0
  2  3  2  0
  2  4  1  0
  4  5  1  0
  6  5  1  1
  6  7  1  0
  6  8  1  0
  7  9  2  0
  7 10  1  0
  8 11  2  0
  8 12  1  0
 10 13  1  0
 10 14  1  0
 11 15  1  0
 12 16  2  0
 15 16  1  0
 12 17  1  0
 13 18  1  0
 14 19  1  0
 16 20  1  0
 17 21  2  0
 18 22  1  0
 19 22  1  0
 20 23  2  0
 21 23  1  0
 22 24  1  0
M  END
