NIC-BIO-174c9b04-1
     RDKit          3D

 20 22  0  0  0  0  0  0  0  0999 V2000
    8.6220   -1.8920   21.2480 C   0  0  0  0  0  0  0  0  0  0  0  0
    7.8750   -0.6610   21.5860 C   0  0  1  0  0  0  0  0  0  0  0  0
    8.9410    0.4000   21.8240 C   0  0  0  0  0  0  0  0  0  0  0  0
    7.1220   -0.2690   20.2780 C   0  0  0  0  0  0  0  0  0  0  0  0
    8.9220    1.6890   21.1830 O   0  0  0  0  0  0  0  0  0  0  0  0
    9.9430   -0.0550   22.7710 N   0  0  0  0  0  0  0  0  0  0  0  0
    7.3970   -0.6350   18.9490 C   0  0  0  0  0  0  0  0  0  0  0  0
    5.9760    0.5650   20.2450 C   0  0  0  0  0  0  0  0  0  0  0  0
    9.9350   -1.2630   23.4140 C   0  0  0  0  0  0  0  0  0  0  0  0
   10.9020    0.7990   23.2940 C   0  0  0  0  0  0  0  0  0  0  0  0
    6.4990   -0.0490   18.1200 N   0  0  0  0  0  0  0  0  0  0  0  0
    5.5780    0.7190   18.9400 C   0  0  0  0  0  0  0  0  0  0  0  0
    5.1830    1.2400   21.1570 C   0  0  0  0  0  0  0  0  0  0  0  0
   11.1080   -1.7660   22.9200 C   0  0  0  0  0  0  0  0  0  0  0  0
   12.1790    0.2400   23.3530 C   0  0  0  0  0  0  0  0  0  0  0  0
    4.4680    1.4940   18.5280 N   0  0  0  0  0  0  0  0  0  0  0  0
    4.0850    1.9910   20.6890 C   0  0  0  0  0  0  0  0  0  0  0  0
   12.1170   -1.1730   23.6030 N   0  0  0  0  0  0  0  0  0  0  0  0
    3.6430    2.1790   19.3640 C   0  0  0  0  0  0  0  0  0  0  0  0
   13.3160   -1.8100   23.6560 C   0  0  0  0  0  0  0  0  0  0  0  0
  2  1  1  6
  2  3  1  0
  2  4  1  0
  3  5  2  0
  3  6  1  0
  4  7  2  0
  4  8  1  0
  6  9  1  0
  6 10  1  0
  7 11  1  0
  8 12  2  0
 11 12  1  0
  8 13  1  0
  9 14  1  0
 10 15  1  0
 12 16  1  0
 13 17  2  0
 14 18  1  0
 15 18  1  0
 16 19  2  0
 17 19  1  0
 18 20  1  0
M  END
