NIM-UNI-310206f0-4-chloroacetamide
     RDKit          3D

 22 24  0  0  0  0  0  0  0  0999 V2000
    7.0740   -3.0090   18.9040 C   0  0  0  0  0  0  0  0  0  0  0  0
    6.1590   -3.4870   20.0210 C   0  0  0  0  0  0  0  0  0  0  0  0
    5.2480   -4.2740   19.7690 O   0  0  0  0  0  0  0  0  0  0  0  0
    6.3820   -3.0730   21.3290 N   0  0  0  0  0  0  0  0  0  0  0  0
    6.6460   -3.9790   22.3920 C   0  0  0  0  0  0  0  0  0  0  0  0
    6.7370   -1.6850   21.5940 C   0  0  0  0  0  0  0  0  0  0  0  0
    7.6520   -3.7000   23.3300 C   0  0  0  0  0  0  0  0  0  0  0  0
    6.5510   -1.5600   22.9570 C   0  0  0  0  0  0  0  0  0  0  0  0
    7.5960   -2.2790   23.7000 N   0  0  0  0  0  0  0  0  0  0  0  0
    8.8810   -1.6310   23.5630 C   0  0  0  0  0  0  0  0  0  0  0  0
    8.7150   -0.3080   23.1300 C   0  0  0  0  0  0  0  0  0  0  0  0
   10.1870   -2.1290   23.7790 C   0  0  0  0  0  0  0  0  0  0  0  0
    7.5310    0.2770   22.9010 F   0  0  0  0  0  0  0  0  0  0  0  0
    9.9030    0.5060   22.8900 C   0  0  0  0  0  0  0  0  0  0  0  0
   11.3020   -1.3880   23.5730 C   0  0  0  0  0  0  0  0  0  0  0  0
   10.4440   -3.3520   24.1780 F   0  0  0  0  0  0  0  0  0  0  0  0
   11.1660   -0.1230   23.1280 C   0  0  0  0  0  0  0  0  0  0  0  0
   12.2580    0.6340   22.8250 C   0  0  0  0  0  0  0  0  0  0  0  0
   12.6030    2.1130   22.9760 C   0  0  0  0  0  0  0  0  0  0  0  0
   13.5390    0.3060   22.1790 C   0  0  0  0  0  0  0  0  0  0  0  0
   13.7790    2.5240   22.5300 N   0  0  0  0  0  0  0  0  0  0  0  0
   14.3020    1.4140   22.0580 N   0  0  0  0  0  0  0  0  0  0  0  0
  1  2  1  0
  2  3  2  0
  2  4  1  0
  4  5  1  0
  4  6  1  0
  5  7  1  0
  6  8  1  0
  7  9  1  0
  8  9  1  0
  9 10  1  0
 10 11  2  0
 10 12  1  0
 11 13  1  0
 11 14  1  0
 12 15  2  0
 12 16  1  0
 14 17  2  0
 15 17  1  0
 17 18  1  0
 18 19  1  0
 18 20  2  0
 19 21  2  0
 20 22  1  0
 21 22  1  0
M  END
