NIM-UNI-43fe0159-7-vinylsulfonamide
     RDKit          3D

 21 22  0  0  0  0  0  0  0  0999 V2000
    7.0980   -3.7650   19.6800 C   0  0  0  0  0  0  0  0  0  0  0  0
    6.6190   -4.7900   20.4160 C   0  0  0  0  0  0  0  0  0  0  0  0
    5.2810   -4.3070   21.3790 S   0  0  0  0  0  0  0  0  0  0  0  0
    4.5580   -5.3900   21.9810 O   0  0  0  0  0  0  0  0  0  0  0  0
    4.6360   -3.4310   20.4500 O   0  0  0  0  0  0  0  0  0  0  0  0
    5.9760   -3.3330   22.4150 N   0  0  0  0  0  0  0  0  0  0  0  0
    6.2910   -2.1360   21.6140 C   0  0  0  0  0  0  0  0  0  0  0  0
    6.9500   -4.0410   23.2620 C   0  0  0  0  0  0  0  0  0  0  0  0
    7.7050   -1.6760   21.7550 C   0  0  0  0  0  0  0  0  0  0  0  0
    8.2640   -3.5850   23.0640 O   0  0  0  0  0  0  0  0  0  0  0  0
    8.1830   -2.1840   23.0690 C   0  0  1  0  0  0  0  0  0  0  0  0
    9.4720   -1.6420   23.3700 C   0  0  0  0  0  0  0  0  0  0  0  0
    9.6110   -1.0580   24.6080 C   0  0  0  0  0  0  0  0  0  0  0  0
   10.5020   -1.6990   22.4540 C   0  0  0  0  0  0  0  0  0  0  0  0
   10.7950   -0.5210   24.9270 C   0  0  0  0  0  0  0  0  0  0  0  0
   11.6840   -1.1570   22.7670 C   0  0  0  0  0  0  0  0  0  0  0  0
   11.8480   -0.5540   24.0020 C   0  0  0  0  0  0  0  0  0  0  0  0
   12.9990   -0.0460   24.1840 N   0  0  0  0  0  0  0  0  0  0  0  0
   13.1640    0.6130   23.0590 C   0  0  0  0  0  0  0  0  0  0  0  0
   12.7180    1.9450   22.9580 C   0  0  0  0  0  0  0  0  0  0  0  0
   13.7010   -0.0440   21.9420 O   0  0  0  0  0  0  0  0  0  0  0  0
  1  2  1  0
  3  2  1  0
  3  4  2  0
  3  5  2  0
  3  6  1  0
  6  7  1  0
  6  8  1  0
  7  9  1  0
  8 10  1  0
  9 11  1  0
 10 11  1  0
 11 12  1  6
 12 13  2  0
 12 14  1  0
 13 15  1  0
 14 16  2  0
 15 17  2  0
 16 17  1  0
 17 18  1  0
 18 19  1  0
 19 20  1  0
 19 21  2  0
M  END
