NIM-UNI-310206f0-11-acrylamide
     RDKit          3D

 33 36  0  0  0  0  0  0  0  0999 V2000
    7.1320   -2.9190   18.6960 C   0  0  0  0  0  0  0  0  0  0  0  0
    6.1650   -2.6080   19.8630 C   0  0  0  0  0  0  0  0  0  0  0  0
    5.6970   -3.8100   20.6910 C   0  0  0  0  0  0  0  0  0  0  0  0
    5.0570   -4.0780   19.6720 O   0  0  0  0  0  0  0  0  0  0  0  0
    6.5400   -3.1920   21.6390 N   0  0  0  0  0  0  0  0  0  0  0  0
    6.6790   -3.8390   22.9310 C   0  0  0  0  0  0  0  0  0  0  0  0
    6.5280   -1.7320   21.7940 C   0  0  0  0  0  0  0  0  0  0  0  0
    7.4940   -3.2340   23.8970 C   0  0  0  0  0  0  0  0  0  0  0  0
    6.1420   -1.3270   23.2310 C   0  0  0  0  0  0  0  0  0  0  0  0
    7.1180   -1.8320   24.2390 N   0  0  0  0  0  0  0  0  0  0  0  0
    8.2670   -0.9120   24.2020 C   0  0  0  0  0  0  0  0  0  0  0  0
    9.6120   -1.5320   24.1040 C   0  0  0  0  0  0  0  0  0  0  0  0
    8.1520    0.4970   24.2310 C   0  0  0  0  0  0  0  0  0  0  0  0
    9.8420   -2.8150   24.0820 F   0  0  0  0  0  0  0  0  0  0  0  0
   10.7590   -0.6780   24.0040 C   0  0  0  0  0  0  0  0  0  0  0  0
    9.2630    1.3320   24.1300 C   0  0  0  0  0  0  0  0  0  0  0  0
    6.9480    1.0810   24.3410 F   0  0  0  0  0  0  0  0  0  0  0  0
   10.5260    0.7610   23.9970 C   0  0  0  0  0  0  0  0  0  0  0  0
   11.6770    1.3500   23.8030 N   0  0  0  0  0  0  0  0  0  0  0  0
   11.9980    0.3210   22.9950 C   0  0  0  0  0  0  0  0  0  0  0  0
   11.6650    2.7110   23.2940 C   0  0  0  0  0  0  0  0  0  0  0  0
   13.2940   -0.0930   22.3650 C   0  0  0  0  0  0  0  0  0  0  0  0
   10.9110   -0.5330   22.6810 C   0  0  0  0  0  0  0  0  0  0  0  0
   10.5090    3.4410   23.3360 N   0  0  0  0  0  0  0  0  0  0  0  0
   12.8390    3.1990   22.8000 N   0  0  0  0  0  0  0  0  0  0  0  0
   13.3180   -1.3550   21.4780 C   0  0  0  0  0  0  0  0  0  0  0  0
   10.9700   -1.6700   21.8820 C   0  0  0  0  0  0  0  0  0  0  0  0
   10.4830    4.7090   22.8800 C   0  0  0  0  0  0  0  0  0  0  0  0
   12.9210    4.4520   22.3180 C   0  0  0  0  0  0  0  0  0  0  0  0
   12.1480   -2.0730   21.2970 C   0  0  0  0  0  0  0  0  0  0  0  0
   11.7020    5.3500   22.3190 C   0  0  0  0  0  0  0  0  0  0  0  0
   12.2980   -3.1570   20.5090 O   0  0  0  0  0  0  0  0  0  0  0  0
   13.5680   -3.7270   20.5530 C   0  0  0  0  0  0  0  0  0  0  0  0
  1  2  1  0
  2  3  1  0
  3  4  2  0
  3  5  1  0
  5  6  1  0
  5  7  1  0
  6  8  1  0
  7  9  1  0
  8 10  1  0
  9 10  1  0
 10 11  1  0
 11 12  2  0
 11 13  1  0
 12 14  1  0
 12 15  1  0
 13 16  2  0
 13 17  1  0
 15 18  2  0
 16 18  1  0
 18 19  1  0
 19 20  1  0
 19 21  1  0
 20 22  2  0
 20 23  1  0
 21 24  2  0
 21 25  1  0
 22 26  1  0
 23 27  2  0
 24 28  1  0
 25 29  2  0
 26 30  2  0
 27 30  1  0
 28 31  2  0
 29 31  1  0
 30 32  1  0
 32 33  1  0
M  END
