NIM-UNI-310206f0-16-bromoalkyne
     RDKit          3D

 33 36  0  0  0  0  0  0  0  0999 V2000
    6.7380   -3.7480   20.0780 C   0  0  0  0  0  0  0  0  0  0  0  0
    5.6290   -3.1330   19.2280 C   0  0  0  0  0  0  0  0  0  0  0  0
    7.0560   -3.1620   21.3400 N   0  0  0  0  0  0  0  0  0  0  0  0
    6.0820   -3.0340   22.4690 C   0  0  0  0  0  0  0  0  0  0  0  0
    7.9530   -1.9880   21.3400 C   0  0  0  0  0  0  0  0  0  0  0  0
    6.9000   -2.8060   23.8350 C   0  0  0  0  0  0  0  0  0  0  0  0
    7.5180   -0.9450   22.4070 C   0  0  0  0  0  0  0  0  0  0  0  0
    7.6690   -1.5040   23.7620 N   0  0  0  0  0  0  0  0  0  0  0  0
    9.1080   -1.6640   24.1360 C   0  0  0  0  0  0  0  0  0  0  0  0
    9.9790   -0.5140   24.7400 C   0  0  0  0  0  0  0  0  0  0  0  0
    9.6420   -2.8580   23.9080 C   0  0  0  0  0  0  0  0  0  0  0  0
    9.5070    0.7140   25.0170 F   0  0  0  0  0  0  0  0  0  0  0  0
   11.5370   -0.8690   24.9980 C   0  0  0  0  0  0  0  0  0  0  0  0
   11.0770   -3.1620   24.1590 C   0  0  0  0  0  0  0  0  0  0  0  0
    8.8510   -3.8240   23.4180 F   0  0  0  0  0  0  0  0  0  0  0  0
   11.9930   -2.3200   24.6160 C   0  0  0  0  0  0  0  0  0  0  0  0
   13.2990   -3.0070   24.5560 N   0  0  0  0  0  0  0  0  0  0  0  0
   14.5270   -3.2930   25.3810 C   0  0  0  0  0  0  0  0  0  0  0  0
   13.3900   -2.4100   23.3270 C   0  0  0  0  0  0  0  0  0  0  0  0
   14.8510   -2.5870   26.3210 O   0  0  0  0  0  0  0  0  0  0  0  0
   15.3930   -4.4860   25.0830 N   0  0  0  0  0  0  0  0  0  0  0  0
   13.3820   -3.1800   22.2490 N   0  0  0  0  0  0  0  0  0  0  0  0
   13.4340   -1.0640   23.3620 N   0  0  0  0  0  0  0  0  0  0  0  0
   16.4790   -4.5990   24.1530 C   0  0  0  0  0  0  0  0  0  0  0  0
   13.4400   -2.6170   21.0710 C   0  0  0  0  0  0  0  0  0  0  0  0
   13.4980   -0.4540   22.2140 C   0  0  0  0  0  0  0  0  0  0  0  0
   16.5740   -4.9800   22.7600 C   0  0  0  0  0  0  0  0  0  0  0  0
   17.9000   -4.3080   24.3400 C   0  0  0  0  0  0  0  0  0  0  0  0
   13.5180   -1.3000   20.9690 C   0  0  0  0  0  0  0  0  0  0  0  0
   15.7850   -5.3940   21.5370 C   0  0  0  0  0  0  0  0  0  0  0  0
   17.7720   -4.9230   22.3590 N   0  0  0  0  0  0  0  0  0  0  0  0
   18.5290   -4.5180   23.3430 O   0  0  0  0  0  0  0  0  0  0  0  0
   19.0130   -3.8300   25.2270 C   0  0  0  0  0  0  0  0  0  0  0  0
  1  2  2  3
  1  3  1  0
  3  4  1  0
  3  5  1  0
  4  6  1  0
  5  7  1  0
  6  8  1  0
  7  8  1  0
  8  9  1  0
  9 10  2  0
  9 11  1  0
 10 12  1  0
 10 13  1  0
 11 14  2  0
 11 15  1  0
 13 16  2  0
 14 16  1  0
 16 17  1  0
 17 18  1  0
 17 19  1  0
 18 20  2  0
 18 21  1  0
 19 22  2  0
 19 23  1  0
 21 24  1  0
 22 25  1  0
 23 26  2  0
 24 27  1  0
 24 28  2  0
 25 29  2  0
 26 29  1  0
 27 30  1  0
 27 31  2  0
 28 32  1  0
 31 32  1  0
 28 33  1  0
M  END
