NIM-NMI-8bb27a2b-14-bromoalkyne
     RDKit          3D

 30 32  0  0  0  0  0  0  0  0999 V2000
    7.0690   -4.3490   20.3250 C   0  0  0  0  0  0  0  0  0  0  0  0
    5.8940   -5.2820   20.1040 C   0  0  0  0  0  0  0  0  0  0  0  0
    6.9960   -3.2920   21.2040 N   0  0  0  0  0  0  0  0  0  0  0  0
    6.1700   -2.1300   20.9290 C   0  0  0  0  0  0  0  0  0  0  0  0
    8.0410   -3.0330   22.0690 C   0  0  1  0  0  0  0  0  0  0  0  0
    6.5240   -1.2390   19.8590 C   0  0  0  0  0  0  0  0  0  0  0  0
    5.0730   -1.6430   21.4870 N   0  0  0  0  0  0  0  0  0  0  0  0
    8.9580   -1.7890   21.8930 C   0  0  0  0  0  0  0  0  0  0  0  0
    7.4720   -3.0250   23.3310 C   0  0  0  0  0  0  0  0  0  0  0  0
    5.5510   -0.3170   19.9330 C   0  0  0  0  0  0  0  0  0  0  0  0
    4.7430   -0.5560   20.8460 O   0  0  0  0  0  0  0  0  0  0  0  0
   10.1710   -1.9540   21.8170 O   0  0  0  0  0  0  0  0  0  0  0  0
    8.2210   -0.6500   21.8500 N   0  0  0  0  0  0  0  0  0  0  0  0
    7.6860   -1.9710   24.2160 C   0  0  0  0  0  0  0  0  0  0  0  0
    6.6620   -4.0760   23.7490 C   0  0  0  0  0  0  0  0  0  0  0  0
    5.5270    0.7380   19.0730 C   0  0  0  0  0  0  0  0  0  0  0  0
    8.6580    0.2640   22.7640 C   0  0  0  0  0  0  0  0  0  0  0  0
    7.0790   -2.0100   25.4710 C   0  0  0  0  0  0  0  0  0  0  0  0
    6.0620   -4.1370   24.9700 N   0  0  0  0  0  0  0  0  0  0  0  0
    4.6090    0.6180   18.0620 C   0  0  0  0  0  0  0  0  0  0  0  0
    5.1610    2.0600   19.7430 C   0  0  0  0  0  0  0  0  0  0  0  0
    6.6980    1.0200   18.4390 C   0  0  0  0  0  0  0  0  0  0  0  0
   10.1110   -0.0040   23.0840 C   0  0  0  0  0  0  0  0  0  0  0  0
    6.2810   -3.0980   25.8100 C   0  0  0  0  0  0  0  0  0  0  0  0
   10.9900    0.9370   22.6560 C   0  0  0  0  0  0  0  0  0  0  0  0
   10.6990   -1.0740   23.7650 C   0  0  0  0  0  0  0  0  0  0  0  0
   12.3370    0.8810   22.8410 C   0  0  0  0  0  0  0  0  0  0  0  0
   12.1010   -1.1750   23.9790 C   0  0  0  0  0  0  0  0  0  0  0  0
   12.9050   -0.1550   23.4880 C   0  0  0  0  0  0  0  0  0  0  0  0
   12.7260   -2.5320   24.8100 Cl  0  0  0  0  0  0  0  0  0  0  0  0
  1  2  2  3
  1  3  1  0
  3  4  1  0
  3  5  1  0
  4  6  1  0
  4  7  2  0
  5  8  1  6
  5  9  1  0
  6 10  2  0
  7 11  1  0
 10 11  1  0
  8 12  2  0
  8 13  1  0
  9 14  2  0
  9 15  1  0
 10 16  1  0
 13 17  1  0
 14 18  1  0
 15 19  2  0
 16 20  1  0
 16 21  1  0
 16 22  1  0
 17 23  1  0
 18 24  2  0
 19 24  1  0
 23 25  2  0
 23 26  1  0
 25 27  1  0
 26 28  2  0
 27 29  2  0
 28 29  1  0
 28 30  1  0
M  END
