NIM-UNI-310206f0-44-vinylsulfonamide
     RDKit          3D

 31 34  0  0  0  0  0  0  0  0999 V2000
    7.5860   -2.9290   18.8150 C   0  0  0  0  0  0  0  0  0  0  0  0
    6.1240   -2.6110   19.0120 C   0  0  0  0  0  0  0  0  0  0  0  0
    5.5910   -3.5270   20.4350 S   0  0  0  0  0  0  0  0  0  0  0  0
    4.6450   -2.8450   21.1510 O   0  0  0  0  0  0  0  0  0  0  0  0
    5.3230   -4.9010   20.0670 O   0  0  0  0  0  0  0  0  0  0  0  0
    6.8010   -3.3300   21.5020 N   0  0  0  0  0  0  0  0  0  0  0  0
    6.7320   -4.0650   22.7620 C   0  0  0  0  0  0  0  0  0  0  0  0
    7.0360   -1.8990   21.6690 C   0  0  0  0  0  0  0  0  0  0  0  0
    8.0490   -3.6100   23.4630 C   0  0  0  0  0  0  0  0  0  0  0  0
    6.7760   -1.6030   23.1330 C   0  0  0  0  0  0  0  0  0  0  0  0
    7.8610   -2.2070   23.8740 N   0  0  0  0  0  0  0  0  0  0  0  0
    9.0430   -1.4080   23.6750 C   0  0  0  0  0  0  0  0  0  0  0  0
    8.6190   -0.0030   23.1750 C   0  0  0  0  0  0  0  0  0  0  0  0
   10.3470   -1.7780   23.8640 C   0  0  0  0  0  0  0  0  0  0  0  0
    7.3580    0.4150   22.9760 F   0  0  0  0  0  0  0  0  0  0  0  0
    9.7700    0.9820   22.8770 C   0  0  0  0  0  0  0  0  0  0  0  0
   11.4310   -0.8270   23.5960 C   0  0  0  0  0  0  0  0  0  0  0  0
   10.7380   -2.9760   24.2780 F   0  0  0  0  0  0  0  0  0  0  0  0
   11.1780    0.4290   23.1300 C   0  0  0  0  0  0  0  0  0  0  0  0
   12.2890    1.1940   22.8810 N   0  0  0  0  0  0  0  0  0  0  0  0
   13.4190    0.3170   22.8040 C   0  0  0  0  0  0  0  0  0  0  0  0
   12.2280    2.6220   22.9450 C   0  0  0  0  0  0  0  0  0  0  0  0
   13.3350   -0.9410   21.8930 C   0  0  0  0  0  0  0  0  0  0  0  0
   13.3890    3.5290   22.5790 C   0  0  0  0  0  0  0  0  0  0  0  0
   11.0500    3.2290   23.3690 N   0  0  0  0  0  0  0  0  0  0  0  0
   12.3790   -1.8210   21.7750 C   0  0  0  0  0  0  0  0  0  0  0  0
   13.2010   -2.3920   22.7050 C   0  0  0  0  0  0  0  0  0  0  0  0
   13.2070    5.0220   22.7040 C   0  0  0  0  0  0  0  0  0  0  0  0
   10.9020    4.5830   23.4800 C   0  0  0  0  0  0  0  0  0  0  0  0
   11.8800    5.5210   23.1880 C   0  0  0  0  0  0  0  0  0  0  0  0
   11.7450    6.8910   23.3060 C   0  0  0  0  0  0  0  0  0  0  0  0
  1  2  1  0
  3  2  1  0
  3  4  2  0
  3  5  2  0
  3  6  1  0
  6  7  1  0
  6  8  1  0
  7  9  1  0
  8 10  1  0
  9 11  1  0
 10 11  1  0
 11 12  1  0
 12 13  2  0
 12 14  1  0
 13 15  1  0
 13 16  1  0
 14 17  2  0
 14 18  1  0
 16 19  2  0
 17 19  1  0
 19 20  1  0
 20 21  1  0
 20 22  1  0
 21 23  1  0
 22 24  2  0
 22 25  1  0
 23 26  1  0
 23 27  1  0
 26 27  1  0
 24 28  1  0
 25 29  2  0
 28 30  2  0
 29 30  1  0
 30 31  1  0
M  END
