NIM-UNI-310206f0-27-nitrile
     RDKit          3D

 30 33  0  0  0  0  0  0  0  0999 V2000
    7.3680   -3.6200   20.1290 C   0  0  0  0  0  0  0  0  0  0  0  0
    6.1270   -3.8790   19.7660 N   0  0  0  0  0  0  0  0  0  0  0  0
    7.8190   -2.9050   21.3090 N   0  0  0  0  0  0  0  0  0  0  0  0
    7.3470   -1.5750   21.7790 C   0  0  0  0  0  0  0  0  0  0  0  0
    9.0200   -3.2990   22.1070 C   0  0  0  0  0  0  0  0  0  0  0  0
    8.6470   -0.6510   21.7690 C   0  0  0  0  0  0  0  0  0  0  0  0
    9.4410   -2.3760   23.2970 C   0  0  0  0  0  0  0  0  0  0  0  0
    9.6190   -0.9700   22.8870 N   0  0  0  0  0  0  0  0  0  0  0  0
   10.8650   -0.3650   22.6400 C   0  0  0  0  0  0  0  0  0  0  0  0
   11.0900    1.1890   22.8350 C   0  0  0  0  0  0  0  0  0  0  0  0
   11.9740   -1.0830   22.1820 C   0  0  0  0  0  0  0  0  0  0  0  0
   10.1080    1.9910   23.2860 F   0  0  0  0  0  0  0  0  0  0  0  0
   12.4880    1.8450   22.4560 C   0  0  0  0  0  0  0  0  0  0  0  0
   13.3340   -0.4830   21.7890 C   0  0  0  0  0  0  0  0  0  0  0  0
   11.8810   -2.4010   22.0270 F   0  0  0  0  0  0  0  0  0  0  0  0
   13.6040    0.9080   21.8590 C   0  0  0  0  0  0  0  0  0  0  0  0
   14.8980    1.5840   21.3370 N   0  0  0  0  0  0  0  0  0  0  0  0
   15.5010    1.0280   19.7450 C   0  0  0  0  0  0  0  0  0  0  0  0
   15.2140    3.3270   21.8510 S   0  0  0  0  0  0  0  0  0  0  0  0
   16.2030    1.8580   18.7640 C   0  0  0  0  0  0  0  0  0  0  0  0
   14.0520    3.8140   22.5940 O   0  0  0  0  0  0  0  0  0  0  0  0
   15.5100    3.8970   20.5490 O   0  0  0  0  0  0  0  0  0  0  0  0
   16.6330    3.9590   22.7970 C   0  0  0  0  0  0  0  0  0  0  0  0
   15.6910    1.9270   17.5490 C   0  0  0  0  0  0  0  0  0  0  0  0
   15.3720    3.1320   18.0560 C   0  0  0  0  0  0  0  0  0  0  0  0
   16.4460    5.1660   23.2990 C   0  0  0  0  0  0  0  0  0  0  0  0
   17.8940    3.5730   23.1780 C   0  0  0  0  0  0  0  0  0  0  0  0
   17.5710    5.9300   24.0310 C   0  0  0  0  0  0  0  0  0  0  0  0
   18.9540    4.1930   23.8350 N   0  0  0  0  0  0  0  0  0  0  0  0
   18.9100    5.3910   24.2610 C   0  0  0  0  0  0  0  0  0  0  0  0
  1  2  2  3
  1  3  1  0
  3  4  1  0
  3  5  1  0
  4  6  1  0
  5  7  1  0
  6  8  1  0
  7  8  1  0
  8  9  1  0
  9 10  2  0
  9 11  1  0
 10 12  1  0
 10 13  1  0
 11 14  2  0
 11 15  1  0
 13 16  2  0
 14 16  1  0
 16 17  1  0
 17 18  1  0
 19 17  1  0
 18 20  1  0
 19 21  2  0
 19 22  2  0
 19 23  1  0
 20 24  1  0
 20 25  1  0
 24 25  1  0
 23 26  2  0
 23 27  1  0
 26 28  1  0
 27 29  2  0
 28 30  2  0
 29 30  1  0
M  END
