NIM-UNI-310206f0-22-nitrile
     RDKit          3D

 32 35  0  0  0  0  0  0  0  0999 V2000
    6.8320   -3.6700   19.9300 C   0  0  0  0  0  0  0  0  0  0  0  0
    5.7230   -3.5850   19.3090 N   0  0  0  0  0  0  0  0  0  0  0  0
    7.0720   -2.8920   21.0290 N   0  0  0  0  0  0  0  0  0  0  0  0
    6.7100   -3.2830   22.3940 C   0  0  0  0  0  0  0  0  0  0  0  0
    7.9730   -1.7490   20.9970 C   0  0  0  0  0  0  0  0  0  0  0  0
    8.0680   -3.7890   23.0340 C   0  0  0  0  0  0  0  0  0  0  0  0
    9.3310   -2.1860   21.5180 C   0  0  0  0  0  0  0  0  0  0  0  0
    9.2280   -2.8480   22.7840 N   0  0  0  0  0  0  0  0  0  0  0  0
    9.4990   -2.0170   23.7260 C   0  0  0  0  0  0  0  0  0  0  0  0
   10.9240   -1.4950   24.0870 C   0  0  0  0  0  0  0  0  0  0  0  0
    8.4240   -1.6050   24.3840 C   0  0  0  0  0  0  0  0  0  0  0  0
   12.0580   -1.8650   23.4500 F   0  0  0  0  0  0  0  0  0  0  0  0
   10.9590   -0.4840   25.2680 C   0  0  0  0  0  0  0  0  0  0  0  0
    8.4040   -0.6590   25.4880 C   0  0  0  0  0  0  0  0  0  0  0  0
    7.2580   -2.0850   24.0140 F   0  0  0  0  0  0  0  0  0  0  0  0
    9.5410   -0.1150   25.9380 C   0  0  0  0  0  0  0  0  0  0  0  0
    9.2520    0.7850   27.0430 N   0  0  0  0  0  0  0  0  0  0  0  0
    9.2630    0.2220   28.3910 C   0  0  0  0  0  0  0  0  0  0  0  0
    8.1890    1.6150   26.7460 C   0  0  0  0  0  0  0  0  0  0  0  0
    8.4180   -0.5630   28.8310 O   0  0  0  0  0  0  0  0  0  0  0  0
   10.3420    0.6740   29.1490 N   0  0  0  0  0  0  0  0  0  0  0  0
    7.5010    2.1800   27.7740 N   0  0  0  0  0  0  0  0  0  0  0  0
    7.8910    1.8220   25.4390 N   0  0  0  0  0  0  0  0  0  0  0  0
   10.4200    1.2260   30.4510 C   0  0  0  0  0  0  0  0  0  0  0  0
    6.4600    3.0030   27.5140 C   0  0  0  0  0  0  0  0  0  0  0  0
    6.8740    2.6280   25.0910 C   0  0  0  0  0  0  0  0  0  0  0  0
   10.0870    2.6540   30.8640 C   0  0  0  0  0  0  0  0  0  0  0  0
   10.8460    0.4130   31.4850 C   0  0  0  0  0  0  0  0  0  0  0  0
    6.0140    3.3350   26.1070 C   0  0  0  0  0  0  0  0  0  0  0  0
   10.2090    3.0690   32.1690 C   0  0  0  0  0  0  0  0  0  0  0  0
   10.9280    0.9480   32.7840 C   0  0  0  0  0  0  0  0  0  0  0  0
   10.6270    2.2330   33.1480 N   0  0  0  0  0  0  0  0  0  0  0  0
  1  2  2  3
  1  3  1  0
  3  4  1  0
  3  5  1  0
  4  6  1  0
  5  7  1  0
  6  8  1  0
  7  8  1  0
  8  9  1  0
  9 10  2  0
  9 11  1  0
 10 12  1  0
 10 13  1  0
 11 14  2  0
 11 15  1  0
 13 16  2  0
 14 16  1  0
 16 17  1  0
 17 18  1  0
 17 19  1  0
 18 20  2  0
 18 21  1  0
 19 22  2  0
 19 23  1  0
 21 24  1  0
 22 25  1  0
 23 26  2  0
 24 27  2  0
 24 28  1  0
 25 29  2  0
 26 29  1  0
 27 30  1  0
 28 31  2  0
 30 32  2  0
 31 32  1  0
M  END
