NIM-UNI-310206f0-8-acrylamide
     RDKit          3D

 23 25  0  0  0  0  0  0  0  0999 V2000
    7.2290   -2.7520   18.3110 C   0  0  0  0  0  0  0  0  0  0  0  0
    6.0040   -2.2950   19.1020 C   0  0  0  0  0  0  0  0  0  0  0  0
    5.6000   -3.2950   20.1790 C   0  0  0  0  0  0  0  0  0  0  0  0
    5.1700   -4.4130   19.8730 O   0  0  0  0  0  0  0  0  0  0  0  0
    5.7490   -2.8550   21.4990 N   0  0  0  0  0  0  0  0  0  0  0  0
    6.0040   -1.4620   21.7020 C   0  0  0  0  0  0  0  0  0  0  0  0
    6.4210   -3.7280   22.4930 C   0  0  0  0  0  0  0  0  0  0  0  0
    7.3000   -1.1630   21.9780 C   0  0  0  0  0  0  0  0  0  0  0  0
    7.6750   -3.3130   22.9870 C   0  0  0  0  0  0  0  0  0  0  0  0
    7.7710   -1.8460   23.1850 N   0  0  0  0  0  0  0  0  0  0  0  0
    9.0660   -1.2050   23.2890 C   0  0  0  0  0  0  0  0  0  0  0  0
   10.2780   -1.9270   23.7750 C   0  0  0  0  0  0  0  0  0  0  0  0
    9.1250    0.1250   22.8870 C   0  0  0  0  0  0  0  0  0  0  0  0
   10.3120   -3.1770   24.1590 F   0  0  0  0  0  0  0  0  0  0  0  0
   11.5190   -1.1900   23.8080 C   0  0  0  0  0  0  0  0  0  0  0  0
   10.2890    0.7820   22.9080 C   0  0  0  0  0  0  0  0  0  0  0  0
    8.0450    0.8050   22.4560 F   0  0  0  0  0  0  0  0  0  0  0  0
   11.4590    0.1860   23.3330 C   0  0  0  0  0  0  0  0  0  0  0  0
   12.5590    0.8460   23.3000 N   0  0  0  0  0  0  0  0  0  0  0  0
   13.5170    0.0630   22.8260 C   0  0  0  0  0  0  0  0  0  0  0  0
   13.2900   -1.0740   21.7790 C   0  0  0  0  0  0  0  0  0  0  0  0
   13.0910   -2.4110   22.2580 C   0  0  0  0  0  0  0  0  0  0  0  0
   11.9150   -2.0160   21.8230 C   0  0  0  0  0  0  0  0  0  0  0  0
  1  2  1  0
  2  3  1  0
  3  4  2  0
  3  5  1  0
  5  6  1  0
  5  7  1  0
  6  8  1  0
  7  9  1  0
  8 10  1  0
  9 10  1  0
 10 11  1  0
 11 12  2  0
 11 13  1  0
 12 14  1  0
 12 15  1  0
 13 16  2  0
 13 17  1  0
 15 18  2  0
 16 18  1  0
 18 19  1  0
 19 20  1  0
 20 21  1  0
 21 22  1  0
 21 23  1  0
 22 23  1  0
M  END
