NIM-UNI-bb610069-3-vinylsulfonamide
     RDKit          3D

 27 29  0  0  0  0  0  0  0  0999 V2000
    7.9480   -3.3310   19.2060 C   0  0  0  0  0  0  0  0  0  0  0  0
    6.8510   -2.4210   18.6630 C   0  0  0  0  0  0  0  0  0  0  0  0
    5.5550   -2.4060   19.8220 S   0  0  0  0  0  0  0  0  0  0  0  0
    4.8950   -3.6720   19.6270 O   0  0  0  0  0  0  0  0  0  0  0  0
    4.8650   -1.1400   19.7320 O   0  0  0  0  0  0  0  0  0  0  0  0
    6.4310   -2.3980   21.2460 N   0  0  0  0  0  0  0  0  0  0  0  0
    7.3360   -1.2580   21.3890 C   0  0  0  0  0  0  0  0  0  0  0  0
    5.9130   -3.0310   22.4580 C   0  0  0  0  0  0  0  0  0  0  0  0
    8.5070   -1.8920   22.1650 C   0  0  0  0  0  0  0  0  0  0  0  0
    7.0890   -3.5620   23.0060 C   0  0  0  0  0  0  0  0  0  0  0  0
    7.8450   -2.5160   23.3360 N   0  0  0  0  0  0  0  0  0  0  0  0
    8.7950   -2.7890   24.4000 C   0  0  0  0  0  0  0  0  0  0  0  0
   10.1390   -2.2310   23.9830 C   0  0  0  0  0  0  0  0  0  0  0  0
   10.1130   -0.7680   23.7840 C   0  0  0  0  0  0  0  0  0  0  0  0
   11.3900   -2.7180   23.7250 N   0  0  0  0  0  0  0  0  0  0  0  0
   11.4500   -0.5020   23.3800 N   0  0  0  0  0  0  0  0  0  0  0  0
   12.1710   -1.6720   23.3650 N   0  0  0  0  0  0  0  0  0  0  0  0
   11.9030    0.7320   23.0580 C   0  0  0  0  0  0  0  0  0  0  0  0
   13.3190    0.6840   22.6940 C   0  0  0  0  0  0  0  0  0  0  0  0
   11.2330    1.9730   23.0320 C   0  0  0  0  0  0  0  0  0  0  0  0
   13.8860    1.8770   22.3620 C   0  0  0  0  0  0  0  0  0  0  0  0
   11.8890    3.1390   22.6940 C   0  0  0  0  0  0  0  0  0  0  0  0
   13.2130    3.1020   22.3510 C   0  0  0  0  0  0  0  0  0  0  0  0
   11.1790    4.6940   22.6730 S   0  0  0  0  0  0  0  0  0  0  0  0
   11.5600    5.2940   24.1920 N   0  0  0  0  0  0  0  0  0  0  0  0
   11.9150    5.5410   21.7550 O   0  0  0  0  0  0  0  0  0  0  0  0
    9.7380    4.5670   22.6710 O   0  0  0  0  0  0  0  0  0  0  0  0
  1  2  1  0
  3  2  1  0
  3  4  2  0
  3  5  2  0
  3  6  1  0
  6  7  1  0
  6  8  1  0
  7  9  1  0
  8 10  1  0
  9 11  1  0
 10 11  1  0
 11 12  1  0
 12 13  1  0
 13 14  2  0
 13 15  1  0
 14 16  1  0
 15 17  2  0
 16 17  1  0
 16 18  1  0
 18 19  2  0
 18 20  1  0
 19 21  1  0
 20 22  2  0
 21 23  2  0
 22 23  1  0
 22 24  1  0
 24 25  1  0
 24 26  2  0
 24 27  2  0
M  END
