NIM-UNI-310206f0-1-bromoalkyne
     RDKit          3D

 22 24  0  0  0  0  0  0  0  0999 V2000
    6.8540   -3.4650   19.8810 C   0  0  0  0  0  0  0  0  0  0  0  0
    5.5810   -3.1760   19.0860 C   0  0  0  0  0  0  0  0  0  0  0  0
    6.8190   -3.4790   21.2860 N   0  0  0  0  0  0  0  0  0  0  0  0
    6.4090   -2.3170   21.9670 C   0  0  0  0  0  0  0  0  0  0  0  0
    7.0980   -4.5990   22.1940 C   0  0  0  0  0  0  0  0  0  0  0  0
    6.4170   -2.4000   23.3570 C   0  0  0  0  0  0  0  0  0  0  0  0
    8.0290   -4.2340   23.1740 C   0  0  0  0  0  0  0  0  0  0  0  0
    7.7160   -2.9300   23.7910 N   0  0  0  0  0  0  0  0  0  0  0  0
    8.6620   -1.8300   23.5960 C   0  0  0  0  0  0  0  0  0  0  0  0
   10.0510   -2.0890   23.6470 C   0  0  0  0  0  0  0  0  0  0  0  0
    8.2350   -0.5070   23.3420 C   0  0  0  0  0  0  0  0  0  0  0  0
   10.5970   -3.2780   23.8820 F   0  0  0  0  0  0  0  0  0  0  0  0
   11.0040   -0.9690   23.4170 C   0  0  0  0  0  0  0  0  0  0  0  0
    9.0970    0.5200   23.1270 C   0  0  0  0  0  0  0  0  0  0  0  0
    6.9370   -0.1780   23.2880 F   0  0  0  0  0  0  0  0  0  0  0  0
   10.4510    0.3380   23.1450 C   0  0  0  0  0  0  0  0  0  0  0  0
   11.3440    1.4030   22.8800 C   0  0  0  0  0  0  0  0  0  0  0  0
   10.8000    2.8120   22.7220 C   0  0  0  0  0  0  0  0  0  0  0  0
   12.8100    1.1600   22.7270 C   0  0  0  0  0  0  0  0  0  0  0  0
   11.7090    3.9840   22.4030 C   0  0  0  0  0  0  0  0  0  0  0  0
   13.5640    2.2990   22.4310 C   0  0  0  0  0  0  0  0  0  0  0  0
   13.1290    3.6420   22.2630 N   0  0  0  0  0  0  0  0  0  0  0  0
  1  2  2  3
  1  3  1  0
  3  4  1  0
  3  5  1  0
  4  6  1  0
  5  7  1  0
  6  8  1  0
  7  8  1  0
  8  9  1  0
  9 10  2  0
  9 11  1  0
 10 12  1  0
 10 13  1  0
 11 14  2  0
 11 15  1  0
 13 16  2  0
 14 16  1  0
 16 17  1  0
 17 18  2  0
 17 19  1  0
 18 20  1  0
 19 21  2  0
 20 22  2  0
 21 22  1  0
M  END
