NIM-UNI-bb9030bf-14-nitrile
     RDKit          3D

 19 20  0  0  0  0  0  0  0  0999 V2000
    6.7790   -3.5570   19.8910 C   0  0  0  0  0  0  0  0  0  0  0  0
    5.8020   -4.3960   19.8770 N   0  0  0  0  0  0  0  0  0  0  0  0
    6.8580   -2.4350   20.7330 N   0  0  0  0  0  0  0  0  0  0  0  0
    7.4700   -1.1450   20.3240 C   0  0  2  0  0  0  0  0  0  0  0  0
    8.4200   -0.4930   21.3330 C   0  0  0  0  0  0  0  0  0  0  0  0
    6.4720   -0.2120   19.7250 C   0  0  0  0  0  0  0  0  0  0  0  0
    8.5150    0.7190   21.4930 O   0  0  0  0  0  0  0  0  0  0  0  0
    9.2430   -1.4770   22.0690 N   0  0  0  0  0  0  0  0  0  0  0  0
    5.1330    0.2060   20.2560 C   0  0  0  0  0  0  0  0  0  0  0  0
    6.8220    0.3370   18.5210 C   0  0  0  0  0  0  0  0  0  0  0  0
   10.0530   -1.0130   23.1180 C   0  0  0  0  0  0  0  0  0  0  0  0
    4.3610    1.0980   19.5060 C   0  0  0  0  0  0  0  0  0  0  0  0
    6.0690    1.2010   17.8060 N   0  0  0  0  0  0  0  0  0  0  0  0
   11.4860   -0.7370   22.8640 C   0  0  0  0  0  0  0  0  0  0  0  0
    4.8720    1.5630   18.2950 C   0  0  0  0  0  0  0  0  0  0  0  0
   11.2370    0.6520   23.1890 C   0  0  0  0  0  0  0  0  0  0  0  0
   12.9950   -1.3240   22.4260 S   0  0  0  0  0  0  0  0  0  0  0  0
   12.4060    1.3220   23.0740 N   0  0  0  0  0  0  0  0  0  0  0  0
   13.3600    0.4070   22.6900 C   0  0  0  0  0  0  0  0  0  0  0  0
  1  2  2  3
  1  3  1  0
  4  3  1  1
  4  5  1  0
  4  6  1  0
  5  7  2  0
  5  8  1  0
  6  9  2  0
  6 10  1  0
  8 11  1  0
  9 12  1  0
 10 13  2  0
 11 14  1  0
 12 15  2  0
 13 15  1  0
 14 16  2  0
 14 17  1  0
 16 18  1  0
 17 19  1  0
 18 19  2  0
M  END
