NIM-UNI-7f77122c-1
     RDKit          3D

 25 28  0  0  0  0  0  0  0  0999 V2000
    5.5820   -2.8760   20.2960 O   0  0  0  0  0  0  0  0  0  0  0  0
    6.2940   -2.5660   21.2490 C   0  0  0  0  0  0  0  0  0  0  0  0
    6.4350   -3.3450   22.3870 N   0  0  0  0  0  0  0  0  0  0  0  0
    7.1220   -1.3640   21.3490 C   0  0  0  0  0  0  0  0  0  0  0  0
    7.6790   -3.4910   22.9770 C   0  0  0  0  0  0  0  0  0  0  0  0
    8.3530   -1.4560   22.2710 C   0  0  0  0  0  0  0  0  0  0  0  0
    7.1050   -0.0860   20.8350 N   0  0  0  0  0  0  0  0  0  0  0  0
    7.8530   -4.7360   23.6480 O   0  0  0  0  0  0  0  0  0  0  0  0
    8.6580   -2.5980   22.9650 N   0  0  0  0  0  0  0  0  0  0  0  0
    8.9680   -0.2740   22.2480 N   0  0  0  0  0  0  0  0  0  0  0  0
    8.2740    0.6340   21.3660 C   0  0  0  0  0  0  0  0  0  0  0  0
    5.9980    0.6420   20.2160 C   0  0  0  0  0  0  0  0  0  0  0  0
    9.6890   -2.5110   23.9190 C   0  0  0  0  0  0  0  0  0  0  0  0
    8.6680    1.9770   21.0830 O   0  0  0  0  0  0  0  0  0  0  0  0
    6.1260    0.9250   18.7050 C   0  0  0  0  0  0  0  0  0  0  0  0
    4.8480    1.0990   20.8740 C   0  0  0  0  0  0  0  0  0  0  0  0
   10.8200   -1.5190   23.6540 C   0  0  0  0  0  0  0  0  0  0  0  0
    4.9580    1.7010   18.0430 C   0  0  0  0  0  0  0  0  0  0  0  0
    3.8100    1.7820   20.3120 N   0  0  0  0  0  0  0  0  0  0  0  0
   10.6600   -0.2590   24.5180 C   0  0  0  0  0  0  0  0  0  0  0  0
   11.8050   -1.8490   22.7160 C   0  0  0  0  0  0  0  0  0  0  0  0
    3.8640    2.0610   18.9990 C   0  0  0  0  0  0  0  0  0  0  0  0
   11.8930    0.4970   24.0210 C   0  0  0  0  0  0  0  0  0  0  0  0
   12.8270   -1.0050   22.4380 C   0  0  0  0  0  0  0  0  0  0  0  0
   12.8870    0.1900   23.0900 C   0  0  0  0  0  0  0  0  0  0  0  0
  1  2  2  0
  2  3  1  0
  2  4  1  0
  3  5  1  0
  4  6  2  0
  4  7  1  0
  5  8  2  0
  5  9  1  0
  6  9  1  0
  6 10  1  0
  7 11  1  0
 10 11  1  0
  7 12  1  0
  9 13  1  0
 11 14  2  0
 12 15  2  0
 12 16  1  0
 13 17  1  0
 15 18  1  0
 16 19  2  0
 17 20  2  0
 17 21  1  0
 18 22  2  0
 19 22  1  0
 20 23  1  0
 21 24  2  0
 23 25  2  0
 24 25  1  0
M  END
