NIM-UNI-310206f0-19-acrylamide
     RDKit          3D

 34 37  0  0  0  0  0  0  0  0999 V2000
    7.3800   -2.7920   18.2730 C   0  0  0  0  0  0  0  0  0  0  0  0
    6.2150   -2.3420   19.1200 C   0  0  0  0  0  0  0  0  0  0  0  0
    5.8180   -3.3270   20.1740 C   0  0  0  0  0  0  0  0  0  0  0  0
    5.1970   -4.3670   19.9300 O   0  0  0  0  0  0  0  0  0  0  0  0
    6.2220   -2.9460   21.4140 N   0  0  0  0  0  0  0  0  0  0  0  0
    6.4150   -3.8660   22.5430 C   0  0  0  0  0  0  0  0  0  0  0  0
    6.6100   -1.5810   21.6740 C   0  0  0  0  0  0  0  0  0  0  0  0
    7.7960   -3.4130   23.1530 C   0  0  0  0  0  0  0  0  0  0  0  0
    6.5280   -1.3540   23.1600 C   0  0  0  0  0  0  0  0  0  0  0  0
    7.5890   -2.0950   23.8230 N   0  0  0  0  0  0  0  0  0  0  0  0
    8.6810   -1.2620   23.8930 C   0  0  0  0  0  0  0  0  0  0  0  0
   10.0500   -1.7730   23.4430 C   0  0  0  0  0  0  0  0  0  0  0  0
    8.5130    0.0830   24.3590 C   0  0  0  0  0  0  0  0  0  0  0  0
   10.4180   -2.9530   22.9920 F   0  0  0  0  0  0  0  0  0  0  0  0
   11.0320   -0.6660   23.5580 C   0  0  0  0  0  0  0  0  0  0  0  0
    9.6290    1.1400   24.4340 C   0  0  0  0  0  0  0  0  0  0  0  0
    7.2980    0.5030   24.7610 F   0  0  0  0  0  0  0  0  0  0  0  0
   10.8750    0.7570   24.0210 C   0  0  0  0  0  0  0  0  0  0  0  0
   12.1050    1.4320   23.9110 N   0  0  0  0  0  0  0  0  0  0  0  0
   12.7120    0.1300   23.5210 C   0  0  0  0  0  0  0  0  0  0  0  0
   11.8140    2.8780   22.9380 S   0  0  0  0  0  0  0  0  0  0  0  0
   13.0580   -0.1240   22.2430 N   0  0  0  0  0  0  0  0  0  0  0  0
   12.7750   -0.7200   24.6030 N   0  0  0  0  0  0  0  0  0  0  0  0
   11.7330    4.0440   23.7990 O   0  0  0  0  0  0  0  0  0  0  0  0
   10.6480    2.6090   22.1400 O   0  0  0  0  0  0  0  0  0  0  0  0
   13.2650    3.1440   21.9210 C   0  0  0  0  0  0  0  0  0  0  0  0
   13.4710   -1.3700   22.0610 C   0  0  0  0  0  0  0  0  0  0  0  0
   13.2250   -1.9880   24.3990 C   0  0  0  0  0  0  0  0  0  0  0  0
   13.4240    4.4440   21.1230 C   0  0  0  0  0  0  0  0  0  0  0  0
   14.2800    2.3000   21.7510 N   0  0  0  0  0  0  0  0  0  0  0  0
   13.5760   -2.3670   23.1360 C   0  0  0  0  0  0  0  0  0  0  0  0
   14.7470    4.1530   20.4590 C   0  0  0  0  0  0  0  0  0  0  0  0
   15.1700    2.9370   20.8610 O   0  0  0  0  0  0  0  0  0  0  0  0
   15.4670    4.9370   19.5600 C   0  0  0  0  0  0  0  0  0  0  0  0
  1  2  1  0
  2  3  1  0
  3  4  2  0
  3  5  1  0
  5  6  1  0
  5  7  1  0
  6  8  1  0
  7  9  1  0
  8 10  1  0
  9 10  1  0
 10 11  1  0
 11 12  2  0
 11 13  1  0
 12 14  1  0
 12 15  1  0
 13 16  2  0
 13 17  1  0
 15 18  2  0
 16 18  1  0
 18 19  1  0
 19 20  1  0
 21 19  1  0
 20 22  2  0
 20 23  1  0
 21 24  2  0
 21 25  2  0
 21 26  1  0
 22 27  1  0
 23 28  2  0
 26 29  1  0
 26 30  2  0
 27 31  2  0
 28 31  1  0
 29 32  2  0
 30 33  1  0
 32 33  1  0
 32 34  1  0
M  END
