NIM-UNI-310206f0-67-bromoalkyne
     RDKit          3D

 22 24  0  0  0  0  0  0  0  0999 V2000
    6.8870   -3.5920   19.8680 C   0  0  0  0  0  0  0  0  0  0  0  0
    6.2220   -2.8430   18.7220 C   0  0  0  0  0  0  0  0  0  0  0  0
    6.7480   -3.0670   21.1620 N   0  0  0  0  0  0  0  0  0  0  0  0
    6.3400   -3.7540   22.4050 C   0  0  0  0  0  0  0  0  0  0  0  0
    7.3510   -1.8450   21.3960 C   0  0  0  0  0  0  0  0  0  0  0  0
    7.3880   -3.6810   23.3690 C   0  0  0  0  0  0  0  0  0  0  0  0
    8.6670   -2.0010   22.1550 C   0  0  0  0  0  0  0  0  0  0  0  0
    8.6740   -3.2030   23.0430 N   0  0  0  0  0  0  0  0  0  0  0  0
    9.7350   -3.0320   24.3690 S   0  0  0  0  0  0  0  0  0  0  0  0
   10.7250   -4.0630   24.5100 O   0  0  0  0  0  0  0  0  0  0  0  0
    8.9410   -2.6380   25.5120 O   0  0  0  0  0  0  0  0  0  0  0  0
   10.6180   -1.6120   23.9160 C   0  0  0  0  0  0  0  0  0  0  0  0
   10.7550   -0.4890   24.8400 C   0  0  0  0  0  0  0  0  0  0  0  0
   11.4210   -1.2230   22.4080 S   0  0  0  0  0  0  0  0  0  0  0  0
   11.3800    0.4820   24.2690 C   0  0  0  0  0  0  0  0  0  0  0  0
   11.7800    0.3400   23.0480 C   0  0  0  0  0  0  0  0  0  0  0  0
   12.3130    1.5420   22.7470 C   0  0  0  0  0  0  0  0  0  0  0  0
   11.5120    2.6470   22.6120 C   0  0  0  0  0  0  0  0  0  0  0  0
   13.5030    2.0490   22.5560 C   0  0  0  0  0  0  0  0  0  0  0  0
   11.3210    3.7410   22.4210 N   0  0  0  0  0  0  0  0  0  0  0  0
   13.6680    3.4180   22.2720 N   0  0  0  0  0  0  0  0  0  0  0  0
   12.5520    4.1990   22.2150 C   0  0  0  0  0  0  0  0  0  0  0  0
  1  2  2  3
  1  3  1  0
  3  4  1  0
  3  5  1  0
  4  6  1  0
  5  7  1  0
  6  8  1  0
  7  8  1  0
  8  9  1  0
  9 10  2  0
  9 11  2  0
  9 12  1  0
 12 13  2  0
 12 14  1  0
 13 15  1  0
 14 16  1  0
 15 16  2  0
 16 17  1  0
 17 18  2  0
 17 19  1  0
 18 20  1  0
 19 21  2  0
 20 22  2  0
 21 22  1  0
M  END
