NIM-UNI-310206f0-51-chloroacetamide
     RDKit          3D

 30 33  0  0  0  0  0  0  0  0999 V2000
    7.2340   -3.6470   19.5870 C   0  0  0  0  0  0  0  0  0  0  0  0
    5.9140   -3.3290   20.0880 C   0  0  0  0  0  0  0  0  0  0  0  0
    4.9560   -3.6880   19.4190 O   0  0  0  0  0  0  0  0  0  0  0  0
    5.8620   -2.7380   21.3510 N   0  0  0  0  0  0  0  0  0  0  0  0
    6.2040   -3.6600   22.4700 C   0  0  0  0  0  0  0  0  0  0  0  0
    6.5580   -1.4720   21.5040 C   0  0  0  0  0  0  0  0  0  0  0  0
    7.5190   -3.3980   22.9780 C   0  0  0  0  0  0  0  0  0  0  0  0
    6.7140   -1.2520   22.8730 C   0  0  0  0  0  0  0  0  0  0  0  0
    7.7540   -2.1040   23.4310 N   0  0  0  0  0  0  0  0  0  0  0  0
    8.9880   -1.4800   23.4420 C   0  0  0  0  0  0  0  0  0  0  0  0
    8.9350   -0.0430   23.0090 C   0  0  0  0  0  0  0  0  0  0  0  0
   10.2680   -1.9410   23.7780 C   0  0  0  0  0  0  0  0  0  0  0  0
    7.8090    0.5960   22.6470 F   0  0  0  0  0  0  0  0  0  0  0  0
   10.0740    0.6790   22.9660 C   0  0  0  0  0  0  0  0  0  0  0  0
   11.3230   -1.1720   23.7240 C   0  0  0  0  0  0  0  0  0  0  0  0
   10.5300   -3.1720   24.1650 F   0  0  0  0  0  0  0  0  0  0  0  0
   11.2910    0.1410   23.3170 C   0  0  0  0  0  0  0  0  0  0  0  0
   12.4000    0.8070   23.2610 N   0  0  0  0  0  0  0  0  0  0  0  0
   13.2130    0.0250   22.5570 C   0  0  0  0  0  0  0  0  0  0  0  0
   12.3210    2.1310   22.9550 C   0  0  0  0  0  0  0  0  0  0  0  0
   12.5710   -1.1230   22.0850 C   0  0  0  0  0  0  0  0  0  0  0  0
   11.2890    2.7510   23.2360 O   0  0  0  0  0  0  0  0  0  0  0  0
   13.1830    3.0150   22.3580 C   0  0  0  0  0  0  0  0  0  0  0  0
   13.0920   -1.9840   21.1990 C   0  0  0  0  0  0  0  0  0  0  0  0
   13.0280   -2.4130   22.6540 C   0  0  0  0  0  0  0  0  0  0  0  0
   12.8040    4.4100   22.3190 C   0  0  0  0  0  0  0  0  0  0  0  0
   14.4390    2.9300   21.7280 N   0  0  0  0  0  0  0  0  0  0  0  0
   13.9260    4.9220   21.6500 C   0  0  0  0  0  0  0  0  0  0  0  0
   14.8500    4.2430   21.2770 O   0  0  0  0  0  0  0  0  0  0  0  0
   13.2210    6.2190   21.8080 C   0  0  0  0  0  0  0  0  0  0  0  0
  1  2  1  0
  2  3  2  0
  2  4  1  0
  4  5  1  0
  4  6  1  0
  5  7  1  0
  6  8  1  0
  7  9  1  0
  8  9  1  0
  9 10  1  0
 10 11  2  0
 10 12  1  0
 11 13  1  0
 11 14  1  0
 12 15  2  0
 12 16  1  0
 14 17  2  0
 15 17  1  0
 17 18  1  0
 18 19  1  0
 18 20  1  0
 19 21  1  0
 20 22  2  0
 20 23  1  0
 21 24  1  0
 21 25  1  0
 24 25  1  0
 23 26  1  0
 23 27  2  0
 26 28  2  0
 27 29  1  0
 28 29  1  0
 28 30  1  0
M  END
