NIM-NMI-8bb27a2b-27-vinylsulfonamide
     RDKit          3D

 34 36  0  0  0  0  0  0  0  0999 V2000
    8.7430   -4.0290   20.2890 C   0  0  0  0  0  0  0  0  0  0  0  0
    7.5550   -3.2610   19.6740 C   0  0  0  0  0  0  0  0  0  0  0  0
    6.3630   -2.6320   20.8240 S   0  0  0  0  0  0  0  0  0  0  0  0
    5.1870   -3.6060   21.1900 O   0  0  0  0  0  0  0  0  0  0  0  0
    5.8600   -1.5400   20.0720 O   0  0  0  0  0  0  0  0  0  0  0  0
    7.3030   -1.6930   22.0150 N   0  0  0  0  0  0  0  0  0  0  0  0
    8.8080   -1.5090   22.2050 C   0  0  0  0  0  0  0  0  0  0  0  0
    6.7090   -0.3430   22.1590 C   0  0  2  0  0  0  0  0  0  0  0  0
    9.1370   -0.2300   22.9040 C   0  0  0  0  0  0  0  0  0  0  0  0
    9.9050   -2.3140   21.8520 C   0  0  0  0  0  0  0  0  0  0  0  0
    7.3910    0.7320   21.2470 C   0  0  0  0  0  0  0  0  0  0  0  0
    6.4080   -0.0240   23.6100 C   0  0  0  0  0  0  0  0  0  0  0  0
   10.5640    0.1760   23.2180 C   0  0  0  0  0  0  0  0  0  0  0  0
   11.2170   -1.9270   22.1430 C   0  0  0  0  0  0  0  0  0  0  0  0
    8.4760    1.2970   21.1840 O   0  0  0  0  0  0  0  0  0  0  0  0
    6.4010    1.1260   20.2390 N   0  0  0  0  0  0  0  0  0  0  0  0
    7.4260    0.1000   24.5790 C   0  0  0  0  0  0  0  0  0  0  0  0
    5.1140    0.1560   24.0460 C   0  0  0  0  0  0  0  0  0  0  0  0
   11.5020   -0.7180   22.8070 C   0  0  0  0  0  0  0  0  0  0  0  0
    5.5730    0.2240   19.6400 C   0  0  0  0  0  0  0  0  0  0  0  0
    7.0940    0.3890   25.9000 C   0  0  0  0  0  0  0  0  0  0  0  0
    4.7520    0.4400   25.3250 N   0  0  0  0  0  0  0  0  0  0  0  0
   12.7410   -0.3030   23.1160 C   0  0  0  0  0  0  0  0  0  0  0  0
    6.1960   -0.0130   18.4600 C   0  0  0  0  0  0  0  0  0  0  0  0
    5.7520    0.5500   26.2290 C   0  0  0  0  0  0  0  0  0  0  0  0
   13.6240   -0.7100   22.1830 F   0  0  0  0  0  0  0  0  0  0  0  0
   13.1560   -0.7980   24.3110 F   0  0  0  0  0  0  0  0  0  0  0  0
   12.8160    1.0530   23.1860 F   0  0  0  0  0  0  0  0  0  0  0  0
    6.6160    1.0670   17.8220 C   0  0  0  0  0  0  0  0  0  0  0  0
    6.4280   -1.1780   17.8960 C   0  0  0  0  0  0  0  0  0  0  0  0
    7.3060    1.1550   16.5910 C   0  0  0  0  0  0  0  0  0  0  0  0
    7.0860   -1.2050   16.7020 C   0  0  0  0  0  0  0  0  0  0  0  0
    7.5820   -0.2010   15.9360 C   0  0  0  0  0  0  0  0  0  0  0  0
    7.3300   -2.6700   16.0620 Cl  0  0  0  0  0  0  0  0  0  0  0  0
  1  2  1  0
  2  3  1  0
  3  4  2  0
  3  5  2  0
  3  6  1  0
  6  7  1  0
  6  8  1  0
  7  9  2  0
  7 10  1  0
  8 11  1  1
  8 12  1  0
  9 13  1  0
 10 14  2  0
 11 15  2  0
 11 16  1  0
 12 17  2  0
 12 18  1  0
 13 19  2  0
 14 19  1  0
 16 20  1  0
 17 21  1  0
 18 22  2  0
 19 23  1  0
 20 24  1  0
 21 25  2  0
 22 25  1  0
 23 26  1  0
 23 27  1  0
 23 28  1  0
 24 29  2  0
 24 30  1  0
 29 31  1  0
 30 32  2  0
 31 33  2  0
 32 33  1  0
 32 34  1  0
M  END
