NIM-NMI-8bb27a2b-17-nitrile
     RDKit          3D

 26 28  0  0  0  0  0  0  0  0999 V2000
    6.9850   -3.2170   19.8720 C   0  0  0  0  0  0  0  0  0  0  0  0
    6.2060   -2.8190   18.9260 N   0  0  0  0  0  0  0  0  0  0  0  0
    7.3970   -2.2690   20.9930 N   0  0  0  0  0  0  0  0  0  0  0  0
    8.6130   -2.1570   21.9390 C   0  0  0  0  0  0  0  0  0  0  0  0
    7.4570   -0.9390   20.6180 C   0  0  2  0  0  0  0  0  0  0  0  0
    9.9210   -2.6350   21.4940 C   0  0  0  0  0  0  0  0  0  0  0  0
    8.6530   -1.5650   23.2560 C   0  0  0  0  0  0  0  0  0  0  0  0
    8.0380    0.1680   21.5760 C   0  0  0  0  0  0  0  0  0  0  0  0
    6.4470   -0.3480   19.9390 C   0  0  0  0  0  0  0  0  0  0  0  0
   11.1420   -2.4910   22.2760 C   0  0  0  0  0  0  0  0  0  0  0  0
    9.8220   -1.4150   24.0460 C   0  0  0  0  0  0  0  0  0  0  0  0
    8.7680    1.0880   21.1460 O   0  0  0  0  0  0  0  0  0  0  0  0
    7.7110    0.2380   22.8900 N   0  0  0  0  0  0  0  0  0  0  0  0
    5.2020   -0.2100   20.5550 C   0  0  0  0  0  0  0  0  0  0  0  0
    6.7650    0.0920   18.7110 C   0  0  0  0  0  0  0  0  0  0  0  0
   11.0970   -1.8410   23.6190 C   0  0  0  0  0  0  0  0  0  0  0  0
    7.9280    1.4380   23.5070 C   0  0  0  0  0  0  0  0  0  0  0  0
    4.1960    0.5760   19.6200 C   0  0  0  0  0  0  0  0  0  0  0  0
    6.0050    0.7180   17.9110 N   0  0  0  0  0  0  0  0  0  0  0  0
   12.2590   -1.6980   24.3350 C   0  0  0  0  0  0  0  0  0  0  0  0
    7.5470    1.7630   24.7560 C   0  0  0  0  0  0  0  0  0  0  0  0
    8.9980    1.6400   24.5120 C   0  0  0  0  0  0  0  0  0  0  0  0
    4.7480    1.0310   18.2270 C   0  0  0  0  0  0  0  0  0  0  0  0
   12.2050   -0.6900   25.2380 F   0  0  0  0  0  0  0  0  0  0  0  0
   13.3060   -1.3990   23.5260 F   0  0  0  0  0  0  0  0  0  0  0  0
   12.6290   -2.8230   25.0000 F   0  0  0  0  0  0  0  0  0  0  0  0
  1  2  2  3
  1  3  1  0
  3  4  1  0
  3  5  1  0
  4  6  2  0
  4  7  1  0
  5  8  1  1
  5  9  1  0
  6 10  1  0
  7 11  2  0
  8 12  2  0
  8 13  1  0
  9 14  2  0
  9 15  1  0
 10 16  2  0
 11 16  1  0
 13 17  1  0
 14 18  1  0
 15 19  2  0
 16 20  1  0
 17 21  1  0
 17 22  1  0
 21 22  1  0
 18 23  2  0
 19 23  1  0
 20 24  1  0
 20 25  1  0
 20 26  1  0
M  END
