NIM-UNI-310206f0-19-bromoalkyne
     RDKit          3D

 32 35  0  0  0  0  0  0  0  0999 V2000
    7.2350   -3.6410   19.9340 C   0  0  0  0  0  0  0  0  0  0  0  0
    6.0180   -3.2420   19.1100 C   0  0  0  0  0  0  0  0  0  0  0  0
    7.0970   -4.0110   21.2720 N   0  0  0  0  0  0  0  0  0  0  0  0
    5.8160   -3.9550   21.9800 C   0  0  0  0  0  0  0  0  0  0  0  0
    8.2300   -4.0480   22.2150 C   0  0  0  0  0  0  0  0  0  0  0  0
    5.8030   -2.4830   22.5180 C   0  0  0  0  0  0  0  0  0  0  0  0
    7.7360   -3.6520   23.6100 C   0  0  0  0  0  0  0  0  0  0  0  0
    6.8840   -2.4470   23.5480 N   0  0  0  0  0  0  0  0  0  0  0  0
    7.5040   -1.1150   23.7740 C   0  0  0  0  0  0  0  0  0  0  0  0
    9.0360   -1.1520   23.9440 C   0  0  0  0  0  0  0  0  0  0  0  0
    6.7970    0.0820   23.8270 C   0  0  0  0  0  0  0  0  0  0  0  0
    9.7900   -2.2620   23.9040 F   0  0  0  0  0  0  0  0  0  0  0  0
    9.7270    0.2390   24.1770 C   0  0  0  0  0  0  0  0  0  0  0  0
    7.4510    1.4300   24.0470 C   0  0  0  0  0  0  0  0  0  0  0  0
    5.4640    0.0920   23.6790 F   0  0  0  0  0  0  0  0  0  0  0  0
    8.8260    1.5190   24.2090 C   0  0  0  0  0  0  0  0  0  0  0  0
    9.4300    2.8190   24.4080 N   0  0  0  0  0  0  0  0  0  0  0  0
   10.7390    2.9060   23.8330 C   0  0  0  0  0  0  0  0  0  0  0  0
    8.5460    4.2760   24.1010 S   0  0  0  0  0  0  0  0  0  0  0  0
   11.2160    4.2090   23.8350 N   0  0  0  0  0  0  0  0  0  0  0  0
   11.3370    1.7960   23.3710 N   0  0  0  0  0  0  0  0  0  0  0  0
    7.5750    4.0410   23.0390 O   0  0  0  0  0  0  0  0  0  0  0  0
    8.1070    4.8120   25.3800 O   0  0  0  0  0  0  0  0  0  0  0  0
    9.8750    5.3160   23.4720 C   0  0  0  0  0  0  0  0  0  0  0  0
   12.4060    4.3130   23.2920 C   0  0  0  0  0  0  0  0  0  0  0  0
   12.5430    1.9980   22.8410 C   0  0  0  0  0  0  0  0  0  0  0  0
   10.8310    4.6780   22.4960 C   0  0  0  0  0  0  0  0  0  0  0  0
   10.2220    6.6290   23.7180 N   0  0  0  0  0  0  0  0  0  0  0  0
   13.1140    3.2600   22.7770 C   0  0  0  0  0  0  0  0  0  0  0  0
   11.7850    5.7910   22.2180 C   0  0  0  0  0  0  0  0  0  0  0  0
   11.3970    6.9480   22.9580 O   0  0  0  0  0  0  0  0  0  0  0  0
   12.9850    5.6490   21.2750 C   0  0  0  0  0  0  0  0  0  0  0  0
  1  2  2  3
  1  3  1  0
  3  4  1  0
  3  5  1  0
  4  6  1  0
  5  7  1  0
  6  8  1  0
  7  8  1  0
  8  9  1  0
  9 10  2  0
  9 11  1  0
 10 12  1  0
 10 13  1  0
 11 14  2  0
 11 15  1  0
 13 16  2  0
 14 16  1  0
 16 17  1  0
 17 18  1  0
 19 17  1  0
 18 20  2  0
 18 21  1  0
 19 22  2  0
 19 23  2  0
 19 24  1  0
 20 25  1  0
 21 26  2  0
 24 27  1  0
 24 28  2  0
 25 29  2  0
 26 29  1  0
 27 30  2  0
 28 31  1  0
 30 31  1  0
 30 32  1  0
M  END
