NIM-UNI-bb9030bf-14-acrylamide
     RDKit          3D

 21 22  0  0  0  0  0  0  0  0999 V2000
    7.1780   -4.7110   20.5460 C   0  0  0  0  0  0  0  0  0  0  0  0
    7.1660   -3.6480   21.6290 C   0  0  0  0  0  0  0  0  0  0  0  0
    5.7130   -3.4180   21.7400 C   0  0  0  0  0  0  0  0  0  0  0  0
    4.5820   -2.9820   21.6140 O   0  0  0  0  0  0  0  0  0  0  0  0
    6.1710   -2.3520   20.8870 N   0  0  0  0  0  0  0  0  0  0  0  0
    6.6140   -0.9350   21.2290 C   0  0  1  0  0  0  0  0  0  0  0  0
    8.1210   -0.5820   21.4170 C   0  0  0  0  0  0  0  0  0  0  0  0
    6.1140   -0.1550   20.1630 C   0  0  0  0  0  0  0  0  0  0  0  0
    8.3360    0.8400   21.2510 O   0  0  0  0  0  0  0  0  0  0  0  0
    9.1910   -1.5940   21.6960 N   0  0  0  0  0  0  0  0  0  0  0  0
    4.9630    0.6260   20.3410 C   0  0  0  0  0  0  0  0  0  0  0  0
    6.7450   -0.1330   18.9050 C   0  0  0  0  0  0  0  0  0  0  0  0
    9.9170   -1.3780   22.8980 C   0  0  0  0  0  0  0  0  0  0  0  0
    4.4730    1.3950   19.3000 C   0  0  0  0  0  0  0  0  0  0  0  0
    6.3510    0.5810   17.8190 N   0  0  0  0  0  0  0  0  0  0  0  0
   10.9600   -0.4780   22.9040 C   0  0  0  0  0  0  0  0  0  0  0  0
    5.2380    1.3470   17.9690 C   0  0  0  0  0  0  0  0  0  0  0  0
   12.4540   -0.8150   22.9770 C   0  0  0  0  0  0  0  0  0  0  0  0
   10.6910    1.2760   22.8640 S   0  0  0  0  0  0  0  0  0  0  0  0
   13.2050    0.2960   23.0080 N   0  0  0  0  0  0  0  0  0  0  0  0
   12.4220    1.4720   22.9630 C   0  0  0  0  0  0  0  0  0  0  0  0
  1  2  1  0
  2  3  1  0
  3  4  2  0
  3  5  1  0
  6  5  1  6
  6  7  1  0
  6  8  1  0
  7  9  2  0
  7 10  1  0
  8 11  2  0
  8 12  1  0
 10 13  1  0
 11 14  1  0
 12 15  2  0
 13 16  1  0
 14 17  2  0
 15 17  1  0
 16 18  2  0
 16 19  1  0
 18 20  1  0
 19 21  1  0
 20 21  2  0
M  END
