NIM-UNI-310206f0-45-bromoalkyne
     RDKit          3D

 28 30  0  0  0  0  0  0  0  0999 V2000
    6.7960   -3.4320   19.7090 C   0  0  0  0  0  0  0  0  0  0  0  0
    5.8070   -2.8880   18.7510 C   0  0  0  0  0  0  0  0  0  0  0  0
    6.7190   -3.0160   21.0390 N   0  0  0  0  0  0  0  0  0  0  0  0
    6.2690   -3.7720   22.2340 C   0  0  0  0  0  0  0  0  0  0  0  0
    7.7500   -2.1280   21.4890 C   0  0  0  0  0  0  0  0  0  0  0  0
    6.6450   -2.8200   23.4740 C   0  0  0  0  0  0  0  0  0  0  0  0
    8.5680   -3.0700   22.3440 C   0  0  0  0  0  0  0  0  0  0  0  0
    8.1250   -2.9310   23.7130 N   0  0  0  0  0  0  0  0  0  0  0  0
    9.0150   -1.7990   23.8350 C   0  0  0  0  0  0  0  0  0  0  0  0
    8.3720   -0.4010   23.8640 C   0  0  0  0  0  0  0  0  0  0  0  0
   10.3800   -2.0010   23.8720 C   0  0  0  0  0  0  0  0  0  0  0  0
    7.0520   -0.1370   23.8490 F   0  0  0  0  0  0  0  0  0  0  0  0
    9.4190    0.7640   23.8780 C   0  0  0  0  0  0  0  0  0  0  0  0
   11.3170   -0.9240   23.8970 C   0  0  0  0  0  0  0  0  0  0  0  0
   10.9500   -3.2150   23.8590 F   0  0  0  0  0  0  0  0  0  0  0  0
   10.9150    0.3250   23.8690 C   0  0  0  0  0  0  0  0  0  0  0  0
   11.9490    1.2200   23.7940 N   0  0  0  0  0  0  0  0  0  0  0  0
   13.0990    0.5470   23.1340 C   0  0  0  0  0  0  0  0  0  0  0  0
   11.2860    2.6820   23.1340 S   0  0  0  0  0  0  0  0  0  0  0  0
   13.0810   -0.6830   22.1670 C   0  0  0  0  0  0  0  0  0  0  0  0
   10.3210    2.3280   22.1180 O   0  0  0  0  0  0  0  0  0  0  0  0
   10.7420    3.4920   24.1800 O   0  0  0  0  0  0  0  0  0  0  0  0
   12.6530    3.5750   22.4560 C   0  0  0  0  0  0  0  0  0  0  0  0
   12.2240   -1.6540   22.0560 C   0  0  0  0  0  0  0  0  0  0  0  0
   13.1470   -2.1920   22.9080 C   0  0  0  0  0  0  0  0  0  0  0  0
   12.8460    4.8910   23.1960 C   0  0  0  0  0  0  0  0  0  0  0  0
   12.7890    6.0070   22.3530 O   0  0  0  0  0  0  0  0  0  0  0  0
   13.2640    5.6740   21.0710 C   0  0  0  0  0  0  0  0  0  0  0  0
  1  2  2  3
  1  3  1  0
  3  4  1  0
  3  5  1  0
  4  6  1  0
  5  7  1  0
  6  8  1  0
  7  8  1  0
  8  9  1  0
  9 10  2  0
  9 11  1  0
 10 12  1  0
 10 13  1  0
 11 14  2  0
 11 15  1  0
 13 16  2  0
 14 16  1  0
 16 17  1  0
 17 18  1  0
 19 17  1  0
 18 20  1  0
 19 21  2  0
 19 22  2  0
 19 23  1  0
 20 24  1  0
 20 25  1  0
 24 25  1  0
 23 26  1  0
 26 27  1  0
 27 28  1  0
M  END
