NIM-UNI-310206f0-62-acrylamide
     RDKit          3D

 37 41  0  0  0  0  0  0  0  0999 V2000
    7.4830   -2.6580   18.5550 C   0  0  0  0  0  0  0  0  0  0  0  0
    6.0340   -2.7970   18.9150 C   0  0  0  0  0  0  0  0  0  0  0  0
    5.7680   -3.5860   20.1380 C   0  0  0  0  0  0  0  0  0  0  0  0
    5.2040   -4.6590   20.0250 O   0  0  0  0  0  0  0  0  0  0  0  0
    6.1950   -3.0420   21.3190 N   0  0  0  0  0  0  0  0  0  0  0  0
    6.4280   -3.8250   22.5310 C   0  0  0  0  0  0  0  0  0  0  0  0
    6.7310   -1.6980   21.3730 C   0  0  0  0  0  0  0  0  0  0  0  0
    7.5820   -3.2450   23.3370 C   0  0  0  0  0  0  0  0  0  0  0  0
    6.4560   -1.1440   22.7490 C   0  0  0  0  0  0  0  0  0  0  0  0
    7.2550   -1.8570   23.7360 N   0  0  0  0  0  0  0  0  0  0  0  0
    8.3660   -1.2730   23.9180 C   0  0  0  0  0  0  0  0  0  0  0  0
    9.5240   -1.9210   23.8170 C   0  0  0  0  0  0  0  0  0  0  0  0
    8.4800    0.0890   24.2150 C   0  0  0  0  0  0  0  0  0  0  0  0
    9.6490   -3.1960   23.5500 F   0  0  0  0  0  0  0  0  0  0  0  0
   10.6740   -1.3070   23.9680 C   0  0  0  0  0  0  0  0  0  0  0  0
    9.7190    0.7200   24.3630 C   0  0  0  0  0  0  0  0  0  0  0  0
    7.3910    0.8660   24.3570 F   0  0  0  0  0  0  0  0  0  0  0  0
   10.9120    0.0100   24.2250 C   0  0  0  0  0  0  0  0  0  0  0  0
   11.8650    0.7930   24.3660 N   0  0  0  0  0  0  0  0  0  0  0  0
   12.4800   -0.3800   24.3580 C   0  0  0  0  0  0  0  0  0  0  0  0
   11.9640    1.6850   22.9650 S   0  0  0  0  0  0  0  0  0  0  0  0
   13.0870   -0.8570   25.5730 C   0  0  0  0  0  0  0  0  0  0  0  0
   12.5040   -1.1960   23.2330 C   0  0  0  0  0  0  0  0  0  0  0  0
   13.2210    1.2510   22.4530 O   0  0  0  0  0  0  0  0  0  0  0  0
   10.6900    1.3890   22.3650 O   0  0  0  0  0  0  0  0  0  0  0  0
   11.9440    3.4460   23.0640 C   0  0  0  0  0  0  0  0  0  0  0  0
   13.7320   -2.1790   25.6240 C   0  0  0  0  0  0  0  0  0  0  0  0
   13.1230   -2.4480   23.2360 C   0  0  0  0  0  0  0  0  0  0  0  0
   11.9780   -1.0890   21.9160 C   0  0  0  0  0  0  0  0  0  0  0  0
   10.7550    4.2110   23.6080 C   0  0  0  0  0  0  0  0  0  0  0  0
   13.0380    4.1910   22.6230 C   0  0  0  0  0  0  0  0  0  0  0  0
   13.7590   -2.9980   24.4460 C   0  0  0  0  0  0  0  0  0  0  0  0
   13.0460   -3.0610   22.0220 N   0  0  0  0  0  0  0  0  0  0  0  0
   12.3220   -2.2730   21.1000 C   0  0  0  0  0  0  0  0  0  0  0  0
   10.7880    5.7150   23.6630 C   0  0  0  0  0  0  0  0  0  0  0  0
   13.0940    5.5940   22.6580 N   0  0  0  0  0  0  0  0  0  0  0  0
   12.0670    6.3300   23.1400 C   0  0  0  0  0  0  0  0  0  0  0  0
  1  2  1  0
  2  3  1  0
  3  4  2  0
  3  5  1  0
  5  6  1  0
  5  7  1  0
  6  8  1  0
  7  9  1  0
  8 10  1  0
  9 10  1  0
 10 11  1  0
 11 12  2  0
 11 13  1  0
 12 14  1  0
 12 15  1  0
 13 16  2  0
 13 17  1  0
 15 18  2  0
 16 18  1  0
 18 19  1  0
 19 20  1  0
 21 19  1  0
 20 22  2  0
 20 23  1  0
 21 24  2  0
 21 25  2  0
 21 26  1  0
 22 27  1  0
 23 28  2  0
 23 29  1  0
 26 30  2  0
 26 31  1  0
 27 32  2  0
 28 32  1  0
 28 33  1  0
 29 34  2  0
 33 34  1  0
 30 35  1  0
 31 36  2  0
 35 37  2  0
 36 37  1  0
M  END
