NIM-UNI-310206f0-40-vinylsulfonamide
     RDKit          3D

 34 37  0  0  0  0  0  0  0  0999 V2000
    7.4770   -3.0950   18.9750 C   0  0  0  0  0  0  0  0  0  0  0  0
    7.2130   -2.9580   20.4460 C   0  0  0  0  0  0  0  0  0  0  0  0
    5.6900   -3.7810   20.7530 S   0  0  0  0  0  0  0  0  0  0  0  0
    4.7120   -2.9340   20.1930 O   0  0  0  0  0  0  0  0  0  0  0  0
    5.7140   -5.1360   20.2600 O   0  0  0  0  0  0  0  0  0  0  0  0
    5.5630   -3.7510   22.4110 N   0  0  0  0  0  0  0  0  0  0  0  0
    4.9620   -2.5960   23.0960 C   0  0  0  0  0  0  0  0  0  0  0  0
    6.7600   -4.2630   23.0940 C   0  0  0  0  0  0  0  0  0  0  0  0
    5.9700   -1.4390   22.7740 C   0  0  0  0  0  0  0  0  0  0  0  0
    7.4200   -3.1730   23.9560 C   0  0  0  0  0  0  0  0  0  0  0  0
    7.2900   -1.8190   23.3600 N   0  0  0  0  0  0  0  0  0  0  0  0
    8.4730   -0.9290   23.1690 C   0  0  0  0  0  0  0  0  0  0  0  0
    9.7770   -1.5790   23.6510 C   0  0  0  0  0  0  0  0  0  0  0  0
    8.4590    0.3610   22.6210 C   0  0  0  0  0  0  0  0  0  0  0  0
    9.8590   -2.8040   24.1770 F   0  0  0  0  0  0  0  0  0  0  0  0
   11.0790   -0.7300   23.5010 C   0  0  0  0  0  0  0  0  0  0  0  0
    9.7340    1.1880   22.4690 C   0  0  0  0  0  0  0  0  0  0  0  0
    7.3070    0.9240   22.2050 F   0  0  0  0  0  0  0  0  0  0  0  0
   10.9730    0.6930   22.8720 C   0  0  0  0  0  0  0  0  0  0  0  0
   12.2070    1.4410   22.7330 N   0  0  0  0  0  0  0  0  0  0  0  0
   13.3470    0.5440   22.7240 C   0  0  0  0  0  0  0  0  0  0  0  0
   12.3030    2.8940   22.6850 C   0  0  0  0  0  0  0  0  0  0  0  0
   13.2790   -0.8040   21.9520 C   0  0  0  0  0  0  0  0  0  0  0  0
   11.3390    3.5580   22.3140 O   0  0  0  0  0  0  0  0  0  0  0  0
   13.4230    3.6700   23.0920 N   0  0  0  0  0  0  0  0  0  0  0  0
   12.3400   -1.7130   21.9210 C   0  0  0  0  0  0  0  0  0  0  0  0
   13.1830   -2.1910   22.8910 C   0  0  0  0  0  0  0  0  0  0  0  0
   14.3600    4.0030   22.1200 C   0  0  0  0  0  0  0  0  0  0  0  0
   14.0020    4.4590   20.7500 C   0  0  0  0  0  0  0  0  0  0  0  0
   15.7610    4.0670   22.0470 C   0  0  0  0  0  0  0  0  0  0  0  0
   12.5690    4.5980   20.4180 C   0  0  0  0  0  0  0  0  0  0  0  0
   15.0140    4.7050   19.9400 N   0  0  0  0  0  0  0  0  0  0  0  0
   16.0880    4.4450   20.7440 O   0  0  0  0  0  0  0  0  0  0  0  0
   16.9250    3.8810   22.8850 C   0  0  0  0  0  0  0  0  0  0  0  0
  1  2  1  0
  3  2  1  0
  3  4  2  0
  3  5  2  0
  3  6  1  0
  6  7  1  0
  6  8  1  0
  7  9  1  0
  8 10  1  0
  9 11  1  0
 10 11  1  0
 11 12  1  0
 12 13  2  0
 12 14  1  0
 13 15  1  0
 13 16  1  0
 14 17  2  0
 14 18  1  0
 16 19  2  0
 17 19  1  0
 19 20  1  0
 20 21  1  0
 20 22  1  0
 21 23  1  0
 22 24  2  0
 22 25  1  0
 23 26  1  0
 23 27  1  0
 26 27  1  0
 25 28  1  0
 28 29  1  0
 28 30  2  0
 29 31  1  0
 29 32  2  0
 30 33  1  0
 32 33  1  0
 30 34  1  0
M  END
