NIM-UNI-7ba87d62-2-bromoalkyne
     RDKit          3D

 24 26  0  0  0  0  0  0  0  0999 V2000
    6.5910   -4.1110   19.8850 C   0  0  0  0  0  0  0  0  0  0  0  0
    5.3630   -3.9790   19.7070 C   0  0  0  0  0  0  0  0  0  0  0  0
    7.4030   -3.1490   20.1750 N   0  0  0  0  0  0  0  0  0  0  0  0
    7.5800   -2.6120   21.4040 C   0  0  0  0  0  0  0  0  0  0  0  0
    8.1950   -1.4830   21.5120 N   0  0  0  0  0  0  0  0  0  0  0  0
    7.0780   -3.3340   22.6510 C   0  0  0  0  0  0  0  0  0  0  0  0
    8.3940   -1.0170   22.7640 C   0  0  0  0  0  0  0  0  0  0  0  0
    7.6660   -2.9580   23.7680 C   0  0  0  0  0  0  0  0  0  0  0  0
    6.0600   -4.3660   22.7680 C   0  0  0  0  0  0  0  0  0  0  0  0
    8.3650    0.1860   23.0230 O   0  0  0  0  0  0  0  0  0  0  0  0
    8.6230   -2.0100   23.7120 N   0  0  0  0  0  0  0  0  0  0  0  0
    6.4540   -5.6970   22.8780 C   0  0  0  0  0  0  0  0  0  0  0  0
    4.6960   -4.0840   22.7920 C   0  0  0  0  0  0  0  0  0  0  0  0
    9.9750   -2.5350   23.7080 C   0  0  0  0  0  0  0  0  0  0  0  0
    5.4970   -6.6820   22.9990 C   0  0  0  0  0  0  0  0  0  0  0  0
    3.7370   -5.0370   22.9190 N   0  0  0  0  0  0  0  0  0  0  0  0
   10.9430   -1.3930   23.5500 C   0  0  0  0  0  0  0  0  0  0  0  0
    4.1640   -6.3150   23.0140 C   0  0  0  0  0  0  0  0  0  0  0  0
   12.0180   -1.8590   22.5560 C   0  0  0  0  0  0  0  0  0  0  0  0
   10.8870   -0.1290   24.1750 C   0  0  0  0  0  0  0  0  0  0  0  0
   13.0360   -0.7960   22.3040 C   0  0  0  0  0  0  0  0  0  0  0  0
   11.8740    0.8320   23.8910 C   0  0  0  0  0  0  0  0  0  0  0  0
    9.8020    0.2210   25.1290 C   0  0  0  0  0  0  0  0  0  0  0  0
   12.9190    0.5570   23.0060 C   0  0  0  0  0  0  0  0  0  0  0  0
  1  2  2  3
  1  3  1  0
  3  4  1  0
  4  5  2  0
  4  6  1  0
  5  7  1  0
  6  8  2  0
  6  9  1  0
  7 10  2  0
  7 11  1  0
  8 11  1  0
  9 12  2  0
  9 13  1  0
 11 14  1  0
 12 15  1  0
 13 16  2  0
 14 17  1  0
 15 18  2  0
 16 18  1  0
 17 19  2  0
 17 20  1  0
 19 21  1  0
 20 22  2  0
 20 23  1  0
 21 24  2  0
 22 24  1  0
M  END
