NIM-UNI-310206f0-18-nitrile
     RDKit          3D

 31 34  0  0  0  0  0  0  0  0999 V2000
    6.4710   -3.8920   20.0990 C   0  0  0  0  0  0  0  0  0  0  0  0
    5.4440   -3.6490   19.3940 N   0  0  0  0  0  0  0  0  0  0  0  0
    6.5350   -3.2960   21.3240 N   0  0  0  0  0  0  0  0  0  0  0  0
    5.6110   -3.7180   22.3940 C   0  0  0  0  0  0  0  0  0  0  0  0
    6.7990   -1.8470   21.3850 C   0  0  0  0  0  0  0  0  0  0  0  0
    6.4710   -3.6300   23.7060 C   0  0  0  0  0  0  0  0  0  0  0  0
    6.5500   -1.3080   22.7910 C   0  0  0  0  0  0  0  0  0  0  0  0
    7.0470   -2.2580   23.7940 N   0  0  0  0  0  0  0  0  0  0  0  0
    8.3550   -2.2670   24.1140 C   0  0  0  0  0  0  0  0  0  0  0  0
    8.8760   -3.1320   25.3140 C   0  0  0  0  0  0  0  0  0  0  0  0
    9.2720   -1.5200   23.3910 C   0  0  0  0  0  0  0  0  0  0  0  0
    8.0660   -3.8800   26.0770 F   0  0  0  0  0  0  0  0  0  0  0  0
   10.4010   -3.1260   25.6300 C   0  0  0  0  0  0  0  0  0  0  0  0
   10.7360   -1.5290   23.7060 C   0  0  0  0  0  0  0  0  0  0  0  0
    8.8950   -0.7460   22.3610 F   0  0  0  0  0  0  0  0  0  0  0  0
   11.2950   -2.2650   24.7290 C   0  0  0  0  0  0  0  0  0  0  0  0
   12.7230   -2.1840   24.8850 N   0  0  0  0  0  0  0  0  0  0  0  0
   13.5060   -3.2610   25.4680 C   0  0  0  0  0  0  0  0  0  0  0  0
   13.0030   -1.8690   23.6630 C   0  0  0  0  0  0  0  0  0  0  0  0
   13.2480   -3.8220   26.5100 O   0  0  0  0  0  0  0  0  0  0  0  0
   14.6490   -3.6140   24.7230 N   0  0  0  0  0  0  0  0  0  0  0  0
   13.2170   -0.5980   23.4400 N   0  0  0  0  0  0  0  0  0  0  0  0
   13.0130   -2.8690   22.7670 N   0  0  0  0  0  0  0  0  0  0  0  0
   15.6990   -4.4500   25.1950 C   0  0  0  0  0  0  0  0  0  0  0  0
   13.4800   -0.2400   22.2220 C   0  0  0  0  0  0  0  0  0  0  0  0
   13.2580   -2.6120   21.4960 C   0  0  0  0  0  0  0  0  0  0  0  0
   15.4340   -5.6670   26.1020 C   0  0  0  0  0  0  0  0  0  0  0  0
   16.7040   -4.9250   24.3500 C   0  0  0  0  0  0  0  0  0  0  0  0
   13.5430   -1.2300   21.0700 C   0  0  0  0  0  0  0  0  0  0  0  0
   16.4910   -6.5380   26.0320 C   0  0  0  0  0  0  0  0  0  0  0  0
   17.3820   -5.9310   25.0370 C   0  0  0  0  0  0  0  0  0  0  0  0
  1  2  2  3
  1  3  1  0
  3  4  1  0
  3  5  1  0
  4  6  1  0
  5  7  1  0
  6  8  1  0
  7  8  1  0
  8  9  1  0
  9 10  2  0
  9 11  1  0
 10 12  1  0
 10 13  1  0
 11 14  2  0
 11 15  1  0
 13 16  2  0
 14 16  1  0
 16 17  1  0
 17 18  1  0
 17 19  1  0
 18 20  2  0
 18 21  1  0
 19 22  2  0
 19 23  1  0
 21 24  1  0
 22 25  1  0
 23 26  2  0
 24 27  1  0
 24 28  1  0
 25 29  2  0
 26 29  1  0
 27 30  1  0
 28 31  1  0
 30 31  1  0
M  END
