NIM-UNI-310206f0-36-vinylsulfonamide
     RDKit          3D

 30 33  0  0  0  0  0  0  0  0999 V2000
    7.6540   -2.9710   18.4340 C   0  0  0  0  0  0  0  0  0  0  0  0
    7.2360   -2.4090   19.7280 C   0  0  0  0  0  0  0  0  0  0  0  0
    5.5810   -2.8680   20.1390 S   0  0  0  0  0  0  0  0  0  0  0  0
    5.0980   -4.1810   19.7170 O   0  0  0  0  0  0  0  0  0  0  0  0
    4.8450   -1.6690   19.8320 O   0  0  0  0  0  0  0  0  0  0  0  0
    5.7230   -2.9340   21.7670 N   0  0  0  0  0  0  0  0  0  0  0  0
    5.8580   -1.6500   22.4190 C   0  0  0  0  0  0  0  0  0  0  0  0
    6.5370   -4.0610   22.3030 C   0  0  0  0  0  0  0  0  0  0  0  0
    7.3700   -1.5450   22.3130 C   0  0  0  0  0  0  0  0  0  0  0  0
    7.6810   -3.6840   23.2940 C   0  0  0  0  0  0  0  0  0  0  0  0
    7.8420   -2.2400   23.5130 N   0  0  0  0  0  0  0  0  0  0  0  0
    9.1020   -1.5740   23.6850 C   0  0  0  0  0  0  0  0  0  0  0  0
    8.7290   -0.0950   23.5490 C   0  0  0  0  0  0  0  0  0  0  0  0
   10.3860   -2.0290   23.8910 C   0  0  0  0  0  0  0  0  0  0  0  0
    7.4840    0.3850   23.3690 F   0  0  0  0  0  0  0  0  0  0  0  0
    9.8970    0.8830   23.6030 C   0  0  0  0  0  0  0  0  0  0  0  0
   11.5180   -1.0750   23.9590 C   0  0  0  0  0  0  0  0  0  0  0  0
   10.7130   -3.3060   24.0120 F   0  0  0  0  0  0  0  0  0  0  0  0
   11.2820    0.2590   23.7990 C   0  0  0  0  0  0  0  0  0  0  0  0
   12.3530    1.1120   23.7710 N   0  0  0  0  0  0  0  0  0  0  0  0
   13.1570    0.4760   22.7660 C   0  0  0  0  0  0  0  0  0  0  0  0
   11.9040    2.4260   23.4370 C   0  0  0  0  0  0  0  0  0  0  0  0
   13.1770   -1.0630   22.6870 C   0  0  0  0  0  0  0  0  0  0  0  0
   12.7510    3.4790   22.7490 C   0  0  0  0  0  0  0  0  0  0  0  0
   10.6400    2.9910   23.6710 C   0  0  0  0  0  0  0  0  0  0  0  0
   13.0800   -1.8050   21.6270 C   0  0  0  0  0  0  0  0  0  0  0  0
   11.7960   -1.7890   22.0670 C   0  0  0  0  0  0  0  0  0  0  0  0
   12.3330    4.7150   22.4320 N   0  0  0  0  0  0  0  0  0  0  0  0
   10.1830    4.2470   23.3650 N   0  0  0  0  0  0  0  0  0  0  0  0
   11.0320    5.0850   22.7530 C   0  0  0  0  0  0  0  0  0  0  0  0
  1  2  1  0
  3  2  1  0
  3  4  2  0
  3  5  2  0
  3  6  1  0
  6  7  1  0
  6  8  1  0
  7  9  1  0
  8 10  1  0
  9 11  1  0
 10 11  1  0
 11 12  1  0
 12 13  2  0
 12 14  1  0
 13 15  1  0
 13 16  1  0
 14 17  2  0
 14 18  1  0
 16 19  2  0
 17 19  1  0
 19 20  1  0
 20 21  1  0
 20 22  1  0
 21 23  1  0
 22 24  2  0
 22 25  1  0
 23 26  1  0
 23 27  1  0
 26 27  1  0
 24 28  1  0
 25 29  2  0
 28 30  2  0
 29 30  1  0
M  END
