NIM-UNI-7ba87d62-5-chloroacetamide
     RDKit          3D

 24 26  0  0  0  0  0  0  0  0999 V2000
    8.2870   -3.3160   19.1290 C   0  0  0  0  0  0  0  0  0  0  0  0
    6.7900   -3.4300   19.1420 C   0  0  0  0  0  0  0  0  0  0  0  0
    6.0860   -3.2510   18.1660 O   0  0  0  0  0  0  0  0  0  0  0  0
    6.1870   -3.6420   20.3400 N   0  0  0  0  0  0  0  0  0  0  0  0
    6.7940   -3.1410   21.5490 C   0  0  0  0  0  0  0  0  0  0  0  0
    7.9200   -2.2730   21.3740 N   0  0  0  0  0  0  0  0  0  0  0  0
    6.3110   -3.5040   22.8440 C   0  0  0  0  0  0  0  0  0  0  0  0
    8.5580   -1.8040   22.4960 C   0  0  0  0  0  0  0  0  0  0  0  0
    7.2120   -3.0810   23.8090 C   0  0  0  0  0  0  0  0  0  0  0  0
    5.1330   -4.1770   23.1750 C   0  0  0  0  0  0  0  0  0  0  0  0
    9.2630   -0.8000   22.5140 O   0  0  0  0  0  0  0  0  0  0  0  0
    8.4030   -2.4190   23.5080 N   0  0  0  0  0  0  0  0  0  0  0  0
    4.9580   -5.5730   22.7150 C   0  0  0  0  0  0  0  0  0  0  0  0
    4.1110   -3.4960   23.9630 C   0  0  0  0  0  0  0  0  0  0  0  0
    9.5190   -3.1070   24.0230 C   0  0  0  0  0  0  0  0  0  0  0  0
    3.7520   -6.2110   23.0800 C   0  0  0  0  0  0  0  0  0  0  0  0
    2.8740   -4.0600   24.3750 N   0  0  0  0  0  0  0  0  0  0  0  0
    9.1060   -4.0120   25.1160 C   0  0  0  0  0  0  0  0  0  0  0  0
    2.9920   -5.3420   23.8100 C   0  0  0  0  0  0  0  0  0  0  0  0
    9.6430   -5.4340   25.2470 C   0  0  0  0  0  0  0  0  0  0  0  0
    8.0010   -3.6850   26.3830 S   0  0  0  0  0  0  0  0  0  0  0  0
    9.0800   -6.0410   26.3460 C   0  0  0  0  0  0  0  0  0  0  0  0
    8.1670   -5.2560   27.0610 C   0  0  0  0  0  0  0  0  0  0  0  0
    7.1880   -5.8000   28.5910 Br  0  0  0  0  0  0  0  0  0  0  0  0
  1  2  1  0
  2  3  2  0
  2  4  1  0
  4  5  1  0
  5  6  2  0
  5  7  1  0
  6  8  1  0
  7  9  2  0
  7 10  1  0
  8 11  2  0
  8 12  1  0
  9 12  1  0
 10 13  2  0
 10 14  1  0
 12 15  1  0
 13 16  1  0
 14 17  2  0
 15 18  1  0
 16 19  2  0
 17 19  1  0
 18 20  2  0
 18 21  1  0
 20 22  1  0
 21 23  1  0
 22 23  2  0
 23 24  1  0
M  END
