NIM-UNI-43fe0159-5-chloroacetamide
     RDKit          3D

 16 17  0  0  0  0  0  0  0  0999 V2000
    7.0740   -3.0980   19.1780 C   0  0  0  0  0  0  0  0  0  0  0  0
    6.4090   -3.6570   20.1850 C   0  0  0  0  0  0  0  0  0  0  0  0
    5.4880   -4.4400   19.9050 O   0  0  0  0  0  0  0  0  0  0  0  0
    6.7740   -3.3720   21.5190 N   0  0  0  0  0  0  0  0  0  0  0  0
    6.4770   -2.0330   22.0560 C   0  0  0  0  0  0  0  0  0  0  0  0
    7.2960   -4.3460   22.5150 C   0  0  0  0  0  0  0  0  0  0  0  0
    7.3260   -1.9030   23.3130 C   0  0  0  0  0  0  0  0  0  0  0  0
    8.4120   -3.9930   23.0200 O   0  0  0  0  0  0  0  0  0  0  0  0
    8.5810   -2.5720   22.9460 C   0  0  2  0  0  0  0  0  0  0  0  0
    9.8570   -1.8240   23.0460 C   0  0  0  0  0  0  0  0  0  0  0  0
   10.1560   -0.8460   24.0330 C   0  0  0  0  0  0  0  0  0  0  0  0
   10.7510   -2.1260   22.0300 C   0  0  0  0  0  0  0  0  0  0  0  0
   11.3550   -0.1860   23.9120 C   0  0  0  0  0  0  0  0  0  0  0  0
   11.9340   -1.4730   21.9280 C   0  0  0  0  0  0  0  0  0  0  0  0
   12.1980   -0.5040   22.8570 C   0  0  0  0  0  0  0  0  0  0  0  0
   13.6140    0.4020   22.7390 S   0  0  0  0  0  0  0  0  0  0  0  0
  1  2  1  0
  2  3  2  0
  2  4  1  0
  4  5  1  0
  4  6  1  0
  5  7  1  0
  6  8  1  0
  7  9  1  0
  8  9  1  0
  9 10  1  1
 10 11  2  0
 10 12  1  0
 11 13  1  0
 12 14  2  0
 13 15  2  0
 14 15  1  0
 15 16  1  0
M  END
