NIM-UNI-310206f0-29-vinylsulfonamide
     RDKit          3D

 29 31  0  0  0  0  0  0  0  0999 V2000
    7.9820   -3.4870   19.8060 C   0  0  0  0  0  0  0  0  0  0  0  0
    6.8410   -2.7410   19.2060 C   0  0  0  0  0  0  0  0  0  0  0  0
    5.5350   -3.5500   20.0190 S   0  0  0  0  0  0  0  0  0  0  0  0
    4.3560   -3.0410   19.4840 O   0  0  0  0  0  0  0  0  0  0  0  0
    5.6850   -4.9640   19.9410 O   0  0  0  0  0  0  0  0  0  0  0  0
    5.7050   -3.0700   21.5830 N   0  0  0  0  0  0  0  0  0  0  0  0
    6.1030   -3.9720   22.6780 C   0  0  0  0  0  0  0  0  0  0  0  0
    5.8360   -1.6410   21.8210 C   0  0  0  0  0  0  0  0  0  0  0  0
    7.5250   -3.4630   23.1100 C   0  0  0  0  0  0  0  0  0  0  0  0
    6.1140   -1.4420   23.3010 C   0  0  0  0  0  0  0  0  0  0  0  0
    7.3540   -2.1030   23.6890 N   0  0  0  0  0  0  0  0  0  0  0  0
    8.5090   -1.2300   23.5390 C   0  0  0  0  0  0  0  0  0  0  0  0
    9.8210   -1.8890   23.9590 C   0  0  0  0  0  0  0  0  0  0  0  0
    8.4380    0.0760   23.0580 C   0  0  0  0  0  0  0  0  0  0  0  0
    9.9470   -3.1160   24.4030 F   0  0  0  0  0  0  0  0  0  0  0  0
   11.0900   -1.0300   23.8380 C   0  0  0  0  0  0  0  0  0  0  0  0
    9.6760    0.8820   22.9320 C   0  0  0  0  0  0  0  0  0  0  0  0
    7.2860    0.6630   22.6880 F   0  0  0  0  0  0  0  0  0  0  0  0
   10.9020    0.3920   23.2810 C   0  0  0  0  0  0  0  0  0  0  0  0
   12.0590    1.1260   23.1440 N   0  0  0  0  0  0  0  0  0  0  0  0
   11.8850    2.5560   22.8390 C   0  0  0  0  0  0  0  0  0  0  0  0
   13.0780    0.2760   22.6850 C   0  0  0  0  0  0  0  0  0  0  0  0
   13.1190    3.3910   22.4970 C   0  0  0  0  0  0  0  0  0  0  0  0
   14.1990    0.6590   22.5860 O   0  0  0  0  0  0  0  0  0  0  0  0
   12.7750   -1.2240   22.3420 C   0  0  0  0  0  0  0  0  0  0  0  0
   13.2970    4.6330   22.8420 C   0  0  0  0  0  0  0  0  0  0  0  0
   12.9230    4.7400   21.5330 C   0  0  0  0  0  0  0  0  0  0  0  0
   11.2800   -1.5580   22.3040 C   0  0  0  0  0  0  0  0  0  0  0  0
   13.2640   -1.8080   21.0420 C   0  0  0  0  0  0  0  0  0  0  0  0
  1  2  1  0
  3  2  1  0
  3  4  2  0
  3  5  2  0
  3  6  1  0
  6  7  1  0
  6  8  1  0
  7  9  1  0
  8 10  1  0
  9 11  1  0
 10 11  1  0
 11 12  1  0
 12 13  2  0
 12 14  1  0
 13 15  1  0
 13 16  1  0
 14 17  2  0
 14 18  1  0
 16 19  2  0
 17 19  1  0
 19 20  1  0
 20 21  1  0
 20 22  1  0
 21 23  1  0
 22 24  2  0
 22 25  1  0
 23 26  1  0
 23 27  1  0
 26 27  1  0
 25 28  1  0
 25 29  1  0
M  END
