NIM-UNI-310206f0-15-nitrile
     RDKit          3D

 30 33  0  0  0  0  0  0  0  0999 V2000
    6.5080   -4.0300   20.1250 C   0  0  0  0  0  0  0  0  0  0  0  0
    5.6810   -4.9990   20.0210 N   0  0  0  0  0  0  0  0  0  0  0  0
    6.4350   -3.1610   21.1700 N   0  0  0  0  0  0  0  0  0  0  0  0
    5.9960   -3.5770   22.5140 C   0  0  0  0  0  0  0  0  0  0  0  0
    6.5150   -1.7040   21.0180 C   0  0  0  0  0  0  0  0  0  0  0  0
    7.2120   -3.1600   23.4070 C   0  0  0  0  0  0  0  0  0  0  0  0
    6.3660   -1.0650   22.3900 C   0  0  0  0  0  0  0  0  0  0  0  0
    7.3130   -1.6750   23.3320 N   0  0  0  0  0  0  0  0  0  0  0  0
    8.5610   -1.2390   23.2100 C   0  0  0  0  0  0  0  0  0  0  0  0
    9.7450   -2.1880   23.4990 C   0  0  0  0  0  0  0  0  0  0  0  0
    8.8120    0.0720   22.8110 C   0  0  0  0  0  0  0  0  0  0  0  0
    9.6010   -3.4360   23.8980 F   0  0  0  0  0  0  0  0  0  0  0  0
   11.1450   -1.6400   23.3060 C   0  0  0  0  0  0  0  0  0  0  0  0
   10.1780    0.6270   22.6220 C   0  0  0  0  0  0  0  0  0  0  0  0
    7.8000    0.9260   22.5650 F   0  0  0  0  0  0  0  0  0  0  0  0
   11.2430   -0.1680   22.8450 C   0  0  0  0  0  0  0  0  0  0  0  0
   12.5430    0.2470   22.7020 N   0  0  0  0  0  0  0  0  0  0  0  0
   12.5680    1.6910   22.7520 C   0  0  0  0  0  0  0  0  0  0  0  0
   13.0160   -0.7560   23.4280 C   0  0  0  0  0  0  0  0  0  0  0  0
   11.5210    2.5750   23.4460 C   0  0  0  0  0  0  0  0  0  0  0  0
   13.5970    2.3310   22.0830 N   0  0  0  0  0  0  0  0  0  0  0  0
   13.3670   -1.7870   22.6740 N   0  0  0  0  0  0  0  0  0  0  0  0
   13.0620   -0.7450   24.7720 N   0  0  0  0  0  0  0  0  0  0  0  0
   11.6790    4.0780   23.3430 C   0  0  0  0  0  0  0  0  0  0  0  0
   13.6450    3.7160   22.0470 C   0  0  0  0  0  0  0  0  0  0  0  0
   13.7900   -2.9030   23.2210 C   0  0  0  0  0  0  0  0  0  0  0  0
   13.5040   -1.8480   25.4020 C   0  0  0  0  0  0  0  0  0  0  0  0
   12.7410    4.6040   22.6390 C   0  0  0  0  0  0  0  0  0  0  0  0
   13.9190   -3.0750   24.7000 C   0  0  0  0  0  0  0  0  0  0  0  0
   12.9240    6.0640   22.5020 C   0  0  0  0  0  0  0  0  0  0  0  0
  1  2  2  3
  1  3  1  0
  3  4  1  0
  3  5  1  0
  4  6  1  0
  5  7  1  0
  6  8  1  0
  7  8  1  0
  8  9  1  0
  9 10  2  0
  9 11  1  0
 10 12  1  0
 10 13  1  0
 11 14  2  0
 11 15  1  0
 13 16  2  0
 14 16  1  0
 16 17  1  0
 17 18  1  0
 17 19  1  0
 18 20  2  0
 18 21  1  0
 19 22  2  0
 19 23  1  0
 20 24  1  0
 21 25  2  0
 22 26  1  0
 23 27  2  0
 24 28  2  0
 25 28  1  0
 26 29  2  0
 27 29  1  0
 28 30  1  0
M  END
