NIM-UNI-bb9030bf-7-acrylamide
     RDKit          3D

 25 27  0  0  0  0  0  0  0  0999 V2000
    7.2500   -3.1710   19.2580 C   0  0  0  0  0  0  0  0  0  0  0  0
    5.8940   -2.6130   19.6580 C   0  0  0  0  0  0  0  0  0  0  0  0
    5.7610   -2.7150   21.1550 C   0  0  0  0  0  0  0  0  0  0  0  0
    4.8300   -3.3580   21.6630 O   0  0  0  0  0  0  0  0  0  0  0  0
    6.7460   -2.0820   21.9280 N   0  0  0  0  0  0  0  0  0  0  0  0
    7.3770   -0.7820   21.5680 C   0  0  1  0  0  0  0  0  0  0  0  0
    7.4950    0.1620   20.3840 C   0  0  0  0  0  0  0  0  0  0  0  0
    6.0680   -0.3570   21.6260 C   0  0  0  0  0  0  0  0  0  0  0  0
    7.4650   -0.5840   19.1490 O   0  0  0  0  0  0  0  0  0  0  0  0
    7.5930    1.6870   20.5620 N   0  0  0  0  0  0  0  0  0  0  0  0
    5.4690    0.3470   20.4410 C   0  0  0  0  0  0  0  0  0  0  0  0
    5.2170   -0.5240   22.7390 C   0  0  0  0  0  0  0  0  0  0  0  0
    7.9700    2.2890   21.8030 C   0  0  0  0  0  0  0  0  0  0  0  0
    4.0700    0.7890   20.5850 C   0  0  0  0  0  0  0  0  0  0  0  0
    3.9200   -0.1060   22.8260 N   0  0  0  0  0  0  0  0  0  0  0  0
    9.1400    1.7200   22.2210 C   0  0  0  0  0  0  0  0  0  0  0  0
    3.3820    0.5370   21.7660 C   0  0  0  0  0  0  0  0  0  0  0  0
   10.5280    2.2350   22.6210 C   0  0  0  0  0  0  0  0  0  0  0  0
    9.2300    0.3410   22.3360 N   0  0  0  0  0  0  0  0  0  0  0  0
   11.2830    0.9950   22.9010 C   0  0  0  0  0  0  0  0  0  0  0  0
   10.4460   -0.0960   22.7160 C   0  0  0  0  0  0  0  0  0  0  0  0
   12.5820    0.7730   23.2760 C   0  0  0  0  0  0  0  0  0  0  0  0
   10.8740   -1.3660   22.9000 C   0  0  0  0  0  0  0  0  0  0  0  0
   13.0420   -0.5240   23.4650 C   0  0  0  0  0  0  0  0  0  0  0  0
   12.1770   -1.5950   23.2720 C   0  0  0  0  0  0  0  0  0  0  0  0
  1  2  1  0
  2  3  1  0
  3  4  2  0
  3  5  1  0
  6  5  1  6
  6  7  1  0
  6  8  1  0
  7  9  2  0
  7 10  1  0
  8 11  2  0
  8 12  1  0
 10 13  1  0
 11 14  1  0
 12 15  2  0
 13 16  1  0
 14 17  2  0
 15 17  1  0
 16 18  2  0
 16 19  1  0
 18 20  1  0
 19 21  1  0
 20 21  2  0
 20 22  1  0
 21 23  1  0
 22 24  2  0
 23 25  2  0
 24 25  1  0
M  END
