NIM-UNI-310206f0-28-nitrile
     RDKit          3D

 32 35  0  0  0  0  0  0  0  0999 V2000
    6.6590   -3.9040   20.0190 C   0  0  0  0  0  0  0  0  0  0  0  0
    5.7010   -3.5010   19.2720 N   0  0  0  0  0  0  0  0  0  0  0  0
    6.5920   -4.0130   21.3920 N   0  0  0  0  0  0  0  0  0  0  0  0
    7.2460   -5.0640   22.2140 C   0  0  0  0  0  0  0  0  0  0  0  0
    6.0780   -2.9170   22.2190 C   0  0  0  0  0  0  0  0  0  0  0  0
    8.5060   -4.3440   22.8390 C   0  0  0  0  0  0  0  0  0  0  0  0
    6.5930   -3.0960   23.6590 C   0  0  0  0  0  0  0  0  0  0  0  0
    8.0520   -3.1790   23.6190 N   0  0  0  0  0  0  0  0  0  0  0  0
    8.6900   -2.0410   23.2930 C   0  0  0  0  0  0  0  0  0  0  0  0
   10.1580   -1.9560   22.7300 C   0  0  0  0  0  0  0  0  0  0  0  0
    7.9810   -0.8720   23.4640 C   0  0  0  0  0  0  0  0  0  0  0  0
   10.9600   -3.0000   22.5300 F   0  0  0  0  0  0  0  0  0  0  0  0
   10.6900   -0.5440   22.3810 C   0  0  0  0  0  0  0  0  0  0  0  0
    8.4720    0.4960   23.1400 C   0  0  0  0  0  0  0  0  0  0  0  0
    6.7460   -0.9060   23.9510 F   0  0  0  0  0  0  0  0  0  0  0  0
    9.7170    0.6510   22.6310 C   0  0  0  0  0  0  0  0  0  0  0  0
   10.1720    1.9650   22.3070 N   0  0  0  0  0  0  0  0  0  0  0  0
    9.1440    2.9880   22.3690 C   0  0  0  0  0  0  0  0  0  0  0  0
   11.6100    2.3340   23.1240 S   0  0  0  0  0  0  0  0  0  0  0  0
    9.4760    4.1520   23.0890 N   0  0  0  0  0  0  0  0  0  0  0  0
    7.9680    2.7260   21.7270 N   0  0  0  0  0  0  0  0  0  0  0  0
   11.1230    3.0500   24.2520 O   0  0  0  0  0  0  0  0  0  0  0  0
   12.5560    2.9670   22.2360 O   0  0  0  0  0  0  0  0  0  0  0  0
   11.9970    0.7180   23.5790 C   0  0  0  0  0  0  0  0  0  0  0  0
    8.5610    5.1990   23.2090 C   0  0  0  0  0  0  0  0  0  0  0  0
    7.0020    3.6800   21.7860 C   0  0  0  0  0  0  0  0  0  0  0  0
   13.1080   -0.0390   22.9390 C   0  0  0  0  0  0  0  0  0  0  0  0
   11.2310    0.1190   24.5590 C   0  0  0  0  0  0  0  0  0  0  0  0
    7.2270    4.9900   22.5310 C   0  0  0  0  0  0  0  0  0  0  0  0
   13.3190   -1.4710   23.4300 C   0  0  0  0  0  0  0  0  0  0  0  0
   11.4000   -1.1580   25.0280 N   0  0  0  0  0  0  0  0  0  0  0  0
   12.3680   -1.9310   24.5210 C   0  0  0  0  0  0  0  0  0  0  0  0
  1  2  2  3
  1  3  1  0
  3  4  1  0
  3  5  1  0
  4  6  1  0
  5  7  1  0
  6  8  1  0
  7  8  1  0
  8  9  1  0
  9 10  2  0
  9 11  1  0
 10 12  1  0
 10 13  1  0
 11 14  2  0
 11 15  1  0
 13 16  2  0
 14 16  1  0
 16 17  1  0
 17 18  1  0
 19 17  1  0
 18 20  2  0
 18 21  1  0
 19 22  2  0
 19 23  2  0
 19 24  1  0
 20 25  1  0
 21 26  2  0
 24 27  2  0
 24 28  1  0
 25 29  2  0
 26 29  1  0
 27 30  1  0
 28 31  2  0
 30 32  2  0
 31 32  1  0
M  END
