NIM-NMI-8bb27a2b-13-acrylamide
     RDKit          3D

 32 34  0  0  0  0  0  0  0  0999 V2000
    7.5410   -3.1540   19.2850 C   0  0  0  0  0  0  0  0  0  0  0  0
    6.2520   -2.3930   19.4290 C   0  0  0  0  0  0  0  0  0  0  0  0
    5.8160   -2.3720   20.8790 C   0  0  0  0  0  0  0  0  0  0  0  0
    4.9170   -3.0920   20.3760 O   0  0  0  0  0  0  0  0  0  0  0  0
    6.9790   -1.5550   21.0510 N   0  0  0  0  0  0  0  0  0  0  0  0
    8.1660   -2.0710   21.8250 C   0  0  0  0  0  0  0  0  0  0  0  0
    7.1450   -0.4110   20.2720 C   0  0  2  0  0  0  0  0  0  0  0  0
    9.4590   -1.6270   21.5960 C   0  0  0  0  0  0  0  0  0  0  0  0
    8.3560   -3.0830   22.9340 N   0  0  0  0  0  0  0  0  0  0  0  0
    7.8890    0.5750   20.9490 C   0  0  0  0  0  0  0  0  0  0  0  0
    6.0080    0.2670   19.8650 C   0  0  0  0  0  0  0  0  0  0  0  0
   10.3420   -2.2540   22.4140 C   0  0  0  0  0  0  0  0  0  0  0  0
    9.6150   -3.1490   23.2320 O   0  0  0  0  0  0  0  0  0  0  0  0
    7.9090    1.6280   20.3240 O   0  0  0  0  0  0  0  0  0  0  0  0
    8.4960    0.4490   22.1500 N   0  0  0  0  0  0  0  0  0  0  0  0
    6.0280    0.8420   18.5910 C   0  0  0  0  0  0  0  0  0  0  0  0
    4.8640    0.4300   20.6300 C   0  0  0  0  0  0  0  0  0  0  0  0
   11.7540   -2.0440   22.4470 C   0  0  0  0  0  0  0  0  0  0  0  0
    9.3760    1.4480   22.5410 C   0  0  0  0  0  0  0  0  0  0  0  0
    4.9260    1.5510   18.1350 C   0  0  0  0  0  0  0  0  0  0  0  0
    3.7680    1.1240   20.2030 N   0  0  0  0  0  0  0  0  0  0  0  0
   12.1330   -0.5990   22.5100 C   0  0  0  0  0  0  0  0  0  0  0  0
   12.5690   -2.4490   21.1910 C   0  0  0  0  0  0  0  0  0  0  0  0
   12.4580   -2.6890   23.4410 C   0  0  0  0  0  0  0  0  0  0  0  0
   10.4250    0.7760   23.1210 C   0  0  0  0  0  0  0  0  0  0  0  0
    3.8230    1.6690   18.9690 C   0  0  0  0  0  0  0  0  0  0  0  0
   10.1740   -0.0870   24.1050 C   0  0  0  0  0  0  0  0  0  0  0  0
   11.7910    0.8900   22.7880 C   0  0  0  0  0  0  0  0  0  0  0  0
   11.1330   -0.8110   24.7010 C   0  0  0  0  0  0  0  0  0  0  0  0
   12.8790    0.0460   23.4700 C   0  0  0  0  0  0  0  0  0  0  0  0
   12.4550   -0.8460   24.4670 C   0  0  0  0  0  0  0  0  0  0  0  0
   13.4610   -1.9280   25.3300 Cl  0  0  0  0  0  0  0  0  0  0  0  0
  1  2  1  0
  2  3  1  0
  3  4  2  0
  3  5  1  0
  5  6  1  0
  5  7  1  0
  6  8  1  0
  6  9  2  0
  7 10  1  1
  7 11  1  0
  8 12  2  0
  9 13  1  0
 12 13  1  0
 10 14  2  0
 10 15  1  0
 11 16  2  0
 11 17  1  0
 12 18  1  0
 15 19  1  0
 16 20  1  0
 17 21  2  0
 18 22  1  0
 18 23  1  0
 18 24  1  0
 19 25  1  0
 20 26  2  0
 21 26  1  0
 25 27  2  0
 25 28  1  0
 27 29  1  0
 28 30  2  0
 29 31  2  0
 30 31  1  0
 31 32  1  0
M  END
