NIM-UNI-05f93fcc-6-acrylamide
     RDKit          3D

 24 26  0  0  0  0  0  0  0  0999 V2000
    7.3510   -3.0140   18.8930 C   0  0  0  0  0  0  0  0  0  0  0  0
    6.8620   -2.9320   20.3330 C   0  0  0  0  0  0  0  0  0  0  0  0
    6.0830   -4.1890   20.6390 C   0  0  0  0  0  0  0  0  0  0  0  0
    5.1680   -4.5230   19.8860 O   0  0  0  0  0  0  0  0  0  0  0  0
    6.4720   -4.8960   21.7740 N   0  0  0  0  0  0  0  0  0  0  0  0
    5.8110   -6.1460   22.0780 C   0  0  0  0  0  0  0  0  0  0  0  0
    7.1640   -4.2300   22.8900 C   0  0  0  0  0  0  0  0  0  0  0  0
    4.9790   -6.1400   23.1840 C   0  0  0  0  0  0  0  0  0  0  0  0
    6.9130   -4.8150   24.1180 C   0  0  0  0  0  0  0  0  0  0  0  0
    5.5090   -5.2410   24.2190 N   0  0  0  0  0  0  0  0  0  0  0  0
    4.8260   -5.3790   25.7640 S   0  0  0  0  0  0  0  0  0  0  0  0
    3.9340   -6.5220   25.7670 O   0  0  0  0  0  0  0  0  0  0  0  0
    5.8610   -5.2490   26.7600 O   0  0  0  0  0  0  0  0  0  0  0  0
    3.8200   -3.9430   25.9160 C   0  0  0  0  0  0  0  0  0  0  0  0
    4.3160   -2.5330   26.0330 C   0  0  0  0  0  0  0  0  0  0  0  0
    2.1200   -4.0800   25.9450 S   0  0  0  0  0  0  0  0  0  0  0  0
    3.1900   -1.6120   26.1500 C   0  0  0  0  0  0  0  0  0  0  0  0
    1.9430   -2.3900   26.1160 C   0  0  0  0  0  0  0  0  0  0  0  0
    0.6220   -1.6380   26.2390 C   0  0  0  0  0  0  0  0  0  0  0  0
   -0.7850   -2.1640   25.8670 C   0  0  0  0  0  0  0  0  0  0  0  0
    0.6100   -0.2050   26.7890 C   0  0  0  0  0  0  0  0  0  0  0  0
   -2.0670   -1.3090   26.0400 C   0  0  0  0  0  0  0  0  0  0  0  0
   -0.6120    0.6090   26.9540 N   0  0  0  0  0  0  0  0  0  0  0  0
   -1.8490   -0.0270   26.5580 C   0  0  0  0  0  0  0  0  0  0  0  0
  1  2  1  0
  2  3  1  0
  3  4  2  0
  3  5  1  0
  5  6  1  0
  5  7  1  0
  6  8  1  0
  7  9  1  0
  8 10  1  0
  9 10  1  0
 10 11  1  0
 11 12  2  0
 11 13  2  0
 11 14  1  0
 14 15  2  0
 14 16  1  0
 15 17  1  0
 16 18  1  0
 17 18  2  0
 18 19  1  0
 19 20  2  0
 19 21  1  0
 20 22  1  0
 21 23  2  0
 22 24  2  0
 23 24  1  0
M  END
