NIM-NMI-8bb27a2b-12-acrylamide
     RDKit          3D

 30 31  0  0  0  0  0  0  0  0999 V2000
    6.7890   -4.7430   20.7510 C   0  0  0  0  0  0  0  0  0  0  0  0
    6.8200   -3.6720   21.8210 C   0  0  0  0  0  0  0  0  0  0  0  0
    5.5880   -2.7680   21.7260 C   0  0  0  0  0  0  0  0  0  0  0  0
    5.0270   -3.8810   21.7140 O   0  0  0  0  0  0  0  0  0  0  0  0
    6.5560   -1.7020   21.7600 N   0  0  0  0  0  0  0  0  0  0  0  0
    7.0490   -1.1980   20.4490 C   0  0  0  0  0  0  0  0  0  0  0  0
    6.2370   -0.6770   22.6770 C   0  0  2  0  0  0  0  0  0  0  0  0
    8.1500   -1.1590   21.2670 C   0  0  0  0  0  0  0  0  0  0  0  0
    5.6910   -1.5580   20.4260 N   0  0  0  0  0  0  0  0  0  0  0  0
    4.8470   -0.4530   22.8180 C   0  0  0  0  0  0  0  0  0  0  0  0
    6.8890    0.6860   22.2860 C   0  0  0  0  0  0  0  0  0  0  0  0
    7.1920   -1.7010   22.1420 C   0  0  0  0  0  0  0  0  0  0  0  0
    5.8050   -1.9180   21.6460 O   0  0  0  0  0  0  0  0  0  0  0  0
    3.7680   -0.2100   23.3660 O   0  0  0  0  0  0  0  0  0  0  0  0
    5.1980   -0.2800   24.1640 N   0  0  0  0  0  0  0  0  0  0  0  0
    5.7810    0.8250   21.4870 C   0  0  0  0  0  0  0  0  0  0  0  0
    6.9630    1.9110   21.6030 C   0  0  0  0  0  0  0  0  0  0  0  0
    7.6590   -2.0090   23.4650 C   0  0  0  0  0  0  0  0  0  0  0  0
    5.2280    0.9950   24.6950 C   0  0  0  0  0  0  0  0  0  0  0  0
    4.6380    0.1670   21.1440 C   0  0  0  0  0  0  0  0  0  0  0  0
    5.9500    2.2980   20.7170 N   0  0  0  0  0  0  0  0  0  0  0  0
    8.1490   -0.7790   24.2270 C   0  0  0  0  0  0  0  0  0  0  0  0
    6.5970   -2.7060   24.3780 C   0  0  0  0  0  0  0  0  0  0  0  0
    8.7160   -2.8960   23.5240 C   0  0  0  0  0  0  0  0  0  0  0  0
    5.0400    0.8320   26.0720 C   0  0  0  0  0  0  0  0  0  0  0  0
    4.7850    1.3920   20.5030 C   0  0  0  0  0  0  0  0  0  0  0  0
    3.9850    0.3770   26.5200 O   0  0  0  0  0  0  0  0  0  0  0  0
    5.9580    1.1570   26.8110 O   0  0  0  0  0  0  0  0  0  0  0  0
    6.5460    0.0740   27.5340 C   0  0  0  0  0  0  0  0  0  0  0  0
    7.7980   -0.2190   27.0080 C   0  0  0  0  0  0  0  0  0  0  0  0
  1  2  1  0
  2  3  1  0
  3  4  2  0
  3  5  1  0
  5  6  1  0
  5  7  1  0
  6  8  1  0
  6  9  2  0
  7 10  1  6
  7 11  1  0
  8 12  2  0
  9 13  1  0
 12 13  1  0
 10 14  2  0
 10 15  1  0
 11 16  2  0
 11 17  1  0
 12 18  1  0
 15 19  1  0
 16 20  1  0
 17 21  2  0
 18 22  1  0
 18 23  1  0
 18 24  1  0
 19 25  1  0
 20 26  2  0
 21 26  1  0
 25 27  2  0
 25 28  1  0
 28 29  1  0
 29 30  1  0
M  END
