NIM-UNI-310206f0-13-vinylsulfonamide
     RDKit          3D

 32 34  0  0  0  0  0  0  0  0999 V2000
    7.8480   -3.3560   19.7150 C   0  0  0  0  0  0  0  0  0  0  0  0
    6.9510   -2.4550   18.9370 C   0  0  0  0  0  0  0  0  0  0  0  0
    5.4450   -2.6530   19.7720 S   0  0  0  0  0  0  0  0  0  0  0  0
    4.9910   -4.0210   19.5930 O   0  0  0  0  0  0  0  0  0  0  0  0
    4.6830   -1.4910   19.4090 O   0  0  0  0  0  0  0  0  0  0  0  0
    5.8880   -2.4280   21.3380 N   0  0  0  0  0  0  0  0  0  0  0  0
    6.1100   -1.0910   21.8520 C   0  0  0  0  0  0  0  0  0  0  0  0
    6.0120   -3.5510   22.2760 C   0  0  0  0  0  0  0  0  0  0  0  0
    5.7440   -1.3000   23.3450 C   0  0  0  0  0  0  0  0  0  0  0  0
    7.0650   -3.2730   23.3710 C   0  0  0  0  0  0  0  0  0  0  0  0
    6.9540   -1.8880   23.9300 N   0  0  0  0  0  0  0  0  0  0  0  0
    8.1250   -1.1260   23.5330 C   0  0  0  0  0  0  0  0  0  0  0  0
    9.3740   -1.9240   23.7770 C   0  0  0  0  0  0  0  0  0  0  0  0
    8.1230    0.1640   22.9880 C   0  0  0  0  0  0  0  0  0  0  0  0
    9.3970   -3.1250   24.2880 F   0  0  0  0  0  0  0  0  0  0  0  0
   10.6670   -1.2470   23.3820 C   0  0  0  0  0  0  0  0  0  0  0  0
    9.3810    0.8390   22.5900 C   0  0  0  0  0  0  0  0  0  0  0  0
    6.9660    0.8680   22.7890 F   0  0  0  0  0  0  0  0  0  0  0  0
   10.5530    0.1660   22.7780 C   0  0  0  0  0  0  0  0  0  0  0  0
   11.7960    0.6770   22.4480 N   0  0  0  0  0  0  0  0  0  0  0  0
   12.4880   -0.4640   22.9830 C   0  0  0  0  0  0  0  0  0  0  0  0
   12.0440    2.1880   23.1550 S   0  0  0  0  0  0  0  0  0  0  0  0
   12.6380   -0.3940   24.3790 N   0  0  0  0  0  0  0  0  0  0  0  0
   12.8480   -1.4640   22.1310 N   0  0  0  0  0  0  0  0  0  0  0  0
   11.4170    2.0220   24.4250 O   0  0  0  0  0  0  0  0  0  0  0  0
   13.4080    2.4780   22.9190 O   0  0  0  0  0  0  0  0  0  0  0  0
   11.1800    3.5900   22.5080 C   0  0  0  0  0  0  0  0  0  0  0  0
   13.1810   -1.4890   24.8550 C   0  0  0  0  0  0  0  0  0  0  0  0
   13.3820   -2.5190   22.7500 C   0  0  0  0  0  0  0  0  0  0  0  0
    9.7130    3.3480   22.1620 C   0  0  0  0  0  0  0  0  0  0  0  0
   12.0780    4.2990   21.4860 C   0  0  0  0  0  0  0  0  0  0  0  0
   13.5530   -2.5500   24.1070 C   0  0  0  0  0  0  0  0  0  0  0  0
  1  2  1  0
  3  2  1  0
  3  4  2  0
  3  5  2  0
  3  6  1  0
  6  7  1  0
  6  8  1  0
  7  9  1  0
  8 10  1  0
  9 11  1  0
 10 11  1  0
 11 12  1  0
 12 13  2  0
 12 14  1  0
 13 15  1  0
 13 16  1  0
 14 17  2  0
 14 18  1  0
 16 19  2  0
 17 19  1  0
 19 20  1  0
 20 21  1  0
 22 20  1  0
 21 23  2  0
 21 24  1  0
 22 25  2  0
 22 26  2  0
 22 27  1  0
 23 28  1  0
 24 29  2  0
 27 30  1  0
 27 31  1  0
 28 32  2  0
 29 32  1  0
M  END
