NIM-NMI-8bb27a2b-28-chloroacetamide
     RDKit          3D

 32 34  0  0  0  0  0  0  0  0999 V2000
    8.3140   -3.6060   20.2160 C   0  0  0  0  0  0  0  0  0  0  0  0
    7.5010   -2.4170   20.0840 C   0  0  0  0  0  0  0  0  0  0  0  0
    6.6400   -2.5990   19.0510 O   0  0  0  0  0  0  0  0  0  0  0  0
    7.7310   -1.3730   21.1160 N   0  0  0  0  0  0  0  0  0  0  0  0
    9.1220   -1.0300   21.7250 C   0  0  0  0  0  0  0  0  0  0  0  0
    6.7760   -1.6180   22.2340 C   0  0  2  0  0  0  0  0  0  0  0  0
    9.2360    0.2480   22.4900 C   0  0  0  0  0  0  0  0  0  0  0  0
   10.3220   -1.7920   21.6550 C   0  0  0  0  0  0  0  0  0  0  0  0
    6.2050   -0.2750   22.7550 C   0  0  0  0  0  0  0  0  0  0  0  0
    7.3370   -2.6520   23.2080 C   0  0  0  0  0  0  0  0  0  0  0  0
   10.5530    0.6660   23.1170 C   0  0  0  0  0  0  0  0  0  0  0  0
   11.5130   -1.3770   22.2380 C   0  0  0  0  0  0  0  0  0  0  0  0
    6.1560    0.7610   22.0940 O   0  0  0  0  0  0  0  0  0  0  0  0
    5.7180   -0.3360   24.1330 N   0  0  0  0  0  0  0  0  0  0  0  0
    8.2650   -2.2400   24.1900 C   0  0  0  0  0  0  0  0  0  0  0  0
    7.0040   -4.0070   23.2020 C   0  0  0  0  0  0  0  0  0  0  0  0
   11.5960   -0.1780   22.9400 C   0  0  0  0  0  0  0  0  0  0  0  0
    6.3970    0.2710   25.1400 C   0  0  0  0  0  0  0  0  0  0  0  0
    8.7940   -3.1770   25.0860 C   0  0  0  0  0  0  0  0  0  0  0  0
    7.5040   -4.9330   24.0640 N   0  0  0  0  0  0  0  0  0  0  0  0
   12.6880    0.2750   23.5030 C   0  0  0  0  0  0  0  0  0  0  0  0
    5.8470   -0.1210   26.3610 C   0  0  0  0  0  0  0  0  0  0  0  0
    8.3890   -4.5030   24.9870 C   0  0  0  0  0  0  0  0  0  0  0  0
   12.8850   -0.2780   24.7280 F   0  0  0  0  0  0  0  0  0  0  0  0
   13.7460   -0.0120   22.7310 F   0  0  0  0  0  0  0  0  0  0  0  0
   12.6200    1.6210   23.6090 F   0  0  0  0  0  0  0  0  0  0  0  0
    6.0370   -1.3990   26.8260 C   0  0  0  0  0  0  0  0  0  0  0  0
    5.1240    0.7450   27.1120 C   0  0  0  0  0  0  0  0  0  0  0  0
    5.5510   -1.9530   28.0450 C   0  0  0  0  0  0  0  0  0  0  0  0
    4.5910    0.3320   28.3270 C   0  0  0  0  0  0  0  0  0  0  0  0
    4.7030   -0.9320   28.9230 C   0  0  0  0  0  0  0  0  0  0  0  0
    3.9990   -1.3270   30.4420 Cl  0  0  0  0  0  0  0  0  0  0  0  0
  1  2  1  0
  2  3  2  0
  2  4  1  0
  4  5  1  0
  4  6  1  0
  5  7  2  0
  5  8  1  0
  6  9  1  1
  6 10  1  0
  7 11  1  0
  8 12  2  0
  9 13  2  0
  9 14  1  0
 10 15  2  0
 10 16  1  0
 11 17  2  0
 12 17  1  0
 14 18  1  0
 15 19  1  0
 16 20  2  0
 17 21  1  0
 18 22  1  0
 19 23  2  0
 20 23  1  0
 21 24  1  0
 21 25  1  0
 21 26  1  0
 22 27  2  0
 22 28  1  0
 27 29  1  0
 28 30  2  0
 29 31  2  0
 30 31  1  0
 31 32  1  0
M  END
