NIM-UNI-310206f0-46-chloroacetamide
     RDKit          3D

 30 33  0  0  0  0  0  0  0  0999 V2000
    7.2190   -2.9940   18.9500 C   0  0  0  0  0  0  0  0  0  0  0  0
    6.2420   -3.4600   20.0090 C   0  0  0  0  0  0  0  0  0  0  0  0
    5.2490   -4.1080   19.6970 O   0  0  0  0  0  0  0  0  0  0  0  0
    6.5020   -3.2250   21.3310 N   0  0  0  0  0  0  0  0  0  0  0  0
    6.3870   -1.9870   22.1020 C   0  0  0  0  0  0  0  0  0  0  0  0
    7.1150   -4.2750   22.1050 C   0  0  0  0  0  0  0  0  0  0  0  0
    6.5380   -2.4550   23.6050 C   0  0  0  0  0  0  0  0  0  0  0  0
    8.3610   -3.7780   22.8060 C   0  0  0  0  0  0  0  0  0  0  0  0
    7.9690   -2.8070   23.7870 N   0  0  0  0  0  0  0  0  0  0  0  0
    8.9430   -1.7440   23.8130 C   0  0  0  0  0  0  0  0  0  0  0  0
    8.3570   -0.3240   23.8530 C   0  0  0  0  0  0  0  0  0  0  0  0
   10.2880   -2.0130   23.7800 C   0  0  0  0  0  0  0  0  0  0  0  0
    7.0500   -0.0180   23.9000 F   0  0  0  0  0  0  0  0  0  0  0  0
    9.4270    0.8130   23.8110 C   0  0  0  0  0  0  0  0  0  0  0  0
   11.2650   -0.9370   23.7480 C   0  0  0  0  0  0  0  0  0  0  0  0
   10.7990   -3.2390   23.7550 F   0  0  0  0  0  0  0  0  0  0  0  0
   10.9120    0.3480   23.7380 C   0  0  0  0  0  0  0  0  0  0  0  0
   11.9530    1.2300   23.6160 N   0  0  0  0  0  0  0  0  0  0  0  0
   13.0080    0.4030   23.0080 C   0  0  0  0  0  0  0  0  0  0  0  0
   11.4190    2.3610   22.9330 C   0  0  0  0  0  0  0  0  0  0  0  0
   12.8690   -1.1280   22.7740 C   0  0  0  0  0  0  0  0  0  0  0  0
   10.3520    2.3220   22.3220 O   0  0  0  0  0  0  0  0  0  0  0  0
   12.0150    3.7580   22.8670 C   0  0  0  0  0  0  0  0  0  0  0  0
   12.1060   -1.7470   21.9160 C   0  0  0  0  0  0  0  0  0  0  0  0
   13.3190   -1.7620   21.2930 C   0  0  0  0  0  0  0  0  0  0  0  0
   11.0050    4.8660   23.1410 C   0  0  0  0  0  0  0  0  0  0  0  0
   13.3110    4.0810   22.5890 C   0  0  0  0  0  0  0  0  0  0  0  0
   11.5530    6.2780   23.0730 C   0  0  0  0  0  0  0  0  0  0  0  0
   13.7640    5.3490   22.5340 N   0  0  0  0  0  0  0  0  0  0  0  0
   12.9110    6.3770   22.7670 C   0  0  0  0  0  0  0  0  0  0  0  0
  1  2  1  0
  2  3  2  0
  2  4  1  0
  4  5  1  0
  4  6  1  0
  5  7  1  0
  6  8  1  0
  7  9  1  0
  8  9  1  0
  9 10  1  0
 10 11  2  0
 10 12  1  0
 11 13  1  0
 11 14  1  0
 12 15  2  0
 12 16  1  0
 14 17  2  0
 15 17  1  0
 17 18  1  0
 18 19  1  0
 18 20  1  0
 19 21  1  0
 20 22  2  0
 20 23  1  0
 21 24  1  0
 21 25  1  0
 24 25  1  0
 23 26  2  0
 23 27  1  0
 26 28  1  0
 27 29  2  0
 28 30  2  0
 29 30  1  0
M  END
