NIM-UNI-05f93fcc-3-acrylamide
     RDKit          3D

 25 27  0  0  0  0  0  0  0  0999 V2000
    8.1900   -3.5880   19.8760 C   0  0  0  0  0  0  0  0  0  0  0  0
    7.3280   -3.4610   21.1190 C   0  0  0  0  0  0  0  0  0  0  0  0
    6.0460   -4.1930   20.8910 C   0  0  0  0  0  0  0  0  0  0  0  0
    5.1940   -5.0250   20.9970 O   0  0  0  0  0  0  0  0  0  0  0  0
    6.6280   -4.9650   21.9260 N   0  0  0  0  0  0  0  0  0  0  0  0
    7.2590   -4.3120   23.0590 C   0  0  0  0  0  0  0  0  0  0  0  0
    5.9180   -6.1940   22.3240 C   0  0  0  0  0  0  0  0  0  0  0  0
    6.4380   -4.1360   24.1600 C   0  0  0  0  0  0  0  0  0  0  0  0
    4.9570   -5.8760   23.2750 C   0  0  0  0  0  0  0  0  0  0  0  0
    5.7060   -5.3760   24.4520 N   0  0  0  0  0  0  0  0  0  0  0  0
    4.8990   -5.4400   25.9380 S   0  0  0  0  0  0  0  0  0  0  0  0
    5.8760   -5.2830   26.9870 O   0  0  0  0  0  0  0  0  0  0  0  0
    4.0060   -6.5820   25.9160 O   0  0  0  0  0  0  0  0  0  0  0  0
    3.8730   -4.0050   25.9990 C   0  0  0  0  0  0  0  0  0  0  0  0
    4.3310   -2.5740   26.0190 C   0  0  0  0  0  0  0  0  0  0  0  0
    2.1790   -4.1840   26.0510 S   0  0  0  0  0  0  0  0  0  0  0  0
    3.1770   -1.6780   26.0860 C   0  0  0  0  0  0  0  0  0  0  0  0
    1.9500   -2.4950   26.1150 C   0  0  0  0  0  0  0  0  0  0  0  0
    0.5890   -1.8070   26.2020 C   0  0  0  0  0  0  0  0  0  0  0  0
   -0.6350   -2.4820   25.5740 C   0  0  0  0  0  0  0  0  0  0  0  0
    0.3920   -0.5740   26.8440 C   0  0  0  0  0  0  0  0  0  0  0  0
   -2.0250   -1.8380   25.6360 C   0  0  0  0  0  0  0  0  0  0  0  0
   -0.8470    0.0750   26.9410 C   0  0  0  0  0  0  0  0  0  0  0  0
    1.7160    0.2600   27.5890 Cl  0  0  0  0  0  0  0  0  0  0  0  0
   -2.0970   -0.6110   26.3000 C   0  0  0  0  0  0  0  0  0  0  0  0
  1  2  1  0
  2  3  1  0
  3  4  2  0
  3  5  1  0
  5  6  1  0
  5  7  1  0
  6  8  1  0
  7  9  1  0
  8 10  1  0
  9 10  1  0
 10 11  1  0
 11 12  2  0
 11 13  2  0
 11 14  1  0
 14 15  2  0
 14 16  1  0
 15 17  1  0
 16 18  1  0
 17 18  2  0
 18 19  1  0
 19 20  2  0
 19 21  1  0
 20 22  1  0
 21 23  2  0
 21 24  1  0
 22 25  2  0
 23 25  1  0
M  END
