NIM-UNI-310206f0-59-chloroacetamide
     RDKit          3D

 37 41  0  0  0  0  0  0  0  0999 V2000
    6.6120   -3.4520   19.5120 C   0  0  0  0  0  0  0  0  0  0  0  0
    5.8260   -4.3990   20.4070 C   0  0  0  0  0  0  0  0  0  0  0  0
    5.4420   -5.4840   20.0140 O   0  0  0  0  0  0  0  0  0  0  0  0
    5.5470   -4.0010   21.7190 N   0  0  0  0  0  0  0  0  0  0  0  0
    6.4290   -4.5920   22.7500 C   0  0  0  0  0  0  0  0  0  0  0  0
    4.9090   -2.7310   22.0710 C   0  0  0  0  0  0  0  0  0  0  0  0
    7.3550   -3.6180   23.1750 C   0  0  0  0  0  0  0  0  0  0  0  0
    5.7170   -1.8960   23.0300 C   0  0  0  0  0  0  0  0  0  0  0  0
    7.0960   -2.2920   22.8420 N   0  0  0  0  0  0  0  0  0  0  0  0
    8.0990   -1.3420   22.8100 C   0  0  0  0  0  0  0  0  0  0  0  0
    9.3220   -1.6010   23.5890 C   0  0  0  0  0  0  0  0  0  0  0  0
    8.0780   -0.1270   22.1070 C   0  0  0  0  0  0  0  0  0  0  0  0
    9.4800   -2.7200   24.2880 F   0  0  0  0  0  0  0  0  0  0  0  0
   10.3160   -0.6720   23.5980 C   0  0  0  0  0  0  0  0  0  0  0  0
    9.1320    0.8140   22.1320 C   0  0  0  0  0  0  0  0  0  0  0  0
    7.0120    0.2150   21.3580 F   0  0  0  0  0  0  0  0  0  0  0  0
   10.2790    0.5320   22.9060 C   0  0  0  0  0  0  0  0  0  0  0  0
   11.2870    1.4090   22.9710 N   0  0  0  0  0  0  0  0  0  0  0  0
   12.3840    0.7710   23.4690 C   0  0  0  0  0  0  0  0  0  0  0  0
   10.7570    2.6500   23.3820 C   0  0  0  0  0  0  0  0  0  0  0  0
   12.5070    0.4500   24.6410 O   0  0  0  0  0  0  0  0  0  0  0  0
   13.4030    0.4300   22.5660 N   0  0  0  0  0  0  0  0  0  0  0  0
    9.2980    2.4920   23.9360 C   0  0  0  0  0  0  0  0  0  0  0  0
   11.5270    3.8820   23.2610 C   0  0  0  0  0  0  0  0  0  0  0  0
   13.3940   -0.7730   21.9340 C   0  0  0  0  0  0  0  0  0  0  0  0
    9.0280    3.9510   24.2430 C   0  0  0  0  0  0  0  0  0  0  0  0
   11.0070    5.1270   23.6350 C   0  0  0  0  0  0  0  0  0  0  0  0
   12.8020    4.2470   22.8270 C   0  0  0  0  0  0  0  0  0  0  0  0
   12.8350   -1.9580   22.6090 C   0  0  0  0  0  0  0  0  0  0  0  0
   13.8640   -1.1850   20.6740 C   0  0  0  0  0  0  0  0  0  0  0  0
    9.8200    5.2160   24.1070 C   0  0  0  0  0  0  0  0  0  0  0  0
   11.9060    6.1660   23.4310 N   0  0  0  0  0  0  0  0  0  0  0  0
   13.0230    5.6010   22.9240 C   0  0  0  0  0  0  0  0  0  0  0  0
   12.2430   -2.0940   23.9900 C   0  0  0  0  0  0  0  0  0  0  0  0
   12.9480   -2.9840   21.7640 N   0  0  0  0  0  0  0  0  0  0  0  0
   13.5610   -2.5210   20.6110 O   0  0  0  0  0  0  0  0  0  0  0  0
   14.5660   -0.6190   19.4950 C   0  0  0  0  0  0  0  0  0  0  0  0
  1  2  1  0
  2  3  2  0
  2  4  1  0
  4  5  1  0
  4  6  1  0
  5  7  1  0
  6  8  1  0
  7  9  1  0
  8  9  1  0
  9 10  1  0
 10 11  2  0
 10 12  1  0
 11 13  1  0
 11 14  1  0
 12 15  2  0
 12 16  1  0
 14 17  2  0
 15 17  1  0
 17 18  1  0
 18 19  1  0
 18 20  1  0
 19 21  2  0
 19 22  1  0
 20 23  2  0
 20 24  1  0
 22 25  1  0
 23 26  1  0
 24 27  2  0
 24 28  1  0
 25 29  1  0
 25 30  2  0
 26 31  2  0
 27 31  1  0
 27 32  1  0
 28 33  2  0
 32 33  1  0
 29 34  1  0
 29 35  2  0
 30 36  1  0
 35 36  1  0
 30 37  1  0
M  END
