NIM-UNI-05f93fcc-1-acrylamide
     RDKit          3D

 19 20  0  0  0  0  0  0  0  0999 V2000
    7.3830   -3.0530   19.0050 C   0  0  0  0  0  0  0  0  0  0  0  0
    6.9700   -3.0260   20.4580 C   0  0  0  0  0  0  0  0  0  0  0  0
    6.1450   -4.2520   20.7090 C   0  0  0  0  0  0  0  0  0  0  0  0
    5.1960   -4.5190   19.9650 O   0  0  0  0  0  0  0  0  0  0  0  0
    6.4960   -5.0570   21.7800 N   0  0  0  0  0  0  0  0  0  0  0  0
    7.2590   -4.5030   22.9130 C   0  0  0  0  0  0  0  0  0  0  0  0
    5.7920   -6.1650   22.2040 C   0  0  0  0  0  0  0  0  0  0  0  0
    6.3420   -4.1330   24.0330 C   0  0  0  0  0  0  0  0  0  0  0  0
    4.8920   -5.9160   23.2510 C   0  0  0  0  0  0  0  0  0  0  0  0
    5.5120   -5.3290   24.3190 N   0  0  0  0  0  0  0  0  0  0  0  0
    4.8700   -5.4110   25.8890 S   0  0  0  0  0  0  0  0  0  0  0  0
    3.9750   -6.5470   25.9210 O   0  0  0  0  0  0  0  0  0  0  0  0
    5.9420   -5.2640   26.8380 O   0  0  0  0  0  0  0  0  0  0  0  0
    3.9070   -3.9380   25.9760 C   0  0  0  0  0  0  0  0  0  0  0  0
    4.3930   -2.6390   26.0090 C   0  0  0  0  0  0  0  0  0  0  0  0
    2.1750   -4.0180   26.0400 S   0  0  0  0  0  0  0  0  0  0  0  0
    3.2440   -1.6450   26.1000 C   0  0  0  0  0  0  0  0  0  0  0  0
    1.9250   -2.3290   26.1320 C   0  0  0  0  0  0  0  0  0  0  0  0
    0.2070   -1.5580   26.2590 Br  0  0  0  0  0  0  0  0  0  0  0  0
  1  2  1  0
  2  3  1  0
  3  4  2  0
  3  5  1  0
  5  6  1  0
  5  7  1  0
  6  8  1  0
  7  9  1  0
  8 10  1  0
  9 10  1  0
 10 11  1  0
 11 12  2  0
 11 13  2  0
 11 14  1  0
 14 15  2  0
 14 16  1  0
 15 17  1  0
 16 18  1  0
 17 18  2  0
 18 19  1  0
M  END
