NIM-UNI-36e12f95-5-nitrile
     RDKit          3D

 21 23  0  0  0  0  0  0  0  0999 V2000
    7.6710   -4.0070   20.1220 C   0  0  0  0  0  0  0  0  0  0  0  0
    6.3630   -4.1670   19.9130 N   0  0  0  0  0  0  0  0  0  0  0  0
    8.3300   -3.2070   21.2700 C   0  0  0  0  0  0  0  0  0  0  0  0
    9.7220   -2.8960   21.3440 C   0  0  0  0  0  0  0  0  0  0  0  0
    7.6750   -2.6260   22.4420 C   0  0  0  0  0  0  0  0  0  0  0  0
   10.3720   -2.1450   22.3120 C   0  0  0  0  0  0  0  0  0  0  0  0
    8.3420   -1.8390   23.4010 C   0  0  0  0  0  0  0  0  0  0  0  0
    6.3180   -2.7060   22.8370 N   0  0  0  0  0  0  0  0  0  0  0  0
    9.6870   -1.5830   23.3490 C   0  0  0  0  0  0  0  0  0  0  0  0
    6.4330   -2.5480   24.2130 C   0  0  0  0  0  0  0  0  0  0  0  0
    7.2900   -1.4410   24.2000 N   0  0  0  0  0  0  0  0  0  0  0  0
   10.3580   -0.7700   24.2370 C   0  0  0  0  0  0  0  0  0  0  0  0
    5.9230   -3.2100   25.1050 O   0  0  0  0  0  0  0  0  0  0  0  0
    6.8780   -0.5230   23.3450 C   0  0  0  0  0  0  0  0  0  0  0  0
    9.9230    0.5520   24.2480 C   0  0  0  0  0  0  0  0  0  0  0  0
   11.2950   -1.2130   24.9130 O   0  0  0  0  0  0  0  0  0  0  0  0
    7.8090   -0.2300   22.3340 C   0  0  0  0  0  0  0  0  0  0  0  0
    5.6580    0.1330   23.3320 C   0  0  0  0  0  0  0  0  0  0  0  0
    7.5180    0.6780   21.3580 C   0  0  0  0  0  0  0  0  0  0  0  0
    5.3210    1.0480   22.3830 N   0  0  0  0  0  0  0  0  0  0  0  0
    6.2950    1.3050   21.3780 C   0  0  0  0  0  0  0  0  0  0  0  0
  1  2  2  3
  1  3  1  0
  3  4  2  0
  3  5  1  0
  4  6  1  0
  5  7  2  0
  5  8  1  0
  6  9  2  0
  7  9  1  0
  8 10  1  0
  7 11  1  0
 10 11  1  0
  9 12  1  0
 10 13  2  0
 11 14  1  0
 12 15  1  0
 12 16  2  0
 14 17  2  0
 14 18  1  0
 17 19  1  0
 18 20  2  0
 19 21  2  0
 20 21  1  0
M  END
