NIM-NMI-8bb27a2b-2-bromoalkyne
     RDKit          3D

 26 27  0  0  0  0  0  0  0  0999 V2000
    7.3720   -3.2180   19.9730 C   0  0  0  0  0  0  0  0  0  0  0  0
    5.8740   -3.6080   19.7120 C   0  0  0  0  0  0  0  0  0  0  0  0
    7.8660   -1.9670   20.6010 N   0  0  0  0  0  0  0  0  0  0  0  0
    9.2210   -2.0320   21.3070 C   0  0  0  0  0  0  0  0  0  0  0  0
    6.8520   -1.0550   21.1850 C   0  0  2  0  0  0  0  0  0  0  0  0
   10.3370   -1.3390   22.1270 C   0  0  0  0  0  0  0  0  0  0  0  0
    9.4280   -0.8920   21.7840 N   0  0  0  0  0  0  0  0  0  0  0  0
    5.8940   -1.9310   22.0460 C   0  0  0  0  0  0  0  0  0  0  0  0
    6.2310   -0.1710   20.1150 C   0  0  0  0  0  0  0  0  0  0  0  0
   10.1120    0.1730   22.5120 C   0  0  0  0  0  0  0  0  0  0  0  0
    9.0140    0.3450   21.9610 O   0  0  0  0  0  0  0  0  0  0  0  0
    4.9160   -2.6090   21.7470 O   0  0  0  0  0  0  0  0  0  0  0  0
    6.4460   -1.7620   23.2910 N   0  0  0  0  0  0  0  0  0  0  0  0
    4.9790    0.6660   20.3260 C   0  0  0  0  0  0  0  0  0  0  0  0
    6.8260   -0.1090   18.8510 C   0  0  0  0  0  0  0  0  0  0  0  0
   10.9090    1.0290   23.2550 C   0  0  0  0  0  0  0  0  0  0  0  0
    7.3800   -2.6710   23.6800 C   0  0  0  0  0  0  0  0  0  0  0  0
    4.4800    1.4840   19.1820 C   0  0  0  0  0  0  0  0  0  0  0  0
    6.3900    0.6290   17.8010 N   0  0  0  0  0  0  0  0  0  0  0  0
   10.3230    0.9000   24.4820 C   0  0  0  0  0  0  0  0  0  0  0  0
   10.9400    2.5260   22.8960 C   0  0  0  0  0  0  0  0  0  0  0  0
   12.3760    0.5230   23.3450 C   0  0  0  0  0  0  0  0  0  0  0  0
    8.6770   -2.2710   23.9870 C   0  0  0  0  0  0  0  0  0  0  0  0
    5.2840    1.3930   17.9260 C   0  0  0  0  0  0  0  0  0  0  0  0
    9.6740   -3.2280   23.7340 C   0  0  0  0  0  0  0  0  0  0  0  0
   10.9870   -2.8570   24.0920 C   0  0  0  0  0  0  0  0  0  0  0  0
  1  2  2  3
  1  3  1  0
  3  4  1  0
  3  5  1  0
  4  6  1  0
  4  7  2  0
  5  8  1  6
  5  9  1  0
  6 10  2  0
  7 11  1  0
 10 11  1  0
  8 12  2  0
  8 13  1  0
  9 14  2  0
  9 15  1  0
 10 16  1  0
 13 17  1  0
 14 18  1  0
 15 19  2  0
 16 20  1  0
 16 21  1  0
 16 22  1  0
 17 23  1  0
 18 24  2  0
 19 24  1  0
 23 25  1  0
 25 26  1  0
M  END
