NIM-UNI-310206f0-41-nitrile
     RDKit          3D

 31 34  0  0  0  0  0  0  0  0999 V2000
    6.6740   -3.4880   19.7880 C   0  0  0  0  0  0  0  0  0  0  0  0
    5.7280   -4.3630   19.8750 N   0  0  0  0  0  0  0  0  0  0  0  0
    6.6540   -2.2600   20.4460 N   0  0  0  0  0  0  0  0  0  0  0  0
    5.9370   -2.0260   21.7200 C   0  0  0  0  0  0  0  0  0  0  0  0
    6.9020   -1.0010   19.7300 C   0  0  0  0  0  0  0  0  0  0  0  0
    7.0040   -1.3150   22.6420 C   0  0  0  0  0  0  0  0  0  0  0  0
    6.8670    0.2360   20.6690 C   0  0  0  0  0  0  0  0  0  0  0  0
    7.4660   -0.0460   21.9920 N   0  0  0  0  0  0  0  0  0  0  0  0
    8.7770    0.2490   22.2210 C   0  0  0  0  0  0  0  0  0  0  0  0
    9.8030   -0.9060   22.0610 C   0  0  0  0  0  0  0  0  0  0  0  0
    9.2550    1.5340   22.5910 C   0  0  0  0  0  0  0  0  0  0  0  0
    9.4470   -2.1550   21.7280 F   0  0  0  0  0  0  0  0  0  0  0  0
   11.2930   -0.5910   22.2930 C   0  0  0  0  0  0  0  0  0  0  0  0
   10.7390    1.8770   22.8420 C   0  0  0  0  0  0  0  0  0  0  0  0
    8.3850    2.5480   22.7400 F   0  0  0  0  0  0  0  0  0  0  0  0
   11.6930    0.8750   22.6900 C   0  0  0  0  0  0  0  0  0  0  0  0
   13.1440    0.9420   22.8380 N   0  0  0  0  0  0  0  0  0  0  0  0
   13.2510   -0.4950   22.8240 C   0  0  0  0  0  0  0  0  0  0  0  0
   13.9700    1.3320   21.7770 C   0  0  0  0  0  0  0  0  0  0  0  0
   13.7270   -1.1620   21.9120 O   0  0  0  0  0  0  0  0  0  0  0  0
   12.7160   -1.4300   23.8950 C   0  0  0  0  0  0  0  0  0  0  0  0
   14.0100    0.2930   20.9050 N   0  0  0  0  0  0  0  0  0  0  0  0
   14.6870    2.5530   21.5000 N   0  0  0  0  0  0  0  0  0  0  0  0
   13.4950   -2.3780   24.6540 C   0  0  0  0  0  0  0  0  0  0  0  0
   11.4500   -1.6260   24.3790 N   0  0  0  0  0  0  0  0  0  0  0  0
   14.7570    0.2540   19.6670 C   0  0  0  0  0  0  0  0  0  0  0  0
   15.5020    2.7560   20.2630 C   0  0  0  0  0  0  0  0  0  0  0  0
   12.8160   -3.0580   25.4930 C   0  0  0  0  0  0  0  0  0  0  0  0
   11.5160   -2.6510   25.3760 O   0  0  0  0  0  0  0  0  0  0  0  0
   15.6820    1.5440   19.2020 C   0  0  0  0  0  0  0  0  0  0  0  0
   13.4010   -4.0370   26.3680 C   0  0  0  0  0  0  0  0  0  0  0  0
  1  2  2  3
  1  3  1  0
  3  4  1  0
  3  5  1  0
  4  6  1  0
  5  7  1  0
  6  8  1  0
  7  8  1  0
  8  9  1  0
  9 10  2  0
  9 11  1  0
 10 12  1  0
 10 13  1  0
 11 14  2  0
 11 15  1  0
 13 16  2  0
 14 16  1  0
 16 17  1  0
 17 18  1  0
 17 19  1  0
 18 20  2  0
 18 21  1  0
 19 22  2  0
 19 23  1  0
 21 24  1  0
 21 25  2  0
 22 26  1  0
 23 27  2  0
 24 28  2  0
 25 29  1  0
 28 29  1  0
 26 30  2  0
 27 30  1  0
 28 31  1  0
M  END
