NIM-UNI-310206f0-21-chloroacetamide
     RDKit          3D

 35 38  0  0  0  0  0  0  0  0999 V2000
    7.1710   -3.1190   19.1800 C   0  0  0  0  0  0  0  0  0  0  0  0
    6.1030   -3.5470   20.1740 C   0  0  0  0  0  0  0  0  0  0  0  0
    5.3500   -4.4860   19.8970 O   0  0  0  0  0  0  0  0  0  0  0  0
    5.9650   -2.8820   21.3780 N   0  0  0  0  0  0  0  0  0  0  0  0
    4.9900   -1.8130   21.6200 C   0  0  0  0  0  0  0  0  0  0  0  0
    6.1110   -3.7110   22.5750 C   0  0  0  0  0  0  0  0  0  0  0  0
    5.6440   -0.7270   22.5100 C   0  0  0  0  0  0  0  0  0  0  0  0
    5.8370   -2.8430   23.8010 C   0  0  0  0  0  0  0  0  0  0  0  0
    6.3850   -1.5140   23.4940 N   0  0  0  0  0  0  0  0  0  0  0  0
    7.8040   -1.4070   23.2370 C   0  0  0  0  0  0  0  0  0  0  0  0
    8.5520   -1.5400   24.5380 C   0  0  0  0  0  0  0  0  0  0  0  0
    8.4060   -1.2100   22.0190 C   0  0  0  0  0  0  0  0  0  0  0  0
    7.8820   -1.7160   25.6800 F   0  0  0  0  0  0  0  0  0  0  0  0
   10.1180   -1.4470   24.4430 C   0  0  0  0  0  0  0  0  0  0  0  0
    9.8930   -1.1170   21.9260 C   0  0  0  0  0  0  0  0  0  0  0  0
    7.6930   -1.0890   20.8890 F   0  0  0  0  0  0  0  0  0  0  0  0
   10.7080   -1.2200   23.0220 C   0  0  0  0  0  0  0  0  0  0  0  0
   12.1050   -1.0850   22.8090 N   0  0  0  0  0  0  0  0  0  0  0  0
   12.8710   -2.1940   22.2290 C   0  0  0  0  0  0  0  0  0  0  0  0
   12.4520    0.2960   22.6580 C   0  0  0  0  0  0  0  0  0  0  0  0
   13.4800   -2.9900   22.9380 O   0  0  0  0  0  0  0  0  0  0  0  0
   12.8880   -2.2970   20.8270 N   0  0  0  0  0  0  0  0  0  0  0  0
   13.7210    0.5770   22.2180 N   0  0  0  0  0  0  0  0  0  0  0  0
   11.4700    1.2030   22.9660 N   0  0  0  0  0  0  0  0  0  0  0  0
   13.6020   -3.3770   20.4600 C   0  0  0  0  0  0  0  0  0  0  0  0
   13.9960    1.8880   22.0880 C   0  0  0  0  0  0  0  0  0  0  0  0
   11.7000    2.5160   22.8540 C   0  0  0  0  0  0  0  0  0  0  0  0
   13.3090   -4.4070   20.7830 C   0  0  0  0  0  0  0  0  0  0  0  0
   14.6990   -3.5160   19.6800 C   0  0  0  0  0  0  0  0  0  0  0  0
   13.0550    2.9510   22.3810 C   0  0  0  0  0  0  0  0  0  0  0  0
   14.0800   -5.6120   20.4270 C   0  0  0  0  0  0  0  0  0  0  0  0
   15.4780   -4.4520   19.2740 C   0  0  0  0  0  0  0  0  0  0  0  0
   15.2770   -5.6810   19.6320 C   0  0  0  0  0  0  0  0  0  0  0  0
   16.6060   -4.0350   18.3400 C   0  0  0  0  0  0  0  0  0  0  0  0
   16.9810   -2.7710   17.9690 N   0  0  0  0  0  0  0  0  0  0  0  0
  1  2  1  0
  2  3  2  0
  2  4  1  0
  4  5  1  0
  4  6  1  0
  5  7  1  0
  6  8  1  0
  7  9  1  0
  8  9  1  0
  9 10  1  0
 10 11  2  0
 10 12  1  0
 11 13  1  0
 11 14  1  0
 12 15  2  0
 12 16  1  0
 14 17  2  0
 15 17  1  0
 17 18  1  0
 18 19  1  0
 18 20  1  0
 19 21  2  0
 19 22  1  0
 20 23  2  0
 20 24  1  0
 22 25  1  0
 23 26  1  0
 24 27  2  0
 25 28  2  0
 25 29  1  0
 26 30  2  0
 27 30  1  0
 28 31  1  0
 29 32  2  0
 31 33  2  0
 32 33  1  0
 32 34  1  0
 34 35  3  0
M  END
