NIM-UNI-43fe0159-11-chloroacetamide
     RDKit          3D

 19 20  0  0  0  0  0  0  0  0999 V2000
    7.1640   -3.0870   19.0420 C   0  0  0  0  0  0  0  0  0  0  0  0
    6.5030   -3.5520   20.0980 C   0  0  0  0  0  0  0  0  0  0  0  0
    5.5770   -4.3640   19.8980 O   0  0  0  0  0  0  0  0  0  0  0  0
    6.8990   -3.0950   21.3740 N   0  0  0  0  0  0  0  0  0  0  0  0
    7.1580   -1.6870   21.6310 C   0  0  0  0  0  0  0  0  0  0  0  0
    6.9510   -3.9310   22.5800 C   0  0  0  0  0  0  0  0  0  0  0  0
    7.1820   -1.5770   23.1590 C   0  0  0  0  0  0  0  0  0  0  0  0
    8.0220   -3.7840   23.2200 O   0  0  0  0  0  0  0  0  0  0  0  0
    8.2700   -2.4390   23.7100 C   0  0  1  0  0  0  0  0  0  0  0  0
    9.6040   -1.9420   23.3570 C   0  0  0  0  0  0  0  0  0  0  0  0
   10.3450   -1.0780   24.1800 C   0  0  0  0  0  0  0  0  0  0  0  0
   10.1040   -2.3600   22.1490 C   0  0  0  0  0  0  0  0  0  0  0  0
   11.5760   -0.6570   23.7290 C   0  0  0  0  0  0  0  0  0  0  0  0
   11.3020   -1.9500   21.7320 C   0  0  0  0  0  0  0  0  0  0  0  0
   12.0230   -1.1060   22.5050 C   0  0  0  0  0  0  0  0  0  0  0  0
   13.5190   -0.5550   21.9830 S   0  0  0  0  0  0  0  0  0  0  0  0
   13.2710    1.1170   22.4150 C   0  0  0  0  0  0  0  0  0  0  0  0
   14.3080    1.9700   22.0630 C   0  0  0  0  0  0  0  0  0  0  0  0
   12.2530    1.5090   22.9860 O   0  0  0  0  0  0  0  0  0  0  0  0
  1  2  1  0
  2  3  2  0
  2  4  1  0
  4  5  1  0
  4  6  1  0
  5  7  1  0
  6  8  1  0
  7  9  1  0
  8  9  1  0
  9 10  1  6
 10 11  2  0
 10 12  1  0
 11 13  1  0
 12 14  2  0
 13 15  2  0
 14 15  1  0
 15 16  1  0
 16 17  1  0
 17 18  1  0
 17 19  2  0
M  END
