NIM-UNI-310206f0-27-chloroacetamide
     RDKit          3D

 31 34  0  0  0  0  0  0  0  0999 V2000
    7.3170   -2.9780   18.8340 C   0  0  0  0  0  0  0  0  0  0  0  0
    6.5140   -3.3220   20.0520 C   0  0  0  0  0  0  0  0  0  0  0  0
    5.5910   -4.1710   19.8730 O   0  0  0  0  0  0  0  0  0  0  0  0
    6.8970   -2.6590   21.2580 N   0  0  0  0  0  0  0  0  0  0  0  0
    6.3520   -2.7500   22.6380 C   0  0  0  0  0  0  0  0  0  0  0  0
    7.8770   -1.5540   21.2250 C   0  0  0  0  0  0  0  0  0  0  0  0
    7.6170   -2.8200   23.6180 C   0  0  0  0  0  0  0  0  0  0  0  0
    7.8960   -0.6720   22.4860 C   0  0  0  0  0  0  0  0  0  0  0  0
    8.2700   -1.4510   23.6810 N   0  0  0  0  0  0  0  0  0  0  0  0
    9.7370   -1.4850   24.0980 C   0  0  0  0  0  0  0  0  0  0  0  0
   10.3590   -0.4080   25.0280 C   0  0  0  0  0  0  0  0  0  0  0  0
   10.5380   -2.4670   23.6550 C   0  0  0  0  0  0  0  0  0  0  0  0
    9.6370    0.6100   25.5260 F   0  0  0  0  0  0  0  0  0  0  0  0
   11.9480   -0.5830   25.3580 C   0  0  0  0  0  0  0  0  0  0  0  0
   12.0170   -2.6060   23.9880 C   0  0  0  0  0  0  0  0  0  0  0  0
    9.9580   -3.3440   22.8760 F   0  0  0  0  0  0  0  0  0  0  0  0
   12.7200   -1.7310   24.7830 C   0  0  0  0  0  0  0  0  0  0  0  0
   14.1620   -2.0640   24.8900 N   0  0  0  0  0  0  0  0  0  0  0  0
   13.8930   -2.9390   23.8380 C   0  0  0  0  0  0  0  0  0  0  0  0
   15.5420   -2.4620   26.1860 S   0  0  0  0  0  0  0  0  0  0  0  0
   12.8670   -2.4380   22.7740 C   0  0  0  0  0  0  0  0  0  0  0  0
   14.8720   -3.7860   26.2080 O   0  0  0  0  0  0  0  0  0  0  0  0
   15.3780   -1.7610   27.1890 O   0  0  0  0  0  0  0  0  0  0  0  0
   17.9330   -2.0590   25.8790 C   0  0  0  0  0  0  0  0  0  0  0  0
   12.9990   -1.7510   21.6770 C   0  0  0  0  0  0  0  0  0  0  0  0
   12.7670   -0.7660   22.5840 C   0  0  0  0  0  0  0  0  0  0  0  0
   19.2920   -2.0680   26.8290 C   0  0  0  0  0  0  0  0  0  0  0  0
   18.9870   -1.6250   24.6420 C   0  0  0  0  0  0  0  0  0  0  0  0
   20.7730   -1.7910   26.6220 C   0  0  0  0  0  0  0  0  0  0  0  0
   20.3310   -1.3750   24.4570 N   0  0  0  0  0  0  0  0  0  0  0  0
   21.2810   -1.4140   25.3140 C   0  0  0  0  0  0  0  0  0  0  0  0
  1  2  1  0
  2  3  2  0
  2  4  1  0
  4  5  1  0
  4  6  1  0
  5  7  1  0
  6  8  1  0
  7  9  1  0
  8  9  1  0
  9 10  1  0
 10 11  2  0
 10 12  1  0
 11 13  1  0
 11 14  1  0
 12 15  2  0
 12 16  1  0
 14 17  2  0
 15 17  1  0
 17 18  1  0
 18 19  1  0
 20 18  1  0
 19 21  1  0
 20 22  2  0
 20 23  2  0
 20 24  1  0
 21 25  1  0
 21 26  1  0
 25 26  1  0
 24 27  2  0
 24 28  1  0
 27 29  1  0
 28 30  2  0
 29 31  2  0
 30 31  1  0
M  END
