NIM-UNI-43fe0159-1-vinylsulfonamide
     RDKit          3D

 18 19  0  0  0  0  0  0  0  0999 V2000
    7.0150   -3.1280   19.1000 C   0  0  0  0  0  0  0  0  0  0  0  0
    6.0620   -3.6960   19.8760 C   0  0  0  0  0  0  0  0  0  0  0  0
    5.9780   -3.1170   21.5450 S   0  0  0  0  0  0  0  0  0  0  0  0
    4.5670   -3.2020   21.8720 O   0  0  0  0  0  0  0  0  0  0  0  0
    6.7080   -1.8630   21.5750 O   0  0  0  0  0  0  0  0  0  0  0  0
    6.7130   -4.1710   22.6240 N   0  0  0  0  0  0  0  0  0  0  0  0
    7.8610   -5.0290   22.3430 C   0  0  0  0  0  0  0  0  0  0  0  0
    6.7840   -3.6020   23.9590 C   0  0  0  0  0  0  0  0  0  0  0  0
    9.0830   -4.1300   22.5240 C   0  0  0  0  0  0  0  0  0  0  0  0
    7.8480   -2.9910   24.1430 O   0  0  0  0  0  0  0  0  0  0  0  0
    8.6290   -2.7600   22.9750 C   0  0  1  0  0  0  0  0  0  0  0  0
    9.7300   -1.7530   23.1830 C   0  0  0  0  0  0  0  0  0  0  0  0
   10.8640   -1.8590   22.3590 C   0  0  0  0  0  0  0  0  0  0  0  0
    9.6690   -0.7310   24.1390 C   0  0  0  0  0  0  0  0  0  0  0  0
   11.8940   -0.9580   22.5010 C   0  0  0  0  0  0  0  0  0  0  0  0
   10.7070    0.2010   24.2970 C   0  0  0  0  0  0  0  0  0  0  0  0
   11.8290    0.0780   23.4600 C   0  0  0  0  0  0  0  0  0  0  0  0
   12.8290    0.9550   23.5810 N   0  0  0  0  0  0  0  0  0  0  0  0
  1  2  1  0
  3  2  1  0
  3  4  2  0
  3  5  2  0
  3  6  1  0
  6  7  1  0
  6  8  1  0
  7  9  1  0
  8 10  1  0
  9 11  1  0
 10 11  1  0
 11 12  1  1
 12 13  2  0
 12 14  1  0
 13 15  1  0
 14 16  2  0
 15 17  2  0
 16 17  1  0
 17 18  1  0
M  END
