NIM-UNI-594fbbb6-3-acrylamide
     RDKit          3D

 26 28  0  0  0  0  0  0  0  0999 V2000
    7.9330   -3.3870   19.8000 C   0  0  0  0  0  0  0  0  0  0  0  0
    6.7750   -2.6780   19.1680 C   0  0  0  0  0  0  0  0  0  0  0  0
    5.6820   -3.2620   19.9720 C   0  0  0  0  0  0  0  0  0  0  0  0
    4.9690   -4.1430   19.5330 O   0  0  0  0  0  0  0  0  0  0  0  0
    5.5850   -2.8120   21.2520 N   0  0  0  0  0  0  0  0  0  0  0  0
    6.2930   -1.5870   21.6760 C   0  0  0  0  0  0  0  0  0  0  0  0
    5.2760   -3.7360   22.3380 C   0  0  0  0  0  0  0  0  0  0  0  0
    7.6630   -2.0960   22.2510 C   0  0  0  0  0  0  0  0  0  0  0  0
    6.5330   -4.1830   23.0460 C   0  0  0  0  0  0  0  0  0  0  0  0
    7.3470   -3.0370   23.3690 N   0  0  0  0  0  0  0  0  0  0  0  0
    7.8590   -2.7970   24.6290 C   0  0  0  0  0  0  0  0  0  0  0  0
    8.2340   -1.3410   24.8780 C   0  0  0  0  0  0  0  0  0  0  0  0
    9.4640   -0.9930   24.2440 C   0  0  0  0  0  0  0  0  0  0  0  0
    7.7870   -0.2140   25.5130 N   0  0  0  0  0  0  0  0  0  0  0  0
    9.7000    0.3310   24.5180 N   0  0  0  0  0  0  0  0  0  0  0  0
    8.6880    0.8190   25.2930 N   0  0  0  0  0  0  0  0  0  0  0  0
   10.8630    0.7080   23.9250 C   0  0  0  0  0  0  0  0  0  0  0  0
   11.6130    1.9850   23.7020 C   0  0  0  0  0  0  0  0  0  0  0  0
   11.5030   -0.5230   23.3620 C   0  0  0  0  0  0  0  0  0  0  0  0
   12.8100    1.9390   23.0380 C   0  0  0  0  0  0  0  0  0  0  0  0
   12.6260   -0.5820   22.7210 C   0  0  0  0  0  0  0  0  0  0  0  0
   13.2950    0.6030   22.5610 C   0  0  0  0  0  0  0  0  0  0  0  0
   13.0170   -2.1770   22.1930 S   0  0  0  0  0  0  0  0  0  0  0  0
   13.6670   -1.7670   20.7580 N   0  0  0  0  0  0  0  0  0  0  0  0
   11.7510   -2.8100   21.8940 O   0  0  0  0  0  0  0  0  0  0  0  0
   13.9220   -2.7600   23.1460 O   0  0  0  0  0  0  0  0  0  0  0  0
  1  2  1  0
  2  3  1  0
  3  4  2  0
  3  5  1  0
  5  6  1  0
  5  7  1  0
  6  8  1  0
  7  9  1  0
  8 10  1  0
  9 10  1  0
 10 11  1  0
 11 12  1  0
 12 13  2  0
 12 14  1  0
 13 15  1  0
 14 16  2  0
 15 16  1  0
 15 17  1  0
 17 18  2  0
 17 19  1  0
 18 20  1  0
 19 21  2  0
 20 22  2  0
 21 22  1  0
 21 23  1  0
 23 24  1  0
 23 25  2  0
 23 26  2  0
M  END
