NIM-UNI-363644a0-1-bromoalkyne
     RDKit          3D

 29 32  0  0  0  0  0  0  0  0999 V2000
    6.2270   -2.8630   20.2740 C   0  0  0  0  0  0  0  0  0  0  0  0
    5.2800   -3.0730   19.1600 C   0  0  0  0  0  0  0  0  0  0  0  0
    5.8210   -1.6670   21.3300 N   0  0  0  0  0  0  0  0  0  0  0  0
    5.6550   -1.7720   22.8200 C   0  0  0  0  0  0  0  0  0  0  0  0
    4.9640   -0.3630   21.1000 C   0  0  1  0  0  0  0  0  0  0  0  0
    4.3480   -1.0550   23.4570 C   0  0  0  0  0  0  0  0  0  0  0  0
    4.9980    0.6740   22.1480 C   0  0  0  0  0  0  0  0  0  0  0  0
    5.2720    0.1840   19.9200 C   0  0  0  0  0  0  0  0  0  0  0  0
    4.1150    0.4670   23.3430 N   0  0  0  0  0  0  0  0  0  0  0  0
    6.5390   -0.1190   19.5430 C   0  0  0  0  0  0  0  0  0  0  0  0
    4.4320    0.9640   19.1470 C   0  0  0  0  0  0  0  0  0  0  0  0
    2.7600    1.1010   23.2630 C   0  0  0  0  0  0  0  0  0  0  0  0
    6.9670    0.3530   18.3770 C   0  0  0  0  0  0  0  0  0  0  0  0
    4.7930    1.4760   17.9680 N   0  0  0  0  0  0  0  0  0  0  0  0
    1.9460    2.1390   24.1970 C   0  0  0  0  0  0  0  0  0  0  0  0
    6.0270    1.1820   17.5770 C   0  0  0  0  0  0  0  0  0  0  0  0
    2.4830    3.3050   24.8130 C   0  0  0  0  0  0  0  0  0  0  0  0
    0.4990    1.9250   24.4580 C   0  0  0  0  0  0  0  0  0  0  0  0
    1.5760    4.2400   25.6790 C   0  0  0  0  0  0  0  0  0  0  0  0
   -0.3620    2.7740   25.2530 C   0  0  0  0  0  0  0  0  0  0  0  0
   -0.1350    0.8210   23.9050 C   0  0  0  0  0  0  0  0  0  0  0  0
    0.1530    3.9070   25.8540 C   0  0  0  0  0  0  0  0  0  0  0  0
   -1.7200    2.4850   25.4390 C   0  0  0  0  0  0  0  0  0  0  0  0
   -1.4870    0.5500   24.1000 C   0  0  0  0  0  0  0  0  0  0  0  0
   -2.2910    1.3680   24.8610 C   0  0  0  0  0  0  0  0  0  0  0  0
   -2.2970   -0.8720   23.3820 S   0  0  0  0  0  0  0  0  0  0  0  0
   -3.8750   -0.7330   23.9740 N   0  0  0  0  0  0  0  0  0  0  0  0
   -2.3470   -0.6810   21.9480 O   0  0  0  0  0  0  0  0  0  0  0  0
   -1.7250   -2.0790   23.9490 O   0  0  0  0  0  0  0  0  0  0  0  0
  1  2  2  3
  1  3  1  0
  3  4  1  0
  3  5  1  0
  4  6  1  0
  5  7  1  0
  5  8  1  6
  6  9  1  0
  7  9  1  0
  8 10  2  0
  8 11  1  0
  9 12  1  0
 10 13  1  0
 11 14  2  0
 12 15  1  0
 13 16  2  0
 14 16  1  0
 15 17  2  0
 15 18  1  0
 17 19  1  0
 18 20  2  0
 18 21  1  0
 19 22  2  0
 20 22  1  0
 20 23  1  0
 21 24  2  0
 23 25  2  0
 24 25  1  0
 24 26  1  0
 26 27  1  0
 26 28  2  0
 26 29  2  0
M  END
