NIM-UNI-bb9030bf-1-vinylsulfonamide
     RDKit          3D

 23 24  0  0  0  0  0  0  0  0999 V2000
    8.3120   -4.6260   20.8310 C   0  0  0  0  0  0  0  0  0  0  0  0
    7.8370   -3.2140   21.1610 C   0  0  0  0  0  0  0  0  0  0  0  0
    6.1420   -2.8500   20.7070 S   0  0  0  0  0  0  0  0  0  0  0  0
    5.2090   -3.8410   21.2530 O   0  0  0  0  0  0  0  0  0  0  0  0
    6.1090   -2.4800   19.3110 O   0  0  0  0  0  0  0  0  0  0  0  0
    6.0810   -1.4410   21.6520 N   0  0  0  0  0  0  0  0  0  0  0  0
    7.3430   -1.2550   22.3830 C   0  0  1  0  0  0  0  0  0  0  0  0
    7.3390   -0.1520   23.4670 C   0  0  0  0  0  0  0  0  0  0  0  0
    7.7200   -2.6670   22.8780 C   0  0  0  0  0  0  0  0  0  0  0  0
    6.0570    0.3960   23.7900 O   0  0  0  0  0  0  0  0  0  0  0  0
    8.6680    0.2250   24.0670 N   0  0  0  0  0  0  0  0  0  0  0  0
    9.1350   -3.4430   22.7580 C   0  0  0  0  0  0  0  0  0  0  0  0
    6.9600   -3.5780   23.5060 C   0  0  0  0  0  0  0  0  0  0  0  0
    9.3930    1.4070   23.8960 C   0  0  0  0  0  0  0  0  0  0  0  0
    9.2480   -4.9830   23.3600 C   0  0  0  0  0  0  0  0  0  0  0  0
    7.8430   -4.4990   23.6050 N   0  0  0  0  0  0  0  0  0  0  0  0
   10.9060    1.2630   23.8110 C   0  0  0  0  0  0  0  0  0  0  0  0
    8.0500   -5.6670   24.0210 C   0  0  0  0  0  0  0  0  0  0  0  0
   12.2550    0.8160   23.5410 C   0  0  0  0  0  0  0  0  0  0  0  0
   10.2050    0.2040   23.1560 C   0  0  0  0  0  0  0  0  0  0  0  0
   12.7900   -0.4460   22.7710 C   0  0  0  0  0  0  0  0  0  0  0  0
   10.4980   -0.9480   22.4500 C   0  0  0  0  0  0  0  0  0  0  0  0
   11.7770   -1.3250   22.2260 C   0  0  0  0  0  0  0  0  0  0  0  0
  1  2  1  0
  2  3  1  0
  3  4  2  0
  3  5  2  0
  3  6  1  0
  7  6  1  1
  7  8  1  0
  7  9  1  0
  8 10  2  0
  8 11  1  0
  9 12  2  0
  9 13  1  0
 11 14  1  0
 12 15  1  0
 13 16  2  0
 14 17  1  0
 15 18  2  0
 16 18  1  0
 17 19  2  0
 17 20  1  0
 19 21  1  0
 20 22  2  0
 21 23  2  0
 22 23  1  0
M  END
