NIM-UNI-310206f0-47-nitrile
     RDKit          3D

 33 36  0  0  0  0  0  0  0  0999 V2000
    6.3720   -3.7330   19.5910 C   0  0  0  0  0  0  0  0  0  0  0  0
    5.7100   -3.1010   18.6980 N   0  0  0  0  0  0  0  0  0  0  0  0
    5.8480   -3.9870   20.8350 N   0  0  0  0  0  0  0  0  0  0  0  0
    6.2370   -5.0910   21.7420 C   0  0  0  0  0  0  0  0  0  0  0  0
    5.0890   -2.9200   21.4930 C   0  0  0  0  0  0  0  0  0  0  0  0
    7.1980   -4.3940   22.7720 C   0  0  0  0  0  0  0  0  0  0  0  0
    5.8960   -2.2900   22.5880 C   0  0  0  0  0  0  0  0  0  0  0  0
    7.1710   -2.9350   22.4790 N   0  0  0  0  0  0  0  0  0  0  0  0
    8.2740   -2.2260   22.6060 C   0  0  0  0  0  0  0  0  0  0  0  0
    8.4250   -0.8080   21.9310 C   0  0  0  0  0  0  0  0  0  0  0  0
    9.2860   -2.7510   23.3500 C   0  0  0  0  0  0  0  0  0  0  0  0
    7.4710   -0.2270   21.1800 F   0  0  0  0  0  0  0  0  0  0  0  0
    9.7500   -0.0490   22.1710 C   0  0  0  0  0  0  0  0  0  0  0  0
   10.5510   -2.0440   23.5820 C   0  0  0  0  0  0  0  0  0  0  0  0
    9.1640   -3.9460   23.9180 F   0  0  0  0  0  0  0  0  0  0  0  0
   10.7580   -0.8080   23.0540 C   0  0  0  0  0  0  0  0  0  0  0  0
   11.9730   -0.1880   23.3760 N   0  0  0  0  0  0  0  0  0  0  0  0
   11.8100    1.2510   23.3050 C   0  0  0  0  0  0  0  0  0  0  0  0
   12.1820   -0.8660   24.9270 S   0  0  0  0  0  0  0  0  0  0  0  0
   12.9050    2.1710   22.8080 C   0  0  0  0  0  0  0  0  0  0  0  0
   10.5980    1.9050   23.6930 C   0  0  0  0  0  0  0  0  0  0  0  0
   10.8480   -0.9240   25.4890 O   0  0  0  0  0  0  0  0  0  0  0  0
   13.1540   -0.2170   25.6910 O   0  0  0  0  0  0  0  0  0  0  0  0
   12.7770   -2.5570   24.5330 C   0  0  0  0  0  0  0  0  0  0  0  0
   12.6660    3.6610   22.7360 C   0  0  0  0  0  0  0  0  0  0  0  0
   10.4580    3.3200   23.5950 C   0  0  0  0  0  0  0  0  0  0  0  0
    9.2730    1.4250   24.2420 C   0  0  0  0  0  0  0  0  0  0  0  0
   11.7690   -3.4620   24.5680 F   0  0  0  0  0  0  0  0  0  0  0  0
   13.7100   -2.9910   25.4240 F   0  0  0  0  0  0  0  0  0  0  0  0
   13.3520   -2.6230   23.2990 F   0  0  0  0  0  0  0  0  0  0  0  0
   11.4620    4.1930   23.1250 C   0  0  0  0  0  0  0  0  0  0  0  0
    9.1880    3.6520   24.0350 N   0  0  0  0  0  0  0  0  0  0  0  0
    8.4730    2.5470   24.4220 C   0  0  0  0  0  0  0  0  0  0  0  0
  1  2  2  3
  1  3  1  0
  3  4  1  0
  3  5  1  0
  4  6  1  0
  5  7  1  0
  6  8  1  0
  7  8  1  0
  8  9  1  0
  9 10  2  0
  9 11  1  0
 10 12  1  0
 10 13  1  0
 11 14  2  0
 11 15  1  0
 13 16  2  0
 14 16  1  0
 16 17  1  0
 17 18  1  0
 19 17  1  0
 18 20  2  0
 18 21  1  0
 19 22  2  0
 19 23  2  0
 19 24  1  0
 20 25  1  0
 21 26  2  0
 21 27  1  0
 24 28  1  0
 24 29  1  0
 24 30  1  0
 25 31  2  0
 26 31  1  0
 26 32  1  0
 27 33  2  0
 32 33  1  0
M  END
