NIM-UNI-310206f0-32-chloroacetamide
     RDKit          3D

 29 31  0  0  0  0  0  0  0  0999 V2000
    6.9260   -3.0940   19.0400 C   0  0  0  0  0  0  0  0  0  0  0  0
    5.9790   -3.6410   20.0920 C   0  0  0  0  0  0  0  0  0  0  0  0
    5.2110   -4.5490   19.8410 O   0  0  0  0  0  0  0  0  0  0  0  0
    5.9830   -3.1270   21.3380 N   0  0  0  0  0  0  0  0  0  0  0  0
    6.2290   -3.8380   22.6180 C   0  0  0  0  0  0  0  0  0  0  0  0
    6.1570   -1.7020   21.3790 C   0  0  0  0  0  0  0  0  0  0  0  0
    7.7180   -3.5120   23.0150 C   0  0  0  0  0  0  0  0  0  0  0  0
    7.5520   -1.5250   21.8740 C   0  0  0  0  0  0  0  0  0  0  0  0
    7.6520   -2.0600   23.2510 N   0  0  0  0  0  0  0  0  0  0  0  0
    8.7900   -1.2440   23.4960 C   0  0  0  0  0  0  0  0  0  0  0  0
   10.1510   -1.8880   23.6790 C   0  0  0  0  0  0  0  0  0  0  0  0
    8.5510    0.1220   23.5010 C   0  0  0  0  0  0  0  0  0  0  0  0
   10.4580   -3.1750   23.6880 F   0  0  0  0  0  0  0  0  0  0  0  0
   11.2660   -0.8690   23.8410 C   0  0  0  0  0  0  0  0  0  0  0  0
    9.6130    1.0980   23.6490 C   0  0  0  0  0  0  0  0  0  0  0  0
    7.2870    0.6200   23.3450 F   0  0  0  0  0  0  0  0  0  0  0  0
   10.8640    0.6200   23.7840 C   0  0  0  0  0  0  0  0  0  0  0  0
   11.9190    1.4820   23.8540 N   0  0  0  0  0  0  0  0  0  0  0  0
   12.9660    0.5970   23.4190 C   0  0  0  0  0  0  0  0  0  0  0  0
   11.6620    2.7670   23.5020 C   0  0  0  0  0  0  0  0  0  0  0  0
   13.3710   -0.3730   24.0510 O   0  0  0  0  0  0  0  0  0  0  0  0
   13.6360    0.7920   22.1110 C   0  0  0  0  0  0  0  0  0  0  0  0
   12.5530    3.5140   23.2490 N   0  0  0  0  0  0  0  0  0  0  0  0
   10.3260    3.1910   23.4860 N   0  0  0  0  0  0  0  0  0  0  0  0
   13.7110   -0.4120   21.3200 O   0  0  0  0  0  0  0  0  0  0  0  0
   12.3580    4.8240   22.9650 C   0  0  0  0  0  0  0  0  0  0  0  0
    9.9770    4.4620   23.2030 C   0  0  0  0  0  0  0  0  0  0  0  0
   13.0530   -1.5670   21.8330 C   0  0  0  0  0  0  0  0  0  0  0  0
   11.0180    5.4970   22.8990 C   0  0  0  0  0  0  0  0  0  0  0  0
  1  2  1  0
  2  3  2  0
  2  4  1  0
  4  5  1  0
  4  6  1  0
  5  7  1  0
  6  8  1  0
  7  9  1  0
  8  9  1  0
  9 10  1  0
 10 11  2  0
 10 12  1  0
 11 13  1  0
 11 14  1  0
 12 15  2  0
 12 16  1  0
 14 17  2  0
 15 17  1  0
 17 18  1  0
 18 19  1  0
 18 20  1  0
 19 21  2  0
 19 22  1  0
 20 23  2  0
 20 24  1  0
 22 25  1  0
 23 26  1  0
 24 27  2  0
 25 28  1  0
 26 29  2  0
 27 29  1  0
M  END
