NIM-UNI-bb9030bf-7-vinylsulfonamide
     RDKit          3D

 26 28  0  0  0  0  0  0  0  0999 V2000
    7.1570   -3.0180   19.0620 C   0  0  0  0  0  0  0  0  0  0  0  0
    6.7550   -2.7600   20.5050 C   0  0  0  0  0  0  0  0  0  0  0  0
    5.5550   -3.9950   20.9180 S   0  0  0  0  0  0  0  0  0  0  0  0
    5.0680   -4.5500   19.6890 O   0  0  0  0  0  0  0  0  0  0  0  0
    4.5760   -3.4730   21.8210 O   0  0  0  0  0  0  0  0  0  0  0  0
    6.3520   -5.2620   21.6890 N   0  0  0  0  0  0  0  0  0  0  0  0
    6.6500   -5.2150   23.1080 C   0  0  2  0  0  0  0  0  0  0  0  0
    8.0250   -5.8570   23.2960 C   0  0  0  0  0  0  0  0  0  0  0  0
    5.5990   -5.8100   23.8280 C   0  0  0  0  0  0  0  0  0  0  0  0
    7.2050   -6.9010   22.7690 O   0  0  0  0  0  0  0  0  0  0  0  0
    8.3600   -4.4880   23.7740 N   0  0  0  0  0  0  0  0  0  0  0  0
    5.2620   -5.8210   25.2220 C   0  0  0  0  0  0  0  0  0  0  0  0
    4.5440   -6.5780   23.4850 C   0  0  0  0  0  0  0  0  0  0  0  0
    8.3320   -3.3540   23.0020 C   0  0  0  0  0  0  0  0  0  0  0  0
    5.1560   -5.6690   26.6500 C   0  0  0  0  0  0  0  0  0  0  0  0
    3.7340   -6.9650   24.5650 N   0  0  0  0  0  0  0  0  0  0  0  0
    9.4920   -2.4510   23.0730 C   0  0  0  0  0  0  0  0  0  0  0  0
    4.0230   -6.5420   26.0360 C   0  0  0  0  0  0  0  0  0  0  0  0
   10.8470   -2.6570   23.3530 C   0  0  0  0  0  0  0  0  0  0  0  0
    9.3010   -1.1380   22.8270 N   0  0  0  0  0  0  0  0  0  0  0  0
   11.4630   -1.2580   23.2300 C   0  0  0  0  0  0  0  0  0  0  0  0
   10.4300   -0.4090   22.9080 C   0  0  0  0  0  0  0  0  0  0  0  0
   12.8250   -0.6800   23.3750 C   0  0  0  0  0  0  0  0  0  0  0  0
   10.5700    0.8980   22.7220 C   0  0  0  0  0  0  0  0  0  0  0  0
   12.9310    0.6840   23.1680 C   0  0  0  0  0  0  0  0  0  0  0  0
   11.8290    1.4470   22.8560 C   0  0  0  0  0  0  0  0  0  0  0  0
  1  2  1  0
  2  3  1  0
  3  4  2  0
  3  5  2  0
  3  6  1  0
  7  6  1  6
  7  8  1  0
  7  9  1  0
  8 10  2  0
  8 11  1  0
  9 12  2  0
  9 13  1  0
 11 14  1  0
 12 15  1  0
 13 16  2  0
 14 17  1  0
 15 18  2  0
 16 18  1  0
 17 19  2  0
 17 20  1  0
 19 21  1  0
 20 22  1  0
 21 22  2  0
 21 23  1  0
 22 24  1  0
 23 25  2  0
 24 26  2  0
 25 26  1  0
M  END
