NIM-NMI-8bb27a2b-28-bromoalkyne
     RDKit          3D

 31 33  0  0  0  0  0  0  0  0999 V2000
    7.5980   -2.9120   19.8880 C   0  0  0  0  0  0  0  0  0  0  0  0
    6.2490   -2.8610   19.1490 C   0  0  0  0  0  0  0  0  0  0  0  0
    7.8740   -2.2000   21.1920 N   0  0  0  0  0  0  0  0  0  0  0  0
    9.1360   -1.4690   21.8100 C   0  0  0  0  0  0  0  0  0  0  0  0
    7.0790   -2.7430   22.3350 C   0  0  1  0  0  0  0  0  0  0  0  0
   10.5110   -2.0190   21.6550 C   0  0  0  0  0  0  0  0  0  0  0  0
    9.0880   -0.2580   22.5820 C   0  0  0  0  0  0  0  0  0  0  0  0
    5.5560   -2.9190   22.0910 C   0  0  0  0  0  0  0  0  0  0  0  0
    7.8080   -3.9240   22.8720 C   0  0  0  0  0  0  0  0  0  0  0  0
   11.7310   -1.3360   22.2580 C   0  0  0  0  0  0  0  0  0  0  0  0
   10.2280    0.3520   23.1320 C   0  0  0  0  0  0  0  0  0  0  0  0
    5.0600   -3.5710   21.1590 O   0  0  0  0  0  0  0  0  0  0  0  0
    4.7430   -2.2610   23.1160 N   0  0  0  0  0  0  0  0  0  0  0  0
    9.0410   -3.6900   23.4780 C   0  0  0  0  0  0  0  0  0  0  0  0
    7.3500   -5.2300   22.8020 C   0  0  0  0  0  0  0  0  0  0  0  0
   11.5000   -0.1940   22.9560 C   0  0  0  0  0  0  0  0  0  0  0  0
    4.4460   -2.9270   24.2670 C   0  0  0  0  0  0  0  0  0  0  0  0
    9.7510   -4.7530   23.9750 C   0  0  0  0  0  0  0  0  0  0  0  0
    8.0290   -6.2840   23.2840 N   0  0  0  0  0  0  0  0  0  0  0  0
   12.6200    0.3230   23.4410 C   0  0  0  0  0  0  0  0  0  0  0  0
    5.1940   -2.4340   25.3500 C   0  0  0  0  0  0  0  0  0  0  0  0
    9.2120   -6.0230   23.8580 C   0  0  0  0  0  0  0  0  0  0  0  0
   12.5250    1.6720   23.5400 F   0  0  0  0  0  0  0  0  0  0  0  0
   12.9030   -0.1980   24.6600 F   0  0  0  0  0  0  0  0  0  0  0  0
   13.6600    0.0510   22.6260 F   0  0  0  0  0  0  0  0  0  0  0  0
    6.0010   -1.3270   25.2210 C   0  0  0  0  0  0  0  0  0  0  0  0
    5.1330   -3.0460   26.5610 C   0  0  0  0  0  0  0  0  0  0  0  0
    6.8040   -0.7200   26.2350 C   0  0  0  0  0  0  0  0  0  0  0  0
    5.8650   -2.5540   27.6350 C   0  0  0  0  0  0  0  0  0  0  0  0
    6.7170   -1.4430   27.6530 C   0  0  0  0  0  0  0  0  0  0  0  0
    7.5670   -0.9220   29.0560 Cl  0  0  0  0  0  0  0  0  0  0  0  0
  1  2  2  3
  1  3  1  0
  3  4  1  0
  3  5  1  0
  4  6  2  0
  4  7  1  0
  5  8  1  6
  5  9  1  0
  6 10  1  0
  7 11  2  0
  8 12  2  0
  8 13  1  0
  9 14  2  0
  9 15  1  0
 10 16  2  0
 11 16  1  0
 13 17  1  0
 14 18  1  0
 15 19  2  0
 16 20  1  0
 17 21  1  0
 18 22  2  0
 19 22  1  0
 20 23  1  0
 20 24  1  0
 20 25  1  0
 21 26  2  0
 21 27  1  0
 26 28  1  0
 27 29  2  0
 28 30  2  0
 29 30  1  0
 30 31  1  0
M  END
