NIM-UNI-310206f0-71-nitrile
     RDKit          3D

 21 23  0  0  0  0  0  0  0  0999 V2000
    6.7660   -3.6530   19.6980 C   0  0  0  0  0  0  0  0  0  0  0  0
    6.5800   -3.1320   18.5460 N   0  0  0  0  0  0  0  0  0  0  0  0
    6.6070   -2.9410   20.8680 N   0  0  0  0  0  0  0  0  0  0  0  0
    7.2810   -1.6440   21.0020 C   0  0  0  0  0  0  0  0  0  0  0  0
    6.1750   -3.4780   22.0930 C   0  0  0  0  0  0  0  0  0  0  0  0
    8.3780   -1.6840   21.8690 C   0  0  0  0  0  0  0  0  0  0  0  0
    7.2910   -3.5370   22.9210 C   0  0  0  0  0  0  0  0  0  0  0  0
    8.4930   -2.9620   22.5880 N   0  0  0  0  0  0  0  0  0  0  0  0
    9.4370   -2.8650   23.9800 S   0  0  0  0  0  0  0  0  0  0  0  0
   10.0710   -4.1430   24.2100 O   0  0  0  0  0  0  0  0  0  0  0  0
    8.5270   -2.2700   24.9350 O   0  0  0  0  0  0  0  0  0  0  0  0
   10.6920   -1.6160   23.7680 C   0  0  0  0  0  0  0  0  0  0  0  0
   12.1200   -1.4380   24.1100 C   0  0  0  0  0  0  0  0  0  0  0  0
   10.2500   -0.1710   22.9920 S   0  0  0  0  0  0  0  0  0  0  0  0
   12.7020   -0.1720   23.7220 C   0  0  0  0  0  0  0  0  0  0  0  0
   11.7780    0.6020   23.1400 C   0  0  0  0  0  0  0  0  0  0  0  0
   12.0240    1.8880   22.7520 C   0  0  0  0  0  0  0  0  0  0  0  0
   11.0480    2.7990   22.5730 C   0  0  0  0  0  0  0  0  0  0  0  0
   13.2080    2.4730   22.5200 C   0  0  0  0  0  0  0  0  0  0  0  0
   11.6340    3.9870   22.2110 N   0  0  0  0  0  0  0  0  0  0  0  0
   12.9630    3.6170   22.2250 N   0  0  0  0  0  0  0  0  0  0  0  0
  1  2  2  3
  1  3  1  0
  3  4  1  0
  3  5  1  0
  4  6  1  0
  5  7  1  0
  6  8  1  0
  7  8  1  0
  8  9  1  0
  9 10  2  0
  9 11  2  0
  9 12  1  0
 12 13  2  0
 12 14  1  0
 13 15  1  0
 14 16  1  0
 15 16  2  0
 16 17  1  0
 17 18  1  0
 17 19  2  0
 18 20  2  0
 19 21  1  0
 20 21  1  0
M  END
