NIM-NMI-8bb27a2b-6-acrylamide
     RDKit          3D

 32 34  0  0  0  0  0  0  0  0999 V2000
    7.3600   -4.8290   20.9940 C   0  0  0  0  0  0  0  0  0  0  0  0
    7.1530   -3.5660   21.7730 C   0  0  0  0  0  0  0  0  0  0  0  0
    5.6800   -3.3990   21.6680 C   0  0  0  0  0  0  0  0  0  0  0  0
    4.5520   -2.9910   21.6390 O   0  0  0  0  0  0  0  0  0  0  0  0
    6.0100   -2.0430   21.9140 N   0  0  0  0  0  0  0  0  0  0  0  0
    6.0720   -1.6700   23.3210 C   0  0  0  0  0  0  0  0  0  0  0  0
    6.9420   -1.2810   21.0040 C   0  0  2  0  0  0  0  0  0  0  0  0
    6.5080   -0.1610   23.7620 C   0  0  0  0  0  0  0  0  0  0  0  0
    5.7910   -2.4570   24.6270 N   0  0  0  0  0  0  0  0  0  0  0  0
    8.2040   -0.8430   21.7660 C   0  0  0  0  0  0  0  0  0  0  0  0
    6.2970   -0.3150   20.0140 C   0  0  0  0  0  0  0  0  0  0  0  0
    6.4320   -0.2680   25.0930 C   0  0  0  0  0  0  0  0  0  0  0  0
    6.1460   -1.2640   24.6950 O   0  0  0  0  0  0  0  0  0  0  0  0
    8.6460    0.2310   21.4030 O   0  0  0  0  0  0  0  0  0  0  0  0
    9.1200   -1.1110   22.7190 N   0  0  0  0  0  0  0  0  0  0  0  0
    5.1390    0.4180   20.2930 C   0  0  0  0  0  0  0  0  0  0  0  0
    6.8560   -0.1350   18.7600 C   0  0  0  0  0  0  0  0  0  0  0  0
    6.6430    0.5520   26.1510 C   0  0  0  0  0  0  0  0  0  0  0  0
   10.3810   -0.4490   22.8560 C   0  0  0  0  0  0  0  0  0  0  0  0
    4.6190    1.2670   19.3200 C   0  0  0  0  0  0  0  0  0  0  0  0
    6.3790    0.6770   17.8010 N   0  0  0  0  0  0  0  0  0  0  0  0
    7.8010    0.1160   26.7400 C   0  0  0  0  0  0  0  0  0  0  0  0
    6.7660    2.0380   25.7920 C   0  0  0  0  0  0  0  0  0  0  0  0
    5.5090    0.3740   27.1710 C   0  0  0  0  0  0  0  0  0  0  0  0
   10.3260    0.7720   23.5000 C   0  0  0  0  0  0  0  0  0  0  0  0
   11.5740   -1.0160   22.3700 C   0  0  0  0  0  0  0  0  0  0  0  0
    5.2660    1.3690   18.0890 C   0  0  0  0  0  0  0  0  0  0  0  0
    9.1880    1.4000   24.0260 C   0  0  0  0  0  0  0  0  0  0  0  0
   11.6150    1.5140   23.6510 C   0  0  0  0  0  0  0  0  0  0  0  0
   12.8040   -0.3730   22.4890 C   0  0  0  0  0  0  0  0  0  0  0  0
   11.5620   -2.2470   21.7500 C   0  0  0  0  0  0  0  0  0  0  0  0
   12.8640    0.8710   23.1010 C   0  0  0  0  0  0  0  0  0  0  0  0
  1  2  1  0
  2  3  1  0
  3  4  2  0
  3  5  1  0
  5  6  1  0
  5  7  1  0
  6  8  1  0
  6  9  2  0
  7 10  1  1
  7 11  1  0
  8 12  2  0
  9 13  1  0
 12 13  1  0
 10 14  2  0
 10 15  1  0
 11 16  2  0
 11 17  1  0
 12 18  1  0
 15 19  1  0
 16 20  1  0
 17 21  2  0
 18 22  1  0
 18 23  1  0
 18 24  1  0
 19 25  2  0
 19 26  1  0
 20 27  2  0
 21 27  1  0
 25 28  1  0
 25 29  1  0
 26 30  2  0
 26 31  1  0
 29 32  2  0
 30 32  1  0
M  END
