NIM-UNI-43fe0159-7-chloroacetamide
     RDKit          3D

 19 20  0  0  0  0  0  0  0  0999 V2000
    7.1400   -3.0620   19.0070 C   0  0  0  0  0  0  0  0  0  0  0  0
    6.4550   -3.4900   20.0610 C   0  0  0  0  0  0  0  0  0  0  0  0
    5.5410   -4.3140   19.8700 O   0  0  0  0  0  0  0  0  0  0  0  0
    6.8100   -2.9830   21.3300 N   0  0  0  0  0  0  0  0  0  0  0  0
    7.1480   -1.5870   21.5340 C   0  0  0  0  0  0  0  0  0  0  0  0
    6.9270   -3.8060   22.5360 C   0  0  0  0  0  0  0  0  0  0  0  0
    7.0680   -1.4090   23.0540 C   0  0  0  0  0  0  0  0  0  0  0  0
    8.0020   -3.5600   23.1790 O   0  0  0  0  0  0  0  0  0  0  0  0
    8.1400   -2.1970   23.7190 C   0  0  1  0  0  0  0  0  0  0  0  0
    9.4970   -1.6110   23.5570 C   0  0  0  0  0  0  0  0  0  0  0  0
   10.0850   -0.6110   24.4010 C   0  0  0  0  0  0  0  0  0  0  0  0
   10.1830   -2.1020   22.4910 C   0  0  0  0  0  0  0  0  0  0  0  0
   11.3720   -0.1730   24.0970 C   0  0  0  0  0  0  0  0  0  0  0  0
   11.4090   -1.6840   22.2060 C   0  0  0  0  0  0  0  0  0  0  0  0
   12.0170   -0.7260   23.0000 C   0  0  0  0  0  0  0  0  0  0  0  0
   13.2040   -0.4650   22.5990 N   0  0  0  0  0  0  0  0  0  0  0  0
   13.4930   -1.6950   22.2310 C   0  0  0  0  0  0  0  0  0  0  0  0
   13.4010   -2.0310   20.8960 C   0  0  0  0  0  0  0  0  0  0  0  0
   13.7840   -2.5700   23.0420 O   0  0  0  0  0  0  0  0  0  0  0  0
  1  2  1  0
  2  3  2  0
  2  4  1  0
  4  5  1  0
  4  6  1  0
  5  7  1  0
  6  8  1  0
  7  9  1  0
  8  9  1  0
  9 10  1  6
 10 11  2  0
 10 12  1  0
 11 13  1  0
 12 14  2  0
 13 15  2  0
 14 15  1  0
 15 16  1  0
 16 17  1  0
 17 18  1  0
 17 19  2  0
M  END
