NIM-NMI-8bb27a2b-22-chloroacetamide
     RDKit          3D

 32 34  0  0  0  0  0  0  0  0999 V2000
    7.3080   -3.9290   20.4780 C   0  0  0  0  0  0  0  0  0  0  0  0
    6.1920   -2.9390   20.2880 C   0  0  0  0  0  0  0  0  0  0  0  0
    5.4030   -3.2400   19.3220 O   0  0  0  0  0  0  0  0  0  0  0  0
    6.1570   -1.7960   21.2120 N   0  0  0  0  0  0  0  0  0  0  0  0
    5.1450   -0.7220   21.2100 C   0  0  0  0  0  0  0  0  0  0  0  0
    7.1150   -0.6680   21.0210 C   0  0  1  0  0  0  0  0  0  0  0  0
    5.0570    0.0250   22.4810 C   0  0  0  0  0  0  0  0  0  0  0  0
    4.3220   -0.2980   20.1570 C   0  0  0  0  0  0  0  0  0  0  0  0
    8.5450   -0.4700   21.5330 C   0  0  0  0  0  0  0  0  0  0  0  0
    6.5460    0.1060   19.8730 C   0  0  0  0  0  0  0  0  0  0  0  0
    4.1100    1.2050   22.6160 C   0  0  0  0  0  0  0  0  0  0  0  0
    3.4530    0.7930   20.3080 C   0  0  0  0  0  0  0  0  0  0  0  0
    9.1240    0.5810   21.2740 O   0  0  0  0  0  0  0  0  0  0  0  0
    9.2410   -1.4090   22.3840 N   0  0  0  0  0  0  0  0  0  0  0  0
    5.7840    1.2420   20.1590 C   0  0  0  0  0  0  0  0  0  0  0  0
    6.6940   -0.2260   18.5600 C   0  0  0  0  0  0  0  0  0  0  0  0
    3.3580    1.5260   21.5130 C   0  0  0  0  0  0  0  0  0  0  0  0
   10.4350   -0.8370   22.6470 C   0  0  0  0  0  0  0  0  0  0  0  0
    5.2020    1.9700   19.1280 C   0  0  0  0  0  0  0  0  0  0  0  0
    6.1470    0.4650   17.5470 N   0  0  0  0  0  0  0  0  0  0  0  0
    2.5340    2.6180   21.7390 C   0  0  0  0  0  0  0  0  0  0  0  0
   10.3280    0.2880   23.4320 C   0  0  0  0  0  0  0  0  0  0  0  0
   11.6740   -1.2410   22.2050 C   0  0  0  0  0  0  0  0  0  0  0  0
    5.4110    1.5390   17.8470 C   0  0  0  0  0  0  0  0  0  0  0  0
    3.1170    3.8020   21.4000 F   0  0  0  0  0  0  0  0  0  0  0  0
    2.1630    2.7690   23.0420 F   0  0  0  0  0  0  0  0  0  0  0  0
    1.3760    2.5610   21.0240 F   0  0  0  0  0  0  0  0  0  0  0  0
    9.1620    0.8320   23.9760 C   0  0  0  0  0  0  0  0  0  0  0  0
   11.6050    1.0220   23.7250 C   0  0  0  0  0  0  0  0  0  0  0  0
   12.8550   -0.5640   22.4760 C   0  0  0  0  0  0  0  0  0  0  0  0
   11.9290   -2.4350   21.3710 C   0  0  0  0  0  0  0  0  0  0  0  0
   12.9910    0.5880   23.2070 C   0  0  0  0  0  0  0  0  0  0  0  0
  1  2  1  0
  2  3  2  0
  2  4  1  0
  4  5  1  0
  4  6  1  0
  5  7  2  0
  5  8  1  0
  6  9  1  6
  6 10  1  0
  7 11  1  0
  8 12  2  0
  9 13  2  0
  9 14  1  0
 10 15  2  0
 10 16  1  0
 11 17  2  0
 12 17  1  0
 14 18  1  0
 15 19  1  0
 16 20  2  0
 17 21  1  0
 18 22  2  0
 18 23  1  0
 19 24  2  0
 20 24  1  0
 21 25  1  0
 21 26  1  0
 21 27  1  0
 22 28  1  0
 22 29  1  0
 23 30  2  0
 23 31  1  0
 29 32  2  0
 30 32  1  0
M  END
