NIM-UNI-43fe0159-11-bromoalkyne
     RDKit          3D

 18 19  0  0  0  0  0  0  0  0999 V2000
    6.8990   -3.4580   19.5850 C   0  0  0  0  0  0  0  0  0  0  0  0
    6.0530   -2.9810   18.6870 C   0  0  0  0  0  0  0  0  0  0  0  0
    6.4940   -3.6490   20.8840 N   0  0  0  0  0  0  0  0  0  0  0  0
    6.9250   -4.6870   21.8000 C   0  0  0  0  0  0  0  0  0  0  0  0
    6.1830   -2.4990   21.6510 C   0  0  0  0  0  0  0  0  0  0  0  0
    7.9150   -4.0870   22.8770 C   0  0  0  0  0  0  0  0  0  0  0  0
    7.2190   -1.9180   21.9200 O   0  0  0  0  0  0  0  0  0  0  0  0
    7.9260   -2.5400   23.0020 C   0  0  2  0  0  0  0  0  0  0  0  0
    9.2080   -1.7300   23.1050 C   0  0  0  0  0  0  0  0  0  0  0  0
   10.2680   -1.9660   22.2030 C   0  0  0  0  0  0  0  0  0  0  0  0
    9.3690   -0.7200   24.0710 C   0  0  0  0  0  0  0  0  0  0  0  0
   11.4170   -1.1990   22.2620 C   0  0  0  0  0  0  0  0  0  0  0  0
   10.5090    0.0450   24.1300 C   0  0  0  0  0  0  0  0  0  0  0  0
   11.5400   -0.1680   23.2240 C   0  0  0  0  0  0  0  0  0  0  0  0
   12.9540    0.8260   23.2440 S   0  0  0  0  0  0  0  0  0  0  0  0
   12.1360    2.3890   23.0960 C   0  0  0  0  0  0  0  0  0  0  0  0
   12.8380    3.4270   22.4590 C   0  0  0  0  0  0  0  0  0  0  0  0
   11.0100    2.5790   23.5350 O   0  0  0  0  0  0  0  0  0  0  0  0
  1  2  2  3
  1  3  1  0
  3  4  1  0
  3  5  1  0
  4  6  1  0
  5  7  1  0
  6  8  1  0
  7  8  1  0
  8  9  1  6
  9 10  2  0
  9 11  1  0
 10 12  1  0
 11 13  2  0
 12 14  2  0
 13 14  1  0
 14 15  1  0
 15 16  1  0
 16 17  1  0
 16 18  2  0
M  END
