NIM-UNI-310206f0-44-bromoalkyne
     RDKit          3D

 28 31  0  0  0  0  0  0  0  0999 V2000
    6.8710   -3.7010   19.8690 C   0  0  0  0  0  0  0  0  0  0  0  0
    5.6870   -3.1420   19.1170 C   0  0  0  0  0  0  0  0  0  0  0  0
    7.1360   -3.1710   21.1440 N   0  0  0  0  0  0  0  0  0  0  0  0
    7.3030   -3.8960   22.4360 C   0  0  0  0  0  0  0  0  0  0  0  0
    7.8710   -1.9290   21.1860 C   0  0  0  0  0  0  0  0  0  0  0  0
    8.1800   -2.9630   23.4310 C   0  0  0  0  0  0  0  0  0  0  0  0
    9.3290   -2.2900   21.4820 C   0  0  0  0  0  0  0  0  0  0  0  0
    9.5590   -2.6670   22.8320 N   0  0  0  0  0  0  0  0  0  0  0  0
   10.3030   -1.4160   23.0050 C   0  0  0  0  0  0  0  0  0  0  0  0
   11.8570   -1.2730   22.8110 C   0  0  0  0  0  0  0  0  0  0  0  0
    9.5670   -0.3820   23.2710 C   0  0  0  0  0  0  0  0  0  0  0  0
   12.6950   -2.2790   22.5300 F   0  0  0  0  0  0  0  0  0  0  0  0
   12.4350    0.2200   22.9440 C   0  0  0  0  0  0  0  0  0  0  0  0
   10.0730    0.9860   23.3850 C   0  0  0  0  0  0  0  0  0  0  0  0
    8.2910   -0.5810   23.4260 F   0  0  0  0  0  0  0  0  0  0  0  0
   11.3780    1.3450   23.2390 C   0  0  0  0  0  0  0  0  0  0  0  0
   11.5890    2.7790   23.4040 N   0  0  0  0  0  0  0  0  0  0  0  0
   12.5620    3.4480   22.5900 C   0  0  0  0  0  0  0  0  0  0  0  0
   10.6190    3.5630   24.1120 C   0  0  0  0  0  0  0  0  0  0  0  0
   12.9960    4.8150   23.1040 C   0  0  0  0  0  0  0  0  0  0  0  0
   11.0280    4.8360   24.8540 C   0  0  0  0  0  0  0  0  0  0  0  0
    9.2860    3.1870   24.1520 N   0  0  0  0  0  0  0  0  0  0  0  0
   12.2470    5.8750   23.0940 C   0  0  0  0  0  0  0  0  0  0  0  0
   13.0250    6.0630   22.0040 C   0  0  0  0  0  0  0  0  0  0  0  0
    9.9950    5.6520   25.6110 C   0  0  0  0  0  0  0  0  0  0  0  0
    8.3540    3.9150   24.8290 C   0  0  0  0  0  0  0  0  0  0  0  0
    8.5920    5.0840   25.5420 C   0  0  0  0  0  0  0  0  0  0  0  0
    7.6180    5.8070   26.2240 C   0  0  0  0  0  0  0  0  0  0  0  0
  1  2  2  3
  1  3  1  0
  3  4  1  0
  3  5  1  0
  4  6  1  0
  5  7  1  0
  6  8  1  0
  7  8  1  0
  8  9  1  0
  9 10  2  0
  9 11  1  0
 10 12  1  0
 10 13  1  0
 11 14  2  0
 11 15  1  0
 13 16  2  0
 14 16  1  0
 16 17  1  0
 17 18  1  0
 17 19  1  0
 18 20  1  0
 19 21  2  0
 19 22  1  0
 20 23  1  0
 20 24  1  0
 23 24  1  0
 21 25  1  0
 22 26  2  0
 25 27  2  0
 26 27  1  0
 27 28  1  0
M  END
