NIM-NMI-8bb27a2b-20-bromoalkyne
     RDKit          3D

 30 32  0  0  0  0  0  0  0  0999 V2000
    7.7430   -3.0170   19.6840 C   0  0  0  0  0  0  0  0  0  0  0  0
    6.3500   -2.7780   19.0850 C   0  0  0  0  0  0  0  0  0  0  0  0
    8.1270   -2.4940   21.0670 N   0  0  0  0  0  0  0  0  0  0  0  0
    9.3100   -1.6490   21.7140 C   0  0  0  0  0  0  0  0  0  0  0  0
    7.0070   -2.7190   22.0230 C   0  0  1  0  0  0  0  0  0  0  0  0
   10.7300   -2.0750   21.5890 C   0  0  0  0  0  0  0  0  0  0  0  0
    9.1550   -0.4320   22.4830 C   0  0  0  0  0  0  0  0  0  0  0  0
    7.0750   -4.1610   22.5690 C   0  0  0  0  0  0  0  0  0  0  0  0
    6.6480   -1.5650   22.9420 C   0  0  0  0  0  0  0  0  0  0  0  0
   11.8790   -1.2960   22.2040 C   0  0  0  0  0  0  0  0  0  0  0  0
   10.2380    0.2700   23.0430 C   0  0  0  0  0  0  0  0  0  0  0  0
    7.4320   -5.1380   21.9060 O   0  0  0  0  0  0  0  0  0  0  0  0
    6.6550   -4.2710   23.9580 N   0  0  0  0  0  0  0  0  0  0  0  0
    6.9710   -1.6390   24.3080 C   0  0  0  0  0  0  0  0  0  0  0  0
    5.9950   -0.4030   22.5160 C   0  0  0  0  0  0  0  0  0  0  0  0
   11.5510   -0.1690   22.8890 C   0  0  0  0  0  0  0  0  0  0  0  0
    7.0110   -5.3280   24.7200 C   0  0  0  0  0  0  0  0  0  0  0  0
    6.6330   -0.5860   25.1520 C   0  0  0  0  0  0  0  0  0  0  0  0
    5.6630    0.6360   23.3270 N   0  0  0  0  0  0  0  0  0  0  0  0
   12.6290    0.4320   23.3710 C   0  0  0  0  0  0  0  0  0  0  0  0
    7.6280   -4.8690   25.8820 C   0  0  0  0  0  0  0  0  0  0  0  0
    5.9860    0.5280   24.6290 C   0  0  0  0  0  0  0  0  0  0  0  0
   12.9690   -0.1010   24.5570 F   0  0  0  0  0  0  0  0  0  0  0  0
   12.4570    1.7690   23.5120 F   0  0  0  0  0  0  0  0  0  0  0  0
   13.6830    0.2410   22.5570 F   0  0  0  0  0  0  0  0  0  0  0  0
    7.1050   -3.7910   26.5600 C   0  0  0  0  0  0  0  0  0  0  0  0
    8.7460   -5.4600   26.3760 C   0  0  0  0  0  0  0  0  0  0  0  0
    7.6080   -3.2010   27.7540 C   0  0  0  0  0  0  0  0  0  0  0  0
    9.3440   -4.9960   27.5260 C   0  0  0  0  0  0  0  0  0  0  0  0
    8.9110   -3.9200   28.2940 C   0  0  0  0  0  0  0  0  0  0  0  0
  1  2  2  3
  1  3  1  0
  3  4  1  0
  3  5  1  0
  4  6  2  0
  4  7  1  0
  5  8  1  1
  5  9  1  0
  6 10  1  0
  7 11  2  0
  8 12  2  0
  8 13  1  0
  9 14  2  0
  9 15  1  0
 10 16  2  0
 11 16  1  0
 13 17  1  0
 14 18  1  0
 15 19  2  0
 16 20  1  0
 17 21  1  0
 18 22  2  0
 19 22  1  0
 20 23  1  0
 20 24  1  0
 20 25  1  0
 21 26  2  0
 21 27  1  0
 26 28  1  0
 27 29  2  0
 28 30  2  0
 29 30  1  0
M  END
