NIM-UNI-05f93fcc-2-acrylamide
     RDKit          3D

 24 26  0  0  0  0  0  0  0  0999 V2000
    7.5560   -3.1150   19.1830 C   0  0  0  0  0  0  0  0  0  0  0  0
    7.3260   -3.2600   20.6840 C   0  0  0  0  0  0  0  0  0  0  0  0
    6.0490   -4.0370   20.7850 C   0  0  0  0  0  0  0  0  0  0  0  0
    5.2310   -4.8510   21.0920 O   0  0  0  0  0  0  0  0  0  0  0  0
    6.7720   -4.8070   21.7380 N   0  0  0  0  0  0  0  0  0  0  0  0
    6.1850   -6.0920   22.1170 C   0  0  0  0  0  0  0  0  0  0  0  0
    7.2520   -4.1220   22.9660 C   0  0  0  0  0  0  0  0  0  0  0  0
    5.2680   -6.0680   23.1730 C   0  0  0  0  0  0  0  0  0  0  0  0
    6.2560   -3.9490   23.9140 C   0  0  0  0  0  0  0  0  0  0  0  0
    5.8000   -5.2960   24.3170 N   0  0  0  0  0  0  0  0  0  0  0  0
    4.9830   -5.3980   25.8020 S   0  0  0  0  0  0  0  0  0  0  0  0
    4.1180   -6.5600   25.7630 O   0  0  0  0  0  0  0  0  0  0  0  0
    5.9560   -5.2410   26.8620 O   0  0  0  0  0  0  0  0  0  0  0  0
    3.9240   -3.9880   25.9070 C   0  0  0  0  0  0  0  0  0  0  0  0
    4.3540   -2.5530   26.0070 C   0  0  0  0  0  0  0  0  0  0  0  0
    2.2300   -4.1910   25.9080 S   0  0  0  0  0  0  0  0  0  0  0  0
    3.1890   -1.6760   26.0860 C   0  0  0  0  0  0  0  0  0  0  0  0
    1.9740   -2.5090   26.0440 C   0  0  0  0  0  0  0  0  0  0  0  0
    0.6130   -1.8260   26.1280 C   0  0  0  0  0  0  0  0  0  0  0  0
    0.4670   -0.4440   26.7740 C   0  0  0  0  0  0  0  0  0  0  0  0
   -0.5460   -2.4410   25.6240 C   0  0  0  0  0  0  0  0  0  0  0  0
   -0.8930    0.2520   26.8700 C   0  0  0  0  0  0  0  0  0  0  0  0
   -1.8200   -1.8640   25.6780 C   0  0  0  0  0  0  0  0  0  0  0  0
   -1.9770   -0.4540   26.3330 C   0  0  0  0  0  0  0  0  0  0  0  0
  1  2  1  0
  2  3  1  0
  3  4  2  0
  3  5  1  0
  5  6  1  0
  5  7  1  0
  6  8  1  0
  7  9  1  0
  8 10  1  0
  9 10  1  0
 10 11  1  0
 11 12  2  0
 11 13  2  0
 11 14  1  0
 14 15  2  0
 14 16  1  0
 15 17  1  0
 16 18  1  0
 17 18  2  0
 18 19  1  0
 19 20  2  0
 19 21  1  0
 20 22  1  0
 21 23  2  0
 22 24  2  0
 23 24  1  0
M  END
