NIM-UNI-05f93fcc-13-chloroacetamide
     RDKit          3D

 22 24  0  0  0  0  0  0  0  0999 V2000
    6.9990   -3.4720   19.9800 C   0  0  0  0  0  0  0  0  0  0  0  0
    6.3480   -4.4860   20.5570 C   0  0  0  0  0  0  0  0  0  0  0  0
    5.3780   -4.9560   19.9830 O   0  0  0  0  0  0  0  0  0  0  0  0
    6.6990   -5.0420   21.7810 N   0  0  0  0  0  0  0  0  0  0  0  0
    7.3420   -4.1760   22.7930 C   0  0  0  0  0  0  0  0  0  0  0  0
    6.0210   -6.2500   22.2560 C   0  0  0  0  0  0  0  0  0  0  0  0
    6.4450   -4.0190   24.0360 C   0  0  0  0  0  0  0  0  0  0  0  0
    5.0510   -5.9240   23.1940 C   0  0  0  0  0  0  0  0  0  0  0  0
    5.7240   -5.2580   24.3540 N   0  0  0  0  0  0  0  0  0  0  0  0
    4.9150   -5.4060   25.8470 S   0  0  0  0  0  0  0  0  0  0  0  0
    4.0260   -6.5370   25.7600 O   0  0  0  0  0  0  0  0  0  0  0  0
    5.8860   -5.2730   26.9000 O   0  0  0  0  0  0  0  0  0  0  0  0
    3.9010   -3.9600   25.9270 C   0  0  0  0  0  0  0  0  0  0  0  0
    4.3630   -2.5390   25.9890 C   0  0  0  0  0  0  0  0  0  0  0  0
    2.2020   -4.0400   25.9540 S   0  0  0  0  0  0  0  0  0  0  0  0
    3.2820   -1.6670   26.0580 C   0  0  0  0  0  0  0  0  0  0  0  0
    2.0490   -2.3200   26.0560 C   0  0  0  0  0  0  0  0  0  0  0  0
    0.7850   -1.6960   26.1360 C   0  0  0  0  0  0  0  0  0  0  0  0
    0.0030   -0.8110   26.3130 N   0  0  0  0  0  0  0  0  0  0  0  0
   -0.2290   -3.1380   25.7110 S   0  0  0  0  0  0  0  0  0  0  0  0
   -1.3340   -0.9730   26.1980 C   0  0  0  0  0  0  0  0  0  0  0  0
   -1.7050   -2.2410   25.8570 C   0  0  0  0  0  0  0  0  0  0  0  0
  1  2  1  0
  2  3  2  0
  2  4  1  0
  4  5  1  0
  4  6  1  0
  5  7  1  0
  6  8  1  0
  7  9  1  0
  8  9  1  0
  9 10  1  0
 10 11  2  0
 10 12  2  0
 10 13  1  0
 13 14  2  0
 13 15  1  0
 14 16  1  0
 15 17  1  0
 16 17  2  0
 17 18  1  0
 18 19  2  0
 18 20  1  0
 19 21  1  0
 20 22  1  0
 21 22  2  0
M  END
