NIM-UNI-363644a0-1-acrylamide
     RDKit          3D

 31 34  0  0  0  0  0  0  0  0999 V2000
    6.4080   -3.6960   20.0400 C   0  0  0  0  0  0  0  0  0  0  0  0
    6.2650   -2.2060   20.5040 C   0  0  0  0  0  0  0  0  0  0  0  0
    5.1240   -2.0370   21.5290 C   0  0  0  0  0  0  0  0  0  0  0  0
    4.5250   -3.0980   21.8210 O   0  0  0  0  0  0  0  0  0  0  0  0
    4.7750   -0.7330   22.1300 N   0  0  0  0  0  0  0  0  0  0  0  0
    5.1860   -0.4470   23.5180 C   0  0  0  0  0  0  0  0  0  0  0  0
    4.2190    0.3580   21.4370 C   0  0  1  0  0  0  0  0  0  0  0  0
    4.2040    0.4420   24.2820 C   0  0  0  0  0  0  0  0  0  0  0  0
    4.1770    1.5550   22.1980 C   0  0  0  0  0  0  0  0  0  0  0  0
    4.9780    0.5840   20.3070 C   0  0  0  0  0  0  0  0  0  0  0  0
    3.5850    1.5490   23.4610 N   0  0  0  0  0  0  0  0  0  0  0  0
    4.4420    1.1930   19.1680 C   0  0  0  0  0  0  0  0  0  0  0  0
    6.2810    0.1970   20.3380 C   0  0  0  0  0  0  0  0  0  0  0  0
    2.1660    1.4700   23.3900 C   0  0  0  0  0  0  0  0  0  0  0  0
    5.1710    1.5090   17.8540 C   0  0  0  0  0  0  0  0  0  0  0  0
    7.1030    0.3650   19.3190 N   0  0  0  0  0  0  0  0  0  0  0  0
    1.3740    2.3340   24.1970 C   0  0  0  0  0  0  0  0  0  0  0  0
    6.5960    0.9480   18.2380 C   0  0  0  0  0  0  0  0  0  0  0  0
    1.8480    3.5720   25.0570 C   0  0  0  0  0  0  0  0  0  0  0  0
   -0.1760    2.1140   24.3100 C   0  0  0  0  0  0  0  0  0  0  0  0
    0.8020    4.3290   25.8340 C   0  0  0  0  0  0  0  0  0  0  0  0
   -1.0440    2.9190   25.0910 C   0  0  0  0  0  0  0  0  0  0  0  0
   -0.7170    1.0410   23.5730 C   0  0  0  0  0  0  0  0  0  0  0  0
   -0.5520    3.9930   25.8280 C   0  0  0  0  0  0  0  0  0  0  0  0
   -2.4090    2.6550   25.1380 C   0  0  0  0  0  0  0  0  0  0  0  0
   -2.0850    0.7270   23.5760 C   0  0  0  0  0  0  0  0  0  0  0  0
   -2.9940    1.4680   24.3210 C   0  0  0  0  0  0  0  0  0  0  0  0
   -2.6350   -0.6490   22.5960 S   0  0  0  0  0  0  0  0  0  0  0  0
   -4.2830   -0.3070   22.4390 N   0  0  0  0  0  0  0  0  0  0  0  0
   -2.5300   -1.8510   23.3960 O   0  0  0  0  0  0  0  0  0  0  0  0
   -1.9910   -0.5680   21.3000 O   0  0  0  0  0  0  0  0  0  0  0  0
  1  2  1  0
  2  3  1  0
  3  4  2  0
  3  5  1  0
  5  6  1  0
  5  7  1  0
  6  8  1  0
  7  9  1  0
  7 10  1  6
  8 11  1  0
  9 11  1  0
 10 12  2  0
 10 13  1  0
 11 14  1  0
 12 15  1  0
 13 16  2  0
 14 17  1  0
 15 18  2  0
 16 18  1  0
 17 19  2  0
 17 20  1  0
 19 21  1  0
 20 22  2  0
 20 23  1  0
 21 24  2  0
 22 24  1  0
 22 25  1  0
 23 26  2  0
 25 27  2  0
 26 27  1  0
 26 28  1  0
 28 29  1  0
 28 30  2  0
 28 31  2  0
M  END
