NIM-UNI-05f93fcc-9-chloroacetamide
     RDKit          3D

 22 24  0  0  0  0  0  0  0  0999 V2000
    7.2220   -3.4280   19.9310 C   0  0  0  0  0  0  0  0  0  0  0  0
    6.2890   -4.4540   20.5680 C   0  0  0  0  0  0  0  0  0  0  0  0
    5.2830   -4.7730   19.9520 O   0  0  0  0  0  0  0  0  0  0  0  0
    6.5570   -5.0570   21.8020 N   0  0  0  0  0  0  0  0  0  0  0  0
    7.2720   -4.4160   22.8590 C   0  0  0  0  0  0  0  0  0  0  0  0
    5.8860   -6.2320   22.1890 C   0  0  0  0  0  0  0  0  0  0  0  0
    6.5990   -4.1780   24.0540 C   0  0  0  0  0  0  0  0  0  0  0  0
    4.9800   -5.8250   23.1680 C   0  0  0  0  0  0  0  0  0  0  0  0
    5.7680   -5.3570   24.3470 N   0  0  0  0  0  0  0  0  0  0  0  0
    4.9160   -5.3750   25.8190 S   0  0  0  0  0  0  0  0  0  0  0  0
    3.9250   -6.4310   25.7490 O   0  0  0  0  0  0  0  0  0  0  0  0
    5.8630   -5.3430   26.9070 O   0  0  0  0  0  0  0  0  0  0  0  0
    3.9680   -3.8850   25.9160 C   0  0  0  0  0  0  0  0  0  0  0  0
    4.3410   -2.5310   25.9670 C   0  0  0  0  0  0  0  0  0  0  0  0
    2.2580   -4.1000   25.9700 S   0  0  0  0  0  0  0  0  0  0  0  0
    3.1440   -1.6550   26.0630 C   0  0  0  0  0  0  0  0  0  0  0  0
    1.9210   -2.4310   26.0800 C   0  0  0  0  0  0  0  0  0  0  0  0
    0.6100   -1.8240   26.1860 C   0  0  0  0  0  0  0  0  0  0  0  0
   -0.5390   -2.5510   26.0350 N   0  0  0  0  0  0  0  0  0  0  0  0
    0.3710   -0.4430   26.4620 O   0  0  0  0  0  0  0  0  0  0  0  0
   -1.5250   -1.7030   26.2030 C   0  0  0  0  0  0  0  0  0  0  0  0
   -1.0010   -0.3100   26.4840 C   0  0  0  0  0  0  0  0  0  0  0  0
  1  2  1  0
  2  3  2  0
  2  4  1  0
  4  5  1  0
  4  6  1  0
  5  7  1  0
  6  8  1  0
  7  9  1  0
  8  9  1  0
  9 10  1  0
 10 11  2  0
 10 12  2  0
 10 13  1  0
 13 14  2  0
 13 15  1  0
 14 16  1  0
 15 17  1  0
 16 17  2  0
 17 18  1  0
 18 19  2  0
 18 20  1  0
 19 21  1  0
 20 22  1  0
 21 22  2  0
M  END
