NIM-UNI-310206f0-54-chloroacetamide
     RDKit          3D

 33 36  0  0  0  0  0  0  0  0999 V2000
    6.6750   -3.3470   19.4260 C   0  0  0  0  0  0  0  0  0  0  0  0
    5.8400   -4.2170   20.3570 C   0  0  0  0  0  0  0  0  0  0  0  0
    5.4380   -5.3170   20.0230 O   0  0  0  0  0  0  0  0  0  0  0  0
    5.5370   -3.7250   21.6310 N   0  0  0  0  0  0  0  0  0  0  0  0
    5.2420   -2.2960   21.6860 C   0  0  0  0  0  0  0  0  0  0  0  0
    6.1650   -4.2000   22.8620 C   0  0  0  0  0  0  0  0  0  0  0  0
    6.3530   -1.5740   22.1200 C   0  0  0  0  0  0  0  0  0  0  0  0
    7.3590   -3.5150   23.1630 C   0  0  0  0  0  0  0  0  0  0  0  0
    7.2290   -2.0430   23.1000 N   0  0  0  0  0  0  0  0  0  0  0  0
    8.4120   -1.3350   23.1630 C   0  0  0  0  0  0  0  0  0  0  0  0
    9.6730   -1.9190   23.6950 C   0  0  0  0  0  0  0  0  0  0  0  0
    8.4700   -0.0060   22.7060 C   0  0  0  0  0  0  0  0  0  0  0  0
    9.7740   -3.1670   24.1550 F   0  0  0  0  0  0  0  0  0  0  0  0
   10.7900   -1.1280   23.7060 C   0  0  0  0  0  0  0  0  0  0  0  0
    9.6310    0.7550   22.7300 C   0  0  0  0  0  0  0  0  0  0  0  0
    7.3700    0.5910   22.2140 F   0  0  0  0  0  0  0  0  0  0  0  0
   10.8020    0.1870   23.2330 C   0  0  0  0  0  0  0  0  0  0  0  0
   11.8780    0.9530   23.2250 N   0  0  0  0  0  0  0  0  0  0  0  0
   13.0620    0.3320   22.9650 C   0  0  0  0  0  0  0  0  0  0  0  0
   11.8110    2.3360   23.1690 C   0  0  0  0  0  0  0  0  0  0  0  0
   13.1140   -0.8250   22.1350 C   0  0  0  0  0  0  0  0  0  0  0  0
   10.8930    3.0080   23.6500 O   0  0  0  0  0  0  0  0  0  0  0  0
   12.8230    3.0020   22.5510 N   0  0  0  0  0  0  0  0  0  0  0  0
   12.0700   -1.6690   21.9420 C   0  0  0  0  0  0  0  0  0  0  0  0
   13.2180   -2.1700   22.7880 C   0  0  0  0  0  0  0  0  0  0  0  0
   12.8940    4.0860   21.6470 C   0  0  0  0  0  0  0  0  0  0  0  0
   14.2080    4.3300   20.9560 C   0  0  0  0  0  0  0  0  0  0  0  0
   15.3090    3.4890   21.4550 C   0  0  0  0  0  0  0  0  0  0  0  0
   14.2900    5.2530   19.9780 C   0  0  0  0  0  0  0  0  0  0  0  0
   16.4270    4.0400   20.5440 C   0  0  0  0  0  0  0  0  0  0  0  0
   15.4790    5.5640   19.2690 C   0  0  0  0  0  0  0  0  0  0  0  0
   16.4460    5.0070   19.5430 C   0  0  0  0  0  0  0  0  0  0  0  0
   15.8230    6.4020   18.3100 F   0  0  0  0  0  0  0  0  0  0  0  0
  1  2  1  0
  2  3  2  0
  2  4  1  0
  4  5  1  0
  4  6  1  0
  5  7  1  0
  6  8  1  0
  7  9  1  0
  8  9  1  0
  9 10  1  0
 10 11  2  0
 10 12  1  0
 11 13  1  0
 11 14  1  0
 12 15  2  0
 12 16  1  0
 14 17  2  0
 15 17  1  0
 17 18  1  0
 18 19  1  0
 18 20  1  0
 19 21  1  0
 20 22  2  0
 20 23  1  0
 21 24  1  0
 21 25  1  0
 24 25  1  0
 23 26  1  0
 26 27  1  0
 27 28  2  0
 27 29  1  0
 28 30  1  0
 29 31  2  0
 30 32  2  0
 31 32  1  0
 31 33  1  0
M  END
