NIM-UNI-05f93fcc-11-chloroacetamide
     RDKit          3D

 24 26  0  0  0  0  0  0  0  0999 V2000
    7.3780   -3.4550   19.9320 C   0  0  0  0  0  0  0  0  0  0  0  0
    6.5400   -4.3480   20.5050 C   0  0  0  0  0  0  0  0  0  0  0  0
    5.4730   -4.6000   19.9450 O   0  0  0  0  0  0  0  0  0  0  0  0
    6.8280   -5.0170   21.6940 N   0  0  0  0  0  0  0  0  0  0  0  0
    7.5330   -4.3350   22.7950 C   0  0  0  0  0  0  0  0  0  0  0  0
    5.9540   -6.1430   22.0830 C   0  0  0  0  0  0  0  0  0  0  0  0
    6.5700   -4.0870   23.9750 C   0  0  0  0  0  0  0  0  0  0  0  0
    5.0350   -5.7860   23.1050 C   0  0  0  0  0  0  0  0  0  0  0  0
    5.7640   -5.2810   24.2880 N   0  0  0  0  0  0  0  0  0  0  0  0
    4.9810   -5.4120   25.8000 S   0  0  0  0  0  0  0  0  0  0  0  0
    4.1120   -6.5630   25.7500 O   0  0  0  0  0  0  0  0  0  0  0  0
    5.9550   -5.2380   26.8430 O   0  0  0  0  0  0  0  0  0  0  0  0
    3.9180   -4.0000   25.8840 C   0  0  0  0  0  0  0  0  0  0  0  0
    4.3260   -2.5620   25.9840 C   0  0  0  0  0  0  0  0  0  0  0  0
    2.2250   -4.1370   25.8710 S   0  0  0  0  0  0  0  0  0  0  0  0
    3.2100   -1.7310   26.0430 C   0  0  0  0  0  0  0  0  0  0  0  0
    2.0040   -2.4310   25.9990 C   0  0  0  0  0  0  0  0  0  0  0  0
    0.7030   -1.8930   26.0510 C   0  0  0  0  0  0  0  0  0  0  0  0
    0.4880   -0.6180   26.6830 C   0  0  0  0  0  0  0  0  0  0  0  0
   -0.3950   -2.5950   25.4930 C   0  0  0  0  0  0  0  0  0  0  0  0
   -0.8020   -0.0530   26.7520 C   0  0  0  0  0  0  0  0  0  0  0  0
   -1.8150   -2.0070   25.5530 C   0  0  0  0  0  0  0  0  0  0  0  0
   -2.0060   -0.7700   26.1660 C   0  0  0  0  0  0  0  0  0  0  0  0
   -3.3870   -0.1410   26.2500 C   0  0  0  0  0  0  0  0  0  0  0  0
  1  2  1  0
  2  3  2  0
  2  4  1  0
  4  5  1  0
  4  6  1  0
  5  7  1  0
  6  8  1  0
  7  9  1  0
  8  9  1  0
  9 10  1  0
 10 11  2  0
 10 12  2  0
 10 13  1  0
 13 14  2  0
 13 15  1  0
 14 16  1  0
 15 17  1  0
 16 17  2  0
 17 18  1  0
 18 19  2  0
 18 20  1  0
 19 21  1  0
 20 22  2  0
 21 23  2  0
 22 23  1  0
 23 24  1  0
M  END
