NIM-UNI-310206f0-65-vinylsulfonamide
     RDKit          3D

 37 41  0  0  0  0  0  0  0  0999 V2000
    7.5050   -3.0110   18.6250 C   0  0  0  0  0  0  0  0  0  0  0  0
    7.0870   -2.6260   20.0140 C   0  0  0  0  0  0  0  0  0  0  0  0
    5.7020   -3.6140   20.4660 S   0  0  0  0  0  0  0  0  0  0  0  0
    4.5970   -2.9470   19.9160 O   0  0  0  0  0  0  0  0  0  0  0  0
    5.8320   -4.9860   20.0940 O   0  0  0  0  0  0  0  0  0  0  0  0
    5.7130   -3.4800   22.1400 N   0  0  0  0  0  0  0  0  0  0  0  0
    5.5560   -2.1360   22.7200 C   0  0  0  0  0  0  0  0  0  0  0  0
    6.5730   -4.3840   22.9210 C   0  0  0  0  0  0  0  0  0  0  0  0
    6.0990   -2.1260   24.0270 C   0  0  0  0  0  0  0  0  0  0  0  0
    7.8040   -3.6910   23.5360 C   0  0  0  0  0  0  0  0  0  0  0  0
    7.4380   -2.4450   24.2180 N   0  0  0  0  0  0  0  0  0  0  0  0
    8.3570   -1.3830   24.2120 C   0  0  0  0  0  0  0  0  0  0  0  0
    7.8400    0.0240   24.1120 C   0  0  0  0  0  0  0  0  0  0  0  0
    9.7590   -1.4840   24.2830 C   0  0  0  0  0  0  0  0  0  0  0  0
    6.5300    0.3160   24.0430 F   0  0  0  0  0  0  0  0  0  0  0  0
    8.7010    1.0970   24.0750 C   0  0  0  0  0  0  0  0  0  0  0  0
   10.6000   -0.3590   24.2520 C   0  0  0  0  0  0  0  0  0  0  0  0
   10.3850   -2.6660   24.3740 F   0  0  0  0  0  0  0  0  0  0  0  0
   10.0860    0.9430   24.1350 C   0  0  0  0  0  0  0  0  0  0  0  0
   10.9430    1.9730   24.0640 N   0  0  0  0  0  0  0  0  0  0  0  0
   11.9550    1.5780   23.2950 C   0  0  0  0  0  0  0  0  0  0  0  0
   10.3800    3.2350   23.8650 C   0  0  0  0  0  0  0  0  0  0  0  0
   13.0450    2.2130   22.9500 O   0  0  0  0  0  0  0  0  0  0  0  0
   11.8920    0.3380   22.7090 C   0  0  0  0  0  0  0  0  0  0  0  0
    8.8650    3.3860   24.2610 C   0  0  0  0  0  0  0  0  0  0  0  0
   11.2760    4.2240   23.3300 C   0  0  0  0  0  0  0  0  0  0  0  0
   13.1350   -0.4350   22.4670 C   0  0  0  0  0  0  0  0  0  0  0  0
   10.6640   -0.3110   22.2860 C   0  0  0  0  0  0  0  0  0  0  0  0
    8.6780    4.8710   23.9010 C   0  0  0  0  0  0  0  0  0  0  0  0
   10.8460    5.4850   23.1080 C   0  0  0  0  0  0  0  0  0  0  0  0
   12.6040    4.3390   22.9110 C   0  0  0  0  0  0  0  0  0  0  0  0
   12.9750   -1.7540   21.8260 C   0  0  0  0  0  0  0  0  0  0  0  0
   10.5360   -1.5200   21.7070 N   0  0  0  0  0  0  0  0  0  0  0  0
    9.6600    5.8650   23.3440 C   0  0  0  0  0  0  0  0  0  0  0  0
   11.8730    6.3570   22.5760 N   0  0  0  0  0  0  0  0  0  0  0  0
   12.9890    5.5890   22.4580 C   0  0  0  0  0  0  0  0  0  0  0  0
   11.6380   -2.2320   21.4700 C   0  0  0  0  0  0  0  0  0  0  0  0
  1  2  1  0
  3  2  1  0
  3  4  2  0
  3  5  2  0
  3  6  1  0
  6  7  1  0
  6  8  1  0
  7  9  1  0
  8 10  1  0
  9 11  1  0
 10 11  1  0
 11 12  1  0
 12 13  2  0
 12 14  1  0
 13 15  1  0
 13 16  1  0
 14 17  2  0
 14 18  1  0
 16 19  2  0
 17 19  1  0
 19 20  1  0
 20 21  1  0
 20 22  1  0
 21 23  2  0
 21 24  1  0
 22 25  2  0
 22 26  1  0
 24 27  2  0
 24 28  1  0
 25 29  1  0
 26 30  2  0
 26 31  1  0
 27 32  1  0
 28 33  2  0
 29 34  2  0
 30 34  1  0
 30 35  1  0
 31 36  2  0
 35 36  1  0
 32 37  2  0
 33 37  1  0
M  END
