NIM-NMI-8bb27a2b-3-nitrile
     RDKit          3D

 25 27  0  0  0  0  0  0  0  0999 V2000
    7.3160   -2.8040   19.4670 C   0  0  0  0  0  0  0  0  0  0  0  0
    6.4990   -2.5290   18.4970 N   0  0  0  0  0  0  0  0  0  0  0  0
    7.6610   -1.8630   20.5670 N   0  0  0  0  0  0  0  0  0  0  0  0
    8.9150   -2.0090   21.4280 C   0  0  0  0  0  0  0  0  0  0  0  0
    6.6880   -1.0350   21.0370 C   0  0  1  0  0  0  0  0  0  0  0  0
    9.9210   -0.9610   21.8230 C   0  0  0  0  0  0  0  0  0  0  0  0
    9.4260   -3.1030   22.0230 N   0  0  0  0  0  0  0  0  0  0  0  0
    6.9090   -0.4480   22.4580 C   0  0  0  0  0  0  0  0  0  0  0  0
    6.1960   -0.1880   20.0290 C   0  0  0  0  0  0  0  0  0  0  0  0
   10.9690   -1.6000   22.5800 C   0  0  0  0  0  0  0  0  0  0  0  0
   10.6490   -2.7900   22.6830 O   0  0  0  0  0  0  0  0  0  0  0  0
    7.7320    0.4270   22.6840 O   0  0  0  0  0  0  0  0  0  0  0  0
    6.1510   -0.9430   23.4240 N   0  0  0  0  0  0  0  0  0  0  0  0
    5.0220    0.5550   20.3730 C   0  0  0  0  0  0  0  0  0  0  0  0
    6.8300   -0.1140   18.7910 C   0  0  0  0  0  0  0  0  0  0  0  0
   12.2510   -1.0120   23.1510 C   0  0  0  0  0  0  0  0  0  0  0  0
    5.6880   -2.3160   23.4170 C   0  0  0  0  0  0  0  0  0  0  0  0
    4.4650    1.4960   19.2260 C   0  0  0  0  0  0  0  0  0  0  0  0
    6.4350    0.6350   17.7880 N   0  0  0  0  0  0  0  0  0  0  0  0
   12.6320   -1.4450   24.4030 C   0  0  0  0  0  0  0  0  0  0  0  0
   12.5220    0.5030   23.0730 C   0  0  0  0  0  0  0  0  0  0  0  0
   13.2610   -1.6430   22.2100 C   0  0  0  0  0  0  0  0  0  0  0  0
    5.6940   -2.8620   24.6500 C   0  0  0  0  0  0  0  0  0  0  0  0
    4.3830   -2.7440   23.9910 C   0  0  0  0  0  0  0  0  0  0  0  0
    5.3570    1.3630   17.9990 C   0  0  0  0  0  0  0  0  0  0  0  0
  1  2  2  3
  1  3  1  0
  3  4  1  0
  3  5  1  0
  4  6  1  0
  4  7  2  0
  5  8  1  1
  5  9  1  0
  6 10  2  0
  7 11  1  0
 10 11  1  0
  8 12  2  0
  8 13  1  0
  9 14  2  0
  9 15  1  0
 10 16  1  0
 13 17  1  0
 14 18  1  0
 15 19  2  0
 16 20  1  0
 16 21  1  0
 16 22  1  0
 17 23  1  0
 17 24  1  0
 23 24  1  0
 18 25  2  0
 19 25  1  0
M  END
