NIM-UNI-bb610069-1-acrylamide
     RDKit          3D

 28 30  0  0  0  0  0  0  0  0999 V2000
    6.8040   -5.5090   20.6290 C   0  0  0  0  0  0  0  0  0  0  0  0
    6.8640   -4.9990   21.8660 C   0  0  0  0  0  0  0  0  0  0  0  0
    6.2830   -3.6180   21.9540 C   0  0  0  0  0  0  0  0  0  0  0  0
    5.0070   -3.4940   21.5480 O   0  0  0  0  0  0  0  0  0  0  0  0
    7.2690   -2.6240   22.4980 N   0  0  0  0  0  0  0  0  0  0  0  0
    8.8230   -2.9300   22.4580 C   0  0  0  0  0  0  0  0  0  0  0  0
    6.8470   -1.9020   23.7360 C   0  0  1  0  0  0  0  0  0  0  0  0
   10.0740   -1.9380   22.8660 C   0  0  0  0  0  0  0  0  0  0  0  0
    5.5600   -1.0810   23.5190 C   0  0  0  0  0  0  0  0  0  0  0  0
    6.5190   -2.8040   24.9270 C   0  0  0  0  0  0  0  0  0  0  0  0
    9.3100   -0.6050   22.7950 C   0  0  0  0  0  0  0  0  0  0  0  0
   10.3590   -0.7780   23.0450 N   0  0  0  0  0  0  0  0  0  0  0  0
    5.2730   -0.4490   24.8930 C   0  0  0  0  0  0  0  0  0  0  0  0
    5.6790   -1.7250   26.0760 S   0  0  0  0  0  0  0  0  0  0  0  0
   10.2940    0.5530   23.1630 N   0  0  0  0  0  0  0  0  0  0  0  0
   11.3350   -0.2890   23.3200 N   0  0  0  0  0  0  0  0  0  0  0  0
    4.4650   -2.3620   26.5260 O   0  0  0  0  0  0  0  0  0  0  0  0
    6.6750   -1.2240   27.0080 O   0  0  0  0  0  0  0  0  0  0  0  0
    8.8980    0.9940   22.8950 C   0  0  0  0  0  0  0  0  0  0  0  0
    8.4300    0.8550   21.5820 C   0  0  0  0  0  0  0  0  0  0  0  0
    8.9810    1.6770   20.8870 O   0  0  0  0  0  0  0  0  0  0  0  0
    7.4890    0.0520   21.0740 N   0  0  0  0  0  0  0  0  0  0  0  0
    6.9780   -0.2360   19.6970 C   0  0  0  0  0  0  0  0  0  0  0  0
    6.3000   -0.0480   18.5450 C   0  0  0  0  0  0  0  0  0  0  0  0
    6.3240    0.8890   19.6680 C   0  0  0  0  0  0  0  0  0  0  0  0
    5.8590    1.2380   19.1770 C   0  0  0  0  0  0  0  0  0  0  0  0
    5.9890    0.3880   18.3490 N   0  0  0  0  0  0  0  0  0  0  0  0
    5.1960    1.2960   17.8280 C   0  0  0  0  0  0  0  0  0  0  0  0
  1  2  1  0
  2  3  1  0
  3  4  2  0
  3  5  1  0
  5  6  1  0
  7  5  1  6
  6  8  1  0
  7  9  1  0
  7 10  1  0
  8 11  2  0
  8 12  1  0
  9 13  1  0
 14 10  1  0
 13 14  1  0
 11 15  1  0
 12 16  2  0
 15 16  1  0
 14 17  2  0
 14 18  2  0
 15 19  1  0
 19 20  1  0
 20 21  2  0
 20 22  1  0
 22 23  1  0
 23 24  2  0
 23 25  1  0
 24 26  1  0
 25 27  2  0
 26 28  2  0
 27 28  1  0
M  END
