NIM-UNI-310206f0-35-chloroacetamide
     RDKit          3D

 33 36  0  0  0  0  0  0  0  0999 V2000
    6.9300   -3.0660   18.9890 C   0  0  0  0  0  0  0  0  0  0  0  0
    5.9940   -3.5980   20.0640 C   0  0  0  0  0  0  0  0  0  0  0  0
    5.2640   -4.5440   19.8480 O   0  0  0  0  0  0  0  0  0  0  0  0
    5.9520   -3.0160   21.2880 N   0  0  0  0  0  0  0  0  0  0  0  0
    5.9710   -1.5930   21.5270 C   0  0  0  0  0  0  0  0  0  0  0  0
    6.3300   -3.8500   22.4450 C   0  0  0  0  0  0  0  0  0  0  0  0
    7.4840   -1.4750   21.6360 C   0  0  0  0  0  0  0  0  0  0  0  0
    7.5990   -3.3780   23.1870 C   0  0  0  0  0  0  0  0  0  0  0  0
    7.7770   -1.9340   23.0050 N   0  0  0  0  0  0  0  0  0  0  0  0
    9.0110   -1.2420   23.1900 C   0  0  0  0  0  0  0  0  0  0  0  0
   10.2000   -2.0060   23.7620 C   0  0  0  0  0  0  0  0  0  0  0  0
    9.0500    0.0800   22.8080 C   0  0  0  0  0  0  0  0  0  0  0  0
   10.2230   -3.2630   24.1290 F   0  0  0  0  0  0  0  0  0  0  0  0
   11.4890   -1.1850   23.8880 C   0  0  0  0  0  0  0  0  0  0  0  0
   10.2870    0.8480   22.9090 C   0  0  0  0  0  0  0  0  0  0  0  0
    7.9760    0.7240   22.3140 F   0  0  0  0  0  0  0  0  0  0  0  0
   11.4120    0.2690   23.3940 C   0  0  0  0  0  0  0  0  0  0  0  0
   12.5520    1.0100   23.4270 N   0  0  0  0  0  0  0  0  0  0  0  0
   13.4140    0.2050   22.6330 C   0  0  0  0  0  0  0  0  0  0  0  0
   12.4470    2.3880   23.1030 C   0  0  0  0  0  0  0  0  0  0  0  0
   13.3540   -1.3280   22.7010 C   0  0  0  0  0  0  0  0  0  0  0  0
   13.3730    3.0220   22.6500 O   0  0  0  0  0  0  0  0  0  0  0  0
   11.2660    3.0620   23.3110 N   0  0  0  0  0  0  0  0  0  0  0  0
   12.3610   -2.0750   22.3300 C   0  0  0  0  0  0  0  0  0  0  0  0
   13.1660   -2.1480   21.2470 C   0  0  0  0  0  0  0  0  0  0  0  0
   11.6260    4.3650   23.4040 C   0  0  0  0  0  0  0  0  0  0  0  0
   12.4270    4.9770   22.2530 C   0  0  0  0  0  0  0  0  0  0  0  0
   11.2930    5.1450   24.5180 C   0  0  0  0  0  0  0  0  0  0  0  0
   12.8550    6.4200   22.3430 C   0  0  0  0  0  0  0  0  0  0  0  0
   11.6870    6.4790   24.5980 C   0  0  0  0  0  0  0  0  0  0  0  0
   12.4910    7.1330   23.4790 C   0  0  0  0  0  0  0  0  0  0  0  0
   11.3620    7.3350   25.7550 C   0  0  0  0  0  0  0  0  0  0  0  0
   11.1260    8.0250   26.6580 N   0  0  0  0  0  0  0  0  0  0  0  0
  1  2  1  0
  2  3  2  0
  2  4  1  0
  4  5  1  0
  4  6  1  0
  5  7  1  0
  6  8  1  0
  7  9  1  0
  8  9  1  0
  9 10  1  0
 10 11  2  0
 10 12  1  0
 11 13  1  0
 11 14  1  0
 12 15  2  0
 12 16  1  0
 14 17  2  0
 15 17  1  0
 17 18  1  0
 18 19  1  0
 18 20  1  0
 19 21  1  0
 20 22  2  0
 20 23  1  0
 21 24  1  0
 21 25  1  0
 24 25  1  0
 23 26  1  0
 26 27  2  0
 26 28  1  0
 27 29  1  0
 28 30  2  0
 29 31  2  0
 30 31  1  0
 30 32  1  0
 32 33  3  0
M  END
