NIM-UNI-310206f0-36-acrylamide
     RDKit          3D

 29 32  0  0  0  0  0  0  0  0999 V2000
    7.9720   -3.4320   19.8050 C   0  0  0  0  0  0  0  0  0  0  0  0
    6.7440   -2.7880   19.2470 C   0  0  0  0  0  0  0  0  0  0  0  0
    5.7500   -3.4770   20.0980 C   0  0  0  0  0  0  0  0  0  0  0  0
    5.0770   -4.4040   19.6930 O   0  0  0  0  0  0  0  0  0  0  0  0
    5.6940   -3.0210   21.3730 N   0  0  0  0  0  0  0  0  0  0  0  0
    6.1350   -3.8250   22.5300 C   0  0  0  0  0  0  0  0  0  0  0  0
    5.7070   -1.6050   21.6120 C   0  0  0  0  0  0  0  0  0  0  0  0
    7.6310   -3.4170   22.8200 C   0  0  0  0  0  0  0  0  0  0  0  0
    7.0940   -1.1800   21.9400 C   0  0  0  0  0  0  0  0  0  0  0  0
    7.6740   -1.9430   23.0440 N   0  0  0  0  0  0  0  0  0  0  0  0
    8.8830   -1.3320   23.2090 C   0  0  0  0  0  0  0  0  0  0  0  0
   10.1740   -2.0040   23.7260 C   0  0  0  0  0  0  0  0  0  0  0  0
    8.8520    0.0320   22.8270 C   0  0  0  0  0  0  0  0  0  0  0  0
   10.3850   -3.2420   24.1120 F   0  0  0  0  0  0  0  0  0  0  0  0
   11.2850   -0.9870   23.7240 C   0  0  0  0  0  0  0  0  0  0  0  0
   10.0340    0.9480   22.8590 C   0  0  0  0  0  0  0  0  0  0  0  0
    7.7140    0.6020   22.3890 F   0  0  0  0  0  0  0  0  0  0  0  0
   11.2210    0.4650   23.2830 C   0  0  0  0  0  0  0  0  0  0  0  0
   12.4050    1.1800   23.3300 N   0  0  0  0  0  0  0  0  0  0  0  0
   13.3590    0.1390   22.9450 C   0  0  0  0  0  0  0  0  0  0  0  0
   12.4120    2.5770   22.9940 C   0  0  0  0  0  0  0  0  0  0  0  0
   12.6150   -0.8230   22.2710 C   0  0  0  0  0  0  0  0  0  0  0  0
   11.1700    3.4680   23.1350 C   0  0  0  0  0  0  0  0  0  0  0  0
   13.4120    3.4060   22.5270 C   0  0  0  0  0  0  0  0  0  0  0  0
   12.9780   -2.1500   22.4000 C   0  0  0  0  0  0  0  0  0  0  0  0
   13.0790   -1.8790   21.0550 C   0  0  0  0  0  0  0  0  0  0  0  0
   11.0460    4.7860   22.8680 N   0  0  0  0  0  0  0  0  0  0  0  0
   13.3470    4.7350   22.2430 N   0  0  0  0  0  0  0  0  0  0  0  0
   12.1620    5.3620   22.4260 C   0  0  0  0  0  0  0  0  0  0  0  0
  1  2  1  0
  2  3  1  0
  3  4  2  0
  3  5  1  0
  5  6  1  0
  5  7  1  0
  6  8  1  0
  7  9  1  0
  8 10  1  0
  9 10  1  0
 10 11  1  0
 11 12  2  0
 11 13  1  0
 12 14  1  0
 12 15  1  0
 13 16  2  0
 13 17  1  0
 15 18  2  0
 16 18  1  0
 18 19  1  0
 19 20  1  0
 19 21  1  0
 20 22  1  0
 21 23  2  0
 21 24  1  0
 22 25  1  0
 22 26  1  0
 25 26  1  0
 23 27  1  0
 24 28  2  0
 27 29  2  0
 28 29  1  0
M  END
