NIM-UNI-310206f0-21-nitrile
     RDKit          3D

 34 37  0  0  0  0  0  0  0  0999 V2000
    6.7090   -3.5850   19.5290 C   0  0  0  0  0  0  0  0  0  0  0  0
    6.0420   -3.0510   18.5740 N   0  0  0  0  0  0  0  0  0  0  0  0
    6.1450   -3.7330   20.7760 N   0  0  0  0  0  0  0  0  0  0  0  0
    6.6510   -4.5500   21.8940 C   0  0  0  0  0  0  0  0  0  0  0  0
    5.2840   -2.6620   21.2710 C   0  0  0  0  0  0  0  0  0  0  0  0
    7.6260   -3.5690   22.6550 C   0  0  0  0  0  0  0  0  0  0  0  0
    6.1790   -1.6390   21.9410 C   0  0  0  0  0  0  0  0  0  0  0  0
    7.5330   -2.2010   22.0470 N   0  0  0  0  0  0  0  0  0  0  0  0
    8.4950   -1.3130   22.3640 C   0  0  0  0  0  0  0  0  0  0  0  0
   10.0060   -1.6460   22.1220 C   0  0  0  0  0  0  0  0  0  0  0  0
    8.1460   -0.0740   22.9220 C   0  0  0  0  0  0  0  0  0  0  0  0
   10.4470   -2.7780   21.6040 F   0  0  0  0  0  0  0  0  0  0  0  0
   11.0520   -0.6000   22.5220 C   0  0  0  0  0  0  0  0  0  0  0  0
    9.1660    0.9460   23.3150 C   0  0  0  0  0  0  0  0  0  0  0  0
    6.8710    0.2540   23.1390 F   0  0  0  0  0  0  0  0  0  0  0  0
   10.5010    0.7050   23.1390 C   0  0  0  0  0  0  0  0  0  0  0  0
   11.5400    1.5720   23.5060 N   0  0  0  0  0  0  0  0  0  0  0  0
   12.6750    0.6960   23.6430 C   0  0  0  0  0  0  0  0  0  0  0  0
   11.6210    2.8490   23.1070 C   0  0  0  0  0  0  0  0  0  0  0  0
   13.7010    0.7440   22.9740 O   0  0  0  0  0  0  0  0  0  0  0  0
   12.4170   -0.2710   24.6310 N   0  0  0  0  0  0  0  0  0  0  0  0
   12.7730    3.2370   22.4430 N   0  0  0  0  0  0  0  0  0  0  0  0
   10.5810    3.6810   23.3850 N   0  0  0  0  0  0  0  0  0  0  0  0
   11.2250   -1.0210   24.6960 C   0  0  0  0  0  0  0  0  0  0  0  0
   12.8630    4.5330   22.0630 C   0  0  0  0  0  0  0  0  0  0  0  0
   10.6650    4.9610   23.0110 C   0  0  0  0  0  0  0  0  0  0  0  0
   11.0780   -2.4760   24.2450 C   0  0  0  0  0  0  0  0  0  0  0  0
   10.0590   -0.3980   25.2000 C   0  0  0  0  0  0  0  0  0  0  0  0
   11.8960    5.4790   22.2870 C   0  0  0  0  0  0  0  0  0  0  0  0
    9.8810   -3.1510   24.3050 C   0  0  0  0  0  0  0  0  0  0  0  0
    8.8400   -1.0830   25.2640 C   0  0  0  0  0  0  0  0  0  0  0  0
    8.7040   -2.4120   24.8390 C   0  0  0  0  0  0  0  0  0  0  0  0
    7.5500   -0.4490   25.7980 C   0  0  0  0  0  0  0  0  0  0  0  0
    7.5490   -0.3530   27.1430 N   0  0  0  0  0  0  0  0  0  0  0  0
  1  2  2  3
  1  3  1  0
  3  4  1  0
  3  5  1  0
  4  6  1  0
  5  7  1  0
  6  8  1  0
  7  8  1  0
  8  9  1  0
  9 10  2  0
  9 11  1  0
 10 12  1  0
 10 13  1  0
 11 14  2  0
 11 15  1  0
 13 16  2  0
 14 16  1  0
 16 17  1  0
 17 18  1  0
 17 19  1  0
 18 20  2  0
 18 21  1  0
 19 22  2  0
 19 23  1  0
 21 24  1  0
 22 25  1  0
 23 26  2  0
 24 27  2  0
 24 28  1  0
 25 29  2  0
 26 29  1  0
 27 30  1  0
 28 31  2  0
 30 32  2  0
 31 32  1  0
 31 33  1  0
 33 34  3  0
M  END
