NIM-NMI-8bb27a2b-1-bromoalkyne
     RDKit          3D

 28 30  0  0  0  0  0  0  0  0999 V2000
    7.3910   -3.5080   19.8820 C   0  0  0  0  0  0  0  0  0  0  0  0
    6.0220   -4.2660   19.9880 C   0  0  0  0  0  0  0  0  0  0  0  0
    7.7670   -2.5170   20.8460 N   0  0  0  0  0  0  0  0  0  0  0  0
    8.6220   -2.9750   21.9680 C   0  0  0  0  0  0  0  0  0  0  0  0
    7.3290   -1.0520   21.0190 C   0  0  1  0  0  0  0  0  0  0  0  0
    8.1320   -3.5120   23.2050 C   0  0  0  0  0  0  0  0  0  0  0  0
    9.9220   -2.9940   22.0900 N   0  0  0  0  0  0  0  0  0  0  0  0
    8.5310   -0.1490   21.4820 C   0  0  0  0  0  0  0  0  0  0  0  0
    6.6020   -0.3670   20.0210 C   0  0  0  0  0  0  0  0  0  0  0  0
    9.3120   -3.8370   24.0520 C   0  0  0  0  0  0  0  0  0  0  0  0
   10.2950   -3.5250   23.3620 O   0  0  0  0  0  0  0  0  0  0  0  0
    8.5800    1.0670   21.6170 O   0  0  0  0  0  0  0  0  0  0  0  0
    9.5570   -1.0340   21.6640 N   0  0  0  0  0  0  0  0  0  0  0  0
    5.3150    0.3420   20.3530 C   0  0  0  0  0  0  0  0  0  0  0  0
    7.0000   -0.2660   18.7110 C   0  0  0  0  0  0  0  0  0  0  0  0
    9.4040   -4.3610   25.3180 C   0  0  0  0  0  0  0  0  0  0  0  0
   10.4760   -0.8860   22.6890 C   0  0  0  0  0  0  0  0  0  0  0  0
    4.6350    1.0430   19.3390 C   0  0  0  0  0  0  0  0  0  0  0  0
    6.3280    0.4170   17.7480 N   0  0  0  0  0  0  0  0  0  0  0  0
   10.6430   -3.9900   25.7760 C   0  0  0  0  0  0  0  0  0  0  0  0
    8.3710   -3.9530   26.3810 C   0  0  0  0  0  0  0  0  0  0  0  0
    9.3750   -5.8740   25.1970 C   0  0  0  0  0  0  0  0  0  0  0  0
   11.7650   -1.3830   22.4650 C   0  0  0  0  0  0  0  0  0  0  0  0
   10.4670    0.4100   23.2260 C   0  0  0  0  0  0  0  0  0  0  0  0
    5.1860    1.0510   18.0610 C   0  0  0  0  0  0  0  0  0  0  0  0
   12.7690   -0.6680   23.1330 C   0  0  0  0  0  0  0  0  0  0  0  0
   11.6480    0.7290   23.8660 C   0  0  0  0  0  0  0  0  0  0  0  0
   12.7170    0.7280   23.0010 C   0  0  0  0  0  0  0  0  0  0  0  0
  1  2  2  3
  1  3  1  0
  3  4  1  0
  3  5  1  0
  4  6  1  0
  4  7  2  0
  5  8  1  6
  5  9  1  0
  6 10  2  0
  7 11  1  0
 10 11  1  0
  8 12  2  0
  8 13  1  0
  9 14  2  0
  9 15  1  0
 10 16  1  0
 13 17  1  0
 14 18  1  0
 15 19  2  0
 16 20  1  0
 16 21  1  0
 16 22  1  0
 17 23  1  0
 17 24  1  0
 18 25  2  0
 19 25  1  0
 23 26  1  0
 24 27  1  0
 26 28  1  0
 27 28  1  0
M  END
