NIM-NMI-8bb27a2b-11-chloroacetamide
     RDKit          3D

 28 29  0  0  0  0  0  0  0  0999 V2000
    8.0590   -3.8120   20.4770 C   0  0  0  0  0  0  0  0  0  0  0  0
    7.4420   -2.5450   20.0220 C   0  0  0  0  0  0  0  0  0  0  0  0
    6.6550   -2.7340   18.9560 O   0  0  0  0  0  0  0  0  0  0  0  0
    7.7130   -1.3250   20.7950 N   0  0  0  0  0  0  0  0  0  0  0  0
    8.7590   -0.9240   21.8300 C   0  0  0  0  0  0  0  0  0  0  0  0
    6.5330   -0.8260   21.2080 C   0  0  2  0  0  0  0  0  0  0  0  0
   10.2320   -1.1170   21.7770 C   0  0  0  0  0  0  0  0  0  0  0  0
    8.5290   -0.2840   22.9930 N   0  0  0  0  0  0  0  0  0  0  0  0
    5.5300   -1.7200   21.9750 C   0  0  0  0  0  0  0  0  0  0  0  0
    6.0750   -0.1040   20.1230 C   0  0  0  0  0  0  0  0  0  0  0  0
   10.7530   -0.5620   22.8940 C   0  0  0  0  0  0  0  0  0  0  0  0
    9.6210   -0.0520   23.6410 O   0  0  0  0  0  0  0  0  0  0  0  0
    4.2920   -1.2730   22.5070 O   0  0  0  0  0  0  0  0  0  0  0  0
    6.0480   -2.9900   22.0880 N   0  0  0  0  0  0  0  0  0  0  0  0
    4.9300    0.6500   20.1350 C   0  0  0  0  0  0  0  0  0  0  0  0
    6.7670   -0.0930   18.9330 C   0  0  0  0  0  0  0  0  0  0  0  0
   12.0760   -0.4590   23.2950 C   0  0  0  0  0  0  0  0  0  0  0  0
    5.1060   -3.8050   22.6590 C   0  0  0  0  0  0  0  0  0  0  0  0
    4.4840    1.3720   19.0670 C   0  0  0  0  0  0  0  0  0  0  0  0
    6.3150    0.6680   17.7720 N   0  0  0  0  0  0  0  0  0  0  0  0
   12.9850   -0.9570   22.4000 C   0  0  0  0  0  0  0  0  0  0  0  0
   12.4060   -1.3430   24.5010 C   0  0  0  0  0  0  0  0  0  0  0  0
   12.6360    0.7630   23.4600 C   0  0  0  0  0  0  0  0  0  0  0  0
    5.8150   -4.5530   23.7670 C   0  0  0  0  0  0  0  0  0  0  0  0
    5.2010    1.3800   17.8540 C   0  0  0  0  0  0  0  0  0  0  0  0
    5.7280   -4.4490   24.9900 O   0  0  0  0  0  0  0  0  0  0  0  0
    6.7560   -5.5670   23.3630 O   0  0  0  0  0  0  0  0  0  0  0  0
    6.1340   -6.6810   22.6950 C   0  0  0  0  0  0  0  0  0  0  0  0
  1  2  1  0
  2  3  2  0
  2  4  1  0
  4  5  1  0
  4  6  1  0
  5  7  1  0
  5  8  2  0
  6  9  1  6
  6 10  1  0
  7 11  2  0
  8 12  1  0
 11 12  1  0
  9 13  2  0
  9 14  1  0
 10 15  2  0
 10 16  1  0
 11 17  1  0
 14 18  1  0
 15 19  1  0
 16 20  2  0
 17 21  1  0
 17 22  1  0
 17 23  1  0
 18 24  1  0
 19 25  2  0
 20 25  1  0
 24 26  2  0
 24 27  1  0
 27 28  1  0
M  END
