NIM-UNI-310206f0-35-vinylsulfonamide
     RDKit          3D

 35 38  0  0  0  0  0  0  0  0999 V2000
    8.3760   -5.1710   20.5210 C   0  0  0  0  0  0  0  0  0  0  0  0
    6.8680   -5.3200   20.2600 C   0  0  0  0  0  0  0  0  0  0  0  0
    5.9550   -5.0590   21.7540 S   0  0  0  0  0  0  0  0  0  0  0  0
    4.6390   -5.6180   21.6350 O   0  0  0  0  0  0  0  0  0  0  0  0
    6.8070   -5.4060   22.8730 O   0  0  0  0  0  0  0  0  0  0  0  0
    5.7080   -3.4150   21.6990 N   0  0  0  0  0  0  0  0  0  0  0  0
    4.9120   -2.7620   22.7580 C   0  0  0  0  0  0  0  0  0  0  0  0
    5.6690   -2.8140   20.3450 C   0  0  0  0  0  0  0  0  0  0  0  0
    5.3870   -1.2630   22.8430 C   0  0  0  0  0  0  0  0  0  0  0  0
    5.7810   -1.3020   20.4120 C   0  0  0  0  0  0  0  0  0  0  0  0
    6.3220   -0.9760   21.7240 N   0  0  0  0  0  0  0  0  0  0  0  0
    7.7380   -1.2570   22.0210 C   0  0  0  0  0  0  0  0  0  0  0  0
    8.6160   -0.0100   21.8500 C   0  0  0  0  0  0  0  0  0  0  0  0
    8.2720   -2.4780   22.4140 C   0  0  0  0  0  0  0  0  0  0  0  0
    8.1490    1.1950   21.4640 F   0  0  0  0  0  0  0  0  0  0  0  0
   10.1420   -0.2090   22.1590 C   0  0  0  0  0  0  0  0  0  0  0  0
    9.7270   -2.6580   22.7010 C   0  0  0  0  0  0  0  0  0  0  0  0
    7.5210   -3.5640   22.5650 F   0  0  0  0  0  0  0  0  0  0  0  0
   10.6230   -1.6300   22.6000 C   0  0  0  0  0  0  0  0  0  0  0  0
   11.9990   -1.8900   22.9160 N   0  0  0  0  0  0  0  0  0  0  0  0
   12.1890   -2.4640   24.2370 C   0  0  0  0  0  0  0  0  0  0  0  0
   12.9570   -0.9910   22.4270 C   0  0  0  0  0  0  0  0  0  0  0  0
   10.9020   -2.8500   25.0010 C   0  0  0  0  0  0  0  0  0  0  0  0
   13.5590   -1.1770   21.3740 O   0  0  0  0  0  0  0  0  0  0  0  0
   13.2510    0.1610   23.1300 N   0  0  0  0  0  0  0  0  0  0  0  0
   10.2480   -3.9760   24.9070 C   0  0  0  0  0  0  0  0  0  0  0  0
   10.9970   -4.1630   26.0330 C   0  0  0  0  0  0  0  0  0  0  0  0
   12.1200    0.8750   23.4050 C   0  0  0  0  0  0  0  0  0  0  0  0
   12.0520    2.3400   22.9650 C   0  0  0  0  0  0  0  0  0  0  0  0
   10.9960    0.3500   24.0690 C   0  0  0  0  0  0  0  0  0  0  0  0
   10.8540    3.2340   23.1970 C   0  0  0  0  0  0  0  0  0  0  0  0
    9.8590    1.1500   24.2990 C   0  0  0  0  0  0  0  0  0  0  0  0
    9.8030    2.6130   23.8490 C   0  0  0  0  0  0  0  0  0  0  0  0
    8.6460    0.6530   24.9740 C   0  0  0  0  0  0  0  0  0  0  0  0
    7.6620    0.2850   25.4730 N   0  0  0  0  0  0  0  0  0  0  0  0
  1  2  1  0
  3  2  1  0
  3  4  2  0
  3  5  2  0
  3  6  1  0
  6  7  1  0
  6  8  1  0
  7  9  1  0
  8 10  1  0
  9 11  1  0
 10 11  1  0
 11 12  1  0
 12 13  2  0
 12 14  1  0
 13 15  1  0
 13 16  1  0
 14 17  2  0
 14 18  1  0
 16 19  2  0
 17 19  1  0
 19 20  1  0
 20 21  1  0
 20 22  1  0
 21 23  1  0
 22 24  2  0
 22 25  1  0
 23 26  1  0
 23 27  1  0
 26 27  1  0
 25 28  1  0
 28 29  2  0
 28 30  1  0
 29 31  1  0
 30 32  2  0
 31 33  2  0
 32 33  1  0
 32 34  1  0
 34 35  3  0
M  END
