NIM-NMI-8bb27a2b-5-bromoalkyne
     RDKit          3D

 30 31  0  0  0  0  0  0  0  0999 V2000
    7.7270   -2.6670   19.5050 C   0  0  0  0  0  0  0  0  0  0  0  0
    6.6900   -2.2740   18.4490 C   0  0  0  0  0  0  0  0  0  0  0  0
    7.9350   -1.8000   20.7480 N   0  0  0  0  0  0  0  0  0  0  0  0
    9.2540   -1.3370   21.5340 C   0  0  0  0  0  0  0  0  0  0  0  0
    6.7470   -1.0070   21.1540 C   0  0  2  0  0  0  0  0  0  0  0  0
    9.1430   -0.3250   22.6640 C   0  0  0  0  0  0  0  0  0  0  0  0
   10.4720   -1.7040   21.3640 N   0  0  0  0  0  0  0  0  0  0  0  0
    5.7720   -1.9930   21.8590 C   0  0  0  0  0  0  0  0  0  0  0  0
    6.2590   -0.2150   20.0930 C   0  0  0  0  0  0  0  0  0  0  0  0
   10.6750   -0.4040   22.9050 C   0  0  0  0  0  0  0  0  0  0  0  0
   11.3030   -1.1250   22.2070 O   0  0  0  0  0  0  0  0  0  0  0  0
    4.9400   -2.7780   21.4090 O   0  0  0  0  0  0  0  0  0  0  0  0
    6.0950   -1.7710   23.1750 N   0  0  0  0  0  0  0  0  0  0  0  0
    5.0030    0.5780   20.2540 C   0  0  0  0  0  0  0  0  0  0  0  0
    6.8730   -0.1050   18.8500 C   0  0  0  0  0  0  0  0  0  0  0  0
   11.3890    0.2560   23.8390 C   0  0  0  0  0  0  0  0  0  0  0  0
    7.0310   -2.5890   23.7340 C   0  0  0  0  0  0  0  0  0  0  0  0
    4.5440    1.3520   19.1750 C   0  0  0  0  0  0  0  0  0  0  0  0
    6.4100    0.6480   17.8190 N   0  0  0  0  0  0  0  0  0  0  0  0
   10.7470    1.4540   24.0540 C   0  0  0  0  0  0  0  0  0  0  0  0
   11.5660   -0.5560   25.1220 C   0  0  0  0  0  0  0  0  0  0  0  0
   12.7920    0.4990   23.2670 C   0  0  0  0  0  0  0  0  0  0  0  0
    6.7060   -3.8610   24.2070 C   0  0  0  0  0  0  0  0  0  0  0  0
    5.2770    1.3530   17.9920 C   0  0  0  0  0  0  0  0  0  0  0  0
    5.8900   -4.0600   25.1020 O   0  0  0  0  0  0  0  0  0  0  0  0
    7.4260   -4.7970   23.5360 O   0  0  0  0  0  0  0  0  0  0  0  0
    7.1630   -6.2170   23.6710 C   0  0  0  0  0  0  0  0  0  0  0  0
    6.1690   -6.4630   24.6190 C   0  0  0  0  0  0  0  0  0  0  0  0
    8.5110   -6.8370   24.0480 C   0  0  0  0  0  0  0  0  0  0  0  0
    6.7510   -6.8540   22.3670 C   0  0  0  0  0  0  0  0  0  0  0  0
  1  2  2  3
  1  3  1  0
  3  4  1  0
  3  5  1  0
  4  6  1  0
  4  7  2  0
  5  8  1  6
  5  9  1  0
  6 10  2  0
  7 11  1  0
 10 11  1  0
  8 12  2  0
  8 13  1  0
  9 14  2  0
  9 15  1  0
 10 16  1  0
 13 17  1  0
 14 18  1  0
 15 19  2  0
 16 20  1  0
 16 21  1  0
 16 22  1  0
 17 23  1  0
 18 24  2  0
 19 24  1  0
 23 25  2  0
 23 26  1  0
 27 26  1  0
 27 28  1  0
 27 29  1  0
 27 30  1  0
M  END
