NIM-UNI-310206f0-43-vinylsulfonamide
     RDKit          3D

 34 37  0  0  0  0  0  0  0  0999 V2000
    7.9340   -3.3970   19.7370 C   0  0  0  0  0  0  0  0  0  0  0  0
    6.9910   -2.4520   19.0550 C   0  0  0  0  0  0  0  0  0  0  0  0
    5.5050   -2.6810   19.9390 S   0  0  0  0  0  0  0  0  0  0  0  0
    4.8830   -3.9040   19.4740 O   0  0  0  0  0  0  0  0  0  0  0  0
    4.8530   -1.3900   19.9400 O   0  0  0  0  0  0  0  0  0  0  0  0
    6.0060   -2.9900   21.4820 N   0  0  0  0  0  0  0  0  0  0  0  0
    5.6370   -2.0620   22.5560 C   0  0  0  0  0  0  0  0  0  0  0  0
    6.1440   -4.4330   21.8240 C   0  0  0  0  0  0  0  0  0  0  0  0
    5.3460   -3.0240   23.7480 C   0  0  0  0  0  0  0  0  0  0  0  0
    6.9800   -4.6720   23.0940 C   0  0  0  0  0  0  0  0  0  0  0  0
    6.6600   -3.6210   24.0590 N   0  0  0  0  0  0  0  0  0  0  0  0
    7.6220   -2.5480   24.2690 C   0  0  0  0  0  0  0  0  0  0  0  0
    8.8680   -2.6450   23.3760 C   0  0  0  0  0  0  0  0  0  0  0  0
    7.4060   -1.5340   25.1890 C   0  0  0  0  0  0  0  0  0  0  0  0
    9.1280   -3.6000   22.4780 F   0  0  0  0  0  0  0  0  0  0  0  0
    9.8840   -1.5090   23.5610 C   0  0  0  0  0  0  0  0  0  0  0  0
    8.4040   -0.4290   25.3670 C   0  0  0  0  0  0  0  0  0  0  0  0
    6.2910   -1.5090   25.9480 F   0  0  0  0  0  0  0  0  0  0  0  0
    9.5520   -0.4230   24.6040 C   0  0  0  0  0  0  0  0  0  0  0  0
   10.4950    0.5820   24.7340 N   0  0  0  0  0  0  0  0  0  0  0  0
   11.7780   -0.0680   24.6850 C   0  0  0  0  0  0  0  0  0  0  0  0
   10.0950    1.8430   24.1440 C   0  0  0  0  0  0  0  0  0  0  0  0
   12.4960   -0.3570   25.6260 O   0  0  0  0  0  0  0  0  0  0  0  0
   12.3630   -0.5070   23.4210 C   0  0  0  0  0  0  0  0  0  0  0  0
   11.0170    2.7890   23.8480 N   0  0  0  0  0  0  0  0  0  0  0  0
    8.7670    2.0270   23.9130 N   0  0  0  0  0  0  0  0  0  0  0  0
   12.2110   -1.7450   22.8350 C   0  0  0  0  0  0  0  0  0  0  0  0
   13.1230    0.4700   22.8290 C   0  0  0  0  0  0  0  0  0  0  0  0
   10.6400    3.9810   23.3180 C   0  0  0  0  0  0  0  0  0  0  0  0
    8.3440    3.1830   23.3810 C   0  0  0  0  0  0  0  0  0  0  0  0
   12.8790   -1.9550   21.5940 C   0  0  0  0  0  0  0  0  0  0  0  0
   13.7680    0.3150   21.6930 N   0  0  0  0  0  0  0  0  0  0  0  0
    9.3270    4.2840   23.0390 C   0  0  0  0  0  0  0  0  0  0  0  0
   13.6420   -0.8880   21.1020 C   0  0  0  0  0  0  0  0  0  0  0  0
  1  2  1  0
  3  2  1  0
  3  4  2  0
  3  5  2  0
  3  6  1  0
  6  7  1  0
  6  8  1  0
  7  9  1  0
  8 10  1  0
  9 11  1  0
 10 11  1  0
 11 12  1  0
 12 13  2  0
 12 14  1  0
 13 15  1  0
 13 16  1  0
 14 17  2  0
 14 18  1  0
 16 19  2  0
 17 19  1  0
 19 20  1  0
 20 21  1  0
 20 22  1  0
 21 23  2  0
 21 24  1  0
 22 25  2  0
 22 26  1  0
 24 27  2  0
 24 28  1  0
 25 29  1  0
 26 30  2  0
 27 31  1  0
 28 32  2  0
 29 33  2  0
 30 33  1  0
 31 34  2  0
 32 34  1  0
M  END
