NIM-UNI-43fe0159-12-acrylamide
     RDKit          3D

 21 22  0  0  0  0  0  0  0  0999 V2000
    7.4510   -2.9060   18.5110 C   0  0  0  0  0  0  0  0  0  0  0  0
    6.8210   -2.3870   19.5490 C   0  0  0  0  0  0  0  0  0  0  0  0
    5.9940   -3.3690   20.3560 C   0  0  0  0  0  0  0  0  0  0  0  0
    5.1710   -4.1830   19.8730 O   0  0  0  0  0  0  0  0  0  0  0  0
    6.2260   -3.2870   21.7070 N   0  0  0  0  0  0  0  0  0  0  0  0
    6.2100   -1.9620   22.3230 C   0  0  0  0  0  0  0  0  0  0  0  0
    6.9750   -4.2980   22.4910 C   0  0  0  0  0  0  0  0  0  0  0  0
    7.3860   -1.9420   23.2680 C   0  0  0  0  0  0  0  0  0  0  0  0
    8.1540   -3.9940   22.7900 O   0  0  0  0  0  0  0  0  0  0  0  0
    8.5160   -2.5970   22.6550 C   0  0  2  0  0  0  0  0  0  0  0  0
    9.6970   -2.3150   23.2410 C   0  0  0  0  0  0  0  0  0  0  0  0
   10.1610   -0.9960   23.1330 C   0  0  0  0  0  0  0  0  0  0  0  0
   10.3930   -3.3330   23.8840 C   0  0  0  0  0  0  0  0  0  0  0  0
   11.3940   -0.6510   23.6570 C   0  0  0  0  0  0  0  0  0  0  0  0
   11.7240   -2.9620   24.4570 C   0  0  0  0  0  0  0  0  0  0  0  0
   12.0950   -1.6810   24.2780 C   0  0  0  0  0  0  0  0  0  0  0  0
   13.2530   -1.2400   24.6640 C   0  0  0  0  0  0  0  0  0  0  0  0
   13.4100   -0.2620   23.2240 S   0  0  0  0  0  0  0  0  0  0  0  0
   13.4230   -1.7940   22.3990 C   0  0  0  0  0  0  0  0  0  0  0  0
   13.2550   -1.8230   20.9230 C   0  0  0  0  0  0  0  0  0  0  0  0
   13.5850   -2.8220   23.0400 O   0  0  0  0  0  0  0  0  0  0  0  0
  1  2  1  0
  2  3  1  0
  3  4  2  0
  3  5  1  0
  5  6  1  0
  5  7  1  0
  6  8  1  0
  7  9  1  0
  8 10  1  0
  9 10  1  0
 10 11  1  1
 11 12  2  0
 11 13  1  0
 12 14  1  0
 13 15  2  0
 14 16  2  0
 15 16  1  0
 16 17  1  0
 17 18  1  0
 18 19  1  0
 19 20  1  0
 19 21  2  0
M  END
