NIM-UNI-310206f0-57-chloroacetamide
     RDKit          3D

 32 35  0  0  0  0  0  0  0  0999 V2000
    6.7040   -3.2690   19.3210 C   0  0  0  0  0  0  0  0  0  0  0  0
    5.8500   -4.0960   20.2770 C   0  0  0  0  0  0  0  0  0  0  0  0
    5.4160   -5.1960   20.0000 O   0  0  0  0  0  0  0  0  0  0  0  0
    5.5630   -3.5780   21.5340 N   0  0  0  0  0  0  0  0  0  0  0  0
    5.5790   -2.1200   21.6750 C   0  0  0  0  0  0  0  0  0  0  0  0
    5.9640   -4.2670   22.7710 C   0  0  0  0  0  0  0  0  0  0  0  0
    5.6370   -1.8940   23.0480 C   0  0  0  0  0  0  0  0  0  0  0  0
    7.0840   -3.6930   23.4280 C   0  0  0  0  0  0  0  0  0  0  0  0
    6.8340   -2.2530   23.6320 N   0  0  0  0  0  0  0  0  0  0  0  0
    7.8940   -1.3880   23.4060 C   0  0  0  0  0  0  0  0  0  0  0  0
    9.3050   -1.7790   23.6450 C   0  0  0  0  0  0  0  0  0  0  0  0
    7.6840   -0.0770   22.9350 C   0  0  0  0  0  0  0  0  0  0  0  0
    9.6880   -2.9770   24.0790 F   0  0  0  0  0  0  0  0  0  0  0  0
   10.2780   -0.8530   23.4100 C   0  0  0  0  0  0  0  0  0  0  0  0
    8.7170    0.8320   22.7030 C   0  0  0  0  0  0  0  0  0  0  0  0
    6.4440    0.3730   22.6820 F   0  0  0  0  0  0  0  0  0  0  0  0
   10.0310    0.4410   22.9500 C   0  0  0  0  0  0  0  0  0  0  0  0
   11.0000    1.3270   22.7410 N   0  0  0  0  0  0  0  0  0  0  0  0
   12.2210    0.7360   22.8850 C   0  0  0  0  0  0  0  0  0  0  0  0
   10.7580    2.6800   23.0450 C   0  0  0  0  0  0  0  0  0  0  0  0
   13.2920    1.3120   22.9150 O   0  0  0  0  0  0  0  0  0  0  0  0
   12.2470   -0.6890   23.0080 C   0  0  0  0  0  0  0  0  0  0  0  0
    9.6050    3.1210   23.6630 C   0  0  0  0  0  0  0  0  0  0  0  0
   11.6140    3.7650   22.7780 C   0  0  0  0  0  0  0  0  0  0  0  0
   13.0070   -1.4060   21.9280 C   0  0  0  0  0  0  0  0  0  0  0  0
   12.9720   -1.1350   24.0820 C   0  0  0  0  0  0  0  0  0  0  0  0
    9.3160    4.5560   23.9910 C   0  0  0  0  0  0  0  0  0  0  0  0
   11.2950    5.1350   23.1070 C   0  0  0  0  0  0  0  0  0  0  0  0
   12.8580    3.9070   22.2020 C   0  0  0  0  0  0  0  0  0  0  0  0
   10.1110    5.8350   23.7710 C   0  0  0  0  0  0  0  0  0  0  0  0
   12.3650    5.8880   22.6820 N   0  0  0  0  0  0  0  0  0  0  0  0
   13.3010    5.1280   22.1350 C   0  0  0  0  0  0  0  0  0  0  0  0
  1  2  1  0
  2  3  2  0
  2  4  1  0
  4  5  1  0
  4  6  1  0
  5  7  1  0
  6  8  1  0
  7  9  1  0
  8  9  1  0
  9 10  1  0
 10 11  2  0
 10 12  1  0
 11 13  1  0
 11 14  1  0
 12 15  2  0
 12 16  1  0
 14 17  2  0
 15 17  1  0
 17 18  1  0
 18 19  1  0
 18 20  1  0
 19 21  2  0
 19 22  1  0
 20 23  2  0
 20 24  1  0
 22 25  1  0
 22 26  1  0
 23 27  1  0
 24 28  2  0
 24 29  1  0
 27 30  2  0
 28 30  1  0
 28 31  1  0
 29 32  2  0
 31 32  1  0
M  END
