NIM-UNI-310206f0-61-chloroacetamide
     RDKit          3D

 34 38  0  0  0  0  0  0  0  0999 V2000
    7.2750   -3.0900   19.2350 C   0  0  0  0  0  0  0  0  0  0  0  0
    6.0290   -3.3710   20.0400 C   0  0  0  0  0  0  0  0  0  0  0  0
    5.1420   -4.1390   19.7090 O   0  0  0  0  0  0  0  0  0  0  0  0
    5.9370   -2.7280   21.2510 N   0  0  0  0  0  0  0  0  0  0  0  0
    6.0630   -3.6290   22.4120 C   0  0  0  0  0  0  0  0  0  0  0  0
    6.4920   -1.4050   21.4780 C   0  0  0  0  0  0  0  0  0  0  0  0
    7.2290   -3.2670   23.1130 C   0  0  0  0  0  0  0  0  0  0  0  0
    6.4010   -1.1020   22.9560 C   0  0  0  0  0  0  0  0  0  0  0  0
    7.2590   -2.0190   23.6880 N   0  0  0  0  0  0  0  0  0  0  0  0
    8.4340   -1.3850   23.9090 C   0  0  0  0  0  0  0  0  0  0  0  0
    8.4640   -0.3130   24.9560 C   0  0  0  0  0  0  0  0  0  0  0  0
    9.6080   -1.6080   23.2250 C   0  0  0  0  0  0  0  0  0  0  0  0
    7.4020    0.0200   25.7100 F   0  0  0  0  0  0  0  0  0  0  0  0
    9.6300    0.3690   25.1370 C   0  0  0  0  0  0  0  0  0  0  0  0
   10.7030   -0.9010   23.4660 C   0  0  0  0  0  0  0  0  0  0  0  0
    9.7900   -2.4990   22.2640 F   0  0  0  0  0  0  0  0  0  0  0  0
   10.7470    0.0800   24.3840 C   0  0  0  0  0  0  0  0  0  0  0  0
   11.9160    0.5370   24.3060 N   0  0  0  0  0  0  0  0  0  0  0  0
   11.8590    1.7680   23.7630 C   0  0  0  0  0  0  0  0  0  0  0  0
   12.3360   -0.5350   23.5990 C   0  0  0  0  0  0  0  0  0  0  0  0
   10.7350    2.6080   23.9510 C   0  0  0  0  0  0  0  0  0  0  0  0
   12.9400    2.2320   23.0220 N   0  0  0  0  0  0  0  0  0  0  0  0
   11.8840   -0.5010   22.1880 C   0  0  0  0  0  0  0  0  0  0  0  0
   13.0500   -1.4740   24.2650 C   0  0  0  0  0  0  0  0  0  0  0  0
   10.7380    3.9980   23.3910 C   0  0  0  0  0  0  0  0  0  0  0  0
   12.9670    3.5390   22.5000 C   0  0  0  0  0  0  0  0  0  0  0  0
   12.4790   -1.8150   21.6790 C   0  0  0  0  0  0  0  0  0  0  0  0
   13.4890   -2.5590   23.6700 C   0  0  0  0  0  0  0  0  0  0  0  0
   13.4840   -1.6290   25.5130 C   0  0  0  0  0  0  0  0  0  0  0  0
   11.9410    4.4490   22.6500 C   0  0  0  0  0  0  0  0  0  0  0  0
   13.2700   -2.8020   22.4480 C   0  0  0  0  0  0  0  0  0  0  0  0
   14.2200   -3.3790   24.5840 N   0  0  0  0  0  0  0  0  0  0  0  0
   14.1940   -2.7550   25.7680 C   0  0  0  0  0  0  0  0  0  0  0  0
   12.0670    5.8290   22.0840 C   0  0  0  0  0  0  0  0  0  0  0  0
  1  2  1  0
  2  3  2  0
  2  4  1  0
  4  5  1  0
  4  6  1  0
  5  7  1  0
  6  8  1  0
  7  9  1  0
  8  9  1  0
  9 10  1  0
 10 11  2  0
 10 12  1  0
 11 13  1  0
 11 14  1  0
 12 15  2  0
 12 16  1  0
 14 17  2  0
 15 17  1  0
 17 18  1  0
 18 19  1  0
 18 20  1  0
 19 21  2  0
 19 22  1  0
 20 23  2  0
 20 24  1  0
 21 25  1  0
 22 26  2  0
 23 27  1  0
 24 28  2  0
 24 29  1  0
 25 30  2  0
 26 30  1  0
 27 31  2  0
 28 31  1  0
 28 32  1  0
 29 33  2  0
 32 33  1  0
 30 34  1  0
M  END
