NIM-UNI-310206f0-48-nitrile
     RDKit          3D

 29 32  0  0  0  0  0  0  0  0999 V2000
    6.9040   -3.8190   20.2270 C   0  0  0  0  0  0  0  0  0  0  0  0
    5.7270   -4.0330   19.7550 N   0  0  0  0  0  0  0  0  0  0  0  0
    7.1550   -3.4160   21.5580 N   0  0  0  0  0  0  0  0  0  0  0  0
    6.4560   -2.2850   22.2140 C   0  0  0  0  0  0  0  0  0  0  0  0
    8.3260   -3.8620   22.3670 C   0  0  0  0  0  0  0  0  0  0  0  0
    7.3140   -1.2350   22.6070 C   0  0  0  0  0  0  0  0  0  0  0  0
    8.3000   -3.1870   23.6090 C   0  0  0  0  0  0  0  0  0  0  0  0
    8.4950   -1.7300   23.3370 N   0  0  0  0  0  0  0  0  0  0  0  0
    9.7920   -1.3140   22.9580 C   0  0  0  0  0  0  0  0  0  0  0  0
   10.2750    0.1120   23.0070 C   0  0  0  0  0  0  0  0  0  0  0  0
   10.7290   -2.2160   22.4880 C   0  0  0  0  0  0  0  0  0  0  0  0
    9.5070    1.1170   23.4440 F   0  0  0  0  0  0  0  0  0  0  0  0
   11.6730    0.4140   22.5290 C   0  0  0  0  0  0  0  0  0  0  0  0
   12.0300   -1.9140   22.0310 C   0  0  0  0  0  0  0  0  0  0  0  0
   10.3520   -3.4730   22.4580 F   0  0  0  0  0  0  0  0  0  0  0  0
   12.4970   -0.6030   22.0320 C   0  0  0  0  0  0  0  0  0  0  0  0
   13.7460   -0.2940   21.5160 N   0  0  0  0  0  0  0  0  0  0  0  0
   14.0500   -0.9230   20.2670 C   0  0  0  0  0  0  0  0  0  0  0  0
   14.2500    1.0200   21.4110 C   0  0  0  0  0  0  0  0  0  0  0  0
   14.9300   -0.0790   19.2770 C   0  0  0  0  0  0  0  0  0  0  0  0
   13.9950    2.0800   22.3080 C   0  0  0  0  0  0  0  0  0  0  0  0
   15.1890    1.3620   20.1690 C   0  0  0  0  0  0  0  0  0  0  0  0
   15.7990   -0.6670   18.5670 C   0  0  0  0  0  0  0  0  0  0  0  0
   15.0710    0.3890   17.8290 C   0  0  0  0  0  0  0  0  0  0  0  0
   14.5500    3.3070   22.0700 C   0  0  0  0  0  0  0  0  0  0  0  0
   15.7010    2.6900   19.8860 C   0  0  0  0  0  0  0  0  0  0  0  0
   15.3730    3.6150   20.8480 C   0  0  0  0  0  0  0  0  0  0  0  0
   15.7860    4.8120   20.5910 O   0  0  0  0  0  0  0  0  0  0  0  0
   16.5850    4.8660   19.5180 C   0  0  0  0  0  0  0  0  0  0  0  0
  1  2  2  3
  1  3  1  0
  3  4  1  0
  3  5  1  0
  4  6  1  0
  5  7  1  0
  6  8  1  0
  7  8  1  0
  8  9  1  0
  9 10  2  0
  9 11  1  0
 10 12  1  0
 10 13  1  0
 11 14  2  0
 11 15  1  0
 13 16  2  0
 14 16  1  0
 16 17  1  0
 17 18  1  0
 17 19  1  0
 18 20  1  0
 19 21  2  0
 19 22  1  0
 20 23  1  0
 20 24  1  0
 23 24  1  0
 21 25  1  0
 22 26  2  0
 25 27  2  0
 26 27  1  0
 27 28  1  0
 28 29  1  0
M  END
