NIM-NMI-8bb27a2b-4-acrylamide
     RDKit          3D

 29 30  0  0  0  0  0  0  0  0999 V2000
    6.2310   -4.6330   20.0510 C   0  0  0  0  0  0  0  0  0  0  0  0
    6.8990   -3.2850   20.0330 C   0  0  0  0  0  0  0  0  0  0  0  0
    6.1860   -2.5910   21.1180 C   0  0  0  0  0  0  0  0  0  0  0  0
    4.8900   -3.0840   21.2790 O   0  0  0  0  0  0  0  0  0  0  0  0
    7.0230   -1.5660   21.8120 N   0  0  0  0  0  0  0  0  0  0  0  0
    8.5500   -1.7560   21.9810 C   0  0  0  0  0  0  0  0  0  0  0  0
    6.5390   -0.1940   21.7040 C   0  0  1  0  0  0  0  0  0  0  0  0
    9.6350   -0.8630   22.6360 C   0  0  0  0  0  0  0  0  0  0  0  0
    9.3640   -2.8830   21.5370 N   0  0  0  0  0  0  0  0  0  0  0  0
    7.3410    0.7940   22.5670 C   0  0  0  0  0  0  0  0  0  0  0  0
    6.1690    0.2990   20.3170 C   0  0  0  0  0  0  0  0  0  0  0  0
   10.8510   -1.5090   22.5060 C   0  0  0  0  0  0  0  0  0  0  0  0
   10.7060   -2.6010   21.9170 O   0  0  0  0  0  0  0  0  0  0  0  0
    8.0820    1.4810   21.9020 O   0  0  0  0  0  0  0  0  0  0  0  0
    7.6520    1.3440   23.7690 N   0  0  0  0  0  0  0  0  0  0  0  0
    4.9380    1.1340   20.2000 C   0  0  0  0  0  0  0  0  0  0  0  0
    6.8520    0.0590   19.1270 C   0  0  0  0  0  0  0  0  0  0  0  0
   12.0640   -0.9880   22.9910 C   0  0  0  0  0  0  0  0  0  0  0  0
    6.9420    0.9680   24.9700 C   0  0  0  0  0  0  0  0  0  0  0  0
    4.5590    1.6170   18.9530 C   0  0  0  0  0  0  0  0  0  0  0  0
    6.4600    0.5450   17.9190 N   0  0  0  0  0  0  0  0  0  0  0  0
   13.0100   -1.3880   22.0680 C   0  0  0  0  0  0  0  0  0  0  0  0
   12.2600    0.5230   23.2350 C   0  0  0  0  0  0  0  0  0  0  0  0
   12.4140   -1.7090   24.3140 C   0  0  0  0  0  0  0  0  0  0  0  0
    7.2090   -0.3750   25.2630 C   0  0  0  0  0  0  0  0  0  0  0  0
    5.3450    1.3030   17.8540 C   0  0  0  0  0  0  0  0  0  0  0  0
    6.0820   -1.2280   25.2200 C   0  0  0  0  0  0  0  0  0  0  0  0
    7.0460   -2.3430   24.7400 C   0  0  0  0  0  0  0  0  0  0  0  0
    4.9330   -1.0320   24.2250 C   0  0  0  0  0  0  0  0  0  0  0  0
  1  2  1  0
  2  3  1  0
  3  4  2  0
  3  5  1  0
  5  6  1  0
  5  7  1  0
  6  8  1  0
  6  9  2  0
  7 10  1  6
  7 11  1  0
  8 12  2  0
  9 13  1  0
 12 13  1  0
 10 14  2  0
 10 15  1  0
 11 16  2  0
 11 17  1  0
 12 18  1  0
 15 19  1  0
 16 20  1  0
 17 21  2  0
 18 22  1  0
 18 23  1  0
 18 24  1  0
 19 25  1  0
 20 26  2  0
 21 26  1  0
 25 27  1  0
 27 28  1  0
 27 29  1  0
M  END
