NIM-UNI-594fbbb6-3-vinylsulfonamide
     RDKit          3D

 27 29  0  0  0  0  0  0  0  0999 V2000
    7.9410   -3.2900   19.1900 C   0  0  0  0  0  0  0  0  0  0  0  0
    6.8430   -2.4340   18.6100 C   0  0  0  0  0  0  0  0  0  0  0  0
    5.4990   -2.4090   19.7140 S   0  0  0  0  0  0  0  0  0  0  0  0
    4.8370   -3.6830   19.5260 O   0  0  0  0  0  0  0  0  0  0  0  0
    4.8260   -1.1380   19.5460 O   0  0  0  0  0  0  0  0  0  0  0  0
    6.2240   -2.3650   21.1890 N   0  0  0  0  0  0  0  0  0  0  0  0
    7.2060   -1.3330   21.5470 C   0  0  0  0  0  0  0  0  0  0  0  0
    5.6430   -3.2140   22.2200 C   0  0  0  0  0  0  0  0  0  0  0  0
    8.3780   -2.1750   22.1390 C   0  0  0  0  0  0  0  0  0  0  0  0
    6.7230   -3.8440   23.0420 C   0  0  0  0  0  0  0  0  0  0  0  0
    7.8040   -2.9140   23.3010 N   0  0  0  0  0  0  0  0  0  0  0  0
    8.6070   -3.0700   24.4860 C   0  0  0  0  0  0  0  0  0  0  0  0
   10.0100   -2.7130   24.1420 C   0  0  0  0  0  0  0  0  0  0  0  0
   10.1790   -1.3180   23.8350 C   0  0  0  0  0  0  0  0  0  0  0  0
   11.2110   -3.3150   24.0220 N   0  0  0  0  0  0  0  0  0  0  0  0
   11.4100   -1.1720   23.5550 N   0  0  0  0  0  0  0  0  0  0  0  0
   12.0820   -2.3580   23.6560 N   0  0  0  0  0  0  0  0  0  0  0  0
   11.8630   -0.0740   23.2540 C   0  0  0  0  0  0  0  0  0  0  0  0
   13.2550    0.1450   22.9110 C   0  0  0  0  0  0  0  0  0  0  0  0
   10.9880    1.2160   23.2290 C   0  0  0  0  0  0  0  0  0  0  0  0
   13.6280    1.5200   22.6440 C   0  0  0  0  0  0  0  0  0  0  0  0
   11.4240    2.4830   22.9750 C   0  0  0  0  0  0  0  0  0  0  0  0
   12.7610    2.6270   22.6900 C   0  0  0  0  0  0  0  0  0  0  0  0
   10.2770    3.8290   23.0500 S   0  0  0  0  0  0  0  0  0  0  0  0
   11.1190    5.1090   22.3580 N   0  0  0  0  0  0  0  0  0  0  0  0
    9.1420    3.5200   22.1930 O   0  0  0  0  0  0  0  0  0  0  0  0
   10.0310    4.1550   24.4490 O   0  0  0  0  0  0  0  0  0  0  0  0
  1  2  1  0
  3  2  1  0
  3  4  2  0
  3  5  2  0
  3  6  1  0
  6  7  1  0
  6  8  1  0
  7  9  1  0
  8 10  1  0
  9 11  1  0
 10 11  1  0
 11 12  1  0
 12 13  1  0
 13 14  2  0
 13 15  1  0
 14 16  1  0
 15 17  2  0
 16 17  1  0
 16 18  1  0
 18 19  2  0
 18 20  1  0
 19 21  1  0
 20 22  2  0
 21 23  2  0
 22 23  1  0
 22 24  1  0
 24 25  1  0
 24 26  2  0
 24 27  2  0
M  END
