NIM-UNI-310206f0-58-acrylamide
     RDKit          3D

 35 38  0  0  0  0  0  0  0  0999 V2000
    7.6980   -2.6830   18.6830 C   0  0  0  0  0  0  0  0  0  0  0  0
    6.2200   -2.8850   18.8840 C   0  0  0  0  0  0  0  0  0  0  0  0
    5.8120   -3.5220   20.1680 C   0  0  0  0  0  0  0  0  0  0  0  0
    5.2330   -4.5980   20.0960 O   0  0  0  0  0  0  0  0  0  0  0  0
    6.1040   -2.8410   21.3470 N   0  0  0  0  0  0  0  0  0  0  0  0
    5.8820   -3.4030   22.7000 C   0  0  0  0  0  0  0  0  0  0  0  0
    7.2610   -1.9750   21.4110 C   0  0  0  0  0  0  0  0  0  0  0  0
    6.8140   -2.7990   23.7770 C   0  0  0  0  0  0  0  0  0  0  0  0
    8.2970   -2.7730   21.8850 C   0  0  0  0  0  0  0  0  0  0  0  0
    8.2210   -2.8600   23.3360 N   0  0  0  0  0  0  0  0  0  0  0  0
    8.8920   -1.8900   23.8280 C   0  0  0  0  0  0  0  0  0  0  0  0
    8.5300   -1.0060   24.8290 C   0  0  0  0  0  0  0  0  0  0  0  0
   10.1200   -1.6580   23.3040 C   0  0  0  0  0  0  0  0  0  0  0  0
    7.3550   -1.0910   25.4700 F   0  0  0  0  0  0  0  0  0  0  0  0
    9.4010    0.0460   25.2060 C   0  0  0  0  0  0  0  0  0  0  0  0
   10.9130   -0.6540   23.6740 C   0  0  0  0  0  0  0  0  0  0  0  0
   10.6460   -2.4190   22.3480 F   0  0  0  0  0  0  0  0  0  0  0  0
   10.6730    0.2930   24.6120 C   0  0  0  0  0  0  0  0  0  0  0  0
   11.8440    0.7680   24.2720 N   0  0  0  0  0  0  0  0  0  0  0  0
   12.3230   -0.3540   23.6660 C   0  0  0  0  0  0  0  0  0  0  0  0
   11.6140    2.1010   23.2150 S   0  0  0  0  0  0  0  0  0  0  0  0
   12.0550   -0.5290   22.2530 C   0  0  0  0  0  0  0  0  0  0  0  0
   13.0100   -1.3550   24.2960 C   0  0  0  0  0  0  0  0  0  0  0  0
   11.4380    3.3400   23.9170 O   0  0  0  0  0  0  0  0  0  0  0  0
   10.5490    1.7190   22.3270 O   0  0  0  0  0  0  0  0  0  0  0  0
   13.1330    2.2130   22.3460 C   0  0  0  0  0  0  0  0  0  0  0  0
   12.5120   -1.7410   21.4950 C   0  0  0  0  0  0  0  0  0  0  0  0
   13.4660   -2.5230   23.6420 C   0  0  0  0  0  0  0  0  0  0  0  0
   13.4290   -1.5250   25.6310 C   0  0  0  0  0  0  0  0  0  0  0  0
   13.7070    3.5770   21.9490 C   0  0  0  0  0  0  0  0  0  0  0  0
   13.2460   -2.7940   22.1760 C   0  0  0  0  0  0  0  0  0  0  0  0
   14.1150   -3.3290   24.5320 N   0  0  0  0  0  0  0  0  0  0  0  0
   14.1390   -2.7870   25.8340 C   0  0  0  0  0  0  0  0  0  0  0  0
   12.6810    4.4130   21.4230 O   0  0  0  0  0  0  0  0  0  0  0  0
   12.7220    5.7260   21.9630 C   0  0  0  0  0  0  0  0  0  0  0  0
  1  2  1  0
  2  3  1  0
  3  4  2  0
  3  5  1  0
  5  6  1  0
  5  7  1  0
  6  8  1  0
  7  9  1  0
  8 10  1  0
  9 10  1  0
 10 11  1  0
 11 12  2  0
 11 13  1  0
 12 14  1  0
 12 15  1  0
 13 16  2  0
 13 17  1  0
 15 18  2  0
 16 18  1  0
 18 19  1  0
 19 20  1  0
 21 19  1  0
 20 22  2  0
 20 23  1  0
 21 24  2  0
 21 25  2  0
 21 26  1  0
 22 27  1  0
 23 28  2  0
 23 29  1  0
 26 30  1  0
 27 31  2  0
 28 31  1  0
 28 32  1  0
 29 33  2  0
 32 33  1  0
 30 34  1  0
 34 35  1  0
M  END
