NIM-NMI-8bb27a2b-11-acrylamide
     RDKit          3D

 29 30  0  0  0  0  0  0  0  0999 V2000
    7.8770   -3.6060   20.0080 C   0  0  0  0  0  0  0  0  0  0  0  0
    6.6960   -2.8170   19.5380 C   0  0  0  0  0  0  0  0  0  0  0  0
    6.0740   -2.3660   20.7930 C   0  0  0  0  0  0  0  0  0  0  0  0
    4.8880   -3.0240   21.1230 O   0  0  0  0  0  0  0  0  0  0  0  0
    6.9260   -1.3080   21.4200 N   0  0  0  0  0  0  0  0  0  0  0  0
    8.3410   -1.6030   22.0500 C   0  0  0  0  0  0  0  0  0  0  0  0
    6.4090   -0.0120   21.2790 C   0  0  1  0  0  0  0  0  0  0  0  0
    9.5230   -0.7690   22.1860 C   0  0  0  0  0  0  0  0  0  0  0  0
    8.8420   -2.8790   22.6840 N   0  0  0  0  0  0  0  0  0  0  0  0
    7.2430    0.9670   21.8730 C   0  0  0  0  0  0  0  0  0  0  0  0
    5.6950    0.3630   20.0560 C   0  0  0  0  0  0  0  0  0  0  0  0
   10.5520   -1.4710   22.7790 C   0  0  0  0  0  0  0  0  0  0  0  0
   10.0660   -2.7550   23.0680 O   0  0  0  0  0  0  0  0  0  0  0  0
    7.8710    0.5070   22.8150 O   0  0  0  0  0  0  0  0  0  0  0  0
    7.3170    2.3080   21.5080 N   0  0  0  0  0  0  0  0  0  0  0  0
    4.3190    0.6170   20.1910 C   0  0  0  0  0  0  0  0  0  0  0  0
    6.0570    0.5880   18.5190 C   0  0  0  0  0  0  0  0  0  0  0  0
   11.8990   -1.0740   23.0870 C   0  0  0  0  0  0  0  0  0  0  0  0
    8.3340    3.1020   21.9990 C   0  0  0  0  0  0  0  0  0  0  0  0
    5.1510    0.6350   19.2310 C   0  0  0  0  0  0  0  0  0  0  0  0
    7.2200    0.2860   18.8890 N   0  0  0  0  0  0  0  0  0  0  0  0
   12.8500   -1.5480   22.0020 C   0  0  0  0  0  0  0  0  0  0  0  0
   12.1810    0.4510   23.2820 C   0  0  0  0  0  0  0  0  0  0  0  0
   12.4120   -1.5690   24.2780 C   0  0  0  0  0  0  0  0  0  0  0  0
    8.1400    3.1940   23.3830 C   0  0  0  0  0  0  0  0  0  0  0  0
    6.4450    0.2820   19.7420 C   0  0  0  0  0  0  0  0  0  0  0  0
    7.0320    3.4630   23.8500 O   0  0  0  0  0  0  0  0  0  0  0  0
    9.1110    3.0030   24.1160 O   0  0  0  0  0  0  0  0  0  0  0  0
   10.3090    2.6300   23.4180 C   0  0  0  0  0  0  0  0  0  0  0  0
  1  2  1  0
  2  3  1  0
  3  4  2  0
  3  5  1  0
  5  6  1  0
  5  7  1  0
  6  8  1  0
  6  9  2  0
  7 10  1  6
  7 11  1  0
  8 12  2  0
  9 13  1  0
 12 13  1  0
 10 14  2  0
 10 15  1  0
 11 16  2  0
 11 17  1  0
 12 18  1  0
 15 19  1  0
 16 20  1  0
 17 21  2  0
 18 22  1  0
 18 23  1  0
 18 24  1  0
 19 25  1  0
 20 26  2  0
 21 26  1  0
 25 27  2  0
 25 28  1  0
 28 29  1  0
M  END
