NIM-UNI-363644a0-2-nitrile
     RDKit          3D

 41 45  0  0  0  0  0  0  0  0999 V2000
    6.8310   -3.7250   20.0670 C   0  0  0  0  0  0  0  0  0  0  0  0
    6.5470   -3.4220   18.8600 N   0  0  0  0  0  0  0  0  0  0  0  0
    6.6620   -2.8150   21.0970 N   0  0  0  0  0  0  0  0  0  0  0  0
    5.9550   -3.1170   22.3450 C   0  0  0  0  0  0  0  0  0  0  0  0
    7.1120   -1.4360   20.9820 C   0  0  2  0  0  0  0  0  0  0  0  0
    6.7950   -2.7540   23.5650 C   0  0  0  0  0  0  0  0  0  0  0  0
    7.5030   -0.9230   22.2310 C   0  0  0  0  0  0  0  0  0  0  0  0
    6.3430   -0.4220   20.1120 C   0  0  0  0  0  0  0  0  0  0  0  0
    7.9420   -1.9270   23.1100 N   0  0  0  0  0  0  0  0  0  0  0  0
    6.8860   -0.2020   18.8310 C   0  0  0  0  0  0  0  0  0  0  0  0
    5.1620    0.3740   20.3010 C   0  0  0  0  0  0  0  0  0  0  0  0
    8.8510   -1.3880   24.0520 C   0  0  0  0  0  0  0  0  0  0  0  0
    6.3930    0.5470   18.0600 N   0  0  0  0  0  0  0  0  0  0  0  0
    4.5850    1.2540   19.3920 C   0  0  0  0  0  0  0  0  0  0  0  0
    3.9280    0.8360   21.2230 C   0  0  0  0  0  0  0  0  0  0  0  0
   10.2260   -1.0270   23.5390 C   0  0  0  0  0  0  0  0  0  0  0  0
    5.2840    1.3110   18.2040 C   0  0  0  0  0  0  0  0  0  0  0  0
    4.2590    1.7410   22.2630 C   0  0  0  0  0  0  0  0  0  0  0  0
    9.8800    0.1270   24.4720 C   0  0  0  0  0  0  0  0  0  0  0  0
   11.2260   -1.5060   22.6780 C   0  0  0  0  0  0  0  0  0  0  0  0
    3.3070    2.3620   23.0430 N   0  0  0  0  0  0  0  0  0  0  0  0
   11.1020    0.8030   24.2180 C   0  0  0  0  0  0  0  0  0  0  0  0
   12.2890   -0.7250   22.5890 C   0  0  0  0  0  0  0  0  0  0  0  0
   11.2000   -2.6920   21.9200 C   0  0  0  0  0  0  0  0  0  0  0  0
    2.3360    1.6700   23.7590 C   0  0  0  0  0  0  0  0  0  0  0  0
   12.2850    0.4030   23.3110 C   0  0  0  0  0  0  0  0  0  0  0  0
   13.3070   -1.0600   21.7970 C   0  0  0  0  0  0  0  0  0  0  0  0
   12.2790   -3.0420   21.1070 C   0  0  0  0  0  0  0  0  0  0  0  0
    2.3190    0.3060   23.8980 O   0  0  0  0  0  0  0  0  0  0  0  0
    1.3720    2.5020   24.3210 N   0  0  0  0  0  0  0  0  0  0  0  0
   13.3510   -2.1960   21.0390 C   0  0  0  0  0  0  0  0  0  0  0  0
   12.0860   -4.5310   20.2620 S   0  0  0  0  0  0  0  0  0  0  0  0
    1.6840    3.5780   25.2640 C   0  0  0  0  0  0  0  0  0  0  0  0
   10.4870   -4.3960   20.0370 N   0  0  0  0  0  0  0  0  0  0  0  0
   12.6320   -4.4740   19.0320 O   0  0  0  0  0  0  0  0  0  0  0  0
   12.3440   -5.7750   20.8310 O   0  0  0  0  0  0  0  0  0  0  0  0
    0.8580    3.5700   26.3900 C   0  0  0  0  0  0  0  0  0  0  0  0
    1.5490    4.8950   24.5100 C   0  0  0  0  0  0  0  0  0  0  0  0
   -0.6030    3.7800   26.0490 C   0  0  0  0  0  0  0  0  0  0  0  0
    0.2700    5.0100   23.9280 C   0  0  0  0  0  0  0  0  0  0  0  0
   -0.7930    4.1010   24.5880 C   0  0  0  0  0  0  0  0  0  0  0  0
  1  2  2  3
  1  3  1  0
  3  4  1  0
  3  5  1  0
  4  6  1  0
  5  7  1  0
  5  8  1  1
  6  9  1  0
  7  9  1  0
  8 10  2  0
  8 11  1  0
  9 12  1  0
 10 13  1  0
 11 14  2  0
 11 15  1  0
 12 16  1  0
 13 17  2  0
 14 17  1  0
 15 18  1  0
 16 19  2  0
 16 20  1  0
 18 21  1  0
 19 22  1  0
 20 23  2  0
 20 24  1  0
 21 25  1  0
 22 26  2  0
 23 26  1  0
 23 27  1  0
 24 28  2  0
 25 29  2  0
 25 30  1  0
 27 31  2  0
 28 31  1  0
 28 32  1  0
 30 33  1  0
 32 34  1  0
 32 35  2  0
 32 36  2  0
 33 37  1  0
 33 38  1  0
 37 39  1  0
 38 40  1  0
 39 41  1  0
 40 41  1  0
M  END
