NIM-UNI-310206f0-44-acrylamide
     RDKit          3D

 30 33  0  0  0  0  0  0  0  0999 V2000
    7.3280   -2.8270   18.3100 C   0  0  0  0  0  0  0  0  0  0  0  0
    6.2670   -2.2600   19.2160 C   0  0  0  0  0  0  0  0  0  0  0  0
    5.8120   -3.1940   20.2830 C   0  0  0  0  0  0  0  0  0  0  0  0
    5.2380   -4.2740   20.0500 O   0  0  0  0  0  0  0  0  0  0  0  0
    6.1290   -2.6880   21.5070 N   0  0  0  0  0  0  0  0  0  0  0  0
    7.3620   -1.9460   21.6160 C   0  0  0  0  0  0  0  0  0  0  0  0
    5.8110   -3.2670   22.8240 C   0  0  0  0  0  0  0  0  0  0  0  0
    8.1650   -3.0890   22.2790 C   0  0  0  0  0  0  0  0  0  0  0  0
    6.6570   -2.6200   23.9760 C   0  0  0  0  0  0  0  0  0  0  0  0
    8.0960   -2.7520   23.6920 N   0  0  0  0  0  0  0  0  0  0  0  0
    8.9970   -1.7220   23.6850 C   0  0  0  0  0  0  0  0  0  0  0  0
    8.5090   -0.2510   23.4580 C   0  0  0  0  0  0  0  0  0  0  0  0
   10.3550   -1.9990   23.8290 C   0  0  0  0  0  0  0  0  0  0  0  0
    7.2410    0.1830   23.3190 F   0  0  0  0  0  0  0  0  0  0  0  0
    9.7300    0.6850   23.3680 C   0  0  0  0  0  0  0  0  0  0  0  0
   11.4370   -1.0250   23.7460 C   0  0  0  0  0  0  0  0  0  0  0  0
   10.8110   -3.2110   24.0320 F   0  0  0  0  0  0  0  0  0  0  0  0
   11.1940    0.2560   23.4970 C   0  0  0  0  0  0  0  0  0  0  0  0
   12.3330    1.0350   23.3550 N   0  0  0  0  0  0  0  0  0  0  0  0
   13.4640    0.2430   22.8270 C   0  0  0  0  0  0  0  0  0  0  0  0
   12.2030    2.4110   23.1550 C   0  0  0  0  0  0  0  0  0  0  0  0
   13.1520   -0.8170   21.9400 C   0  0  0  0  0  0  0  0  0  0  0  0
   13.2270    3.3130   22.4570 C   0  0  0  0  0  0  0  0  0  0  0  0
   11.1010    3.0420   23.6120 N   0  0  0  0  0  0  0  0  0  0  0  0
   13.0190   -2.1250   22.3690 C   0  0  0  0  0  0  0  0  0  0  0  0
   11.7620   -1.7700   21.9320 C   0  0  0  0  0  0  0  0  0  0  0  0
   12.9750    4.8020   22.3350 C   0  0  0  0  0  0  0  0  0  0  0  0
   10.9170    4.3640   23.4870 C   0  0  0  0  0  0  0  0  0  0  0  0
   11.7810    5.2510   22.8930 C   0  0  0  0  0  0  0  0  0  0  0  0
   11.4540    6.5790   22.8620 C   0  0  0  0  0  0  0  0  0  0  0  0
  1  2  1  0
  2  3  1  0
  3  4  2  0
  3  5  1  0
  5  6  1  0
  5  7  1  0
  6  8  1  0
  7  9  1  0
  8 10  1  0
  9 10  1  0
 10 11  1  0
 11 12  2  0
 11 13  1  0
 12 14  1  0
 12 15  1  0
 13 16  2  0
 13 17  1  0
 15 18  2  0
 16 18  1  0
 18 19  1  0
 19 20  1  0
 19 21  1  0
 20 22  1  0
 21 23  2  0
 21 24  1  0
 22 25  1  0
 22 26  1  0
 25 26  1  0
 23 27  1  0
 24 28  2  0
 27 29  2  0
 28 29  1  0
 29 30  1  0
M  END
