NIM-UNI-bb9030bf-1-acrylamide
     RDKit          3D

 22 23  0  0  0  0  0  0  0  0999 V2000
    7.2330   -3.0490   18.9250 C   0  0  0  0  0  0  0  0  0  0  0  0
    5.8110   -2.5370   19.1030 C   0  0  0  0  0  0  0  0  0  0  0  0
    5.6700   -2.4120   20.5760 C   0  0  0  0  0  0  0  0  0  0  0  0
    4.8040   -3.0350   21.2310 O   0  0  0  0  0  0  0  0  0  0  0  0
    6.6470   -1.5960   21.1250 N   0  0  0  0  0  0  0  0  0  0  0  0
    6.6500   -0.1190   21.1240 C   0  0  1  0  0  0  0  0  0  0  0  0
    8.0050    0.3320   21.5460 C   0  0  0  0  0  0  0  0  0  0  0  0
    6.1240    0.5900   19.9280 C   0  0  0  0  0  0  0  0  0  0  0  0
    8.5970    1.5030   20.9250 O   0  0  0  0  0  0  0  0  0  0  0  0
    8.4060   -0.5960   22.6090 N   0  0  0  0  0  0  0  0  0  0  0  0
    6.6530    0.4810   18.4830 C   0  0  0  0  0  0  0  0  0  0  0  0
    5.0310    1.4460   20.1670 C   0  0  0  0  0  0  0  0  0  0  0  0
    9.4450   -1.4390   22.2690 C   0  0  0  0  0  0  0  0  0  0  0  0
    5.9280    1.3160   17.5200 C   0  0  0  0  0  0  0  0  0  0  0  0
    4.3750    2.2130   19.2510 N   0  0  0  0  0  0  0  0  0  0  0  0
   10.6510   -0.8340   22.4700 C   0  0  0  0  0  0  0  0  0  0  0  0
    4.7930    2.1560   18.0180 C   0  0  0  0  0  0  0  0  0  0  0  0
   10.7030    0.6300   23.0020 C   0  0  0  0  0  0  0  0  0  0  0  0
   11.8780   -1.4650   22.2150 C   0  0  0  0  0  0  0  0  0  0  0  0
   12.0220    1.2760   23.1990 C   0  0  0  0  0  0  0  0  0  0  0  0
   13.0670   -0.7570   22.4410 C   0  0  0  0  0  0  0  0  0  0  0  0
   13.1420    0.5450   22.9050 C   0  0  0  0  0  0  0  0  0  0  0  0
  1  2  1  0
  2  3  1  0
  3  4  2  0
  3  5  1  0
  6  5  1  6
  6  7  1  0
  6  8  1  0
  7  9  2  0
  7 10  1  0
  8 11  2  0
  8 12  1  0
 10 13  1  0
 11 14  1  0
 12 15  2  0
 13 16  1  0
 14 17  2  0
 15 17  1  0
 16 18  2  0
 16 19  1  0
 18 20  1  0
 19 21  2  0
 20 22  2  0
 21 22  1  0
M  END
