NIM-UNI-310206f0-35-bromoalkyne
     RDKit          3D

 32 35  0  0  0  0  0  0  0  0999 V2000
    6.8990   -3.4450   19.8520 C   0  0  0  0  0  0  0  0  0  0  0  0
    6.1110   -2.8180   18.7210 C   0  0  0  0  0  0  0  0  0  0  0  0
    6.6200   -2.9380   21.1330 N   0  0  0  0  0  0  0  0  0  0  0  0
    5.7630   -1.7390   21.2820 C   0  0  0  0  0  0  0  0  0  0  0  0
    7.6470   -2.8950   22.1920 C   0  0  0  0  0  0  0  0  0  0  0  0
    6.7920   -0.5410   21.1420 C   0  0  0  0  0  0  0  0  0  0  0  0
    7.4020   -1.7240   23.1850 C   0  0  0  0  0  0  0  0  0  0  0  0
    7.4270   -0.4080   22.4940 N   0  0  0  0  0  0  0  0  0  0  0  0
    8.7250    0.3560   22.5430 C   0  0  0  0  0  0  0  0  0  0  0  0
    8.7130    1.9150   22.3630 C   0  0  0  0  0  0  0  0  0  0  0  0
    9.9100   -0.2910   22.7410 C   0  0  0  0  0  0  0  0  0  0  0  0
    7.5870    2.6280   22.1730 F   0  0  0  0  0  0  0  0  0  0  0  0
   10.1320    2.6830   22.4050 C   0  0  0  0  0  0  0  0  0  0  0  0
   11.2250    0.4300   22.7740 C   0  0  0  0  0  0  0  0  0  0  0  0
    9.9300   -1.6200   22.9090 F   0  0  0  0  0  0  0  0  0  0  0  0
   11.4120    1.7860   22.6180 C   0  0  0  0  0  0  0  0  0  0  0  0
   12.8460    2.1060   22.6680 N   0  0  0  0  0  0  0  0  0  0  0  0
   13.4280    0.7930   22.9200 C   0  0  0  0  0  0  0  0  0  0  0  0
   13.6910    3.3650   22.4020 C   0  0  0  0  0  0  0  0  0  0  0  0
   13.0950   -0.5890   22.2820 C   0  0  0  0  0  0  0  0  0  0  0  0
   13.1640    4.4770   22.4760 O   0  0  0  0  0  0  0  0  0  0  0  0
   15.1500    3.2680   22.0380 N   0  0  0  0  0  0  0  0  0  0  0  0
   13.2900   -1.7220   22.8920 C   0  0  0  0  0  0  0  0  0  0  0  0
   11.9600   -1.5810   23.0410 C   0  0  0  0  0  0  0  0  0  0  0  0
   16.3150    4.1550   22.3520 C   0  0  0  0  0  0  0  0  0  0  0  0
   16.5020    4.9290   23.6170 C   0  0  0  0  0  0  0  0  0  0  0  0
   17.4290    4.3690   21.4820 C   0  0  0  0  0  0  0  0  0  0  0  0
   17.7360    5.8370   23.9130 C   0  0  0  0  0  0  0  0  0  0  0  0
   18.5770    5.1810   21.7840 C   0  0  0  0  0  0  0  0  0  0  0  0
   18.7110    5.9230   23.0320 C   0  0  0  0  0  0  0  0  0  0  0  0
   19.7930    5.4790   21.0360 C   0  0  0  0  0  0  0  0  0  0  0  0
   20.8110    5.7640   20.5660 N   0  0  0  0  0  0  0  0  0  0  0  0
  1  2  2  3
  1  3  1  0
  3  4  1  0
  3  5  1  0
  4  6  1  0
  5  7  1  0
  6  8  1  0
  7  8  1  0
  8  9  1  0
  9 10  2  0
  9 11  1  0
 10 12  1  0
 10 13  1  0
 11 14  2  0
 11 15  1  0
 13 16  2  0
 14 16  1  0
 16 17  1  0
 17 18  1  0
 17 19  1  0
 18 20  1  0
 19 21  2  0
 19 22  1  0
 20 23  1  0
 20 24  1  0
 23 24  1  0
 22 25  1  0
 25 26  2  0
 25 27  1  0
 26 28  1  0
 27 29  2  0
 28 30  2  0
 29 30  1  0
 29 31  1  0
 31 32  3  0
M  END
