NIM-UNI-310206f0-8-chloroacetamide
     RDKit          3D

 22 24  0  0  0  0  0  0  0  0999 V2000
    7.0860   -2.9850   18.8400 C   0  0  0  0  0  0  0  0  0  0  0  0
    6.1440   -3.3770   19.9860 C   0  0  0  0  0  0  0  0  0  0  0  0
    5.3350   -4.2960   19.8070 O   0  0  0  0  0  0  0  0  0  0  0  0
    6.2480   -2.6830   21.2110 N   0  0  0  0  0  0  0  0  0  0  0  0
    7.3880   -1.9050   21.3820 C   0  0  0  0  0  0  0  0  0  0  0  0
    5.9570   -3.3060   22.5290 C   0  0  0  0  0  0  0  0  0  0  0  0
    8.3760   -2.6070   22.0350 C   0  0  0  0  0  0  0  0  0  0  0  0
    6.5840   -2.6760   23.6390 C   0  0  0  0  0  0  0  0  0  0  0  0
    8.0470   -2.6260   23.4590 N   0  0  0  0  0  0  0  0  0  0  0  0
    8.9340   -1.5370   23.8260 C   0  0  0  0  0  0  0  0  0  0  0  0
   10.2010   -1.9540   23.5380 C   0  0  0  0  0  0  0  0  0  0  0  0
    8.7470   -0.2430   24.3380 C   0  0  0  0  0  0  0  0  0  0  0  0
   10.4900   -3.1360   23.0770 F   0  0  0  0  0  0  0  0  0  0  0  0
   11.3410   -1.1070   23.6970 C   0  0  0  0  0  0  0  0  0  0  0  0
    9.9850    0.6770   24.5050 C   0  0  0  0  0  0  0  0  0  0  0  0
    7.5390    0.2520   24.6670 F   0  0  0  0  0  0  0  0  0  0  0  0
   11.2560    0.2050   24.1510 C   0  0  0  0  0  0  0  0  0  0  0  0
   12.5170    0.7700   24.1180 N   0  0  0  0  0  0  0  0  0  0  0  0
   12.9930    0.7290   22.8420 C   0  0  0  0  0  0  0  0  0  0  0  0
   13.1770   -0.6970   22.1990 C   0  0  0  0  0  0  0  0  0  0  0  0
   13.0450   -1.9620   22.9070 C   0  0  0  0  0  0  0  0  0  0  0  0
   12.0070   -1.8580   21.8870 C   0  0  0  0  0  0  0  0  0  0  0  0
  1  2  1  0
  2  3  2  0
  2  4  1  0
  4  5  1  0
  4  6  1  0
  5  7  1  0
  6  8  1  0
  7  9  1  0
  8  9  1  0
  9 10  1  0
 10 11  2  0
 10 12  1  0
 11 13  1  0
 11 14  1  0
 12 15  2  0
 12 16  1  0
 14 17  2  0
 15 17  1  0
 17 18  1  0
 18 19  1  0
 19 20  1  0
 20 21  1  0
 20 22  1  0
 21 22  1  0
M  END
