NIM-UNI-05f93fcc-12-acrylamide
     RDKit          3D

 27 30  0  0  0  0  0  0  0  0999 V2000
    8.3180   -3.7530   20.3270 C   0  0  0  0  0  0  0  0  0  0  0  0
    7.1540   -3.1880   20.5660 C   0  0  0  0  0  0  0  0  0  0  0  0
    6.1760   -4.3070   20.7210 C   0  0  0  0  0  0  0  0  0  0  0  0
    5.2080   -4.4380   19.9670 O   0  0  0  0  0  0  0  0  0  0  0  0
    6.4800   -5.1770   21.7410 N   0  0  0  0  0  0  0  0  0  0  0  0
    7.3130   -4.6790   22.8450 C   0  0  0  0  0  0  0  0  0  0  0  0
    5.6540   -6.3140   22.1110 C   0  0  0  0  0  0  0  0  0  0  0  0
    6.4200   -4.3020   24.0340 C   0  0  0  0  0  0  0  0  0  0  0  0
    4.7460   -5.9580   23.2940 C   0  0  0  0  0  0  0  0  0  0  0  0
    5.5220   -5.4050   24.4240 N   0  0  0  0  0  0  0  0  0  0  0  0
    4.8720   -5.4120   25.9910 S   0  0  0  0  0  0  0  0  0  0  0  0
    4.0220   -6.5720   26.0800 O   0  0  0  0  0  0  0  0  0  0  0  0
    5.9270   -5.1660   26.9330 O   0  0  0  0  0  0  0  0  0  0  0  0
    3.8520   -3.9780   26.0260 C   0  0  0  0  0  0  0  0  0  0  0  0
    4.2790   -2.6400   26.0110 C   0  0  0  0  0  0  0  0  0  0  0  0
    2.1620   -4.1430   26.0950 S   0  0  0  0  0  0  0  0  0  0  0  0
    3.2160   -1.7680   26.0670 C   0  0  0  0  0  0  0  0  0  0  0  0
    1.9610   -2.4390   26.1260 C   0  0  0  0  0  0  0  0  0  0  0  0
    0.6700   -1.8670   26.2110 C   0  0  0  0  0  0  0  0  0  0  0  0
   -0.4300   -2.5850   25.6420 C   0  0  0  0  0  0  0  0  0  0  0  0
    0.3200   -0.6050   26.8370 C   0  0  0  0  0  0  0  0  0  0  0  0
   -1.8690   -2.0730   25.6790 C   0  0  0  0  0  0  0  0  0  0  0  0
   -0.9630   -0.0770   26.9090 C   0  0  0  0  0  0  0  0  0  0  0  0
    1.1940    0.3670   27.5120 O   0  0  0  0  0  0  0  0  0  0  0  0
   -2.1860   -0.7630   26.3340 C   0  0  0  0  0  0  0  0  0  0  0  0
   -0.9630    1.1740   27.5870 N   0  0  0  0  0  0  0  0  0  0  0  0
    0.3360    1.3630   27.9080 C   0  0  0  0  0  0  0  0  0  0  0  0
  1  2  1  0
  2  3  1  0
  3  4  2  0
  3  5  1  0
  5  6  1  0
  5  7  1  0
  6  8  1  0
  7  9  1  0
  8 10  1  0
  9 10  1  0
 10 11  1  0
 11 12  2  0
 11 13  2  0
 11 14  1  0
 14 15  2  0
 14 16  1  0
 15 17  1  0
 16 18  1  0
 17 18  2  0
 18 19  1  0
 19 20  2  0
 19 21  1  0
 20 22  1  0
 21 23  2  0
 21 24  1  0
 22 25  2  0
 23 25  1  0
 23 26  1  0
 24 27  1  0
 26 27  2  0
M  END
