NIM-UNI-310206f0-2-chloroacetamide
     RDKit          3D

 23 25  0  0  0  0  0  0  0  0999 V2000
    7.1100   -3.0180   18.8850 C   0  0  0  0  0  0  0  0  0  0  0  0
    6.2220   -3.4840   20.0230 C   0  0  0  0  0  0  0  0  0  0  0  0
    5.2960   -4.2640   19.7850 O   0  0  0  0  0  0  0  0  0  0  0  0
    6.5080   -3.0590   21.3200 N   0  0  0  0  0  0  0  0  0  0  0  0
    6.5150   -1.7230   21.7220 C   0  0  0  0  0  0  0  0  0  0  0  0
    6.2210   -3.9730   22.4390 C   0  0  0  0  0  0  0  0  0  0  0  0
    6.1300   -1.5500   23.0430 C   0  0  0  0  0  0  0  0  0  0  0  0
    7.0540   -3.7680   23.5460 C   0  0  0  0  0  0  0  0  0  0  0  0
    7.0180   -2.3280   23.9250 N   0  0  0  0  0  0  0  0  0  0  0  0
    8.2330   -1.6070   23.7560 C   0  0  0  0  0  0  0  0  0  0  0  0
    8.0470   -0.2030   23.5980 C   0  0  0  0  0  0  0  0  0  0  0  0
    9.5010   -2.1490   23.7060 C   0  0  0  0  0  0  0  0  0  0  0  0
    6.8530    0.4140   23.6560 F   0  0  0  0  0  0  0  0  0  0  0  0
    9.2320    0.6420   23.3250 C   0  0  0  0  0  0  0  0  0  0  0  0
   10.5360   -1.4300   23.4740 C   0  0  0  0  0  0  0  0  0  0  0  0
    9.7960   -3.4280   23.8550 F   0  0  0  0  0  0  0  0  0  0  0  0
   10.4370   -0.1130   23.2630 C   0  0  0  0  0  0  0  0  0  0  0  0
   11.6650    0.2460   22.9410 C   0  0  0  0  0  0  0  0  0  0  0  0
   12.1610   -1.0660   22.3960 C   0  0  0  0  0  0  0  0  0  0  0  0
   12.5000    1.4610   22.9040 C   0  0  0  0  0  0  0  0  0  0  0  0
   13.4730   -1.1380   21.8450 C   0  0  0  0  0  0  0  0  0  0  0  0
   13.6810    0.7590   22.7210 C   0  0  0  0  0  0  0  0  0  0  0  0
   13.7720    0.0310   21.7100 O   0  0  0  0  0  0  0  0  0  0  0  0
  1  2  1  0
  2  3  2  0
  2  4  1  0
  4  5  1  0
  4  6  1  0
  5  7  1  0
  6  8  1  0
  7  9  1  0
  8  9  1  0
  9 10  1  0
 10 11  2  0
 10 12  1  0
 11 13  1  0
 11 14  1  0
 12 15  2  0
 12 16  1  0
 14 17  2  0
 15 17  1  0
 17 18  1  0
 18 19  2  0
 18 20  1  0
 19 21  1  0
 20 22  1  0
 21 23  1  0
 22 23  1  0
M  END
