NIM-UNI-bb9030bf-6-vinylsulfonamide
     RDKit          3D

 19 19  0  0  0  0  0  0  0  0999 V2000
    6.4710   -5.1290   20.1550 C   0  0  0  0  0  0  0  0  0  0  0  0
    6.7540   -3.6430   20.3440 C   0  0  0  0  0  0  0  0  0  0  0  0
    6.1200   -3.2020   21.9370 S   0  0  0  0  0  0  0  0  0  0  0  0
    4.6830   -3.4310   21.9320 O   0  0  0  0  0  0  0  0  0  0  0  0
    6.9440   -3.8740   22.9160 O   0  0  0  0  0  0  0  0  0  0  0  0
    6.4360   -1.5370   22.0530 N   0  0  0  0  0  0  0  0  0  0  0  0
    7.1760   -0.8770   20.9720 C   0  0  2  0  0  0  0  0  0  0  0  0
    8.3780   -0.1130   21.5530 C   0  0  0  0  0  0  0  0  0  0  0  0
    6.4780   -0.1230   20.0370 C   0  0  0  0  0  0  0  0  0  0  0  0
    8.5690    1.2260   21.0430 O   0  0  0  0  0  0  0  0  0  0  0  0
    9.2340   -0.8110   22.5420 N   0  0  0  0  0  0  0  0  0  0  0  0
    5.2150    0.6570   20.3040 C   0  0  0  0  0  0  0  0  0  0  0  0
    6.9510   -0.0520   18.7380 C   0  0  0  0  0  0  0  0  0  0  0  0
   10.5730   -0.5360   22.6100 C   0  0  0  0  0  0  0  0  0  0  0  0
    4.6240    1.3800   19.2730 C   0  0  0  0  0  0  0  0  0  0  0  0
    6.3750    0.6630   17.7120 N   0  0  0  0  0  0  0  0  0  0  0  0
   11.0830    0.0150   23.8860 C   0  0  0  0  0  0  0  0  0  0  0  0
    5.1720    1.3990   18.0060 C   0  0  0  0  0  0  0  0  0  0  0  0
   12.1610    0.8630   23.6830 C   0  0  0  0  0  0  0  0  0  0  0  0
  1  2  1  0
  2  3  1  0
  3  4  2  0
  3  5  2  0
  3  6  1  0
  7  6  1  1
  7  8  1  0
  7  9  1  0
  8 10  2  0
  8 11  1  0
  9 12  2  0
  9 13  1  0
 11 14  1  0
 12 15  1  0
 13 16  2  0
 14 17  1  0
 15 18  2  0
 16 18  1  0
 17 19  1  0
M  END
