NIM-NMI-8bb27a2b-21-chloroacetamide
     RDKit          3D

 32 34  0  0  0  0  0  0  0  0999 V2000
    7.6000   -4.1100   20.5180 C   0  0  0  0  0  0  0  0  0  0  0  0
    6.3050   -3.3810   20.4450 C   0  0  0  0  0  0  0  0  0  0  0  0
    5.4020   -3.8480   19.6850 O   0  0  0  0  0  0  0  0  0  0  0  0
    6.2350   -2.1970   21.2040 N   0  0  0  0  0  0  0  0  0  0  0  0
    6.0010   -2.2620   22.6450 C   0  0  0  0  0  0  0  0  0  0  0  0
    7.1360   -1.1200   20.6720 C   0  0  2  0  0  0  0  0  0  0  0  0
    6.8720   -3.1570   23.4250 C   0  0  0  0  0  0  0  0  0  0  0  0
    5.0110   -1.5270   23.3150 C   0  0  0  0  0  0  0  0  0  0  0  0
    8.2280   -0.4670   21.5720 C   0  0  0  0  0  0  0  0  0  0  0  0
    6.3990   -0.1920   19.7650 C   0  0  0  0  0  0  0  0  0  0  0  0
    6.6680   -3.2580   24.9240 C   0  0  0  0  0  0  0  0  0  0  0  0
    4.8480   -1.6380   24.6880 C   0  0  0  0  0  0  0  0  0  0  0  0
    8.4130    0.7500   21.5420 O   0  0  0  0  0  0  0  0  0  0  0  0
    9.0980   -1.2910   22.4260 N   0  0  0  0  0  0  0  0  0  0  0  0
    5.1730    0.3900   20.1340 C   0  0  0  0  0  0  0  0  0  0  0  0
    6.8950    0.1180   18.5380 C   0  0  0  0  0  0  0  0  0  0  0  0
    5.6660   -2.4890   25.4690 C   0  0  0  0  0  0  0  0  0  0  0  0
   10.3050   -0.7080   22.6770 C   0  0  0  0  0  0  0  0  0  0  0  0
    4.5310    1.2480   19.2360 C   0  0  0  0  0  0  0  0  0  0  0  0
    6.3080    0.9360   17.6550 N   0  0  0  0  0  0  0  0  0  0  0  0
    5.5600   -2.6500   26.8340 C   0  0  0  0  0  0  0  0  0  0  0  0
   10.1610    0.4360   23.4240 C   0  0  0  0  0  0  0  0  0  0  0  0
   11.5800   -1.1040   22.2820 C   0  0  0  0  0  0  0  0  0  0  0  0
    5.1340    1.4930   18.0080 C   0  0  0  0  0  0  0  0  0  0  0  0
    4.2960   -2.4400   27.2950 F   0  0  0  0  0  0  0  0  0  0  0  0
    5.9090   -3.8950   27.2620 F   0  0  0  0  0  0  0  0  0  0  0  0
    6.3520   -1.7800   27.5160 F   0  0  0  0  0  0  0  0  0  0  0  0
    8.9650    0.9630   23.9200 C   0  0  0  0  0  0  0  0  0  0  0  0
   11.4140    1.2070   23.7280 C   0  0  0  0  0  0  0  0  0  0  0  0
   12.7330   -0.3820   22.5700 C   0  0  0  0  0  0  0  0  0  0  0  0
   11.9220   -2.5030   21.3870 Cl  0  0  0  0  0  0  0  0  0  0  0  0
   12.8230    0.7930   23.2640 C   0  0  0  0  0  0  0  0  0  0  0  0
  1  2  1  0
  2  3  2  0
  2  4  1  0
  4  5  1  0
  4  6  1  0
  5  7  2  0
  5  8  1  0
  6  9  1  1
  6 10  1  0
  7 11  1  0
  8 12  2  0
  9 13  2  0
  9 14  1  0
 10 15  2  0
 10 16  1  0
 11 17  2  0
 12 17  1  0
 14 18  1  0
 15 19  1  0
 16 20  2  0
 17 21  1  0
 18 22  2  0
 18 23  1  0
 19 24  2  0
 20 24  1  0
 21 25  1  0
 21 26  1  0
 21 27  1  0
 22 28  1  0
 22 29  1  0
 23 30  2  0
 23 31  1  0
 29 32  2  0
 30 32  1  0
M  END
