NIM-UNI-310206f0-31-acrylamide
     RDKit          3D

 35 39  0  0  0  0  0  0  0  0999 V2000
    7.0730   -2.9700   18.8870 C   0  0  0  0  0  0  0  0  0  0  0  0
    5.8370   -2.6590   19.7540 C   0  0  0  0  0  0  0  0  0  0  0  0
    5.5380   -3.8010   20.7130 C   0  0  0  0  0  0  0  0  0  0  0  0
    5.2020   -4.9020   20.2530 O   0  0  0  0  0  0  0  0  0  0  0  0
    5.7040   -3.5830   22.0690 N   0  0  0  0  0  0  0  0  0  0  0  0
    7.0100   -3.8420   22.7100 C   0  0  0  0  0  0  0  0  0  0  0  0
    4.6540   -3.1620   22.9960 C   0  0  0  0  0  0  0  0  0  0  0  0
    6.8970   -3.3370   24.1920 C   0  0  0  0  0  0  0  0  0  0  0  0
    5.0220   -1.8330   23.6620 C   0  0  0  0  0  0  0  0  0  0  0  0
    6.3910   -1.9340   24.1830 N   0  0  0  0  0  0  0  0  0  0  0  0
    7.3160   -0.8850   24.0180 C   0  0  0  0  0  0  0  0  0  0  0  0
    8.8360   -1.2270   23.9630 C   0  0  0  0  0  0  0  0  0  0  0  0
    6.8950    0.4710   23.9030 C   0  0  0  0  0  0  0  0  0  0  0  0
    9.3810   -2.4550   24.0620 F   0  0  0  0  0  0  0  0  0  0  0  0
    9.6890    0.0600   23.7720 C   0  0  0  0  0  0  0  0  0  0  0  0
    7.8440    1.6720   23.7130 C   0  0  0  0  0  0  0  0  0  0  0  0
    5.5840    0.7690   23.9570 F   0  0  0  0  0  0  0  0  0  0  0  0
    9.2220    1.5330   23.6380 C   0  0  0  0  0  0  0  0  0  0  0  0
   10.1230    2.7040   23.4500 N   0  0  0  0  0  0  0  0  0  0  0  0
    9.4900    4.0370   23.5420 C   0  0  0  0  0  0  0  0  0  0  0  0
   11.4420    2.6580   22.8760 C   0  0  0  0  0  0  0  0  0  0  0  0
    9.7510    4.5540   24.8070 C   0  0  0  0  0  0  0  0  0  0  0  0
   11.9180    3.5720   22.2050 O   0  0  0  0  0  0  0  0  0  0  0  0
   12.4140    1.4660   23.0430 C   0  0  0  0  0  0  0  0  0  0  0  0
   10.8190    5.3980   25.0430 C   0  0  0  0  0  0  0  0  0  0  0  0
    9.7060    6.2020   25.1580 C   0  0  0  0  0  0  0  0  0  0  0  0
   11.7620    0.1650   22.6880 C   0  0  0  0  0  0  0  0  0  0  0  0
   12.4290   -1.0000   22.8400 C   0  0  0  0  0  0  0  0  0  0  0  0
   10.4860   -0.1200   22.1850 C   0  0  0  0  0  0  0  0  0  0  0  0
   11.6860   -2.0630   22.4750 N   0  0  0  0  0  0  0  0  0  0  0  0
   10.4620   -1.5430   22.0630 C   0  0  0  0  0  0  0  0  0  0  0  0
    9.2440    0.7290   21.7830 C   0  0  0  0  0  0  0  0  0  0  0  0
    9.2480   -2.1790   21.5640 C   0  0  0  0  0  0  0  0  0  0  0  0
    7.9880    0.0270   21.2610 C   0  0  0  0  0  0  0  0  0  0  0  0
    8.0730   -1.4800   21.1820 C   0  0  0  0  0  0  0  0  0  0  0  0
  1  2  1  0
  2  3  1  0
  3  4  2  0
  3  5  1  0
  5  6  1  0
  5  7  1  0
  6  8  1  0
  7  9  1  0
  8 10  1  0
  9 10  1  0
 10 11  1  0
 11 12  2  0
 11 13  1  0
 12 14  1  0
 12 15  1  0
 13 16  2  0
 13 17  1  0
 15 18  2  0
 16 18  1  0
 18 19  1  0
 19 20  1  0
 19 21  1  0
 20 22  1  0
 21 23  2  0
 21 24  1  0
 22 25  1  0
 22 26  1  0
 25 26  1  0
 24 27  1  0
 27 28  2  0
 27 29  1  0
 28 30  1  0
 29 31  2  0
 30 31  1  0
 29 32  1  0
 31 33  1  0
 32 34  2  0
 33 35  2  0
 34 35  1  0
M  END
