NIM-UNI-310206f0-30-vinylsulfonamide
     RDKit          3D

 40 44  0  0  0  0  0  0  0  0999 V2000
    7.5480   -3.8200   20.1160 C   0  0  0  0  0  0  0  0  0  0  0  0
    7.1410   -2.8080   19.0330 C   0  0  0  0  0  0  0  0  0  0  0  0
    5.4050   -2.4870   19.1590 S   0  0  0  0  0  0  0  0  0  0  0  0
    4.7100   -3.7570   19.3140 O   0  0  0  0  0  0  0  0  0  0  0  0
    5.1120   -1.5000   18.1510 O   0  0  0  0  0  0  0  0  0  0  0  0
    5.2790   -1.7860   20.6120 N   0  0  0  0  0  0  0  0  0  0  0  0
    5.1920   -0.3310   20.7790 C   0  0  0  0  0  0  0  0  0  0  0  0
    6.1980   -2.4580   21.4740 C   0  0  0  0  0  0  0  0  0  0  0  0
    5.2480   -0.1870   22.3400 C   0  0  0  0  0  0  0  0  0  0  0  0
    7.2770   -1.5060   21.8690 C   0  0  0  0  0  0  0  0  0  0  0  0
    6.6370   -0.5120   22.7410 N   0  0  0  0  0  0  0  0  0  0  0  0
    7.5290    0.6050   22.9750 C   0  0  0  0  0  0  0  0  0  0  0  0
    7.0060    1.6380   23.9880 C   0  0  0  0  0  0  0  0  0  0  0  0
    8.7340    0.6990   22.3320 C   0  0  0  0  0  0  0  0  0  0  0  0
    5.8260    1.5730   24.6330 F   0  0  0  0  0  0  0  0  0  0  0  0
    7.9890    2.8270   24.2290 C   0  0  0  0  0  0  0  0  0  0  0  0
    9.5730    1.7200   22.5470 C   0  0  0  0  0  0  0  0  0  0  0  0
    9.1310   -0.2340   21.4640 F   0  0  0  0  0  0  0  0  0  0  0  0
    9.3070    2.7390   23.4060 C   0  0  0  0  0  0  0  0  0  0  0  0
   10.3480    3.6890   23.4660 N   0  0  0  0  0  0  0  0  0  0  0  0
   11.5480    3.2840   22.7280 C   0  0  0  0  0  0  0  0  0  0  0  0
   10.3600    4.6290   24.5630 C   0  0  0  0  0  0  0  0  0  0  0  0
   11.8720    3.7960   21.6590 O   0  0  0  0  0  0  0  0  0  0  0  0
   12.3400    2.3030   23.3260 N   0  0  0  0  0  0  0  0  0  0  0  0
    9.6080    4.3130   25.7160 C   0  0  0  0  0  0  0  0  0  0  0  0
   11.1080    5.8450   24.4800 C   0  0  0  0  0  0  0  0  0  0  0  0
   12.1150    0.9900   23.1480 C   0  0  0  0  0  0  0  0  0  0  0  0
    9.6090    5.2620   26.8530 C   0  0  0  0  0  0  0  0  0  0  0  0
   11.1360    6.7850   25.5420 C   0  0  0  0  0  0  0  0  0  0  0  0
   11.9830    6.4810   23.4410 C   0  0  0  0  0  0  0  0  0  0  0  0
   13.1410    0.2100   22.6860 C   0  0  0  0  0  0  0  0  0  0  0  0
   10.8960    0.2580   23.4050 C   0  0  0  0  0  0  0  0  0  0  0  0
   10.3500    6.4630   26.7750 C   0  0  0  0  0  0  0  0  0  0  0  0
   11.9350    7.9110   25.2380 N   0  0  0  0  0  0  0  0  0  0  0  0
   12.4660    7.7810   23.9890 C   0  0  0  0  0  0  0  0  0  0  0  0
   13.0250   -1.2250   22.4630 C   0  0  0  0  0  0  0  0  0  0  0  0
   10.7530   -1.1510   23.2060 C   0  0  0  0  0  0  0  0  0  0  0  0
   11.7870   -1.9290   22.7350 C   0  0  0  0  0  0  0  0  0  0  0  0
    9.4560   -1.9250   23.4910 C   0  0  0  0  0  0  0  0  0  0  0  0
    9.6750   -3.1700   23.9440 N   0  0  0  0  0  0  0  0  0  0  0  0
  1  2  1  0
  3  2  1  0
  3  4  2  0
  3  5  2  0
  3  6  1  0
  6  7  1  0
  6  8  1  0
  7  9  1  0
  8 10  1  0
  9 11  1  0
 10 11  1  0
 11 12  1  0
 12 13  2  0
 12 14  1  0
 13 15  1  0
 13 16  1  0
 14 17  2  0
 14 18  1  0
 16 19  2  0
 17 19  1  0
 19 20  1  0
 20 21  1  0
 20 22  1  0
 21 23  2  0
 21 24  1  0
 22 25  2  0
 22 26  1  0
 24 27  1  0
 25 28  1  0
 26 29  2  0
 26 30  1  0
 27 31  2  0
 27 32  1  0
 28 33  2  0
 29 33  1  0
 29 34  1  0
 30 35  2  0
 34 35  1  0
 31 36  1  0
 32 37  2  0
 36 38  2  0
 37 38  1  0
 37 39  1  0
 39 40  3  0
M  END
