NIM-NMI-8bb27a2b-11-vinylsulfonamide
     RDKit          3D

 30 31  0  0  0  0  0  0  0  0999 V2000
    6.4880   -4.8540   20.2870 C   0  0  0  0  0  0  0  0  0  0  0  0
    7.3240   -3.8270   20.9770 C   0  0  0  0  0  0  0  0  0  0  0  0
    6.3230   -2.4530   20.6580 S   0  0  0  0  0  0  0  0  0  0  0  0
    4.9110   -3.0480   21.0430 O   0  0  0  0  0  0  0  0  0  0  0  0
    6.5580   -2.1260   19.2720 O   0  0  0  0  0  0  0  0  0  0  0  0
    7.1670   -1.2590   21.6040 N   0  0  0  0  0  0  0  0  0  0  0  0
    8.3980   -1.4930   22.4740 C   0  0  0  0  0  0  0  0  0  0  0  0
    6.6950    0.0230   21.5830 C   0  0  2  0  0  0  0  0  0  0  0  0
    9.7070   -0.8020   22.3690 C   0  0  0  0  0  0  0  0  0  0  0  0
    8.6150   -2.3070   23.5020 N   0  0  0  0  0  0  0  0  0  0  0  0
    5.7510    0.5660   22.6770 C   0  0  0  0  0  0  0  0  0  0  0  0
    6.2970    0.3480   20.2920 C   0  0  0  0  0  0  0  0  0  0  0  0
   10.5350   -1.2630   23.3410 C   0  0  0  0  0  0  0  0  0  0  0  0
    9.8360   -2.1350   23.9550 O   0  0  0  0  0  0  0  0  0  0  0  0
    5.2350    1.9000   22.4520 O   0  0  0  0  0  0  0  0  0  0  0  0
    5.5640   -0.3120   23.7200 N   0  0  0  0  0  0  0  0  0  0  0  0
    5.1270    0.9510   20.1020 C   0  0  0  0  0  0  0  0  0  0  0  0
    7.1530    0.0370   19.2780 C   0  0  0  0  0  0  0  0  0  0  0  0
   11.8580   -0.9370   23.6710 C   0  0  0  0  0  0  0  0  0  0  0  0
    4.6180    0.2050   24.5590 C   0  0  0  0  0  0  0  0  0  0  0  0
    4.6860    1.3170   18.9100 C   0  0  0  0  0  0  0  0  0  0  0  0
    6.3830    0.5670   18.0910 N   0  0  0  0  0  0  0  0  0  0  0  0
   12.7490   -1.8290   23.0630 C   0  0  0  0  0  0  0  0  0  0  0  0
   12.3200    0.4390   23.1870 C   0  0  0  0  0  0  0  0  0  0  0  0
   12.2470   -0.9130   24.9870 C   0  0  0  0  0  0  0  0  0  0  0  0
    4.2090   -0.9710   25.4130 C   0  0  0  0  0  0  0  0  0  0  0  0
    5.2570    1.1880   17.6440 C   0  0  0  0  0  0  0  0  0  0  0  0
    4.5730   -0.8550   26.8030 O   0  0  0  0  0  0  0  0  0  0  0  0
    3.5590   -1.9770   24.7590 O   0  0  0  0  0  0  0  0  0  0  0  0
    4.2610   -2.5070   23.6310 C   0  0  0  0  0  0  0  0  0  0  0  0
  1  2  1  0
  2  3  1  0
  3  4  2  0
  3  5  2  0
  3  6  1  0
  6  7  1  0
  6  8  1  0
  7  9  1  0
  7 10  2  0
  8 11  1  1
  8 12  1  0
  9 13  2  0
 10 14  1  0
 13 14  1  0
 11 15  2  0
 11 16  1  0
 12 17  2  0
 12 18  1  0
 13 19  1  0
 16 20  1  0
 17 21  1  0
 18 22  2  0
 19 23  1  0
 19 24  1  0
 19 25  1  0
 20 26  1  0
 21 27  2  0
 22 27  1  0
 26 28  2  0
 26 29  1  0
 29 30  1  0
M  END
