NIM-UNI-bb9030bf-12-acrylamide
     RDKit          3D

 22 23  0  0  0  0  0  0  0  0999 V2000
    6.0600   -4.7530   20.1030 C   0  0  0  0  0  0  0  0  0  0  0  0
    6.5300   -3.3190   20.1490 C   0  0  0  0  0  0  0  0  0  0  0  0
    5.8290   -2.7870   21.3610 C   0  0  0  0  0  0  0  0  0  0  0  0
    4.7080   -3.1960   21.6760 O   0  0  0  0  0  0  0  0  0  0  0  0
    6.5000   -1.8760   22.1440 N   0  0  0  0  0  0  0  0  0  0  0  0
    6.8900   -0.5140   21.7380 C   0  0  1  0  0  0  0  0  0  0  0  0
    8.3790   -0.4110   21.8360 C   0  0  0  0  0  0  0  0  0  0  0  0
    6.3310    0.0390   20.4320 C   0  0  0  0  0  0  0  0  0  0  0  0
    8.8890    0.8030   21.2490 O   0  0  0  0  0  0  0  0  0  0  0  0
    9.0530   -1.5560   22.5560 N   0  0  0  0  0  0  0  0  0  0  0  0
    5.0300    0.8620   20.4450 C   0  0  0  0  0  0  0  0  0  0  0  0
    6.9280   -0.1290   19.1590 C   0  0  0  0  0  0  0  0  0  0  0  0
   10.2190   -1.1950   23.2360 C   0  0  0  0  0  0  0  0  0  0  0  0
    4.5240    1.4180   19.1090 C   0  0  0  0  0  0  0  0  0  0  0  0
    6.4600    0.3800   17.9620 N   0  0  0  0  0  0  0  0  0  0  0  0
   10.9860   -0.4270   22.4430 C   0  0  1  0  0  0  0  0  0  0  0  0
    5.3240    1.1210   17.9120 C   0  0  0  0  0  0  0  0  0  0  0  0
   10.7400    1.0430   22.8990 C   0  0  0  0  0  0  0  0  0  0  0  0
   12.3510   -0.6770   22.5710 C   0  0  0  0  0  0  0  0  0  0  0  0
   12.0320    1.3940   23.5400 C   0  0  0  0  0  0  0  0  0  0  0  0
   12.9160    0.3270   23.3320 C   0  0  0  0  0  0  0  0  0  0  0  0
   13.1540   -1.7250   22.0490 O   0  0  0  0  0  0  0  0  0  0  0  0
  1  2  1  0
  2  3  1  0
  3  4  2  0
  3  5  1  0
  6  5  1  6
  6  7  1  0
  6  8  1  0
  7  9  2  0
  7 10  1  0
  8 11  2  0
  8 12  1  0
 10 13  1  0
 11 14  1  0
 12 15  2  0
 16 13  1  1
 14 17  2  0
 15 17  1  0
 16 18  1  0
 16 19  1  0
 18 20  1  0
 19 21  1  0
 20 21  1  0
 19 22  2  0
M  END
