NIM-UNI-310206f0-25-acrylamide
     RDKit          3D

 29 31  0  0  0  0  0  0  0  0999 V2000
    7.6140   -3.9440   20.5880 C   0  0  0  0  0  0  0  0  0  0  0  0
    6.2910   -3.2200   20.5040 C   0  0  0  0  0  0  0  0  0  0  0  0
    5.2470   -4.1870   20.9740 C   0  0  0  0  0  0  0  0  0  0  0  0
    5.1350   -4.4440   19.7870 O   0  0  0  0  0  0  0  0  0  0  0  0
    5.5860   -3.6920   22.1840 N   0  0  0  0  0  0  0  0  0  0  0  0
    5.0160   -4.4760   23.2980 C   0  0  0  0  0  0  0  0  0  0  0  0
    5.4890   -2.2590   22.4570 C   0  0  0  0  0  0  0  0  0  0  0  0
    5.9150   -4.2100   24.5470 C   0  0  0  0  0  0  0  0  0  0  0  0
    4.9950   -2.0530   23.8860 C   0  0  0  0  0  0  0  0  0  0  0  0
    5.8500   -2.7540   24.8550 N   0  0  0  0  0  0  0  0  0  0  0  0
    7.0770   -2.1370   24.8220 C   0  0  0  0  0  0  0  0  0  0  0  0
    8.1070   -2.7930   23.8610 C   0  0  0  0  0  0  0  0  0  0  0  0
    7.3870   -0.9850   25.5970 C   0  0  0  0  0  0  0  0  0  0  0  0
    7.9190   -3.8770   23.0940 F   0  0  0  0  0  0  0  0  0  0  0  0
    9.4140   -2.0260   23.8940 C   0  0  0  0  0  0  0  0  0  0  0  0
    8.7420   -0.2930   25.5540 C   0  0  0  0  0  0  0  0  0  0  0  0
    6.4710   -0.4460   26.4210 F   0  0  0  0  0  0  0  0  0  0  0  0
    9.7080   -0.7980   24.7330 C   0  0  0  0  0  0  0  0  0  0  0  0
   10.9940   -0.2190   24.6270 N   0  0  0  0  0  0  0  0  0  0  0  0
   12.1190   -1.2080   24.5830 C   0  0  0  0  0  0  0  0  0  0  0  0
   11.0240    1.0230   23.4550 S   0  0  0  0  0  0  0  0  0  0  0  0
   11.9650   -2.1470   23.5300 C   0  0  0  0  0  0  0  0  0  0  0  0
   10.0080    0.7650   22.4480 O   0  0  0  0  0  0  0  0  0  0  0  0
   11.1670    2.3200   24.0630 O   0  0  0  0  0  0  0  0  0  0  0  0
   12.5630    0.4590   22.8410 C   0  0  0  0  0  0  0  0  0  0  0  0
   11.4500   -1.8770   22.2670 C   0  0  0  0  0  0  0  0  0  0  0  0
   12.8060   -2.0670   22.0600 C   0  0  0  0  0  0  0  0  0  0  0  0
   13.4420    1.6290   22.4830 C   0  0  0  0  0  0  0  0  0  0  0  0
   13.0910   -0.5370   23.8500 C   0  0  0  0  0  0  0  0  0  0  0  0
  1  2  1  0
  2  3  1  0
  3  4  2  0
  3  5  1  0
  5  6  1  0
  5  7  1  0
  6  8  1  0
  7  9  1  0
  8 10  1  0
  9 10  1  0
 10 11  1  0
 11 12  2  0
 11 13  1  0
 12 14  1  0
 12 15  1  0
 13 16  2  0
 13 17  1  0
 15 18  2  0
 16 18  1  0
 18 19  1  0
 19 20  1  0
 21 19  1  0
 20 22  1  0
 21 23  2  0
 21 24  2  0
 21 25  1  0
 22 26  1  0
 22 27  1  0
 26 27  1  0
 25 28  1  0
 25 29  1  0
M  END
