NIM-UNI-05f93fcc-12-chloroacetamide
     RDKit          3D

 26 29  0  0  0  0  0  0  0  0999 V2000
    7.0790   -3.4580   20.0400 C   0  0  0  0  0  0  0  0  0  0  0  0
    6.3970   -4.4760   20.5680 C   0  0  0  0  0  0  0  0  0  0  0  0
    5.4000   -4.8700   19.9800 O   0  0  0  0  0  0  0  0  0  0  0  0
    6.7620   -5.1200   21.7490 N   0  0  0  0  0  0  0  0  0  0  0  0
    5.9660   -6.3100   22.0890 C   0  0  0  0  0  0  0  0  0  0  0  0
    7.3450   -4.3770   22.8920 C   0  0  0  0  0  0  0  0  0  0  0  0
    4.9850   -5.9930   23.2220 C   0  0  0  0  0  0  0  0  0  0  0  0
    6.3830   -4.1060   23.9080 C   0  0  0  0  0  0  0  0  0  0  0  0
    5.6800   -5.3360   24.3330 N   0  0  0  0  0  0  0  0  0  0  0  0
    4.9670   -5.3900   25.8790 S   0  0  0  0  0  0  0  0  0  0  0  0
    5.9860   -5.1670   26.8670 O   0  0  0  0  0  0  0  0  0  0  0  0
    4.1020   -6.5450   25.9170 O   0  0  0  0  0  0  0  0  0  0  0  0
    3.9040   -3.9770   25.9380 C   0  0  0  0  0  0  0  0  0  0  0  0
    4.3110   -2.5380   25.9900 C   0  0  0  0  0  0  0  0  0  0  0  0
    2.2090   -4.1150   25.9480 S   0  0  0  0  0  0  0  0  0  0  0  0
    3.1980   -1.7060   26.0400 C   0  0  0  0  0  0  0  0  0  0  0  0
    1.9900   -2.4040   26.0300 C   0  0  0  0  0  0  0  0  0  0  0  0
    0.6940   -1.8610   26.0830 C   0  0  0  0  0  0  0  0  0  0  0  0
   -0.4090   -2.5890   25.4750 C   0  0  0  0  0  0  0  0  0  0  0  0
    0.4150   -0.6270   26.7170 C   0  0  0  0  0  0  0  0  0  0  0  0
   -1.7460   -2.0970   25.4970 C   0  0  0  0  0  0  0  0  0  0  0  0
   -1.0160   -0.1190   26.7290 C   0  0  0  0  0  0  0  0  0  0  0  0
    1.1400    0.2190   27.3230 O   0  0  0  0  0  0  0  0  0  0  0  0
   -2.0760   -0.7690   26.1690 C   0  0  0  0  0  0  0  0  0  0  0  0
   -1.0250    1.1360   27.4230 N   0  0  0  0  0  0  0  0  0  0  0  0
    0.2990    1.2550   27.7390 C   0  0  0  0  0  0  0  0  0  0  0  0
  1  2  1  0
  2  3  2  0
  2  4  1  0
  4  5  1  0
  4  6  1  0
  5  7  1  0
  6  8  1  0
  7  9  1  0
  8  9  1  0
  9 10  1  0
 10 11  2  0
 10 12  2  0
 10 13  1  0
 13 14  2  0
 13 15  1  0
 14 16  1  0
 15 17  1  0
 16 17  2  0
 17 18  1  0
 18 19  2  0
 18 20  1  0
 19 21  1  0
 20 22  2  0
 20 23  1  0
 21 24  2  0
 22 24  1  0
 22 25  1  0
 23 26  1  0
 25 26  2  0
M  END
