NIM-UNI-310206f0-43-acrylamide
     RDKit          3D

 33 36  0  0  0  0  0  0  0  0999 V2000
    7.2110   -3.2800   19.3690 C   0  0  0  0  0  0  0  0  0  0  0  0
    6.6660   -3.8520   20.6450 C   0  0  0  0  0  0  0  0  0  0  0  0
    5.2610   -3.4410   20.8350 C   0  0  0  0  0  0  0  0  0  0  0  0
    5.0620   -3.9710   19.7320 O   0  0  0  0  0  0  0  0  0  0  0  0
    5.9110   -3.0200   21.9520 N   0  0  0  0  0  0  0  0  0  0  0  0
    6.2620   -3.9750   23.0190 C   0  0  0  0  0  0  0  0  0  0  0  0
    5.8030   -1.6640   22.4720 C   0  0  0  0  0  0  0  0  0  0  0  0
    7.5840   -3.3840   23.6190 C   0  0  0  0  0  0  0  0  0  0  0  0
    5.8740   -1.7190   24.0030 C   0  0  0  0  0  0  0  0  0  0  0  0
    7.2240   -2.1550   24.3870 N   0  0  0  0  0  0  0  0  0  0  0  0
    8.1560   -1.1250   24.3060 C   0  0  0  0  0  0  0  0  0  0  0  0
    7.5480    0.3200   24.2990 C   0  0  0  0  0  0  0  0  0  0  0  0
    9.5500   -1.3060   24.2230 C   0  0  0  0  0  0  0  0  0  0  0  0
    6.2440    0.6400   24.3820 F   0  0  0  0  0  0  0  0  0  0  0  0
    8.6450    1.3940   24.1690 C   0  0  0  0  0  0  0  0  0  0  0  0
   10.5270   -0.1650   24.1090 C   0  0  0  0  0  0  0  0  0  0  0  0
   10.1040   -2.5260   24.2280 F   0  0  0  0  0  0  0  0  0  0  0  0
   10.1470    1.1600   24.0610 C   0  0  0  0  0  0  0  0  0  0  0  0
   11.1310    2.1890   23.9000 N   0  0  0  0  0  0  0  0  0  0  0  0
   12.2410    1.6960   23.1040 C   0  0  0  0  0  0  0  0  0  0  0  0
   10.7180    3.5260   23.5450 C   0  0  0  0  0  0  0  0  0  0  0  0
   13.2400    2.3130   22.8140 O   0  0  0  0  0  0  0  0  0  0  0  0
   12.0890    0.3960   22.6310 C   0  0  0  0  0  0  0  0  0  0  0  0
    9.4160    3.9090   23.6400 N   0  0  0  0  0  0  0  0  0  0  0  0
   11.6980    4.3580   23.1230 N   0  0  0  0  0  0  0  0  0  0  0  0
   10.7440   -0.1640   22.3160 C   0  0  0  0  0  0  0  0  0  0  0  0
   13.1740   -0.4080   22.4300 C   0  0  0  0  0  0  0  0  0  0  0  0
    9.0570    5.1800   23.3030 C   0  0  0  0  0  0  0  0  0  0  0  0
   11.3880    5.6160   22.7790 C   0  0  0  0  0  0  0  0  0  0  0  0
   10.5880   -1.5480   21.8020 C   0  0  0  0  0  0  0  0  0  0  0  0
   13.1320   -1.6730   21.9590 N   0  0  0  0  0  0  0  0  0  0  0  0
    9.9540    6.1350   22.8550 C   0  0  0  0  0  0  0  0  0  0  0  0
   11.9380   -2.2500   21.6480 C   0  0  0  0  0  0  0  0  0  0  0  0
  1  2  1  0
  2  3  1  0
  3  4  2  0
  3  5  1  0
  5  6  1  0
  5  7  1  0
  6  8  1  0
  7  9  1  0
  8 10  1  0
  9 10  1  0
 10 11  1  0
 11 12  2  0
 11 13  1  0
 12 14  1  0
 12 15  1  0
 13 16  2  0
 13 17  1  0
 15 18  2  0
 16 18  1  0
 18 19  1  0
 19 20  1  0
 19 21  1  0
 20 22  2  0
 20 23  1  0
 21 24  2  0
 21 25  1  0
 23 26  2  0
 23 27  1  0
 24 28  1  0
 25 29  2  0
 26 30  1  0
 27 31  2  0
 28 32  2  0
 29 32  1  0
 30 33  2  0
 31 33  1  0
M  END
