NIM-NMI-8bb27a2b-23-nitrile
     RDKit          3D

 31 32  0  0  0  0  0  0  0  0999 V2000
    7.1600   -3.1260   19.7620 C   0  0  0  0  0  0  0  0  0  0  0  0
    6.4030   -2.7740   18.7740 N   0  0  0  0  0  0  0  0  0  0  0  0
    7.4260   -2.1920   20.9090 N   0  0  0  0  0  0  0  0  0  0  0  0
    8.6070   -2.0890   21.8870 C   0  0  0  0  0  0  0  0  0  0  0  0
    7.3030   -0.8510   20.5920 C   0  0  2  0  0  0  0  0  0  0  0  0
    9.8980   -2.6570   21.4990 C   0  0  0  0  0  0  0  0  0  0  0  0
    8.6360   -1.4410   23.1810 C   0  0  0  0  0  0  0  0  0  0  0  0
    8.3470    0.0950   21.2730 C   0  0  0  0  0  0  0  0  0  0  0  0
    6.0490   -0.2520   20.5510 C   0  0  0  0  0  0  0  0  0  0  0  0
   11.0940   -2.5550   22.3300 C   0  0  0  0  0  0  0  0  0  0  0  0
    9.7850   -1.3350   24.0120 C   0  0  0  0  0  0  0  0  0  0  0  0
    9.4900   -0.2560   21.5230 O   0  0  0  0  0  0  0  0  0  0  0  0
    8.0120    1.3710   21.6090 N   0  0  0  0  0  0  0  0  0  0  0  0
    5.3630    0.0810   19.2780 C   0  0  0  0  0  0  0  0  0  0  0  0
    5.3820    0.0920   21.7360 C   0  0  0  0  0  0  0  0  0  0  0  0
   11.0450   -1.8650   23.6460 C   0  0  0  0  0  0  0  0  0  0  0  0
    8.7480    1.9490   22.6060 C   0  0  0  0  0  0  0  0  0  0  0  0
    4.0450    0.7480   19.4260 C   0  0  0  0  0  0  0  0  0  0  0  0
    4.1670    0.7070   21.8300 N   0  0  0  0  0  0  0  0  0  0  0  0
   12.1970   -1.7980   24.3930 C   0  0  0  0  0  0  0  0  0  0  0  0
    9.5610    3.2250   22.3550 C   0  0  0  0  0  0  0  0  0  0  0  0
    3.5170    1.0260   20.6870 C   0  0  0  0  0  0  0  0  0  0  0  0
   13.3140   -1.7990   23.6370 F   0  0  0  0  0  0  0  0  0  0  0  0
   12.4030   -2.8860   25.1540 F   0  0  0  0  0  0  0  0  0  0  0  0
   12.2680   -0.7040   25.1930 F   0  0  0  0  0  0  0  0  0  0  0  0
    8.9790    4.2660   22.6590 O   0  0  0  0  0  0  0  0  0  0  0  0
   10.6860    3.3000   21.9040 O   0  0  0  0  0  0  0  0  0  0  0  0
   11.6840    4.3280   22.2130 C   0  0  0  0  0  0  0  0  0  0  0  0
   12.6540    3.9350   23.0820 C   0  0  0  0  0  0  0  0  0  0  0  0
   11.1390    5.7070   22.6080 C   0  0  0  0  0  0  0  0  0  0  0  0
   12.4080    4.5350   20.9240 C   0  0  0  0  0  0  0  0  0  0  0  0
  1  2  2  3
  1  3  1  0
  3  4  1  0
  3  5  1  0
  4  6  2  0
  4  7  1  0
  5  8  1  1
  5  9  1  0
  6 10  1  0
  7 11  2  0
  8 12  2  0
  8 13  1  0
  9 14  2  0
  9 15  1  0
 10 16  2  0
 11 16  1  0
 13 17  1  0
 14 18  1  0
 15 19  2  0
 16 20  1  0
 17 21  1  0
 18 22  2  0
 19 22  1  0
 20 23  1  0
 20 24  1  0
 20 25  1  0
 21 26  2  0
 21 27  1  0
 28 27  1  0
 28 29  1  0
 28 30  1  0
 28 31  1  0
M  END
