NIM-UNI-310206f0-59-nitrile
     RDKit          3D

 36 40  0  0  0  0  0  0  0  0999 V2000
    6.8840   -3.7570   20.1310 C   0  0  0  0  0  0  0  0  0  0  0  0
    5.7200   -3.9760   19.6450 N   0  0  0  0  0  0  0  0  0  0  0  0
    7.1280   -3.0880   21.3450 N   0  0  0  0  0  0  0  0  0  0  0  0
    7.3680   -3.7600   22.6550 C   0  0  0  0  0  0  0  0  0  0  0  0
    7.9890   -1.9190   21.3140 C   0  0  0  0  0  0  0  0  0  0  0  0
    8.3620   -3.1990   23.5570 C   0  0  0  0  0  0  0  0  0  0  0  0
    9.4120   -2.4130   21.5720 C   0  0  0  0  0  0  0  0  0  0  0  0
    9.6680   -2.6790   22.9830 N   0  0  0  0  0  0  0  0  0  0  0  0
   10.1860   -1.4190   23.0640 C   0  0  0  0  0  0  0  0  0  0  0  0
   11.6280   -0.8780   22.8720 C   0  0  0  0  0  0  0  0  0  0  0  0
    9.2630   -0.5200   23.2750 C   0  0  0  0  0  0  0  0  0  0  0  0
   12.6890   -1.6680   22.6570 F   0  0  0  0  0  0  0  0  0  0  0  0
   11.7960    0.6580   22.8900 C   0  0  0  0  0  0  0  0  0  0  0  0
    9.4250    0.8040   23.2830 C   0  0  0  0  0  0  0  0  0  0  0  0
    8.0570   -0.9620   23.4700 F   0  0  0  0  0  0  0  0  0  0  0  0
   10.6130    1.4280   23.0710 C   0  0  0  0  0  0  0  0  0  0  0  0
   10.3840    2.7790   23.0420 N   0  0  0  0  0  0  0  0  0  0  0  0
    9.3250    3.0670   22.2380 C   0  0  0  0  0  0  0  0  0  0  0  0
   10.9550    3.8770   23.6810 C   0  0  0  0  0  0  0  0  0  0  0  0
    8.8530    2.2410   21.2970 O   0  0  0  0  0  0  0  0  0  0  0  0
    8.7200    4.3090   22.4140 N   0  0  0  0  0  0  0  0  0  0  0  0
   10.4980    4.3990   25.0340 C   0  0  0  0  0  0  0  0  0  0  0  0
   11.9630    4.5420   23.0350 C   0  0  0  0  0  0  0  0  0  0  0  0
    8.4200    4.8560   23.5970 C   0  0  0  0  0  0  0  0  0  0  0  0
   10.9710    5.6020   25.8810 C   0  0  0  0  0  0  0  0  0  0  0  0
   12.4870    5.6420   23.6670 C   0  0  0  0  0  0  0  0  0  0  0  0
   12.6550    4.4360   21.8580 C   0  0  0  0  0  0  0  0  0  0  0  0
    8.4950    6.2420   23.6260 C   0  0  0  0  0  0  0  0  0  0  0  0
    8.0400    4.4120   24.8380 C   0  0  0  0  0  0  0  0  0  0  0  0
   12.0250    6.0590   24.8900 C   0  0  0  0  0  0  0  0  0  0  0  0
   13.4900    6.1780   22.8610 N   0  0  0  0  0  0  0  0  0  0  0  0
   13.5840    5.4150   21.7430 C   0  0  0  0  0  0  0  0  0  0  0  0
    8.8860    7.1050   22.4530 C   0  0  0  0  0  0  0  0  0  0  0  0
    8.1700    6.7090   24.8400 N   0  0  0  0  0  0  0  0  0  0  0  0
    7.8860    5.5660   25.6000 O   0  0  0  0  0  0  0  0  0  0  0  0
    7.7710    3.0960   25.5180 C   0  0  0  0  0  0  0  0  0  0  0  0
  1  2  2  3
  1  3  1  0
  3  4  1  0
  3  5  1  0
  4  6  1  0
  5  7  1  0
  6  8  1  0
  7  8  1  0
  8  9  1  0
  9 10  2  0
  9 11  1  0
 10 12  1  0
 10 13  1  0
 11 14  2  0
 11 15  1  0
 13 16  2  0
 14 16  1  0
 16 17  1  0
 17 18  1  0
 17 19  1  0
 18 20  2  0
 18 21  1  0
 19 22  2  0
 19 23  1  0
 21 24  1  0
 22 25  1  0
 23 26  2  0
 23 27  1  0
 24 28  1  0
 24 29  2  0
 25 30  2  0
 26 30  1  0
 26 31  1  0
 27 32  2  0
 31 32  1  0
 28 33  1  0
 28 34  2  0
 29 35  1  0
 34 35  1  0
 29 36  1  0
M  END
