NIM-UNI-310206f0-31-chloroacetamide
     RDKit          3D

 34 38  0  0  0  0  0  0  0  0999 V2000
    6.9160   -3.1300   19.1710 C   0  0  0  0  0  0  0  0  0  0  0  0
    5.8320   -3.6520   20.1110 C   0  0  0  0  0  0  0  0  0  0  0  0
    5.3530   -4.7690   19.9520 O   0  0  0  0  0  0  0  0  0  0  0  0
    5.3700   -2.8540   21.1270 N   0  0  0  0  0  0  0  0  0  0  0  0
    4.7790   -3.3380   22.3930 C   0  0  0  0  0  0  0  0  0  0  0  0
    5.3600   -1.3910   21.0140 C   0  0  0  0  0  0  0  0  0  0  0  0
    5.7850   -2.8450   23.4750 C   0  0  0  0  0  0  0  0  0  0  0  0
    5.0620   -0.8100   22.2360 C   0  0  0  0  0  0  0  0  0  0  0  0
    5.9630   -1.3900   23.2080 N   0  0  0  0  0  0  0  0  0  0  0  0
    7.3670   -1.0100   23.1120 C   0  0  0  0  0  0  0  0  0  0  0  0
    8.2090   -1.8620   24.0600 C   0  0  0  0  0  0  0  0  0  0  0  0
    7.9120   -0.0290   22.2920 C   0  0  0  0  0  0  0  0  0  0  0  0
    7.6930   -2.8120   24.8590 F   0  0  0  0  0  0  0  0  0  0  0  0
    9.7350   -1.5740   24.0560 C   0  0  0  0  0  0  0  0  0  0  0  0
    9.3840    0.2360   22.3000 C   0  0  0  0  0  0  0  0  0  0  0  0
    7.1410    0.7070   21.4700 F   0  0  0  0  0  0  0  0  0  0  0  0
   10.2570   -0.4620   23.1050 C   0  0  0  0  0  0  0  0  0  0  0  0
   11.6530   -0.2310   23.1250 N   0  0  0  0  0  0  0  0  0  0  0  0
   12.1490    1.1400   23.0060 C   0  0  0  0  0  0  0  0  0  0  0  0
   12.4020   -1.3070   23.6530 C   0  0  0  0  0  0  0  0  0  0  0  0
   11.1180    2.3020   22.9130 C   0  0  0  0  0  0  0  0  0  0  0  0
   13.2730   -1.2410   24.5130 O   0  0  0  0  0  0  0  0  0  0  0  0
   12.0850   -2.7220   23.1430 C   0  0  0  0  0  0  0  0  0  0  0  0
   11.2080    3.4140   22.2450 C   0  0  0  0  0  0  0  0  0  0  0  0
   11.6010    3.8170   23.4690 C   0  0  0  0  0  0  0  0  0  0  0  0
   12.9530   -3.0160   21.9170 C   0  0  0  0  0  0  0  0  0  0  0  0
   13.0960   -1.7000   21.4100 C   0  0  0  0  0  0  0  0  0  0  0  0
   13.7290   -4.0080   21.0670 C   0  0  0  0  0  0  0  0  0  0  0  0
   13.8640   -1.8780   20.4130 N   0  0  0  0  0  0  0  0  0  0  0  0
   14.2310   -3.2700   20.2180 C   0  0  0  0  0  0  0  0  0  0  0  0
   14.2770   -5.4420   20.6680 C   0  0  0  0  0  0  0  0  0  0  0  0
   15.1230   -3.7500   19.2340 C   0  0  0  0  0  0  0  0  0  0  0  0
   15.1980   -5.9360   19.6730 C   0  0  0  0  0  0  0  0  0  0  0  0
   15.6410   -4.9630   18.9290 C   0  0  0  0  0  0  0  0  0  0  0  0
  1  2  1  0
  2  3  2  0
  2  4  1  0
  4  5  1  0
  4  6  1  0
  5  7  1  0
  6  8  1  0
  7  9  1  0
  8  9  1  0
  9 10  1  0
 10 11  2  0
 10 12  1  0
 11 13  1  0
 11 14  1  0
 12 15  2  0
 12 16  1  0
 14 17  2  0
 15 17  1  0
 17 18  1  0
 18 19  1  0
 18 20  1  0
 19 21  1  0
 20 22  2  0
 20 23  1  0
 21 24  1  0
 21 25  1  0
 24 25  1  0
 23 26  1  0
 26 27  2  0
 26 28  1  0
 27 29  1  0
 28 30  2  0
 29 30  1  0
 28 31  1  0
 30 32  1  0
 31 33  2  0
 32 34  2  0
 33 34  1  0
M  END
