NIM-NMI-8bb27a2b-27-acrylamide
     RDKit          3D

 33 35  0  0  0  0  0  0  0  0999 V2000
    8.8490   -3.9110   20.6010 C   0  0  0  0  0  0  0  0  0  0  0  0
    8.1030   -2.5390   20.6930 C   0  0  0  0  0  0  0  0  0  0  0  0
    6.6480   -2.8600   20.9310 C   0  0  0  0  0  0  0  0  0  0  0  0
    5.1230   -3.1960   21.1810 O   0  0  0  0  0  0  0  0  0  0  0  0
    7.4880   -2.1250   22.1910 N   0  0  0  0  0  0  0  0  0  0  0  0
    9.0730   -1.5070   22.3820 C   0  0  0  0  0  0  0  0  0  0  0  0
    7.3690   -2.8880   23.4610 C   0  0  1  0  0  0  0  0  0  0  0  0
   10.3730   -1.9770   21.5680 C   0  0  0  0  0  0  0  0  0  0  0  0
    9.5130   -0.4750   23.3510 C   0  0  0  0  0  0  0  0  0  0  0  0
    8.7410   -3.6050   23.5560 C   0  0  0  0  0  0  0  0  0  0  0  0
    7.0440   -1.9800   24.6490 C   0  0  0  0  0  0  0  0  0  0  0  0
   11.7320   -1.5160   21.7250 C   0  0  0  0  0  0  0  0  0  0  0  0
   10.8690   -0.0510   23.4770 C   0  0  0  0  0  0  0  0  0  0  0  0
    9.5580   -4.4330   23.9710 O   0  0  0  0  0  0  0  0  0  0  0  0
    7.7630   -4.1470   24.3730 N   0  0  0  0  0  0  0  0  0  0  0  0
    8.0080   -1.2270   25.3600 C   0  0  0  0  0  0  0  0  0  0  0  0
    5.7190   -1.8620   25.0990 C   0  0  0  0  0  0  0  0  0  0  0  0
   11.9400   -0.5680   22.6790 C   0  0  0  0  0  0  0  0  0  0  0  0
    7.6330   -5.5710   24.4420 C   0  0  0  0  0  0  0  0  0  0  0  0
    7.6370   -0.4240   26.4350 C   0  0  0  0  0  0  0  0  0  0  0  0
    5.3300   -1.0890   26.1560 N   0  0  0  0  0  0  0  0  0  0  0  0
   13.2510   -0.1730   22.7750 C   0  0  0  0  0  0  0  0  0  0  0  0
    6.9560   -6.1880   23.3860 C   0  0  0  0  0  0  0  0  0  0  0  0
    6.3030   -0.3930   26.7970 C   0  0  0  0  0  0  0  0  0  0  0  0
   14.0500   -0.8360   21.8970 F   0  0  0  0  0  0  0  0  0  0  0  0
   13.7920   -0.3770   24.0170 F   0  0  0  0  0  0  0  0  0  0  0  0
   13.4200    1.1640   22.5020 F   0  0  0  0  0  0  0  0  0  0  0  0
    8.1760   -6.2390   22.8800 C   0  0  0  0  0  0  0  0  0  0  0  0
    5.9430   -5.9480   24.2200 C   0  0  0  0  0  0  0  0  0  0  0  0
    7.8940   -6.9360   21.5100 C   0  0  0  0  0  0  0  0  0  0  0  0
    5.4890   -6.5520   23.1020 C   0  0  0  0  0  0  0  0  0  0  0  0
    6.3320   -6.9530   21.9840 C   0  0  0  0  0  0  0  0  0  0  0  0
    3.7930   -6.8560   23.0220 Cl  0  0  0  0  0  0  0  0  0  0  0  0
  1  2  1  0
  2  3  1  0
  3  4  2  0
  3  5  1  0
  5  6  1  0
  5  7  1  0
  6  8  2  0
  6  9  1  0
  7 10  1  1
  7 11  1  0
  8 12  1  0
  9 13  2  0
 10 14  2  0
 10 15  1  0
 11 16  2  0
 11 17  1  0
 12 18  2  0
 13 18  1  0
 15 19  1  0
 16 20  1  0
 17 21  2  0
 18 22  1  0
 19 23  1  0
 20 24  2  0
 21 24  1  0
 22 25  1  0
 22 26  1  0
 22 27  1  0
 23 28  2  0
 23 29  1  0
 28 30  1  0
 29 31  2  0
 30 32  2  0
 31 32  1  0
 31 33  1  0
M  END
