NIM-NMI-8bb27a2b-11-nitrile
     RDKit          3D

 27 28  0  0  0  0  0  0  0  0999 V2000
    7.3180   -3.0490   19.7940 C   0  0  0  0  0  0  0  0  0  0  0  0
    6.0830   -3.4220   19.5050 N   0  0  0  0  0  0  0  0  0  0  0  0
    7.7270   -1.9980   20.7980 N   0  0  0  0  0  0  0  0  0  0  0  0
    9.0650   -1.9480   21.5800 C   0  0  0  0  0  0  0  0  0  0  0  0
    6.7640   -0.9760   21.2090 C   0  0  2  0  0  0  0  0  0  0  0  0
    9.8700   -0.5650   21.8380 C   0  0  0  0  0  0  0  0  0  0  0  0
    9.5690   -3.0530   22.0460 N   0  0  0  0  0  0  0  0  0  0  0  0
    5.6990   -1.6720   22.0250 C   0  0  0  0  0  0  0  0  0  0  0  0
    6.2560   -0.2210   20.1760 C   0  0  0  0  0  0  0  0  0  0  0  0
   10.8860   -1.4590   22.5040 C   0  0  0  0  0  0  0  0  0  0  0  0
   10.6360   -2.8250   22.5890 O   0  0  0  0  0  0  0  0  0  0  0  0
    5.3050   -2.9750   21.5390 O   0  0  0  0  0  0  0  0  0  0  0  0
    5.1350   -1.1180   23.1460 N   0  0  0  0  0  0  0  0  0  0  0  0
    5.1150    0.5460   20.2090 C   0  0  0  0  0  0  0  0  0  0  0  0
    6.8370   -0.0820   18.8270 C   0  0  0  0  0  0  0  0  0  0  0  0
   12.1360   -1.1030   23.0810 C   0  0  0  0  0  0  0  0  0  0  0  0
    5.4180   -1.7210   24.2810 C   0  0  0  0  0  0  0  0  0  0  0  0
    4.6550    1.2900   19.1370 C   0  0  0  0  0  0  0  0  0  0  0  0
    6.3690    0.6570   17.7770 N   0  0  0  0  0  0  0  0  0  0  0  0
   12.4990    0.2450   23.0890 C   0  0  0  0  0  0  0  0  0  0  0  0
   13.2320   -1.7360   22.2290 C   0  0  0  0  0  0  0  0  0  0  0  0
   12.3980   -1.6410   24.3330 C   0  0  0  0  0  0  0  0  0  0  0  0
    4.2630   -1.6450   25.0630 C   0  0  0  0  0  0  0  0  0  0  0  0
    5.2590    1.3700   17.9010 C   0  0  0  0  0  0  0  0  0  0  0  0
    4.2150   -0.6420   25.7670 O   0  0  0  0  0  0  0  0  0  0  0  0
    3.3390   -2.6510   24.9850 O   0  0  0  0  0  0  0  0  0  0  0  0
    2.1020   -2.3600   25.6570 C   0  0  0  0  0  0  0  0  0  0  0  0
  1  2  2  3
  1  3  1  0
  3  4  1  0
  3  5  1  0
  4  6  1  0
  4  7  2  0
  5  8  1  6
  5  9  1  0
  6 10  2  0
  7 11  1  0
 10 11  1  0
  8 12  2  0
  8 13  1  0
  9 14  2  0
  9 15  1  0
 10 16  1  0
 13 17  1  0
 14 18  1  0
 15 19  2  0
 16 20  1  0
 16 21  1  0
 16 22  1  0
 17 23  1  0
 18 24  2  0
 19 24  1  0
 23 25  2  0
 23 26  1  0
 26 27  1  0
M  END
