NIM-NMI-8bb27a2b-3-acrylamide
     RDKit          3D

 27 29  0  0  0  0  0  0  0  0999 V2000
    6.2740   -4.6540   20.0420 C   0  0  0  0  0  0  0  0  0  0  0  0
    6.8680   -3.2710   19.9620 C   0  0  0  0  0  0  0  0  0  0  0  0
    6.1820   -2.6000   21.0790 C   0  0  0  0  0  0  0  0  0  0  0  0
    4.8990   -3.0910   21.2500 O   0  0  0  0  0  0  0  0  0  0  0  0
    7.0080   -1.6030   21.8010 N   0  0  0  0  0  0  0  0  0  0  0  0
    8.5320   -1.7660   21.9450 C   0  0  0  0  0  0  0  0  0  0  0  0
    6.5230   -0.2400   21.7460 C   0  0  2  0  0  0  0  0  0  0  0  0
    9.6090   -0.8760   22.6200 C   0  0  0  0  0  0  0  0  0  0  0  0
    9.3580   -2.8540   21.4570 N   0  0  0  0  0  0  0  0  0  0  0  0
    5.5080   -0.0720   22.8880 C   0  0  0  0  0  0  0  0  0  0  0  0
    6.1060    0.3010   20.3870 C   0  0  0  0  0  0  0  0  0  0  0  0
   10.8280   -1.5050   22.4480 C   0  0  0  0  0  0  0  0  0  0  0  0
   10.6910   -2.5710   21.8240 O   0  0  0  0  0  0  0  0  0  0  0  0
    5.8900    0.7400   23.6980 O   0  0  0  0  0  0  0  0  0  0  0  0
    4.3410   -0.3570   23.5250 N   0  0  0  0  0  0  0  0  0  0  0  0
    4.8610    1.1550   20.2740 C   0  0  0  0  0  0  0  0  0  0  0  0
    6.8230    0.0530   19.2040 C   0  0  0  0  0  0  0  0  0  0  0  0
   12.0560   -1.0340   22.9100 C   0  0  0  0  0  0  0  0  0  0  0  0
    3.6450    0.6200   24.3330 C   0  0  0  0  0  0  0  0  0  0  0  0
    4.4810    1.6790   18.9400 C   0  0  0  0  0  0  0  0  0  0  0  0
    6.4870    0.5270   17.9720 N   0  0  0  0  0  0  0  0  0  0  0  0
   12.1270    0.3410   22.9790 C   0  0  0  0  0  0  0  0  0  0  0  0
   13.2310   -1.4950   22.0640 C   0  0  0  0  0  0  0  0  0  0  0  0
   12.2940   -1.6020   24.3230 C   0  0  0  0  0  0  0  0  0  0  0  0
    2.6690    0.0970   24.9550 C   0  0  0  0  0  0  0  0  0  0  0  0
    2.1590    1.1270   24.0710 C   0  0  0  0  0  0  0  0  0  0  0  0
    5.3890    1.2980   17.8290 C   0  0  0  0  0  0  0  0  0  0  0  0
  1  2  1  0
  2  3  1  0
  3  4  2  0
  3  5  1  0
  5  6  1  0
  5  7  1  0
  6  8  1  0
  6  9  2  0
  7 10  1  1
  7 11  1  0
  8 12  2  0
  9 13  1  0
 12 13  1  0
 10 14  2  0
 10 15  1  0
 11 16  2  0
 11 17  1  0
 12 18  1  0
 15 19  1  0
 16 20  1  0
 17 21  2  0
 18 22  1  0
 18 23  1  0
 18 24  1  0
 19 25  1  0
 19 26  1  0
 25 26  1  0
 20 27  2  0
 21 27  1  0
M  END
