NIM-UNI-7ba87d62-5-vinylsulfonamide
     RDKit          3D

 26 28  0  0  0  0  0  0  0  0999 V2000
    7.6270   -3.3710   19.6660 C   0  0  0  0  0  0  0  0  0  0  0  0
    6.9210   -2.2940   18.9260 C   0  0  0  0  0  0  0  0  0  0  0  0
    5.2830   -2.3480   19.4790 S   0  0  0  0  0  0  0  0  0  0  0  0
    4.6260   -3.6440   19.2680 O   0  0  0  0  0  0  0  0  0  0  0  0
    4.6780   -1.0560   19.2570 O   0  0  0  0  0  0  0  0  0  0  0  0
    5.3950   -2.5110   21.1180 N   0  0  0  0  0  0  0  0  0  0  0  0
    6.6850   -2.4830   21.7550 C   0  0  0  0  0  0  0  0  0  0  0  0
    6.9720   -3.7670   22.2460 N   0  0  0  0  0  0  0  0  0  0  0  0
    7.5720   -1.3570   21.9690 C   0  0  0  0  0  0  0  0  0  0  0  0
    8.1250   -3.9650   22.9410 C   0  0  0  0  0  0  0  0  0  0  0  0
    8.7340   -1.8010   22.5980 C   0  0  0  0  0  0  0  0  0  0  0  0
    7.3900   -0.0130   21.6940 C   0  0  0  0  0  0  0  0  0  0  0  0
    8.2660   -5.0260   23.5430 O   0  0  0  0  0  0  0  0  0  0  0  0
    8.9850   -3.1220   22.9570 N   0  0  0  0  0  0  0  0  0  0  0  0
    6.0150    0.5020   21.5460 C   0  0  0  0  0  0  0  0  0  0  0  0
    8.5510    0.8470   21.5770 C   0  0  0  0  0  0  0  0  0  0  0  0
    9.7510   -3.1450   24.1380 C   0  0  0  0  0  0  0  0  0  0  0  0
    5.8880    1.8840   21.2910 C   0  0  0  0  0  0  0  0  0  0  0  0
    8.5280    2.2380   21.3220 N   0  0  0  0  0  0  0  0  0  0  0  0
    9.2690   -4.0430   25.1980 C   0  0  0  0  0  0  0  0  0  0  0  0
    7.1350    2.4550   21.2350 C   0  0  0  0  0  0  0  0  0  0  0  0
    9.8290   -5.4190   25.4600 C   0  0  0  0  0  0  0  0  0  0  0  0
    8.0040   -3.6970   26.2950 S   0  0  0  0  0  0  0  0  0  0  0  0
    9.1840   -6.0220   26.5000 C   0  0  0  0  0  0  0  0  0  0  0  0
    8.1650   -5.2440   27.0750 C   0  0  0  0  0  0  0  0  0  0  0  0
    7.0670   -5.7860   28.5310 Br  0  0  0  0  0  0  0  0  0  0  0  0
  1  2  1  0
  2  3  1  0
  3  4  2  0
  3  5  2  0
  3  6  1  0
  6  7  1  0
  7  8  2  0
  7  9  1  0
  8 10  1  0
  9 11  2  0
  9 12  1  0
 10 13  2  0
 10 14  1  0
 11 14  1  0
 12 15  2  0
 12 16  1  0
 14 17  1  0
 15 18  1  0
 16 19  2  0
 17 20  1  0
 18 21  2  0
 19 21  1  0
 20 22  2  0
 20 23  1  0
 22 24  1  0
 23 25  1  0
 24 25  2  0
 25 26  1  0
M  END
