NIM-UNI-43fe0159-3-vinylsulfonamide
     RDKit          3D

 18 19  0  0  0  0  0  0  0  0999 V2000
    7.2420   -3.4440   19.4850 C   0  0  0  0  0  0  0  0  0  0  0  0
    6.1670   -3.1240   20.2150 C   0  0  0  0  0  0  0  0  0  0  0  0
    6.1150   -3.9300   21.8080 S   0  0  0  0  0  0  0  0  0  0  0  0
    4.9580   -4.8000   21.8290 O   0  0  0  0  0  0  0  0  0  0  0  0
    7.4570   -4.3560   22.1490 O   0  0  0  0  0  0  0  0  0  0  0  0
    5.9150   -2.9050   23.0300 N   0  0  0  0  0  0  0  0  0  0  0  0
    5.8680   -1.4640   22.7740 C   0  0  0  0  0  0  0  0  0  0  0  0
    6.8970   -3.3600   24.0090 C   0  0  0  0  0  0  0  0  0  0  0  0
    7.2930   -1.0100   22.4590 C   0  0  0  0  0  0  0  0  0  0  0  0
    8.1800   -3.0200   23.5090 O   0  0  0  0  0  0  0  0  0  0  0  0
    8.2550   -1.5980   23.4990 C   0  0  1  0  0  0  0  0  0  0  0  0
    9.6680   -1.1300   23.3830 C   0  0  0  0  0  0  0  0  0  0  0  0
   10.6030   -1.7520   22.5220 C   0  0  0  0  0  0  0  0  0  0  0  0
   10.0520   -0.0320   24.1500 C   0  0  0  0  0  0  0  0  0  0  0  0
   11.8970   -1.2520   22.4580 C   0  0  0  0  0  0  0  0  0  0  0  0
   11.3420    0.4610   24.0710 C   0  0  0  0  0  0  0  0  0  0  0  0
   12.2720   -0.1310   23.2390 C   0  0  0  0  0  0  0  0  0  0  0  0
   13.5320    0.3380   23.1490 O   0  0  0  0  0  0  0  0  0  0  0  0
  1  2  1  0
  3  2  1  0
  3  4  2  0
  3  5  2  0
  3  6  1  0
  6  7  1  0
  6  8  1  0
  7  9  1  0
  8 10  1  0
  9 11  1  0
 10 11  1  0
 11 12  1  6
 12 13  2  0
 12 14  1  0
 13 15  1  0
 14 16  2  0
 15 17  2  0
 16 17  1  0
 17 18  1  0
M  END
