NIM-UNI-bb9030bf-5-vinylsulfonamide
     RDKit          3D

 19 19  0  0  0  0  0  0  0  0999 V2000
    6.6620   -5.1410   20.4720 C   0  0  0  0  0  0  0  0  0  0  0  0
    6.5850   -4.3250   21.7450 C   0  0  0  0  0  0  0  0  0  0  0  0
    5.4420   -3.0100   21.4450 S   0  0  0  0  0  0  0  0  0  0  0  0
    4.2860   -3.3400   22.2350 O   0  0  0  0  0  0  0  0  0  0  0  0
    5.2450   -2.8650   20.0250 O   0  0  0  0  0  0  0  0  0  0  0  0
    6.2800   -1.6320   21.9950 N   0  0  0  0  0  0  0  0  0  0  0  0
    7.0810   -0.9360   20.9760 C   0  0  2  0  0  0  0  0  0  0  0  0
    8.3080   -0.2100   21.5670 C   0  0  0  0  0  0  0  0  0  0  0  0
    6.4240   -0.1550   20.0330 C   0  0  0  0  0  0  0  0  0  0  0  0
    8.4160    1.1620   21.1800 O   0  0  0  0  0  0  0  0  0  0  0  0
    9.2950   -0.9200   22.4220 N   0  0  0  0  0  0  0  0  0  0  0  0
    5.1650    0.6420   20.2740 C   0  0  0  0  0  0  0  0  0  0  0  0
    6.9370   -0.0720   18.7440 C   0  0  0  0  0  0  0  0  0  0  0  0
   10.5270   -0.3310   22.5960 C   0  0  0  0  0  0  0  0  0  0  0  0
    4.6110    1.3890   19.2350 C   0  0  0  0  0  0  0  0  0  0  0  0
    6.3980    0.6670   17.7110 N   0  0  0  0  0  0  0  0  0  0  0  0
   11.4640   -0.5940   23.7160 C   0  0  0  0  0  0  0  0  0  0  0  0
   11.7280   -1.2160   22.3200 C   0  0  0  0  0  0  0  0  0  0  0  0
    5.1950    1.4170   17.9830 C   0  0  0  0  0  0  0  0  0  0  0  0
  1  2  1  0
  2  3  1  0
  3  4  2  0
  3  5  2  0
  3  6  1  0
  7  6  1  1
  7  8  1  0
  7  9  1  0
  8 10  2  0
  8 11  1  0
  9 12  2  0
  9 13  1  0
 11 14  1  0
 12 15  1  0
 13 16  2  0
 14 17  1  0
 14 18  1  0
 15 19  2  0
 16 19  1  0
M  END
