NIM-UNI-bb9030bf-2-chloroacetamide
     RDKit          3D

 25 26  0  0  0  0  0  0  0  0999 V2000
    6.1680   -4.6670   20.1460 C   0  0  0  0  0  0  0  0  0  0  0  0
    6.5730   -3.3570   19.5730 C   0  0  0  0  0  0  0  0  0  0  0  0
    6.1280   -2.9720   18.4900 O   0  0  0  0  0  0  0  0  0  0  0  0
    7.4710   -2.6200   20.3470 N   0  0  0  0  0  0  0  0  0  0  0  0
    6.8730   -1.6060   21.1750 C   0  0  1  0  0  0  0  0  0  0  0  0
    7.9180   -0.7110   21.7710 C   0  0  0  0  0  0  0  0  0  0  0  0
    6.1220   -0.7940   20.2000 C   0  0  0  0  0  0  0  0  0  0  0  0
    7.6820    0.4160   22.2060 O   0  0  0  0  0  0  0  0  0  0  0  0
    9.1560   -1.4490   21.7000 N   0  0  0  0  0  0  0  0  0  0  0  0
    4.8920   -0.0250   20.6680 C   0  0  0  0  0  0  0  0  0  0  0  0
    6.5050   -0.7090   18.8640 C   0  0  0  0  0  0  0  0  0  0  0  0
   10.0340   -1.6560   22.7380 C   0  0  0  0  0  0  0  0  0  0  0  0
    4.2140    0.7490   19.6370 C   0  0  0  0  0  0  0  0  0  0  0  0
    5.8670    0.0220   17.9130 N   0  0  0  0  0  0  0  0  0  0  0  0
   10.8610   -0.4580   22.7970 C   0  0  0  0  0  0  0  0  0  0  0  0
    4.8020    0.7050   18.2520 C   0  0  0  0  0  0  0  0  0  0  0  0
   12.2380   -0.4280   22.7700 C   0  0  0  0  0  0  0  0  0  0  0  0
   10.1490    0.7360   22.8580 C   0  0  0  0  0  0  0  0  0  0  0  0
   12.9470    0.9430   22.7830 C   0  0  0  0  0  0  0  0  0  0  0  0
   10.7460    1.9970   22.8640 C   0  0  0  0  0  0  0  0  0  0  0  0
   12.1070    2.2000   22.8150 C   0  0  0  0  0  0  0  0  0  0  0  0
   12.4930    3.5690   22.7830 C   0  0  0  0  0  0  0  0  0  0  0  0
   12.0470    4.0770   21.6090 F   0  0  0  0  0  0  0  0  0  0  0  0
   11.8720    4.3320   23.7070 F   0  0  0  0  0  0  0  0  0  0  0  0
   13.7870    3.8660   22.7640 F   0  0  0  0  0  0  0  0  0  0  0  0
  1  2  1  0
  2  3  2  0
  2  4  1  0
  5  4  1  6
  5  6  1  0
  5  7  1  0
  6  8  2  0
  6  9  1  0
  7 10  2  0
  7 11  1  0
  9 12  1  0
 10 13  1  0
 11 14  2  0
 12 15  1  0
 13 16  2  0
 14 16  1  0
 15 17  2  0
 15 18  1  0
 17 19  1  0
 18 20  2  0
 19 21  2  0
 20 21  1  0
 21 22  1  0
 22 23  1  0
 22 24  1  0
 22 25  1  0
M  END
