NIM-UNI-05f93fcc-2-chloroacetamide
     RDKit          3D

 23 25  0  0  0  0  0  0  0  0999 V2000
    7.2360   -3.4240   19.9690 C   0  0  0  0  0  0  0  0  0  0  0  0
    6.3350   -4.4980   20.5720 C   0  0  0  0  0  0  0  0  0  0  0  0
    5.3230   -4.8130   19.9610 O   0  0  0  0  0  0  0  0  0  0  0  0
    6.6360   -5.1400   21.7770 N   0  0  0  0  0  0  0  0  0  0  0  0
    5.8380   -6.2380   22.1820 C   0  0  0  0  0  0  0  0  0  0  0  0
    7.3500   -4.5070   22.9020 C   0  0  0  0  0  0  0  0  0  0  0  0
    4.9940   -6.0580   23.2660 C   0  0  0  0  0  0  0  0  0  0  0  0
    6.4360   -4.1110   23.8710 C   0  0  0  0  0  0  0  0  0  0  0  0
    5.7260   -5.3250   24.3090 N   0  0  0  0  0  0  0  0  0  0  0  0
    4.9950   -5.3570   25.8410 S   0  0  0  0  0  0  0  0  0  0  0  0
    4.0300   -6.4390   25.8480 O   0  0  0  0  0  0  0  0  0  0  0  0
    6.0240   -5.2680   26.8490 O   0  0  0  0  0  0  0  0  0  0  0  0
    4.0160   -3.8920   25.9390 C   0  0  0  0  0  0  0  0  0  0  0  0
    4.3650   -2.5340   26.0090 C   0  0  0  0  0  0  0  0  0  0  0  0
    2.3090   -4.1370   25.9650 S   0  0  0  0  0  0  0  0  0  0  0  0
    3.1560   -1.6780   26.0920 C   0  0  0  0  0  0  0  0  0  0  0  0
    1.9480   -2.4760   26.0820 C   0  0  0  0  0  0  0  0  0  0  0  0
    0.6340   -1.8870   26.1700 C   0  0  0  0  0  0  0  0  0  0  0  0
    0.5300   -0.5210   26.8470 C   0  0  0  0  0  0  0  0  0  0  0  0
   -0.5010   -2.5500   25.6560 C   0  0  0  0  0  0  0  0  0  0  0  0
   -0.8830    0.0460   26.9140 C   0  0  0  0  0  0  0  0  0  0  0  0
   -1.9600   -1.9830   25.7150 C   0  0  0  0  0  0  0  0  0  0  0  0
   -2.1000   -0.7170   26.3360 C   0  0  0  0  0  0  0  0  0  0  0  0
  1  2  1  0
  2  3  2  0
  2  4  1  0
  4  5  1  0
  4  6  1  0
  5  7  1  0
  6  8  1  0
  7  9  1  0
  8  9  1  0
  9 10  1  0
 10 11  2  0
 10 12  2  0
 10 13  1  0
 13 14  2  0
 13 15  1  0
 14 16  1  0
 15 17  1  0
 16 17  2  0
 17 18  1  0
 18 19  2  0
 18 20  1  0
 19 21  1  0
 20 22  2  0
 21 23  2  0
 22 23  1  0
M  END
