NIM-UNI-310206f0-35-nitrile
     RDKit          3D

 32 35  0  0  0  0  0  0  0  0999 V2000
    6.6250   -4.2040   20.1780 C   0  0  0  0  0  0  0  0  0  0  0  0
    5.8640   -3.5350   19.3960 N   0  0  0  0  0  0  0  0  0  0  0  0
    6.8440   -3.8380   21.4690 N   0  0  0  0  0  0  0  0  0  0  0  0
    6.6640   -2.4200   21.8470 C   0  0  0  0  0  0  0  0  0  0  0  0
    6.7240   -4.8200   22.5950 C   0  0  0  0  0  0  0  0  0  0  0  0
    5.8560   -2.5160   23.1790 C   0  0  0  0  0  0  0  0  0  0  0  0
    7.2920   -4.3010   23.9160 C   0  0  0  0  0  0  0  0  0  0  0  0
    6.8650   -2.9200   24.1770 N   0  0  0  0  0  0  0  0  0  0  0  0
    7.8270   -1.9990   24.2270 C   0  0  0  0  0  0  0  0  0  0  0  0
    7.4130   -0.5390   24.6000 C   0  0  0  0  0  0  0  0  0  0  0  0
    9.1610   -2.3030   23.9410 C   0  0  0  0  0  0  0  0  0  0  0  0
    6.1490   -0.1780   24.8960 F   0  0  0  0  0  0  0  0  0  0  0  0
    8.5230    0.5320   24.6100 C   0  0  0  0  0  0  0  0  0  0  0  0
   10.2150   -1.2720   23.9570 C   0  0  0  0  0  0  0  0  0  0  0  0
    9.5560   -3.5300   23.6310 F   0  0  0  0  0  0  0  0  0  0  0  0
    9.9420    0.0240   24.2460 C   0  0  0  0  0  0  0  0  0  0  0  0
   10.9370    1.0120   24.2140 N   0  0  0  0  0  0  0  0  0  0  0  0
   12.1520    0.5150   23.5850 C   0  0  0  0  0  0  0  0  0  0  0  0
   10.3520    2.1940   23.7290 C   0  0  0  0  0  0  0  0  0  0  0  0
   11.9640   -0.6100   22.5310 C   0  0  0  0  0  0  0  0  0  0  0  0
    9.5010    2.8360   24.3320 O   0  0  0  0  0  0  0  0  0  0  0  0
   10.7460    2.6000   22.5130 N   0  0  0  0  0  0  0  0  0  0  0  0
   12.9970   -1.4410   22.0770 C   0  0  0  0  0  0  0  0  0  0  0  0
   12.4580   -2.1660   22.9880 C   0  0  0  0  0  0  0  0  0  0  0  0
   11.3240    3.7850   22.7070 C   0  0  0  0  0  0  0  0  0  0  0  0
   10.5070    5.0450   22.9190 C   0  0  0  0  0  0  0  0  0  0  0  0
   12.6990    3.8500   22.7180 C   0  0  0  0  0  0  0  0  0  0  0  0
   11.1770    6.3850   23.1470 C   0  0  0  0  0  0  0  0  0  0  0  0
   13.3850    5.0130   22.9200 C   0  0  0  0  0  0  0  0  0  0  0  0
   12.6910    6.3650   23.1490 C   0  0  0  0  0  0  0  0  0  0  0  0
   14.7710    4.9220   22.9070 C   0  0  0  0  0  0  0  0  0  0  0  0
   15.6170    3.9960   22.3360 N   0  0  0  0  0  0  0  0  0  0  0  0
  1  2  2  3
  1  3  1  0
  3  4  1  0
  3  5  1  0
  4  6  1  0
  5  7  1  0
  6  8  1  0
  7  8  1  0
  8  9  1  0
  9 10  2  0
  9 11  1  0
 10 12  1  0
 10 13  1  0
 11 14  2  0
 11 15  1  0
 13 16  2  0
 14 16  1  0
 16 17  1  0
 17 18  1  0
 17 19  1  0
 18 20  1  0
 19 21  2  0
 19 22  1  0
 20 23  1  0
 20 24  1  0
 23 24  1  0
 22 25  1  0
 25 26  2  0
 25 27  1  0
 26 28  1  0
 27 29  2  0
 28 30  2  0
 29 30  1  0
 29 31  1  0
 31 32  3  0
M  END
