NIM-NMI-8bb27a2b-25-bromoalkyne
     RDKit          3D

 34 36  0  0  0  0  0  0  0  0999 V2000
    6.8250   -3.3950   19.7090 C   0  0  0  0  0  0  0  0  0  0  0  0
    5.5510   -2.9960   19.0140 C   0  0  0  0  0  0  0  0  0  0  0  0
    7.1760   -2.5840   20.7950 N   0  0  0  0  0  0  0  0  0  0  0  0
    6.7830   -2.9560   22.1620 C   0  0  0  0  0  0  0  0  0  0  0  0
    7.4400   -1.1190   20.5140 C   0  0  2  0  0  0  0  0  0  0  0  0
    5.3890   -2.6890   22.5390 C   0  0  0  0  0  0  0  0  0  0  0  0
    7.6380   -3.5460   23.1110 C   0  0  0  0  0  0  0  0  0  0  0  0
    8.2890   -0.3620   21.5360 C   0  0  0  0  0  0  0  0  0  0  0  0
    6.4720   -0.2430   19.7670 C   0  0  0  0  0  0  0  0  0  0  0  0
    4.9100   -3.0540   23.9300 C   0  0  0  0  0  0  0  0  0  0  0  0
    7.1750   -3.8730   24.3790 C   0  0  0  0  0  0  0  0  0  0  0  0
    7.9000    0.4440   22.3610 O   0  0  0  0  0  0  0  0  0  0  0  0
    9.6550   -0.6690   21.3470 N   0  0  0  0  0  0  0  0  0  0  0  0
    5.1980    0.1050   20.2460 C   0  0  0  0  0  0  0  0  0  0  0  0
    6.8340    0.2760   18.5490 C   0  0  0  0  0  0  0  0  0  0  0  0
    5.8400   -3.6300   24.7720 C   0  0  0  0  0  0  0  0  0  0  0  0
   10.5710   -0.7440   22.2880 C   0  0  0  0  0  0  0  0  0  0  0  0
    4.3910    0.9500   19.4730 C   0  0  0  0  0  0  0  0  0  0  0  0
    6.0850    1.0870   17.7910 N   0  0  0  0  0  0  0  0  0  0  0  0
    5.3100   -3.9260   26.0080 C   0  0  0  0  0  0  0  0  0  0  0  0
   10.2330   -0.2250   23.5300 C   0  0  0  0  0  0  0  0  0  0  0  0
   11.7860   -1.3180   22.0240 C   0  0  0  0  0  0  0  0  0  0  0  0
    4.8830    1.4150   18.2550 C   0  0  0  0  0  0  0  0  0  0  0  0
    6.1360   -4.7010   26.7630 F   0  0  0  0  0  0  0  0  0  0  0  0
    5.0370   -2.8240   26.7630 F   0  0  0  0  0  0  0  0  0  0  0  0
    4.1400   -4.6160   25.9150 F   0  0  0  0  0  0  0  0  0  0  0  0
   11.1730   -0.3240   24.5350 C   0  0  0  0  0  0  0  0  0  0  0  0
   12.7110   -1.4040   23.0060 C   0  0  0  0  0  0  0  0  0  0  0  0
   12.4070   -0.9280   24.2550 C   0  0  0  0  0  0  0  0  0  0  0  0
   13.2530   -1.0580   25.2460 O   0  0  0  0  0  0  0  0  0  0  0  0
   13.5950   -2.4320   25.2050 C   0  0  0  0  0  0  0  0  0  0  0  0
   14.4720   -2.7870   26.1520 F   0  0  0  0  0  0  0  0  0  0  0  0
   14.0620   -2.7180   23.9870 F   0  0  0  0  0  0  0  0  0  0  0  0
   12.5170   -3.1970   25.2930 F   0  0  0  0  0  0  0  0  0  0  0  0
  1  2  2  3
  1  3  1  0
  3  4  1  0
  3  5  1  0
  4  6  2  0
  4  7  1  0
  5  8  1  1
  5  9  1  0
  6 10  1  0
  7 11  2  0
  8 12  2  0
  8 13  1  0
  9 14  2  0
  9 15  1  0
 10 16  2  0
 11 16  1  0
 13 17  1  0
 14 18  1  0
 15 19  2  0
 16 20  1  0
 17 21  2  0
 17 22  1  0
 18 23  2  0
 19 23  1  0
 20 24  1  0
 20 25  1  0
 20 26  1  0
 21 27  1  0
 22 28  2  0
 27 29  2  0
 28 29  1  0
 29 30  1  0
 30 31  1  0
 31 32  1  0
 31 33  1  0
 31 34  1  0
M  END
