NIM-NMI-8bb27a2b-18-chloroacetamide
     RDKit          3D

 30 31  0  0  0  0  0  0  0  0999 V2000
    8.3030   -3.7110   20.2560 C   0  0  0  0  0  0  0  0  0  0  0  0
    7.4890   -2.5150   20.1620 C   0  0  0  0  0  0  0  0  0  0  0  0
    6.6110   -2.6830   19.1380 O   0  0  0  0  0  0  0  0  0  0  0  0
    7.7660   -1.4610   21.1860 N   0  0  0  0  0  0  0  0  0  0  0  0
    9.1560   -1.0830   21.7660 C   0  0  0  0  0  0  0  0  0  0  0  0
    6.8280   -1.6590   22.3180 C   0  0  2  0  0  0  0  0  0  0  0  0
    9.2420    0.1930   22.5330 C   0  0  0  0  0  0  0  0  0  0  0  0
   10.3810   -1.8040   21.6750 C   0  0  0  0  0  0  0  0  0  0  0  0
    5.4140   -1.7000   21.7400 C   0  0  0  0  0  0  0  0  0  0  0  0
    7.0860   -0.7800   23.5370 C   0  0  0  0  0  0  0  0  0  0  0  0
   10.5470    0.6620   23.1510 C   0  0  0  0  0  0  0  0  0  0  0  0
   11.5640   -1.3510   22.2440 C   0  0  0  0  0  0  0  0  0  0  0  0
    5.1360   -1.3610   20.5910 O   0  0  0  0  0  0  0  0  0  0  0  0
    4.4140   -2.1740   22.6810 N   0  0  0  0  0  0  0  0  0  0  0  0
    8.2440   -1.0160   24.5090 C   0  0  0  0  0  0  0  0  0  0  0  0
    6.2300    0.3090   23.8060 C   0  0  0  0  0  0  0  0  0  0  0  0
   11.6150   -0.1540   22.9520 C   0  0  0  0  0  0  0  0  0  0  0  0
    4.6750   -3.0290   23.7090 C   0  0  0  0  0  0  0  0  0  0  0  0
    8.3680   -0.0720   25.6570 C   0  0  0  0  0  0  0  0  0  0  0  0
    6.3270    1.1850   24.8530 N   0  0  0  0  0  0  0  0  0  0  0  0
   12.7010    0.3250   23.5050 C   0  0  0  0  0  0  0  0  0  0  0  0
    4.9280   -4.3020   23.1890 C   0  0  0  0  0  0  0  0  0  0  0  0
    7.3380    1.0090   25.7350 C   0  0  0  0  0  0  0  0  0  0  0  0
   13.7510    0.0900   22.7030 F   0  0  0  0  0  0  0  0  0  0  0  0
   12.9420   -0.2500   24.7110 F   0  0  0  0  0  0  0  0  0  0  0  0
   12.5900    1.6670   23.6370 F   0  0  0  0  0  0  0  0  0  0  0  0
    4.4330   -4.7300   22.1490 O   0  0  0  0  0  0  0  0  0  0  0  0
    5.7910   -4.9760   23.9920 O   0  0  0  0  0  0  0  0  0  0  0  0
    6.9850   -5.5750   23.4180 C   0  0  0  0  0  0  0  0  0  0  0  0
    6.5710   -6.5360   22.4800 C   0  0  0  0  0  0  0  0  0  0  0  0
  1  2  1  0
  2  3  2  0
  2  4  1  0
  4  5  1  0
  4  6  1  0
  5  7  2  0
  5  8  1  0
  6  9  1  6
  6 10  1  0
  7 11  1  0
  8 12  2  0
  9 13  2  0
  9 14  1  0
 10 15  2  0
 10 16  1  0
 11 17  2  0
 12 17  1  0
 14 18  1  0
 15 19  1  0
 16 20  2  0
 17 21  1  0
 18 22  1  0
 19 23  2  0
 20 23  1  0
 21 24  1  0
 21 25  1  0
 21 26  1  0
 22 27  2  0
 22 28  1  0
 28 29  1  0
 29 30  1  0
M  END
