NIM-UNI-594fbbb6-3-bromoalkyne
     RDKit          3D

 24 26  0  0  0  0  0  0  0  0999 V2000
    6.8600   -3.5240   19.7880 C   0  0  0  0  0  0  0  0  0  0  0  0
    6.2260   -2.8300   18.6150 C   0  0  0  0  0  0  0  0  0  0  0  0
    6.5770   -2.9690   21.0080 N   0  0  0  0  0  0  0  0  0  0  0  0
    6.0180   -3.5850   22.2110 C   0  0  0  0  0  0  0  0  0  0  0  0
    7.0910   -1.6290   21.2170 C   0  0  0  0  0  0  0  0  0  0  0  0
    7.3150   -3.9460   22.9980 C   0  0  0  0  0  0  0  0  0  0  0  0
    8.2970   -1.7590   22.0880 C   0  0  0  0  0  0  0  0  0  0  0  0
    8.0560   -2.6770   23.2130 N   0  0  0  0  0  0  0  0  0  0  0  0
    8.9280   -2.7570   24.3500 C   0  0  0  0  0  0  0  0  0  0  0  0
   10.2860   -2.2970   23.9060 C   0  0  0  0  0  0  0  0  0  0  0  0
   10.3390   -0.8650   23.7140 C   0  0  0  0  0  0  0  0  0  0  0  0
   11.5140   -2.8010   23.6110 N   0  0  0  0  0  0  0  0  0  0  0  0
   11.5220   -0.5750   23.3190 N   0  0  0  0  0  0  0  0  0  0  0  0
   12.2750   -1.7290   23.2480 N   0  0  0  0  0  0  0  0  0  0  0  0
   11.8490    0.6260   23.0540 C   0  0  0  0  0  0  0  0  0  0  0  0
   13.2040    1.0980   22.6990 C   0  0  0  0  0  0  0  0  0  0  0  0
   10.7990    1.8060   23.0810 C   0  0  0  0  0  0  0  0  0  0  0  0
   13.3810    2.5730   22.4320 C   0  0  0  0  0  0  0  0  0  0  0  0
   11.0480    3.1360   22.8430 C   0  0  0  0  0  0  0  0  0  0  0  0
   12.3450    3.4860   22.5140 C   0  0  0  0  0  0  0  0  0  0  0  0
    9.7610    4.2490   22.9900 S   0  0  0  0  0  0  0  0  0  0  0  0
   10.4500    5.6730   22.5150 N   0  0  0  0  0  0  0  0  0  0  0  0
    9.4470    4.3880   24.4100 O   0  0  0  0  0  0  0  0  0  0  0  0
    8.6820    3.8760   22.0840 O   0  0  0  0  0  0  0  0  0  0  0  0
  1  2  2  3
  1  3  1  0
  3  4  1  0
  3  5  1  0
  4  6  1  0
  5  7  1  0
  6  8  1  0
  7  8  1  0
  8  9  1  0
  9 10  1  0
 10 11  2  0
 10 12  1  0
 11 13  1  0
 12 14  2  0
 13 14  1  0
 13 15  1  0
 15 16  2  0
 15 17  1  0
 16 18  1  0
 17 19  2  0
 18 20  2  0
 19 20  1  0
 19 21  1  0
 21 22  1  0
 21 23  2  0
 21 24  2  0
M  END
