NIM-UNI-310206f0-64-bromoalkyne
     RDKit          3D

 34 38  0  0  0  0  0  0  0  0999 V2000
    7.1580   -3.5930   19.8210 C   0  0  0  0  0  0  0  0  0  0  0  0
    5.9820   -3.0460   18.9950 C   0  0  0  0  0  0  0  0  0  0  0  0
    7.3640   -3.0910   21.1250 N   0  0  0  0  0  0  0  0  0  0  0  0
    7.5560   -3.8670   22.3820 C   0  0  0  0  0  0  0  0  0  0  0  0
    8.1480   -1.8890   21.1830 C   0  0  0  0  0  0  0  0  0  0  0  0
    8.4840   -3.2070   23.3120 C   0  0  0  0  0  0  0  0  0  0  0  0
    9.5880   -2.2930   21.5030 C   0  0  0  0  0  0  0  0  0  0  0  0
    9.7380   -2.6180   22.8830 N   0  0  0  0  0  0  0  0  0  0  0  0
   10.1960   -1.3230   23.0710 C   0  0  0  0  0  0  0  0  0  0  0  0
   11.5790   -0.7310   22.7310 C   0  0  0  0  0  0  0  0  0  0  0  0
    9.3240   -0.4680   23.5600 C   0  0  0  0  0  0  0  0  0  0  0  0
   12.5910   -1.4660   22.2310 F   0  0  0  0  0  0  0  0  0  0  0  0
   11.7810    0.6600   22.9360 C   0  0  0  0  0  0  0  0  0  0  0  0
    9.5400    0.8630   23.7470 C   0  0  0  0  0  0  0  0  0  0  0  0
    8.1560   -0.9540   23.8710 F   0  0  0  0  0  0  0  0  0  0  0  0
   10.7390    1.4980   23.4390 C   0  0  0  0  0  0  0  0  0  0  0  0
   10.6290    2.8440   23.7170 N   0  0  0  0  0  0  0  0  0  0  0  0
    9.3210    3.2250   23.6480 C   0  0  0  0  0  0  0  0  0  0  0  0
   11.4910    3.8380   23.3150 C   0  0  0  0  0  0  0  0  0  0  0  0
    8.5940    3.2150   22.5270 O   0  0  0  0  0  0  0  0  0  0  0  0
    8.6340    3.6290   24.8090 C   0  0  0  0  0  0  0  0  0  0  0  0
   12.4510    3.8210   22.1550 C   0  0  0  0  0  0  0  0  0  0  0  0
   11.4560    5.0190   24.0870 C   0  0  0  0  0  0  0  0  0  0  0  0
    8.2570    2.7850   25.9180 C   0  0  0  0  0  0  0  0  0  0  0  0
    8.2850    4.9630   24.8940 N   0  0  0  0  0  0  0  0  0  0  0  0
   13.4270    4.8860   21.6330 C   0  0  0  0  0  0  0  0  0  0  0  0
   12.2900    6.0670   23.7160 C   0  0  0  0  0  0  0  0  0  0  0  0
   10.7710    5.4860   25.2100 C   0  0  0  0  0  0  0  0  0  0  0  0
    7.6060    3.7700   26.7750 C   0  0  0  0  0  0  0  0  0  0  0  0
    7.6220    5.0430   26.1710 O   0  0  0  0  0  0  0  0  0  0  0  0
   13.1310    5.9730   22.6420 C   0  0  0  0  0  0  0  0  0  0  0  0
   12.1080    7.1380   24.5930 N   0  0  0  0  0  0  0  0  0  0  0  0
   11.1780    6.7650   25.5000 C   0  0  0  0  0  0  0  0  0  0  0  0
    6.9960    3.4980   28.1200 C   0  0  0  0  0  0  0  0  0  0  0  0
  1  2  2  3
  1  3  1  0
  3  4  1  0
  3  5  1  0
  4  6  1  0
  5  7  1  0
  6  8  1  0
  7  8  1  0
  8  9  1  0
  9 10  2  0
  9 11  1  0
 10 12  1  0
 10 13  1  0
 11 14  2  0
 11 15  1  0
 13 16  2  0
 14 16  1  0
 16 17  1  0
 17 18  1  0
 17 19  1  0
 18 20  2  0
 18 21  1  0
 19 22  2  0
 19 23  1  0
 21 24  1  0
 21 25  2  0
 22 26  1  0
 23 27  2  0
 23 28  1  0
 24 29  2  0
 25 30  1  0
 29 30  1  0
 26 31  2  0
 27 31  1  0
 27 32  1  0
 28 33  2  0
 32 33  1  0
 29 34  1  0
M  END
