NIM-UNI-43fe0159-8-vinylsulfonamide
     RDKit          3D

 22 23  0  0  0  0  0  0  0  0999 V2000
    7.9500   -3.6060   20.1840 C   0  0  0  0  0  0  0  0  0  0  0  0
    6.6950   -3.2080   20.0950 C   0  0  0  0  0  0  0  0  0  0  0  0
    5.6820   -3.9470   21.3210 S   0  0  0  0  0  0  0  0  0  0  0  0
    4.6620   -3.0100   21.4960 O   0  0  0  0  0  0  0  0  0  0  0  0
    5.3820   -5.2850   20.8610 O   0  0  0  0  0  0  0  0  0  0  0  0
    6.3760   -4.0560   22.8070 N   0  0  0  0  0  0  0  0  0  0  0  0
    6.0020   -3.1160   23.8630 C   0  0  0  0  0  0  0  0  0  0  0  0
    7.7160   -4.5920   22.9660 C   0  0  0  0  0  0  0  0  0  0  0  0
    7.1110   -2.0670   23.9590 C   0  0  0  0  0  0  0  0  0  0  0  0
    8.4810   -3.6770   22.7020 O   0  0  0  0  0  0  0  0  0  0  0  0
    8.4870   -2.7160   23.7530 C   0  0  1  0  0  0  0  0  0  0  0  0
    9.6120   -1.7640   23.5240 C   0  0  0  0  0  0  0  0  0  0  0  0
    9.6410   -0.6170   24.3540 C   0  0  0  0  0  0  0  0  0  0  0  0
   10.6020   -1.9650   22.5520 C   0  0  0  0  0  0  0  0  0  0  0  0
   10.6400    0.3220   24.2120 C   0  0  0  0  0  0  0  0  0  0  0  0
   11.7080   -0.9400   22.3950 C   0  0  0  0  0  0  0  0  0  0  0  0
   11.6490    0.1440   23.2390 C   0  0  0  0  0  0  0  0  0  0  0  0
   12.6130    1.1450   23.1610 C   0  0  0  0  0  0  0  0  0  0  0  0
   12.2130    2.3740   22.7770 N   0  0  0  0  0  0  0  0  0  0  0  0
   13.1450    3.1120   22.1390 C   0  0  0  0  0  0  0  0  0  0  0  0
   12.9160    4.5730   21.8060 C   0  0  0  0  0  0  0  0  0  0  0  0
   14.1920    2.6110   21.8020 O   0  0  0  0  0  0  0  0  0  0  0  0
  1  2  1  0
  3  2  1  0
  3  4  2  0
  3  5  2  0
  3  6  1  0
  6  7  1  0
  6  8  1  0
  7  9  1  0
  8 10  1  0
  9 11  1  0
 10 11  1  0
 11 12  1  6
 12 13  2  0
 12 14  1  0
 13 15  1  0
 14 16  2  0
 15 17  2  0
 16 17  1  0
 17 18  1  0
 18 19  1  0
 19 20  1  0
 20 21  1  0
 20 22  2  0
M  END
