NIM-UNI-310206f0-20-nitrile
     RDKit          3D

 29 32  0  0  0  0  0  0  0  0999 V2000
    6.5520   -3.5010   19.5630 C   0  0  0  0  0  0  0  0  0  0  0  0
    5.8630   -3.0790   18.5730 N   0  0  0  0  0  0  0  0  0  0  0  0
    6.2400   -3.1330   20.8360 N   0  0  0  0  0  0  0  0  0  0  0  0
    5.9450   -1.7160   21.1420 C   0  0  0  0  0  0  0  0  0  0  0  0
    6.0810   -4.0680   21.9660 C   0  0  0  0  0  0  0  0  0  0  0  0
    5.8190   -1.6740   22.6920 C   0  0  0  0  0  0  0  0  0  0  0  0
    7.1760   -3.6910   22.9850 C   0  0  0  0  0  0  0  0  0  0  0  0
    7.0800   -2.2370   23.1960 N   0  0  0  0  0  0  0  0  0  0  0  0
    8.1750   -1.4820   23.0100 C   0  0  0  0  0  0  0  0  0  0  0  0
    8.0940   -0.0260   22.3950 C   0  0  0  0  0  0  0  0  0  0  0  0
    9.3960   -1.9860   23.3600 C   0  0  0  0  0  0  0  0  0  0  0  0
    6.9430    0.5590   22.0220 F   0  0  0  0  0  0  0  0  0  0  0  0
    9.4160    0.7710   22.2120 C   0  0  0  0  0  0  0  0  0  0  0  0
   10.6490   -1.2520   23.1960 C   0  0  0  0  0  0  0  0  0  0  0  0
    9.5080   -3.2230   23.8910 F   0  0  0  0  0  0  0  0  0  0  0  0
   10.6730    0.0240   22.6680 C   0  0  0  0  0  0  0  0  0  0  0  0
   11.9510    0.6130   22.5820 N   0  0  0  0  0  0  0  0  0  0  0  0
   11.8830    2.0470   22.8850 C   0  0  0  0  0  0  0  0  0  0  0  0
   12.5800   -0.4210   23.2370 C   0  0  0  0  0  0  0  0  0  0  0  0
   10.6070    2.7230   23.4390 C   0  0  0  0  0  0  0  0  0  0  0  0
   12.8760    2.9970   22.7160 C   0  0  0  0  0  0  0  0  0  0  0  0
   12.9370   -1.4630   22.4440 N   0  0  0  0  0  0  0  0  0  0  0  0
   12.7250   -0.3790   24.5660 N   0  0  0  0  0  0  0  0  0  0  0  0
   10.4970    4.0360   23.7040 N   0  0  0  0  0  0  0  0  0  0  0  0
   12.7590    4.3250   22.9820 N   0  0  0  0  0  0  0  0  0  0  0  0
   13.4400   -2.5570   23.0000 C   0  0  0  0  0  0  0  0  0  0  0  0
   13.2370   -1.4450   25.1840 C   0  0  0  0  0  0  0  0  0  0  0  0
   11.5900    4.7690   23.4570 C   0  0  0  0  0  0  0  0  0  0  0  0
   13.6460   -2.6840   24.4760 C   0  0  0  0  0  0  0  0  0  0  0  0
  1  2  2  3
  1  3  1  0
  3  4  1  0
  3  5  1  0
  4  6  1  0
  5  7  1  0
  6  8  1  0
  7  8  1  0
  8  9  1  0
  9 10  2  0
  9 11  1  0
 10 12  1  0
 10 13  1  0
 11 14  2  0
 11 15  1  0
 13 16  2  0
 14 16  1  0
 16 17  1  0
 17 18  1  0
 17 19  1  0
 18 20  2  0
 18 21  1  0
 19 22  2  0
 19 23  1  0
 20 24  1  0
 21 25  2  0
 22 26  1  0
 23 27  2  0
 24 28  2  0
 25 28  1  0
 26 29  2  0
 27 29  1  0
M  END
