NIM-NMI-8bb27a2b-18-bromoalkyne
     RDKit          3D

 29 30  0  0  0  0  0  0  0  0999 V2000
    7.6860   -2.9880   19.6750 C   0  0  0  0  0  0  0  0  0  0  0  0
    6.1470   -3.1590   19.3290 C   0  0  0  0  0  0  0  0  0  0  0  0
    8.1760   -2.3430   21.0230 N   0  0  0  0  0  0  0  0  0  0  0  0
    9.4950   -1.8540   21.7450 C   0  0  0  0  0  0  0  0  0  0  0  0
    7.3330   -1.2790   21.6110 C   0  0  1  0  0  0  0  0  0  0  0  0
   10.8770   -2.3050   21.4800 C   0  0  0  0  0  0  0  0  0  0  0  0
    9.4180   -0.8580   22.7990 C   0  0  0  0  0  0  0  0  0  0  0  0
    7.4010    0.0430   20.7790 C   0  0  0  0  0  0  0  0  0  0  0  0
    6.1110   -1.8250   22.3500 C   0  0  0  0  0  0  0  0  0  0  0  0
   12.0570   -1.7700   22.2490 C   0  0  0  0  0  0  0  0  0  0  0  0
   10.5260   -0.3800   23.5000 C   0  0  0  0  0  0  0  0  0  0  0  0
    6.8220    0.2260   19.7060 O   0  0  0  0  0  0  0  0  0  0  0  0
    8.2480    1.0760   21.3990 N   0  0  0  0  0  0  0  0  0  0  0  0
    5.4860   -3.1890   22.0550 C   0  0  0  0  0  0  0  0  0  0  0  0
    5.5250   -1.0580   23.3780 C   0  0  0  0  0  0  0  0  0  0  0  0
   11.7960   -0.8540   23.2060 C   0  0  0  0  0  0  0  0  0  0  0  0
    7.7570    2.2590   21.8660 C   0  0  0  0  0  0  0  0  0  0  0  0
    4.3130   -3.5880   22.8860 C   0  0  0  0  0  0  0  0  0  0  0  0
    4.4510   -1.4100   24.1490 N   0  0  0  0  0  0  0  0  0  0  0  0
   12.9090   -0.5120   23.8010 C   0  0  0  0  0  0  0  0  0  0  0  0
    8.7010    2.8660   22.7050 C   0  0  0  0  0  0  0  0  0  0  0  0
    3.8730   -2.6050   23.9220 C   0  0  0  0  0  0  0  0  0  0  0  0
   13.5320    0.4890   23.1390 F   0  0  0  0  0  0  0  0  0  0  0  0
   12.7010   -0.1700   25.0840 F   0  0  0  0  0  0  0  0  0  0  0  0
   13.7140   -1.5970   23.8440 F   0  0  0  0  0  0  0  0  0  0  0  0
    8.3160    3.3960   23.9150 O   0  0  0  0  0  0  0  0  0  0  0  0
    9.8810    2.9170   22.3440 O   0  0  0  0  0  0  0  0  0  0  0  0
   10.7550    3.9910   22.8090 C   0  0  0  0  0  0  0  0  0  0  0  0
   12.0130    3.6320   22.2810 C   0  0  0  0  0  0  0  0  0  0  0  0
  1  2  2  3
  1  3  1  0
  3  4  1  0
  3  5  1  0
  4  6  2  0
  4  7  1  0
  5  8  1  6
  5  9  1  0
  6 10  1  0
  7 11  2  0
  8 12  2  0
  8 13  1  0
  9 14  2  0
  9 15  1  0
 10 16  2  0
 11 16  1  0
 13 17  1  0
 14 18  1  0
 15 19  2  0
 16 20  1  0
 17 21  1  0
 18 22  2  0
 19 22  1  0
 20 23  1  0
 20 24  1  0
 20 25  1  0
 21 26  2  0
 21 27  1  0
 27 28  1  0
 28 29  1  0
M  END
