NIM-UNI-43fe0159-2-vinylsulfonamide
     RDKit          3D

 19 20  0  0  0  0  0  0  0  0999 V2000
    7.2280   -3.2880   19.2240 C   0  0  0  0  0  0  0  0  0  0  0  0
    5.9790   -2.9020   19.4570 C   0  0  0  0  0  0  0  0  0  0  0  0
    5.6980   -2.5050   21.1450 S   0  0  0  0  0  0  0  0  0  0  0  0
    4.8560   -3.4800   21.7300 O   0  0  0  0  0  0  0  0  0  0  0  0
    5.3230   -1.1060   21.1600 O   0  0  0  0  0  0  0  0  0  0  0  0
    7.1080   -2.6610   21.9400 N   0  0  0  0  0  0  0  0  0  0  0  0
    7.3690   -3.8790   22.7420 C   0  0  0  0  0  0  0  0  0  0  0  0
    7.4890   -1.3670   22.4550 C   0  0  0  0  0  0  0  0  0  0  0  0
    7.9470   -3.5580   24.1120 C   0  0  0  0  0  0  0  0  0  0  0  0
    7.1410   -1.3430   23.6140 O   0  0  0  0  0  0  0  0  0  0  0  0
    8.1010   -2.0580   24.3590 C   0  0  2  0  0  0  0  0  0  0  0  0
    9.4050   -1.4610   23.9870 C   0  0  0  0  0  0  0  0  0  0  0  0
    9.7680   -0.2580   24.6080 C   0  0  0  0  0  0  0  0  0  0  0  0
   10.2580   -2.0330   23.0610 C   0  0  0  0  0  0  0  0  0  0  0  0
   10.9630    0.3250   24.2840 C   0  0  0  0  0  0  0  0  0  0  0  0
   11.4590   -1.4610   22.7320 C   0  0  0  0  0  0  0  0  0  0  0  0
   11.8190   -0.2780   23.3450 C   0  0  0  0  0  0  0  0  0  0  0  0
   13.0330    0.2610   22.9930 C   0  0  0  0  0  0  0  0  0  0  0  0
   13.5870   -0.4110   21.9890 N   0  0  0  0  0  0  0  0  0  0  0  0
  1  2  1  0
  3  2  1  0
  3  4  2  0
  3  5  2  0
  3  6  1  0
  6  7  1  0
  6  8  1  0
  7  9  1  0
  8 10  1  0
  9 11  1  0
 10 11  1  0
 11 12  1  6
 12 13  2  0
 12 14  1  0
 13 15  1  0
 14 16  2  0
 15 17  2  0
 16 17  1  0
 17 18  1  0
 18 19  1  0
M  END
