NIM-UNI-bb9030bf-15-nitrile
     RDKit          3D

 19 20  0  0  0  0  0  0  0  0999 V2000
    6.7010   -3.5500   19.6400 C   0  0  0  0  0  0  0  0  0  0  0  0
    5.4830   -3.3890   19.3100 N   0  0  0  0  0  0  0  0  0  0  0  0
    7.5310   -2.5320   20.1160 N   0  0  0  0  0  0  0  0  0  0  0  0
    7.0610   -1.3030   20.8230 C   0  0  1  0  0  0  0  0  0  0  0  0
    8.1970   -0.4730   21.4230 C   0  0  0  0  0  0  0  0  0  0  0  0
    6.3540   -0.3750   19.8700 C   0  0  0  0  0  0  0  0  0  0  0  0
    8.4230    0.6800   21.0700 O   0  0  0  0  0  0  0  0  0  0  0  0
    9.0150   -1.1030   22.4710 N   0  0  0  0  0  0  0  0  0  0  0  0
    5.0600    0.3410   20.1420 C   0  0  0  0  0  0  0  0  0  0  0  0
    6.9070   -0.1170   18.6370 C   0  0  0  0  0  0  0  0  0  0  0  0
   10.0380   -0.2350   22.8440 C   0  0  0  0  0  0  0  0  0  0  0  0
    4.5120    1.1890   19.1730 C   0  0  0  0  0  0  0  0  0  0  0  0
    6.3690    0.7140   17.7030 N   0  0  0  0  0  0  0  0  0  0  0  0
   11.2820   -0.7800   23.3790 C   0  0  0  0  0  0  0  0  0  0  0  0
    5.2030    1.3440   17.9720 C   0  0  0  0  0  0  0  0  0  0  0  0
   12.0060    0.4200   23.0890 C   0  0  0  0  0  0  0  0  0  0  0  0
   11.8820   -1.8900   23.9590 O   0  0  0  0  0  0  0  0  0  0  0  0
   13.2400    0.0980   23.5040 N   0  0  0  0  0  0  0  0  0  0  0  0
   13.1130   -1.2220   23.9840 C   0  0  0  0  0  0  0  0  0  0  0  0
  1  2  2  3
  1  3  1  0
  4  3  1  6
  4  5  1  0
  4  6  1  0
  5  7  2  0
  5  8  1  0
  6  9  2  0
  6 10  1  0
  8 11  1  0
  9 12  1  0
 10 13  2  0
 11 14  1  0
 12 15  2  0
 13 15  1  0
 14 16  2  0
 14 17  1  0
 16 18  1  0
 17 19  1  0
 18 19  2  0
M  END
