NIM-UNI-534877e5-3
     RDKit          3D

 36 40  0  0  0  0  0  0  0  0999 V2000
    3.7480   -8.1210   24.9570 O   0  0  0  0  0  0  0  0  0  0  0  0
    3.2280   -7.2220   24.3180 C   0  0  0  0  0  0  0  0  0  0  0  0
    3.9940   -6.0330   23.8380 C   0  0  0  0  0  0  0  0  0  0  0  0
    1.8670   -7.1710   23.9280 N   0  0  0  0  0  0  0  0  0  0  0  0
    3.3820   -4.7620   24.4300 C   0  0  0  0  0  0  0  0  0  0  0  0
    5.0920   -6.1100   22.9510 C   0  0  0  0  0  0  0  0  0  0  0  0
    1.2520   -6.0620   23.4300 C   0  0  0  0  0  0  0  0  0  0  0  0
    0.9340   -8.1160   24.5020 C   0  0  0  0  0  0  0  0  0  0  0  0
    3.9870   -3.4840   23.9950 C   0  0  0  0  0  0  0  0  0  0  0  0
    5.7320   -4.9500   22.4930 C   0  0  0  0  0  0  0  0  0  0  0  0
    0.5620   -5.4340   24.4810 C   0  0  0  0  0  0  0  0  0  0  0  0
   -0.0680   -7.3150   25.0740 C   0  0  0  0  0  0  0  0  0  0  0  0
    5.0980   -3.7120   23.0540 C   0  0  0  0  0  0  0  0  0  0  0  0
    0.3660   -6.2240   25.4070 O   0  0  0  0  0  0  0  0  0  0  0  0
    5.1370   -2.2820   23.0470 C   0  0  0  0  0  0  0  0  0  0  0  0
    5.2790   -1.9340   21.9000 O   0  0  0  0  0  0  0  0  0  0  0  0
    6.5290   -1.5230   21.8980 C   0  0  0  0  0  0  0  0  0  0  0  0
    7.2240   -2.1290   22.8990 N   0  0  0  0  0  0  0  0  0  0  0  0
    7.1980   -0.5430   21.0730 N   0  0  0  0  0  0  0  0  0  0  0  0
    8.5630   -1.8190   23.1830 C   0  0  0  0  0  0  0  0  0  0  0  0
    8.3620    0.1450   21.5490 C   0  0  0  0  0  0  0  0  0  0  0  0
    6.5030    0.0890   19.9820 C   0  0  0  0  0  0  0  0  0  0  0  0
    9.0710   -0.6240   22.4670 C   0  0  0  0  0  0  0  0  0  0  0  0
    8.8360    1.4380   21.1610 O   0  0  0  0  0  0  0  0  0  0  0  0
    5.3520    0.8210   20.2720 C   0  0  0  0  0  0  0  0  0  0  0  0
    6.9120    0.0190   18.6700 C   0  0  0  0  0  0  0  0  0  0  0  0
   10.3380   -0.2520   22.7290 C   0  0  0  0  0  0  0  0  0  0  0  0
    4.6700    1.4560   19.2380 C   0  0  0  0  0  0  0  0  0  0  0  0
    6.2740    0.6210   17.6560 N   0  0  0  0  0  0  0  0  0  0  0  0
   10.7380    1.0760   22.7730 C   0  0  0  0  0  0  0  0  0  0  0  0
   11.2020   -1.2880   22.9640 C   0  0  0  0  0  0  0  0  0  0  0  0
    5.1710    1.3300   17.9520 C   0  0  0  0  0  0  0  0  0  0  0  0
   12.0500    1.3830   23.0450 C   0  0  0  0  0  0  0  0  0  0  0  0
   12.4990   -1.0450   23.2500 C   0  0  0  0  0  0  0  0  0  0  0  0
   13.0060    0.2200   23.2990 C   0  0  0  0  0  0  0  0  0  0  0  0
   13.4880   -2.5760   23.5820 Br  0  0  0  0  0  0  0  0  0  0  0  0
  1  2  2  0
  2  3  1  0
  2  4  1  0
  3  5  2  0
  3  6  1  0
  4  7  1  0
  4  8  1  0
  5  9  1  0
  6 10  2  0
  7 11  1  0
  8 12  1  0
  9 13  2  0
 10 13  1  0
 11 14  1  0
 12 14  1  0
 13 15  1  0
 15 16  1  0
 16 17  1  0
 17 18  2  0
 17 19  1  0
 18 20  1  0
 19 21  1  0
 19 22  1  0
 20 23  2  0
 21 23  1  0
 21 24  2  0
 22 25  2  0
 22 26  1  0
 23 27  1  0
 25 28  1  0
 26 29  2  0
 27 30  2  0
 27 31  1  0
 28 32  2  0
 29 32  1  0
 30 33  1  0
 31 34  2  0
 33 35  2  0
 34 35  1  0
 34 36  1  0
M  END
