NIM-UNI-310206f0-12-bromoalkyne
     RDKit          3D

 30 32  0  0  0  0  0  0  0  0999 V2000
    6.7200   -3.2720   19.4590 C   0  0  0  0  0  0  0  0  0  0  0  0
    7.0390   -2.5410   18.1660 C   0  0  0  0  0  0  0  0  0  0  0  0
    5.7300   -2.8580   20.3510 N   0  0  0  0  0  0  0  0  0  0  0  0
    5.2120   -3.5950   21.5340 C   0  0  0  0  0  0  0  0  0  0  0  0
    5.4430   -1.4160   20.3890 C   0  0  0  0  0  0  0  0  0  0  0  0
    6.0810   -3.1130   22.7200 C   0  0  0  0  0  0  0  0  0  0  0  0
    5.0370   -1.0050   21.7970 C   0  0  0  0  0  0  0  0  0  0  0  0
    5.9890   -1.6230   22.7150 N   0  0  0  0  0  0  0  0  0  0  0  0
    7.3060   -1.0470   22.9040 C   0  0  0  0  0  0  0  0  0  0  0  0
    8.0430   -1.9130   23.9140 C   0  0  0  0  0  0  0  0  0  0  0  0
    7.8490    0.0890   22.2830 C   0  0  0  0  0  0  0  0  0  0  0  0
    7.5260   -2.9970   24.5270 F   0  0  0  0  0  0  0  0  0  0  0  0
    9.4810   -1.4620   24.2000 C   0  0  0  0  0  0  0  0  0  0  0  0
    9.2540    0.5400   22.5580 C   0  0  0  0  0  0  0  0  0  0  0  0
    7.1350    0.8180   21.4030 F   0  0  0  0  0  0  0  0  0  0  0  0
    9.9980   -0.2060   23.4470 C   0  0  0  0  0  0  0  0  0  0  0  0
   11.3540    0.1410   23.7040 N   0  0  0  0  0  0  0  0  0  0  0  0
   11.9050   -0.6320   22.7020 C   0  0  0  0  0  0  0  0  0  0  0  0
   11.8160   -0.7040   25.0900 S   0  0  0  0  0  0  0  0  0  0  0  0
   10.9000   -1.5080   22.4010 N   0  0  0  0  0  0  0  0  0  0  0  0
   13.1350   -0.5030   22.2120 N   0  0  0  0  0  0  0  0  0  0  0  0
   13.0290   -0.1700   25.5910 O   0  0  0  0  0  0  0  0  0  0  0  0
   10.6350   -0.7040   25.9350 O   0  0  0  0  0  0  0  0  0  0  0  0
   12.2820   -2.3630   24.5600 C   0  0  0  0  0  0  0  0  0  0  0  0
   11.2240   -2.3270   21.5070 C   0  0  0  0  0  0  0  0  0  0  0  0
   13.3620   -1.4290   21.2610 C   0  0  0  0  0  0  0  0  0  0  0  0
   13.1850   -2.9240   25.4120 F   0  0  0  0  0  0  0  0  0  0  0  0
   12.9120   -2.3950   23.3540 F   0  0  0  0  0  0  0  0  0  0  0  0
   11.2300   -3.2170   24.4820 F   0  0  0  0  0  0  0  0  0  0  0  0
   12.4280   -2.3560   20.8960 C   0  0  0  0  0  0  0  0  0  0  0  0
  1  2  2  3
  1  3  1  0
  3  4  1  0
  3  5  1  0
  4  6  1  0
  5  7  1  0
  6  8  1  0
  7  8  1  0
  8  9  1  0
  9 10  2  0
  9 11  1  0
 10 12  1  0
 10 13  1  0
 11 14  2  0
 11 15  1  0
 13 16  2  0
 14 16  1  0
 16 17  1  0
 17 18  1  0
 19 17  1  0
 18 20  2  0
 18 21  1  0
 19 22  2  0
 19 23  2  0
 19 24  1  0
 20 25  1  0
 21 26  2  0
 24 27  1  0
 24 28  1  0
 24 29  1  0
 25 30  2  0
 26 30  1  0
M  END
