NIM-UNI-05f93fcc-17-acrylamide
     RDKit          3D

 23 25  0  0  0  0  0  0  0  0999 V2000
    8.1210   -3.7470   20.3180 C   0  0  0  0  0  0  0  0  0  0  0  0
    6.9660   -3.1360   20.2800 C   0  0  0  0  0  0  0  0  0  0  0  0
    5.9950   -4.2170   20.5950 C   0  0  0  0  0  0  0  0  0  0  0  0
    5.1230   -4.5360   19.8030 O   0  0  0  0  0  0  0  0  0  0  0  0
    6.1810   -4.8750   21.7920 N   0  0  0  0  0  0  0  0  0  0  0  0
    7.0790   -4.3130   22.8030 C   0  0  0  0  0  0  0  0  0  0  0  0
    5.6200   -6.1580   22.1200 C   0  0  0  0  0  0  0  0  0  0  0  0
    6.3340   -4.1950   24.1290 C   0  0  0  0  0  0  0  0  0  0  0  0
    4.6980   -5.9220   23.3310 C   0  0  0  0  0  0  0  0  0  0  0  0
    5.5350   -5.3960   24.4480 N   0  0  0  0  0  0  0  0  0  0  0  0
    4.8240   -5.4290   25.9870 S   0  0  0  0  0  0  0  0  0  0  0  0
    3.9540   -6.5770   26.0180 O   0  0  0  0  0  0  0  0  0  0  0  0
    5.8570   -5.2250   26.9660 O   0  0  0  0  0  0  0  0  0  0  0  0
    3.8360   -3.9670   26.0170 C   0  0  0  0  0  0  0  0  0  0  0  0
    4.3060   -2.6440   26.0080 C   0  0  0  0  0  0  0  0  0  0  0  0
    2.1340   -4.0680   26.0760 S   0  0  0  0  0  0  0  0  0  0  0  0
    3.2760   -1.7370   26.0580 C   0  0  0  0  0  0  0  0  0  0  0  0
    1.9930   -2.3540   26.1100 C   0  0  0  0  0  0  0  0  0  0  0  0
    0.7400   -1.6990   26.1890 C   0  0  0  0  0  0  0  0  0  0  0  0
    0.5960   -0.4480   26.8360 C   0  0  0  0  0  0  0  0  0  0  0  0
   -0.4950   -2.1180   25.6990 N   0  0  0  0  0  0  0  0  0  0  0  0
   -0.6680   -0.0990   26.7580 N   0  0  0  0  0  0  0  0  0  0  0  0
   -1.4040   -1.0230   26.1030 C   0  0  0  0  0  0  0  0  0  0  0  0
  1  2  1  0
  2  3  1  0
  3  4  2  0
  3  5  1  0
  5  6  1  0
  5  7  1  0
  6  8  1  0
  7  9  1  0
  8 10  1  0
  9 10  1  0
 10 11  1  0
 11 12  2  0
 11 13  2  0
 11 14  1  0
 14 15  2  0
 14 16  1  0
 15 17  1  0
 16 18  1  0
 17 18  2  0
 18 19  1  0
 19 20  2  0
 19 21  1  0
 20 22  1  0
 21 23  2  0
 22 23  1  0
M  END
