NIM-UNI-310206f0-37-acrylamide
     RDKit          3D

 28 30  0  0  0  0  0  0  0  0999 V2000
    7.2150   -2.8030   18.3510 C   0  0  0  0  0  0  0  0  0  0  0  0
    6.1930   -2.3390   19.3510 C   0  0  0  0  0  0  0  0  0  0  0  0
    5.6700   -3.4380   20.2380 C   0  0  0  0  0  0  0  0  0  0  0  0
    5.1530   -4.4760   19.8340 O   0  0  0  0  0  0  0  0  0  0  0  0
    5.8030   -3.1770   21.5550 N   0  0  0  0  0  0  0  0  0  0  0  0
    5.7220   -1.8020   21.9720 C   0  0  0  0  0  0  0  0  0  0  0  0
    6.4830   -4.0660   22.5180 C   0  0  0  0  0  0  0  0  0  0  0  0
    7.2150   -1.5270   21.9650 C   0  0  0  0  0  0  0  0  0  0  0  0
    7.7560   -3.4710   23.1850 C   0  0  0  0  0  0  0  0  0  0  0  0
    7.6940   -2.0030   23.2660 N   0  0  0  0  0  0  0  0  0  0  0  0
    8.8700   -1.3380   23.3240 C   0  0  0  0  0  0  0  0  0  0  0  0
    8.6110    0.1350   22.8430 C   0  0  0  0  0  0  0  0  0  0  0  0
   10.1480   -1.7970   23.7040 C   0  0  0  0  0  0  0  0  0  0  0  0
    7.4340    0.6750   22.4710 F   0  0  0  0  0  0  0  0  0  0  0  0
    9.8980    0.9210   22.8250 C   0  0  0  0  0  0  0  0  0  0  0  0
   11.3440   -0.9120   23.6620 C   0  0  0  0  0  0  0  0  0  0  0  0
   10.4030   -3.0280   24.1070 F   0  0  0  0  0  0  0  0  0  0  0  0
   11.2290    0.3580   23.2320 C   0  0  0  0  0  0  0  0  0  0  0  0
   12.3890    1.1000   23.1650 N   0  0  0  0  0  0  0  0  0  0  0  0
   13.5160    0.2430   22.8270 C   0  0  0  0  0  0  0  0  0  0  0  0
   12.4020    2.4990   22.8810 C   0  0  0  0  0  0  0  0  0  0  0  0
   13.2710   -0.8600   21.9840 C   0  0  0  0  0  0  0  0  0  0  0  0
   13.3940    3.1810   22.6880 O   0  0  0  0  0  0  0  0  0  0  0  0
   11.1200    3.3400   22.8220 C   0  0  0  0  0  0  0  0  0  0  0  0
   12.1920   -1.7230   21.9370 C   0  0  0  0  0  0  0  0  0  0  0  0
   13.1540   -2.4000   22.6530 C   0  0  0  0  0  0  0  0  0  0  0  0
   11.3410    4.7390   22.9540 O   0  0  0  0  0  0  0  0  0  0  0  0
   12.3380    5.2010   22.0440 C   0  0  0  0  0  0  0  0  0  0  0  0
  1  2  1  0
  2  3  1  0
  3  4  2  0
  3  5  1  0
  5  6  1  0
  5  7  1  0
  6  8  1  0
  7  9  1  0
  8 10  1  0
  9 10  1  0
 10 11  1  0
 11 12  2  0
 11 13  1  0
 12 14  1  0
 12 15  1  0
 13 16  2  0
 13 17  1  0
 15 18  2  0
 16 18  1  0
 18 19  1  0
 19 20  1  0
 19 21  1  0
 20 22  1  0
 21 23  2  0
 21 24  1  0
 22 25  1  0
 22 26  1  0
 25 26  1  0
 24 27  1  0
 27 28  1  0
M  END
