NIM-UNI-05f93fcc-5-nitrile
     RDKit          3D

 21 23  0  0  0  0  0  0  0  0999 V2000
    6.5460   -4.3340   20.3070 C   0  0  0  0  0  0  0  0  0  0  0  0
    5.4400   -4.0680   19.7610 N   0  0  0  0  0  0  0  0  0  0  0  0
    6.7290   -5.0610   21.4980 N   0  0  0  0  0  0  0  0  0  0  0  0
    5.8320   -6.1130   21.7730 C   0  0  0  0  0  0  0  0  0  0  0  0
    7.2900   -4.4770   22.7510 C   0  0  0  0  0  0  0  0  0  0  0  0
    4.9970   -5.9540   22.8850 C   0  0  0  0  0  0  0  0  0  0  0  0
    6.3100   -4.3440   23.7670 C   0  0  0  0  0  0  0  0  0  0  0  0
    5.6740   -5.5710   23.9820 N   0  0  0  0  0  0  0  0  0  0  0  0
    4.8230   -5.7540   25.4720 S   0  0  0  0  0  0  0  0  0  0  0  0
    4.0470   -6.9760   25.4510 O   0  0  0  0  0  0  0  0  0  0  0  0
    5.7700   -5.4920   26.5410 O   0  0  0  0  0  0  0  0  0  0  0  0
    3.6910   -4.4090   25.6170 C   0  0  0  0  0  0  0  0  0  0  0  0
    2.2800   -4.2570   25.5540 C   0  0  0  0  0  0  0  0  0  0  0  0
    4.4970   -2.9470   25.9050 S   0  0  0  0  0  0  0  0  0  0  0  0
    1.8000   -2.9620   25.7320 C   0  0  0  0  0  0  0  0  0  0  0  0
    2.9690   -2.0740   25.9510 C   0  0  0  0  0  0  0  0  0  0  0  0
    2.9840   -0.6610   26.1840 C   0  0  0  0  0  0  0  0  0  0  0  0
    4.3450   -1.3310   26.1790 C   0  0  0  0  0  0  0  0  0  0  0  0
    3.5470    0.6340   26.4420 N   0  0  0  0  0  0  0  0  0  0  0  0
    5.5610   -0.5000   26.4110 C   0  0  0  0  0  0  0  0  0  0  0  0
    5.0140    0.8560   26.5940 C   0  0  0  0  0  0  0  0  0  0  0  0
  1  2  2  3
  1  3  1  0
  3  4  1  0
  3  5  1  0
  4  6  1  0
  5  7  1  0
  6  8  1  0
  7  8  1  0
  8  9  1  0
  9 10  2  0
  9 11  2  0
  9 12  1  0
 12 13  2  0
 12 14  1  0
 13 15  1  0
 14 16  1  0
 15 16  2  0
 16 17  1  0
 17 18  2  0
 17 19  1  0
 18 20  1  0
 19 21  1  0
 20 21  2  0
M  END
