NIM-UNI-ed9fc491-4-chloroacetamide
     RDKit          3D

 33 35  0  0  0  0  0  0  0  0999 V2000
    7.6880   -3.4530   19.2460 C   0  0  0  0  0  0  0  0  0  0  0  0
    6.9440   -3.9970   20.2250 C   0  0  0  0  0  0  0  0  0  0  0  0
    5.8860   -4.6300   19.9970 O   0  0  0  0  0  0  0  0  0  0  0  0
    7.4790   -3.7990   21.5150 N   0  0  0  0  0  0  0  0  0  0  0  0
    8.5420   -2.8150   21.5040 C   0  0  0  0  0  0  0  0  0  0  0  0
    7.8360   -4.8300   22.5070 C   0  0  0  0  0  0  0  0  0  0  0  0
    9.8160   -3.6120   21.7120 C   0  0  0  0  0  0  0  0  0  0  0  0
    8.8060   -4.2800   23.5890 C   0  0  0  0  0  0  0  0  0  0  0  0
   10.0720   -3.6500   23.0950 N   0  0  0  0  0  0  0  0  0  0  0  0
   10.2570   -2.2170   23.3640 C   0  0  0  0  0  0  0  0  0  0  0  0
    9.0720   -1.4050   22.8200 C   0  0  2  0  0  0  0  0  0  0  0  0
    9.5490   -0.0500   23.1520 N   0  0  0  0  0  0  0  0  0  0  0  0
    7.7680   -1.7900   23.2900 C   0  0  0  0  0  0  0  0  0  0  0  0
    8.8690    0.9680   22.3500 C   0  0  0  0  0  0  0  0  0  0  0  0
    7.5790   -2.0380   24.6520 C   0  0  0  0  0  0  0  0  0  0  0  0
    6.6250   -1.9330   22.4410 C   0  0  0  0  0  0  0  0  0  0  0  0
    9.2860    1.3730   21.2740 O   0  0  0  0  0  0  0  0  0  0  0  0
    7.7050    1.4850   22.9230 C   0  0  2  0  0  0  0  0  0  0  0  0
    6.3150   -2.4110   25.1230 C   0  0  0  0  0  0  0  0  0  0  0  0
    5.3490   -2.3050   22.8960 C   0  0  0  0  0  0  0  0  0  0  0  0
    6.5180    0.8160   22.6480 C   0  0  0  0  0  0  0  0  0  0  0  0
    7.5540    2.7380   22.1830 N   0  0  0  0  0  0  0  0  0  0  0  0
    5.2510   -2.5340   24.2610 C   0  0  0  0  0  0  0  0  0  0  0  0
    6.3080    0.7730   21.2730 C   0  0  0  0  0  0  0  0  0  0  0  0
    7.0780    3.7930   22.8740 C   0  0  0  0  0  0  0  0  0  0  0  0
    7.0800   -0.1010   20.4780 C   0  0  0  0  0  0  0  0  0  0  0  0
    5.3270    1.6050   20.6830 C   0  0  0  0  0  0  0  0  0  0  0  0
    7.5830    5.0190   22.4360 C   0  0  0  0  0  0  0  0  0  0  0  0
    6.2710    3.6880   23.7990 O   0  0  0  0  0  0  0  0  0  0  0  0
    6.8630   -0.1580   18.9620 C   0  0  0  0  0  0  0  0  0  0  0  0
    5.0660    1.6190   19.3190 C   0  0  0  0  0  0  0  0  0  0  0  0
    5.8130    0.7330   18.3050 C   0  0  0  0  0  0  0  0  0  0  0  0
    5.5850    0.7520   17.1310 O   0  0  0  0  0  0  0  0  0  0  0  0
  1  2  1  0
  2  3  2  0
  2  4  1  0
  4  5  1  0
  4  6  1  0
  5  7  1  0
  6  8  1  0
  7  9  1  0
  8  9  1  0
  9 10  1  0
 11 10  1  1
 11 12  1  0
 11 13  1  0
 12 14  1  0
 13 15  2  0
 13 16  1  0
 14 17  2  0
 14 18  1  0
 15 19  1  0
 16 20  2  0
 18 21  1  6
 18 22  1  0
 19 23  2  0
 20 23  1  0
 21 24  1  0
 22 25  1  0
 24 26  2  0
 24 27  1  0
 25 28  1  0
 25 29  2  0
 26 30  1  0
 27 31  2  0
 30 32  2  0
 31 32  1  0
 32 33  1  0
M  END
