NIM-UNI-310206f0-4-bromoalkyne
     RDKit          3D

 21 23  0  0  0  0  0  0  0  0999 V2000
    6.5580   -3.7010   19.7960 C   0  0  0  0  0  0  0  0  0  0  0  0
    5.5900   -3.0270   18.8750 C   0  0  0  0  0  0  0  0  0  0  0  0
    6.2780   -3.8290   21.1670 N   0  0  0  0  0  0  0  0  0  0  0  0
    5.7430   -2.6950   21.8260 C   0  0  0  0  0  0  0  0  0  0  0  0
    6.5130   -5.0110   22.0180 C   0  0  0  0  0  0  0  0  0  0  0  0
    5.8570   -2.6360   23.2020 C   0  0  0  0  0  0  0  0  0  0  0  0
    7.3190   -4.6500   23.1000 C   0  0  0  0  0  0  0  0  0  0  0  0
    7.1310   -3.2520   23.5630 N   0  0  0  0  0  0  0  0  0  0  0  0
    8.2280   -2.2830   23.4370 C   0  0  0  0  0  0  0  0  0  0  0  0
    7.8840   -0.9750   23.0430 C   0  0  0  0  0  0  0  0  0  0  0  0
    9.5910   -2.5670   23.6810 C   0  0  0  0  0  0  0  0  0  0  0  0
    6.6330   -0.5630   22.7780 F   0  0  0  0  0  0  0  0  0  0  0  0
    8.9630    0.0410   22.8990 C   0  0  0  0  0  0  0  0  0  0  0  0
   10.6100   -1.6520   23.5620 C   0  0  0  0  0  0  0  0  0  0  0  0
    9.9800   -3.7760   24.0510 F   0  0  0  0  0  0  0  0  0  0  0  0
   10.3210   -0.3680   23.1780 C   0  0  0  0  0  0  0  0  0  0  0  0
   11.3470    0.5970   23.0410 C   0  0  0  0  0  0  0  0  0  0  0  0
   12.8420    0.2850   22.9560 C   0  0  0  0  0  0  0  0  0  0  0  0
   11.5900    2.1000   22.9290 C   0  0  0  0  0  0  0  0  0  0  0  0
   13.6960    1.2740   22.8360 N   0  0  0  0  0  0  0  0  0  0  0  0
   12.9250    2.3390   22.8250 N   0  0  0  0  0  0  0  0  0  0  0  0
  1  2  2  3
  1  3  1  0
  3  4  1  0
  3  5  1  0
  4  6  1  0
  5  7  1  0
  6  8  1  0
  7  8  1  0
  8  9  1  0
  9 10  2  0
  9 11  1  0
 10 12  1  0
 10 13  1  0
 11 14  2  0
 11 15  1  0
 13 16  2  0
 14 16  1  0
 16 17  1  0
 17 18  1  0
 17 19  2  0
 18 20  2  0
 19 21  1  0
 20 21  1  0
M  END
