NIM-UNI-310206f0-65-nitrile
     RDKit          3D

 34 38  0  0  0  0  0  0  0  0999 V2000
    6.8580   -3.8440   20.1090 C   0  0  0  0  0  0  0  0  0  0  0  0
    5.6710   -3.8610   19.6230 N   0  0  0  0  0  0  0  0  0  0  0  0
    7.1730   -3.1800   21.3070 N   0  0  0  0  0  0  0  0  0  0  0  0
    7.5020   -3.9120   22.5580 C   0  0  0  0  0  0  0  0  0  0  0  0
    8.0000   -1.9760   21.2560 C   0  0  0  0  0  0  0  0  0  0  0  0
    8.4390   -3.3190   23.4880 C   0  0  0  0  0  0  0  0  0  0  0  0
    9.4420   -2.4030   21.5470 C   0  0  0  0  0  0  0  0  0  0  0  0
    9.7050   -2.6970   22.9350 N   0  0  0  0  0  0  0  0  0  0  0  0
   10.0810   -1.4100   23.0760 C   0  0  0  0  0  0  0  0  0  0  0  0
   11.4400   -0.7250   22.8150 C   0  0  0  0  0  0  0  0  0  0  0  0
    9.0930   -0.6460   23.4330 C   0  0  0  0  0  0  0  0  0  0  0  0
   12.5440   -1.3960   22.4510 F   0  0  0  0  0  0  0  0  0  0  0  0
   11.4510    0.8090   22.9570 C   0  0  0  0  0  0  0  0  0  0  0  0
    9.1090    0.6860   23.5570 C   0  0  0  0  0  0  0  0  0  0  0  0
    7.9630   -1.2530   23.6710 F   0  0  0  0  0  0  0  0  0  0  0  0
   10.2170    1.4390   23.3150 C   0  0  0  0  0  0  0  0  0  0  0  0
    9.8800    2.7650   23.4640 N   0  0  0  0  0  0  0  0  0  0  0  0
   10.4810    3.7190   24.1680 C   0  0  0  0  0  0  0  0  0  0  0  0
    8.4940    2.9810   23.3360 C   0  0  0  0  0  0  0  0  0  0  0  0
   10.2340    4.0170   25.4280 O   0  0  0  0  0  0  0  0  0  0  0  0
   11.3270    4.5620   23.5400 C   0  0  0  0  0  0  0  0  0  0  0  0
    7.7910    2.9650   21.9930 C   0  0  0  0  0  0  0  0  0  0  0  0
    7.7100    3.2190   24.4700 C   0  0  0  0  0  0  0  0  0  0  0  0
   11.5850    5.8910   23.8950 C   0  0  0  0  0  0  0  0  0  0  0  0
   12.0110    3.9360   22.3330 C   0  0  0  0  0  0  0  0  0  0  0  0
    6.3120    3.1640   21.5950 C   0  0  0  0  0  0  0  0  0  0  0  0
    6.3710    3.4140   24.2540 C   0  0  0  0  0  0  0  0  0  0  0  0
    7.9290    3.3210   25.8520 C   0  0  0  0  0  0  0  0  0  0  0  0
   12.5250    6.6660   23.0490 C   0  0  0  0  0  0  0  0  0  0  0  0
   12.8650    4.5720   21.5390 N   0  0  0  0  0  0  0  0  0  0  0  0
    5.7840    3.3860   23.0090 C   0  0  0  0  0  0  0  0  0  0  0  0
    5.7680    3.6290   25.4750 N   0  0  0  0  0  0  0  0  0  0  0  0
    6.6990    3.5770   26.4670 C   0  0  0  0  0  0  0  0  0  0  0  0
   13.1190    5.9490   21.8850 C   0  0  0  0  0  0  0  0  0  0  0  0
  1  2  2  3
  1  3  1  0
  3  4  1  0
  3  5  1  0
  4  6  1  0
  5  7  1  0
  6  8  1  0
  7  8  1  0
  8  9  1  0
  9 10  2  0
  9 11  1  0
 10 12  1  0
 10 13  1  0
 11 14  2  0
 11 15  1  0
 13 16  2  0
 14 16  1  0
 16 17  1  0
 17 18  1  0
 17 19  1  0
 18 20  2  0
 18 21  1  0
 19 22  2  0
 19 23  1  0
 21 24  2  0
 21 25  1  0
 22 26  1  0
 23 27  2  0
 23 28  1  0
 24 29  1  0
 25 30  2  0
 26 31  2  0
 27 31  1  0
 27 32  1  0
 28 33  2  0
 32 33  1  0
 29 34  2  0
 30 34  1  0
M  END
