NIM-UNI-310206f0-66-chloroacetamide
     RDKit          3D

 38 42  0  0  0  0  0  0  0  0999 V2000
    7.1660   -3.2840   19.4460 C   0  0  0  0  0  0  0  0  0  0  0  0
    5.7140   -2.9020   19.6430 C   0  0  0  0  0  0  0  0  0  0  0  0
    4.8250   -3.5540   19.1300 O   0  0  0  0  0  0  0  0  0  0  0  0
    5.3870   -1.8110   20.4550 N   0  0  0  0  0  0  0  0  0  0  0  0
    5.5680   -1.9460   21.9150 C   0  0  0  0  0  0  0  0  0  0  0  0
    5.3370   -0.4610   19.8630 C   0  0  0  0  0  0  0  0  0  0  0  0
    4.9260   -0.8810   22.5920 C   0  0  0  0  0  0  0  0  0  0  0  0
    4.6410    0.5590   20.7770 C   0  0  0  0  0  0  0  0  0  0  0  0
    5.1630    0.4210   22.1620 N   0  0  0  0  0  0  0  0  0  0  0  0
    6.4420    0.9150   22.3390 C   0  0  0  0  0  0  0  0  0  0  0  0
    7.4300    0.1830   23.2050 C   0  0  0  0  0  0  0  0  0  0  0  0
    6.9150    2.0900   21.7480 C   0  0  0  0  0  0  0  0  0  0  0  0
    7.1190   -0.9570   23.8460 F   0  0  0  0  0  0  0  0  0  0  0  0
    8.7110    0.6700   23.3670 C   0  0  0  0  0  0  0  0  0  0  0  0
    8.3300    2.5660   21.9650 C   0  0  0  0  0  0  0  0  0  0  0  0
    6.1280    2.8330   20.9630 F   0  0  0  0  0  0  0  0  0  0  0  0
    9.2090    1.8410   22.7730 C   0  0  0  0  0  0  0  0  0  0  0  0
   10.4540    2.2770   22.9460 N   0  0  0  0  0  0  0  0  0  0  0  0
   11.4450    1.3420   22.8910 C   0  0  0  0  0  0  0  0  0  0  0  0
   10.6090    3.5470   23.5940 C   0  0  0  0  0  0  0  0  0  0  0  0
   12.6420    1.6010   22.9590 O   0  0  0  0  0  0  0  0  0  0  0  0
   11.0100    0.0150   22.7500 N   0  0  0  0  0  0  0  0  0  0  0  0
    9.7800    3.8890   24.8360 C   0  0  0  0  0  0  0  0  0  0  0  0
   11.5350    4.5080   23.0930 C   0  0  0  0  0  0  0  0  0  0  0  0
   11.7480   -0.9420   23.3380 C   0  0  0  0  0  0  0  0  0  0  0  0
   10.0310    5.2520   25.4440 C   0  0  0  0  0  0  0  0  0  0  0  0
   11.7380    5.7860   23.7010 C   0  0  0  0  0  0  0  0  0  0  0  0
   12.4120    4.5250   22.0200 C   0  0  0  0  0  0  0  0  0  0  0  0
   11.9870   -2.0270   22.3150 C   0  0  0  0  0  0  0  0  0  0  0  0
   11.0430    6.2040   24.8420 C   0  0  0  0  0  0  0  0  0  0  0  0
   12.7070    6.4700   22.9650 N   0  0  0  0  0  0  0  0  0  0  0  0
   13.1230    5.6870   21.9250 C   0  0  0  0  0  0  0  0  0  0  0  0
   13.3100   -2.6600   22.2050 C   0  0  0  0  0  0  0  0  0  0  0  0
   11.0190   -2.4930   21.4500 C   0  0  0  0  0  0  0  0  0  0  0  0
   13.6380   -3.7520   21.1940 C   0  0  0  0  0  0  0  0  0  0  0  0
   11.3890   -3.6180   20.4350 C   0  0  0  0  0  0  0  0  0  0  0  0
   12.7310   -4.1850   20.3600 C   0  0  0  0  0  0  0  0  0  0  0  0
   10.5430   -4.1610   19.5740 F   0  0  0  0  0  0  0  0  0  0  0  0
  1  2  1  0
  2  3  2  0
  2  4  1  0
  4  5  1  0
  4  6  1  0
  5  7  1  0
  6  8  1  0
  7  9  1  0
  8  9  1  0
  9 10  1  0
 10 11  2  0
 10 12  1  0
 11 13  1  0
 11 14  1  0
 12 15  2  0
 12 16  1  0
 14 17  2  0
 15 17  1  0
 17 18  1  0
 18 19  1  0
 18 20  1  0
 19 21  2  0
 19 22  1  0
 20 23  2  0
 20 24  1  0
 22 25  1  0
 23 26  1  0
 24 27  2  0
 24 28  1  0
 25 29  1  0
 26 30  2  0
 27 30  1  0
 27 31  1  0
 28 32  2  0
 31 32  1  0
 29 33  2  0
 29 34  1  0
 33 35  1  0
 34 36  2  0
 35 37  2  0
 36 37  1  0
 36 38  1  0
M  END
