NIM-UNI-bb9030bf-13-chloroacetamide
     RDKit          3D

 20 21  0  0  0  0  0  0  0  0999 V2000
    7.8580   -3.8220   20.0480 C   0  0  0  0  0  0  0  0  0  0  0  0
    6.8520   -2.8690   19.6210 C   0  0  0  0  0  0  0  0  0  0  0  0
    5.7230   -3.2210   19.1830 O   0  0  0  0  0  0  0  0  0  0  0  0
    7.4160   -1.5900   19.7230 N   0  0  0  0  0  0  0  0  0  0  0  0
    7.0390   -0.6720   20.7640 C   0  0  1  0  0  0  0  0  0  0  0  0
    8.2440    0.0210   21.4550 C   0  0  0  0  0  0  0  0  0  0  0  0
    6.2580    0.2510   19.9070 C   0  0  0  0  0  0  0  0  0  0  0  0
    8.7190    1.1080   21.0630 O   0  0  0  0  0  0  0  0  0  0  0  0
    8.7310   -0.7500   22.6410 N   0  0  0  0  0  0  0  0  0  0  0  0
    6.5910    0.3580   18.5880 C   0  0  0  0  0  0  0  0  0  0  0  0
    5.2120    0.9920   20.3680 C   0  0  0  0  0  0  0  0  0  0  0  0
    9.9780   -1.3110   22.7840 C   0  0  0  0  0  0  0  0  0  0  0  0
    5.8940    1.1860   17.7460 C   0  0  0  0  0  0  0  0  0  0  0  0
    4.4560    1.8410   19.6330 N   0  0  0  0  0  0  0  0  0  0  0  0
   11.1150   -0.3960   22.8550 C   0  0  0  0  0  0  0  0  0  0  0  0
    4.7550    1.9690   18.3340 C   0  0  0  0  0  0  0  0  0  0  0  0
   11.0990    0.9770   23.1270 C   0  0  0  0  0  0  0  0  0  0  0  0
   12.4320   -0.8150   22.6270 N   0  0  0  0  0  0  0  0  0  0  0  0
   12.5010    1.5120   23.0790 C   0  0  0  0  0  0  0  0  0  0  0  0
   13.2530    0.3200   22.7550 C   0  0  0  0  0  0  0  0  0  0  0  0
  1  2  1  0
  2  3  2  0
  2  4  1  0
  5  4  1  6
  5  6  1  0
  5  7  1  0
  6  8  2  0
  6  9  1  0
  7 10  2  0
  7 11  1  0
  9 12  1  0
 10 13  1  0
 11 14  2  0
 12 15  1  0
 13 16  2  0
 14 16  1  0
 15 17  2  0
 15 18  1  0
 17 19  1  0
 18 20  1  0
 19 20  2  0
M  END
