NIM-UNI-05f93fcc-2-vinylsulfonamide
     RDKit          3D

 25 27  0  0  0  0  0  0  0  0999 V2000
    7.9830   -3.4620   19.4800 C   0  0  0  0  0  0  0  0  0  0  0  0
    6.9120   -2.8350   20.3780 C   0  0  0  0  0  0  0  0  0  0  0  0
    5.6630   -3.9700   20.9190 S   0  0  0  0  0  0  0  0  0  0  0  0
    4.7380   -3.2370   21.6730 O   0  0  0  0  0  0  0  0  0  0  0  0
    5.0510   -4.6660   19.8170 O   0  0  0  0  0  0  0  0  0  0  0  0
    6.4710   -5.0080   21.9950 N   0  0  0  0  0  0  0  0  0  0  0  0
    7.1110   -4.3430   23.0590 C   0  0  0  0  0  0  0  0  0  0  0  0
    5.7280   -6.2220   22.3610 C   0  0  0  0  0  0  0  0  0  0  0  0
    6.3370   -4.1570   24.1800 C   0  0  0  0  0  0  0  0  0  0  0  0
    4.8600   -5.9950   23.4210 C   0  0  0  0  0  0  0  0  0  0  0  0
    5.6780   -5.4230   24.5060 N   0  0  0  0  0  0  0  0  0  0  0  0
    4.8890   -5.4110   26.0010 S   0  0  0  0  0  0  0  0  0  0  0  0
    3.9320   -6.5000   26.0370 O   0  0  0  0  0  0  0  0  0  0  0  0
    5.8930   -5.2440   27.0220 O   0  0  0  0  0  0  0  0  0  0  0  0
    3.9430   -3.9260   26.0430 C   0  0  0  0  0  0  0  0  0  0  0  0
    4.2530   -2.5760   26.0780 C   0  0  0  0  0  0  0  0  0  0  0  0
    2.2410   -4.1270   26.0450 S   0  0  0  0  0  0  0  0  0  0  0  0
    3.1280   -1.6060   26.1160 C   0  0  0  0  0  0  0  0  0  0  0  0
    1.9270   -2.4460   26.1040 C   0  0  0  0  0  0  0  0  0  0  0  0
    0.6170   -1.8360   26.1460 C   0  0  0  0  0  0  0  0  0  0  0  0
   -0.5330   -2.6170   25.5330 C   0  0  0  0  0  0  0  0  0  0  0  0
    0.3780   -0.5700   26.7250 C   0  0  0  0  0  0  0  0  0  0  0  0
   -1.9110   -1.9890   25.5710 C   0  0  0  0  0  0  0  0  0  0  0  0
   -1.0380    0.1230   26.7880 C   0  0  0  0  0  0  0  0  0  0  0  0
   -2.1230   -0.6000   26.2150 C   0  0  0  0  0  0  0  0  0  0  0  0
  1  2  1  0
  3  2  1  0
  3  4  2  0
  3  5  2  0
  3  6  1  0
  6  7  1  0
  6  8  1  0
  7  9  1  0
  8 10  1  0
  9 11  1  0
 10 11  1  0
 11 12  1  0
 12 13  2  0
 12 14  2  0
 12 15  1  0
 15 16  2  0
 15 17  1  0
 16 18  1  0
 17 19  1  0
 18 19  2  0
 19 20  1  0
 20 21  2  0
 20 22  1  0
 21 23  1  0
 22 24  2  0
 23 25  2  0
 24 25  1  0
M  END
