NIM-UNI-310206f0-37-bromoalkyne
     RDKit          3D

 26 28  0  0  0  0  0  0  0  0999 V2000
    6.7760   -3.5750   19.8300 C   0  0  0  0  0  0  0  0  0  0  0  0
    5.6610   -3.0540   18.9800 C   0  0  0  0  0  0  0  0  0  0  0  0
    6.8070   -3.3070   21.1790 N   0  0  0  0  0  0  0  0  0  0  0  0
    6.6260   -4.2180   22.3150 C   0  0  0  0  0  0  0  0  0  0  0  0
    6.8380   -1.9190   21.6020 C   0  0  0  0  0  0  0  0  0  0  0  0
    7.8550   -3.8400   23.2300 C   0  0  0  0  0  0  0  0  0  0  0  0
    6.5190   -1.8550   23.0960 C   0  0  0  0  0  0  0  0  0  0  0  0
    7.5810   -2.5220   23.8920 N   0  0  0  0  0  0  0  0  0  0  0  0
    8.7320   -1.5930   23.8770 C   0  0  0  0  0  0  0  0  0  0  0  0
    8.3050   -0.1090   23.9020 C   0  0  0  0  0  0  0  0  0  0  0  0
   10.0620   -1.9690   23.8290 C   0  0  0  0  0  0  0  0  0  0  0  0
    7.0360    0.3250   23.9690 F   0  0  0  0  0  0  0  0  0  0  0  0
    9.4740    0.9280   23.8280 C   0  0  0  0  0  0  0  0  0  0  0  0
   11.1620   -0.9930   23.7650 C   0  0  0  0  0  0  0  0  0  0  0  0
   10.4430   -3.2620   23.8240 F   0  0  0  0  0  0  0  0  0  0  0  0
   10.9140    0.3420   23.7430 C   0  0  0  0  0  0  0  0  0  0  0  0
   12.0600    1.1730   23.6190 N   0  0  0  0  0  0  0  0  0  0  0  0
   13.0620    0.4110   22.8890 C   0  0  0  0  0  0  0  0  0  0  0  0
   11.8720    2.5080   23.1300 C   0  0  0  0  0  0  0  0  0  0  0  0
   13.0740   -1.1300   22.8930 C   0  0  0  0  0  0  0  0  0  0  0  0
   12.7650    3.3030   22.8740 O   0  0  0  0  0  0  0  0  0  0  0  0
   10.4730    3.0730   22.8700 C   0  0  0  0  0  0  0  0  0  0  0  0
   13.1330   -1.9010   21.8570 C   0  0  0  0  0  0  0  0  0  0  0  0
   11.7990   -1.8810   22.0970 C   0  0  0  0  0  0  0  0  0  0  0  0
    9.7640    2.4520   22.0780 O   0  0  0  0  0  0  0  0  0  0  0  0
    8.4720    3.0260   21.9270 C   0  0  0  0  0  0  0  0  0  0  0  0
  1  2  2  3
  1  3  1  0
  3  4  1  0
  3  5  1  0
  4  6  1  0
  5  7  1  0
  6  8  1  0
  7  8  1  0
  8  9  1  0
  9 10  2  0
  9 11  1  0
 10 12  1  0
 10 13  1  0
 11 14  2  0
 11 15  1  0
 13 16  2  0
 14 16  1  0
 16 17  1  0
 17 18  1  0
 17 19  1  0
 18 20  1  0
 19 21  2  0
 19 22  1  0
 20 23  1  0
 20 24  1  0
 23 24  1  0
 22 25  1  0
 25 26  1  0
M  END
