NIM-UNI-310206f0-34-chloroacetamide
     RDKit          3D

 31 34  0  0  0  0  0  0  0  0999 V2000
    7.0560   -3.0680   19.0030 C   0  0  0  0  0  0  0  0  0  0  0  0
    6.1050   -3.5780   20.0590 C   0  0  0  0  0  0  0  0  0  0  0  0
    5.1720   -4.3130   19.7670 O   0  0  0  0  0  0  0  0  0  0  0  0
    6.3470   -3.2430   21.3500 N   0  0  0  0  0  0  0  0  0  0  0  0
    7.4450   -3.8700   22.1210 C   0  0  0  0  0  0  0  0  0  0  0  0
    6.0730   -1.8340   21.6360 C   0  0  0  0  0  0  0  0  0  0  0  0
    7.1360   -3.6990   23.6340 C   0  0  0  0  0  0  0  0  0  0  0  0
    6.0080   -1.6260   23.1400 C   0  0  0  0  0  0  0  0  0  0  0  0
    7.1570   -2.2390   23.7960 N   0  0  0  0  0  0  0  0  0  0  0  0
    8.4170   -1.5730   23.4480 C   0  0  0  0  0  0  0  0  0  0  0  0
    8.1260   -0.1690   22.8870 C   0  0  0  0  0  0  0  0  0  0  0  0
    9.7010   -2.0710   23.5760 C   0  0  0  0  0  0  0  0  0  0  0  0
    6.9080    0.3800   22.7310 F   0  0  0  0  0  0  0  0  0  0  0  0
    9.3690    0.6600   22.4800 C   0  0  0  0  0  0  0  0  0  0  0  0
   10.8950   -1.2750   23.1850 C   0  0  0  0  0  0  0  0  0  0  0  0
    9.9520   -3.2790   24.0540 F   0  0  0  0  0  0  0  0  0  0  0  0
   10.7490   -0.0050   22.6800 C   0  0  0  0  0  0  0  0  0  0  0  0
   11.8790    0.7610   22.3340 N   0  0  0  0  0  0  0  0  0  0  0  0
   13.1170    0.0360   22.4880 C   0  0  0  0  0  0  0  0  0  0  0  0
   11.7040    2.1510   23.2470 S   0  0  0  0  0  0  0  0  0  0  0  0
   13.3090   -1.2220   21.6370 C   0  0  0  0  0  0  0  0  0  0  0  0
   10.4280    2.7910   22.9670 O   0  0  0  0  0  0  0  0  0  0  0  0
   12.9710    2.8070   23.2050 O   0  0  0  0  0  0  0  0  0  0  0  0
   11.5260    0.7260   24.2700 C   0  0  0  0  0  0  0  0  0  0  0  0
   12.4670   -2.1830   21.4140 C   0  0  0  0  0  0  0  0  0  0  0  0
   13.1640   -2.6510   22.4860 C   0  0  0  0  0  0  0  0  0  0  0  0
   12.7200   -0.1380   24.2240 C   0  0  0  0  0  0  0  0  0  0  0  0
   10.5150    0.2010   25.0670 N   0  0  0  0  0  0  0  0  0  0  0  0
   12.4000   -1.2850   25.0610 C   0  0  0  0  0  0  0  0  0  0  0  0
   11.0570   -1.0390   25.5630 O   0  0  0  0  0  0  0  0  0  0  0  0
   13.3430   -2.4630   25.2950 C   0  0  0  0  0  0  0  0  0  0  0  0
  1  2  1  0
  2  3  2  0
  2  4  1  0
  4  5  1  0
  4  6  1  0
  5  7  1  0
  6  8  1  0
  7  9  1  0
  8  9  1  0
  9 10  1  0
 10 11  2  0
 10 12  1  0
 11 13  1  0
 11 14  1  0
 12 15  2  0
 12 16  1  0
 14 17  2  0
 15 17  1  0
 17 18  1  0
 18 19  1  0
 20 18  1  0
 19 21  1  0
 20 22  2  0
 20 23  2  0
 20 24  1  0
 21 25  1  0
 21 26  1  0
 25 26  1  0
 24 27  1  0
 24 28  2  0
 27 29  2  0
 28 30  1  0
 29 30  1  0
 29 31  1  0
M  END
