NIM-NMI-8bb27a2b-5-chloroacetamide
     RDKit          3D

 31 32  0  0  0  0  0  0  0  0999 V2000
    7.9410   -3.5050   20.3270 C   0  0  0  0  0  0  0  0  0  0  0  0
    7.1880   -2.2110   19.7550 C   0  0  0  0  0  0  0  0  0  0  0  0
    6.8190   -2.9330   18.7430 O   0  0  0  0  0  0  0  0  0  0  0  0
    7.7050   -1.5710   20.9780 N   0  0  0  0  0  0  0  0  0  0  0  0
    9.0280   -1.7940   21.6540 C   0  0  0  0  0  0  0  0  0  0  0  0
    6.8660   -0.4150   21.3750 C   0  0  1  0  0  0  0  0  0  0  0  0
   10.0090   -0.7850   22.0600 C   0  0  0  0  0  0  0  0  0  0  0  0
    9.5700   -2.9220   22.0170 N   0  0  0  0  0  0  0  0  0  0  0  0
    7.5360    0.4470   22.4990 C   0  0  0  0  0  0  0  0  0  0  0  0
    6.3350    0.1950   20.2210 C   0  0  0  0  0  0  0  0  0  0  0  0
   11.1630   -1.4940   22.6430 C   0  0  0  0  0  0  0  0  0  0  0  0
   10.8500   -2.6930   22.5980 O   0  0  0  0  0  0  0  0  0  0  0  0
    8.4860    0.4420   23.2650 O   0  0  0  0  0  0  0  0  0  0  0  0
    6.6100    1.4650   22.4540 N   0  0  0  0  0  0  0  0  0  0  0  0
    5.0970    1.0200   20.3000 C   0  0  0  0  0  0  0  0  0  0  0  0
    6.8850    0.0860   18.9440 C   0  0  0  0  0  0  0  0  0  0  0  0
   12.3590   -1.0770   23.1440 C   0  0  0  0  0  0  0  0  0  0  0  0
    5.5240    1.3390   23.2590 C   0  0  0  0  0  0  0  0  0  0  0  0
    4.5890    1.6100   19.1400 C   0  0  0  0  0  0  0  0  0  0  0  0
    6.3830    0.6670   17.8290 N   0  0  0  0  0  0  0  0  0  0  0  0
   12.5180    0.2920   23.0600 C   0  0  0  0  0  0  0  0  0  0  0  0
   12.7540   -1.5890   24.5420 C   0  0  0  0  0  0  0  0  0  0  0  0
   13.3110   -1.7130   22.1630 C   0  0  0  0  0  0  0  0  0  0  0  0
    4.6590    2.4120   23.5010 C   0  0  0  0  0  0  0  0  0  0  0  0
    5.2640    1.4080   17.9350 C   0  0  0  0  0  0  0  0  0  0  0  0
    5.2040    3.6350   23.2720 O   0  0  0  0  0  0  0  0  0  0  0  0
    3.4010    2.0920   23.9340 O   0  0  0  0  0  0  0  0  0  0  0  0
    2.6300    1.0070   23.3500 C   0  0  0  0  0  0  0  0  0  0  0  0
    2.6340    1.0490   21.9420 C   0  0  0  0  0  0  0  0  0  0  0  0
    3.3310   -0.2590   23.8420 C   0  0  0  0  0  0  0  0  0  0  0  0
    1.2030    1.0050   23.9110 C   0  0  0  0  0  0  0  0  0  0  0  0
  1  2  1  0
  2  3  2  0
  2  4  1  0
  4  5  1  0
  4  6  1  0
  5  7  1  0
  5  8  2  0
  6  9  1  6
  6 10  1  0
  7 11  2  0
  8 12  1  0
 11 12  1  0
  9 13  2  0
  9 14  1  0
 10 15  2  0
 10 16  1  0
 11 17  1  0
 14 18  1  0
 15 19  1  0
 16 20  2  0
 17 21  1  0
 17 22  1  0
 17 23  1  0
 18 24  1  0
 19 25  2  0
 20 25  1  0
 24 26  2  0
 24 27  1  0
 28 27  1  0
 28 29  1  0
 28 30  1  0
 28 31  1  0
M  END
