NIM-NMI-8bb27a2b-13-bromoalkyne
     RDKit          3D

 30 32  0  0  0  0  0  0  0  0999 V2000
    6.7830   -3.6870   19.3500 C   0  0  0  0  0  0  0  0  0  0  0  0
    5.7510   -4.5630   19.9700 C   0  0  0  0  0  0  0  0  0  0  0  0
    6.7050   -2.3420   19.2510 N   0  0  0  0  0  0  0  0  0  0  0  0
    7.0570   -1.9510   17.9040 C   0  0  0  0  0  0  0  0  0  0  0  0
    7.3340   -1.6860   20.3150 C   0  0  1  0  0  0  0  0  0  0  0  0
    7.6340   -0.7150   17.6020 C   0  0  0  0  0  0  0  0  0  0  0  0
    6.9590   -2.5980   16.7460 N   0  0  0  0  0  0  0  0  0  0  0  0
    7.4650   -0.1890   20.5810 C   0  0  0  0  0  0  0  0  0  0  0  0
    6.7680   -2.2170   21.4680 C   0  0  0  0  0  0  0  0  0  0  0  0
    7.8270   -0.8380   16.2840 C   0  0  0  0  0  0  0  0  0  0  0  0
    7.4390   -1.8880   15.8130 O   0  0  0  0  0  0  0  0  0  0  0  0
    7.1060    0.6800   19.7960 O   0  0  0  0  0  0  0  0  0  0  0  0
    8.0200   -0.1170   21.8070 N   0  0  0  0  0  0  0  0  0  0  0  0
    5.4460   -1.9140   21.7820 C   0  0  0  0  0  0  0  0  0  0  0  0
    7.4760   -3.0520   22.3310 C   0  0  0  0  0  0  0  0  0  0  0  0
    8.3750    0.1500   15.6050 C   0  0  0  0  0  0  0  0  0  0  0  0
    8.9050    0.8910   21.8970 C   0  0  0  0  0  0  0  0  0  0  0  0
    4.8830   -2.4550   22.9390 C   0  0  0  0  0  0  0  0  0  0  0  0
    6.9430   -3.5930   23.4640 N   0  0  0  0  0  0  0  0  0  0  0  0
    8.1950    0.1190   14.4030 C   0  0  0  0  0  0  0  0  0  0  0  0
    9.6980    0.1700   14.8430 C   0  0  0  0  0  0  0  0  0  0  0  0
    7.8320    1.3320   15.8830 C   0  0  0  0  0  0  0  0  0  0  0  0
   10.1470    0.2400   22.4240 C   0  0  0  0  0  0  0  0  0  0  0  0
    5.6570   -3.2840   23.7470 C   0  0  0  0  0  0  0  0  0  0  0  0
   10.2110   -1.1110   22.3980 C   0  0  0  0  0  0  0  0  0  0  0  0
   11.2650    0.8680   22.9560 C   0  0  0  0  0  0  0  0  0  0  0  0
   11.2590   -1.8090   22.8750 C   0  0  0  0  0  0  0  0  0  0  0  0
   12.3820    0.1650   23.4640 C   0  0  0  0  0  0  0  0  0  0  0  0
   12.3550   -1.2340   23.4300 C   0  0  0  0  0  0  0  0  0  0  0  0
   13.5820   -2.2180   24.0410 Cl  0  0  0  0  0  0  0  0  0  0  0  0
  1  2  2  3
  1  3  1  0
  3  4  1  0
  3  5  1  0
  4  6  1  0
  4  7  2  0
  5  8  1  6
  5  9  1  0
  6 10  2  0
  7 11  1  0
 10 11  1  0
  8 12  2  0
  8 13  1  0
  9 14  2  0
  9 15  1  0
 10 16  1  0
 13 17  1  0
 14 18  1  0
 15 19  2  0
 16 20  1  0
 16 21  1  0
 16 22  1  0
 17 23  1  0
 18 24  2  0
 19 24  1  0
 23 25  2  0
 23 26  1  0
 25 27  1  0
 26 28  2  0
 27 29  2  0
 28 29  1  0
 29 30  1  0
M  END
