NIM-UNI-05f93fcc-9-vinylsulfonamide
     RDKit          3D

 24 26  0  0  0  0  0  0  0  0999 V2000
    7.5050   -3.0930   18.9100 C   0  0  0  0  0  0  0  0  0  0  0  0
    7.2040   -2.9300   20.3870 C   0  0  0  0  0  0  0  0  0  0  0  0
    5.9410   -4.0950   20.7760 S   0  0  0  0  0  0  0  0  0  0  0  0
    4.9380   -3.3570   21.4330 O   0  0  0  0  0  0  0  0  0  0  0  0
    5.4910   -4.8480   19.6410 O   0  0  0  0  0  0  0  0  0  0  0  0
    6.6570   -5.1150   21.9170 N   0  0  0  0  0  0  0  0  0  0  0  0
    7.2370   -4.4440   23.0280 C   0  0  0  0  0  0  0  0  0  0  0  0
    5.8510   -6.2440   22.2040 C   0  0  0  0  0  0  0  0  0  0  0  0
    6.4150   -4.1680   24.0970 C   0  0  0  0  0  0  0  0  0  0  0  0
    4.9480   -5.9230   23.2360 C   0  0  0  0  0  0  0  0  0  0  0  0
    5.6960   -5.3940   24.4180 N   0  0  0  0  0  0  0  0  0  0  0  0
    4.8700   -5.3940   25.9010 S   0  0  0  0  0  0  0  0  0  0  0  0
    3.9140   -6.4830   25.9120 O   0  0  0  0  0  0  0  0  0  0  0  0
    5.8600   -5.2530   26.9440 O   0  0  0  0  0  0  0  0  0  0  0  0
    3.9210   -3.9120   25.9870 C   0  0  0  0  0  0  0  0  0  0  0  0
    4.2270   -2.5580   26.0390 C   0  0  0  0  0  0  0  0  0  0  0  0
    2.2210   -4.1130   26.0220 S   0  0  0  0  0  0  0  0  0  0  0  0
    3.1000   -1.5930   26.1190 C   0  0  0  0  0  0  0  0  0  0  0  0
    1.8970   -2.4340   26.1220 C   0  0  0  0  0  0  0  0  0  0  0  0
    0.5810   -1.8300   26.2090 C   0  0  0  0  0  0  0  0  0  0  0  0
   -0.5660   -2.5540   25.9630 N   0  0  0  0  0  0  0  0  0  0  0  0
    0.3410   -0.4580   26.5580 O   0  0  0  0  0  0  0  0  0  0  0  0
   -1.5450   -1.7040   26.1440 C   0  0  0  0  0  0  0  0  0  0  0  0
   -1.0280   -0.3440   26.5270 C   0  0  0  0  0  0  0  0  0  0  0  0
  1  2  1  0
  3  2  1  0
  3  4  2  0
  3  5  2  0
  3  6  1  0
  6  7  1  0
  6  8  1  0
  7  9  1  0
  8 10  1  0
  9 11  1  0
 10 11  1  0
 11 12  1  0
 12 13  2  0
 12 14  2  0
 12 15  1  0
 15 16  2  0
 15 17  1  0
 16 18  1  0
 17 19  1  0
 18 19  2  0
 19 20  1  0
 20 21  2  0
 20 22  1  0
 21 23  1  0
 22 24  1  0
 23 24  2  0
M  END
