NIM-UNI-310206f0-13-chloroacetamide
     RDKit          3D

 30 32  0  0  0  0  0  0  0  0999 V2000
    7.1670   -3.0190   18.8730 C   0  0  0  0  0  0  0  0  0  0  0  0
    6.2610   -3.4540   19.9920 C   0  0  0  0  0  0  0  0  0  0  0  0
    5.3200   -4.2180   19.7690 O   0  0  0  0  0  0  0  0  0  0  0  0
    6.5540   -3.0060   21.2510 N   0  0  0  0  0  0  0  0  0  0  0  0
    7.5630   -3.6210   22.1200 C   0  0  0  0  0  0  0  0  0  0  0  0
    6.6060   -1.5640   21.3690 C   0  0  0  0  0  0  0  0  0  0  0  0
    7.1930   -3.2560   23.5900 C   0  0  0  0  0  0  0  0  0  0  0  0
    6.3510   -1.1690   22.8180 C   0  0  0  0  0  0  0  0  0  0  0  0
    7.3450   -1.7770   23.7190 N   0  0  0  0  0  0  0  0  0  0  0  0
    8.5920   -1.1110   23.3610 C   0  0  0  0  0  0  0  0  0  0  0  0
    9.8310   -1.9510   23.5340 C   0  0  0  0  0  0  0  0  0  0  0  0
    8.6240    0.2190   22.8830 C   0  0  0  0  0  0  0  0  0  0  0  0
    9.9140   -3.1890   23.9700 F   0  0  0  0  0  0  0  0  0  0  0  0
   11.1030   -1.2520   23.1390 C   0  0  0  0  0  0  0  0  0  0  0  0
    9.8820    0.9120   22.4890 C   0  0  0  0  0  0  0  0  0  0  0  0
    7.4780    0.9500   22.7500 F   0  0  0  0  0  0  0  0  0  0  0  0
   11.0350    0.1940   22.6110 C   0  0  0  0  0  0  0  0  0  0  0  0
   12.3290    0.6130   22.2700 N   0  0  0  0  0  0  0  0  0  0  0  0
   12.8620   -0.5760   22.8460 C   0  0  0  0  0  0  0  0  0  0  0  0
   12.8370    2.1420   22.7440 S   0  0  0  0  0  0  0  0  0  0  0  0
   12.9230   -0.4850   24.2180 N   0  0  0  0  0  0  0  0  0  0  0  0
   13.1660   -1.6240   22.0740 N   0  0  0  0  0  0  0  0  0  0  0  0
   12.6960    1.7210   24.0320 O   0  0  0  0  0  0  0  0  0  0  0  0
   14.0970    2.5080   22.1800 O   0  0  0  0  0  0  0  0  0  0  0  0
   11.6700    3.4650   22.3760 C   0  0  0  0  0  0  0  0  0  0  0  0
   13.3000   -1.5870   24.8020 C   0  0  0  0  0  0  0  0  0  0  0  0
   13.5340   -2.7030   22.7740 C   0  0  0  0  0  0  0  0  0  0  0  0
   11.4460    4.3160   23.6240 C   0  0  0  0  0  0  0  0  0  0  0  0
   12.4100    4.3500   21.3820 C   0  0  0  0  0  0  0  0  0  0  0  0
   13.6110   -2.7240   24.1570 C   0  0  0  0  0  0  0  0  0  0  0  0
  1  2  1  0
  2  3  2  0
  2  4  1  0
  4  5  1  0
  4  6  1  0
  5  7  1  0
  6  8  1  0
  7  9  1  0
  8  9  1  0
  9 10  1  0
 10 11  2  0
 10 12  1  0
 11 13  1  0
 11 14  1  0
 12 15  2  0
 12 16  1  0
 14 17  2  0
 15 17  1  0
 17 18  1  0
 18 19  1  0
 20 18  1  0
 19 21  2  0
 19 22  1  0
 20 23  2  0
 20 24  2  0
 20 25  1  0
 21 26  1  0
 22 27  2  0
 25 28  1  0
 25 29  1  0
 26 30  2  0
 27 30  1  0
M  END
