NIM-UNI-bb9030bf-15-bromoalkyne
     RDKit          3D

 19 20  0  0  0  0  0  0  0  0999 V2000
    6.7750   -3.5760   19.8680 C   0  0  0  0  0  0  0  0  0  0  0  0
    5.5200   -3.1350   19.1590 C   0  0  0  0  0  0  0  0  0  0  0  0
    7.7060   -2.5990   20.2210 N   0  0  0  0  0  0  0  0  0  0  0  0
    7.2650   -1.3560   20.9020 C   0  0  1  0  0  0  0  0  0  0  0  0
    8.4740   -0.5770   21.4080 C   0  0  0  0  0  0  0  0  0  0  0  0
    6.5070   -0.4340   19.9650 C   0  0  0  0  0  0  0  0  0  0  0  0
    8.5240    0.8280   21.0850 O   0  0  0  0  0  0  0  0  0  0  0  0
    9.5090   -1.2540   22.2070 N   0  0  0  0  0  0  0  0  0  0  0  0
    5.2960    0.2240   20.3050 C   0  0  0  0  0  0  0  0  0  0  0  0
    7.0020   -0.1940   18.6970 C   0  0  0  0  0  0  0  0  0  0  0  0
   10.0530   -0.6280   23.2780 C   0  0  0  0  0  0  0  0  0  0  0  0
    4.6440    1.0720   19.3970 C   0  0  0  0  0  0  0  0  0  0  0  0
    6.4440    0.6020   17.7730 N   0  0  0  0  0  0  0  0  0  0  0  0
   11.3820   -0.0310   23.1070 C   0  0  0  0  0  0  0  0  0  0  0  0
    5.2050    1.2620   18.1480 C   0  0  0  0  0  0  0  0  0  0  0  0
   12.5860   -0.6540   22.8850 C   0  0  0  0  0  0  0  0  0  0  0  0
   11.3470    1.2090   23.2000 O   0  0  0  0  0  0  0  0  0  0  0  0
   13.4700    0.3640   22.8360 N   0  0  0  0  0  0  0  0  0  0  0  0
   12.6830    1.4660   23.0310 C   0  0  0  0  0  0  0  0  0  0  0  0
  1  2  2  3
  1  3  1  0
  4  3  1  6
  4  5  1  0
  4  6  1  0
  5  7  2  0
  5  8  1  0
  6  9  2  0
  6 10  1  0
  8 11  1  0
  9 12  1  0
 10 13  2  0
 11 14  1  0
 12 15  2  0
 13 15  1  0
 14 16  2  0
 14 17  1  0
 16 18  1  0
 17 19  1  0
 18 19  2  0
M  END
