NIM-NMI-8bb27a2b-10-chloroacetamide
     RDKit          3D

 30 32  0  0  0  0  0  0  0  0999 V2000
    7.3970   -4.0430   20.4760 C   0  0  0  0  0  0  0  0  0  0  0  0
    6.0050   -3.4750   20.2990 C   0  0  0  0  0  0  0  0  0  0  0  0
    5.1160   -4.1690   19.7850 O   0  0  0  0  0  0  0  0  0  0  0  0
    5.7670   -2.1360   20.6480 N   0  0  0  0  0  0  0  0  0  0  0  0
    5.7120   -1.3180   19.4640 C   0  0  0  0  0  0  0  0  0  0  0  0
    6.6880   -1.7090   21.5870 C   0  0  1  0  0  0  0  0  0  0  0  0
    6.6120   -1.8100   18.4700 C   0  0  0  0  0  0  0  0  0  0  0  0
    5.0720   -0.2360   19.0050 N   0  0  0  0  0  0  0  0  0  0  0  0
    7.3660   -0.3200   21.5220 C   0  0  0  0  0  0  0  0  0  0  0  0
    6.1480   -1.8700   22.8540 C   0  0  0  0  0  0  0  0  0  0  0  0
    6.4920   -0.9980   17.4300 C   0  0  0  0  0  0  0  0  0  0  0  0
    5.4960    0.0040   17.7950 O   0  0  0  0  0  0  0  0  0  0  0  0
    6.6930    0.9410   21.6380 O   0  0  0  0  0  0  0  0  0  0  0  0
    8.6880   -0.5310   21.3370 N   0  0  0  0  0  0  0  0  0  0  0  0
    5.1540   -0.9950   23.2960 C   0  0  0  0  0  0  0  0  0  0  0  0
    6.5640   -2.8900   23.7130 C   0  0  0  0  0  0  0  0  0  0  0  0
    7.2040   -1.1240   16.2890 C   0  0  0  0  0  0  0  0  0  0  0  0
    9.1660   -1.2020   22.4230 C   0  0  0  0  0  0  0  0  0  0  0  0
    4.6170   -1.1730   24.5700 C   0  0  0  0  0  0  0  0  0  0  0  0
    6.0550   -3.0860   24.9640 N   0  0  0  0  0  0  0  0  0  0  0  0
    6.8080   -1.9260   15.2590 C   0  0  0  0  0  0  0  0  0  0  0  0
    7.8020    0.1570   15.7580 C   0  0  0  0  0  0  0  0  0  0  0  0
    8.2850   -1.8370   16.4750 C   0  0  0  0  0  0  0  0  0  0  0  0
   10.5040   -0.5750   22.5870 C   0  0  0  0  0  0  0  0  0  0  0  0
    5.0950   -2.2190   25.3520 C   0  0  0  0  0  0  0  0  0  0  0  0
   11.6240   -1.3600   22.4150 C   0  0  0  0  0  0  0  0  0  0  0  0
   10.7430    0.7620   22.8950 C   0  0  0  0  0  0  0  0  0  0  0  0
   12.9000   -0.8740   22.5350 C   0  0  0  0  0  0  0  0  0  0  0  0
   12.0430    1.2880   23.0200 C   0  0  0  0  0  0  0  0  0  0  0  0
   13.1320    0.4500   22.8360 C   0  0  0  0  0  0  0  0  0  0  0  0
  1  2  1  0
  2  3  2  0
  2  4  1  0
  4  5  1  0
  4  6  1  0
  5  7  1  0
  5  8  2  0
  6  9  1  6
  6 10  1  0
  7 11  2  0
  8 12  1  0
 11 12  1  0
  9 13  2  0
  9 14  1  0
 10 15  2  0
 10 16  1  0
 11 17  1  0
 14 18  1  0
 15 19  1  0
 16 20  2  0
 17 21  1  0
 17 22  1  0
 17 23  1  0
 18 24  1  0
 19 25  2  0
 20 25  1  0
 24 26  2  0
 24 27  1  0
 26 28  1  0
 27 29  2  0
 28 30  2  0
 29 30  1  0
M  END
