NIM-NMI-8bb27a2b-15-acrylamide
     RDKit          3D

 31 33  0  0  0  0  0  0  0  0999 V2000
    7.2300   -3.1850   18.9900 C   0  0  0  0  0  0  0  0  0  0  0  0
    7.2310   -2.0900   19.9950 C   0  0  0  0  0  0  0  0  0  0  0  0
    6.3400   -2.4380   21.1780 C   0  0  0  0  0  0  0  0  0  0  0  0
    5.0580   -3.1720   21.0500 O   0  0  0  0  0  0  0  0  0  0  0  0
    7.0960   -1.8740   22.3590 N   0  0  0  0  0  0  0  0  0  0  0  0
    8.5880   -1.3150   22.5030 C   0  0  0  0  0  0  0  0  0  0  0  0
    6.3430   -1.6850   23.4750 C   0  0  2  0  0  0  0  0  0  0  0  0
    9.7460   -2.0850   22.1440 C   0  0  0  0  0  0  0  0  0  0  0  0
    8.8860   -0.0030   23.0220 C   0  0  0  0  0  0  0  0  0  0  0  0
    5.4990   -2.7760   23.6530 C   0  0  0  0  0  0  0  0  0  0  0  0
    5.6450   -0.4910   23.5200 C   0  0  0  0  0  0  0  0  0  0  0  0
   11.0470   -1.5840   22.3090 C   0  0  0  0  0  0  0  0  0  0  0  0
   10.2260    0.4540   23.1600 C   0  0  0  0  0  0  0  0  0  0  0  0
    4.1020   -2.5300   23.5430 O   0  0  0  0  0  0  0  0  0  0  0  0
    6.0870   -3.9570   23.9110 N   0  0  0  0  0  0  0  0  0  0  0  0
    4.7420   -0.2780   24.5670 C   0  0  0  0  0  0  0  0  0  0  0  0
    5.8160    0.5040   22.5630 C   0  0  0  0  0  0  0  0  0  0  0  0
   11.3150   -0.3400   22.8120 C   0  0  0  0  0  0  0  0  0  0  0  0
    6.9220   -4.5890   23.0740 C   0  0  0  0  0  0  0  0  0  0  0  0
    4.0260    0.9220   24.6410 C   0  0  0  0  0  0  0  0  0  0  0  0
    5.1500    1.7100   22.5670 N   0  0  0  0  0  0  0  0  0  0  0  0
   12.7280    0.0920   22.9620 C   0  0  0  0  0  0  0  0  0  0  0  0
    6.4580   -5.8770   23.1560 C   0  0  0  0  0  0  0  0  0  0  0  0
    8.2980   -4.5510   23.3180 C   0  0  0  0  0  0  0  0  0  0  0  0
    4.2220    1.8960   23.6650 C   0  0  0  0  0  0  0  0  0  0  0  0
   13.2260   -0.4120   24.1120 F   0  0  0  0  0  0  0  0  0  0  0  0
   12.8660    1.4420   22.9990 F   0  0  0  0  0  0  0  0  0  0  0  0
   13.5210   -0.3930   21.9820 F   0  0  0  0  0  0  0  0  0  0  0  0
    7.1740   -6.7500   22.3660 C   0  0  0  0  0  0  0  0  0  0  0  0
    8.8910   -5.7920   23.5680 C   0  0  0  0  0  0  0  0  0  0  0  0
    8.5540   -6.6750   22.5510 C   0  0  0  0  0  0  0  0  0  0  0  0
  1  2  1  0
  2  3  1  0
  3  4  2  0
  3  5  1  0
  5  6  1  0
  5  7  1  0
  6  8  2  0
  6  9  1  0
  7 10  1  6
  7 11  1  0
  8 12  1  0
  9 13  2  0
 10 14  2  0
 10 15  1  0
 11 16  2  0
 11 17  1  0
 12 18  2  0
 13 18  1  0
 15 19  1  0
 16 20  1  0
 17 21  2  0
 18 22  1  0
 19 23  1  0
 19 24  1  0
 20 25  2  0
 21 25  1  0
 22 26  1  0
 22 27  1  0
 22 28  1  0
 23 29  1  0
 24 30  1  0
 29 31  1  0
 30 31  1  0
M  END
