NIM-UNI-43fe0159-12-bromoalkyne
     RDKit          3D

 19 20  0  0  0  0  0  0  0  0999 V2000
    6.7580   -3.4800   19.5430 C   0  0  0  0  0  0  0  0  0  0  0  0
    5.9250   -2.9570   18.6730 C   0  0  0  0  0  0  0  0  0  0  0  0
    6.3780   -3.6890   20.8430 N   0  0  0  0  0  0  0  0  0  0  0  0
    6.8860   -4.7010   21.7660 C   0  0  0  0  0  0  0  0  0  0  0  0
    5.9860   -2.5540   21.6400 C   0  0  0  0  0  0  0  0  0  0  0  0
    7.6280   -4.0230   22.9870 C   0  0  0  0  0  0  0  0  0  0  0  0
    6.9690   -1.9010   21.9020 O   0  0  0  0  0  0  0  0  0  0  0  0
    7.6450   -2.4620   23.0220 C   0  0  2  0  0  0  0  0  0  0  0  0
    8.9130   -1.6450   23.1260 C   0  0  0  0  0  0  0  0  0  0  0  0
    9.0030   -0.6330   24.1370 C   0  0  0  0  0  0  0  0  0  0  0  0
    9.9660   -1.8670   22.2370 C   0  0  0  0  0  0  0  0  0  0  0  0
   10.1340    0.1690   24.2580 C   0  0  0  0  0  0  0  0  0  0  0  0
   11.1990   -1.0030   22.3640 C   0  0  0  0  0  0  0  0  0  0  0  0
   11.1880   -0.0480   23.3580 C   0  0  0  0  0  0  0  0  0  0  0  0
   12.3530    0.6870   23.4040 C   0  0  0  0  0  0  0  0  0  0  0  0
   13.4470   -0.6340   23.1960 S   0  0  0  0  0  0  0  0  0  0  0  0
   12.7910   -1.5290   24.5540 C   0  0  0  0  0  0  0  0  0  0  0  0
   13.5220   -2.7970   24.9040 C   0  0  0  0  0  0  0  0  0  0  0  0
   11.8090   -1.1470   25.1680 O   0  0  0  0  0  0  0  0  0  0  0  0
  1  2  2  3
  1  3  1  0
  3  4  1  0
  3  5  1  0
  4  6  1  0
  5  7  1  0
  6  8  1  0
  7  8  1  0
  8  9  1  6
  9 10  2  0
  9 11  1  0
 10 12  1  0
 11 13  2  0
 12 14  2  0
 13 14  1  0
 14 15  1  0
 15 16  1  0
 16 17  1  0
 17 18  1  0
 17 19  2  0
M  END
