NIM-NMI-8bb27a2b-22-vinylsulfonamide
     RDKit          3D

 34 36  0  0  0  0  0  0  0  0999 V2000
    7.4540   -4.1310   20.6240 C   0  0  0  0  0  0  0  0  0  0  0  0
    6.0150   -3.6870   20.5830 C   0  0  0  0  0  0  0  0  0  0  0  0
    5.6120   -3.1410   22.2000 S   0  0  0  0  0  0  0  0  0  0  0  0
    4.1850   -3.3350   22.2960 O   0  0  0  0  0  0  0  0  0  0  0  0
    6.5140   -3.8080   23.1160 O   0  0  0  0  0  0  0  0  0  0  0  0
    6.0460   -1.4880   22.1210 N   0  0  0  0  0  0  0  0  0  0  0  0
    5.8590   -0.6540   23.3120 C   0  0  0  0  0  0  0  0  0  0  0  0
    7.0230   -1.0240   21.0690 C   0  0  2  0  0  0  0  0  0  0  0  0
    6.5050   -1.1050   24.5550 C   0  0  0  0  0  0  0  0  0  0  0  0
    5.1100    0.5310   23.3310 C   0  0  0  0  0  0  0  0  0  0  0  0
    8.2480   -0.2710   21.6430 C   0  0  0  0  0  0  0  0  0  0  0  0
    6.3480   -0.2040   19.9840 C   0  0  0  0  0  0  0  0  0  0  0  0
    6.3480   -0.2830   25.8270 C   0  0  0  0  0  0  0  0  0  0  0  0
    4.9720    1.2680   24.4930 C   0  0  0  0  0  0  0  0  0  0  0  0
    8.6740    0.8380   21.4030 O   0  0  0  0  0  0  0  0  0  0  0  0
    9.0380   -1.0280   22.6090 N   0  0  0  0  0  0  0  0  0  0  0  0
    5.1370    0.4560   20.2180 C   0  0  0  0  0  0  0  0  0  0  0  0
    6.8910   -0.0580   18.7210 C   0  0  0  0  0  0  0  0  0  0  0  0
    5.5800    0.8600   25.6990 C   0  0  0  0  0  0  0  0  0  0  0  0
   10.2410   -0.4570   22.8250 C   0  0  0  0  0  0  0  0  0  0  0  0
    4.5490    1.2160   19.2050 C   0  0  0  0  0  0  0  0  0  0  0  0
    6.3560    0.6660   17.7260 N   0  0  0  0  0  0  0  0  0  0  0  0
    5.4760    1.5540   26.8810 C   0  0  0  0  0  0  0  0  0  0  0  0
   11.2940   -1.1500   22.3210 C   0  0  0  0  0  0  0  0  0  0  0  0
   10.4680    0.7310   23.4780 C   0  0  0  0  0  0  0  0  0  0  0  0
    5.1940    1.2920   17.9850 C   0  0  0  0  0  0  0  0  0  0  0  0
    6.1180    0.9460   27.9170 F   0  0  0  0  0  0  0  0  0  0  0  0
    5.9750    2.8190   26.8050 F   0  0  0  0  0  0  0  0  0  0  0  0
    4.1820    1.6930   27.2810 F   0  0  0  0  0  0  0  0  0  0  0  0
   11.2530   -2.3410   21.6710 C   0  0  0  0  0  0  0  0  0  0  0  0
   12.6500   -0.5670   22.4750 C   0  0  0  0  0  0  0  0  0  0  0  0
   11.7550    1.2830   23.6200 C   0  0  0  0  0  0  0  0  0  0  0  0
    9.3670    1.5540   24.0890 C   0  0  0  0  0  0  0  0  0  0  0  0
   12.9660    0.7510   23.1540 C   0  0  0  0  0  0  0  0  0  0  0  0
  1  2  1  0
  2  3  1  0
  3  4  2  0
  3  5  2  0
  3  6  1  0
  6  7  1  0
  6  8  1  0
  7  9  2  0
  7 10  1  0
  8 11  1  1
  8 12  1  0
  9 13  1  0
 10 14  2  0
 11 15  2  0
 11 16  1  0
 12 17  2  0
 12 18  1  0
 13 19  2  0
 14 19  1  0
 16 20  1  0
 17 21  1  0
 18 22  2  0
 19 23  1  0
 20 24  2  0
 20 25  1  0
 21 26  2  0
 22 26  1  0
 23 27  1  0
 23 28  1  0
 23 29  1  0
 24 30  1  0
 24 31  1  0
 25 32  2  0
 25 33  1  0
 31 34  2  0
 32 34  1  0
M  END
