NIM-UNI-310206f0-18-acrylamide
     RDKit          3D

 33 36  0  0  0  0  0  0  0  0999 V2000
    8.2090   -3.6720   20.1940 C   0  0  0  0  0  0  0  0  0  0  0  0
    6.8420   -3.0620   19.9900 C   0  0  0  0  0  0  0  0  0  0  0  0
    5.8840   -4.0030   20.6460 C   0  0  0  0  0  0  0  0  0  0  0  0
    5.1670   -4.7270   19.9680 O   0  0  0  0  0  0  0  0  0  0  0  0
    5.8920   -4.0220   22.0240 N   0  0  0  0  0  0  0  0  0  0  0  0
    6.2700   -5.2120   22.7970 C   0  0  0  0  0  0  0  0  0  0  0  0
    5.9450   -2.8060   22.8470 C   0  0  0  0  0  0  0  0  0  0  0  0
    7.8210   -5.0570   22.9840 C   0  0  0  0  0  0  0  0  0  0  0  0
    6.9510   -2.9360   24.0170 C   0  0  0  0  0  0  0  0  0  0  0  0
    8.1360   -3.7390   23.6330 N   0  0  0  0  0  0  0  0  0  0  0  0
    9.3240   -3.0770   23.2260 C   0  0  0  0  0  0  0  0  0  0  0  0
    9.1710   -1.9770   22.1560 C   0  0  0  0  0  0  0  0  0  0  0  0
   10.6210   -3.3470   23.7250 C   0  0  0  0  0  0  0  0  0  0  0  0
    8.0240   -1.5790   21.5820 F   0  0  0  0  0  0  0  0  0  0  0  0
   10.5370   -1.3510   21.8030 C   0  0  0  0  0  0  0  0  0  0  0  0
   11.9420   -2.6560   23.3080 C   0  0  0  0  0  0  0  0  0  0  0  0
   10.7450   -4.2860   24.6540 F   0  0  0  0  0  0  0  0  0  0  0  0
   11.9540   -1.6530   22.3460 C   0  0  0  0  0  0  0  0  0  0  0  0
   13.1520   -0.8930   21.8760 N   0  0  0  0  0  0  0  0  0  0  0  0
   13.8630   -1.3320   20.5610 C   0  0  0  0  0  0  0  0  0  0  0  0
   12.7950    0.4230   22.2860 C   0  0  0  0  0  0  0  0  0  0  0  0
   13.8520   -2.5200   20.4450 O   0  0  0  0  0  0  0  0  0  0  0  0
   14.5290   -0.4310   19.5610 N   0  0  0  0  0  0  0  0  0  0  0  0
   13.6330    1.4810   22.3510 N   0  0  0  0  0  0  0  0  0  0  0  0
   11.4670    0.4680   22.6050 N   0  0  0  0  0  0  0  0  0  0  0  0
   15.5320   -0.6720   18.4990 C   0  0  0  0  0  0  0  0  0  0  0  0
   13.1150    2.6720   22.7710 C   0  0  0  0  0  0  0  0  0  0  0  0
   10.9430    1.6100   23.0030 C   0  0  0  0  0  0  0  0  0  0  0  0
   16.9260   -0.2060   18.5990 C   0  0  0  0  0  0  0  0  0  0  0  0
   15.4150   -0.1200   17.1770 C   0  0  0  0  0  0  0  0  0  0  0  0
   11.8000    2.8220   23.1130 C   0  0  0  0  0  0  0  0  0  0  0  0
   17.5510    0.1230   17.3490 C   0  0  0  0  0  0  0  0  0  0  0  0
   16.4510    0.8380   16.6980 C   0  0  0  0  0  0  0  0  0  0  0  0
  1  2  1  0
  2  3  1  0
  3  4  2  0
  3  5  1  0
  5  6  1  0
  5  7  1  0
  6  8  1  0
  7  9  1  0
  8 10  1  0
  9 10  1  0
 10 11  1  0
 11 12  2  0
 11 13  1  0
 12 14  1  0
 12 15  1  0
 13 16  2  0
 13 17  1  0
 15 18  2  0
 16 18  1  0
 18 19  1  0
 19 20  1  0
 19 21  1  0
 20 22  2  0
 20 23  1  0
 21 24  2  0
 21 25  1  0
 23 26  1  0
 24 27  1  0
 25 28  2  0
 26 29  1  0
 26 30  1  0
 27 31  2  0
 28 31  1  0
 29 32  1  0
 30 33  1  0
 32 33  1  0
M  END
