NIM-UNI-05f93fcc-3-chloroacetamide
     RDKit          3D

 24 26  0  0  0  0  0  0  0  0999 V2000
    7.1030   -3.3970   19.8880 C   0  0  0  0  0  0  0  0  0  0  0  0
    6.3230   -4.5290   20.5610 C   0  0  0  0  0  0  0  0  0  0  0  0
    5.3410   -4.9750   19.9840 O   0  0  0  0  0  0  0  0  0  0  0  0
    6.6720   -5.0930   21.7900 N   0  0  0  0  0  0  0  0  0  0  0  0
    7.2440   -4.3400   22.8550 C   0  0  0  0  0  0  0  0  0  0  0  0
    5.9540   -6.2890   22.2500 C   0  0  0  0  0  0  0  0  0  0  0  0
    6.4840   -4.1170   24.0040 C   0  0  0  0  0  0  0  0  0  0  0  0
    5.0070   -5.9340   23.1900 C   0  0  0  0  0  0  0  0  0  0  0  0
    5.7130   -5.3290   24.3270 N   0  0  0  0  0  0  0  0  0  0  0  0
    4.9660   -5.3500   25.8510 S   0  0  0  0  0  0  0  0  0  0  0  0
    4.0100   -6.4370   25.8620 O   0  0  0  0  0  0  0  0  0  0  0  0
    5.9780   -5.2420   26.8750 O   0  0  0  0  0  0  0  0  0  0  0  0
    3.9800   -3.8880   25.9330 C   0  0  0  0  0  0  0  0  0  0  0  0
    4.3250   -2.5290   26.0050 C   0  0  0  0  0  0  0  0  0  0  0  0
    2.2690   -4.1330   25.9320 S   0  0  0  0  0  0  0  0  0  0  0  0
    3.1140   -1.6750   26.0670 C   0  0  0  0  0  0  0  0  0  0  0  0
    1.9030   -2.4690   26.0390 C   0  0  0  0  0  0  0  0  0  0  0  0
    0.5880   -1.8640   26.1020 C   0  0  0  0  0  0  0  0  0  0  0  0
    0.5100   -0.4660   26.7240 C   0  0  0  0  0  0  0  0  0  0  0  0
   -0.5740   -2.5160   25.6260 C   0  0  0  0  0  0  0  0  0  0  0  0
   -0.8920    0.1300   26.7720 C   0  0  0  0  0  0  0  0  0  0  0  0
   -2.0200   -1.9230   25.6660 C   0  0  0  0  0  0  0  0  0  0  0  0
   -0.4730   -4.0990   24.9290 Cl  0  0  0  0  0  0  0  0  0  0  0  0
   -2.1290   -0.6290   26.2340 C   0  0  0  0  0  0  0  0  0  0  0  0
  1  2  1  0
  2  3  2  0
  2  4  1  0
  4  5  1  0
  4  6  1  0
  5  7  1  0
  6  8  1  0
  7  9  1  0
  8  9  1  0
  9 10  1  0
 10 11  2  0
 10 12  2  0
 10 13  1  0
 13 14  2  0
 13 15  1  0
 14 16  1  0
 15 17  1  0
 16 17  2  0
 17 18  1  0
 18 19  2  0
 18 20  1  0
 19 21  1  0
 20 22  2  0
 20 23  1  0
 21 24  2  0
 22 24  1  0
M  END
