NIM-UNI-b87c0f72-1
     RDKit          3D

 25 27  0  0  0  0  0  0  0  0999 V2000
    2.2730    3.5150   18.6930 C   0  0  0  0  0  0  0  0  0  0  0  0
    1.1240    3.2280   19.4800 O   0  0  0  0  0  0  0  0  0  0  0  0
    1.1260    2.0810   20.2240 C   0  0  0  0  0  0  0  0  0  0  0  0
    0.0630    1.1300   20.0870 O   0  0  0  0  0  0  0  0  0  0  0  0
    2.1990    1.8010   21.2810 C   0  0  2  0  0  0  0  0  0  0  0  0
    1.7980    2.6480   22.4680 C   0  0  0  0  0  0  0  0  0  0  0  0
    3.5320    2.1550   21.0670 C   0  0  1  0  0  0  0  0  0  0  0  0
    0.6470    2.1660   23.1570 O   0  0  0  0  0  0  0  0  0  0  0  0
    2.5790    3.9270   22.7740 C   0  0  0  0  0  0  0  0  0  0  0  0
    3.9790    1.9560   22.1810 O   0  0  0  0  0  0  0  0  0  0  0  0
    4.4800    1.3580   20.1980 C   0  0  0  0  0  0  0  0  0  0  0  0
    3.3160    2.6940   23.2410 C   0  0  2  0  0  0  0  0  0  0  0  0
    5.2380    0.1890   20.7890 C   0  0  0  0  0  0  0  0  0  0  0  0
    4.7270    1.6530   18.8320 C   0  0  0  0  0  0  0  0  0  0  0  0
    2.5680    1.8180   24.0550 C   0  0  0  0  0  0  0  0  0  0  0  0
    6.1360   -0.4650   19.8170 C   0  0  0  0  0  0  0  0  0  0  0  0
    5.5770    0.9890   18.0070 N   0  0  0  0  0  0  0  0  0  0  0  0
    1.3540    2.5400   24.7670 C   0  0  0  0  0  0  0  0  0  0  0  0
    6.2630   -0.0550   18.5200 C   0  0  0  0  0  0  0  0  0  0  0  0
   -0.0350    1.9710   24.8560 C   0  0  0  0  0  0  0  0  0  0  0  0
    1.5110    3.8170   25.3770 C   0  0  0  0  0  0  0  0  0  0  0  0
   -1.0620    2.6630   25.4880 C   0  0  0  0  0  0  0  0  0  0  0  0
    0.4340    4.4760   26.0070 C   0  0  0  0  0  0  0  0  0  0  0  0
   -0.8620    3.9100   26.0700 C   0  0  0  0  0  0  0  0  0  0  0  0
    0.7030    6.0210   26.7240 Cl  0  0  0  0  0  0  0  0  0  0  0  0
  1  2  1  0
  2  3  1  0
  3  4  2  0
  5  3  1  6
  5  6  1  0
  5  7  1  0
  6  8  2  0
  6  9  1  0
  7 10  1  0
  7 11  1  6
  9 12  1  0
 10 12  1  0
 11 13  2  0
 11 14  1  0
 12 15  1  6
 13 16  1  0
 14 17  2  0
 15 18  1  0
 16 19  2  0
 17 19  1  0
 18 20  2  0
 18 21  1  0
 20 22  1  0
 21 23  2  0
 22 24  2  0
 23 24  1  0
 23 25  1  0
M  END
