NIM-UNI-310206f0-56-acrylamide
     RDKit          3D

 36 40  0  0  0  0  0  0  0  0999 V2000
    7.2040   -2.8360   18.4790 C   0  0  0  0  0  0  0  0  0  0  0  0
    6.1520   -2.4020   19.4720 C   0  0  0  0  0  0  0  0  0  0  0  0
    5.6590   -3.5270   20.3500 C   0  0  0  0  0  0  0  0  0  0  0  0
    5.1660   -4.5580   19.8930 O   0  0  0  0  0  0  0  0  0  0  0  0
    5.7730   -3.3230   21.7030 N   0  0  0  0  0  0  0  0  0  0  0  0
    5.4770   -2.0390   22.3130 C   0  0  0  0  0  0  0  0  0  0  0  0
    6.6190   -4.2160   22.5200 C   0  0  0  0  0  0  0  0  0  0  0  0
    6.7240   -1.3830   22.8270 C   0  0  0  0  0  0  0  0  0  0  0  0
    7.7830   -3.5920   23.0150 C   0  0  0  0  0  0  0  0  0  0  0  0
    7.5050   -2.3080   23.6710 N   0  0  0  0  0  0  0  0  0  0  0  0
    8.4270   -1.4370   23.8400 C   0  0  0  0  0  0  0  0  0  0  0  0
    8.4390   -0.7010   24.9920 C   0  0  0  0  0  0  0  0  0  0  0  0
    9.4200   -1.1310   22.9530 C   0  0  0  0  0  0  0  0  0  0  0  0
    7.5140   -0.9190   25.9400 F   0  0  0  0  0  0  0  0  0  0  0  0
    9.3780    0.3100   25.2530 C   0  0  0  0  0  0  0  0  0  0  0  0
   10.3910   -0.0380   23.2680 C   0  0  0  0  0  0  0  0  0  0  0  0
    9.5640   -1.7650   21.7910 F   0  0  0  0  0  0  0  0  0  0  0  0
   10.4360    0.7500   24.4090 C   0  0  0  0  0  0  0  0  0  0  0  0
   11.4780    1.4780   24.0250 N   0  0  0  0  0  0  0  0  0  0  0  0
   12.3670    0.6880   23.3590 C   0  0  0  0  0  0  0  0  0  0  0  0
   10.9930    2.8460   23.6300 C   0  0  0  0  0  0  0  0  0  0  0  0
   12.6950    0.7640   22.1370 O   0  0  0  0  0  0  0  0  0  0  0  0
   12.9480   -0.3180   24.0420 N   0  0  0  0  0  0  0  0  0  0  0  0
   11.8260    4.1150   23.4980 C   0  0  0  0  0  0  0  0  0  0  0  0
    9.5970    3.0370   23.3470 C   0  0  0  0  0  0  0  0  0  0  0  0
   13.2050   -1.4070   23.3160 C   0  0  0  0  0  0  0  0  0  0  0  0
   11.2490    5.4670   23.1130 C   0  0  0  0  0  0  0  0  0  0  0  0
    9.0580    4.3040   22.9860 C   0  0  0  0  0  0  0  0  0  0  0  0
    8.4590    2.2260   23.3230 C   0  0  0  0  0  0  0  0  0  0  0  0
   13.3860   -2.5310   24.2640 C   0  0  0  0  0  0  0  0  0  0  0  0
   11.9300   -1.8300   22.5880 C   0  0  0  0  0  0  0  0  0  0  0  0
    9.7550    5.5130   22.8520 C   0  0  0  0  0  0  0  0  0  0  0  0
    7.7130    4.1570   22.7840 N   0  0  0  0  0  0  0  0  0  0  0  0
    7.2970    2.8980   22.9790 C   0  0  0  0  0  0  0  0  0  0  0  0
   12.0230   -2.8870   24.7120 C   0  0  0  0  0  0  0  0  0  0  0  0
   11.1410   -2.4950   23.7180 C   0  0  0  0  0  0  0  0  0  0  0  0
  1  2  1  0
  2  3  1  0
  3  4  2  0
  3  5  1  0
  5  6  1  0
  5  7  1  0
  6  8  1  0
  7  9  1  0
  8 10  1  0
  9 10  1  0
 10 11  1  0
 11 12  2  0
 11 13  1  0
 12 14  1  0
 12 15  1  0
 13 16  2  0
 13 17  1  0
 15 18  2  0
 16 18  1  0
 18 19  1  0
 19 20  1  0
 19 21  1  0
 20 22  2  0
 20 23  1  0
 21 24  2  0
 21 25  1  0
 23 26  1  0
 24 27  1  0
 25 28  2  0
 25 29  1  0
 26 30  1  0
 26 31  1  0
 27 32  2  0
 28 32  1  0
 28 33  1  0
 29 34  2  0
 33 34  1  0
 30 35  1  0
 31 36  1  0
 35 36  1  0
M  END
