NIM-NMI-8bb27a2b-9-bromoalkyne
     RDKit          3D

 32 35  0  0  0  0  0  0  0  0999 V2000
    6.9280   -3.3370   19.8520 C   0  0  0  0  0  0  0  0  0  0  0  0
    5.6620   -3.0560   19.0510 C   0  0  0  0  0  0  0  0  0  0  0  0
    7.1140   -2.5700   21.0320 N   0  0  0  0  0  0  0  0  0  0  0  0
    8.3660   -2.6920   21.8570 C   0  0  0  0  0  0  0  0  0  0  0  0
    6.1080   -1.6150   21.3240 C   0  0  1  0  0  0  0  0  0  0  0  0
    9.5820   -1.9060   21.6040 C   0  0  0  0  0  0  0  0  0  0  0  0
    8.6810   -3.4710   22.8900 N   0  0  0  0  0  0  0  0  0  0  0  0
    6.0130   -0.6500   22.5180 C   0  0  0  0  0  0  0  0  0  0  0  0
    5.8770   -0.6710   20.1210 C   0  0  0  0  0  0  0  0  0  0  0  0
   10.4800   -2.3810   22.5160 C   0  0  0  0  0  0  0  0  0  0  0  0
    9.9290   -3.2460   23.2320 O   0  0  0  0  0  0  0  0  0  0  0  0
    5.3870    0.3890   22.3690 O   0  0  0  0  0  0  0  0  0  0  0  0
    6.6540   -1.0660   23.6290 N   0  0  0  0  0  0  0  0  0  0  0  0
    4.7260    0.1340   20.1000 C   0  0  0  0  0  0  0  0  0  0  0  0
    6.7650   -0.5730   19.0510 C   0  0  0  0  0  0  0  0  0  0  0  0
   11.8450   -1.9900   22.6470 C   0  0  0  0  0  0  0  0  0  0  0  0
    7.8360   -0.4380   23.5490 C   0  0  0  0  0  0  0  0  0  0  0  0
    4.4660    1.0040   19.0570 C   0  0  0  0  0  0  0  0  0  0  0  0
    6.5760    0.2600   17.9750 N   0  0  0  0  0  0  0  0  0  0  0  0
   12.5950   -2.2320   21.4970 C   0  0  0  0  0  0  0  0  0  0  0  0
   12.0550   -0.5030   22.7350 C   0  0  0  0  0  0  0  0  0  0  0  0
   12.6500   -2.4640   23.6820 C   0  0  0  0  0  0  0  0  0  0  0  0
    7.7900    0.8380   22.7530 C   0  0  0  0  0  0  0  0  0  0  0  0
    9.0010   -0.8380   24.0870 C   0  0  0  0  0  0  0  0  0  0  0  0
    5.4810    1.0330   17.9520 C   0  0  0  0  0  0  0  0  0  0  0  0
    8.9560    1.5450   22.5960 C   0  0  0  0  0  0  0  0  0  0  0  0
   10.1340   -0.0900   23.8900 C   0  0  0  0  0  0  0  0  0  0  0  0
   10.1350    1.1090   23.1410 C   0  0  0  0  0  0  0  0  0  0  0  0
   11.4030   -0.5900   24.4890 C   0  0  0  0  0  0  0  0  0  0  0  0
   11.2840    1.8480   22.9340 C   0  0  0  0  0  0  0  0  0  0  0  0
   12.6030    0.2690   24.1900 C   0  0  0  0  0  0  0  0  0  0  0  0
   12.4940    1.4600   23.4230 C   0  0  0  0  0  0  0  0  0  0  0  0
  1  2  2  3
  1  3  1  0
  3  4  1  0
  3  5  1  0
  4  6  1  0
  4  7  2  0
  5  8  1  1
  5  9  1  0
  6 10  2  0
  7 11  1  0
 10 11  1  0
  8 12  2  0
  8 13  1  0
  9 14  2  0
  9 15  1  0
 10 16  1  0
 13 17  1  0
 14 18  1  0
 15 19  2  0
 16 20  1  0
 16 21  1  0
 16 22  1  0
 17 23  2  0
 17 24  1  0
 18 25  2  0
 19 25  1  0
 23 26  1  0
 24 27  2  0
 26 28  2  0
 27 28  1  0
 27 29  1  0
 28 30  1  0
 29 31  2  0
 30 32  2  0
 31 32  1  0
M  END
