NIM-UNI-310206f0-17-nitrile
     RDKit          3D

 34 37  0  0  0  0  0  0  0  0999 V2000
    7.0260   -3.9580   20.2130 C   0  0  0  0  0  0  0  0  0  0  0  0
    5.8700   -4.3780   19.8700 N   0  0  0  0  0  0  0  0  0  0  0  0
    7.2880   -3.2120   21.3450 N   0  0  0  0  0  0  0  0  0  0  0  0
    7.4780   -3.8640   22.6730 C   0  0  0  0  0  0  0  0  0  0  0  0
    8.0560   -1.9740   21.2440 C   0  0  0  0  0  0  0  0  0  0  0  0
    8.3370   -2.8950   23.6040 C   0  0  0  0  0  0  0  0  0  0  0  0
    9.5130   -2.3040   21.5950 C   0  0  0  0  0  0  0  0  0  0  0  0
    9.6890   -2.5410   23.0140 N   0  0  0  0  0  0  0  0  0  0  0  0
   10.1470   -1.3150   23.2280 C   0  0  0  0  0  0  0  0  0  0  0  0
   11.6320   -0.7760   23.0060 C   0  0  0  0  0  0  0  0  0  0  0  0
    9.1920   -0.4750   23.6320 C   0  0  0  0  0  0  0  0  0  0  0  0
   12.6490   -1.5580   22.6050 F   0  0  0  0  0  0  0  0  0  0  0  0
   11.8730    0.7740   23.2540 C   0  0  0  0  0  0  0  0  0  0  0  0
    9.4090    0.9450   23.8580 C   0  0  0  0  0  0  0  0  0  0  0  0
    7.9740   -0.9460   23.8240 F   0  0  0  0  0  0  0  0  0  0  0  0
   10.5910    1.5760   23.6890 C   0  0  0  0  0  0  0  0  0  0  0  0
   10.5370    3.0080   23.9320 N   0  0  0  0  0  0  0  0  0  0  0  0
    9.1870    3.5540   24.1620 C   0  0  0  0  0  0  0  0  0  0  0  0
   11.3490    3.8560   23.3100 C   0  0  0  0  0  0  0  0  0  0  0  0
    8.9790    4.6740   24.6410 O   0  0  0  0  0  0  0  0  0  0  0  0
    8.1260    2.7190   23.8060 N   0  0  0  0  0  0  0  0  0  0  0  0
   10.9640    5.1530   23.3150 N   0  0  0  0  0  0  0  0  0  0  0  0
   12.5000    3.4030   22.7190 N   0  0  0  0  0  0  0  0  0  0  0  0
    7.0130    2.3480   24.6020 C   0  0  0  0  0  0  0  0  0  0  0  0
   11.7140    6.0910   22.7190 C   0  0  0  0  0  0  0  0  0  0  0  0
   13.2680    4.3270   22.1160 C   0  0  0  0  0  0  0  0  0  0  0  0
    7.2100    1.3970   25.7950 C   0  0  0  0  0  0  0  0  0  0  0  0
   12.8960    5.8070   22.0780 C   0  0  0  0  0  0  0  0  0  0  0  0
    8.4090    0.8750   26.2270 C   0  0  0  0  0  0  0  0  0  0  0  0
    6.0500    1.0300   26.5130 C   0  0  0  0  0  0  0  0  0  0  0  0
    8.4930   -0.0170   27.3810 C   0  0  0  0  0  0  0  0  0  0  0  0
    6.0600    0.0930   27.7350 C   0  0  0  0  0  0  0  0  0  0  0  0
    7.2990   -0.4150   28.1460 C   0  0  0  0  0  0  0  0  0  0  0  0
    4.9100   -0.2270   28.3930 F   0  0  0  0  0  0  0  0  0  0  0  0
  1  2  2  3
  1  3  1  0
  3  4  1  0
  3  5  1  0
  4  6  1  0
  5  7  1  0
  6  8  1  0
  7  8  1  0
  8  9  1  0
  9 10  2  0
  9 11  1  0
 10 12  1  0
 10 13  1  0
 11 14  2  0
 11 15  1  0
 13 16  2  0
 14 16  1  0
 16 17  1  0
 17 18  1  0
 17 19  1  0
 18 20  2  0
 18 21  1  0
 19 22  2  0
 19 23  1  0
 21 24  1  0
 22 25  1  0
 23 26  2  0
 24 27  1  0
 25 28  2  0
 26 28  1  0
 27 29  2  0
 27 30  1  0
 29 31  1  0
 30 32  2  0
 31 33  2  0
 32 33  1  0
 32 34  1  0
M  END
