NIM-UNI-bb9030bf-16-bromoalkyne
     RDKit          3D

 13 13  0  0  0  0  0  0  0  0999 V2000
    7.0630   -3.3160   19.7900 C   0  0  0  0  0  0  0  0  0  0  0  0
    6.6390   -2.5960   18.5500 C   0  0  0  0  0  0  0  0  0  0  0  0
    7.7310   -2.5850   20.7940 N   0  0  0  0  0  0  0  0  0  0  0  0
    7.1410   -1.3700   21.3620 C   0  0  2  0  0  0  0  0  0  0  0  0
    6.0520   -1.7550   22.3790 C   0  0  0  0  0  0  0  0  0  0  0  0
    6.5110   -0.5060   20.2680 C   0  0  0  0  0  0  0  0  0  0  0  0
    5.6020   -3.1720   22.4860 N   0  0  0  0  0  0  0  0  0  0  0  0
    5.5550   -0.6630   23.1720 O   0  0  0  0  0  0  0  0  0  0  0  0
    5.1550    0.3860   20.3400 C   0  0  0  0  0  0  0  0  0  0  0  0
    7.1260   -0.3580   18.8480 C   0  0  0  0  0  0  0  0  0  0  0  0
    4.5570    1.2300   19.2560 C   0  0  0  0  0  0  0  0  0  0  0  0
    6.1820    0.4350   18.4840 N   0  0  0  0  0  0  0  0  0  0  0  0
    5.3550    1.2210   17.9380 C   0  0  0  0  0  0  0  0  0  0  0  0
  1  2  2  3
  1  3  1  0
  4  3  1  6
  4  5  1  0
  4  6  1  0
  5  7  1  0
  5  8  2  0
  6  9  2  0
  6 10  1  0
  9 11  1  0
 10 12  2  0
 11 13  2  0
 12 13  1  0
M  END
