NIM-UNI-310206f0-16-acrylamide
     RDKit          3D

 35 38  0  0  0  0  0  0  0  0999 V2000
    7.2080   -3.0130   19.0770 C   0  0  0  0  0  0  0  0  0  0  0  0
    6.5200   -2.7370   20.4020 C   0  0  0  0  0  0  0  0  0  0  0  0
    5.6450   -3.9090   20.7600 C   0  0  0  0  0  0  0  0  0  0  0  0
    5.1520   -4.6220   19.8890 O   0  0  0  0  0  0  0  0  0  0  0  0
    5.4420   -4.1560   22.1010 N   0  0  0  0  0  0  0  0  0  0  0  0
    4.5750   -3.3690   22.9790 C   0  0  0  0  0  0  0  0  0  0  0  0
    6.3430   -4.9860   22.8930 C   0  0  0  0  0  0  0  0  0  0  0  0
    5.5230   -2.2510   23.5070 C   0  0  0  0  0  0  0  0  0  0  0  0
    6.5820   -4.3890   24.2980 C   0  0  0  0  0  0  0  0  0  0  0  0
    6.6510   -2.9010   24.2470 N   0  0  0  0  0  0  0  0  0  0  0  0
    7.9270   -2.3350   24.0920 C   0  0  0  0  0  0  0  0  0  0  0  0
    9.0150   -2.7700   25.1220 C   0  0  0  0  0  0  0  0  0  0  0  0
    8.2620   -1.4160   23.0800 C   0  0  0  0  0  0  0  0  0  0  0  0
    8.8300   -3.6300   26.1390 F   0  0  0  0  0  0  0  0  0  0  0  0
   10.3880   -2.0840   24.8370 C   0  0  0  0  0  0  0  0  0  0  0  0
    9.6410   -0.8090   22.8950 C   0  0  0  0  0  0  0  0  0  0  0  0
    7.3440   -1.0100   22.1880 F   0  0  0  0  0  0  0  0  0  0  0  0
   10.7250   -1.0940   23.7150 C   0  0  0  0  0  0  0  0  0  0  0  0
   12.0360   -0.4670   23.4760 N   0  0  0  0  0  0  0  0  0  0  0  0
   13.0800   -1.1260   22.6000 C   0  0  0  0  0  0  0  0  0  0  0  0
   11.8360    0.9300   23.1620 C   0  0  0  0  0  0  0  0  0  0  0  0
   13.6040   -0.5090   21.7020 O   0  0  0  0  0  0  0  0  0  0  0  0
   13.4560   -2.4340   22.7840 N   0  0  0  0  0  0  0  0  0  0  0  0
   10.5520    1.3620   22.9850 N   0  0  0  0  0  0  0  0  0  0  0  0
   12.9250    1.7690   23.0450 N   0  0  0  0  0  0  0  0  0  0  0  0
   13.1750   -3.1820   21.6780 C   0  0  0  0  0  0  0  0  0  0  0  0
   10.3310    2.6580   22.6780 C   0  0  0  0  0  0  0  0  0  0  0  0
   12.7250    3.0710   22.7420 C   0  0  0  0  0  0  0  0  0  0  0  0
   11.9370   -3.0840   21.0160 C   0  0  0  0  0  0  0  0  0  0  0  0
   13.7800   -4.2010   20.8340 C   0  0  0  0  0  0  0  0  0  0  0  0
   11.3210    3.5890   22.5330 C   0  0  0  0  0  0  0  0  0  0  0  0
   10.9230   -2.1640   21.5670 C   0  0  0  0  0  0  0  0  0  0  0  0
   11.7200   -3.8400   19.9340 N   0  0  0  0  0  0  0  0  0  0  0  0
   12.8650   -4.5460   19.8080 O   0  0  0  0  0  0  0  0  0  0  0  0
   15.0650   -5.0680   20.6590 C   0  0  0  0  0  0  0  0  0  0  0  0
  1  2  1  0
  2  3  1  0
  3  4  2  0
  3  5  1  0
  5  6  1  0
  5  7  1  0
  6  8  1  0
  7  9  1  0
  8 10  1  0
  9 10  1  0
 10 11  1  0
 11 12  2  0
 11 13  1  0
 12 14  1  0
 12 15  1  0
 13 16  2  0
 13 17  1  0
 15 18  2  0
 16 18  1  0
 18 19  1  0
 19 20  1  0
 19 21  1  0
 20 22  2  0
 20 23  1  0
 21 24  2  0
 21 25  1  0
 23 26  1  0
 24 27  1  0
 25 28  2  0
 26 29  1  0
 26 30  2  0
 27 31  2  0
 28 31  1  0
 29 32  1  0
 29 33  2  0
 30 34  1  0
 33 34  1  0
 30 35  1  0
M  END
