NIM-UNI-310206f0-25-nitrile
     RDKit          3D

 27 29  0  0  0  0  0  0  0  0999 V2000
    6.4960   -3.7030   19.6830 C   0  0  0  0  0  0  0  0  0  0  0  0
    5.7300   -3.1840   18.8020 N   0  0  0  0  0  0  0  0  0  0  0  0
    6.1710   -3.7320   21.0250 N   0  0  0  0  0  0  0  0  0  0  0  0
    5.4760   -2.6120   21.6380 C   0  0  0  0  0  0  0  0  0  0  0  0
    6.8180   -4.5860   22.0320 C   0  0  0  0  0  0  0  0  0  0  0  0
    6.6740   -1.7780   22.1280 C   0  0  0  0  0  0  0  0  0  0  0  0
    7.7800   -3.7750   22.9280 C   0  0  0  0  0  0  0  0  0  0  0  0
    7.3140   -2.4170   23.3100 N   0  0  0  0  0  0  0  0  0  0  0  0
    8.3070   -1.5720   23.5140 C   0  0  0  0  0  0  0  0  0  0  0  0
    7.8550   -0.0650   23.4610 C   0  0  0  0  0  0  0  0  0  0  0  0
    9.6450   -1.9220   23.7280 C   0  0  0  0  0  0  0  0  0  0  0  0
    6.5850    0.3330   23.2770 F   0  0  0  0  0  0  0  0  0  0  0  0
    8.9310    1.0040   23.6110 C   0  0  0  0  0  0  0  0  0  0  0  0
   10.6740   -0.8720   23.8810 C   0  0  0  0  0  0  0  0  0  0  0  0
   10.0940   -3.1960   23.7910 F   0  0  0  0  0  0  0  0  0  0  0  0
   10.3360    0.4310   23.8040 C   0  0  0  0  0  0  0  0  0  0  0  0
   11.3460    1.3610   23.8820 N   0  0  0  0  0  0  0  0  0  0  0  0
   12.6180    0.6650   23.5870 C   0  0  0  0  0  0  0  0  0  0  0  0
   10.8000    2.8520   23.0900 S   0  0  0  0  0  0  0  0  0  0  0  0
   12.8430   -0.4230   22.4660 C   0  0  0  0  0  0  0  0  0  0  0  0
   10.3600    3.8180   24.0710 O   0  0  0  0  0  0  0  0  0  0  0  0
    9.8520    2.4940   22.0460 O   0  0  0  0  0  0  0  0  0  0  0  0
   12.2010    3.4640   22.4040 C   0  0  0  0  0  0  0  0  0  0  0  0
   12.0250   -1.5350   22.1820 C   0  0  0  0  0  0  0  0  0  0  0  0
   12.8940   -2.0370   22.9900 C   0  0  0  0  0  0  0  0  0  0  0  0
   12.8220    4.7450   22.8540 C   0  0  0  0  0  0  0  0  0  0  0  0
   13.1230    2.3440   22.6710 C   0  0  0  0  0  0  0  0  0  0  0  0
  1  2  2  3
  1  3  1  0
  3  4  1  0
  3  5  1  0
  4  6  1  0
  5  7  1  0
  6  8  1  0
  7  8  1  0
  8  9  1  0
  9 10  2  0
  9 11  1  0
 10 12  1  0
 10 13  1  0
 11 14  2  0
 11 15  1  0
 13 16  2  0
 14 16  1  0
 16 17  1  0
 17 18  1  0
 19 17  1  0
 18 20  1  0
 19 21  2  0
 19 22  2  0
 19 23  1  0
 20 24  1  0
 20 25  1  0
 24 25  1  0
 23 26  1  0
 23 27  1  0
M  END
