NIM-UNI-310206f0-46-vinylsulfonamide
     RDKit          3D

 32 35  0  0  0  0  0  0  0  0999 V2000
    7.9160   -3.4090   19.7570 C   0  0  0  0  0  0  0  0  0  0  0  0
    7.0300   -2.4720   19.0000 C   0  0  0  0  0  0  0  0  0  0  0  0
    5.5200   -2.6130   19.8490 S   0  0  0  0  0  0  0  0  0  0  0  0
    5.0590   -3.9830   19.7320 O   0  0  0  0  0  0  0  0  0  0  0  0
    4.7440   -1.4970   19.4060 O   0  0  0  0  0  0  0  0  0  0  0  0
    5.9280   -2.3020   21.4190 N   0  0  0  0  0  0  0  0  0  0  0  0
    5.6000   -3.2200   22.5190 C   0  0  0  0  0  0  0  0  0  0  0  0
    5.7750   -0.8850   21.7550 C   0  0  0  0  0  0  0  0  0  0  0  0
    6.7160   -2.8990   23.5760 C   0  0  0  0  0  0  0  0  0  0  0  0
    5.5430   -0.7420   23.2570 C   0  0  0  0  0  0  0  0  0  0  0  0
    6.6020   -1.4510   23.9660 N   0  0  0  0  0  0  0  0  0  0  0  0
    7.8820   -0.7350   24.0520 C   0  0  0  0  0  0  0  0  0  0  0  0
    9.0470   -1.7070   24.1400 C   0  0  0  0  0  0  0  0  0  0  0  0
    8.0500    0.6570   24.0480 C   0  0  0  0  0  0  0  0  0  0  0  0
    8.9230   -3.0330   24.1480 F   0  0  0  0  0  0  0  0  0  0  0  0
   10.4460   -1.0770   24.2190 C   0  0  0  0  0  0  0  0  0  0  0  0
    9.4300    1.2690   24.1160 C   0  0  0  0  0  0  0  0  0  0  0  0
    6.9990    1.5000   23.9760 F   0  0  0  0  0  0  0  0  0  0  0  0
   10.5550    0.4770   24.1890 C   0  0  0  0  0  0  0  0  0  0  0  0
   11.8890    0.9300   24.2380 N   0  0  0  0  0  0  0  0  0  0  0  0
   12.2770    1.7210   23.0760 C   0  0  0  0  0  0  0  0  0  0  0  0
   12.5790   -0.2710   24.4270 C   0  0  0  0  0  0  0  0  0  0  0  0
   11.6500    3.1200   22.8790 C   0  0  0  0  0  0  0  0  0  0  0  0
   13.1540   -0.6470   25.4330 O   0  0  0  0  0  0  0  0  0  0  0  0
   12.4690   -1.1900   23.2550 C   0  0  0  0  0  0  0  0  0  0  0  0
   12.2010    4.2810   23.1130 C   0  0  0  0  0  0  0  0  0  0  0  0
   12.4460    4.1100   21.7830 C   0  0  0  0  0  0  0  0  0  0  0  0
   13.4590   -2.2880   23.0510 C   0  0  0  0  0  0  0  0  0  0  0  0
   11.4610   -1.0400   22.3680 C   0  0  0  0  0  0  0  0  0  0  0  0
   13.2450   -3.1380   21.8220 C   0  0  0  0  0  0  0  0  0  0  0  0
   11.2990   -1.8150   21.3180 N   0  0  0  0  0  0  0  0  0  0  0  0
   12.1580   -2.8030   21.0620 C   0  0  0  0  0  0  0  0  0  0  0  0
  1  2  1  0
  3  2  1  0
  3  4  2  0
  3  5  2  0
  3  6  1  0
  6  7  1  0
  6  8  1  0
  7  9  1  0
  8 10  1  0
  9 11  1  0
 10 11  1  0
 11 12  1  0
 12 13  2  0
 12 14  1  0
 13 15  1  0
 13 16  1  0
 14 17  2  0
 14 18  1  0
 16 19  2  0
 17 19  1  0
 19 20  1  0
 20 21  1  0
 20 22  1  0
 21 23  1  0
 22 24  2  0
 22 25  1  0
 23 26  1  0
 23 27  1  0
 26 27  1  0
 25 28  2  0
 25 29  1  0
 28 30  1  0
 29 31  2  0
 30 32  2  0
 31 32  1  0
M  END
