NIM-UNI-310206f0-6-bromoalkyne
     RDKit          3D

 19 20  0  0  0  0  0  0  0  0999 V2000
    6.8160   -3.4120   19.6830 C   0  0  0  0  0  0  0  0  0  0  0  0
    5.8040   -2.8860   18.7250 C   0  0  0  0  0  0  0  0  0  0  0  0
    6.6930   -3.1020   21.0420 N   0  0  0  0  0  0  0  0  0  0  0  0
    6.9770   -4.0080   22.1030 C   0  0  0  0  0  0  0  0  0  0  0  0
    6.8060   -1.7100   21.4480 C   0  0  0  0  0  0  0  0  0  0  0  0
    8.0270   -3.7150   22.9970 C   0  0  0  0  0  0  0  0  0  0  0  0
    6.7820   -1.6500   22.9710 C   0  0  0  0  0  0  0  0  0  0  0  0
    7.8710   -2.3850   23.6190 N   0  0  0  0  0  0  0  0  0  0  0  0
    9.0460   -1.5220   23.5040 C   0  0  0  0  0  0  0  0  0  0  0  0
   10.3270   -2.0340   23.7050 C   0  0  0  0  0  0  0  0  0  0  0  0
    8.9340   -0.1490   23.1800 C   0  0  0  0  0  0  0  0  0  0  0  0
   10.6140   -3.2850   24.0000 F   0  0  0  0  0  0  0  0  0  0  0  0
   11.4860   -1.1490   23.5830 C   0  0  0  0  0  0  0  0  0  0  0  0
   10.0290    0.6820   23.0560 C   0  0  0  0  0  0  0  0  0  0  0  0
    7.7360    0.4260   22.9700 F   0  0  0  0  0  0  0  0  0  0  0  0
   11.3230    0.2370   23.2460 C   0  0  0  0  0  0  0  0  0  0  0  0
   12.4670    0.9910   23.1280 N   0  0  0  0  0  0  0  0  0  0  0  0
   13.4950    0.2330   22.7520 C   0  0  0  0  0  0  0  0  0  0  0  0
   12.4220    2.3310   22.9110 C   0  0  0  0  0  0  0  0  0  0  0  0
  1  2  2  3
  1  3  1  0
  3  4  1  0
  3  5  1  0
  4  6  1  0
  5  7  1  0
  6  8  1  0
  7  8  1  0
  8  9  1  0
  9 10  2  0
  9 11  1  0
 10 12  1  0
 10 13  1  0
 11 14  2  0
 11 15  1  0
 13 16  2  0
 14 16  1  0
 16 17  1  0
 17 18  1  0
 17 19  1  0
M  END
