NIM-UNI-05f93fcc-7-vinylsulfonamide
     RDKit          3D

 27 29  0  0  0  0  0  0  0  0999 V2000
    7.5140   -3.0900   18.8800 C   0  0  0  0  0  0  0  0  0  0  0  0
    7.2740   -2.9920   20.3740 C   0  0  0  0  0  0  0  0  0  0  0  0
    5.9720   -4.1260   20.7450 S   0  0  0  0  0  0  0  0  0  0  0  0
    4.9680   -3.3870   21.4090 O   0  0  0  0  0  0  0  0  0  0  0  0
    5.4960   -4.8630   19.6120 O   0  0  0  0  0  0  0  0  0  0  0  0
    6.6990   -5.1640   21.8560 N   0  0  0  0  0  0  0  0  0  0  0  0
    7.2830   -4.5000   22.9700 C   0  0  0  0  0  0  0  0  0  0  0  0
    5.8700   -6.3120   22.2420 C   0  0  0  0  0  0  0  0  0  0  0  0
    6.4630   -4.2340   24.0570 C   0  0  0  0  0  0  0  0  0  0  0  0
    4.9850   -6.0200   23.2890 C   0  0  0  0  0  0  0  0  0  0  0  0
    5.7210   -5.4460   24.4350 N   0  0  0  0  0  0  0  0  0  0  0  0
    4.9210   -5.3990   25.9320 S   0  0  0  0  0  0  0  0  0  0  0  0
    5.8880   -5.2580   26.9950 O   0  0  0  0  0  0  0  0  0  0  0  0
    3.9530   -6.4760   25.9340 O   0  0  0  0  0  0  0  0  0  0  0  0
    3.9620   -3.9260   25.9760 C   0  0  0  0  0  0  0  0  0  0  0  0
    4.2560   -2.5740   26.0600 C   0  0  0  0  0  0  0  0  0  0  0  0
    2.2630   -4.1410   25.9060 S   0  0  0  0  0  0  0  0  0  0  0  0
    3.1210   -1.6160   26.0770 C   0  0  0  0  0  0  0  0  0  0  0  0
    1.9290   -2.4670   25.9930 C   0  0  0  0  0  0  0  0  0  0  0  0
    0.6130   -1.8700   25.9860 C   0  0  0  0  0  0  0  0  0  0  0  0
    0.4290   -0.5210   26.7080 C   0  0  0  0  0  0  0  0  0  0  0  0
   -0.5270   -2.4900   25.3300 C   0  0  0  0  0  0  0  0  0  0  0  0
   -0.9730    0.0510   26.6610 C   0  0  0  0  0  0  0  0  0  0  0  0
   -1.8390   -1.9360   25.2970 C   0  0  0  0  0  0  0  0  0  0  0  0
   -1.9410    1.1990   27.0590 C   0  0  0  0  0  0  0  0  0  0  0  0
   -2.1230   -0.5850   25.9910 C   0  0  0  0  0  0  0  0  0  0  0  0
   -2.8650   -2.6160   24.6330 C   0  0  0  0  0  0  0  0  0  0  0  0
  1  2  1  0
  3  2  1  0
  3  4  2  0
  3  5  2  0
  3  6  1  0
  6  7  1  0
  6  8  1  0
  7  9  1  0
  8 10  1  0
  9 11  1  0
 10 11  1  0
 11 12  1  0
 12 13  2  0
 12 14  2  0
 12 15  1  0
 15 16  2  0
 15 17  1  0
 16 18  1  0
 17 19  1  0
 18 19  2  0
 19 20  1  0
 20 21  2  0
 20 22  1  0
 21 23  1  0
 22 24  2  0
 23 25  1  0
 23 26  2  0
 24 26  1  0
 24 27  1  0
M  END
