NIM-UNI-310206f0-52-vinylsulfonamide
     RDKit          3D

 38 42  0  0  0  0  0  0  0  0999 V2000
    7.9630   -3.3520   19.8740 C   0  0  0  0  0  0  0  0  0  0  0  0
    6.9920   -2.7020   18.9370 C   0  0  0  0  0  0  0  0  0  0  0  0
    5.5390   -3.0650   19.8100 S   0  0  0  0  0  0  0  0  0  0  0  0
    5.0810   -4.4260   19.6850 O   0  0  0  0  0  0  0  0  0  0  0  0
    4.7030   -1.9860   19.5080 O   0  0  0  0  0  0  0  0  0  0  0  0
    6.1720   -2.8320   21.3130 N   0  0  0  0  0  0  0  0  0  0  0  0
    6.0570   -3.8480   22.3770 C   0  0  0  0  0  0  0  0  0  0  0  0
    6.1950   -1.4590   21.7460 C   0  0  0  0  0  0  0  0  0  0  0  0
    6.7140   -3.3930   23.5480 C   0  0  0  0  0  0  0  0  0  0  0  0
    5.7440   -1.3570   23.0650 C   0  0  0  0  0  0  0  0  0  0  0  0
    6.7720   -2.0230   23.8240 N   0  0  0  0  0  0  0  0  0  0  0  0
    7.9150   -1.3670   23.5620 C   0  0  0  0  0  0  0  0  0  0  0  0
    7.8640   -0.0270   22.8960 C   0  0  0  0  0  0  0  0  0  0  0  0
    9.1100   -1.8960   23.8760 C   0  0  0  0  0  0  0  0  0  0  0  0
    6.7530    0.6350   22.5340 F   0  0  0  0  0  0  0  0  0  0  0  0
    9.0440    0.5500   22.6380 C   0  0  0  0  0  0  0  0  0  0  0  0
   10.2580   -1.3210   23.6280 C   0  0  0  0  0  0  0  0  0  0  0  0
    9.1580   -3.0330   24.4440 F   0  0  0  0  0  0  0  0  0  0  0  0
   10.1830   -0.1210   23.0070 C   0  0  0  0  0  0  0  0  0  0  0  0
   11.2950    0.2690   22.8260 N   0  0  0  0  0  0  0  0  0  0  0  0
   11.9590   -0.8900   22.7120 C   0  0  0  0  0  0  0  0  0  0  0  0
   11.5460    1.3120   24.0110 S   0  0  0  0  0  0  0  0  0  0  0  0
   11.7760   -1.5060   21.5060 C   0  0  0  0  0  0  0  0  0  0  0  0
   12.7600   -1.5260   23.6670 C   0  0  0  0  0  0  0  0  0  0  0  0
   10.3390    1.3310   24.8060 O   0  0  0  0  0  0  0  0  0  0  0  0
   12.7870    0.8570   24.4660 O   0  0  0  0  0  0  0  0  0  0  0  0
   11.6400    2.8850   23.2600 C   0  0  0  0  0  0  0  0  0  0  0  0
   12.4320   -2.7000   21.0900 C   0  0  0  0  0  0  0  0  0  0  0  0
   13.4090   -2.7130   23.2800 C   0  0  0  0  0  0  0  0  0  0  0  0
   13.1620   -1.2940   25.1230 C   0  0  0  0  0  0  0  0  0  0  0  0
   12.7880    3.4420   22.5460 C   0  0  0  0  0  0  0  0  0  0  0  0
   10.6860    3.8710   23.1990 N   0  0  0  0  0  0  0  0  0  0  0  0
   13.3020   -3.2940   22.0170 C   0  0  0  0  0  0  0  0  0  0  0  0
   14.1210   -3.1540   24.3430 N   0  0  0  0  0  0  0  0  0  0  0  0
   14.0750   -2.4420   25.5180 C   0  0  0  0  0  0  0  0  0  0  0  0
   12.4660    4.7750   22.0540 C   0  0  0  0  0  0  0  0  0  0  0  0
   11.1880    5.0080   22.4740 O   0  0  0  0  0  0  0  0  0  0  0  0
   13.3620    5.6850   21.2530 C   0  0  0  0  0  0  0  0  0  0  0  0
  1  2  1  0
  3  2  1  0
  3  4  2  0
  3  5  2  0
  3  6  1  0
  6  7  1  0
  6  8  1  0
  7  9  1  0
  8 10  1  0
  9 11  1  0
 10 11  1  0
 11 12  1  0
 12 13  2  0
 12 14  1  0
 13 15  1  0
 13 16  1  0
 14 17  2  0
 14 18  1  0
 16 19  2  0
 17 19  1  0
 19 20  1  0
 20 21  1  0
 22 20  1  0
 21 23  2  0
 21 24  1  0
 22 25  2  0
 22 26  2  0
 22 27  1  0
 23 28  1  0
 24 29  2  0
 24 30  1  0
 27 31  1  0
 27 32  2  0
 28 33  2  0
 29 33  1  0
 29 34  1  0
 30 35  2  0
 34 35  1  0
 31 36  2  0
 32 37  1  0
 36 37  1  0
 36 38  1  0
M  END
