NIM-UNI-594fbbb6-3-chloroacetamide
     RDKit          3D

 25 27  0  0  0  0  0  0  0  0999 V2000
    7.0400   -3.0090   18.9310 C   0  0  0  0  0  0  0  0  0  0  0  0
    6.0400   -3.4280   19.9840 C   0  0  0  0  0  0  0  0  0  0  0  0
    5.1820   -4.2660   19.7410 O   0  0  0  0  0  0  0  0  0  0  0  0
    6.0970   -2.8890   21.2330 N   0  0  0  0  0  0  0  0  0  0  0  0
    6.5950   -1.5510   21.6100 C   0  0  0  0  0  0  0  0  0  0  0  0
    5.4960   -3.7020   22.2870 C   0  0  0  0  0  0  0  0  0  0  0  0
    7.7250   -1.8750   22.6470 C   0  0  0  0  0  0  0  0  0  0  0  0
    6.4070   -3.8020   23.4790 C   0  0  0  0  0  0  0  0  0  0  0  0
    6.9990   -2.5060   23.7920 N   0  0  0  0  0  0  0  0  0  0  0  0
    7.2970   -2.0690   25.1730 C   0  0  0  0  0  0  0  0  0  0  0  0
    8.7840   -2.1080   25.1970 C   0  0  0  0  0  0  0  0  0  0  0  0
    9.3760   -0.9570   24.5360 C   0  0  0  0  0  0  0  0  0  0  0  0
    9.7780   -2.9180   25.6410 N   0  0  0  0  0  0  0  0  0  0  0  0
   10.6300   -1.1360   24.5850 N   0  0  0  0  0  0  0  0  0  0  0  0
   10.9190   -2.3020   25.2600 N   0  0  0  0  0  0  0  0  0  0  0  0
   11.4460   -0.3720   24.0130 C   0  0  0  0  0  0  0  0  0  0  0  0
   12.0230    1.0280   23.9900 C   0  0  0  0  0  0  0  0  0  0  0  0
   12.0070   -1.2330   22.9460 C   0  0  0  0  0  0  0  0  0  0  0  0
   13.0620    1.3310   22.9510 C   0  0  0  0  0  0  0  0  0  0  0  0
   12.8780   -0.9010   22.0890 C   0  0  0  0  0  0  0  0  0  0  0  0
   13.4140    0.3440   22.0870 C   0  0  0  0  0  0  0  0  0  0  0  0
   13.1800   -2.1240   21.0800 S   0  0  0  0  0  0  0  0  0  0  0  0
   13.5370   -3.2320   22.2050 N   0  0  0  0  0  0  0  0  0  0  0  0
   11.9590   -2.6360   20.5670 O   0  0  0  0  0  0  0  0  0  0  0  0
   14.2110   -1.5930   20.2630 O   0  0  0  0  0  0  0  0  0  0  0  0
  1  2  1  0
  2  3  2  0
  2  4  1  0
  4  5  1  0
  4  6  1  0
  5  7  1  0
  6  8  1  0
  7  9  1  0
  8  9  1  0
  9 10  1  0
 10 11  1  0
 11 12  2  0
 11 13  1  0
 12 14  1  0
 13 15  2  0
 14 15  1  0
 14 16  1  0
 16 17  2  0
 16 18  1  0
 17 19  1  0
 18 20  2  0
 19 21  2  0
 20 21  1  0
 20 22  1  0
 22 23  1  0
 22 24  2  0
 22 25  2  0
M  END
