NIM-UNI-b87c0f72-2
     RDKit          3D

 25 27  0  0  0  0  0  0  0  0999 V2000
    6.8660    5.7780   21.5680 C   0  0  0  0  0  0  0  0  0  0  0  0
    6.8870    4.5310   22.2540 O   0  0  0  0  0  0  0  0  0  0  0  0
    6.2040    3.4840   21.6860 C   0  0  0  0  0  0  0  0  0  0  0  0
    6.9140    2.3590   21.1730 O   0  0  0  0  0  0  0  0  0  0  0  0
    4.6720    3.5440   21.6130 C   0  0  2  0  0  0  0  0  0  0  0  0
    4.1060    3.8170   23.0200 C   0  0  0  0  0  0  0  0  0  0  0  0
    4.0310    2.4090   21.0770 C   0  0  2  0  0  0  0  0  0  0  0  0
    3.4220    5.0670   23.1470 O   0  0  0  0  0  0  0  0  0  0  0  0
    4.3090    2.8110   24.1470 C   0  0  0  0  0  0  0  0  0  0  0  0
    3.7680    1.7200   22.0250 O   0  0  0  0  0  0  0  0  0  0  0  0
    4.8310    1.4940   20.1960 C   0  0  0  0  0  0  0  0  0  0  0  0
    3.2570    2.4790   23.1320 C   0  0  1  0  0  0  0  0  0  0  0  0
    5.6840    0.4200   20.8320 C   0  0  0  0  0  0  0  0  0  0  0  0
    4.8290    1.5780   18.7840 C   0  0  0  0  0  0  0  0  0  0  0  0
    2.1330    1.7650   23.5540 C   0  0  0  0  0  0  0  0  0  0  0  0
    6.4030   -0.4000   19.8380 C   0  0  0  0  0  0  0  0  0  0  0  0
    5.5260    0.7740   17.9410 N   0  0  0  0  0  0  0  0  0  0  0  0
    1.1050    2.5610   24.4400 C   0  0  0  0  0  0  0  0  0  0  0  0
    6.2960   -0.2000   18.4880 C   0  0  0  0  0  0  0  0  0  0  0  0
   -0.3230    2.1260   24.5680 C   0  0  0  0  0  0  0  0  0  0  0  0
    1.4400    3.7380   25.1730 C   0  0  0  0  0  0  0  0  0  0  0  0
   -1.2280    2.8310   25.3410 C   0  0  0  0  0  0  0  0  0  0  0  0
    0.4750    4.4190   25.9470 C   0  0  0  0  0  0  0  0  0  0  0  0
   -0.8670    3.9760   26.0410 C   0  0  0  0  0  0  0  0  0  0  0  0
    0.9380    5.8360   26.8120 Cl  0  0  0  0  0  0  0  0  0  0  0  0
  1  2  1  0
  2  3  1  0
  3  4  2  0
  5  3  1  1
  5  6  1  0
  5  7  1  0
  6  8  2  0
  6  9  1  0
  7 10  1  0
  7 11  1  6
  9 12  1  0
 10 12  1  0
 11 13  2  0
 11 14  1  0
 12 15  1  1
 13 16  1  0
 14 17  2  0
 15 18  1  0
 16 19  2  0
 17 19  1  0
 18 20  2  0
 18 21  1  0
 20 22  1  0
 21 23  2  0
 22 24  2  0
 23 24  1  0
 23 25  1  0
M  END
