NIM-UNI-ed9fc491-1-vinylsulfonamide
     RDKit          3D

 28 29  0  0  0  0  0  0  0  0999 V2000
    7.3040   -3.2620   18.9540 C   0  0  0  0  0  0  0  0  0  0  0  0
    6.2130   -3.7160   19.6660 C   0  0  0  0  0  0  0  0  0  0  0  0
    6.0590   -3.0690   21.3100 S   0  0  0  0  0  0  0  0  0  0  0  0
    4.9850   -3.9490   21.8440 O   0  0  0  0  0  0  0  0  0  0  0  0
    5.7610   -1.6680   21.1590 O   0  0  0  0  0  0  0  0  0  0  0  0
    7.7220   -3.1740   21.8840 N   0  0  0  0  0  0  0  0  0  0  0  0
    8.6030   -2.2970   21.1290 C   0  0  0  0  0  0  0  0  0  0  0  0
    8.3170   -3.2390   23.2680 C   0  0  0  0  0  0  0  0  0  0  0  0
    9.1570   -1.2450   21.9960 C   0  0  0  0  0  0  0  0  0  0  0  0
    9.7400   -3.0800   23.2580 C   0  0  0  0  0  0  0  0  0  0  0  0
   10.1730   -1.8830   22.7970 N   0  0  0  0  0  0  0  0  0  0  0  0
   10.5610   -0.9260   23.7840 C   0  0  0  0  0  0  0  0  0  0  0  0
    9.5430   -0.0230   23.8980 N   0  0  0  0  0  0  0  0  0  0  0  0
    9.1380    1.0210   23.0020 C   0  0  0  0  0  0  0  0  0  0  0  0
    9.8760    1.3690   22.0880 O   0  0  0  0  0  0  0  0  0  0  0  0
    7.8970    1.6650   23.1820 C   0  0  2  0  0  0  0  0  0  0  0  0
    6.7500    1.0060   22.6760 C   0  0  0  0  0  0  0  0  0  0  0  0
    8.0520    2.9810   22.8730 N   0  0  0  0  0  0  0  0  0  0  0  0
    6.4780    0.9590   21.3080 C   0  0  0  0  0  0  0  0  0  0  0  0
    6.9410    3.8220   22.9780 C   0  0  0  0  0  0  0  0  0  0  0  0
    5.4740    1.8010   20.7600 C   0  0  0  0  0  0  0  0  0  0  0  0
    7.1940    0.0750   20.4780 C   0  0  0  0  0  0  0  0  0  0  0  0
    6.9880    5.0950   22.1270 C   0  0  0  0  0  0  0  0  0  0  0  0
    5.9850    3.5740   23.7070 O   0  0  0  0  0  0  0  0  0  0  0  0
    5.1270    1.8160   19.3800 C   0  0  0  0  0  0  0  0  0  0  0  0
    6.9200   -0.0130   18.9690 C   0  0  0  0  0  0  0  0  0  0  0  0
    5.8460    0.8890   18.3780 C   0  0  0  0  0  0  0  0  0  0  0  0
    5.5600    0.8980   17.2070 O   0  0  0  0  0  0  0  0  0  0  0  0
  1  2  1  0
  3  2  1  0
  3  4  2  0
  3  5  2  0
  3  6  1  0
  6  7  1  0
  6  8  1  0
  7  9  1  0
  8 10  1  0
  9 11  1  0
 10 11  1  0
 11 12  1  0
 12 13  1  0
 13 14  1  0
 14 15  2  0
 14 16  1  0
 16 17  1  6
 16 18  1  0
 17 19  1  0
 18 20  1  0
 19 21  2  0
 19 22  1  0
 20 23  1  0
 20 24  2  0
 21 25  1  0
 22 26  2  0
 25 27  2  0
 26 27  1  0
 27 28  1  0
M  END
