NIM-UNI-310206f0-8-nitrile
     RDKit          3D

 21 23  0  0  0  0  0  0  0  0999 V2000
    6.5090   -3.5770   19.6450 C   0  0  0  0  0  0  0  0  0  0  0  0
    5.7650   -3.1410   18.7030 N   0  0  0  0  0  0  0  0  0  0  0  0
    6.2050   -3.4140   21.0030 N   0  0  0  0  0  0  0  0  0  0  0  0
    6.7980   -4.1160   22.0760 C   0  0  0  0  0  0  0  0  0  0  0  0
    5.6490   -2.1600   21.4780 C   0  0  0  0  0  0  0  0  0  0  0  0
    7.6810   -3.3830   22.8970 C   0  0  0  0  0  0  0  0  0  0  0  0
    6.6440   -1.3580   21.9580 C   0  0  0  0  0  0  0  0  0  0  0  0
    7.5370   -2.0200   22.9410 N   0  0  0  0  0  0  0  0  0  0  0  0
    8.8260   -1.3390   23.0780 C   0  0  0  0  0  0  0  0  0  0  0  0
    8.8380   -0.0100   22.5860 C   0  0  0  0  0  0  0  0  0  0  0  0
   10.0070   -1.8640   23.6210 C   0  0  0  0  0  0  0  0  0  0  0  0
    7.7600    0.5880   22.0540 F   0  0  0  0  0  0  0  0  0  0  0  0
    9.9920    0.7540   22.6260 C   0  0  0  0  0  0  0  0  0  0  0  0
   11.1710   -1.1430   23.6900 C   0  0  0  0  0  0  0  0  0  0  0  0
   10.0660   -3.1020   24.0940 F   0  0  0  0  0  0  0  0  0  0  0  0
   11.2240    0.1480   23.2030 C   0  0  0  0  0  0  0  0  0  0  0  0
   12.3970    0.7660   23.2730 N   0  0  0  0  0  0  0  0  0  0  0  0
   13.4020   -0.0460   22.9510 C   0  0  0  0  0  0  0  0  0  0  0  0
   13.2360   -1.0520   21.8890 C   0  0  0  0  0  0  0  0  0  0  0  0
   13.1150   -2.3630   22.4930 C   0  0  0  0  0  0  0  0  0  0  0  0
   11.9000   -2.0660   21.7720 C   0  0  0  0  0  0  0  0  0  0  0  0
  1  2  2  3
  1  3  1  0
  3  4  1  0
  3  5  1  0
  4  6  1  0
  5  7  1  0
  6  8  1  0
  7  8  1  0
  8  9  1  0
  9 10  2  0
  9 11  1  0
 10 12  1  0
 10 13  1  0
 11 14  2  0
 11 15  1  0
 13 16  2  0
 14 16  1  0
 16 17  1  0
 17 18  1  0
 18 19  1  0
 19 20  1  0
 19 21  1  0
 20 21  1  0
M  END
