NIM-UNI-ed9fc491-4-bromoalkyne
     RDKit          3D

 32 34  0  0  0  0  0  0  0  0999 V2000
    6.7980   -5.2740   20.4240 C   0  0  0  0  0  0  0  0  0  0  0  0
    5.7710   -6.0090   19.9580 C   0  0  0  0  0  0  0  0  0  0  0  0
    6.5750   -4.5600   21.6120 N   0  0  0  0  0  0  0  0  0  0  0  0
    7.2310   -4.9110   22.8990 C   0  0  0  0  0  0  0  0  0  0  0  0
    5.9890   -3.2200   21.6280 C   0  0  0  0  0  0  0  0  0  0  0  0
    8.2060   -3.7690   23.2420 C   0  0  0  0  0  0  0  0  0  0  0  0
    7.1220   -2.2450   21.8150 C   0  0  0  0  0  0  0  0  0  0  0  0
    8.4020   -2.9480   22.0480 N   0  0  0  0  0  0  0  0  0  0  0  0
    9.5990   -2.0960   21.9410 C   0  0  0  0  0  0  0  0  0  0  0  0
    9.8440   -1.3950   23.2140 C   0  0  2  0  0  0  0  0  0  0  0  0
    8.5710   -0.6750   23.3250 N   0  0  0  0  0  0  0  0  0  0  0  0
   11.0180   -0.7320   23.0640 C   0  0  0  0  0  0  0  0  0  0  0  0
    8.5700    0.5920   22.6080 C   0  0  0  0  0  0  0  0  0  0  0  0
   12.1110   -1.5180   22.8070 C   0  0  0  0  0  0  0  0  0  0  0  0
   11.1430    0.6720   23.1470 C   0  0  0  0  0  0  0  0  0  0  0  0
    9.5250    0.9930   21.6430 O   0  0  0  0  0  0  0  0  0  0  0  0
    7.5070    1.3930   22.9930 C   0  0  2  0  0  0  0  0  0  0  0  0
   13.2990   -0.8940   22.6360 C   0  0  0  0  0  0  0  0  0  0  0  0
   12.3500    1.3190   22.9810 C   0  0  0  0  0  0  0  0  0  0  0  0
    6.2710    0.8880   22.6280 C   0  0  0  0  0  0  0  0  0  0  0  0
    7.6660    2.6360   22.2310 N   0  0  0  0  0  0  0  0  0  0  0  0
   13.3990    0.4760   22.7250 C   0  0  0  0  0  0  0  0  0  0  0  0
    6.1120    0.8720   21.2450 C   0  0  0  0  0  0  0  0  0  0  0  0
    7.0850    3.7260   22.7870 C   0  0  0  0  0  0  0  0  0  0  0  0
    5.0810    1.6730   20.6970 C   0  0  0  0  0  0  0  0  0  0  0  0
    6.9450    0.0830   20.4050 C   0  0  0  0  0  0  0  0  0  0  0  0
    7.5700    4.9410   22.2960 C   0  0  0  0  0  0  0  0  0  0  0  0
    6.2300    3.6580   23.6350 O   0  0  0  0  0  0  0  0  0  0  0  0
    4.8460    1.7010   19.1810 C   0  0  0  0  0  0  0  0  0  0  0  0
    6.8060    0.0440   19.0240 C   0  0  0  0  0  0  0  0  0  0  0  0
    5.7310    0.8610   18.2840 C   0  0  0  0  0  0  0  0  0  0  0  0
    5.7020    0.7560   17.0960 O   0  0  0  0  0  0  0  0  0  0  0  0
  1  2  2  3
  1  3  1  0
  3  4  1  0
  3  5  1  0
  4  6  1  0
  5  7  1  0
  6  8  1  0
  7  8  1  0
  8  9  1  0
 10  9  1  6
 10 11  1  0
 10 12  1  0
 11 13  1  0
 12 14  2  0
 12 15  1  0
 13 16  2  0
 13 17  1  0
 14 18  1  0
 15 19  2  0
 17 20  1  6
 17 21  1  0
 18 22  2  0
 19 22  1  0
 20 23  1  0
 21 24  1  0
 23 25  2  0
 23 26  1  0
 24 27  1  0
 24 28  2  0
 25 29  1  0
 26 30  2  0
 29 31  2  0
 30 31  1  0
 31 32  1  0
M  END
