NIM-UNI-43fe0159-3-nitrile
     RDKit          3D

 15 16  0  0  0  0  0  0  0  0999 V2000
    6.7760   -3.9140   19.7830 C   0  0  0  0  0  0  0  0  0  0  0  0
    6.5060   -3.2330   18.7290 N   0  0  0  0  0  0  0  0  0  0  0  0
    6.2570   -3.6260   21.0090 N   0  0  0  0  0  0  0  0  0  0  0  0
    6.5410   -4.4010   22.2200 C   0  0  0  0  0  0  0  0  0  0  0  0
    6.3040   -2.3500   21.3940 C   0  0  0  0  0  0  0  0  0  0  0  0
    7.8560   -3.8470   22.8520 C   0  0  0  0  0  0  0  0  0  0  0  0
    7.4670   -1.7190   21.6700 O   0  0  0  0  0  0  0  0  0  0  0  0
    8.4770   -2.6190   22.1280 C   0  0  1  0  0  0  0  0  0  0  0  0
    9.5840   -1.7850   22.8250 C   0  0  0  0  0  0  0  0  0  0  0  0
   10.9220   -1.7520   22.1230 C   0  0  0  0  0  0  0  0  0  0  0  0
    9.4480   -1.0540   24.0260 C   0  0  0  0  0  0  0  0  0  0  0  0
   11.9700   -1.0070   22.6620 C   0  0  0  0  0  0  0  0  0  0  0  0
   10.5380   -0.3200   24.5260 C   0  0  0  0  0  0  0  0  0  0  0  0
   11.7580   -0.3150   23.8320 C   0  0  0  0  0  0  0  0  0  0  0  0
   12.8050    0.3850   24.2940 O   0  0  0  0  0  0  0  0  0  0  0  0
  1  2  2  3
  1  3  1  0
  3  4  1  0
  3  5  1  0
  4  6  1  0
  5  7  1  0
  6  8  1  0
  7  8  1  0
  8  9  1  1
  9 10  2  0
  9 11  1  0
 10 12  1  0
 11 13  2  0
 12 14  2  0
 13 14  1  0
 14 15  1  0
M  END
