NIM-UNI-bb9030bf-10-acrylamide
     RDKit          3D

 22 23  0  0  0  0  0  0  0  0999 V2000
    6.3980   -4.1090   20.1730 C   0  0  0  0  0  0  0  0  0  0  0  0
    5.8590   -2.6810   20.2900 C   0  0  0  0  0  0  0  0  0  0  0  0
    5.5640   -2.3510   21.7440 C   0  0  0  0  0  0  0  0  0  0  0  0
    4.7600   -3.2450   21.6330 O   0  0  0  0  0  0  0  0  0  0  0  0
    6.5530   -1.4270   21.5070 N   0  0  0  0  0  0  0  0  0  0  0  0
    7.4410   -1.3540   22.6590 C   0  0  2  0  0  0  0  0  0  0  0  0
    8.8770   -1.4780   22.2310 C   0  0  0  0  0  0  0  0  0  0  0  0
    6.9460   -2.4670   23.5700 C   0  0  0  0  0  0  0  0  0  0  0  0
    9.2730   -0.3370   21.4420 O   0  0  0  0  0  0  0  0  0  0  0  0
    9.6390   -2.6940   22.6590 N   0  0  0  0  0  0  0  0  0  0  0  0
    6.1600   -2.1880   24.8960 C   0  0  0  0  0  0  0  0  0  0  0  0
    7.1610   -3.8290   23.2520 C   0  0  0  0  0  0  0  0  0  0  0  0
   10.5170   -2.4800   23.7320 C   0  0  0  0  0  0  0  0  0  0  0  0
    5.7350   -3.3940   25.6410 C   0  0  0  0  0  0  0  0  0  0  0  0
    6.7450   -4.9340   23.9800 N   0  0  0  0  0  0  0  0  0  0  0  0
   11.7950   -2.1620   23.3150 C   0  0  0  0  0  0  0  0  0  0  0  0
    6.0740   -4.7480   25.0980 C   0  0  0  0  0  0  0  0  0  0  0  0
   11.6610   -1.0310   22.2760 C   0  0  0  0  0  0  0  0  0  0  0  0
   12.6510   -1.7270   24.3160 C   0  0  0  0  0  0  0  0  0  0  0  0
   10.9180    0.0940   22.9530 C   0  0  0  0  0  0  0  0  0  0  0  0
   12.6270   -0.3530   24.5360 C   0  0  0  0  0  0  0  0  0  0  0  0
   11.5060    0.3910   24.1750 C   0  0  0  0  0  0  0  0  0  0  0  0
  1  2  1  0
  2  3  1  0
  3  4  2  0
  3  5  1  0
  6  5  1  6
  6  7  1  0
  6  8  1  0
  7  9  2  0
  7 10  1  0
  8 11  2  0
  8 12  1  0
 10 13  1  0
 11 14  1  0
 12 15  2  0
 13 16  1  0
 14 17  2  0
 15 17  1  0
 16 18  1  0
 16 19  1  0
 18 20  1  0
 19 21  1  0
 20 22  1  0
 21 22  1  0
M  END
