NIM-UNI-bb9030bf-10-nitrile
     RDKit          3D

 20 21  0  0  0  0  0  0  0  0999 V2000
    6.3500   -3.5060   19.7520 C   0  0  0  0  0  0  0  0  0  0  0  0
    5.9270   -3.3320   18.5470 N   0  0  0  0  0  0  0  0  0  0  0  0
    6.6680   -2.4820   20.6080 N   0  0  0  0  0  0  0  0  0  0  0  0
    7.3040   -1.2120   20.2740 C   0  0  1  0  0  0  0  0  0  0  0  0
    8.5840   -1.2440   21.1260 C   0  0  0  0  0  0  0  0  0  0  0  0
    7.3150   -0.9780   18.8720 C   0  0  0  0  0  0  0  0  0  0  0  0
    9.1770   -2.2860   21.3800 O   0  0  0  0  0  0  0  0  0  0  0  0
    9.0440    0.0590   21.6740 N   0  0  0  0  0  0  0  0  0  0  0  0
    7.0330    0.2980   18.3720 C   0  0  0  0  0  0  0  0  0  0  0  0
    7.5980   -1.9900   17.9260 C   0  0  0  0  0  0  0  0  0  0  0  0
   10.1390   -0.0250   22.5670 C   0  0  0  0  0  0  0  0  0  0  0  0
    7.0490    0.5390   16.8500 C   0  0  0  0  0  0  0  0  0  0  0  0
    7.6310   -1.9130   16.5480 N   0  0  0  0  0  0  0  0  0  0  0  0
   11.1730   -1.1010   22.2950 C   0  0  0  0  0  0  0  0  0  0  0  0
    7.3800   -0.7150   16.0130 C   0  0  0  0  0  0  0  0  0  0  0  0
   11.7130    0.2200   22.7340 C   0  0  0  0  0  0  0  0  0  0  0  0
   11.4160   -2.2440   23.0400 C   0  0  0  0  0  0  0  0  0  0  0  0
   12.3540    0.1660   23.9520 C   0  0  0  0  0  0  0  0  0  0  0  0
   11.2300   -2.0500   24.3950 C   0  0  0  0  0  0  0  0  0  0  0  0
   11.7280   -0.8760   24.9480 C   0  0  0  0  0  0  0  0  0  0  0  0
  1  2  2  3
  1  3  1  0
  4  3  1  6
  4  5  1  0
  4  6  1  0
  5  7  2  0
  5  8  1  0
  6  9  2  0
  6 10  1  0
  8 11  1  0
  9 12  1  0
 10 13  2  0
 11 14  1  0
 12 15  2  0
 13 15  1  0
 14 16  1  0
 14 17  1  0
 16 18  1  0
 17 19  1  0
 18 20  1  0
 19 20  1  0
M  END
