NIM-UNI-bb9030bf-16-nitrile
     RDKit          3D

 13 13  0  0  0  0  0  0  0  0999 V2000
    7.5180   -2.7900   19.4510 C   0  0  0  0  0  0  0  0  0  0  0  0
    6.8460   -2.4200   18.4590 N   0  0  0  0  0  0  0  0  0  0  0  0
    7.5740   -2.0680   20.6710 N   0  0  0  0  0  0  0  0  0  0  0  0
    6.6360   -1.0290   21.1040 C   0  0  1  0  0  0  0  0  0  0  0  0
    7.2400   -0.1770   22.2220 C   0  0  0  0  0  0  0  0  0  0  0  0
    6.1350   -0.1160   19.9530 C   0  0  0  0  0  0  0  0  0  0  0  0
    8.1390    0.9190   21.7730 N   0  0  0  0  0  0  0  0  0  0  0  0
    7.0120   -0.3780   23.4070 O   0  0  0  0  0  0  0  0  0  0  0  0
    4.8630    0.6380   20.3840 C   0  0  0  0  0  0  0  0  0  0  0  0
    6.8230   -0.0630   18.7210 C   0  0  0  0  0  0  0  0  0  0  0  0
    4.6710    1.3810   19.0740 C   0  0  0  0  0  0  0  0  0  0  0  0
    6.4650    0.6760   17.6870 N   0  0  0  0  0  0  0  0  0  0  0  0
    5.3770    1.3950   17.8900 C   0  0  0  0  0  0  0  0  0  0  0  0
  1  2  2  3
  1  3  1  0
  4  3  1  6
  4  5  1  0
  4  6  1  0
  5  7  1  0
  5  8  2  0
  6  9  2  0
  6 10  1  0
  9 11  1  0
 10 12  2  0
 11 13  2  0
 12 13  1  0
M  END
