NIM-UNI-bb9030bf-11-chloroacetamide
     RDKit          3D

 20 21  0  0  0  0  0  0  0  0999 V2000
    7.5660   -4.0970   20.4950 C   0  0  0  0  0  0  0  0  0  0  0  0
    6.2790   -3.3530   20.3540 C   0  0  0  0  0  0  0  0  0  0  0  0
    5.3530   -3.7950   19.6250 O   0  0  0  0  0  0  0  0  0  0  0  0
    6.2750   -2.1320   21.0730 N   0  0  0  0  0  0  0  0  0  0  0  0
    7.1930   -1.1330   20.5200 C   0  0  2  0  0  0  0  0  0  0  0  0
    8.1520   -0.3940   21.4680 C   0  0  0  0  0  0  0  0  0  0  0  0
    6.3590   -0.1540   19.7760 C   0  0  0  0  0  0  0  0  0  0  0  0
    8.3440    0.8100   21.3030 O   0  0  0  0  0  0  0  0  0  0  0  0
    8.8250   -1.2180   22.5050 N   0  0  0  0  0  0  0  0  0  0  0  0
    5.1620    0.3620   20.2430 C   0  0  0  0  0  0  0  0  0  0  0  0
    6.7940    0.2680   18.5360 C   0  0  0  0  0  0  0  0  0  0  0  0
    9.8370   -0.6740   23.2510 C   0  0  0  0  0  0  0  0  0  0  0  0
    4.3760    1.3590   19.3930 C   0  0  0  0  0  0  0  0  0  0  0  0
    6.1670    1.1750   17.6640 N   0  0  0  0  0  0  0  0  0  0  0  0
   11.1560   -0.5730   22.5840 C   0  0  0  0  0  0  0  0  0  0  0  0
    5.0000    1.7280   18.0300 C   0  0  0  0  0  0  0  0  0  0  0  0
   11.6110    0.7170   22.6020 C   0  0  0  0  0  0  0  0  0  0  0  0
   12.0730   -1.3160   23.3420 C   0  0  0  0  0  0  0  0  0  0  0  0
   12.1190    0.8980   24.0020 C   0  0  0  0  0  0  0  0  0  0  0  0
   12.6450   -0.4720   24.2960 C   0  0  0  0  0  0  0  0  0  0  0  0
  1  2  1  0
  2  3  2  0
  2  4  1  0
  5  4  1  1
  5  6  1  0
  5  7  1  0
  6  8  2  0
  6  9  1  0
  7 10  2  0
  7 11  1  0
  9 12  1  0
 10 13  1  0
 11 14  2  0
 12 15  1  0
 13 16  2  0
 14 16  1  0
 15 17  1  0
 15 18  1  0
 17 19  1  0
 18 20  1  0
 19 20  1  0
M  END
