NIM-UNI-310206f0-66-bromoalkyne
     RDKit          3D

 37 41  0  0  0  0  0  0  0  0999 V2000
    6.6500   -3.8580   20.0210 C   0  0  0  0  0  0  0  0  0  0  0  0
    6.3470   -3.0200   18.7930 C   0  0  0  0  0  0  0  0  0  0  0  0
    5.9160   -3.5230   21.1660 N   0  0  0  0  0  0  0  0  0  0  0  0
    5.6520   -2.0690   21.2680 C   0  0  0  0  0  0  0  0  0  0  0  0
    5.9810   -4.1820   22.5020 C   0  0  0  0  0  0  0  0  0  0  0  0
    5.5330   -1.6430   22.6060 C   0  0  0  0  0  0  0  0  0  0  0  0
    6.7980   -3.4000   23.5600 C   0  0  0  0  0  0  0  0  0  0  0  0
    6.5680   -1.9250   23.4950 N   0  0  0  0  0  0  0  0  0  0  0  0
    7.7390   -1.1530   23.5340 C   0  0  0  0  0  0  0  0  0  0  0  0
    8.3910   -0.8040   24.8360 C   0  0  0  0  0  0  0  0  0  0  0  0
    8.4030   -0.6490   22.4050 C   0  0  0  0  0  0  0  0  0  0  0  0
    7.8620   -1.1890   26.0010 F   0  0  0  0  0  0  0  0  0  0  0  0
    9.5670   -0.0710   24.8770 C   0  0  0  0  0  0  0  0  0  0  0  0
    9.6810    0.1480   22.5180 C   0  0  0  0  0  0  0  0  0  0  0  0
    7.9330   -0.8540   21.1670 F   0  0  0  0  0  0  0  0  0  0  0  0
   10.2510    0.4180   23.7550 C   0  0  0  0  0  0  0  0  0  0  0  0
   11.3940    1.1000   23.8260 N   0  0  0  0  0  0  0  0  0  0  0  0
   12.4780    0.3030   23.9080 C   0  0  0  0  0  0  0  0  0  0  0  0
   11.4420    2.4620   23.3860 C   0  0  0  0  0  0  0  0  0  0  0  0
   13.4000    0.1690   22.9590 O   0  0  0  0  0  0  0  0  0  0  0  0
   12.5610   -0.4130   25.1090 N   0  0  0  0  0  0  0  0  0  0  0  0
   12.7190    2.9920   22.7480 C   0  0  0  0  0  0  0  0  0  0  0  0
   10.3220    3.3500   23.5340 C   0  0  0  0  0  0  0  0  0  0  0  0
   12.7120   -1.7290   25.0370 C   0  0  0  0  0  0  0  0  0  0  0  0
   12.7140    4.4370   22.3090 C   0  0  0  0  0  0  0  0  0  0  0  0
   10.3590    4.7160   23.1070 C   0  0  0  0  0  0  0  0  0  0  0  0
    9.0340    3.2190   24.0550 C   0  0  0  0  0  0  0  0  0  0  0  0
   12.3340   -2.1060   23.6850 C   0  0  0  0  0  0  0  0  0  0  0  0
   11.4870    5.3010   22.5070 C   0  0  0  0  0  0  0  0  0  0  0  0
    9.1190    5.3030   23.3930 N   0  0  0  0  0  0  0  0  0  0  0  0
    8.2980    4.3790   23.9800 C   0  0  0  0  0  0  0  0  0  0  0  0
   13.3770   -2.6500   22.8300 C   0  0  0  0  0  0  0  0  0  0  0  0
   11.0410   -1.9600   23.2340 C   0  0  0  0  0  0  0  0  0  0  0  0
   13.1240   -3.0730   21.4330 C   0  0  0  0  0  0  0  0  0  0  0  0
   10.7090   -2.3750   21.8130 C   0  0  0  0  0  0  0  0  0  0  0  0
   11.8550   -2.9430   20.9500 C   0  0  0  0  0  0  0  0  0  0  0  0
    9.4660   -2.2590   21.3500 F   0  0  0  0  0  0  0  0  0  0  0  0
  1  2  2  3
  1  3  1  0
  3  4  1  0
  3  5  1  0
  4  6  1  0
  5  7  1  0
  6  8  1  0
  7  8  1  0
  8  9  1  0
  9 10  2  0
  9 11  1  0
 10 12  1  0
 10 13  1  0
 11 14  2  0
 11 15  1  0
 13 16  2  0
 14 16  1  0
 16 17  1  0
 17 18  1  0
 17 19  1  0
 18 20  2  0
 18 21  1  0
 19 22  2  0
 19 23  1  0
 21 24  1  0
 22 25  1  0
 23 26  2  0
 23 27  1  0
 24 28  1  0
 25 29  2  0
 26 29  1  0
 26 30  1  0
 27 31  2  0
 30 31  1  0
 28 32  2  0
 28 33  1  0
 32 34  1  0
 33 35  2  0
 34 36  2  0
 35 36  1  0
 35 37  1  0
M  END
