NIM-UNI-43fe0159-8-bromoalkyne
     RDKit          3D

 19 20  0  0  0  0  0  0  0  0999 V2000
    6.8930   -4.8980   20.3960 C   0  0  0  0  0  0  0  0  0  0  0  0
    5.9080   -5.7210   20.0490 C   0  0  0  0  0  0  0  0  0  0  0  0
    6.7590   -4.0580   21.4880 N   0  0  0  0  0  0  0  0  0  0  0  0
    6.2390   -2.6920   21.3080 C   0  0  0  0  0  0  0  0  0  0  0  0
    7.1580   -4.4470   22.8920 C   0  0  0  0  0  0  0  0  0  0  0  0
    6.9320   -1.8430   22.3480 C   0  0  0  0  0  0  0  0  0  0  0  0
    8.0730   -3.7520   23.3700 O   0  0  0  0  0  0  0  0  0  0  0  0
    8.2400   -2.5700   22.6030 C   0  0  2  0  0  0  0  0  0  0  0  0
    9.4410   -1.7630   22.9060 C   0  0  0  0  0  0  0  0  0  0  0  0
    9.4640   -0.8370   23.9770 C   0  0  0  0  0  0  0  0  0  0  0  0
   10.5360   -1.9530   22.0610 C   0  0  0  0  0  0  0  0  0  0  0  0
   10.5960   -0.0800   24.1760 C   0  0  0  0  0  0  0  0  0  0  0  0
   11.7730   -1.1360   22.2770 C   0  0  0  0  0  0  0  0  0  0  0  0
   11.6970   -0.2600   23.3050 C   0  0  0  0  0  0  0  0  0  0  0  0
   12.7790    0.5380   23.5140 C   0  0  0  0  0  0  0  0  0  0  0  0
   12.4050    1.8080   23.6950 N   0  0  0  0  0  0  0  0  0  0  0  0
   11.6550    2.4870   22.7920 C   0  0  0  0  0  0  0  0  0  0  0  0
   10.1800    2.1620   22.6150 C   0  0  0  0  0  0  0  0  0  0  0  0
   12.1270    3.3950   22.1230 O   0  0  0  0  0  0  0  0  0  0  0  0
  1  2  2  3
  1  3  1  0
  3  4  1  0
  3  5  1  0
  4  6  1  0
  5  7  1  0
  6  8  1  0
  7  8  1  0
  8  9  1  1
  9 10  2  0
  9 11  1  0
 10 12  1  0
 11 13  2  0
 12 14  2  0
 13 14  1  0
 14 15  1  0
 15 16  1  0
 16 17  1  0
 17 18  1  0
 17 19  2  0
M  END
