NIM-UNI-310206f0-1-nitrile
     RDKit          3D

 22 24  0  0  0  0  0  0  0  0999 V2000
    6.6170   -3.7680   19.9350 C   0  0  0  0  0  0  0  0  0  0  0  0
    5.6570   -3.3670   19.2000 N   0  0  0  0  0  0  0  0  0  0  0  0
    6.7890   -3.4900   21.2740 N   0  0  0  0  0  0  0  0  0  0  0  0
    6.3860   -2.2590   21.8140 C   0  0  0  0  0  0  0  0  0  0  0  0
    6.9070   -4.5310   22.3100 C   0  0  0  0  0  0  0  0  0  0  0  0
    6.3120   -2.2910   23.2140 C   0  0  0  0  0  0  0  0  0  0  0  0
    7.7750   -4.0880   23.3030 C   0  0  0  0  0  0  0  0  0  0  0  0
    7.4480   -2.7340   23.7870 N   0  0  0  0  0  0  0  0  0  0  0  0
    8.4150   -1.6610   23.5910 C   0  0  0  0  0  0  0  0  0  0  0  0
    9.8080   -1.9590   23.6230 C   0  0  0  0  0  0  0  0  0  0  0  0
    8.0020   -0.3420   23.3580 C   0  0  0  0  0  0  0  0  0  0  0  0
   10.2940   -3.1800   23.8430 F   0  0  0  0  0  0  0  0  0  0  0  0
   10.7720   -0.9800   23.4150 C   0  0  0  0  0  0  0  0  0  0  0  0
    9.0090    0.7360   23.1240 C   0  0  0  0  0  0  0  0  0  0  0  0
    6.7130    0.0320   23.3200 F   0  0  0  0  0  0  0  0  0  0  0  0
   10.3310    0.4190   23.1460 C   0  0  0  0  0  0  0  0  0  0  0  0
   11.3350    1.3760   22.8990 C   0  0  0  0  0  0  0  0  0  0  0  0
   10.8600    2.7540   22.7470 C   0  0  0  0  0  0  0  0  0  0  0  0
   12.7370    0.9490   22.7910 C   0  0  0  0  0  0  0  0  0  0  0  0
   11.9720    3.7560   22.4490 C   0  0  0  0  0  0  0  0  0  0  0  0
   13.5420    2.0180   22.5210 C   0  0  0  0  0  0  0  0  0  0  0  0
   13.2330    3.3730   22.3470 N   0  0  0  0  0  0  0  0  0  0  0  0
  1  2  2  3
  1  3  1  0
  3  4  1  0
  3  5  1  0
  4  6  1  0
  5  7  1  0
  6  8  1  0
  7  8  1  0
  8  9  1  0
  9 10  2  0
  9 11  1  0
 10 12  1  0
 10 13  1  0
 11 14  2  0
 11 15  1  0
 13 16  2  0
 14 16  1  0
 16 17  1  0
 17 18  2  0
 17 19  1  0
 18 20  1  0
 19 21  2  0
 20 22  2  0
 21 22  1  0
M  END
