NIM-UNI-05f93fcc-16-nitrile
     RDKit          3D

 25 28  0  0  0  0  0  0  0  0999 V2000
    7.0420   -4.0960   20.2770 C   0  0  0  0  0  0  0  0  0  0  0  0
    5.9930   -3.7310   19.6250 N   0  0  0  0  0  0  0  0  0  0  0  0
    6.9440   -4.7850   21.4900 N   0  0  0  0  0  0  0  0  0  0  0  0
    7.6950   -4.3330   22.6680 C   0  0  0  0  0  0  0  0  0  0  0  0
    6.0090   -5.9120   21.7580 C   0  0  0  0  0  0  0  0  0  0  0  0
    6.7280   -4.1110   23.8480 C   0  0  0  0  0  0  0  0  0  0  0  0
    5.1910   -5.7150   22.9220 C   0  0  0  0  0  0  0  0  0  0  0  0
    5.9330   -5.3140   24.1430 N   0  0  0  0  0  0  0  0  0  0  0  0
    5.1510   -5.4510   25.6560 S   0  0  0  0  0  0  0  0  0  0  0  0
    6.0790   -5.2710   26.7350 O   0  0  0  0  0  0  0  0  0  0  0  0
    4.2430   -6.5730   25.6110 O   0  0  0  0  0  0  0  0  0  0  0  0
    4.1020   -4.0520   25.8180 C   0  0  0  0  0  0  0  0  0  0  0  0
    4.5020   -2.5980   25.9860 C   0  0  0  0  0  0  0  0  0  0  0  0
    2.4240   -4.2330   25.7990 S   0  0  0  0  0  0  0  0  0  0  0  0
    3.2940   -1.7430   26.0860 C   0  0  0  0  0  0  0  0  0  0  0  0
    2.1330   -2.5400   25.9960 C   0  0  0  0  0  0  0  0  0  0  0  0
    0.8490   -2.1540   26.0460 C   0  0  0  0  0  0  0  0  0  0  0  0
    0.4010   -0.9180   26.6140 C   0  0  0  0  0  0  0  0  0  0  0  0
   -0.0620   -3.0510   25.5010 C   0  0  0  0  0  0  0  0  0  0  0  0
   -1.0090   -0.6080   26.6190 C   0  0  0  0  0  0  0  0  0  0  0  0
   -1.4290   -2.7150   25.5220 C   0  0  0  0  0  0  0  0  0  0  0  0
    0.0620   -4.3840   24.8460 N   0  0  0  0  0  0  0  0  0  0  0  0
   -1.9220   -1.5260   26.0640 C   0  0  0  0  0  0  0  0  0  0  0  0
   -2.1730   -3.8410   24.8780 C   0  0  0  0  0  0  0  0  0  0  0  0
   -1.1760   -4.8600   24.4740 C   0  0  0  0  0  0  0  0  0  0  0  0
  1  2  2  3
  1  3  1  0
  3  4  1  0
  3  5  1  0
  4  6  1  0
  5  7  1  0
  6  8  1  0
  7  8  1  0
  8  9  1  0
  9 10  2  0
  9 11  2  0
  9 12  1  0
 12 13  2  0
 12 14  1  0
 13 15  1  0
 14 16  1  0
 15 16  2  0
 16 17  1  0
 17 18  2  0
 17 19  1  0
 18 20  1  0
 19 21  2  0
 19 22  1  0
 20 23  2  0
 21 23  1  0
 21 24  1  0
 22 25  1  0
 24 25  2  0
M  END
