NIM-UNI-310206f0-12-vinylsulfonamide
     RDKit          3D

 33 35  0  0  0  0  0  0  0  0999 V2000
    7.2320   -2.8350   18.4870 C   0  0  0  0  0  0  0  0  0  0  0  0
    6.3640   -2.2690   19.6040 C   0  0  0  0  0  0  0  0  0  0  0  0
    5.7610   -3.4920   20.7450 S   0  0  0  0  0  0  0  0  0  0  0  0
    4.6420   -2.9710   21.4410 O   0  0  0  0  0  0  0  0  0  0  0  0
    5.6400   -4.7970   20.1150 O   0  0  0  0  0  0  0  0  0  0  0  0
    6.8790   -3.3650   21.9330 N   0  0  0  0  0  0  0  0  0  0  0  0
    7.0100   -1.9780   22.3690 C   0  0  0  0  0  0  0  0  0  0  0  0
    6.6700   -4.3400   23.0230 C   0  0  0  0  0  0  0  0  0  0  0  0
    6.0980   -2.0150   23.6260 C   0  0  0  0  0  0  0  0  0  0  0  0
    7.3330   -3.9250   24.3500 C   0  0  0  0  0  0  0  0  0  0  0  0
    7.0670   -2.4900   24.6100 N   0  0  0  0  0  0  0  0  0  0  0  0
    8.1480   -1.4940   24.5170 C   0  0  0  0  0  0  0  0  0  0  0  0
    9.5340   -2.0990   24.2990 C   0  0  0  0  0  0  0  0  0  0  0  0
    7.9230   -0.1070   24.5860 C   0  0  0  0  0  0  0  0  0  0  0  0
    9.8140   -3.3980   24.2360 F   0  0  0  0  0  0  0  0  0  0  0  0
   10.6830   -1.0850   24.1190 C   0  0  0  0  0  0  0  0  0  0  0  0
    9.0360    0.8750   24.4010 C   0  0  0  0  0  0  0  0  0  0  0  0
    6.6910    0.3940   24.7990 F   0  0  0  0  0  0  0  0  0  0  0  0
   10.2970    0.4180   24.1650 C   0  0  0  0  0  0  0  0  0  0  0  0
   11.3670    1.2910   23.8850 N   0  0  0  0  0  0  0  0  0  0  0  0
   11.7910    0.2180   23.0000 C   0  0  0  0  0  0  0  0  0  0  0  0
   10.7200    2.7530   23.1730 S   0  0  0  0  0  0  0  0  0  0  0  0
   13.1320   -0.0310   22.7380 N   0  0  0  0  0  0  0  0  0  0  0  0
   10.7060   -0.4820   22.5400 N   0  0  0  0  0  0  0  0  0  0  0  0
    9.9540    2.3870   21.9940 O   0  0  0  0  0  0  0  0  0  0  0  0
    9.9840    3.4460   24.2090 O   0  0  0  0  0  0  0  0  0  0  0  0
   12.0580    3.8250   22.6440 C   0  0  0  0  0  0  0  0  0  0  0  0
   13.2330   -1.1050   21.9680 C   0  0  0  0  0  0  0  0  0  0  0  0
   10.9530   -1.5460   21.7730 C   0  0  0  0  0  0  0  0  0  0  0  0
   11.9680    4.1770   21.3390 F   0  0  0  0  0  0  0  0  0  0  0  0
   13.2720    3.2600   22.7730 F   0  0  0  0  0  0  0  0  0  0  0  0
   12.0790    4.9900   23.3470 F   0  0  0  0  0  0  0  0  0  0  0  0
   12.2250   -1.8800   21.4760 C   0  0  0  0  0  0  0  0  0  0  0  0
  1  2  1  0
  3  2  1  0
  3  4  2  0
  3  5  2  0
  3  6  1  0
  6  7  1  0
  6  8  1  0
  7  9  1  0
  8 10  1  0
  9 11  1  0
 10 11  1  0
 11 12  1  0
 12 13  2  0
 12 14  1  0
 13 15  1  0
 13 16  1  0
 14 17  2  0
 14 18  1  0
 16 19  2  0
 17 19  1  0
 19 20  1  0
 20 21  1  0
 22 20  1  0
 21 23  2  0
 21 24  1  0
 22 25  2  0
 22 26  2  0
 22 27  1  0
 23 28  1  0
 24 29  2  0
 27 30  1  0
 27 31  1  0
 27 32  1  0
 28 33  2  0
 29 33  1  0
M  END
