NIM-UNI-310206f0-29-chloroacetamide
     RDKit          3D

 27 29  0  0  0  0  0  0  0  0999 V2000
    7.1120   -3.0080   18.7840 C   0  0  0  0  0  0  0  0  0  0  0  0
    6.1920   -3.3620   19.9330 C   0  0  0  0  0  0  0  0  0  0  0  0
    5.3660   -4.2740   19.8020 O   0  0  0  0  0  0  0  0  0  0  0  0
    6.3570   -2.6200   21.0780 N   0  0  0  0  0  0  0  0  0  0  0  0
    7.5610   -1.8580   21.3000 C   0  0  0  0  0  0  0  0  0  0  0  0
    5.8720   -3.1560   22.3650 C   0  0  0  0  0  0  0  0  0  0  0  0
    8.3340   -2.9960   22.0280 C   0  0  0  0  0  0  0  0  0  0  0  0
    6.6230   -2.5330   23.5910 C   0  0  0  0  0  0  0  0  0  0  0  0
    8.0870   -2.5880   23.3980 N   0  0  0  0  0  0  0  0  0  0  0  0
    8.9830   -1.4490   23.3730 C   0  0  0  0  0  0  0  0  0  0  0  0
   10.3790   -1.9550   23.6590 C   0  0  0  0  0  0  0  0  0  0  0  0
    8.6950   -0.1020   23.0940 C   0  0  0  0  0  0  0  0  0  0  0  0
   10.7180   -3.1980   23.9320 F   0  0  0  0  0  0  0  0  0  0  0  0
   11.4820   -0.9260   23.5960 C   0  0  0  0  0  0  0  0  0  0  0  0
    9.8150    0.9070   23.0220 C   0  0  0  0  0  0  0  0  0  0  0  0
    7.4480    0.3440   22.8580 F   0  0  0  0  0  0  0  0  0  0  0  0
   11.1140    0.5040   23.2400 C   0  0  0  0  0  0  0  0  0  0  0  0
   12.2680    1.2700   23.1450 N   0  0  0  0  0  0  0  0  0  0  0  0
   12.2260    2.7290   23.1310 C   0  0  0  0  0  0  0  0  0  0  0  0
   13.1930    0.4900   22.4280 C   0  0  0  0  0  0  0  0  0  0  0  0
   11.7130    3.5970   22.0230 C   0  0  0  0  0  0  0  0  0  0  0  0
   14.1400    0.9190   21.8130 O   0  0  0  0  0  0  0  0  0  0  0  0
   12.9180   -1.0500   22.3960 C   0  0  0  0  0  0  0  0  0  0  0  0
   12.4870    4.2790   21.2620 C   0  0  0  0  0  0  0  0  0  0  0  0
   12.1010    5.2280   22.1600 C   0  0  0  0  0  0  0  0  0  0  0  0
   13.2460   -1.7890   21.0980 C   0  0  0  0  0  0  0  0  0  0  0  0
   13.3400   -1.8570   23.6290 C   0  0  0  0  0  0  0  0  0  0  0  0
  1  2  1  0
  2  3  2  0
  2  4  1  0
  4  5  1  0
  4  6  1  0
  5  7  1  0
  6  8  1  0
  7  9  1  0
  8  9  1  0
  9 10  1  0
 10 11  2  0
 10 12  1  0
 11 13  1  0
 11 14  1  0
 12 15  2  0
 12 16  1  0
 14 17  2  0
 15 17  1  0
 17 18  1  0
 18 19  1  0
 18 20  1  0
 19 21  1  0
 20 22  2  0
 20 23  1  0
 21 24  1  0
 21 25  1  0
 24 25  1  0
 23 26  1  0
 23 27  1  0
M  END
