NIM-UNI-05f93fcc-8-acrylamide
     RDKit          3D

 27 30  0  0  0  0  0  0  0  0999 V2000
    8.3570   -3.7220   20.2720 C   0  0  0  0  0  0  0  0  0  0  0  0
    6.9790   -3.1020   20.2790 C   0  0  0  0  0  0  0  0  0  0  0  0
    6.0860   -4.2580   20.6020 C   0  0  0  0  0  0  0  0  0  0  0  0
    5.1520   -4.5090   19.8570 O   0  0  0  0  0  0  0  0  0  0  0  0
    6.4470   -5.0060   21.7400 N   0  0  0  0  0  0  0  0  0  0  0  0
    7.1920   -4.3810   22.8170 C   0  0  0  0  0  0  0  0  0  0  0  0
    5.6570   -6.1740   22.1450 C   0  0  0  0  0  0  0  0  0  0  0  0
    6.4700   -4.1690   23.9860 C   0  0  0  0  0  0  0  0  0  0  0  0
    4.7930   -5.8940   23.2210 C   0  0  0  0  0  0  0  0  0  0  0  0
    5.6510   -5.3530   24.3020 N   0  0  0  0  0  0  0  0  0  0  0  0
    4.9170   -5.4070   25.8270 S   0  0  0  0  0  0  0  0  0  0  0  0
    4.0400   -6.5590   25.8580 O   0  0  0  0  0  0  0  0  0  0  0  0
    5.9390   -5.2330   26.8360 O   0  0  0  0  0  0  0  0  0  0  0  0
    3.8830   -3.9830   25.9320 C   0  0  0  0  0  0  0  0  0  0  0  0
    4.3370   -2.5530   26.0100 C   0  0  0  0  0  0  0  0  0  0  0  0
    2.1880   -4.1660   25.9620 S   0  0  0  0  0  0  0  0  0  0  0  0
    3.1810   -1.6610   26.0990 C   0  0  0  0  0  0  0  0  0  0  0  0
    1.9570   -2.4810   26.0850 C   0  0  0  0  0  0  0  0  0  0  0  0
    0.6000   -1.7840   26.1900 C   0  0  0  0  0  0  0  0  0  0  0  0
    0.4400   -0.3980   26.8250 C   0  0  0  0  0  0  0  0  0  0  0  0
   -0.5930   -2.3550   25.7310 C   0  0  0  0  0  0  0  0  0  0  0  0
   -0.9450    0.2830   26.9280 C   0  0  0  0  0  0  0  0  0  0  0  0
   -1.8430   -1.7430   25.8240 C   0  0  0  0  0  0  0  0  0  0  0  0
   -2.0340   -0.4430   26.4110 C   0  0  0  0  0  0  0  0  0  0  0  0
   -3.0440   -2.2790   25.3820 O   0  0  0  0  0  0  0  0  0  0  0  0
   -3.4600   -0.0500   26.3720 N   0  0  0  0  0  0  0  0  0  0  0  0
   -3.9600   -1.2710   25.7160 C   0  0  0  0  0  0  0  0  0  0  0  0
  1  2  1  0
  2  3  1  0
  3  4  2  0
  3  5  1  0
  5  6  1  0
  5  7  1  0
  6  8  1  0
  7  9  1  0
  8 10  1  0
  9 10  1  0
 10 11  1  0
 11 12  2  0
 11 13  2  0
 11 14  1  0
 14 15  2  0
 14 16  1  0
 15 17  1  0
 16 18  1  0
 17 18  2  0
 18 19  1  0
 19 20  2  0
 19 21  1  0
 20 22  1  0
 21 23  2  0
 22 24  2  0
 23 24  1  0
 23 25  1  0
 24 26  1  0
 25 27  1  0
 26 27  2  0
M  END
