NIM-UNI-310206f0-64-chloroacetamide
     RDKit          3D

 35 39  0  0  0  0  0  0  0  0999 V2000
    7.1750   -3.0210   18.8580 C   0  0  0  0  0  0  0  0  0  0  0  0
    6.2620   -3.5000   19.9710 C   0  0  0  0  0  0  0  0  0  0  0  0
    5.3320   -4.2750   19.7720 O   0  0  0  0  0  0  0  0  0  0  0  0
    6.5160   -3.0470   21.2730 N   0  0  0  0  0  0  0  0  0  0  0  0
    6.8550   -1.6470   21.5070 C   0  0  0  0  0  0  0  0  0  0  0  0
    6.7630   -3.9860   22.3690 C   0  0  0  0  0  0  0  0  0  0  0  0
    6.8570   -1.4970   22.9090 C   0  0  0  0  0  0  0  0  0  0  0  0
    7.9530   -3.5730   23.2520 C   0  0  0  0  0  0  0  0  0  0  0  0
    7.8260   -2.1480   23.6710 N   0  0  0  0  0  0  0  0  0  0  0  0
    9.0040   -1.4040   23.7670 C   0  0  0  0  0  0  0  0  0  0  0  0
   10.4050   -1.8900   24.0410 C   0  0  0  0  0  0  0  0  0  0  0  0
    8.8880   -0.0190   23.5680 C   0  0  0  0  0  0  0  0  0  0  0  0
   10.7590   -3.1500   24.2490 F   0  0  0  0  0  0  0  0  0  0  0  0
   11.4370   -0.9830   24.0620 C   0  0  0  0  0  0  0  0  0  0  0  0
    9.9710    0.8370   23.5900 C   0  0  0  0  0  0  0  0  0  0  0  0
    7.7000    0.5560   23.3250 F   0  0  0  0  0  0  0  0  0  0  0  0
   11.2610    0.3710   23.8250 C   0  0  0  0  0  0  0  0  0  0  0  0
   12.2310    1.2580   23.7680 N   0  0  0  0  0  0  0  0  0  0  0  0
   13.1330    0.6610   22.9350 C   0  0  0  0  0  0  0  0  0  0  0  0
   11.5970    2.4710   23.4710 C   0  0  0  0  0  0  0  0  0  0  0  0
   14.2450    0.9930   22.6460 O   0  0  0  0  0  0  0  0  0  0  0  0
   12.6490   -0.4850   22.3590 C   0  0  0  0  0  0  0  0  0  0  0  0
   10.1130    2.6910   23.7730 C   0  0  0  0  0  0  0  0  0  0  0  0
   12.2620    3.5670   22.8900 C   0  0  0  0  0  0  0  0  0  0  0  0
   11.2640   -0.7060   22.4620 C   0  0  0  0  0  0  0  0  0  0  0  0
   13.4160   -1.4060   21.7080 N   0  0  0  0  0  0  0  0  0  0  0  0
    9.1820    3.8970   23.5620 C   0  0  0  0  0  0  0  0  0  0  0  0
   11.5170    4.7300   22.6490 C   0  0  0  0  0  0  0  0  0  0  0  0
   13.5300    3.8840   22.4450 C   0  0  0  0  0  0  0  0  0  0  0  0
   11.0980   -1.9500   21.8060 C   0  0  0  0  0  0  0  0  0  0  0  0
   12.4240   -2.3800   21.3370 O   0  0  0  0  0  0  0  0  0  0  0  0
   10.1900    4.8330   22.9530 C   0  0  0  0  0  0  0  0  0  0  0  0
   12.3390    5.6920   22.0780 N   0  0  0  0  0  0  0  0  0  0  0  0
   13.5580    5.1530   21.9630 C   0  0  0  0  0  0  0  0  0  0  0  0
    9.7770   -2.5860   21.6920 C   0  0  0  0  0  0  0  0  0  0  0  0
  1  2  1  0
  2  3  2  0
  2  4  1  0
  4  5  1  0
  4  6  1  0
  5  7  1  0
  6  8  1  0
  7  9  1  0
  8  9  1  0
  9 10  1  0
 10 11  2  0
 10 12  1  0
 11 13  1  0
 11 14  1  0
 12 15  2  0
 12 16  1  0
 14 17  2  0
 15 17  1  0
 17 18  1  0
 18 19  1  0
 18 20  1  0
 19 21  2  0
 19 22  1  0
 20 23  2  0
 20 24  1  0
 22 25  1  0
 22 26  2  0
 23 27  1  0
 24 28  2  0
 24 29  1  0
 25 30  2  0
 26 31  1  0
 30 31  1  0
 27 32  2  0
 28 32  1  0
 28 33  1  0
 29 34  2  0
 33 34  1  0
 30 35  1  0
M  END
