NIM-NMI-8bb27a2b-24-nitrile
     RDKit          3D

 28 29  0  0  0  0  0  0  0  0999 V2000
    7.6170   -3.3870   19.9800 C   0  0  0  0  0  0  0  0  0  0  0  0
    6.3430   -3.7040   19.7140 N   0  0  0  0  0  0  0  0  0  0  0  0
    8.0880   -2.2740   20.9390 N   0  0  0  0  0  0  0  0  0  0  0  0
    9.3880   -1.7670   21.6920 C   0  0  0  0  0  0  0  0  0  0  0  0
    7.5680   -1.0430   20.8000 C   0  0  2  0  0  0  0  0  0  0  0  0
   10.8130   -2.2520   21.4960 C   0  0  0  0  0  0  0  0  0  0  0  0
    9.3030   -0.6900   22.6710 C   0  0  0  0  0  0  0  0  0  0  0  0
    6.6200   -0.5070   21.8360 C   0  0  0  0  0  0  0  0  0  0  0  0
    6.7380   -0.5430   19.6700 C   0  0  0  0  0  0  0  0  0  0  0  0
   11.9320   -1.6500   22.2170 C   0  0  0  0  0  0  0  0  0  0  0  0
   10.3670   -0.1090   23.3660 C   0  0  0  0  0  0  0  0  0  0  0  0
    6.4820   -0.9750   22.9650 O   0  0  0  0  0  0  0  0  0  0  0  0
    5.9100    0.5610   21.3960 N   0  0  0  0  0  0  0  0  0  0  0  0
    5.6440   -1.2000   18.8520 C   0  0  0  0  0  0  0  0  0  0  0  0
    7.0360    0.7620   19.3980 C   0  0  0  0  0  0  0  0  0  0  0  0
   11.6640   -0.5320   23.1740 C   0  0  0  0  0  0  0  0  0  0  0  0
    4.6900    0.2920   20.8430 C   0  0  0  0  0  0  0  0  0  0  0  0
    5.0040   -0.3050   17.8400 C   0  0  0  0  0  0  0  0  0  0  0  0
    6.4650    1.5200   18.4950 N   0  0  0  0  0  0  0  0  0  0  0  0
   12.6410    0.0470   23.8130 C   0  0  0  0  0  0  0  0  0  0  0  0
    3.4430    0.9730   21.4280 C   0  0  0  0  0  0  0  0  0  0  0  0
    5.4990    1.0720   17.7360 C   0  0  0  0  0  0  0  0  0  0  0  0
   12.9320   -0.5570   24.9930 F   0  0  0  0  0  0  0  0  0  0  0  0
   13.7210    0.0420   23.0190 F   0  0  0  0  0  0  0  0  0  0  0  0
   12.3280    1.3420   24.0140 F   0  0  0  0  0  0  0  0  0  0  0  0
    2.9720    2.0390   20.6560 C   0  0  0  0  0  0  0  0  0  0  0  0
    3.3490    2.0380   19.3110 C   0  0  0  0  0  0  0  0  0  0  0  0
    1.4420    1.9850   20.6540 C   0  0  0  0  0  0  0  0  0  0  0  0
  1  2  2  3
  1  3  1  0
  3  4  1  0
  3  5  1  0
  4  6  2  0
  4  7  1  0
  5  8  1  1
  5  9  1  0
  6 10  1  0
  7 11  2  0
  8 12  2  0
  8 13  1  0
  9 14  2  0
  9 15  1  0
 10 16  2  0
 11 16  1  0
 13 17  1  0
 14 18  1  0
 15 19  2  0
 16 20  1  0
 17 21  1  0
 18 22  2  0
 19 22  1  0
 20 23  1  0
 20 24  1  0
 20 25  1  0
 21 26  1  0
 26 27  1  0
 26 28  1  0
M  END
