NIM-UNI-310206f0-67-nitrile
     RDKit          3D

 22 24  0  0  0  0  0  0  0  0999 V2000
    6.6800   -3.7940   20.0070 C   0  0  0  0  0  0  0  0  0  0  0  0
    5.6740   -3.4610   19.2960 N   0  0  0  0  0  0  0  0  0  0  0  0
    6.8060   -3.4190   21.3200 N   0  0  0  0  0  0  0  0  0  0  0  0
    6.3430   -4.2950   22.4090 C   0  0  0  0  0  0  0  0  0  0  0  0
    7.1920   -2.1180   21.6680 C   0  0  0  0  0  0  0  0  0  0  0  0
    6.8820   -3.9340   23.6450 C   0  0  0  0  0  0  0  0  0  0  0  0
    6.6550   -1.6930   22.8940 C   0  0  0  0  0  0  0  0  0  0  0  0
    6.4980   -2.5540   23.9580 N   0  0  0  0  0  0  0  0  0  0  0  0
    7.1410   -1.9450   25.4330 S   0  0  0  0  0  0  0  0  0  0  0  0
    7.4440   -3.0830   26.2810 O   0  0  0  0  0  0  0  0  0  0  0  0
    6.3050   -0.8530   25.9040 O   0  0  0  0  0  0  0  0  0  0  0  0
    8.6710   -1.2000   24.9160 C   0  0  0  0  0  0  0  0  0  0  0  0
    9.5120    0.0010   25.2310 C   0  0  0  0  0  0  0  0  0  0  0  0
    9.4630   -2.0660   23.6910 S   0  0  0  0  0  0  0  0  0  0  0  0
   10.7220    0.0920   24.4250 C   0  0  0  0  0  0  0  0  0  0  0  0
   10.7660   -0.9720   23.5740 C   0  0  0  0  0  0  0  0  0  0  0  0
   11.7220   -1.1840   22.6960 C   0  0  0  0  0  0  0  0  0  0  0  0
   12.7490   -0.3140   22.5990 C   0  0  0  0  0  0  0  0  0  0  0  0
   11.6710   -2.2710   21.8790 C   0  0  0  0  0  0  0  0  0  0  0  0
   13.6620   -0.6040   21.6580 N   0  0  0  0  0  0  0  0  0  0  0  0
   12.5610   -2.5830   20.9680 N   0  0  0  0  0  0  0  0  0  0  0  0
   13.5180   -1.6970   20.9180 C   0  0  0  0  0  0  0  0  0  0  0  0
  1  2  2  3
  1  3  1  0
  3  4  1  0
  3  5  1  0
  4  6  1  0
  5  7  1  0
  6  8  1  0
  7  8  1  0
  8  9  1  0
  9 10  2  0
  9 11  2  0
  9 12  1  0
 12 13  2  0
 12 14  1  0
 13 15  1  0
 14 16  1  0
 15 16  2  0
 16 17  1  0
 17 18  2  0
 17 19  1  0
 18 20  1  0
 19 21  2  0
 20 22  2  0
 21 22  1  0
M  END
