NIM-UNI-05f93fcc-14-chloroacetamide
     RDKit          3D

 24 26  0  0  0  0  0  0  0  0999 V2000
    7.7140   -3.7520   20.4660 C   0  0  0  0  0  0  0  0  0  0  0  0
    6.6530   -4.5250   20.6840 C   0  0  0  0  0  0  0  0  0  0  0  0
    5.6450   -4.4920   19.9420 O   0  0  0  0  0  0  0  0  0  0  0  0
    6.7330   -5.3670   21.7810 N   0  0  0  0  0  0  0  0  0  0  0  0
    7.5600   -4.9430   22.9290 C   0  0  0  0  0  0  0  0  0  0  0  0
    5.6380   -6.2850   22.0800 C   0  0  0  0  0  0  0  0  0  0  0  0
    6.6640   -4.4230   24.0610 C   0  0  0  0  0  0  0  0  0  0  0  0
    4.7150   -5.7220   23.1760 C   0  0  0  0  0  0  0  0  0  0  0  0
    5.5500   -5.3420   24.3280 N   0  0  0  0  0  0  0  0  0  0  0  0
    4.9130   -5.4120   25.8990 S   0  0  0  0  0  0  0  0  0  0  0  0
    4.0480   -6.5640   25.9680 O   0  0  0  0  0  0  0  0  0  0  0  0
    5.9870   -5.1840   26.8320 O   0  0  0  0  0  0  0  0  0  0  0  0
    3.8640   -3.9880   25.9560 C   0  0  0  0  0  0  0  0  0  0  0  0
    4.2840   -2.5490   26.0130 C   0  0  0  0  0  0  0  0  0  0  0  0
    2.1700   -4.1140   25.9580 S   0  0  0  0  0  0  0  0  0  0  0  0
    3.1750   -1.7110   26.0580 C   0  0  0  0  0  0  0  0  0  0  0  0
    1.9640   -2.4010   26.0420 C   0  0  0  0  0  0  0  0  0  0  0  0
    0.6680   -1.8550   26.0900 C   0  0  0  0  0  0  0  0  0  0  0  0
   -0.4330   -2.6110   25.5300 C   0  0  0  0  0  0  0  0  0  0  0  0
    0.4740   -0.5880   26.6870 C   0  0  0  0  0  0  0  0  0  0  0  0
   -1.7430   -2.0980   25.5650 C   0  0  0  0  0  0  0  0  0  0  0  0
   -0.9510    0.0010   26.7410 C   0  0  0  0  0  0  0  0  0  0  0  0
   -1.9650   -0.7460   26.1980 C   0  0  0  0  0  0  0  0  0  0  0  0
   -3.2870   -0.2360   26.2280 O   0  0  0  0  0  0  0  0  0  0  0  0
  1  2  1  0
  2  3  2  0
  2  4  1  0
  4  5  1  0
  4  6  1  0
  5  7  1  0
  6  8  1  0
  7  9  1  0
  8  9  1  0
  9 10  1  0
 10 11  2  0
 10 12  2  0
 10 13  1  0
 13 14  2  0
 13 15  1  0
 14 16  1  0
 15 17  1  0
 16 17  2  0
 17 18  1  0
 18 19  2  0
 18 20  1  0
 19 21  1  0
 20 22  2  0
 21 23  2  0
 22 23  1  0
 23 24  1  0
M  END
