NIM-NMI-8bb27a2b-26-vinylsulfonamide
     RDKit          3D

 36 39  0  0  0  0  0  0  0  0999 V2000
    8.0830   -4.6270   20.9250 C   0  0  0  0  0  0  0  0  0  0  0  0
    6.5750   -4.8130   21.0650 C   0  0  0  0  0  0  0  0  0  0  0  0
    6.0500   -3.4890   22.0750 S   0  0  0  0  0  0  0  0  0  0  0  0
    4.6950   -3.1690   21.6730 O   0  0  0  0  0  0  0  0  0  0  0  0
    6.3360   -3.8500   23.4460 O   0  0  0  0  0  0  0  0  0  0  0  0
    7.1960   -2.3240   21.5590 N   0  0  0  0  0  0  0  0  0  0  0  0
    8.5680   -2.4190   22.1300 C   0  0  0  0  0  0  0  0  0  0  0  0
    6.8190   -0.8760   21.5650 C   0  0  1  0  0  0  0  0  0  0  0  0
    8.8840   -3.3130   23.2640 C   0  0  0  0  0  0  0  0  0  0  0  0
    9.6140   -1.6410   21.6270 C   0  0  0  0  0  0  0  0  0  0  0  0
    8.1240   -0.1270   21.8850 C   0  0  0  0  0  0  0  0  0  0  0  0
    6.2120   -0.2110   20.3210 C   0  0  0  0  0  0  0  0  0  0  0  0
   10.3020   -3.3190   23.8390 C   0  0  0  0  0  0  0  0  0  0  0  0
   10.8890   -1.6640   22.1660 C   0  0  0  0  0  0  0  0  0  0  0  0
    8.6060    0.8400   21.3360 O   0  0  0  0  0  0  0  0  0  0  0  0
    8.9270   -0.6500   23.0120 N   0  0  0  0  0  0  0  0  0  0  0  0
    5.0200    0.5050   20.3620 C   0  0  0  0  0  0  0  0  0  0  0  0
    6.8480   -0.2710   19.0750 C   0  0  0  0  0  0  0  0  0  0  0  0
   11.2120   -2.4740   23.2640 C   0  0  0  0  0  0  0  0  0  0  0  0
   10.0430    0.0930   23.0160 C   0  0  0  0  0  0  0  0  0  0  0  0
    4.5170    1.1200   19.2130 C   0  0  0  0  0  0  0  0  0  0  0  0
    6.3770    0.3200   17.9470 N   0  0  0  0  0  0  0  0  0  0  0  0
   12.4560   -2.4920   23.8830 C   0  0  0  0  0  0  0  0  0  0  0  0
   11.3100   -0.4660   22.7260 C   0  0  0  0  0  0  0  0  0  0  0  0
    9.8280    1.4300   23.2810 C   0  0  0  0  0  0  0  0  0  0  0  0
    5.2240    1.0060   18.0330 C   0  0  0  0  0  0  0  0  0  0  0  0
   12.5990   -3.4210   24.8520 F   0  0  0  0  0  0  0  0  0  0  0  0
   13.5190   -2.5810   23.0590 F   0  0  0  0  0  0  0  0  0  0  0  0
   12.6640   -1.3280   24.5540 F   0  0  0  0  0  0  0  0  0  0  0  0
   12.3920    0.4150   22.6800 C   0  0  0  0  0  0  0  0  0  0  0  0
   10.8860    2.2820   23.2140 C   0  0  0  0  0  0  0  0  0  0  0  0
   12.0430    1.7430   22.9210 C   0  0  0  0  0  0  0  0  0  0  0  0
   10.7790    3.6390   23.4130 C   0  0  0  0  0  0  0  0  0  0  0  0
   13.2960    2.4580   22.7490 C   0  0  0  0  0  0  0  0  0  0  0  0
   11.7380    4.6910   23.3500 C   0  0  0  0  0  0  0  0  0  0  0  0
   12.9500    3.9570   23.0030 C   0  0  0  0  0  0  0  0  0  0  0  0
  1  2  1  0
  2  3  1  0
  3  4  2  0
  3  5  2  0
  3  6  1  0
  6  7  1  0
  6  8  1  0
  7  9  2  0
  7 10  1  0
  8 11  1  6
  8 12  1  0
  9 13  1  0
 10 14  2  0
 11 15  2  0
 11 16  1  0
 12 17  2  0
 12 18  1  0
 13 19  2  0
 14 19  1  0
 16 20  1  0
 17 21  1  0
 18 22  2  0
 19 23  1  0
 20 24  2  0
 20 25  1  0
 21 26  2  0
 22 26  1  0
 23 27  1  0
 23 28  1  0
 23 29  1  0
 24 30  1  0
 25 31  2  0
 30 32  2  0
 31 32  1  0
 31 33  1  0
 32 34  1  0
 33 35  2  0
 34 36  2  0
 35 36  1  0
M  END
