NIM-UNI-310206f0-9-chloroacetamide
     RDKit          3D

 25 27  0  0  0  0  0  0  0  0999 V2000
    6.8540   -3.0310   18.9780 C   0  0  0  0  0  0  0  0  0  0  0  0
    5.8740   -3.5140   20.0540 C   0  0  0  0  0  0  0  0  0  0  0  0
    5.2460   -4.5510   19.8720 O   0  0  0  0  0  0  0  0  0  0  0  0
    5.6930   -2.7900   21.2280 N   0  0  0  0  0  0  0  0  0  0  0  0
    6.0490   -1.4270   21.3240 C   0  0  0  0  0  0  0  0  0  0  0  0
    5.8920   -3.5190   22.4890 C   0  0  0  0  0  0  0  0  0  0  0  0
    7.2430   -1.1140   21.9460 C   0  0  0  0  0  0  0  0  0  0  0  0
    7.1310   -3.2580   23.0980 C   0  0  0  0  0  0  0  0  0  0  0  0
    7.3550   -1.7990   23.2490 N   0  0  0  0  0  0  0  0  0  0  0  0
    8.6340   -1.3480   23.7960 C   0  0  0  0  0  0  0  0  0  0  0  0
    9.6420   -2.2750   23.7290 C   0  0  0  0  0  0  0  0  0  0  0  0
    8.9280   -0.0830   24.3520 C   0  0  0  0  0  0  0  0  0  0  0  0
    9.4800   -3.4820   23.2360 F   0  0  0  0  0  0  0  0  0  0  0  0
   10.9820   -1.9340   24.2150 C   0  0  0  0  0  0  0  0  0  0  0  0
   10.1900    0.2750   24.8170 C   0  0  0  0  0  0  0  0  0  0  0  0
    7.9730    0.8600   24.4460 F   0  0  0  0  0  0  0  0  0  0  0  0
   11.2490   -0.6330   24.7560 C   0  0  0  0  0  0  0  0  0  0  0  0
   12.4130   -0.5670   25.0660 O   0  0  0  0  0  0  0  0  0  0  0  0
   13.0600   -1.6700   24.4160 C   0  0  0  0  0  0  0  0  0  0  0  0
   13.1500   -1.3140   22.9120 C   0  0  0  0  0  0  0  0  0  0  0  0
   13.2640    0.1600   22.5810 C   0  0  0  0  0  0  0  0  0  0  0  0
   11.9420   -1.7870   22.1000 C   0  0  0  0  0  0  0  0  0  0  0  0
   12.0290    1.0280   22.8680 C   0  0  0  0  0  0  0  0  0  0  0  0
   10.7330   -0.8070   22.1530 C   0  0  0  0  0  0  0  0  0  0  0  0
   10.9680    0.6030   22.3960 O   0  0  0  0  0  0  0  0  0  0  0  0
  1  2  1  0
  2  3  2  0
  2  4  1  0
  4  5  1  0
  4  6  1  0
  5  7  1  0
  6  8  1  0
  7  9  1  0
  8  9  1  0
  9 10  1  0
 10 11  2  0
 10 12  1  0
 11 13  1  0
 11 14  1  0
 12 15  2  0
 12 16  1  0
 14 17  2  0
 15 17  1  0
 17 18  1  0
 18 19  1  0
 19 20  1  0
 20 21  1  0
 20 22  1  0
 21 23  1  0
 22 24  1  0
 23 25  1  0
 24 25  1  0
M  END
