NIM-UNI-bb9030bf-4-nitrile
     RDKit          3D

 15 15  0  0  0  0  0  0  0  0999 V2000
    6.9730   -3.2600   19.7930 C   0  0  0  0  0  0  0  0  0  0  0  0
    5.8350   -3.7190   19.4450 N   0  0  0  0  0  0  0  0  0  0  0  0
    7.2250   -2.5280   20.9540 N   0  0  0  0  0  0  0  0  0  0  0  0
    7.1520   -1.0460   21.1730 C   0  0  1  0  0  0  0  0  0  0  0  0
    8.5160   -0.4500   21.6100 C   0  0  0  0  0  0  0  0  0  0  0  0
    6.5050   -0.3130   20.1620 C   0  0  0  0  0  0  0  0  0  0  0  0
    8.8820    0.6780   21.2940 O   0  0  0  0  0  0  0  0  0  0  0  0
    9.3390   -1.3530   22.4650 N   0  0  0  0  0  0  0  0  0  0  0  0
    5.3150    0.3710   20.4450 C   0  0  0  0  0  0  0  0  0  0  0  0
    6.9990   -0.2090   18.8420 C   0  0  0  0  0  0  0  0  0  0  0  0
   10.5190   -0.8580   23.0980 C   0  0  0  0  0  0  0  0  0  0  0  0
    4.6200    1.1970   19.3150 C   0  0  0  0  0  0  0  0  0  0  0  0
    6.4390    0.5070   17.7950 N   0  0  0  0  0  0  0  0  0  0  0  0
   11.8510   -1.1880   22.4490 C   0  0  0  0  0  0  0  0  0  0  0  0
    5.2820    1.2090   17.9740 C   0  0  0  0  0  0  0  0  0  0  0  0
  1  2  2  3
  1  3  1  0
  4  3  1  6
  4  5  1  0
  4  6  1  0
  5  7  2  0
  5  8  1  0
  6  9  2  0
  6 10  1  0
  8 11  1  0
  9 12  1  0
 10 13  2  0
 11 14  1  0
 12 15  2  0
 13 15  1  0
M  END
