NIM-UNI-43fe0159-3-bromoalkyne
     RDKit          3D

 15 16  0  0  0  0  0  0  0  0999 V2000
    7.2060   -3.4230   19.5140 C   0  0  0  0  0  0  0  0  0  0  0  0
    6.3710   -2.9730   18.5980 C   0  0  0  0  0  0  0  0  0  0  0  0
    6.6720   -3.6640   20.7440 N   0  0  0  0  0  0  0  0  0  0  0  0
    7.0070   -4.7510   21.6480 C   0  0  0  0  0  0  0  0  0  0  0  0
    6.3560   -2.5060   21.4940 C   0  0  0  0  0  0  0  0  0  0  0  0
    7.9670   -4.1930   22.7410 C   0  0  0  0  0  0  0  0  0  0  0  0
    7.4270   -1.9720   21.7320 O   0  0  0  0  0  0  0  0  0  0  0  0
    8.0630   -2.6470   22.8110 C   0  0  2  0  0  0  0  0  0  0  0  0
    9.4260   -2.0610   23.0620 C   0  0  0  0  0  0  0  0  0  0  0  0
   10.3350   -1.7520   22.0460 C   0  0  0  0  0  0  0  0  0  0  0  0
    9.7930   -1.8350   24.3470 C   0  0  0  0  0  0  0  0  0  0  0  0
   11.5840   -1.2200   22.3440 C   0  0  0  0  0  0  0  0  0  0  0  0
   11.0200   -1.3230   24.6550 C   0  0  0  0  0  0  0  0  0  0  0  0
   11.9480   -0.9860   23.6750 C   0  0  0  0  0  0  0  0  0  0  0  0
   13.1510   -0.4600   24.0180 O   0  0  0  0  0  0  0  0  0  0  0  0
  1  2  2  3
  1  3  1  0
  3  4  1  0
  3  5  1  0
  4  6  1  0
  5  7  1  0
  6  8  1  0
  7  8  1  0
  8  9  1  6
  9 10  2  0
  9 11  1  0
 10 12  1  0
 11 13  2  0
 12 14  2  0
 13 14  1  0
 14 15  1  0
M  END
