NIM-UNI-bb9030bf-5-bromoalkyne
     RDKit          3D

 16 16  0  0  0  0  0  0  0  0999 V2000
    7.2310   -3.0090   19.5530 C   0  0  0  0  0  0  0  0  0  0  0  0
    5.8290   -3.1440   18.9860 C   0  0  0  0  0  0  0  0  0  0  0  0
    7.4190   -2.5890   20.8580 N   0  0  0  0  0  0  0  0  0  0  0  0
    7.1860   -1.1520   21.1570 C   0  0  1  0  0  0  0  0  0  0  0  0
    8.5500   -0.5380   21.5350 C   0  0  0  0  0  0  0  0  0  0  0  0
    6.5190   -0.3600   20.1850 C   0  0  0  0  0  0  0  0  0  0  0  0
    8.7340    0.8630   21.2360 O   0  0  0  0  0  0  0  0  0  0  0  0
    9.6020   -1.3730   22.1770 N   0  0  0  0  0  0  0  0  0  0  0  0
    5.2510    0.4270   20.4630 C   0  0  0  0  0  0  0  0  0  0  0  0
    7.0110   -0.2570   18.8830 C   0  0  0  0  0  0  0  0  0  0  0  0
   10.5000   -0.9490   23.1310 C   0  0  0  0  0  0  0  0  0  0  0  0
    4.6750    1.1850   19.4210 C   0  0  0  0  0  0  0  0  0  0  0  0
    6.4600    0.4850   17.8580 N   0  0  0  0  0  0  0  0  0  0  0  0
   11.3200    0.3040   23.0190 C   0  0  0  0  0  0  0  0  0  0  0  0
   11.9290   -1.1230   22.6250 C   0  0  0  0  0  0  0  0  0  0  0  0
    5.2620    1.2120   18.1630 C   0  0  0  0  0  0  0  0  0  0  0  0
  1  2  2  3
  1  3  1  0
  4  3  1  6
  4  5  1  0
  4  6  1  0
  5  7  2  0
  5  8  1  0
  6  9  2  0
  6 10  1  0
  8 11  1  0
  9 12  1  0
 10 13  2  0
 11 14  1  0
 11 15  1  0
 12 16  2  0
 13 16  1  0
M  END
