NIM-UNI-310206f0-68-acrylamide
     RDKit          3D

 24 26  0  0  0  0  0  0  0  0999 V2000
    7.4570   -2.9550   18.8170 C   0  0  0  0  0  0  0  0  0  0  0  0
    6.7790   -2.6260   20.1400 C   0  0  0  0  0  0  0  0  0  0  0  0
    5.6520   -3.5840   20.4830 C   0  0  0  0  0  0  0  0  0  0  0  0
    5.0530   -4.2510   19.6460 O   0  0  0  0  0  0  0  0  0  0  0  0
    5.3020   -3.6890   21.8070 N   0  0  0  0  0  0  0  0  0  0  0  0
    5.1280   -2.5260   22.6850 C   0  0  0  0  0  0  0  0  0  0  0  0
    5.5670   -4.9680   22.4810 C   0  0  0  0  0  0  0  0  0  0  0  0
    6.2590   -2.3700   23.6890 C   0  0  0  0  0  0  0  0  0  0  0  0
    6.6820   -4.8260   23.5250 C   0  0  0  0  0  0  0  0  0  0  0  0
    6.4970   -3.6530   24.3910 N   0  0  0  0  0  0  0  0  0  0  0  0
    7.3530   -3.5600   25.8520 S   0  0  0  0  0  0  0  0  0  0  0  0
    6.8990   -2.3750   26.5530 O   0  0  0  0  0  0  0  0  0  0  0  0
    7.3450   -4.8580   26.4840 O   0  0  0  0  0  0  0  0  0  0  0  0
    8.9870   -3.2670   25.4250 C   0  0  0  0  0  0  0  0  0  0  0  0
   10.1410   -3.7700   25.9810 C   0  0  0  0  0  0  0  0  0  0  0  0
    9.3470   -2.2170   24.1210 S   0  0  0  0  0  0  0  0  0  0  0  0
   11.2800   -3.3210   25.3670 C   0  0  0  0  0  0  0  0  0  0  0  0
   11.0260   -2.4580   24.3250 C   0  0  0  0  0  0  0  0  0  0  0  0
   12.0170   -1.8910   23.5430 C   0  0  0  0  0  0  0  0  0  0  0  0
   12.0280   -2.2850   22.1370 C   0  0  0  0  0  0  0  0  0  0  0  0
   13.0650   -0.9770   23.8340 C   0  0  0  0  0  0  0  0  0  0  0  0
   12.9790   -1.8590   21.0990 C   0  0  0  0  0  0  0  0  0  0  0  0
   13.4110   -0.0600   22.6280 C   0  0  0  0  0  0  0  0  0  0  0  0
   13.7420   -0.7310   21.4340 O   0  0  0  0  0  0  0  0  0  0  0  0
  1  2  1  0
  2  3  1  0
  3  4  2  0
  3  5  1  0
  5  6  1  0
  5  7  1  0
  6  8  1  0
  7  9  1  0
  8 10  1  0
  9 10  1  0
 10 11  1  0
 11 12  2  0
 11 13  2  0
 11 14  1  0
 14 15  2  0
 14 16  1  0
 15 17  1  0
 16 18  1  0
 17 18  2  0
 18 19  1  0
 19 20  2  0
 19 21  1  0
 20 22  1  0
 21 23  1  0
 22 24  1  0
 23 24  1  0
M  END
