NIM-UNI-bb9030bf-15-chloroacetamide
     RDKit          3D

 20 21  0  0  0  0  0  0  0  0999 V2000
    7.6150   -3.9930   20.4080 C   0  0  0  0  0  0  0  0  0  0  0  0
    6.4510   -3.0700   20.2350 C   0  0  0  0  0  0  0  0  0  0  0  0
    5.6530   -3.2190   19.2690 O   0  0  0  0  0  0  0  0  0  0  0  0
    6.3410   -2.1020   21.2770 N   0  0  0  0  0  0  0  0  0  0  0  0
    6.7810   -0.6900   21.2750 C   0  0  1  0  0  0  0  0  0  0  0  0
    8.3030   -0.3550   21.3790 C   0  0  0  0  0  0  0  0  0  0  0  0
    6.2280    0.0330   20.0770 C   0  0  0  0  0  0  0  0  0  0  0  0
    8.6490    0.8240   21.2880 O   0  0  0  0  0  0  0  0  0  0  0  0
    9.2710   -1.4690   21.5820 N   0  0  0  0  0  0  0  0  0  0  0  0
    5.0450    0.7930   20.1820 C   0  0  0  0  0  0  0  0  0  0  0  0
    6.8570   -0.0160   18.8370 C   0  0  0  0  0  0  0  0  0  0  0  0
   10.1490   -1.5660   22.6570 C   0  0  0  0  0  0  0  0  0  0  0  0
    4.5290    1.4780   19.0820 C   0  0  0  0  0  0  0  0  0  0  0  0
    6.4200    0.6160   17.7350 N   0  0  0  0  0  0  0  0  0  0  0  0
   11.2670   -0.5950   22.7550 C   0  0  0  0  0  0  0  0  0  0  0  0
    5.2010    1.3960   17.8850 C   0  0  0  0  0  0  0  0  0  0  0  0
   11.1710    0.7390   23.1290 C   0  0  0  0  0  0  0  0  0  0  0  0
   12.4710   -0.9070   22.4950 O   0  0  0  0  0  0  0  0  0  0  0  0
   12.3830    1.3400   23.1130 N   0  0  0  0  0  0  0  0  0  0  0  0
   13.1680    0.3260   22.7230 C   0  0  0  0  0  0  0  0  0  0  0  0
  1  2  1  0
  2  3  2  0
  2  4  1  0
  5  4  1  6
  5  6  1  0
  5  7  1  0
  6  8  2  0
  6  9  1  0
  7 10  2  0
  7 11  1  0
  9 12  1  0
 10 13  1  0
 11 14  2  0
 12 15  1  0
 13 16  2  0
 14 16  1  0
 15 17  2  0
 15 18  1  0
 17 19  1  0
 18 20  1  0
 19 20  2  0
M  END
