NIM-UNI-43fe0159-2-chloroacetamide
     RDKit          3D

 17 18  0  0  0  0  0  0  0  0999 V2000
    7.2320   -3.0810   18.9650 C   0  0  0  0  0  0  0  0  0  0  0  0
    6.5190   -3.3940   20.0540 C   0  0  0  0  0  0  0  0  0  0  0  0
    5.6210   -4.2590   19.8850 O   0  0  0  0  0  0  0  0  0  0  0  0
    6.8460   -2.7130   21.2800 N   0  0  0  0  0  0  0  0  0  0  0  0
    8.0310   -1.9010   21.1680 C   0  0  0  0  0  0  0  0  0  0  0  0
    6.8080   -3.1870   22.6990 C   0  0  0  0  0  0  0  0  0  0  0  0
    9.0640   -2.7220   21.9400 C   0  0  0  0  0  0  0  0  0  0  0  0
    7.4620   -2.3800   23.4960 O   0  0  0  0  0  0  0  0  0  0  0  0
    8.9230   -2.2070   23.2960 C   0  0  2  0  0  0  0  0  0  0  0  0
    9.5970   -0.8590   23.3160 C   0  0  0  0  0  0  0  0  0  0  0  0
   11.0220   -0.8240   23.4270 C   0  0  0  0  0  0  0  0  0  0  0  0
    8.9230    0.3450   23.2140 C   0  0  0  0  0  0  0  0  0  0  0  0
   11.7100    0.3870   23.4230 C   0  0  0  0  0  0  0  0  0  0  0  0
    9.6100    1.5500   23.2040 C   0  0  0  0  0  0  0  0  0  0  0  0
   10.9980    1.6150   23.2990 C   0  0  0  0  0  0  0  0  0  0  0  0
   11.6630    2.8820   23.2560 C   0  0  0  0  0  0  0  0  0  0  0  0
   11.4500    3.6470   22.1700 N   0  0  0  0  0  0  0  0  0  0  0  0
  1  2  1  0
  2  3  2  0
  2  4  1  0
  4  5  1  0
  4  6  1  0
  5  7  1  0
  6  8  1  0
  7  9  1  0
  8  9  1  0
  9 10  1  6
 10 11  2  0
 10 12  1  0
 11 13  1  0
 12 14  2  0
 13 15  2  0
 14 15  1  0
 15 16  1  0
 16 17  1  0
M  END
