NIM-UNI-05f93fcc-8-nitrile
     RDKit          3D

 25 28  0  0  0  0  0  0  0  0999 V2000
    6.5570   -4.2680   20.2280 C   0  0  0  0  0  0  0  0  0  0  0  0
    5.4830   -3.8640   19.6920 N   0  0  0  0  0  0  0  0  0  0  0  0
    6.7070   -4.8960   21.4760 N   0  0  0  0  0  0  0  0  0  0  0  0
    7.2500   -4.1590   22.5700 C   0  0  0  0  0  0  0  0  0  0  0  0
    5.9340   -6.1040   21.8730 C   0  0  0  0  0  0  0  0  0  0  0  0
    6.5380   -4.1280   23.7830 C   0  0  0  0  0  0  0  0  0  0  0  0
    5.1460   -5.8460   22.9910 C   0  0  0  0  0  0  0  0  0  0  0  0
    5.9590   -5.2980   24.0960 N   0  0  0  0  0  0  0  0  0  0  0  0
    5.1950   -5.3870   25.6330 S   0  0  0  0  0  0  0  0  0  0  0  0
    6.1630   -5.3380   26.6990 O   0  0  0  0  0  0  0  0  0  0  0  0
    4.2240   -6.4660   25.5820 O   0  0  0  0  0  0  0  0  0  0  0  0
    4.1850   -3.9590   25.8120 C   0  0  0  0  0  0  0  0  0  0  0  0
    4.4430   -2.5740   25.9550 C   0  0  0  0  0  0  0  0  0  0  0  0
    2.5280   -4.3390   25.8170 S   0  0  0  0  0  0  0  0  0  0  0  0
    3.3230   -1.7610   26.0760 C   0  0  0  0  0  0  0  0  0  0  0  0
    2.1280   -2.6380   26.0190 C   0  0  0  0  0  0  0  0  0  0  0  0
    0.7640   -2.2550   26.1110 C   0  0  0  0  0  0  0  0  0  0  0  0
    0.3910   -0.9020   26.5940 C   0  0  0  0  0  0  0  0  0  0  0  0
   -0.1580   -3.2430   25.7250 C   0  0  0  0  0  0  0  0  0  0  0  0
   -1.1260   -0.5660   26.6740 C   0  0  0  0  0  0  0  0  0  0  0  0
   -1.6460   -2.9070   25.8060 C   0  0  0  0  0  0  0  0  0  0  0  0
   -2.1070   -1.6780   26.2420 C   0  0  0  0  0  0  0  0  0  0  0  0
   -2.7070   -3.8290   25.4400 O   0  0  0  0  0  0  0  0  0  0  0  0
   -3.4720   -1.6620   26.2090 N   0  0  0  0  0  0  0  0  0  0  0  0
   -3.8060   -2.9620   25.7250 C   0  0  0  0  0  0  0  0  0  0  0  0
  1  2  2  3
  1  3  1  0
  3  4  1  0
  3  5  1  0
  4  6  1  0
  5  7  1  0
  6  8  1  0
  7  8  1  0
  8  9  1  0
  9 10  2  0
  9 11  2  0
  9 12  1  0
 12 13  2  0
 12 14  1  0
 13 15  1  0
 14 16  1  0
 15 16  2  0
 16 17  1  0
 17 18  2  0
 17 19  1  0
 18 20  1  0
 19 21  2  0
 20 22  2  0
 21 22  1  0
 21 23  1  0
 22 24  1  0
 23 25  1  0
 24 25  2  0
M  END
