NIM-UNI-43fe0159-12-vinylsulfonamide
     RDKit          3D

 22 23  0  0  0  0  0  0  0  0999 V2000
    7.1200   -3.0570   18.9290 C   0  0  0  0  0  0  0  0  0  0  0  0
    6.8890   -2.7600   20.1970 C   0  0  0  0  0  0  0  0  0  0  0  0
    5.8360   -3.8620   21.0610 S   0  0  0  0  0  0  0  0  0  0  0  0
    4.7440   -3.0400   21.3850 O   0  0  0  0  0  0  0  0  0  0  0  0
    5.5840   -5.0370   20.2380 O   0  0  0  0  0  0  0  0  0  0  0  0
    6.4540   -4.2290   22.5570 N   0  0  0  0  0  0  0  0  0  0  0  0
    6.0510   -3.4360   23.7240 C   0  0  0  0  0  0  0  0  0  0  0  0
    7.8220   -4.6930   22.6930 C   0  0  0  0  0  0  0  0  0  0  0  0
    7.1370   -2.3860   24.0340 C   0  0  0  0  0  0  0  0  0  0  0  0
    8.5630   -3.7260   22.5640 O   0  0  0  0  0  0  0  0  0  0  0  0
    8.5590   -2.8910   23.7170 C   0  0  1  0  0  0  0  0  0  0  0  0
    9.6160   -1.8320   23.5340 C   0  0  0  0  0  0  0  0  0  0  0  0
    9.5370   -0.6790   24.3630 C   0  0  0  0  0  0  0  0  0  0  0  0
   10.6480   -1.9660   22.5870 C   0  0  0  0  0  0  0  0  0  0  0  0
   10.4640    0.3450   24.2530 C   0  0  0  0  0  0  0  0  0  0  0  0
   11.6640   -0.8360   22.4810 C   0  0  0  0  0  0  0  0  0  0  0  0
   11.5090    0.2500   23.3090 C   0  0  0  0  0  0  0  0  0  0  0  0
   12.4040    1.3360   23.2380 C   0  0  0  0  0  0  0  0  0  0  0  0
   11.3940    2.8520   23.1390 S   0  0  0  0  0  0  0  0  0  0  0  0
   12.3710    4.0350   22.2590 C   0  0  0  0  0  0  0  0  0  0  0  0
   13.1300    5.0240   23.1300 C   0  0  0  0  0  0  0  0  0  0  0  0
   12.4250    4.0870   21.0480 O   0  0  0  0  0  0  0  0  0  0  0  0
  1  2  1  0
  3  2  1  0
  3  4  2  0
  3  5  2  0
  3  6  1  0
  6  7  1  0
  6  8  1  0
  7  9  1  0
  8 10  1  0
  9 11  1  0
 10 11  1  0
 11 12  1  6
 12 13  2  0
 12 14  1  0
 13 15  1  0
 14 16  2  0
 15 17  2  0
 16 17  1  0
 17 18  1  0
 18 19  1  0
 19 20  1  0
 20 21  1  0
 20 22  2  0
M  END
