NIM-UNI-310206f0-1-acrylamide
     RDKit          3D

 24 26  0  0  0  0  0  0  0  0999 V2000
    7.8440   -3.5500   20.0790 C   0  0  0  0  0  0  0  0  0  0  0  0
    6.4640   -3.0020   19.7150 C   0  0  0  0  0  0  0  0  0  0  0  0
    5.4700   -3.7350   20.5910 C   0  0  0  0  0  0  0  0  0  0  0  0
    4.9280   -3.9510   19.5170 O   0  0  0  0  0  0  0  0  0  0  0  0
    6.3650   -3.2930   21.5720 N   0  0  0  0  0  0  0  0  0  0  0  0
    6.9760   -4.2760   22.4480 C   0  0  0  0  0  0  0  0  0  0  0  0
    6.2010   -1.9930   22.2250 C   0  0  0  0  0  0  0  0  0  0  0  0
    8.0040   -3.8120   23.2670 C   0  0  0  0  0  0  0  0  0  0  0  0
    6.2650   -2.1390   23.6300 C   0  0  0  0  0  0  0  0  0  0  0  0
    7.6330   -2.5770   23.9550 N   0  0  0  0  0  0  0  0  0  0  0  0
    8.6320   -1.5520   23.7090 C   0  0  0  0  0  0  0  0  0  0  0  0
   10.1160   -1.8810   23.7530 C   0  0  0  0  0  0  0  0  0  0  0  0
    8.2220   -0.2560   23.4200 C   0  0  0  0  0  0  0  0  0  0  0  0
   10.6230   -3.0770   24.0170 F   0  0  0  0  0  0  0  0  0  0  0  0
   11.0630   -0.7980   23.4760 C   0  0  0  0  0  0  0  0  0  0  0  0
    9.0900    0.7310   23.1610 C   0  0  0  0  0  0  0  0  0  0  0  0
    6.9280    0.0900   23.3760 F   0  0  0  0  0  0  0  0  0  0  0  0
   10.4370    0.4870   23.1790 C   0  0  0  0  0  0  0  0  0  0  0  0
   11.3600    1.6200   22.8600 C   0  0  0  0  0  0  0  0  0  0  0  0
   12.8490    1.5300   22.6600 C   0  0  0  0  0  0  0  0  0  0  0  0
   10.6780    2.9950   22.7140 C   0  0  0  0  0  0  0  0  0  0  0  0
   13.6670    2.7670   22.3080 C   0  0  0  0  0  0  0  0  0  0  0  0
   11.5950    4.1770   22.3630 C   0  0  0  0  0  0  0  0  0  0  0  0
   13.0320    3.9860   22.1810 N   0  0  0  0  0  0  0  0  0  0  0  0
  1  2  1  0
  2  3  1  0
  3  4  2  0
  3  5  1  0
  5  6  1  0
  5  7  1  0
  6  8  1  0
  7  9  1  0
  8 10  1  0
  9 10  1  0
 10 11  1  0
 11 12  2  0
 11 13  1  0
 12 14  1  0
 12 15  1  0
 13 16  2  0
 13 17  1  0
 15 18  2  0
 16 18  1  0
 18 19  1  0
 19 20  2  0
 19 21  1  0
 20 22  1  0
 21 23  2  0
 22 24  2  0
 23 24  1  0
M  END
