NIM-UNI-ed9fc491-2-chloroacetamide
     RDKit          3D

 27 28  0  0  0  0  0  0  0  0999 V2000
    9.0850   -4.8630   20.5520 C   0  0  0  0  0  0  0  0  0  0  0  0
    8.1730   -3.9240   20.4820 C   0  0  0  0  0  0  0  0  0  0  0  0
    7.0790   -3.9380   19.6800 O   0  0  0  0  0  0  0  0  0  0  0  0
    8.6700   -2.9570   21.4410 N   0  0  0  0  0  0  0  0  0  0  0  0
   10.1770   -2.8130   21.4340 C   0  0  0  0  0  0  0  0  0  0  0  0
    8.1220   -2.8190   22.8160 C   0  0  0  0  0  0  0  0  0  0  0  0
   10.9190   -3.2800   22.6890 C   0  0  0  0  0  0  0  0  0  0  0  0
    9.0630   -2.7210   23.8900 C   0  0  0  0  0  0  0  0  0  0  0  0
   10.4350   -2.5470   23.7800 N   0  0  0  0  0  0  0  0  0  0  0  0
   10.9650   -1.2120   23.6290 C   0  0  0  0  0  0  0  0  0  0  0  0
   10.5330   -0.6410   22.3140 C   0  0  0  0  0  0  0  0  0  0  0  0
    9.0800   -0.4930   22.5420 N   0  0  0  0  0  0  0  0  0  0  0  0
    8.7520    0.8990   22.3290 C   0  0  0  0  0  0  0  0  0  0  0  0
    9.4650    1.6620   21.6930 O   0  0  0  0  0  0  0  0  0  0  0  0
    7.5540    1.3310   22.8970 C   0  0  2  0  0  0  0  0  0  0  0  0
    6.4410    0.6050   22.5240 C   0  0  0  0  0  0  0  0  0  0  0  0
    7.3700    2.6100   22.1950 N   0  0  0  0  0  0  0  0  0  0  0  0
    6.2310    0.6700   21.1570 C   0  0  0  0  0  0  0  0  0  0  0  0
    7.0500    3.6940   22.9340 C   0  0  0  0  0  0  0  0  0  0  0  0
    5.2790    1.5830   20.6530 C   0  0  0  0  0  0  0  0  0  0  0  0
    6.9730   -0.1650   20.2890 C   0  0  0  0  0  0  0  0  0  0  0  0
    7.6080    4.8850   22.4490 C   0  0  0  0  0  0  0  0  0  0  0  0
    6.3300    3.6500   23.9290 O   0  0  0  0  0  0  0  0  0  0  0  0
    5.0340    1.6900   19.1390 C   0  0  0  0  0  0  0  0  0  0  0  0
    6.8100   -0.1290   18.9160 C   0  0  0  0  0  0  0  0  0  0  0  0
    5.8270    0.8040   18.1870 C   0  0  0  0  0  0  0  0  0  0  0  0
    5.6980    0.8390   17.0010 O   0  0  0  0  0  0  0  0  0  0  0  0
  1  2  1  0
  2  3  2  0
  2  4  1  0
  4  5  1  0
  4  6  1  0
  5  7  1  0
  6  8  1  0
  7  9  1  0
  8  9  1  0
  9 10  1  0
 10 11  1  0
 11 12  1  0
 12 13  1  0
 13 14  2  0
 13 15  1  0
 15 16  1  6
 15 17  1  0
 16 18  1  0
 17 19  1  0
 18 20  2  0
 18 21  1  0
 19 22  1  0
 19 23  2  0
 20 24  1  0
 21 25  2  0
 24 26  2  0
 25 26  1  0
 26 27  1  0
M  END
