NIM-UNI-43fe0159-9-bromoalkyne
     RDKit          3D

 18 19  0  0  0  0  0  0  0  0999 V2000
    7.0880   -3.4410   19.5710 C   0  0  0  0  0  0  0  0  0  0  0  0
    6.2270   -2.9920   18.6660 C   0  0  0  0  0  0  0  0  0  0  0  0
    6.6320   -3.6800   20.8480 N   0  0  0  0  0  0  0  0  0  0  0  0
    7.0580   -4.7230   21.7730 C   0  0  0  0  0  0  0  0  0  0  0  0
    6.2670   -2.5580   21.6250 C   0  0  0  0  0  0  0  0  0  0  0  0
    7.9470   -4.1010   22.9180 C   0  0  0  0  0  0  0  0  0  0  0  0
    7.2760   -1.9460   21.9010 O   0  0  0  0  0  0  0  0  0  0  0  0
    8.0150   -2.5410   22.9800 C   0  0  2  0  0  0  0  0  0  0  0  0
    9.2900   -1.7110   23.1190 C   0  0  0  0  0  0  0  0  0  0  0  0
   10.4190   -1.8830   22.2750 C   0  0  0  0  0  0  0  0  0  0  0  0
    9.3590   -0.7120   24.0990 C   0  0  0  0  0  0  0  0  0  0  0  0
   11.5340   -1.0540   22.4190 C   0  0  0  0  0  0  0  0  0  0  0  0
   10.4520    0.1010   24.2380 C   0  0  0  0  0  0  0  0  0  0  0  0
   11.5580   -0.0250   23.4090 C   0  0  0  0  0  0  0  0  0  0  0  0
   12.5770    0.8370   23.5660 O   0  0  0  0  0  0  0  0  0  0  0  0
   11.9720    2.1000   23.4290 C   0  0  0  0  0  0  0  0  0  0  0  0
   12.7760    3.0100   22.7360 C   0  0  0  0  0  0  0  0  0  0  0  0
   10.8690    2.4370   23.8480 O   0  0  0  0  0  0  0  0  0  0  0  0
  1  2  2  3
  1  3  1  0
  3  4  1  0
  3  5  1  0
  4  6  1  0
  5  7  1  0
  6  8  1  0
  7  8  1  0
  8  9  1  6
  9 10  2  0
  9 11  1  0
 10 12  1  0
 11 13  2  0
 12 14  2  0
 13 14  1  0
 14 15  1  0
 15 16  1  0
 16 17  1  0
 16 18  2  0
M  END
