NIM-UNI-43fe0159-9-chloroacetamide
     RDKit          3D

 19 20  0  0  0  0  0  0  0  0999 V2000
    7.0970   -3.0820   19.0910 C   0  0  0  0  0  0  0  0  0  0  0  0
    6.4280   -3.5680   20.1370 C   0  0  0  0  0  0  0  0  0  0  0  0
    5.5600   -4.4390   19.9200 O   0  0  0  0  0  0  0  0  0  0  0  0
    6.7370   -3.0540   21.4130 N   0  0  0  0  0  0  0  0  0  0  0  0
    7.1760   -1.6780   21.5440 C   0  0  0  0  0  0  0  0  0  0  0  0
    6.8190   -3.8360   22.6510 C   0  0  0  0  0  0  0  0  0  0  0  0
    7.1350   -1.3100   23.0310 C   0  0  0  0  0  0  0  0  0  0  0  0
    8.0000   -3.5080   23.4370 O   0  0  0  0  0  0  0  0  0  0  0  0
    8.0940   -2.1180   23.8410 C   0  0  1  0  0  0  0  0  0  0  0  0
    9.4560   -1.5770   23.6200 C   0  0  0  0  0  0  0  0  0  0  0  0
   10.1350   -0.6060   24.4380 C   0  0  0  0  0  0  0  0  0  0  0  0
   10.0530   -2.0850   22.5020 C   0  0  0  0  0  0  0  0  0  0  0  0
   11.4170   -0.2050   24.0580 C   0  0  0  0  0  0  0  0  0  0  0  0
   11.2680   -1.6980   22.1510 C   0  0  0  0  0  0  0  0  0  0  0  0
   11.9510   -0.7780   22.9080 C   0  0  0  0  0  0  0  0  0  0  0  0
   13.1430   -0.5070   22.4810 O   0  0  0  0  0  0  0  0  0  0  0  0
   13.4980   -1.8300   22.2730 C   0  0  0  0  0  0  0  0  0  0  0  0
   13.3500   -2.1180   20.9310 C   0  0  0  0  0  0  0  0  0  0  0  0
   13.9020   -2.7930   23.2330 O   0  0  0  0  0  0  0  0  0  0  0  0
  1  2  1  0
  2  3  2  0
  2  4  1  0
  4  5  1  0
  4  6  1  0
  5  7  1  0
  6  8  1  0
  7  9  1  0
  8  9  1  0
  9 10  1  6
 10 11  2  0
 10 12  1  0
 11 13  1  0
 12 14  2  0
 13 15  2  0
 14 15  1  0
 15 16  1  0
 16 17  1  0
 17 18  1  0
 17 19  2  0
M  END
