NIM-NMI-8bb27a2b-2-nitrile
     RDKit          3D

 26 27  0  0  0  0  0  0  0  0999 V2000
    7.3490   -2.9300   19.6150 C   0  0  0  0  0  0  0  0  0  0  0  0
    6.1520   -3.2020   19.1590 N   0  0  0  0  0  0  0  0  0  0  0  0
    7.5310   -2.0370   20.7890 N   0  0  0  0  0  0  0  0  0  0  0  0
    8.6980   -1.1930   21.3140 C   0  0  0  0  0  0  0  0  0  0  0  0
    6.3870   -1.4030   21.0950 C   0  0  1  0  0  0  0  0  0  0  0  0
   10.0110   -0.7230   21.9460 C   0  0  0  0  0  0  0  0  0  0  0  0
    9.2000   -2.4530   21.7030 N   0  0  0  0  0  0  0  0  0  0  0  0
    6.2120   -1.0540   22.5980 C   0  0  0  0  0  0  0  0  0  0  0  0
    5.9550   -0.3460   20.0700 C   0  0  0  0  0  0  0  0  0  0  0  0
   10.9520   -1.6010   22.4840 C   0  0  0  0  0  0  0  0  0  0  0  0
   10.4510   -2.6500   22.3420 O   0  0  0  0  0  0  0  0  0  0  0  0
    6.3080    0.0940   23.0120 O   0  0  0  0  0  0  0  0  0  0  0  0
    5.9470   -2.0630   23.4180 N   0  0  0  0  0  0  0  0  0  0  0  0
    4.7830    0.6320   20.3920 C   0  0  0  0  0  0  0  0  0  0  0  0
    6.6410   -0.3020   18.8430 C   0  0  0  0  0  0  0  0  0  0  0  0
   12.2980   -1.2390   23.0860 C   0  0  0  0  0  0  0  0  0  0  0  0
    4.8710   -3.0070   23.1830 C   0  0  0  0  0  0  0  0  0  0  0  0
    4.5860    1.5330   19.1680 C   0  0  0  0  0  0  0  0  0  0  0  0
    6.3990    0.5340   17.8160 N   0  0  0  0  0  0  0  0  0  0  0  0
   13.3210   -1.8470   22.4390 C   0  0  0  0  0  0  0  0  0  0  0  0
   12.6650    0.2610   23.1160 C   0  0  0  0  0  0  0  0  0  0  0  0
   12.3350   -1.7900   24.5240 C   0  0  0  0  0  0  0  0  0  0  0  0
    5.1800   -4.3970   23.7600 C   0  0  0  0  0  0  0  0  0  0  0  0
    5.4190    1.4150   17.9490 C   0  0  0  0  0  0  0  0  0  0  0  0
    4.9790   -5.5250   22.9600 C   0  0  0  0  0  0  0  0  0  0  0  0
    5.8610   -5.7180   21.8890 C   0  0  0  0  0  0  0  0  0  0  0  0
  1  2  2  3
  1  3  1  0
  3  4  1  0
  3  5  1  0
  4  6  1  0
  4  7  2  0
  5  8  1  1
  5  9  1  0
  6 10  2  0
  7 11  1  0
 10 11  1  0
  8 12  2  0
  8 13  1  0
  9 14  2  0
  9 15  1  0
 10 16  1  0
 13 17  1  0
 14 18  1  0
 15 19  2  0
 16 20  1  0
 16 21  1  0
 16 22  1  0
 17 23  1  0
 18 24  2  0
 19 24  1  0
 23 25  1  0
 25 26  1  0
M  END
