NIM-UNI-05f93fcc-3-vinylsulfonamide
     RDKit          3D

 26 28  0  0  0  0  0  0  0  0999 V2000
    7.2800   -3.0520   18.9040 C   0  0  0  0  0  0  0  0  0  0  0  0
    7.0320   -2.9130   20.4010 C   0  0  0  0  0  0  0  0  0  0  0  0
    5.7440   -4.0360   20.8690 S   0  0  0  0  0  0  0  0  0  0  0  0
    5.1060   -4.7080   19.7750 O   0  0  0  0  0  0  0  0  0  0  0  0
    4.7860   -3.3550   21.6340 O   0  0  0  0  0  0  0  0  0  0  0  0
    6.5750   -5.1410   21.8450 N   0  0  0  0  0  0  0  0  0  0  0  0
    7.2780   -4.5430   22.9270 C   0  0  0  0  0  0  0  0  0  0  0  0
    5.7630   -6.3030   22.2450 C   0  0  0  0  0  0  0  0  0  0  0  0
    6.5480   -4.2920   24.0790 C   0  0  0  0  0  0  0  0  0  0  0  0
    4.8850   -5.9340   23.2580 C   0  0  0  0  0  0  0  0  0  0  0  0
    5.7090   -5.4590   24.3860 N   0  0  0  0  0  0  0  0  0  0  0  0
    4.8840   -5.4100   25.8740 S   0  0  0  0  0  0  0  0  0  0  0  0
    5.8380   -5.2940   26.9530 O   0  0  0  0  0  0  0  0  0  0  0  0
    3.8940   -6.4670   25.8670 O   0  0  0  0  0  0  0  0  0  0  0  0
    3.9550   -3.9130   25.9230 C   0  0  0  0  0  0  0  0  0  0  0  0
    4.2850   -2.5700   26.0110 C   0  0  0  0  0  0  0  0  0  0  0  0
    2.2510   -4.0800   25.8510 S   0  0  0  0  0  0  0  0  0  0  0  0
    3.1770   -1.5810   26.0270 C   0  0  0  0  0  0  0  0  0  0  0  0
    1.9580   -2.3930   25.9410 C   0  0  0  0  0  0  0  0  0  0  0  0
    0.6490   -1.7670   25.9380 C   0  0  0  0  0  0  0  0  0  0  0  0
   -0.4870   -2.5840   25.3430 C   0  0  0  0  0  0  0  0  0  0  0  0
    0.3770   -0.4730   26.4480 C   0  0  0  0  0  0  0  0  0  0  0  0
   -1.8710   -1.9680   25.3230 C   0  0  0  0  0  0  0  0  0  0  0  0
   -1.0440    0.2100   26.4470 C   0  0  0  0  0  0  0  0  0  0  0  0
    1.6340    0.4950   27.1370 Cl  0  0  0  0  0  0  0  0  0  0  0  0
   -2.1120   -0.5510   25.8900 C   0  0  0  0  0  0  0  0  0  0  0  0
  1  2  1  0
  3  2  1  0
  3  4  2  0
  3  5  2  0
  3  6  1  0
  6  7  1  0
  6  8  1  0
  7  9  1  0
  8 10  1  0
  9 11  1  0
 10 11  1  0
 11 12  1  0
 12 13  2  0
 12 14  2  0
 12 15  1  0
 15 16  2  0
 15 17  1  0
 16 18  1  0
 17 19  1  0
 18 19  2  0
 19 20  1  0
 20 21  2  0
 20 22  1  0
 21 23  1  0
 22 24  2  0
 22 25  1  0
 23 26  2  0
 24 26  1  0
M  END
