NIM-NMI-8bb27a2b-12-bromoalkyne
     RDKit          3D

 28 29  0  0  0  0  0  0  0  0999 V2000
    7.5480   -2.7670   19.5360 C   0  0  0  0  0  0  0  0  0  0  0  0
    6.5770   -2.2970   18.4860 C   0  0  0  0  0  0  0  0  0  0  0  0
    7.7120   -2.0070   20.7950 N   0  0  0  0  0  0  0  0  0  0  0  0
    8.9160   -1.9960   21.7760 C   0  0  0  0  0  0  0  0  0  0  0  0
    6.6490   -1.2140   21.2370 C   0  0  1  0  0  0  0  0  0  0  0  0
    9.9820   -0.8720   21.7020 C   0  0  0  0  0  0  0  0  0  0  0  0
    9.1470   -2.8750   22.7240 N   0  0  0  0  0  0  0  0  0  0  0  0
    6.6980   -0.2820   22.4670 C   0  0  0  0  0  0  0  0  0  0  0  0
    6.2220   -0.3120   20.0060 C   0  0  0  0  0  0  0  0  0  0  0  0
   10.6310   -1.4980   22.7790 C   0  0  0  0  0  0  0  0  0  0  0  0
   10.1930   -2.5230   23.2970 O   0  0  0  0  0  0  0  0  0  0  0  0
    7.7690   -0.0530   23.0150 O   0  0  0  0  0  0  0  0  0  0  0  0
    5.4490    0.2040   22.7970 N   0  0  0  0  0  0  0  0  0  0  0  0
    5.0480    0.3790   20.1410 C   0  0  0  0  0  0  0  0  0  0  0  0
    6.8850   -0.1370   18.8110 C   0  0  0  0  0  0  0  0  0  0  0  0
   11.8180   -0.9250   23.2510 C   0  0  0  0  0  0  0  0  0  0  0  0
    4.8990   -0.6010   23.7530 C   0  0  0  0  0  0  0  0  0  0  0  0
    4.6270    1.1840   19.0860 C   0  0  0  0  0  0  0  0  0  0  0  0
    6.4820    0.6460   17.7710 N   0  0  0  0  0  0  0  0  0  0  0  0
   11.7490    0.4540   23.3040 C   0  0  0  0  0  0  0  0  0  0  0  0
   12.2330   -1.5350   24.5930 C   0  0  0  0  0  0  0  0  0  0  0  0
   13.0070   -1.0530   22.5830 C   0  0  0  0  0  0  0  0  0  0  0  0
    3.8450    0.2530   24.4220 C   0  0  0  0  0  0  0  0  0  0  0  0
    5.3450    1.3130   17.9080 C   0  0  0  0  0  0  0  0  0  0  0  0
    2.7020    0.2380   23.9850 O   0  0  0  0  0  0  0  0  0  0  0  0
    4.1370    0.9520   25.3960 O   0  0  0  0  0  0  0  0  0  0  0  0
    3.5220    2.2510   25.4000 C   0  0  0  0  0  0  0  0  0  0  0  0
    4.1310    3.0840   26.3340 C   0  0  0  0  0  0  0  0  0  0  0  0
  1  2  2  3
  1  3  1  0
  3  4  1  0
  3  5  1  0
  4  6  1  0
  4  7  2  0
  5  8  1  1
  5  9  1  0
  6 10  2  0
  7 11  1  0
 10 11  1  0
  8 12  2  0
  8 13  1  0
  9 14  2  0
  9 15  1  0
 10 16  1  0
 13 17  1  0
 14 18  1  0
 15 19  2  0
 16 20  1  0
 16 21  1  0
 16 22  1  0
 17 23  1  0
 18 24  2  0
 19 24  1  0
 23 25  2  0
 23 26  1  0
 26 27  1  0
 27 28  1  0
M  END
