NIM-UNI-310206f0-34-acrylamide
     RDKit          3D

 32 35  0  0  0  0  0  0  0  0999 V2000
    7.8260   -3.3650   19.6980 C   0  0  0  0  0  0  0  0  0  0  0  0
    6.6700   -2.7010   19.0180 C   0  0  0  0  0  0  0  0  0  0  0  0
    5.5200   -3.1730   19.8090 C   0  0  0  0  0  0  0  0  0  0  0  0
    5.0720   -4.3090   19.6850 O   0  0  0  0  0  0  0  0  0  0  0  0
    5.0510   -2.2590   20.6770 N   0  0  0  0  0  0  0  0  0  0  0  0
    4.9160   -0.8710   20.2570 C   0  0  0  0  0  0  0  0  0  0  0  0
    5.0530   -2.4740   22.1160 C   0  0  0  0  0  0  0  0  0  0  0  0
    6.2970   -0.3580   20.6450 C   0  0  0  0  0  0  0  0  0  0  0  0
    6.1680   -1.7090   22.7930 C   0  0  0  0  0  0  0  0  0  0  0  0
    6.4020   -0.4090   22.1260 N   0  0  0  0  0  0  0  0  0  0  0  0
    7.6030    0.1540   22.3880 C   0  0  0  0  0  0  0  0  0  0  0  0
    7.7850    1.6090   21.8910 C   0  0  0  0  0  0  0  0  0  0  0  0
    8.6050   -0.5680   23.0510 C   0  0  0  0  0  0  0  0  0  0  0  0
    6.8710    2.3630   21.2570 F   0  0  0  0  0  0  0  0  0  0  0  0
    9.1960    2.0910   22.2180 C   0  0  0  0  0  0  0  0  0  0  0  0
    9.9650    0.0180   23.3200 C   0  0  0  0  0  0  0  0  0  0  0  0
    8.4110   -1.8270   23.4790 F   0  0  0  0  0  0  0  0  0  0  0  0
   10.2880    1.2910   22.9270 C   0  0  0  0  0  0  0  0  0  0  0  0
   11.5810    1.8390   23.1670 N   0  0  0  0  0  0  0  0  0  0  0  0
   12.7010    0.9280   22.8220 C   0  0  0  0  0  0  0  0  0  0  0  0
   11.6160    3.5270   22.8230 S   0  0  0  0  0  0  0  0  0  0  0  0
   12.1580   -0.3580   22.7290 C   0  0  0  0  0  0  0  0  0  0  0  0
   10.9460    3.6860   21.5840 O   0  0  0  0  0  0  0  0  0  0  0  0
   11.2540    4.2880   23.9990 O   0  0  0  0  0  0  0  0  0  0  0  0
   13.3180    3.6420   22.4730 C   0  0  0  0  0  0  0  0  0  0  0  0
   12.8280   -1.4780   23.1830 C   0  0  0  0  0  0  0  0  0  0  0  0
   12.8060   -1.6120   21.8100 C   0  0  0  0  0  0  0  0  0  0  0  0
   14.1850    4.6040   23.1740 C   0  0  0  0  0  0  0  0  0  0  0  0
   14.0570    2.9250   21.6170 N   0  0  0  0  0  0  0  0  0  0  0  0
   15.5590    4.2950   22.6540 C   0  0  0  0  0  0  0  0  0  0  0  0
   15.3950    3.3320   21.7220 O   0  0  0  0  0  0  0  0  0  0  0  0
   16.7710    4.8070   23.0620 C   0  0  0  0  0  0  0  0  0  0  0  0
  1  2  1  0
  2  3  1  0
  3  4  2  0
  3  5  1  0
  5  6  1  0
  5  7  1  0
  6  8  1  0
  7  9  1  0
  8 10  1  0
  9 10  1  0
 10 11  1  0
 11 12  2  0
 11 13  1  0
 12 14  1  0
 12 15  1  0
 13 16  2  0
 13 17  1  0
 15 18  2  0
 16 18  1  0
 18 19  1  0
 19 20  1  0
 21 19  1  0
 20 22  1  0
 21 23  2  0
 21 24  2  0
 21 25  1  0
 22 26  1  0
 22 27  1  0
 26 27  1  0
 25 28  1  0
 25 29  2  0
 28 30  2  0
 29 31  1  0
 30 31  1  0
 30 32  1  0
M  END
