NIM-NMI-8bb27a2b-4-nitrile
     RDKit          3D

 27 28  0  0  0  0  0  0  0  0999 V2000
    7.2930   -2.8380   19.4800 C   0  0  0  0  0  0  0  0  0  0  0  0
    6.4920   -2.5150   18.5140 N   0  0  0  0  0  0  0  0  0  0  0  0
    7.6500   -1.9300   20.6090 N   0  0  0  0  0  0  0  0  0  0  0  0
    8.8830   -2.0980   21.4910 C   0  0  0  0  0  0  0  0  0  0  0  0
    6.7130   -1.0600   21.0690 C   0  0  1  0  0  0  0  0  0  0  0  0
    9.9110   -1.0580   21.8230 C   0  0  0  0  0  0  0  0  0  0  0  0
    9.3590   -3.1680   22.1660 N   0  0  0  0  0  0  0  0  0  0  0  0
    7.0080   -0.2140   22.3390 C   0  0  0  0  0  0  0  0  0  0  0  0
    6.1580   -0.1440   19.9960 C   0  0  0  0  0  0  0  0  0  0  0  0
   10.9330   -1.6630   22.6280 C   0  0  0  0  0  0  0  0  0  0  0  0
   10.5880   -2.8370   22.8170 O   0  0  0  0  0  0  0  0  0  0  0  0
    7.9880   -0.3780   23.0470 O   0  0  0  0  0  0  0  0  0  0  0  0
    6.1150    0.7180   22.6300 N   0  0  0  0  0  0  0  0  0  0  0  0
    4.9300    0.7240   20.2000 C   0  0  0  0  0  0  0  0  0  0  0  0
    6.7820   -0.0800   18.7540 C   0  0  0  0  0  0  0  0  0  0  0  0
   12.2100   -1.0170   23.1410 C   0  0  0  0  0  0  0  0  0  0  0  0
    5.1660    0.5560   23.7110 C   0  0  0  0  0  0  0  0  0  0  0  0
    4.4770    1.5710   19.0660 C   0  0  0  0  0  0  0  0  0  0  0  0
    6.3860    0.6860   17.7110 N   0  0  0  0  0  0  0  0  0  0  0  0
   12.3520    0.3370   23.2930 C   0  0  0  0  0  0  0  0  0  0  0  0
   13.3360   -1.3990   22.2140 C   0  0  0  0  0  0  0  0  0  0  0  0
   12.5270   -1.6820   24.4960 C   0  0  0  0  0  0  0  0  0  0  0  0
    3.7820    0.1250   23.2170 C   0  0  0  0  0  0  0  0  0  0  0  0
    5.2970    1.4770   17.8270 C   0  0  0  0  0  0  0  0  0  0  0  0
    2.8440    1.1090   22.9180 C   0  0  0  0  0  0  0  0  0  0  0  0
    2.4020    1.1900   21.5900 C   0  0  0  0  0  0  0  0  0  0  0  0
    1.6150    0.9540   23.8180 C   0  0  0  0  0  0  0  0  0  0  0  0
  1  2  2  3
  1  3  1  0
  3  4  1  0
  3  5  1  0
  4  6  1  0
  4  7  2  0
  5  8  1  1
  5  9  1  0
  6 10  2  0
  7 11  1  0
 10 11  1  0
  8 12  2  0
  8 13  1  0
  9 14  2  0
  9 15  1  0
 10 16  1  0
 13 17  1  0
 14 18  1  0
 15 19  2  0
 16 20  1  0
 16 21  1  0
 16 22  1  0
 17 23  1  0
 18 24  2  0
 19 24  1  0
 23 25  1  0
 25 26  1  0
 25 27  1  0
M  END
