NIM-UNI-310206f0-65-bromoalkyne
     RDKit          3D

 34 38  0  0  0  0  0  0  0  0999 V2000
    6.8990   -3.7500   19.9440 C   0  0  0  0  0  0  0  0  0  0  0  0
    5.6350   -3.2600   19.2300 C   0  0  0  0  0  0  0  0  0  0  0  0
    7.2140   -3.1690   21.1960 N   0  0  0  0  0  0  0  0  0  0  0  0
    7.3130   -3.8480   22.5230 C   0  0  0  0  0  0  0  0  0  0  0  0
    8.0420   -1.9900   21.1840 C   0  0  0  0  0  0  0  0  0  0  0  0
    8.3970   -3.3420   23.3890 C   0  0  0  0  0  0  0  0  0  0  0  0
    9.4630   -2.4280   21.5260 C   0  0  0  0  0  0  0  0  0  0  0  0
    9.6210   -2.7400   22.9060 N   0  0  0  0  0  0  0  0  0  0  0  0
   10.0070   -1.4490   23.0650 C   0  0  0  0  0  0  0  0  0  0  0  0
   11.3730   -0.8280   22.7830 C   0  0  0  0  0  0  0  0  0  0  0  0
    9.0630   -0.6210   23.4440 C   0  0  0  0  0  0  0  0  0  0  0  0
   12.4580   -1.5280   22.3940 F   0  0  0  0  0  0  0  0  0  0  0  0
   11.4670    0.5660   22.9130 C   0  0  0  0  0  0  0  0  0  0  0  0
    9.1740    0.7260   23.5650 C   0  0  0  0  0  0  0  0  0  0  0  0
    7.9070   -1.1520   23.7080 F   0  0  0  0  0  0  0  0  0  0  0  0
   10.3420    1.3800   23.2910 C   0  0  0  0  0  0  0  0  0  0  0  0
   10.2180    2.7270   23.4400 N   0  0  0  0  0  0  0  0  0  0  0  0
   11.3360    3.3990   23.6170 C   0  0  0  0  0  0  0  0  0  0  0  0
    8.9380    3.2800   23.3260 C   0  0  0  0  0  0  0  0  0  0  0  0
   12.4760    2.7660   23.4650 O   0  0  0  0  0  0  0  0  0  0  0  0
   11.4110    4.7540   24.0220 C   0  0  0  0  0  0  0  0  0  0  0  0
    8.4180    3.3970   21.8700 C   0  0  0  0  0  0  0  0  0  0  0  0
    8.2650    3.6610   24.5380 C   0  0  0  0  0  0  0  0  0  0  0  0
   12.1910    5.7410   23.1890 C   0  0  0  0  0  0  0  0  0  0  0  0
   10.8210    5.3510   25.2090 C   0  0  0  0  0  0  0  0  0  0  0  0
    7.0450    4.0180   22.1510 C   0  0  0  0  0  0  0  0  0  0  0  0
    7.0250    4.1980   24.5090 C   0  0  0  0  0  0  0  0  0  0  0  0
    8.5330    3.6420   25.9090 C   0  0  0  0  0  0  0  0  0  0  0  0
   12.2850    7.1570   23.6390 C   0  0  0  0  0  0  0  0  0  0  0  0
   10.9000    6.6530   25.6260 N   0  0  0  0  0  0  0  0  0  0  0  0
    6.3630    4.4090   23.4370 C   0  0  0  0  0  0  0  0  0  0  0  0
    6.5120    4.5140   25.8250 N   0  0  0  0  0  0  0  0  0  0  0  0
    7.4930    4.1500   26.7050 C   0  0  0  0  0  0  0  0  0  0  0  0
   11.5970    7.5460   24.8970 C   0  0  0  0  0  0  0  0  0  0  0  0
  1  2  2  3
  1  3  1  0
  3  4  1  0
  3  5  1  0
  4  6  1  0
  5  7  1  0
  6  8  1  0
  7  8  1  0
  8  9  1  0
  9 10  2  0
  9 11  1  0
 10 12  1  0
 10 13  1  0
 11 14  2  0
 11 15  1  0
 13 16  2  0
 14 16  1  0
 16 17  1  0
 17 18  1  0
 17 19  1  0
 18 20  2  0
 18 21  1  0
 19 22  2  0
 19 23  1  0
 21 24  2  0
 21 25  1  0
 22 26  1  0
 23 27  2  0
 23 28  1  0
 24 29  1  0
 25 30  2  0
 26 31  2  0
 27 31  1  0
 27 32  1  0
 28 33  2  0
 32 33  1  0
 29 34  2  0
 30 34  1  0
M  END
