NIM-UNI-310206f0-23-acrylamide
     RDKit          3D

 30 32  0  0  0  0  0  0  0  0999 V2000
    7.3710   -2.8430   18.3150 C   0  0  0  0  0  0  0  0  0  0  0  0
    6.2250   -2.2810   19.1370 C   0  0  0  0  0  0  0  0  0  0  0  0
    5.7750   -3.1520   20.2570 C   0  0  0  0  0  0  0  0  0  0  0  0
    5.2390   -4.2590   20.0710 O   0  0  0  0  0  0  0  0  0  0  0  0
    6.0600   -2.5530   21.4480 N   0  0  0  0  0  0  0  0  0  0  0  0
    5.5400   -2.9210   22.7790 C   0  0  0  0  0  0  0  0  0  0  0  0
    7.3770   -2.0350   21.6040 C   0  0  0  0  0  0  0  0  0  0  0  0
    6.2740   -1.8920   23.7680 C   0  0  0  0  0  0  0  0  0  0  0  0
    7.9980   -2.9610   22.6090 C   0  0  0  0  0  0  0  0  0  0  0  0
    7.7410   -2.2050   23.7950 N   0  0  0  0  0  0  0  0  0  0  0  0
    8.7050   -1.2390   23.5770 C   0  0  0  0  0  0  0  0  0  0  0  0
    8.4410    0.2720   23.1900 C   0  0  0  0  0  0  0  0  0  0  0  0
    9.9890   -1.7260   23.6820 C   0  0  0  0  0  0  0  0  0  0  0  0
    7.2470    0.8780   23.0630 F   0  0  0  0  0  0  0  0  0  0  0  0
    9.8040    1.0070   22.9290 C   0  0  0  0  0  0  0  0  0  0  0  0
   11.1990   -0.9470   23.4270 C   0  0  0  0  0  0  0  0  0  0  0  0
   10.2250   -2.9900   24.0180 F   0  0  0  0  0  0  0  0  0  0  0  0
   11.1910    0.3510   23.0440 C   0  0  0  0  0  0  0  0  0  0  0  0
   12.5250    0.7700   22.8250 N   0  0  0  0  0  0  0  0  0  0  0  0
   13.2450   -0.4830   22.9350 C   0  0  0  0  0  0  0  0  0  0  0  0
   13.1170    2.0390   22.7250 C   0  0  0  0  0  0  0  0  0  0  0  0
   13.7430   -0.9570   23.9380 O   0  0  0  0  0  0  0  0  0  0  0  0
   13.2430   -1.2420   21.7860 C   0  0  0  0  0  0  0  0  0  0  0  0
   12.4750    3.1020   23.2990 N   0  0  0  0  0  0  0  0  0  0  0  0
   14.3360    2.1900   22.0520 N   0  0  0  0  0  0  0  0  0  0  0  0
   12.0260   -2.0150   21.4140 C   0  0  0  0  0  0  0  0  0  0  0  0
   13.1160   -2.7190   21.8850 C   0  0  0  0  0  0  0  0  0  0  0  0
   13.0030    4.4310   23.3110 C   0  0  0  0  0  0  0  0  0  0  0  0
   14.9510    3.4650   21.9980 C   0  0  0  0  0  0  0  0  0  0  0  0
   14.3370    4.7230   22.6460 C   0  0  0  0  0  0  0  0  0  0  0  0
  1  2  1  0
  2  3  1  0
  3  4  2  0
  3  5  1  0
  5  6  1  0
  5  7  1  0
  6  8  1  0
  7  9  1  0
  8 10  1  0
  9 10  1  0
 10 11  1  0
 11 12  2  0
 11 13  1  0
 12 14  1  0
 12 15  1  0
 13 16  2  0
 13 17  1  0
 15 18  2  0
 16 18  1  0
 18 19  1  0
 19 20  1  0
 19 21  1  0
 20 22  2  0
 20 23  1  0
 21 24  2  0
 21 25  1  0
 23 26  1  0
 23 27  1  0
 24 28  1  0
 25 29  2  0
 28 30  2  0
 29 30  1  0
M  END
