NIM-UNI-43fe0159-2-nitrile
     RDKit          3D

 16 17  0  0  0  0  0  0  0  0999 V2000
    6.8430   -3.4720   19.4690 C   0  0  0  0  0  0  0  0  0  0  0  0
    6.0180   -3.0770   18.5730 N   0  0  0  0  0  0  0  0  0  0  0  0
    6.4380   -3.7420   20.7460 N   0  0  0  0  0  0  0  0  0  0  0  0
    7.0590   -4.7190   21.6210 C   0  0  0  0  0  0  0  0  0  0  0  0
    6.0800   -2.6670   21.6340 C   0  0  0  0  0  0  0  0  0  0  0  0
    8.0090   -3.9720   22.6240 C   0  0  0  0  0  0  0  0  0  0  0  0
    6.9360   -1.9130   22.0440 O   0  0  0  0  0  0  0  0  0  0  0  0
    7.8160   -2.4550   22.9530 C   0  0  2  0  0  0  0  0  0  0  0  0
    9.1360   -1.6910   23.1350 C   0  0  0  0  0  0  0  0  0  0  0  0
   10.2790   -1.9410   22.1900 C   0  0  0  0  0  0  0  0  0  0  0  0
    9.3200   -0.7440   24.1370 C   0  0  0  0  0  0  0  0  0  0  0  0
   11.4480   -1.2090   22.3370 C   0  0  0  0  0  0  0  0  0  0  0  0
   10.5180   -0.0340   24.2380 C   0  0  0  0  0  0  0  0  0  0  0  0
   11.5550   -0.2640   23.3360 C   0  0  0  0  0  0  0  0  0  0  0  0
   12.7240    0.4680   23.3990 C   0  0  0  0  0  0  0  0  0  0  0  0
   13.4940    1.1700   22.9530 N   0  0  0  0  0  0  0  0  0  0  0  0
  1  2  2  3
  1  3  1  0
  3  4  1  0
  3  5  1  0
  4  6  1  0
  5  7  1  0
  6  8  1  0
  7  8  1  0
  8  9  1  6
  9 10  2  0
  9 11  1  0
 10 12  1  0
 11 13  2  0
 12 14  2  0
 13 14  1  0
 14 15  1  0
 15 16  1  0
M  END
