NIM-UNI-310206f0-69-vinylsulfonamide
     RDKit          3D

 25 27  0  0  0  0  0  0  0  0999 V2000
    7.4310   -2.9730   18.5420 C   0  0  0  0  0  0  0  0  0  0  0  0
    7.0170   -1.8780   19.4540 C   0  0  0  0  0  0  0  0  0  0  0  0
    5.3740   -2.2340   20.0110 S   0  0  0  0  0  0  0  0  0  0  0  0
    4.8340   -3.5420   19.5870 O   0  0  0  0  0  0  0  0  0  0  0  0
    4.6550   -1.0000   19.8050 O   0  0  0  0  0  0  0  0  0  0  0  0
    5.6590   -2.3400   21.6440 N   0  0  0  0  0  0  0  0  0  0  0  0
    5.8790   -1.0920   22.3730 C   0  0  0  0  0  0  0  0  0  0  0  0
    5.4350   -3.5880   22.4040 C   0  0  0  0  0  0  0  0  0  0  0  0
    6.6140   -1.3420   23.5380 C   0  0  0  0  0  0  0  0  0  0  0  0
    6.3560   -3.6850   23.6320 C   0  0  0  0  0  0  0  0  0  0  0  0
    6.2920   -2.4270   24.3650 N   0  0  0  0  0  0  0  0  0  0  0  0
    7.2030   -2.3880   25.7960 S   0  0  0  0  0  0  0  0  0  0  0  0
    6.4930   -1.5340   26.7280 O   0  0  0  0  0  0  0  0  0  0  0  0
    7.6460   -3.7250   26.1210 O   0  0  0  0  0  0  0  0  0  0  0  0
    8.6040   -1.5340   25.1770 C   0  0  0  0  0  0  0  0  0  0  0  0
    9.2450   -0.1980   25.4060 C   0  0  0  0  0  0  0  0  0  0  0  0
    9.4680   -2.4090   24.0090 S   0  0  0  0  0  0  0  0  0  0  0  0
   10.3210   -0.0450   24.6240 C   0  0  0  0  0  0  0  0  0  0  0  0
   10.5530   -1.1280   23.8310 C   0  0  0  0  0  0  0  0  0  0  0  0
   11.5670   -1.1050   23.0030 C   0  0  0  0  0  0  0  0  0  0  0  0
   12.5100   -0.1310   23.0380 C   0  0  0  0  0  0  0  0  0  0  0  0
   11.6450   -2.2190   21.9900 C   0  0  0  0  0  0  0  0  0  0  0  0
   13.5970   -0.1580   22.0930 C   0  0  0  0  0  0  0  0  0  0  0  0
   12.7180   -2.1300   21.1730 C   0  0  0  0  0  0  0  0  0  0  0  0
   13.6810   -1.1850   21.1600 N   0  0  0  0  0  0  0  0  0  0  0  0
  1  2  1  0
  3  2  1  0
  3  4  2  0
  3  5  2  0
  3  6  1  0
  6  7  1  0
  6  8  1  0
  7  9  1  0
  8 10  1  0
  9 11  1  0
 10 11  1  0
 11 12  1  0
 12 13  2  0
 12 14  2  0
 12 15  1  0
 15 16  2  0
 15 17  1  0
 16 18  1  0
 17 19  1  0
 18 19  2  0
 19 20  1  0
 20 21  2  0
 20 22  1  0
 21 23  1  0
 22 24  2  0
 23 25  2  0
 24 25  1  0
M  END
