NIM-UNI-310206f0-33-chloroacetamide
     RDKit          3D

 35 39  0  0  0  0  0  0  0  0999 V2000
    7.0550   -3.0990   19.0180 C   0  0  0  0  0  0  0  0  0  0  0  0
    6.0430   -3.5480   20.0590 C   0  0  0  0  0  0  0  0  0  0  0  0
    5.3010   -4.4930   19.8480 O   0  0  0  0  0  0  0  0  0  0  0  0
    5.9630   -2.8850   21.2430 N   0  0  0  0  0  0  0  0  0  0  0  0
    6.0180   -1.4440   21.3590 C   0  0  0  0  0  0  0  0  0  0  0  0
    6.3180   -3.6260   22.4690 C   0  0  0  0  0  0  0  0  0  0  0  0
    7.5340   -1.3420   21.4910 C   0  0  0  0  0  0  0  0  0  0  0  0
    7.4850   -3.0240   23.2960 C   0  0  0  0  0  0  0  0  0  0  0  0
    7.7380   -1.6200   22.9150 N   0  0  0  0  0  0  0  0  0  0  0  0
    8.9920   -0.9630   23.1440 C   0  0  0  0  0  0  0  0  0  0  0  0
    8.8490    0.5220   22.7080 C   0  0  0  0  0  0  0  0  0  0  0  0
   10.1430   -1.4880   23.6230 C   0  0  0  0  0  0  0  0  0  0  0  0
    7.7110    1.0680   22.2390 F   0  0  0  0  0  0  0  0  0  0  0  0
   10.1330    1.4010   22.8220 C   0  0  0  0  0  0  0  0  0  0  0  0
   11.3240   -0.6580   23.7280 C   0  0  0  0  0  0  0  0  0  0  0  0
   10.2930   -2.7250   24.0000 F   0  0  0  0  0  0  0  0  0  0  0  0
   11.3580    0.6420   23.3630 C   0  0  0  0  0  0  0  0  0  0  0  0
   12.6410    1.1110   23.5390 N   0  0  0  0  0  0  0  0  0  0  0  0
   12.9280   -0.2010   23.0420 C   0  0  0  0  0  0  0  0  0  0  0  0
   12.8770    2.3770   22.8640 C   0  0  0  0  0  0  0  0  0  0  0  0
   13.4540   -0.4140   21.7100 C   0  0  0  0  0  0  0  0  0  0  0  0
   12.6630   -1.3760   23.7640 C   0  0  0  0  0  0  0  0  0  0  0  0
   14.0020    2.4930   22.0290 C   0  0  0  0  0  0  0  0  0  0  0  0
   12.0070    3.5340   23.0340 C   0  0  0  0  0  0  0  0  0  0  0  0
   13.6430   -1.6070   21.1050 C   0  0  0  0  0  0  0  0  0  0  0  0
   12.8810   -2.7330   23.1070 C   0  0  0  0  0  0  0  0  0  0  0  0
   14.3360    3.6810   21.3660 C   0  0  0  0  0  0  0  0  0  0  0  0
   12.2870    4.7700   22.3940 C   0  0  0  0  0  0  0  0  0  0  0  0
   10.7240    3.8920   23.7820 C   0  0  0  0  0  0  0  0  0  0  0  0
   13.3410   -2.8550   21.7820 C   0  0  0  0  0  0  0  0  0  0  0  0
   13.5040    4.8600   21.5220 C   0  0  0  0  0  0  0  0  0  0  0  0
   11.3430    5.7890   22.6800 N   0  0  0  0  0  0  0  0  0  0  0  0
   10.3790    5.3150   23.5090 C   0  0  0  0  0  0  0  0  0  0  0  0
   13.6080   -3.9110   20.8810 O   0  0  0  0  0  0  0  0  0  0  0  0
   14.7480   -4.8440   20.7410 C   0  0  0  0  0  0  0  0  0  0  0  0
  1  2  1  0
  2  3  2  0
  2  4  1  0
  4  5  1  0
  4  6  1  0
  5  7  1  0
  6  8  1  0
  7  9  1  0
  8  9  1  0
  9 10  1  0
 10 11  2  0
 10 12  1  0
 11 13  1  0
 11 14  1  0
 12 15  2  0
 12 16  1  0
 14 17  2  0
 15 17  1  0
 17 18  1  0
 18 19  1  0
 18 20  1  0
 19 21  2  0
 19 22  1  0
 20 23  2  0
 20 24  1  0
 21 25  1  0
 22 26  2  0
 23 27  1  0
 24 28  2  0
 24 29  1  0
 25 30  2  0
 26 30  1  0
 27 31  2  0
 28 31  1  0
 28 32  1  0
 29 33  2  0
 32 33  1  0
 30 34  1  0
 34 35  1  0
M  END
