NIM-UNI-310206f0-33-nitrile
     RDKit          3D

 34 38  0  0  0  0  0  0  0  0999 V2000
    6.7730   -3.8700   20.0810 C   0  0  0  0  0  0  0  0  0  0  0  0
    5.9410   -3.3530   19.2380 N   0  0  0  0  0  0  0  0  0  0  0  0
    7.0800   -3.2730   21.2950 N   0  0  0  0  0  0  0  0  0  0  0  0
    7.1060   -3.9230   22.6370 C   0  0  0  0  0  0  0  0  0  0  0  0
    7.8580   -2.0620   21.2730 C   0  0  0  0  0  0  0  0  0  0  0  0
    8.4060   -3.4670   23.4830 C   0  0  0  0  0  0  0  0  0  0  0  0
    9.1720   -2.4650   21.3710 C   0  0  0  0  0  0  0  0  0  0  0  0
    9.5840   -2.9120   22.6920 N   0  0  0  0  0  0  0  0  0  0  0  0
   10.1620   -1.7690   23.0780 C   0  0  0  0  0  0  0  0  0  0  0  0
   11.6620   -1.2050   22.9640 C   0  0  0  0  0  0  0  0  0  0  0  0
    9.2280   -1.0210   23.5880 C   0  0  0  0  0  0  0  0  0  0  0  0
   12.6910   -1.9030   22.4580 F   0  0  0  0  0  0  0  0  0  0  0  0
   11.8850    0.2960   23.4630 C   0  0  0  0  0  0  0  0  0  0  0  0
    9.4090    0.3270   24.0350 C   0  0  0  0  0  0  0  0  0  0  0  0
    8.0420   -1.5420   23.6730 F   0  0  0  0  0  0  0  0  0  0  0  0
   10.5620    0.9800   23.9860 C   0  0  0  0  0  0  0  0  0  0  0  0
   10.3210    2.3160   24.4510 N   0  0  0  0  0  0  0  0  0  0  0  0
   11.0710    3.3520   23.8150 C   0  0  0  0  0  0  0  0  0  0  0  0
    8.9210    2.5690   24.5520 C   0  0  0  0  0  0  0  0  0  0  0  0
   10.7770    4.8640   23.9980 C   0  0  0  0  0  0  0  0  0  0  0  0
   12.1380    3.0600   22.9860 C   0  0  0  0  0  0  0  0  0  0  0  0
    8.0830    1.7420   25.4970 C   0  0  0  0  0  0  0  0  0  0  0  0
    8.2820    3.5860   23.7690 C   0  0  0  0  0  0  0  0  0  0  0  0
   11.6510    5.8800   23.2870 C   0  0  0  0  0  0  0  0  0  0  0  0
   12.8820    4.0510   22.3820 C   0  0  0  0  0  0  0  0  0  0  0  0
    6.7410    2.0150   25.5690 C   0  0  0  0  0  0  0  0  0  0  0  0
    6.8340    3.9320   23.7980 C   0  0  0  0  0  0  0  0  0  0  0  0
    8.8830    4.5120   22.7680 C   0  0  0  0  0  0  0  0  0  0  0  0
   12.6720    5.4160   22.5080 C   0  0  0  0  0  0  0  0  0  0  0  0
    6.1270    3.0030   24.8190 C   0  0  0  0  0  0  0  0  0  0  0  0
    6.7120    4.8610   22.9740 N   0  0  0  0  0  0  0  0  0  0  0  0
    7.8020    5.3150   22.2920 C   0  0  0  0  0  0  0  0  0  0  0  0
   13.5920    6.0450   21.7770 O   0  0  0  0  0  0  0  0  0  0  0  0
   14.3800    4.9990   21.2340 C   0  0  0  0  0  0  0  0  0  0  0  0
  1  2  2  3
  1  3  1  0
  3  4  1  0
  3  5  1  0
  4  6  1  0
  5  7  1  0
  6  8  1  0
  7  8  1  0
  8  9  1  0
  9 10  2  0
  9 11  1  0
 10 12  1  0
 10 13  1  0
 11 14  2  0
 11 15  1  0
 13 16  2  0
 14 16  1  0
 16 17  1  0
 17 18  1  0
 17 19  1  0
 18 20  2  0
 18 21  1  0
 19 22  2  0
 19 23  1  0
 20 24  1  0
 21 25  2  0
 22 26  1  0
 23 27  2  0
 23 28  1  0
 24 29  2  0
 25 29  1  0
 26 30  2  0
 27 30  1  0
 27 31  1  0
 28 32  2  0
 31 32  1  0
 29 33  1  0
 33 34  1  0
M  END
