NIM-UNI-bb9030bf-11-nitrile
     RDKit          3D

 19 20  0  0  0  0  0  0  0  0999 V2000
    6.9050   -3.2460   19.7520 C   0  0  0  0  0  0  0  0  0  0  0  0
    5.7650   -3.6500   19.3650 N   0  0  0  0  0  0  0  0  0  0  0  0
    7.1000   -2.5360   20.9240 N   0  0  0  0  0  0  0  0  0  0  0  0
    6.9560   -1.0680   21.1680 C   0  0  1  0  0  0  0  0  0  0  0  0
    8.2870   -0.4020   21.5210 C   0  0  0  0  0  0  0  0  0  0  0  0
    6.2990   -0.2530   20.0710 C   0  0  0  0  0  0  0  0  0  0  0  0
    8.5810    0.7330   21.1530 O   0  0  0  0  0  0  0  0  0  0  0  0
    9.1820   -1.2230   22.3540 N   0  0  0  0  0  0  0  0  0  0  0  0
    5.0980    0.4530   20.2550 C   0  0  0  0  0  0  0  0  0  0  0  0
    6.8910   -0.1530   18.7940 C   0  0  0  0  0  0  0  0  0  0  0  0
   10.4620   -0.6730   22.5140 C   0  0  0  0  0  0  0  0  0  0  0  0
    4.5340    1.1990   19.2550 C   0  0  0  0  0  0  0  0  0  0  0  0
    6.4180    0.5630   17.7230 N   0  0  0  0  0  0  0  0  0  0  0  0
   11.0160   -0.5670   23.8990 C   0  0  0  0  0  0  0  0  0  0  0  0
    5.2560    1.2460   17.9160 C   0  0  0  0  0  0  0  0  0  0  0  0
   11.6730   -1.6000   23.0290 C   0  0  0  0  0  0  0  0  0  0  0  0
   11.9860    0.5790   24.0890 C   0  0  0  0  0  0  0  0  0  0  0  0
   12.8720   -1.0240   22.5620 C   0  0  0  0  0  0  0  0  0  0  0  0
   12.8520    0.4830   23.0230 C   0  0  0  0  0  0  0  0  0  0  0  0
  1  2  2  3
  1  3  1  0
  4  3  1  6
  4  5  1  0
  4  6  1  0
  5  7  2  0
  5  8  1  0
  6  9  2  0
  6 10  1  0
  8 11  1  0
  9 12  1  0
 10 13  2  0
 11 14  1  0
 12 15  2  0
 13 15  1  0
 14 16  1  0
 14 17  1  0
 16 18  1  0
 17 19  1  0
 18 19  1  0
M  END
