NIM-UNI-310206f0-49-vinylsulfonamide
     RDKit          3D

 38 42  0  0  0  0  0  0  0  0999 V2000
    7.7890   -3.8800   20.4270 C   0  0  0  0  0  0  0  0  0  0  0  0
    6.2720   -3.8470   20.2450 C   0  0  0  0  0  0  0  0  0  0  0  0
    5.6290   -2.5480   21.2380 S   0  0  0  0  0  0  0  0  0  0  0  0
    4.4510   -3.0860   21.8690 O   0  0  0  0  0  0  0  0  0  0  0  0
    6.7130   -2.0850   22.0470 O   0  0  0  0  0  0  0  0  0  0  0  0
    5.2340   -1.3630   20.0760 N   0  0  0  0  0  0  0  0  0  0  0  0
    6.1250   -1.2500   18.9110 C   0  0  0  0  0  0  0  0  0  0  0  0
    4.6790   -0.0530   20.4660 C   0  0  0  0  0  0  0  0  0  0  0  0
    7.1710   -0.3730   19.2520 C   0  0  0  0  0  0  0  0  0  0  0  0
    5.5980    1.1040   20.0480 C   0  0  0  0  0  0  0  0  0  0  0  0
    6.9520    0.5970   20.2390 N   0  0  0  0  0  0  0  0  0  0  0  0
    7.1710    0.1510   21.5410 C   0  0  0  0  0  0  0  0  0  0  0  0
    8.3250   -0.7290   21.8970 C   0  0  0  0  0  0  0  0  0  0  0  0
    6.3290    0.4670   22.6160 C   0  0  0  0  0  0  0  0  0  0  0  0
    9.2410   -1.1260   21.0430 F   0  0  0  0  0  0  0  0  0  0  0  0
    8.4870   -1.1940   23.1670 C   0  0  0  0  0  0  0  0  0  0  0  0
    6.5170   -0.0190   23.9170 C   0  0  0  0  0  0  0  0  0  0  0  0
    5.2610    1.2700   22.4520 F   0  0  0  0  0  0  0  0  0  0  0  0
    7.6040   -0.8680   24.1840 C   0  0  0  0  0  0  0  0  0  0  0  0
    7.7560   -1.3440   25.4070 N   0  0  0  0  0  0  0  0  0  0  0  0
    8.3260   -2.5880   25.4120 C   0  0  0  0  0  0  0  0  0  0  0  0
    6.5730   -1.0870   26.1880 C   0  0  0  0  0  0  0  0  0  0  0  0
    7.6420   -3.7280   25.4670 O   0  0  0  0  0  0  0  0  0  0  0  0
    9.7170   -2.9130   25.3920 C   0  0  0  0  0  0  0  0  0  0  0  0
    6.3860    0.2560   26.7620 N   0  0  0  0  0  0  0  0  0  0  0  0
    5.6820   -2.1420   26.3500 N   0  0  0  0  0  0  0  0  0  0  0  0
   10.7370   -1.9980   24.7230 C   0  0  0  0  0  0  0  0  0  0  0  0
    5.2370    0.3910   27.4920 C   0  0  0  0  0  0  0  0  0  0  0  0
    4.5590   -1.9790   27.0740 C   0  0  0  0  0  0  0  0  0  0  0  0
   12.0010   -2.6020   24.2910 C   0  0  0  0  0  0  0  0  0  0  0  0
   10.7870   -0.6230   24.3870 C   0  0  0  0  0  0  0  0  0  0  0  0
    4.2660   -0.7620   27.6690 C   0  0  0  0  0  0  0  0  0  0  0  0
   12.7680   -1.6540   23.7180 N   0  0  0  0  0  0  0  0  0  0  0  0
   12.0740   -0.4740   23.7590 C   0  0  0  0  0  0  0  0  0  0  0  0
    9.9460    0.4710   24.5220 C   0  0  0  0  0  0  0  0  0  0  0  0
   12.6030    0.7100   23.2350 C   0  0  0  0  0  0  0  0  0  0  0  0
   10.3890    1.8100   24.0000 C   0  0  0  0  0  0  0  0  0  0  0  0
   11.7600    1.9400   23.3320 C   0  0  0  0  0  0  0  0  0  0  0  0
  1  2  1  0
  3  2  1  0
  3  4  2  0
  3  5  2  0
  3  6  1  0
  6  7  1  0
  6  8  1  0
  7  9  1  0
  8 10  1  0
  9 11  1  0
 10 11  1  0
 11 12  1  0
 12 13  2  0
 12 14  1  0
 13 15  1  0
 13 16  1  0
 14 17  2  0
 14 18  1  0
 16 19  2  0
 17 19  1  0
 19 20  1  0
 20 21  1  0
 20 22  1  0
 21 23  2  0
 21 24  1  0
 22 25  2  0
 22 26  1  0
 24 27  1  0
 25 28  1  0
 26 29  2  0
 27 30  2  0
 27 31  1  0
 28 32  2  0
 29 32  1  0
 30 33  1  0
 31 34  2  0
 33 34  1  0
 31 35  1  0
 34 36  1  0
 35 37  2  0
 36 38  2  0
 37 38  1  0
M  END
