NIM-UNI-310206f0-69-acrylamide
     RDKit          3D

 24 26  0  0  0  0  0  0  0  0999 V2000
    7.3860   -2.8340   18.4840 C   0  0  0  0  0  0  0  0  0  0  0  0
    6.4530   -2.2630   19.5310 C   0  0  0  0  0  0  0  0  0  0  0  0
    5.6190   -3.2980   20.2640 C   0  0  0  0  0  0  0  0  0  0  0  0
    5.1000   -4.2840   19.7270 O   0  0  0  0  0  0  0  0  0  0  0  0
    5.4540   -3.0600   21.6020 N   0  0  0  0  0  0  0  0  0  0  0  0
    5.4060   -1.7030   22.1470 C   0  0  0  0  0  0  0  0  0  0  0  0
    5.5390   -4.1720   22.5660 C   0  0  0  0  0  0  0  0  0  0  0  0
    6.5030   -1.4650   23.1390 C   0  0  0  0  0  0  0  0  0  0  0  0
    6.5740   -3.8570   23.6680 C   0  0  0  0  0  0  0  0  0  0  0  0
    6.3650   -2.4920   24.1840 N   0  0  0  0  0  0  0  0  0  0  0  0
    7.0720   -2.0340   25.6530 S   0  0  0  0  0  0  0  0  0  0  0  0
    6.3350   -0.9250   26.2290 O   0  0  0  0  0  0  0  0  0  0  0  0
    7.4360   -3.2140   26.4050 O   0  0  0  0  0  0  0  0  0  0  0  0
    8.5090   -1.3720   25.0550 C   0  0  0  0  0  0  0  0  0  0  0  0
    9.2080   -0.2140   25.3340 C   0  0  0  0  0  0  0  0  0  0  0  0
    9.2450   -2.3050   23.8520 S   0  0  0  0  0  0  0  0  0  0  0  0
   10.3210   -0.0940   24.5740 C   0  0  0  0  0  0  0  0  0  0  0  0
   10.4540   -1.1520   23.7270 C   0  0  0  0  0  0  0  0  0  0  0  0
   11.4440   -1.2660   22.8720 C   0  0  0  0  0  0  0  0  0  0  0  0
   12.4500   -0.2360   22.9240 C   0  0  0  0  0  0  0  0  0  0  0  0
   11.5670   -2.3100   21.9270 C   0  0  0  0  0  0  0  0  0  0  0  0
   13.5860   -0.1960   22.0700 C   0  0  0  0  0  0  0  0  0  0  0  0
   12.7620   -2.2990   21.0260 C   0  0  0  0  0  0  0  0  0  0  0  0
   13.7130   -1.2200   21.1480 N   0  0  0  0  0  0  0  0  0  0  0  0
  1  2  1  0
  2  3  1  0
  3  4  2  0
  3  5  1  0
  5  6  1  0
  5  7  1  0
  6  8  1  0
  7  9  1  0
  8 10  1  0
  9 10  1  0
 10 11  1  0
 11 12  2  0
 11 13  2  0
 11 14  1  0
 14 15  2  0
 14 16  1  0
 15 17  1  0
 16 18  1  0
 17 18  2  0
 18 19  1  0
 19 20  2  0
 19 21  1  0
 20 22  1  0
 21 23  2  0
 22 24  2  0
 23 24  1  0
M  END
