NIM-UNI-310206f0-71-bromoalkyne
     RDKit          3D

 21 23  0  0  0  0  0  0  0  0999 V2000
    6.4500   -3.9090   19.8670 C   0  0  0  0  0  0  0  0  0  0  0  0
    5.4610   -3.1590   19.0340 C   0  0  0  0  0  0  0  0  0  0  0  0
    6.2020   -4.2580   21.1970 N   0  0  0  0  0  0  0  0  0  0  0  0
    6.2730   -5.6320   21.7510 C   0  0  0  0  0  0  0  0  0  0  0  0
    5.7930   -3.2290   22.1600 C   0  0  0  0  0  0  0  0  0  0  0  0
    6.6620   -5.5710   23.1070 C   0  0  0  0  0  0  0  0  0  0  0  0
    6.7200   -3.0950   23.1990 C   0  0  0  0  0  0  0  0  0  0  0  0
    7.3220   -4.4270   23.5670 N   0  0  0  0  0  0  0  0  0  0  0  0
    8.0760   -4.4820   25.0960 S   0  0  0  0  0  0  0  0  0  0  0  0
    7.3660   -3.6100   26.0140 O   0  0  0  0  0  0  0  0  0  0  0  0
    8.3940   -5.8460   25.4400 O   0  0  0  0  0  0  0  0  0  0  0  0
    9.6150   -3.7130   24.8060 C   0  0  0  0  0  0  0  0  0  0  0  0
   10.8550   -3.8350   25.6240 C   0  0  0  0  0  0  0  0  0  0  0  0
    9.9040   -2.6760   23.4730 S   0  0  0  0  0  0  0  0  0  0  0  0
   11.8620   -3.0960   25.0880 C   0  0  0  0  0  0  0  0  0  0  0  0
   11.5300   -2.4130   23.9370 C   0  0  0  0  0  0  0  0  0  0  0  0
   12.3730   -1.6120   23.2380 C   0  0  0  0  0  0  0  0  0  0  0  0
   12.8410   -1.6750   22.0240 C   0  0  0  0  0  0  0  0  0  0  0  0
   12.9850   -0.4700   23.5790 C   0  0  0  0  0  0  0  0  0  0  0  0
   13.4830   -1.1390   21.3310 N   0  0  0  0  0  0  0  0  0  0  0  0
   13.6690   -0.1750   22.3590 N   0  0  0  0  0  0  0  0  0  0  0  0
  1  2  2  3
  1  3  1  0
  3  4  1  0
  3  5  1  0
  4  6  1  0
  5  7  1  0
  6  8  1  0
  7  8  1  0
  8  9  1  0
  9 10  2  0
  9 11  2  0
  9 12  1  0
 12 13  2  0
 12 14  1  0
 13 15  1  0
 14 16  1  0
 15 16  2  0
 16 17  1  0
 17 18  1  0
 17 19  2  0
 18 20  2  0
 19 21  1  0
 20 21  1  0
M  END
