NIM-UNI-43fe0159-1-nitrile
     RDKit          3D

 15 16  0  0  0  0  0  0  0  0999 V2000
    6.8260   -3.4560   19.4250 C   0  0  0  0  0  0  0  0  0  0  0  0
    6.0340   -3.0360   18.5130 N   0  0  0  0  0  0  0  0  0  0  0  0
    6.4240   -3.5890   20.7310 N   0  0  0  0  0  0  0  0  0  0  0  0
    6.9110   -4.5790   21.6850 C   0  0  0  0  0  0  0  0  0  0  0  0
    6.2290   -2.4540   21.4280 C   0  0  0  0  0  0  0  0  0  0  0  0
    7.7180   -3.7490   22.7450 C   0  0  0  0  0  0  0  0  0  0  0  0
    7.1370   -1.7020   21.7810 O   0  0  0  0  0  0  0  0  0  0  0  0
    8.2410   -2.4000   22.1840 C   0  0  1  0  0  0  0  0  0  0  0  0
    9.4320   -1.6980   22.8680 C   0  0  0  0  0  0  0  0  0  0  0  0
   10.7390   -1.7790   22.1240 C   0  0  0  0  0  0  0  0  0  0  0  0
    9.4090   -0.9920   24.0790 C   0  0  0  0  0  0  0  0  0  0  0  0
   11.8720   -1.1560   22.6360 C   0  0  0  0  0  0  0  0  0  0  0  0
   10.5800   -0.3850   24.5500 C   0  0  0  0  0  0  0  0  0  0  0  0
   11.7840   -0.4700   23.8290 C   0  0  0  0  0  0  0  0  0  0  0  0
   12.8580    0.1250   24.3100 N   0  0  0  0  0  0  0  0  0  0  0  0
  1  2  2  3
  1  3  1  0
  3  4  1  0
  3  5  1  0
  4  6  1  0
  5  7  1  0
  6  8  1  0
  7  8  1  0
  8  9  1  1
  9 10  2  0
  9 11  1  0
 10 12  1  0
 11 13  2  0
 12 14  2  0
 13 14  1  0
 14 15  1  0
M  END
