NIM-UNI-43fe0159-2-bromoalkyne
     RDKit          3D

 16 17  0  0  0  0  0  0  0  0999 V2000
    6.8570   -3.8380   19.8090 C   0  0  0  0  0  0  0  0  0  0  0  0
    6.4020   -3.0530   18.8240 C   0  0  0  0  0  0  0  0  0  0  0  0
    6.2290   -3.7940   21.0320 N   0  0  0  0  0  0  0  0  0  0  0  0
    6.5490   -4.6310   22.1820 C   0  0  0  0  0  0  0  0  0  0  0  0
    6.0100   -2.4920   21.5870 C   0  0  0  0  0  0  0  0  0  0  0  0
    7.6860   -3.8840   22.9180 C   0  0  0  0  0  0  0  0  0  0  0  0
    7.0460   -1.8630   21.7680 O   0  0  0  0  0  0  0  0  0  0  0  0
    8.1400   -2.6060   22.1490 C   0  0  1  0  0  0  0  0  0  0  0  0
    9.3370   -1.8880   22.6910 C   0  0  0  0  0  0  0  0  0  0  0  0
    9.2540   -1.1100   23.8700 C   0  0  0  0  0  0  0  0  0  0  0  0
   10.5510   -1.9720   22.0400 C   0  0  0  0  0  0  0  0  0  0  0  0
   10.3800   -0.4650   24.3370 C   0  0  0  0  0  0  0  0  0  0  0  0
   11.6680   -1.3330   22.5000 C   0  0  0  0  0  0  0  0  0  0  0  0
   11.6050   -0.5830   23.6410 C   0  0  0  0  0  0  0  0  0  0  0  0
   12.7080    0.0370   24.1390 C   0  0  0  0  0  0  0  0  0  0  0  0
   13.0350   -0.6420   25.2410 N   0  0  0  0  0  0  0  0  0  0  0  0
  1  2  2  3
  1  3  1  0
  3  4  1  0
  3  5  1  0
  4  6  1  0
  5  7  1  0
  6  8  1  0
  7  8  1  0
  8  9  1  1
  9 10  2  0
  9 11  1  0
 10 12  1  0
 11 13  2  0
 12 14  2  0
 13 14  1  0
 14 15  1  0
 15 16  1  0
M  END
