NIM-UNI-310206f0-50-chloroacetamide
     RDKit          3D

 36 40  0  0  0  0  0  0  0  0999 V2000
    7.1650   -3.0790   19.0590 C   0  0  0  0  0  0  0  0  0  0  0  0
    6.1310   -3.5210   20.0690 C   0  0  0  0  0  0  0  0  0  0  0  0
    5.2210   -4.2930   19.7900 O   0  0  0  0  0  0  0  0  0  0  0  0
    6.2560   -3.0230   21.3730 N   0  0  0  0  0  0  0  0  0  0  0  0
    6.2600   -1.5650   21.5370 C   0  0  0  0  0  0  0  0  0  0  0  0
    6.5310   -3.8130   22.5790 C   0  0  0  0  0  0  0  0  0  0  0  0
    6.2950   -1.3100   22.9210 C   0  0  0  0  0  0  0  0  0  0  0  0
    7.6450   -3.1830   23.4380 C   0  0  0  0  0  0  0  0  0  0  0  0
    7.4030   -1.7520   23.6250 N   0  0  0  0  0  0  0  0  0  0  0  0
    8.4780   -0.8640   23.6500 C   0  0  0  0  0  0  0  0  0  0  0  0
    9.8560   -1.2410   24.0980 C   0  0  0  0  0  0  0  0  0  0  0  0
    8.3440    0.4750   23.2390 C   0  0  0  0  0  0  0  0  0  0  0  0
   10.2080   -2.4460   24.5070 F   0  0  0  0  0  0  0  0  0  0  0  0
   10.8500   -0.3000   24.0830 C   0  0  0  0  0  0  0  0  0  0  0  0
    9.4040    1.3910   23.2320 C   0  0  0  0  0  0  0  0  0  0  0  0
    7.1650    0.9630   22.8150 F   0  0  0  0  0  0  0  0  0  0  0  0
   10.6800    1.0150   23.6510 C   0  0  0  0  0  0  0  0  0  0  0  0
   11.6700    1.8990   23.6070 N   0  0  0  0  0  0  0  0  0  0  0  0
   12.7600    1.3520   23.0200 C   0  0  0  0  0  0  0  0  0  0  0  0
   11.2580    3.2230   23.3880 C   0  0  0  0  0  0  0  0  0  0  0  0
   13.4470    1.8610   22.1460 O   0  0  0  0  0  0  0  0  0  0  0  0
   13.0600    0.0960   23.4950 N   0  0  0  0  0  0  0  0  0  0  0  0
    9.8840    3.6230   23.9840 C   0  0  0  0  0  0  0  0  0  0  0  0
   12.1420    4.0700   22.6390 C   0  0  0  0  0  0  0  0  0  0  0  0
   12.5060   -0.8410   22.7790 C   0  0  0  0  0  0  0  0  0  0  0  0
    9.8220    5.0770   23.5560 C   0  0  0  0  0  0  0  0  0  0  0  0
   11.8510    5.4030   22.3720 C   0  0  0  0  0  0  0  0  0  0  0  0
   13.3750    3.8920   22.0280 C   0  0  0  0  0  0  0  0  0  0  0  0
   13.3260   -1.9670   22.4300 C   0  0  0  0  0  0  0  0  0  0  0  0
   11.1450   -0.7510   22.3620 C   0  0  0  0  0  0  0  0  0  0  0  0
   10.7620    5.9600   22.7790 C   0  0  0  0  0  0  0  0  0  0  0  0
   12.8650    5.9820   21.6440 N   0  0  0  0  0  0  0  0  0  0  0  0
   13.8040    5.0480   21.4210 C   0  0  0  0  0  0  0  0  0  0  0  0
   12.7370   -3.0030   21.6090 C   0  0  0  0  0  0  0  0  0  0  0  0
   10.5950   -1.9060   21.5280 C   0  0  0  0  0  0  0  0  0  0  0  0
   11.4500   -2.9210   21.2170 N   0  0  0  0  0  0  0  0  0  0  0  0
  1  2  1  0
  2  3  2  0
  2  4  1  0
  4  5  1  0
  4  6  1  0
  5  7  1  0
  6  8  1  0
  7  9  1  0
  8  9  1  0
  9 10  1  0
 10 11  2  0
 10 12  1  0
 11 13  1  0
 11 14  1  0
 12 15  2  0
 12 16  1  0
 14 17  2  0
 15 17  1  0
 17 18  1  0
 18 19  1  0
 18 20  1  0
 19 21  2  0
 19 22  1  0
 20 23  2  0
 20 24  1  0
 22 25  1  0
 23 26  1  0
 24 27  2  0
 24 28  1  0
 25 29  2  0
 25 30  1  0
 26 31  2  0
 27 31  1  0
 27 32  1  0
 28 33  2  0
 32 33  1  0
 29 34  1  0
 30 35  2  0
 34 36  2  0
 35 36  1  0
M  END
