NIM-NMI-8bb27a2b-24-chloroacetamide
     RDKit          3D

 29 30  0  0  0  0  0  0  0  0999 V2000
    8.6420   -3.8250   20.2430 C   0  0  0  0  0  0  0  0  0  0  0  0
    7.6520   -2.7230   20.2280 C   0  0  0  0  0  0  0  0  0  0  0  0
    6.7460   -2.8540   19.2250 O   0  0  0  0  0  0  0  0  0  0  0  0
    7.7860   -1.7690   21.3480 N   0  0  0  0  0  0  0  0  0  0  0  0
    9.1580   -1.2710   21.8920 C   0  0  0  0  0  0  0  0  0  0  0  0
    6.8740   -2.3260   22.3980 C   0  0  2  0  0  0  0  0  0  0  0  0
    9.1930   -0.0110   22.6980 C   0  0  0  0  0  0  0  0  0  0  0  0
   10.4250   -1.8960   21.7090 C   0  0  0  0  0  0  0  0  0  0  0  0
    6.9830   -1.6680   23.7960 C   0  0  0  0  0  0  0  0  0  0  0  0
    6.8760   -3.8540   22.3990 C   0  0  0  0  0  0  0  0  0  0  0  0
   10.5030    0.5260   23.2570 C   0  0  0  0  0  0  0  0  0  0  0  0
   11.6050   -1.3790   22.2290 C   0  0  0  0  0  0  0  0  0  0  0  0
    7.2550   -0.4950   24.0140 O   0  0  0  0  0  0  0  0  0  0  0  0
    6.6980   -2.6250   24.8720 N   0  0  0  0  0  0  0  0  0  0  0  0
    5.6510   -4.5820   21.9410 C   0  0  0  0  0  0  0  0  0  0  0  0
    7.9600   -4.6470   22.7990 C   0  0  0  0  0  0  0  0  0  0  0  0
   11.6120   -0.2050   22.9730 C   0  0  0  0  0  0  0  0  0  0  0  0
    7.5750   -2.8420   25.8850 C   0  0  0  0  0  0  0  0  0  0  0  0
    5.7170   -6.0750   21.9660 C   0  0  0  0  0  0  0  0  0  0  0  0
    7.9900   -6.0070   22.8060 N   0  0  0  0  0  0  0  0  0  0  0  0
   12.6890    0.3310   23.4890 C   0  0  0  0  0  0  0  0  0  0  0  0
    7.7620   -4.2120   26.0890 C   0  0  0  0  0  0  0  0  0  0  0  0
    6.8960   -6.6870   22.4030 C   0  0  0  0  0  0  0  0  0  0  0  0
   13.7420    0.0990   22.6850 F   0  0  0  0  0  0  0  0  0  0  0  0
   12.9430   -0.2060   24.7060 F   0  0  0  0  0  0  0  0  0  0  0  0
   12.5490    1.6740   23.5900 F   0  0  0  0  0  0  0  0  0  0  0  0
    9.0610   -4.4950   26.5410 C   0  0  0  0  0  0  0  0  0  0  0  0
    9.6830   -5.5420   25.8450 C   0  0  0  0  0  0  0  0  0  0  0  0
    9.0950   -4.9740   27.9930 C   0  0  0  0  0  0  0  0  0  0  0  0
  1  2  1  0
  2  3  2  0
  2  4  1  0
  4  5  1  0
  4  6  1  0
  5  7  2  0
  5  8  1  0
  6  9  1  1
  6 10  1  0
  7 11  1  0
  8 12  2  0
  9 13  2  0
  9 14  1  0
 10 15  2  0
 10 16  1  0
 11 17  2  0
 12 17  1  0
 14 18  1  0
 15 19  1  0
 16 20  2  0
 17 21  1  0
 18 22  1  0
 19 23  2  0
 20 23  1  0
 21 24  1  0
 21 25  1  0
 21 26  1  0
 22 27  1  0
 27 28  1  0
 27 29  1  0
M  END
