NIM-UNI-310206f0-48-vinylsulfonamide
     RDKit          3D

 32 35  0  0  0  0  0  0  0  0999 V2000
    7.9240   -3.3870   19.6810 C   0  0  0  0  0  0  0  0  0  0  0  0
    6.9660   -2.5250   18.9280 C   0  0  0  0  0  0  0  0  0  0  0  0
    5.5150   -2.7630   19.8460 S   0  0  0  0  0  0  0  0  0  0  0  0
    5.0470   -4.1240   19.6560 O   0  0  0  0  0  0  0  0  0  0  0  0
    4.7210   -1.5980   19.5600 O   0  0  0  0  0  0  0  0  0  0  0  0
    6.0710   -2.5930   21.4090 N   0  0  0  0  0  0  0  0  0  0  0  0
    6.3450   -1.2700   21.9150 C   0  0  0  0  0  0  0  0  0  0  0  0
    6.5830   -3.7260   22.2050 C   0  0  0  0  0  0  0  0  0  0  0  0
    6.6420   -1.4590   23.2690 C   0  0  0  0  0  0  0  0  0  0  0  0
    7.8260   -3.4500   22.8450 C   0  0  0  0  0  0  0  0  0  0  0  0
    7.7690   -2.1640   23.5930 N   0  0  0  0  0  0  0  0  0  0  0  0
    8.9050   -1.3820   23.4580 C   0  0  0  0  0  0  0  0  0  0  0  0
   10.2630   -1.8280   23.8390 C   0  0  0  0  0  0  0  0  0  0  0  0
    8.8140   -0.0770   22.9330 C   0  0  0  0  0  0  0  0  0  0  0  0
   10.5780   -3.0020   24.3320 F   0  0  0  0  0  0  0  0  0  0  0  0
   11.3080   -1.0120   23.6850 C   0  0  0  0  0  0  0  0  0  0  0  0
    9.8690    0.7950   22.7410 C   0  0  0  0  0  0  0  0  0  0  0  0
    7.6380    0.4460   22.5590 F   0  0  0  0  0  0  0  0  0  0  0  0
   11.2300    0.2530   23.1610 C   0  0  0  0  0  0  0  0  0  0  0  0
   12.2920    0.9590   23.0170 N   0  0  0  0  0  0  0  0  0  0  0  0
   13.3550    0.1420   22.8460 C   0  0  0  0  0  0  0  0  0  0  0  0
   12.2960    2.3550   22.8860 C   0  0  0  0  0  0  0  0  0  0  0  0
   13.2180   -1.0290   22.0190 C   0  0  0  0  0  0  0  0  0  0  0  0
   13.3220    3.2260   22.5350 C   0  0  0  0  0  0  0  0  0  0  0  0
   11.0200    3.0570   23.1620 C   0  0  0  0  0  0  0  0  0  0  0  0
   13.0650   -2.2370   22.6480 C   0  0  0  0  0  0  0  0  0  0  0  0
   11.9110   -1.7300   21.8190 C   0  0  0  0  0  0  0  0  0  0  0  0
   13.1230    4.6880   22.4590 C   0  0  0  0  0  0  0  0  0  0  0  0
   10.8140    4.3960   23.1020 C   0  0  0  0  0  0  0  0  0  0  0  0
   11.8160    5.3200   22.7570 C   0  0  0  0  0  0  0  0  0  0  0  0
   11.5950    6.5180   22.7250 O   0  0  0  0  0  0  0  0  0  0  0  0
   12.2210    7.2370   23.7760 C   0  0  0  0  0  0  0  0  0  0  0  0
  1  2  1  0
  3  2  1  0
  3  4  2  0
  3  5  2  0
  3  6  1  0
  6  7  1  0
  6  8  1  0
  7  9  1  0
  8 10  1  0
  9 11  1  0
 10 11  1  0
 11 12  1  0
 12 13  2  0
 12 14  1  0
 13 15  1  0
 13 16  1  0
 14 17  2  0
 14 18  1  0
 16 19  2  0
 17 19  1  0
 19 20  1  0
 20 21  1  0
 20 22  1  0
 21 23  1  0
 22 24  2  0
 22 25  1  0
 23 26  1  0
 23 27  1  0
 26 27  1  0
 24 28  1  0
 25 29  2  0
 28 30  2  0
 29 30  1  0
 30 31  1  0
 31 32  1  0
M  END
