NIM-UNI-310206f0-64-nitrile
     RDKit          3D

 34 38  0  0  0  0  0  0  0  0999 V2000
    6.8910   -3.7910   20.1190 C   0  0  0  0  0  0  0  0  0  0  0  0
    5.7340   -4.2930   19.8690 N   0  0  0  0  0  0  0  0  0  0  0  0
    7.2090   -3.1260   21.3150 N   0  0  0  0  0  0  0  0  0  0  0  0
    7.4170   -3.8290   22.6030 C   0  0  0  0  0  0  0  0  0  0  0  0
    7.9720   -1.8940   21.2990 C   0  0  0  0  0  0  0  0  0  0  0  0
    8.3940   -3.2760   23.5020 C   0  0  0  0  0  0  0  0  0  0  0  0
    9.3340   -2.2520   21.5090 C   0  0  0  0  0  0  0  0  0  0  0  0
    9.6180   -2.6490   22.8870 N   0  0  0  0  0  0  0  0  0  0  0  0
   10.1780   -1.4270   23.1870 C   0  0  0  0  0  0  0  0  0  0  0  0
   11.6020   -0.8830   22.9220 C   0  0  0  0  0  0  0  0  0  0  0  0
    9.3510   -0.5700   23.7410 C   0  0  0  0  0  0  0  0  0  0  0  0
   12.5790   -1.6230   22.3750 F   0  0  0  0  0  0  0  0  0  0  0  0
   11.8700    0.5930   23.2850 C   0  0  0  0  0  0  0  0  0  0  0  0
    9.5850    0.7200   24.0580 C   0  0  0  0  0  0  0  0  0  0  0  0
    8.1590   -1.0210   23.9880 F   0  0  0  0  0  0  0  0  0  0  0  0
   10.7910    1.3420   23.8330 C   0  0  0  0  0  0  0  0  0  0  0  0
   10.7250    2.6700   24.1900 N   0  0  0  0  0  0  0  0  0  0  0  0
    9.4410    2.9740   24.5620 C   0  0  0  0  0  0  0  0  0  0  0  0
   11.4170    3.6450   23.5260 C   0  0  0  0  0  0  0  0  0  0  0  0
    8.7330    2.2500   25.4290 O   0  0  0  0  0  0  0  0  0  0  0  0
    8.7000    4.0560   24.0710 C   0  0  0  0  0  0  0  0  0  0  0  0
   12.2960    3.3850   22.5110 C   0  0  0  0  0  0  0  0  0  0  0  0
   11.2810    5.0240   23.8490 C   0  0  0  0  0  0  0  0  0  0  0  0
    8.9910    4.7710   22.9290 C   0  0  0  0  0  0  0  0  0  0  0  0
    7.5630    4.6120   24.6090 N   0  0  0  0  0  0  0  0  0  0  0  0
   13.0410    4.4860   21.8100 C   0  0  0  0  0  0  0  0  0  0  0  0
   12.0030    6.0490   23.1770 C   0  0  0  0  0  0  0  0  0  0  0  0
   10.5560    5.7920   24.7430 C   0  0  0  0  0  0  0  0  0  0  0  0
    7.9860    5.8280   22.7540 C   0  0  0  0  0  0  0  0  0  0  0  0
    7.1290    5.6980   23.8000 O   0  0  0  0  0  0  0  0  0  0  0  0
   13.0010    5.9860   22.0440 C   0  0  0  0  0  0  0  0  0  0  0  0
   11.6270    7.2720   23.7680 N   0  0  0  0  0  0  0  0  0  0  0  0
   10.7160    7.0720   24.7460 C   0  0  0  0  0  0  0  0  0  0  0  0
    7.9080    6.8530   21.6540 C   0  0  0  0  0  0  0  0  0  0  0  0
  1  2  2  3
  1  3  1  0
  3  4  1  0
  3  5  1  0
  4  6  1  0
  5  7  1  0
  6  8  1  0
  7  8  1  0
  8  9  1  0
  9 10  2  0
  9 11  1  0
 10 12  1  0
 10 13  1  0
 11 14  2  0
 11 15  1  0
 13 16  2  0
 14 16  1  0
 16 17  1  0
 17 18  1  0
 17 19  1  0
 18 20  2  0
 18 21  1  0
 19 22  2  0
 19 23  1  0
 21 24  1  0
 21 25  2  0
 22 26  1  0
 23 27  2  0
 23 28  1  0
 24 29  2  0
 25 30  1  0
 29 30  1  0
 26 31  2  0
 27 31  1  0
 27 32  1  0
 28 33  2  0
 32 33  1  0
 29 34  1  0
M  END
