NIM-UNI-05f93fcc-15-bromoalkyne
     RDKit          3D

 24 26  0  0  0  0  0  0  0  0999 V2000
    6.5150   -4.2610   20.0770 C   0  0  0  0  0  0  0  0  0  0  0  0
    5.4890   -3.6140   19.5690 C   0  0  0  0  0  0  0  0  0  0  0  0
    6.5710   -4.7130   21.4240 N   0  0  0  0  0  0  0  0  0  0  0  0
    7.3020   -4.0170   22.5120 C   0  0  0  0  0  0  0  0  0  0  0  0
    5.9100   -5.9670   21.8510 C   0  0  0  0  0  0  0  0  0  0  0  0
    6.4980   -3.9890   23.8320 C   0  0  0  0  0  0  0  0  0  0  0  0
    5.0860   -5.7880   23.0050 C   0  0  0  0  0  0  0  0  0  0  0  0
    5.8780   -5.2840   24.1540 N   0  0  0  0  0  0  0  0  0  0  0  0
    5.1640   -5.4670   25.7030 S   0  0  0  0  0  0  0  0  0  0  0  0
    6.1970   -5.3630   26.6920 O   0  0  0  0  0  0  0  0  0  0  0  0
    4.2760   -6.6050   25.6580 O   0  0  0  0  0  0  0  0  0  0  0  0
    4.1120   -4.0650   25.8420 C   0  0  0  0  0  0  0  0  0  0  0  0
    4.4720   -2.6120   25.9730 C   0  0  0  0  0  0  0  0  0  0  0  0
    2.4470   -4.2740   25.8420 S   0  0  0  0  0  0  0  0  0  0  0  0
    3.3290   -1.8230   26.0620 C   0  0  0  0  0  0  0  0  0  0  0  0
    2.1700   -2.5890   26.0070 C   0  0  0  0  0  0  0  0  0  0  0  0
    0.8400   -2.2150   26.0670 C   0  0  0  0  0  0  0  0  0  0  0  0
   -0.0480   -3.2370   25.6090 C   0  0  0  0  0  0  0  0  0  0  0  0
    0.3620   -0.9670   26.5330 C   0  0  0  0  0  0  0  0  0  0  0  0
   -1.4380   -3.0200   25.6110 C   0  0  0  0  0  0  0  0  0  0  0  0
   -1.1530   -0.6940   26.5490 C   0  0  0  0  0  0  0  0  0  0  0  0
   -2.0080   -1.7000   26.0990 C   0  0  0  0  0  0  0  0  0  0  0  0
   -3.2140   -1.4940   26.1070 O   0  0  0  0  0  0  0  0  0  0  0  0
   -3.8910   -1.7670   24.9580 C   0  0  0  0  0  0  0  0  0  0  0  0
  1  2  2  3
  1  3  1  0
  3  4  1  0
  3  5  1  0
  4  6  1  0
  5  7  1  0
  6  8  1  0
  7  8  1  0
  8  9  1  0
  9 10  2  0
  9 11  2  0
  9 12  1  0
 12 13  2  0
 12 14  1  0
 13 15  1  0
 14 16  1  0
 15 16  2  0
 16 17  1  0
 17 18  2  0
 17 19  1  0
 18 20  1  0
 19 21  2  0
 20 22  2  0
 21 22  1  0
 22 23  1  0
 23 24  1  0
M  END
