NIM-NMI-8bb27a2b-18-acrylamide
     RDKit          3D

 31 32  0  0  0  0  0  0  0  0999 V2000
    8.4620   -3.6720   20.2300 C   0  0  0  0  0  0  0  0  0  0  0  0
    7.2910   -2.7960   19.7830 C   0  0  0  0  0  0  0  0  0  0  0  0
    6.4250   -2.6810   21.0350 C   0  0  0  0  0  0  0  0  0  0  0  0
    5.0680   -3.1890   21.0170 O   0  0  0  0  0  0  0  0  0  0  0  0
    7.2840   -2.0960   22.1660 N   0  0  0  0  0  0  0  0  0  0  0  0
    8.2510   -0.8290   22.2100 C   0  0  0  0  0  0  0  0  0  0  0  0
    7.0840   -2.7580   23.4630 C   0  0  1  0  0  0  0  0  0  0  0  0
    9.7170   -0.1480   22.5400 C   0  0  0  0  0  0  0  0  0  0  0  0
    9.3590   -1.3390   22.6560 C   0  0  0  0  0  0  0  0  0  0  0  0
    5.5720   -3.0010   23.6340 C   0  0  0  0  0  0  0  0  0  0  0  0
    7.9140   -3.8730   23.4900 C   0  0  0  0  0  0  0  0  0  0  0  0
   10.3760   -1.4360   22.9690 C   0  0  0  0  0  0  0  0  0  0  0  0
   10.2270   -0.2250   22.7580 C   0  0  0  0  0  0  0  0  0  0  0  0
    4.4690   -2.9080   24.1730 O   0  0  0  0  0  0  0  0  0  0  0  0
    6.1510   -2.2280   24.6390 N   0  0  0  0  0  0  0  0  0  0  0  0
    7.3700   -5.2550   23.0210 C   0  0  0  0  0  0  0  0  0  0  0  0
    9.2390   -3.7520   23.9330 C   0  0  0  0  0  0  0  0  0  0  0  0
   11.4110   -0.5080   23.1870 C   0  0  0  0  0  0  0  0  0  0  0  0
    5.9330   -2.5530   26.0150 C   0  0  0  0  0  0  0  0  0  0  0  0
    8.2160   -6.5370   23.0130 C   0  0  0  0  0  0  0  0  0  0  0  0
    9.9730   -4.8240   23.9380 N   0  0  0  0  0  0  0  0  0  0  0  0
   11.6880    0.8360   23.1010 C   0  0  0  0  0  0  0  0  0  0  0  0
    5.9830   -1.5100   26.9510 C   0  0  0  0  0  0  0  0  0  0  0  0
    9.0290   -5.5750   23.4770 C   0  0  0  0  0  0  0  0  0  0  0  0
   12.9160    1.0840   22.6030 F   0  0  0  0  0  0  0  0  0  0  0  0
   11.6900    1.3960   24.3090 F   0  0  0  0  0  0  0  0  0  0  0  0
   10.7820    1.6090   22.4470 F   0  0  0  0  0  0  0  0  0  0  0  0
    5.5500   -0.3840   26.7270 O   0  0  0  0  0  0  0  0  0  0  0  0
    6.5710   -1.9210   28.1140 O   0  0  0  0  0  0  0  0  0  0  0  0
    6.7420   -1.0130   29.2350 C   0  0  0  0  0  0  0  0  0  0  0  0
    8.2580   -0.7590   29.4180 C   0  0  0  0  0  0  0  0  0  0  0  0
  1  2  1  0
  2  3  1  0
  3  4  2  0
  3  5  1  0
  5  6  1  0
  5  7  1  0
  6  8  2  0
  6  9  1  0
  7 10  1  6
  7 11  1  0
  8 12  1  0
  9 13  2  0
 10 14  2  0
 10 15  1  0
 11 16  2  0
 11 17  1  0
 12 18  2  0
 13 18  1  0
 15 19  1  0
 16 20  1  0
 17 21  2  0
 18 22  1  0
 19 23  1  0
 20 24  2  0
 21 24  1  0
 22 25  1  0
 22 26  1  0
 22 27  1  0
 23 28  2  0
 23 29  1  0
 29 30  1  0
 30 31  1  0
M  END
