NIM-UNI-363644a0-1-chloroacetamide
     RDKit          3D

 30 33  0  0  0  0  0  0  0  0999 V2000
    7.1620   -3.0330   18.9060 C   0  0  0  0  0  0  0  0  0  0  0  0
    6.0970   -3.3600   19.9330 C   0  0  0  0  0  0  0  0  0  0  0  0
    5.3340   -4.3200   19.8120 O   0  0  0  0  0  0  0  0  0  0  0  0
    6.0180   -2.5050   21.0340 N   0  0  0  0  0  0  0  0  0  0  0  0
    5.6940   -3.0580   22.3330 C   0  0  0  0  0  0  0  0  0  0  0  0
    6.8760   -1.3300   21.0330 C   0  0  2  0  0  0  0  0  0  0  0  0
    6.9760   -3.4710   23.0350 C   0  0  0  0  0  0  0  0  0  0  0  0
    7.3660   -1.1880   22.3500 C   0  0  0  0  0  0  0  0  0  0  0  0
    6.2480   -0.2140   20.4600 C   0  0  0  0  0  0  0  0  0  0  0  0
    8.0010   -2.4120   22.8790 N   0  0  0  0  0  0  0  0  0  0  0  0
    6.3850   -0.0220   19.0780 C   0  0  0  0  0  0  0  0  0  0  0  0
    5.4990    0.6930   21.2100 C   0  0  0  0  0  0  0  0  0  0  0  0
    8.8790   -2.1370   23.8900 C   0  0  0  0  0  0  0  0  0  0  0  0
    5.7710    1.0660   18.4770 C   0  0  0  0  0  0  0  0  0  0  0  0
    4.8660    1.7850   20.7020 N   0  0  0  0  0  0  0  0  0  0  0  0
    9.8700   -1.0270   23.7860 C   0  0  0  0  0  0  0  0  0  0  0  0
    4.9830    1.9890   19.3700 C   0  0  0  0  0  0  0  0  0  0  0  0
    9.5770    0.1390   24.4700 C   0  0  0  0  0  0  0  0  0  0  0  0
   11.0910   -1.1260   23.0210 C   0  0  0  0  0  0  0  0  0  0  0  0
   10.5660    1.2960   24.4020 C   0  0  0  0  0  0  0  0  0  0  0  0
   12.0360   -0.0660   22.9690 C   0  0  0  0  0  0  0  0  0  0  0  0
   11.3950   -2.2760   22.2820 C   0  0  0  0  0  0  0  0  0  0  0  0
   11.8060    1.1230   23.6340 C   0  0  0  0  0  0  0  0  0  0  0  0
   13.1880   -0.1960   22.2480 C   0  0  0  0  0  0  0  0  0  0  0  0
   12.5700   -2.3680   21.5400 C   0  0  0  0  0  0  0  0  0  0  0  0
   13.4280   -1.3390   21.5370 C   0  0  0  0  0  0  0  0  0  0  0  0
   13.2210   -3.6560   20.4520 S   0  0  0  0  0  0  0  0  0  0  0  0
   14.1030   -5.0010   20.8140 N   0  0  0  0  0  0  0  0  0  0  0  0
   12.1980   -4.0710   19.5520 O   0  0  0  0  0  0  0  0  0  0  0  0
   14.3880   -3.1150   19.9660 O   0  0  0  0  0  0  0  0  0  0  0  0
  1  2  1  0
  2  3  2  0
  2  4  1  0
  4  5  1  0
  4  6  1  0
  5  7  1  0
  6  8  1  0
  6  9  1  1
  7 10  1  0
  8 10  1  0
  9 11  2  0
  9 12  1  0
 10 13  1  0
 11 14  1  0
 12 15  2  0
 13 16  1  0
 14 17  2  0
 15 17  1  0
 16 18  2  0
 16 19  1  0
 18 20  1  0
 19 21  2  0
 19 22  1  0
 20 23  2  0
 21 23  1  0
 21 24  1  0
 22 25  2  0
 24 26  2  0
 25 26  1  0
 25 27  1  0
 27 28  1  0
 27 29  2  0
 27 30  2  0
M  END
