NIM-NMI-8bb27a2b-5-nitrile
     RDKit          3D

 30 31  0  0  0  0  0  0  0  0999 V2000
    7.3360   -3.0010   19.7050 C   0  0  0  0  0  0  0  0  0  0  0  0
    6.1290   -3.2800   19.2740 N   0  0  0  0  0  0  0  0  0  0  0  0
    7.7060   -1.9330   20.6480 N   0  0  0  0  0  0  0  0  0  0  0  0
    8.9340   -2.0720   21.5450 C   0  0  0  0  0  0  0  0  0  0  0  0
    6.6880   -1.1560   21.0910 C   0  0  2  0  0  0  0  0  0  0  0  0
    9.9890   -1.0520   21.8420 C   0  0  0  0  0  0  0  0  0  0  0  0
    9.3730   -3.1360   22.2530 N   0  0  0  0  0  0  0  0  0  0  0  0
    5.6240   -2.0400   21.8000 C   0  0  0  0  0  0  0  0  0  0  0  0
    6.1920   -0.2760   20.1080 C   0  0  0  0  0  0  0  0  0  0  0  0
   10.9980   -1.6660   22.6630 C   0  0  0  0  0  0  0  0  0  0  0  0
   10.6120   -2.8260   22.8890 O   0  0  0  0  0  0  0  0  0  0  0  0
    5.3980   -3.1810   21.4290 O   0  0  0  0  0  0  0  0  0  0  0  0
    4.9510   -1.5370   22.8140 N   0  0  0  0  0  0  0  0  0  0  0  0
    4.9990    0.6070   20.3120 C   0  0  0  0  0  0  0  0  0  0  0  0
    6.8090   -0.2000   18.8640 C   0  0  0  0  0  0  0  0  0  0  0  0
   12.3060   -1.0670   23.1600 C   0  0  0  0  0  0  0  0  0  0  0  0
    4.7140   -2.3940   23.9520 C   0  0  0  0  0  0  0  0  0  0  0  0
    4.6040    1.4650   19.1500 C   0  0  0  0  0  0  0  0  0  0  0  0
    6.4230    0.5920   17.8300 N   0  0  0  0  0  0  0  0  0  0  0  0
   13.3300   -1.2980   22.3070 C   0  0  0  0  0  0  0  0  0  0  0  0
   12.7810   -1.6330   24.5150 C   0  0  0  0  0  0  0  0  0  0  0  0
   12.2540    0.4590   23.2560 C   0  0  0  0  0  0  0  0  0  0  0  0
    4.0720   -3.7120   23.5070 C   0  0  0  0  0  0  0  0  0  0  0  0
    5.3510    1.3960   17.9740 C   0  0  0  0  0  0  0  0  0  0  0  0
    3.1850   -4.2710   24.1080 O   0  0  0  0  0  0  0  0  0  0  0  0
    4.3960   -4.3140   22.5060 O   0  0  0  0  0  0  0  0  0  0  0  0
    5.3060   -5.4190   22.7010 C   0  0  0  0  0  0  0  0  0  0  0  0
    6.4430   -5.0390   23.4270 C   0  0  0  0  0  0  0  0  0  0  0  0
    4.6160   -6.5770   23.4220 C   0  0  0  0  0  0  0  0  0  0  0  0
    5.7900   -5.9250   21.3440 C   0  0  0  0  0  0  0  0  0  0  0  0
  1  2  2  3
  1  3  1  0
  3  4  1  0
  3  5  1  0
  4  6  1  0
  4  7  2  0
  5  8  1  6
  5  9  1  0
  6 10  2  0
  7 11  1  0
 10 11  1  0
  8 12  2  0
  8 13  1  0
  9 14  2  0
  9 15  1  0
 10 16  1  0
 13 17  1  0
 14 18  1  0
 15 19  2  0
 16 20  1  0
 16 21  1  0
 16 22  1  0
 17 23  1  0
 18 24  2  0
 19 24  1  0
 23 25  2  0
 23 26  1  0
 27 26  1  0
 27 28  1  0
 27 29  1  0
 27 30  1  0
M  END
