NIM-UNI-05f93fcc-7-chloroacetamide
     RDKit          3D

 25 27  0  0  0  0  0  0  0  0999 V2000
    7.3870   -3.4460   19.9130 C   0  0  0  0  0  0  0  0  0  0  0  0
    6.3840   -4.4250   20.5370 C   0  0  0  0  0  0  0  0  0  0  0  0
    5.3310   -4.6320   19.9400 O   0  0  0  0  0  0  0  0  0  0  0  0
    6.6480   -5.1240   21.7270 N   0  0  0  0  0  0  0  0  0  0  0  0
    5.8350   -6.2040   22.1490 C   0  0  0  0  0  0  0  0  0  0  0  0
    7.3210   -4.4340   22.8440 C   0  0  0  0  0  0  0  0  0  0  0  0
    4.9860   -5.9990   23.2270 C   0  0  0  0  0  0  0  0  0  0  0  0
    6.4630   -4.1510   23.9300 C   0  0  0  0  0  0  0  0  0  0  0  0
    5.7690   -5.4010   24.3210 N   0  0  0  0  0  0  0  0  0  0  0  0
    4.9930   -5.3690   25.8330 S   0  0  0  0  0  0  0  0  0  0  0  0
    5.9810   -5.1820   26.8660 O   0  0  0  0  0  0  0  0  0  0  0  0
    4.0730   -6.4900   25.8830 O   0  0  0  0  0  0  0  0  0  0  0  0
    4.0210   -3.8970   25.9050 C   0  0  0  0  0  0  0  0  0  0  0  0
    4.3660   -2.5370   25.9980 C   0  0  0  0  0  0  0  0  0  0  0  0
    2.3150   -4.1450   25.8620 S   0  0  0  0  0  0  0  0  0  0  0  0
    3.1500   -1.6850   26.0380 C   0  0  0  0  0  0  0  0  0  0  0  0
    1.9460   -2.4880   25.9720 C   0  0  0  0  0  0  0  0  0  0  0  0
    0.6270   -1.9030   26.0020 C   0  0  0  0  0  0  0  0  0  0  0  0
   -0.4890   -2.7240   25.3160 C   0  0  0  0  0  0  0  0  0  0  0  0
    0.3300   -0.6340   26.6270 C   0  0  0  0  0  0  0  0  0  0  0  0
   -1.8390   -2.0350   25.3970 C   0  0  0  0  0  0  0  0  0  0  0  0
   -0.9560   -0.0400   26.6720 C   0  0  0  0  0  0  0  0  0  0  0  0
   -3.3480   -2.1100   25.0270 C   0  0  0  0  0  0  0  0  0  0  0  0
   -2.1780   -0.7390   26.0280 C   0  0  0  0  0  0  0  0  0  0  0  0
   -1.1230    1.1940   27.3060 C   0  0  0  0  0  0  0  0  0  0  0  0
  1  2  1  0
  2  3  2  0
  2  4  1  0
  4  5  1  0
  4  6  1  0
  5  7  1  0
  6  8  1  0
  7  9  1  0
  8  9  1  0
  9 10  1  0
 10 11  2  0
 10 12  2  0
 10 13  1  0
 13 14  2  0
 13 15  1  0
 14 16  1  0
 15 17  1  0
 16 17  2  0
 17 18  1  0
 18 19  2  0
 18 20  1  0
 19 21  1  0
 20 22  2  0
 21 23  1  0
 21 24  2  0
 22 24  1  0
 22 25  1  0
M  END
