NIM-UNI-310206f0-11-nitrile
     RDKit          3D

 31 34  0  0  0  0  0  0  0  0999 V2000
    6.5820   -3.5230   19.6480 C   0  0  0  0  0  0  0  0  0  0  0  0
    5.8250   -3.1770   18.6810 N   0  0  0  0  0  0  0  0  0  0  0  0
    6.3620   -3.1640   20.9620 N   0  0  0  0  0  0  0  0  0  0  0  0
    6.3630   -4.0880   22.0370 C   0  0  0  0  0  0  0  0  0  0  0  0
    5.9560   -1.7960   21.3070 C   0  0  0  0  0  0  0  0  0  0  0  0
    6.7940   -3.5990   23.2880 C   0  0  0  0  0  0  0  0  0  0  0  0
    5.5500   -1.6970   22.6330 C   0  0  0  0  0  0  0  0  0  0  0  0
    6.5800   -2.2700   23.4960 N   0  0  0  0  0  0  0  0  0  0  0  0
    7.8370   -1.5250   23.6080 C   0  0  0  0  0  0  0  0  0  0  0  0
    8.9000   -2.2550   24.1000 C   0  0  0  0  0  0  0  0  0  0  0  0
    8.0490   -0.1840   23.2620 C   0  0  0  0  0  0  0  0  0  0  0  0
    8.7200   -3.5160   24.4410 F   0  0  0  0  0  0  0  0  0  0  0  0
   10.1710   -1.7340   24.2570 C   0  0  0  0  0  0  0  0  0  0  0  0
    9.4130    0.4620   23.4050 C   0  0  0  0  0  0  0  0  0  0  0  0
    7.0580    0.5880   22.7800 F   0  0  0  0  0  0  0  0  0  0  0  0
   10.4460   -0.3080   23.8870 C   0  0  0  0  0  0  0  0  0  0  0  0
   11.6790    0.1480   24.0070 N   0  0  0  0  0  0  0  0  0  0  0  0
   12.2290   -0.8680   23.3450 C   0  0  0  0  0  0  0  0  0  0  0  0
   11.7740    1.4420   23.5900 C   0  0  0  0  0  0  0  0  0  0  0  0
   11.6910   -1.0910   22.0260 C   0  0  0  0  0  0  0  0  0  0  0  0
   13.2170   -1.7160   23.8370 C   0  0  0  0  0  0  0  0  0  0  0  0
   12.9140    1.8910   23.0150 N   0  0  0  0  0  0  0  0  0  0  0  0
   10.6760    2.2440   23.7820 N   0  0  0  0  0  0  0  0  0  0  0  0
   12.2620   -2.2420   21.2190 C   0  0  0  0  0  0  0  0  0  0  0  0
   13.7610   -2.8870   22.9890 C   0  0  0  0  0  0  0  0  0  0  0  0
   12.9650    3.1880   22.6230 C   0  0  0  0  0  0  0  0  0  0  0  0
   10.7070    3.5270   23.3910 C   0  0  0  0  0  0  0  0  0  0  0  0
   13.3290   -3.1860   21.6710 C   0  0  0  0  0  0  0  0  0  0  0  0
   11.8060    4.0950   22.8020 C   0  0  0  0  0  0  0  0  0  0  0  0
   13.6700   -4.0990   20.8210 O   0  0  0  0  0  0  0  0  0  0  0  0
   14.8880   -4.9130   20.6850 C   0  0  0  0  0  0  0  0  0  0  0  0
  1  2  2  3
  1  3  1  0
  3  4  1  0
  3  5  1  0
  4  6  1  0
  5  7  1  0
  6  8  1  0
  7  8  1  0
  8  9  1  0
  9 10  2  0
  9 11  1  0
 10 12  1  0
 10 13  1  0
 11 14  2  0
 11 15  1  0
 13 16  2  0
 14 16  1  0
 16 17  1  0
 17 18  1  0
 17 19  1  0
 18 20  2  0
 18 21  1  0
 19 22  2  0
 19 23  1  0
 20 24  1  0
 21 25  2  0
 22 26  1  0
 23 27  2  0
 24 28  2  0
 25 28  1  0
 26 29  2  0
 27 29  1  0
 28 30  1  0
 30 31  1  0
M  END
