NIM-NMI-8bb27a2b-9-vinylsulfonamide
     RDKit          3D

 35 38  0  0  0  0  0  0  0  0999 V2000
    7.1420   -3.2090   19.0190 C   0  0  0  0  0  0  0  0  0  0  0  0
    5.9420   -3.8660   19.7010 C   0  0  0  0  0  0  0  0  0  0  0  0
    6.0960   -3.7500   21.4220 S   0  0  0  0  0  0  0  0  0  0  0  0
    4.7480   -3.3730   21.8230 O   0  0  0  0  0  0  0  0  0  0  0  0
    6.6780   -4.9820   21.9050 O   0  0  0  0  0  0  0  0  0  0  0  0
    7.3060   -2.5710   21.5020 N   0  0  0  0  0  0  0  0  0  0  0  0
    8.4770   -2.8980   22.3840 C   0  0  0  0  0  0  0  0  0  0  0  0
    6.9940   -1.2190   21.5860 C   0  0  1  0  0  0  0  0  0  0  0  0
    9.7220   -2.1450   22.3570 C   0  0  0  0  0  0  0  0  0  0  0  0
    8.7190   -3.8040   23.3330 N   0  0  0  0  0  0  0  0  0  0  0  0
    8.1420   -0.3760   22.0850 C   0  0  0  0  0  0  0  0  0  0  0  0
    6.3820   -0.4580   20.3560 C   0  0  0  0  0  0  0  0  0  0  0  0
   10.5850   -2.6260   23.3070 C   0  0  0  0  0  0  0  0  0  0  0  0
    9.9380   -3.6020   23.8260 O   0  0  0  0  0  0  0  0  0  0  0  0
    8.3930    0.8210   21.3050 O   0  0  0  0  0  0  0  0  0  0  0  0
    8.7940   -0.9010   23.1990 N   0  0  0  0  0  0  0  0  0  0  0  0
    5.1610    0.2400   20.5050 C   0  0  0  0  0  0  0  0  0  0  0  0
    7.0060   -0.4120   19.0910 C   0  0  0  0  0  0  0  0  0  0  0  0
   11.8910   -2.1800   23.6800 C   0  0  0  0  0  0  0  0  0  0  0  0
    9.7260    0.0220   23.2040 C   0  0  0  0  0  0  0  0  0  0  0  0
    4.6150    0.9380   19.4370 C   0  0  0  0  0  0  0  0  0  0  0  0
    6.5210    0.2650   17.9860 N   0  0  0  0  0  0  0  0  0  0  0  0
   12.5240   -3.0040   24.5890 C   0  0  0  0  0  0  0  0  0  0  0  0
   12.8430   -2.1080   22.4830 C   0  0  0  0  0  0  0  0  0  0  0  0
   12.1240   -0.9560   24.3100 C   0  0  0  0  0  0  0  0  0  0  0  0
    9.0790    1.2160   23.7370 C   0  0  0  0  0  0  0  0  0  0  0  0
   11.0280    0.0150   22.7990 C   0  0  0  0  0  0  0  0  0  0  0  0
    5.3660    0.9240   18.1360 C   0  0  0  0  0  0  0  0  0  0  0  0
    9.8410    2.3160   23.7490 C   0  0  0  0  0  0  0  0  0  0  0  0
   11.7100    1.2080   22.8590 C   0  0  0  0  0  0  0  0  0  0  0  0
   11.1050    2.3780   23.3160 C   0  0  0  0  0  0  0  0  0  0  0  0
   13.0890    1.3330   22.4250 C   0  0  0  0  0  0  0  0  0  0  0  0
   11.6980    3.6310   23.3450 C   0  0  0  0  0  0  0  0  0  0  0  0
   13.6690    2.7430   22.4540 C   0  0  0  0  0  0  0  0  0  0  0  0
   12.9580    3.8370   22.9110 C   0  0  0  0  0  0  0  0  0  0  0  0
  1  2  1  0
  2  3  1  0
  3  4  2  0
  3  5  2  0
  3  6  1  0
  6  7  1  0
  6  8  1  0
  7  9  1  0
  7 10  2  0
  8 11  1  6
  8 12  1  0
  9 13  2  0
 10 14  1  0
 13 14  1  0
 11 15  2  0
 11 16  1  0
 12 17  2  0
 12 18  1  0
 13 19  1  0
 16 20  1  0
 17 21  1  0
 18 22  2  0
 19 23  1  0
 19 24  1  0
 19 25  1  0
 20 26  2  0
 20 27  1  0
 21 28  2  0
 22 28  1  0
 26 29  1  0
 27 30  2  0
 29 31  2  0
 30 31  1  0
 30 32  1  0
 31 33  1  0
 32 34  2  0
 33 35  2  0
 34 35  1  0
M  END
