NIM-NMI-8bb27a2b-14-nitrile
     RDKit          3D

 30 32  0  0  0  0  0  0  0  0999 V2000
    6.3200   -3.8920   19.6350 C   0  0  0  0  0  0  0  0  0  0  0  0
    5.0660   -3.9850   19.5690 N   0  0  0  0  0  0  0  0  0  0  0  0
    6.9770   -2.6730   19.5770 N   0  0  0  0  0  0  0  0  0  0  0  0
    7.5360   -2.2030   18.3450 C   0  0  0  0  0  0  0  0  0  0  0  0
    6.9210   -1.7260   20.6790 C   0  0  1  0  0  0  0  0  0  0  0  0
    7.3820   -0.8100   17.8950 C   0  0  0  0  0  0  0  0  0  0  0  0
    8.2330   -2.8900   17.4820 N   0  0  0  0  0  0  0  0  0  0  0  0
    8.2790   -1.6500   21.2750 C   0  0  0  0  0  0  0  0  0  0  0  0
    6.5490   -0.2320   20.4230 C   0  0  0  0  0  0  0  0  0  0  0  0
    8.1200   -0.9510   16.6600 C   0  0  0  0  0  0  0  0  0  0  0  0
    8.5950   -2.2400   16.4810 O   0  0  0  0  0  0  0  0  0  0  0  0
    9.0600   -2.8500   21.1730 O   0  0  0  0  0  0  0  0  0  0  0  0
    8.7020   -0.5680   21.9140 N   0  0  0  0  0  0  0  0  0  0  0  0
    7.4780    0.7870   20.5920 C   0  0  0  0  0  0  0  0  0  0  0  0
    5.2680    0.1370   20.0560 C   0  0  0  0  0  0  0  0  0  0  0  0
    8.3350   -0.0500   15.7210 C   0  0  0  0  0  0  0  0  0  0  0  0
    9.2120   -0.9000   23.0560 C   0  0  0  0  0  0  0  0  0  0  0  0
    7.0630    2.0790   20.4140 C   0  0  0  0  0  0  0  0  0  0  0  0
    4.8430    1.4070   19.8570 N   0  0  0  0  0  0  0  0  0  0  0  0
    9.3760    0.1430   14.7950 C   0  0  0  0  0  0  0  0  0  0  0  0
    7.7230    1.2510   16.1140 C   0  0  0  0  0  0  0  0  0  0  0  0
    7.4210   -0.4610   15.0320 C   0  0  0  0  0  0  0  0  0  0  0  0
   10.5310   -0.5090   22.9790 C   0  0  0  0  0  0  0  0  0  0  0  0
    5.7470    2.3520   20.0490 C   0  0  0  0  0  0  0  0  0  0  0  0
   11.7330   -1.3940   22.9260 C   0  0  0  0  0  0  0  0  0  0  0  0
   10.6350    0.8650   22.9550 C   0  0  0  0  0  0  0  0  0  0  0  0
   12.9250   -0.7300   22.8610 C   0  0  0  0  0  0  0  0  0  0  0  0
   11.9010    1.4740   22.8840 C   0  0  0  0  0  0  0  0  0  0  0  0
   13.0130    0.6390   22.8450 C   0  0  0  0  0  0  0  0  0  0  0  0
   11.9430    3.1950   22.8470 Cl  0  0  0  0  0  0  0  0  0  0  0  0
  1  2  2  3
  1  3  1  0
  3  4  1  0
  3  5  1  0
  4  6  1  0
  4  7  2  0
  5  8  1  6
  5  9  1  0
  6 10  2  0
  7 11  1  0
 10 11  1  0
  8 12  2  0
  8 13  1  0
  9 14  2  0
  9 15  1  0
 10 16  1  0
 13 17  1  0
 14 18  1  0
 15 19  2  0
 16 20  1  0
 16 21  1  0
 16 22  1  0
 17 23  1  0
 18 24  2  0
 19 24  1  0
 23 25  2  0
 23 26  1  0
 25 27  1  0
 26 28  2  0
 27 29  2  0
 28 29  1  0
 28 30  1  0
M  END
