NIM-NMI-8bb27a2b-19-nitrile
     RDKit          3D

 28 29  0  0  0  0  0  0  0  0999 V2000
    7.5370   -3.2920   19.9450 C   0  0  0  0  0  0  0  0  0  0  0  0
    6.2690   -3.6210   19.6580 N   0  0  0  0  0  0  0  0  0  0  0  0
    7.9770   -2.1470   20.9060 N   0  0  0  0  0  0  0  0  0  0  0  0
    9.3000   -1.6220   21.6270 C   0  0  0  0  0  0  0  0  0  0  0  0
    7.0790   -1.1880   21.2650 C   0  0  2  0  0  0  0  0  0  0  0  0
   10.6980   -2.1980   21.5150 C   0  0  0  0  0  0  0  0  0  0  0  0
    9.2670   -0.4530   22.4990 C   0  0  0  0  0  0  0  0  0  0  0  0
    6.2660   -1.5330   22.5370 C   0  0  0  0  0  0  0  0  0  0  0  0
    6.4010   -0.5100   20.2370 C   0  0  0  0  0  0  0  0  0  0  0  0
   11.8440   -1.6030   22.2090 C   0  0  0  0  0  0  0  0  0  0  0  0
   10.3520    0.1210   23.1660 C   0  0  0  0  0  0  0  0  0  0  0  0
    5.5800   -2.5570   22.5750 O   0  0  0  0  0  0  0  0  0  0  0  0
    6.2900   -0.7240   23.6280 N   0  0  0  0  0  0  0  0  0  0  0  0
    5.1550    0.0330   20.6140 C   0  0  0  0  0  0  0  0  0  0  0  0
    6.9170   -0.3830   18.9820 C   0  0  0  0  0  0  0  0  0  0  0  0
   11.6300   -0.3870   23.0610 C   0  0  0  0  0  0  0  0  0  0  0  0
    5.8540   -1.2520   24.8030 C   0  0  0  0  0  0  0  0  0  0  0  0
    4.4220    0.8120   19.4340 C   0  0  0  0  0  0  0  0  0  0  0  0
    6.3500    0.2500   17.9890 N   0  0  0  0  0  0  0  0  0  0  0  0
   12.6220    0.1910   23.6890 C   0  0  0  0  0  0  0  0  0  0  0  0
    6.5690   -0.9140   26.1160 C   0  0  0  0  0  0  0  0  0  0  0  0
    5.1600    0.8700   18.0600 C   0  0  0  0  0  0  0  0  0  0  0  0
   12.9170   -0.4360   24.8580 F   0  0  0  0  0  0  0  0  0  0  0  0
   13.7090    0.1970   22.9010 F   0  0  0  0  0  0  0  0  0  0  0  0
   12.3060    1.4830   23.9290 F   0  0  0  0  0  0  0  0  0  0  0  0
    6.3400   -1.6850   27.0490 O   0  0  0  0  0  0  0  0  0  0  0  0
    7.3180    0.0080   26.3400 O   0  0  0  0  0  0  0  0  0  0  0  0
    8.7160   -0.0380   25.9330 C   0  0  0  0  0  0  0  0  0  0  0  0
  1  2  2  3
  1  3  1  0
  3  4  1  0
  3  5  1  0
  4  6  2  0
  4  7  1  0
  5  8  1  1
  5  9  1  0
  6 10  1  0
  7 11  2  0
  8 12  2  0
  8 13  1  0
  9 14  2  0
  9 15  1  0
 10 16  2  0
 11 16  1  0
 13 17  1  0
 14 18  1  0
 15 19  2  0
 16 20  1  0
 17 21  1  0
 18 22  2  0
 19 22  1  0
 20 23  1  0
 20 24  1  0
 20 25  1  0
 21 26  2  0
 21 27  1  0
 27 28  1  0
M  END
