NIM-NMI-8bb27a2b-28-acrylamide
     RDKit          3D

 33 35  0  0  0  0  0  0  0  0999 V2000
    6.1970   -3.0150   20.7520 C   0  0  0  0  0  0  0  0  0  0  0  0
    5.5710   -2.5060   22.0460 C   0  0  0  0  0  0  0  0  0  0  0  0
    5.0480   -3.6240   22.9290 C   0  0  0  0  0  0  0  0  0  0  0  0
    4.1150   -4.3300   22.6110 O   0  0  0  0  0  0  0  0  0  0  0  0
    5.6870   -3.8250   24.1320 N   0  0  0  0  0  0  0  0  0  0  0  0
    6.3540   -2.6180   24.6780 C   0  0  0  0  0  0  0  0  0  0  0  0
    6.2350   -5.1790   24.3660 C   0  0  2  0  0  0  0  0  0  0  0  0
    7.6760   -2.1970   23.9850 C   0  0  0  0  0  0  0  0  0  0  0  0
    5.8440   -1.8730   25.7420 C   0  0  0  0  0  0  0  0  0  0  0  0
    6.1160   -6.0590   23.0650 C   0  0  0  0  0  0  0  0  0  0  0  0
    5.7040   -5.7670   25.6650 C   0  0  0  0  0  0  0  0  0  0  0  0
    8.4630   -1.0930   24.3030 C   0  0  0  0  0  0  0  0  0  0  0  0
    6.9880   -1.2320   25.3680 C   0  0  0  0  0  0  0  0  0  0  0  0
    5.1470   -6.2750   22.3440 O   0  0  0  0  0  0  0  0  0  0  0  0
    7.4480   -6.5420   22.9500 N   0  0  0  0  0  0  0  0  0  0  0  0
    4.4990   -6.4660   25.8210 C   0  0  0  0  0  0  0  0  0  0  0  0
    6.4740   -5.6120   26.8220 C   0  0  0  0  0  0  0  0  0  0  0  0
    8.0100   -0.3050   25.3400 C   0  0  0  0  0  0  0  0  0  0  0  0
    8.2120   -6.9530   21.7530 C   0  0  0  0  0  0  0  0  0  0  0  0
    4.1310   -6.9590   27.0730 C   0  0  0  0  0  0  0  0  0  0  0  0
    6.1460   -6.0750   28.0490 N   0  0  0  0  0  0  0  0  0  0  0  0
    9.1800    0.2380   24.8550 C   0  0  0  0  0  0  0  0  0  0  0  0
    9.5420   -6.3710   21.1780 C   0  0  0  0  0  0  0  0  0  0  0  0
    4.9790   -6.7410   28.1490 C   0  0  0  0  0  0  0  0  0  0  0  0
   10.2970   -0.2720   25.4370 F   0  0  0  0  0  0  0  0  0  0  0  0
    9.3440    0.0350   23.5180 F   0  0  0  0  0  0  0  0  0  0  0  0
    9.2500    1.5860   24.9930 F   0  0  0  0  0  0  0  0  0  0  0  0
   10.4350   -7.1870   21.6280 C   0  0  0  0  0  0  0  0  0  0  0  0
   10.0280   -5.2230   20.3100 C   0  0  0  0  0  0  0  0  0  0  0  0
   11.8080   -6.7370   21.2180 C   0  0  0  0  0  0  0  0  0  0  0  0
   11.1880   -4.8100   20.0090 C   0  0  0  0  0  0  0  0  0  0  0  0
   12.1200   -5.4540   20.4490 C   0  0  0  0  0  0  0  0  0  0  0  0
   13.7100   -4.8500   20.1860 Cl  0  0  0  0  0  0  0  0  0  0  0  0
  1  2  1  0
  2  3  1  0
  3  4  2  0
  3  5  1  0
  5  6  1  0
  5  7  1  0
  6  8  2  0
  6  9  1  0
  7 10  1  6
  7 11  1  0
  8 12  1  0
  9 13  2  0
 10 14  2  0
 10 15  1  0
 11 16  2  0
 11 17  1  0
 12 18  2  0
 13 18  1  0
 15 19  1  0
 16 20  1  0
 17 21  2  0
 18 22  1  0
 19 23  1  0
 20 24  2  0
 21 24  1  0
 22 25  1  0
 22 26  1  0
 22 27  1  0
 23 28  2  0
 23 29  1  0
 28 30  1  0
 29 31  2  0
 30 32  2  0
 31 32  1  0
 32 33  1  0
M  END
