NIM-UNI-363644a0-2-chloroacetamide
     RDKit          3D

 42 46  0  0  0  0  0  0  0  0999 V2000
    7.3000   -3.0500   18.9860 C   0  0  0  0  0  0  0  0  0  0  0  0
    6.1940   -3.3300   19.9790 C   0  0  0  0  0  0  0  0  0  0  0  0
    5.3700   -4.2340   19.8020 O   0  0  0  0  0  0  0  0  0  0  0  0
    6.1620   -2.5030   21.1090 N   0  0  0  0  0  0  0  0  0  0  0  0
    5.6920   -2.9900   22.3830 C   0  0  0  0  0  0  0  0  0  0  0  0
    6.8970   -1.2530   21.0770 C   0  0  2  0  0  0  0  0  0  0  0  0
    6.8590   -3.2020   23.3200 C   0  0  0  0  0  0  0  0  0  0  0  0
    7.3270   -0.9160   22.4060 C   0  0  0  0  0  0  0  0  0  0  0  0
    6.2350   -0.2920   20.2210 C   0  0  0  0  0  0  0  0  0  0  0  0
    7.7470   -2.0200   23.3450 N   0  0  0  0  0  0  0  0  0  0  0  0
    6.8200   -0.1890   18.9650 C   0  0  0  0  0  0  0  0  0  0  0  0
    5.0960    0.5370   20.4320 C   0  0  0  0  0  0  0  0  0  0  0  0
    9.0960   -2.2080   23.4750 C   0  0  0  0  0  0  0  0  0  0  0  0
    6.4280    0.5980   17.9400 N   0  0  0  0  0  0  0  0  0  0  0  0
    4.7130    1.3520   19.3340 C   0  0  0  0  0  0  0  0  0  0  0  0
    4.2860    0.6460   21.5940 C   0  0  0  0  0  0  0  0  0  0  0  0
   10.0400   -1.0740   23.5560 C   0  0  0  0  0  0  0  0  0  0  0  0
    5.3570    1.3940   18.0970 C   0  0  0  0  0  0  0  0  0  0  0  0
    4.3180    1.8130   22.3780 C   0  0  0  0  0  0  0  0  0  0  0  0
    9.7630    0.0670   24.2840 C   0  0  0  0  0  0  0  0  0  0  0  0
   11.2520   -1.1890   22.8510 C   0  0  0  0  0  0  0  0  0  0  0  0
    3.2140    2.3570   22.9980 N   0  0  0  0  0  0  0  0  0  0  0  0
   10.8120    1.1870   24.2830 C   0  0  0  0  0  0  0  0  0  0  0  0
   12.2280   -0.1810   22.8370 C   0  0  0  0  0  0  0  0  0  0  0  0
   11.5060   -2.3460   22.1300 C   0  0  0  0  0  0  0  0  0  0  0  0
    2.3210    1.6310   23.7490 C   0  0  0  0  0  0  0  0  0  0  0  0
   12.0460    0.9910   23.5270 C   0  0  0  0  0  0  0  0  0  0  0  0
   13.3510   -0.3500   22.1300 C   0  0  0  0  0  0  0  0  0  0  0  0
   12.6680   -2.4980   21.4440 C   0  0  0  0  0  0  0  0  0  0  0  0
    2.3510    0.4130   23.8580 O   0  0  0  0  0  0  0  0  0  0  0  0
    1.3600    2.4250   24.3750 N   0  0  0  0  0  0  0  0  0  0  0  0
   13.5400   -1.4940   21.4350 C   0  0  0  0  0  0  0  0  0  0  0  0
   13.3170   -3.8580   20.4650 S   0  0  0  0  0  0  0  0  0  0  0  0
    1.6730    3.5240   25.2820 C   0  0  0  0  0  0  0  0  0  0  0  0
   12.0380   -4.2220   19.5180 N   0  0  0  0  0  0  0  0  0  0  0  0
   13.6930   -5.1200   20.9000 O   0  0  0  0  0  0  0  0  0  0  0  0
   14.4490   -3.3450   19.8680 O   0  0  0  0  0  0  0  0  0  0  0  0
    1.5510    4.7700   24.4580 C   0  0  0  0  0  0  0  0  0  0  0  0
    0.7420    3.5210   26.3370 C   0  0  0  0  0  0  0  0  0  0  0  0
    0.0840    5.0320   24.1220 C   0  0  0  0  0  0  0  0  0  0  0  0
   -0.5920    3.7920   26.0290 C   0  0  0  0  0  0  0  0  0  0  0  0
   -0.8680    4.1890   24.7280 C   0  0  0  0  0  0  0  0  0  0  0  0
  1  2  1  0
  2  3  2  0
  2  4  1  0
  4  5  1  0
  4  6  1  0
  5  7  1  0
  6  8  1  0
  6  9  1  1
  7 10  1  0
  8 10  1  0
  9 11  2  0
  9 12  1  0
 10 13  1  0
 11 14  1  0
 12 15  2  0
 12 16  1  0
 13 17  1  0
 14 18  2  0
 15 18  1  0
 16 19  1  0
 17 20  2  0
 17 21  1  0
 19 22  1  0
 20 23  1  0
 21 24  2  0
 21 25  1  0
 22 26  1  0
 23 27  2  0
 24 27  1  0
 24 28  1  0
 25 29  2  0
 26 30  2  0
 26 31  1  0
 28 32  2  0
 29 32  1  0
 29 33  1  0
 31 34  1  0
 33 35  1  0
 33 36  2  0
 33 37  2  0
 34 38  1  0
 34 39  1  0
 38 40  1  0
 39 41  1  0
 40 42  1  0
 41 42  1  0
M  END
