NIM-UNI-310206f0-70-vinylsulfonamide
     RDKit          3D

 27 29  0  0  0  0  0  0  0  0999 V2000
    7.8570   -3.3780   19.5880 C   0  0  0  0  0  0  0  0  0  0  0  0
    6.9390   -2.4640   18.8420 C   0  0  0  0  0  0  0  0  0  0  0  0
    5.5170   -2.6020   19.8160 S   0  0  0  0  0  0  0  0  0  0  0  0
    5.0380   -3.9680   19.6950 O   0  0  0  0  0  0  0  0  0  0  0  0
    4.7290   -1.4300   19.5320 O   0  0  0  0  0  0  0  0  0  0  0  0
    6.1700   -2.3940   21.3350 N   0  0  0  0  0  0  0  0  0  0  0  0
    6.1460   -3.4460   22.3610 C   0  0  0  0  0  0  0  0  0  0  0  0
    7.0250   -1.2280   21.4670 C   0  0  0  0  0  0  0  0  0  0  0  0
    7.4250   -3.6670   22.9280 C   0  0  0  0  0  0  0  0  0  0  0  0
    8.3940   -1.5420   22.0520 C   0  0  0  0  0  0  0  0  0  0  0  0
    8.5370   -2.8460   22.7180 N   0  0  0  0  0  0  0  0  0  0  0  0
    9.4690   -2.6830   24.1170 S   0  0  0  0  0  0  0  0  0  0  0  0
   10.0310   -3.9760   24.4170 O   0  0  0  0  0  0  0  0  0  0  0  0
    8.6140   -1.9640   25.0300 O   0  0  0  0  0  0  0  0  0  0  0  0
   10.8020   -1.5800   23.7920 C   0  0  0  0  0  0  0  0  0  0  0  0
   12.2320   -1.5560   24.1400 C   0  0  0  0  0  0  0  0  0  0  0  0
   10.4880   -0.1850   22.8860 S   0  0  0  0  0  0  0  0  0  0  0  0
   12.8870   -0.4790   23.6610 C   0  0  0  0  0  0  0  0  0  0  0  0
   12.0930    0.3830   22.9820 C   0  0  0  0  0  0  0  0  0  0  0  0
   12.3380    1.5430   22.4210 O   0  0  0  0  0  0  0  0  0  0  0  0
   11.3280    2.5490   22.6400 C   0  0  0  0  0  0  0  0  0  0  0  0
   11.8480    3.8160   22.4190 C   0  0  0  0  0  0  0  0  0  0  0  0
   11.0730    4.8920   23.1260 C   0  0  0  0  0  0  0  0  0  0  0  0
   13.2140    4.1460   22.6670 C   0  0  0  0  0  0  0  0  0  0  0  0
   11.5200    6.2570   22.7200 C   0  0  0  0  0  0  0  0  0  0  0  0
   13.5630    5.4090   21.9130 C   0  0  0  0  0  0  0  0  0  0  0  0
   12.4030    6.1560   21.6080 O   0  0  0  0  0  0  0  0  0  0  0  0
  1  2  1  0
  3  2  1  0
  3  4  2  0
  3  5  2  0
  3  6  1  0
  6  7  1  0
  6  8  1  0
  7  9  1  0
  8 10  1  0
  9 11  1  0
 10 11  1  0
 11 12  1  0
 12 13  2  0
 12 14  2  0
 12 15  1  0
 15 16  2  0
 15 17  1  0
 16 18  1  0
 17 19  1  0
 18 19  2  0
 19 20  1  0
 20 21  1  0
 21 22  1  0
 22 23  1  0
 22 24  1  0
 23 25  1  0
 24 26  1  0
 25 27  1  0
 26 27  1  0
M  END
