NIM-UNI-310206f0-24-acrylamide
     RDKit          3D

 35 38  0  0  0  0  0  0  0  0999 V2000
    7.6630   -3.8720   20.3800 C   0  0  0  0  0  0  0  0  0  0  0  0
    6.3110   -3.2300   20.1670 C   0  0  0  0  0  0  0  0  0  0  0  0
    5.3650   -4.0390   21.0100 C   0  0  0  0  0  0  0  0  0  0  0  0
    5.1780   -4.6420   19.9540 O   0  0  0  0  0  0  0  0  0  0  0  0
    5.8000   -3.1700   21.9820 N   0  0  0  0  0  0  0  0  0  0  0  0
    7.2230   -3.0030   22.2880 C   0  0  0  0  0  0  0  0  0  0  0  0
    4.9590   -2.9680   23.1840 C   0  0  0  0  0  0  0  0  0  0  0  0
    7.3240   -3.6790   23.6760 C   0  0  0  0  0  0  0  0  0  0  0  0
    5.6040   -2.1570   24.3380 C   0  0  0  0  0  0  0  0  0  0  0  0
    7.0000   -2.5750   24.5970 N   0  0  0  0  0  0  0  0  0  0  0  0
    7.8550   -1.4800   24.4920 C   0  0  0  0  0  0  0  0  0  0  0  0
    9.1840   -1.7240   23.7200 C   0  0  0  0  0  0  0  0  0  0  0  0
    7.5660   -0.2030   25.0310 C   0  0  0  0  0  0  0  0  0  0  0  0
    9.5930   -2.8710   23.1670 F   0  0  0  0  0  0  0  0  0  0  0  0
   10.0180   -0.4400   23.6480 C   0  0  0  0  0  0  0  0  0  0  0  0
    8.4910    1.0180   24.8950 C   0  0  0  0  0  0  0  0  0  0  0  0
    6.4220    0.0080   25.7060 F   0  0  0  0  0  0  0  0  0  0  0  0
    9.6970    0.9440   24.2190 C   0  0  0  0  0  0  0  0  0  0  0  0
   10.5940    2.0810   24.0500 N   0  0  0  0  0  0  0  0  0  0  0  0
   11.8200    1.8260   23.2850 C   0  0  0  0  0  0  0  0  0  0  0  0
    9.9590    3.3560   23.8330 C   0  0  0  0  0  0  0  0  0  0  0  0
   12.7860    2.5600   23.1740 O   0  0  0  0  0  0  0  0  0  0  0  0
   11.8560    0.6730   22.5450 C   0  0  0  0  0  0  0  0  0  0  0  0
    8.6100    3.5050   24.1170 N   0  0  0  0  0  0  0  0  0  0  0  0
   10.7500    4.3690   23.3410 N   0  0  0  0  0  0  0  0  0  0  0  0
   12.4310   -0.5780   23.0040 C   0  0  0  0  0  0  0  0  0  0  0  0
    8.0080    4.7040   23.9080 C   0  0  0  0  0  0  0  0  0  0  0  0
   10.1820    5.5680   23.1230 C   0  0  0  0  0  0  0  0  0  0  0  0
   12.8300   -1.6120   22.0550 C   0  0  0  0  0  0  0  0  0  0  0  0
   12.5820   -0.7390   24.3350 C   0  0  0  0  0  0  0  0  0  0  0  0
    8.7290    5.8040   23.4050 C   0  0  0  0  0  0  0  0  0  0  0  0
   13.4100   -2.8350   22.6720 C   0  0  0  0  0  0  0  0  0  0  0  0
   13.1480   -1.8960   25.0520 C   0  0  0  0  0  0  0  0  0  0  0  0
   12.1830    0.2350   25.0440 F   0  0  0  0  0  0  0  0  0  0  0  0
   13.5760   -2.9850   24.1760 C   0  0  0  0  0  0  0  0  0  0  0  0
  1  2  1  0
  2  3  1  0
  3  4  2  0
  3  5  1  0
  5  6  1  0
  5  7  1  0
  6  8  1  0
  7  9  1  0
  8 10  1  0
  9 10  1  0
 10 11  1  0
 11 12  2  0
 11 13  1  0
 12 14  1  0
 12 15  1  0
 13 16  2  0
 13 17  1  0
 15 18  2  0
 16 18  1  0
 18 19  1  0
 19 20  1  0
 19 21  1  0
 20 22  2  0
 20 23  1  0
 21 24  2  0
 21 25  1  0
 23 26  1  0
 24 27  1  0
 25 28  2  0
 26 29  2  0
 26 30  1  0
 27 31  2  0
 28 31  1  0
 29 32  1  0
 30 33  2  0
 30 34  1  0
 32 35  2  0
 33 35  1  0
M  END
