NIM-UNI-310206f0-38-nitrile
     RDKit          3D

 31 34  0  0  0  0  0  0  0  0999 V2000
    6.5360   -3.6250   20.0220 C   0  0  0  0  0  0  0  0  0  0  0  0
    6.2210   -3.2070   18.8510 N   0  0  0  0  0  0  0  0  0  0  0  0
    6.0350   -3.0060   21.1520 N   0  0  0  0  0  0  0  0  0  0  0  0
    5.3850   -3.6420   22.3270 C   0  0  0  0  0  0  0  0  0  0  0  0
    5.7760   -1.5570   21.1120 C   0  0  0  0  0  0  0  0  0  0  0  0
    6.2150   -3.0820   23.5440 C   0  0  0  0  0  0  0  0  0  0  0  0
    5.2450   -1.0760   22.4730 C   0  0  0  0  0  0  0  0  0  0  0  0
    6.0730   -1.5930   23.5890 N   0  0  0  0  0  0  0  0  0  0  0  0
    7.2420   -0.9250   23.7620 C   0  0  0  0  0  0  0  0  0  0  0  0
    8.5050   -1.7090   24.2440 C   0  0  0  0  0  0  0  0  0  0  0  0
    7.3450    0.4560   23.5100 C   0  0  0  0  0  0  0  0  0  0  0  0
    8.4590   -3.0180   24.5070 F   0  0  0  0  0  0  0  0  0  0  0  0
    9.8510   -0.9370   24.4130 C   0  0  0  0  0  0  0  0  0  0  0  0
    8.6380    1.2070   23.6700 C   0  0  0  0  0  0  0  0  0  0  0  0
    6.2860    1.1750   23.1050 F   0  0  0  0  0  0  0  0  0  0  0  0
    9.8100    0.5850   24.0750 C   0  0  0  0  0  0  0  0  0  0  0  0
   11.0660    1.2940   24.1980 N   0  0  0  0  0  0  0  0  0  0  0  0
   11.1130    2.5140   23.3900 C   0  0  0  0  0  0  0  0  0  0  0  0
   12.2030    0.4330   24.2210 C   0  0  0  0  0  0  0  0  0  0  0  0
   12.5040    3.0360   22.9260 C   0  0  0  0  0  0  0  0  0  0  0  0
   12.6970   -0.1250   25.1960 O   0  0  0  0  0  0  0  0  0  0  0  0
   12.8310    0.0850   22.9460 C   0  0  0  0  0  0  0  0  0  0  0  0
   12.8090    4.4140   22.9480 C   0  0  0  0  0  0  0  0  0  0  0  0
   12.6310    4.1970   21.6990 C   0  0  0  0  0  0  0  0  0  0  0  0
   11.8120   -0.8390   22.3700 C   0  0  0  0  0  0  0  0  0  0  0  0
   10.4170   -0.2100   22.3620 C   0  0  0  0  0  0  0  0  0  0  0  0
   12.0540   -2.1070   21.9040 C   0  0  0  0  0  0  0  0  0  0  0  0
    9.2250   -0.9910   21.8450 C   0  0  0  0  0  0  0  0  0  0  0  0
   10.8730   -2.8680   21.3900 C   0  0  0  0  0  0  0  0  0  0  0  0
   13.2620   -2.6770   21.8910 F   0  0  0  0  0  0  0  0  0  0  0  0
    9.4610   -2.2670   21.3910 C   0  0  0  0  0  0  0  0  0  0  0  0
  1  2  2  3
  1  3  1  0
  3  4  1  0
  3  5  1  0
  4  6  1  0
  5  7  1  0
  6  8  1  0
  7  8  1  0
  8  9  1  0
  9 10  2  0
  9 11  1  0
 10 12  1  0
 10 13  1  0
 11 14  2  0
 11 15  1  0
 13 16  2  0
 14 16  1  0
 16 17  1  0
 17 18  1  0
 17 19  1  0
 18 20  1  0
 19 21  2  0
 19 22  1  0
 20 23  1  0
 20 24  1  0
 23 24  1  0
 22 25  1  0
 25 26  2  0
 25 27  1  0
 26 28  1  0
 27 29  2  0
 27 30  1  0
 28 31  2  0
 29 31  1  0
M  END
