NIM-NMI-8bb27a2b-1-acrylamide
     RDKit          3D

 30 32  0  0  0  0  0  0  0  0999 V2000
    7.2200   -3.1320   19.0130 C   0  0  0  0  0  0  0  0  0  0  0  0
    6.9000   -2.2950   20.2200 C   0  0  0  0  0  0  0  0  0  0  0  0
    5.6310   -2.8200   20.8290 C   0  0  0  0  0  0  0  0  0  0  0  0
    4.6790   -3.0760   21.5770 O   0  0  0  0  0  0  0  0  0  0  0  0
    6.1370   -1.9950   21.8760 N   0  0  0  0  0  0  0  0  0  0  0  0
    5.2950   -1.8850   23.0960 C   0  0  0  0  0  0  0  0  0  0  0  0
    6.7440   -0.6700   21.4690 C   0  0  1  0  0  0  0  0  0  0  0  0
    5.9700   -3.2540   23.3420 C   0  0  0  0  0  0  0  0  0  0  0  0
    4.6850   -2.2080   24.3690 N   0  0  0  0  0  0  0  0  0  0  0  0
    8.2930   -0.5390   21.5600 C   0  0  0  0  0  0  0  0  0  0  0  0
    6.2210    0.0230   20.2070 C   0  0  0  0  0  0  0  0  0  0  0  0
    5.8530   -4.1700   24.4070 C   0  0  0  0  0  0  0  0  0  0  0  0
    5.0550   -3.3920   24.9270 O   0  0  0  0  0  0  0  0  0  0  0  0
    8.6350    0.6120   21.3880 O   0  0  0  0  0  0  0  0  0  0  0  0
    9.5660   -1.0000   21.7050 N   0  0  0  0  0  0  0  0  0  0  0  0
    5.0360    0.7730   20.2720 C   0  0  0  0  0  0  0  0  0  0  0  0
    6.8450   -0.0290   18.9590 C   0  0  0  0  0  0  0  0  0  0  0  0
    6.7290   -4.6360   23.4550 C   0  0  0  0  0  0  0  0  0  0  0  0
   10.3760   -0.9530   22.9180 C   0  0  0  0  0  0  0  0  0  0  0  0
    4.5480    1.4170   19.1360 C   0  0  0  0  0  0  0  0  0  0  0  0
    6.3890    0.5910   17.8440 N   0  0  0  0  0  0  0  0  0  0  0  0
    7.3670   -5.6980   23.9890 C   0  0  0  0  0  0  0  0  0  0  0  0
    7.8600   -3.6840   23.0030 C   0  0  0  0  0  0  0  0  0  0  0  0
    5.9090   -5.3080   22.3330 C   0  0  0  0  0  0  0  0  0  0  0  0
   11.6610   -1.4270   22.6250 C   0  0  0  0  0  0  0  0  0  0  0  0
   10.3600    0.3000   23.5350 C   0  0  0  0  0  0  0  0  0  0  0  0
    5.2540    1.3020   17.9510 C   0  0  0  0  0  0  0  0  0  0  0  0
   12.6620   -1.0620   23.5670 C   0  0  0  0  0  0  0  0  0  0  0  0
   11.6260    0.6320   24.0360 C   0  0  0  0  0  0  0  0  0  0  0  0
   12.5880    0.4090   23.0720 C   0  0  0  0  0  0  0  0  0  0  0  0
  1  2  1  0
  2  3  1  0
  3  4  2  0
  3  5  1  0
  5  6  1  0
  5  7  1  0
  6  8  1  0
  6  9  2  0
  7 10  1  6
  7 11  1  0
  8 12  2  0
  9 13  1  0
 12 13  1  0
 10 14  2  0
 10 15  1  0
 11 16  2  0
 11 17  1  0
 12 18  1  0
 15 19  1  0
 16 20  1  0
 17 21  2  0
 18 22  1  0
 18 23  1  0
 18 24  1  0
 19 25  1  0
 19 26  1  0
 20 27  2  0
 21 27  1  0
 25 28  1  0
 26 29  1  0
 28 30  1  0
 29 30  1  0
M  END
