NIM-UNI-310206f0-34-vinylsulfonamide
     RDKit          3D

 33 36  0  0  0  0  0  0  0  0999 V2000
    7.3720   -3.2190   19.3860 C   0  0  0  0  0  0  0  0  0  0  0  0
    7.1720   -3.5100   20.8580 C   0  0  0  0  0  0  0  0  0  0  0  0
    5.5330   -4.1090   20.9630 S   0  0  0  0  0  0  0  0  0  0  0  0
    4.7340   -2.9610   21.2320 O   0  0  0  0  0  0  0  0  0  0  0  0
    5.2620   -4.9070   19.7970 O   0  0  0  0  0  0  0  0  0  0  0  0
    5.3530   -5.0700   22.2980 N   0  0  0  0  0  0  0  0  0  0  0  0
    4.4460   -4.6310   23.3680 C   0  0  0  0  0  0  0  0  0  0  0  0
    6.5780   -5.6520   22.8120 C   0  0  0  0  0  0  0  0  0  0  0  0
    5.0290   -3.2220   23.7370 C   0  0  0  0  0  0  0  0  0  0  0  0
    7.0150   -4.8030   24.0070 C   0  0  0  0  0  0  0  0  0  0  0  0
    6.5010   -3.4020   23.9150 N   0  0  0  0  0  0  0  0  0  0  0  0
    7.4300   -2.3070   23.5010 C   0  0  0  0  0  0  0  0  0  0  0  0
    8.8820   -2.7060   23.7630 C   0  0  0  0  0  0  0  0  0  0  0  0
    7.1230   -1.0530   22.9440 C   0  0  0  0  0  0  0  0  0  0  0  0
    9.2300   -3.8810   24.2900 F   0  0  0  0  0  0  0  0  0  0  0  0
    9.9960   -1.6760   23.3960 C   0  0  0  0  0  0  0  0  0  0  0  0
    8.2150   -0.0550   22.5910 C   0  0  0  0  0  0  0  0  0  0  0  0
    5.8570   -0.6740   22.7040 F   0  0  0  0  0  0  0  0  0  0  0  0
    9.5700   -0.2990   22.7880 C   0  0  0  0  0  0  0  0  0  0  0  0
   10.5750    0.7100   22.4610 N   0  0  0  0  0  0  0  0  0  0  0  0
   11.9460    0.2000   22.6290 C   0  0  0  0  0  0  0  0  0  0  0  0
   10.5810    1.7960   23.7550 S   0  0  0  0  0  0  0  0  0  0  0  0
   12.1840   -1.3150   22.6600 C   0  0  0  0  0  0  0  0  0  0  0  0
   11.6720    2.7370   23.5930 O   0  0  0  0  0  0  0  0  0  0  0  0
    9.2240    2.1800   24.1300 O   0  0  0  0  0  0  0  0  0  0  0  0
   11.1140    0.2830   24.5090 C   0  0  0  0  0  0  0  0  0  0  0  0
   11.7380   -2.1570   21.8060 C   0  0  0  0  0  0  0  0  0  0  0  0
   13.0410   -2.0270   21.4190 C   0  0  0  0  0  0  0  0  0  0  0  0
   12.5040   -0.2330   24.3420 C   0  0  0  0  0  0  0  0  0  0  0  0
   10.3620   -0.5830   25.2500 N   0  0  0  0  0  0  0  0  0  0  0  0
   12.4980   -1.5360   25.0530 C   0  0  0  0  0  0  0  0  0  0  0  0
   11.2300   -1.6770   25.5510 O   0  0  0  0  0  0  0  0  0  0  0  0
   13.6370   -2.5340   25.2070 C   0  0  0  0  0  0  0  0  0  0  0  0
  1  2  1  0
  3  2  1  0
  3  4  2  0
  3  5  2  0
  3  6  1  0
  6  7  1  0
  6  8  1  0
  7  9  1  0
  8 10  1  0
  9 11  1  0
 10 11  1  0
 11 12  1  0
 12 13  2  0
 12 14  1  0
 13 15  1  0
 13 16  1  0
 14 17  2  0
 14 18  1  0
 16 19  2  0
 17 19  1  0
 19 20  1  0
 20 21  1  0
 22 20  1  0
 21 23  1  0
 22 24  2  0
 22 25  2  0
 22 26  1  0
 23 27  1  0
 23 28  1  0
 27 28  1  0
 26 29  1  0
 26 30  2  0
 29 31  2  0
 30 32  1  0
 31 32  1  0
 31 33  1  0
M  END
