NIM-UNI-7ba87d62-4-vinylsulfonamide
     RDKit          3D

 25 27  0  0  0  0  0  0  0  0999 V2000
    7.7790   -3.3670   19.6820 C   0  0  0  0  0  0  0  0  0  0  0  0
    6.9880   -2.3730   18.9040 C   0  0  0  0  0  0  0  0  0  0  0  0
    5.3660   -2.4400   19.5160 S   0  0  0  0  0  0  0  0  0  0  0  0
    4.7220   -3.7420   19.3260 O   0  0  0  0  0  0  0  0  0  0  0  0
    4.7230   -1.1770   19.2480 O   0  0  0  0  0  0  0  0  0  0  0  0
    5.5370   -2.5070   21.1610 N   0  0  0  0  0  0  0  0  0  0  0  0
    6.8250   -2.2670   21.7760 C   0  0  0  0  0  0  0  0  0  0  0  0
    7.1840   -3.3820   22.5540 N   0  0  0  0  0  0  0  0  0  0  0  0
    7.6720   -1.0810   21.7220 C   0  0  0  0  0  0  0  0  0  0  0  0
    8.3470   -3.2830   23.2440 C   0  0  0  0  0  0  0  0  0  0  0  0
    8.9190   -1.3530   22.2920 C   0  0  0  0  0  0  0  0  0  0  0  0
    7.3900    0.1980   21.2590 C   0  0  0  0  0  0  0  0  0  0  0  0
    8.4830   -3.8900   24.3020 O   0  0  0  0  0  0  0  0  0  0  0  0
    9.2250   -2.6060   22.8240 N   0  0  0  0  0  0  0  0  0  0  0  0
    8.2800    1.2170   21.9670 C   0  0  0  0  0  0  0  0  0  0  0  0
    6.2830    0.2590   20.1970 C   0  0  0  0  0  0  0  0  0  0  0  0
   10.1730   -2.4130   23.8400 C   0  0  0  0  0  0  0  0  0  0  0  0
    8.0920    2.5180   21.6130 C   0  0  0  0  0  0  0  0  0  0  0  0
    6.2350    1.6740   19.9650 N   0  0  0  0  0  0  0  0  0  0  0  0
   10.9890   -1.2190   23.6700 C   0  0  0  0  0  0  0  0  0  0  0  0
    7.1590    2.2140   20.7690 C   0  0  0  0  0  0  0  0  0  0  0  0
   12.2650   -1.3160   22.8380 C   0  0  0  0  0  0  0  0  0  0  0  0
   10.8030    0.0550   24.1470 C   0  0  0  0  0  0  0  0  0  0  0  0
   12.9510   -0.1310   22.7410 C   0  0  0  0  0  0  0  0  0  0  0  0
   12.0610    1.1290   23.6460 S   0  0  0  0  0  0  0  0  0  0  0  0
  1  2  1  0
  2  3  1  0
  3  4  2  0
  3  5  2  0
  3  6  1  0
  6  7  1  0
  7  8  2  0
  7  9  1  0
  8 10  1  0
  9 11  2  0
  9 12  1  0
 10 13  2  0
 10 14  1  0
 11 14  1  0
 12 15  2  0
 12 16  1  0
 14 17  1  0
 15 18  1  0
 16 19  2  0
 17 20  1  0
 18 21  2  0
 19 21  1  0
 20 22  1  0
 20 23  2  0
 22 24  2  0
 23 25  1  0
 24 25  1  0
M  END
