NIM-UNI-310206f0-40-chloroacetamide
     RDKit          3D

 32 35  0  0  0  0  0  0  0  0999 V2000
    7.1310   -3.0190   18.8290 C   0  0  0  0  0  0  0  0  0  0  0  0
    6.1860   -3.3740   19.9550 C   0  0  0  0  0  0  0  0  0  0  0  0
    5.3310   -4.2500   19.7890 O   0  0  0  0  0  0  0  0  0  0  0  0
    6.3540   -2.6950   21.1400 N   0  0  0  0  0  0  0  0  0  0  0  0
    7.5300   -1.8840   21.3580 C   0  0  0  0  0  0  0  0  0  0  0  0
    5.8580   -3.1780   22.4540 C   0  0  0  0  0  0  0  0  0  0  0  0
    8.3470   -2.9960   22.0780 C   0  0  0  0  0  0  0  0  0  0  0  0
    6.6410   -2.5820   23.6710 C   0  0  0  0  0  0  0  0  0  0  0  0
    8.0950   -2.6370   23.4680 N   0  0  0  0  0  0  0  0  0  0  0  0
    9.0000   -1.5080   23.5370 C   0  0  0  0  0  0  0  0  0  0  0  0
   10.4080   -2.0120   23.7950 C   0  0  0  0  0  0  0  0  0  0  0  0
    8.6870   -0.1640   23.3520 C   0  0  0  0  0  0  0  0  0  0  0  0
   10.7730   -3.2630   23.9830 F   0  0  0  0  0  0  0  0  0  0  0  0
   11.5020   -0.9700   23.8090 C   0  0  0  0  0  0  0  0  0  0  0  0
    9.7970    0.8620   23.3510 C   0  0  0  0  0  0  0  0  0  0  0  0
    7.4270    0.2620   23.1420 F   0  0  0  0  0  0  0  0  0  0  0  0
   11.1070    0.4650   23.5420 C   0  0  0  0  0  0  0  0  0  0  0  0
   12.2280    1.2670   23.4920 N   0  0  0  0  0  0  0  0  0  0  0  0
   13.2820    0.3170   23.1220 C   0  0  0  0  0  0  0  0  0  0  0  0
   12.2000    2.5660   22.9120 C   0  0  0  0  0  0  0  0  0  0  0  0
   13.1860   -0.7950   22.0410 C   0  0  0  0  0  0  0  0  0  0  0  0
   13.2150    3.2130   22.7180 O   0  0  0  0  0  0  0  0  0  0  0  0
   10.9820    3.1080   22.5670 N   0  0  0  0  0  0  0  0  0  0  0  0
   12.2760   -1.7040   21.8490 C   0  0  0  0  0  0  0  0  0  0  0  0
   13.1550   -2.3580   22.6560 C   0  0  0  0  0  0  0  0  0  0  0  0
   10.9550    4.4700   22.7540 C   0  0  0  0  0  0  0  0  0  0  0  0
    9.7140    5.2880   23.0520 C   0  0  0  0  0  0  0  0  0  0  0  0
   11.9260    5.4580   22.7380 C   0  0  0  0  0  0  0  0  0  0  0  0
    8.3510    4.6260   23.1610 C   0  0  0  0  0  0  0  0  0  0  0  0
    9.9700    6.5910   23.1930 N   0  0  0  0  0  0  0  0  0  0  0  0
   11.3400    6.6860   22.9980 O   0  0  0  0  0  0  0  0  0  0  0  0
   13.2970    5.5230   22.5330 C   0  0  0  0  0  0  0  0  0  0  0  0
  1  2  1  0
  2  3  2  0
  2  4  1  0
  4  5  1  0
  4  6  1  0
  5  7  1  0
  6  8  1  0
  7  9  1  0
  8  9  1  0
  9 10  1  0
 10 11  2  0
 10 12  1  0
 11 13  1  0
 11 14  1  0
 12 15  2  0
 12 16  1  0
 14 17  2  0
 15 17  1  0
 17 18  1  0
 18 19  1  0
 18 20  1  0
 19 21  1  0
 20 22  2  0
 20 23  1  0
 21 24  1  0
 21 25  1  0
 24 25  1  0
 23 26  1  0
 26 27  1  0
 26 28  2  0
 27 29  1  0
 27 30  2  0
 28 31  1  0
 30 31  1  0
 28 32  1  0
M  END
