NIM-UNI-7ba87d62-5-nitrile
     RDKit          3D

 23 25  0  0  0  0  0  0  0  0999 V2000
    7.1480   -3.1800   19.0780 C   0  0  0  0  0  0  0  0  0  0  0  0
    6.5510   -3.0240   17.9950 N   0  0  0  0  0  0  0  0  0  0  0  0
    6.3870   -3.0820   20.1850 N   0  0  0  0  0  0  0  0  0  0  0  0
    7.0050   -2.8100   21.4440 C   0  0  0  0  0  0  0  0  0  0  0  0
    7.1180   -4.0280   22.1860 N   0  0  0  0  0  0  0  0  0  0  0  0
    7.5150   -1.5370   21.9360 C   0  0  0  0  0  0  0  0  0  0  0  0
    7.7650   -3.8840   23.3700 C   0  0  0  0  0  0  0  0  0  0  0  0
    8.4560   -1.6510   22.9480 C   0  0  0  0  0  0  0  0  0  0  0  0
    7.0930   -0.2780   21.4960 C   0  0  0  0  0  0  0  0  0  0  0  0
    7.4720   -4.5650   24.3470 O   0  0  0  0  0  0  0  0  0  0  0  0
    8.7770   -2.8960   23.3810 N   0  0  0  0  0  0  0  0  0  0  0  0
    7.9680    0.8180   21.4930 C   0  0  0  0  0  0  0  0  0  0  0  0
    5.7490   -0.0770   21.0530 C   0  0  0  0  0  0  0  0  0  0  0  0
    9.9110   -3.0840   24.2740 C   0  0  0  0  0  0  0  0  0  0  0  0
    7.4870    2.0880   21.0580 C   0  0  0  0  0  0  0  0  0  0  0  0
    5.2360    1.1210   20.6230 N   0  0  0  0  0  0  0  0  0  0  0  0
    9.3360   -4.0290   25.3310 C   0  0  0  0  0  0  0  0  0  0  0  0
    6.1320    2.1860   20.6400 C   0  0  0  0  0  0  0  0  0  0  0  0
    9.8620   -5.3630   25.4400 C   0  0  0  0  0  0  0  0  0  0  0  0
    8.0840   -3.7370   26.4660 S   0  0  0  0  0  0  0  0  0  0  0  0
    9.1390   -6.1020   26.5460 C   0  0  0  0  0  0  0  0  0  0  0  0
    8.1600   -5.3140   27.1590 C   0  0  0  0  0  0  0  0  0  0  0  0
    7.0190   -5.8620   28.5790 Br  0  0  0  0  0  0  0  0  0  0  0  0
  1  2  2  3
  1  3  1  0
  3  4  1  0
  4  5  2  0
  4  6  1  0
  5  7  1  0
  6  8  2  0
  6  9  1  0
  7 10  2  0
  7 11  1  0
  8 11  1  0
  9 12  2  0
  9 13  1  0
 11 14  1  0
 12 15  1  0
 13 16  2  0
 14 17  1  0
 15 18  2  0
 16 18  1  0
 17 19  2  0
 17 20  1  0
 19 21  1  0
 20 22  1  0
 21 22  2  0
 22 23  1  0
M  END
