NIM-UNI-6eebfcd4-1
     RDKit          3D

 33 35  0  0  0  0  0  0  0  0999 V2000
    6.1650   -1.4110   17.8310 O   0  0  0  0  0  0  0  0  0  0  0  0
    6.7600   -0.7090   17.0310 C   0  0  0  0  0  0  0  0  0  0  0  0
    7.6400   -1.2480   15.9640 C   0  0  0  0  0  0  0  0  0  0  0  0
    6.6470    0.8090   17.0810 C   0  0  0  0  0  0  0  0  0  0  0  0
    8.5430    0.1060   15.3000 Cl  0  0  0  0  0  0  0  0  0  0  0  0
    5.3900    1.1530   17.7190 N   0  0  0  0  0  0  0  0  0  0  0  0
    4.7960    2.4310   17.5560 C   0  0  0  0  0  0  0  0  0  0  0  0
    5.4400    0.6880   19.0520 C   0  0  0  0  0  0  0  0  0  0  0  0
    4.8170    3.0540   16.5030 O   0  0  0  0  0  0  0  0  0  0  0  0
    4.1640    2.9210   18.8190 N   0  0  0  0  0  0  0  0  0  0  0  0
    6.7090   -0.0600   19.4600 C   0  0  0  0  0  0  0  0  0  0  0  0
    4.4750    0.8520   20.0000 C   0  0  0  0  0  0  0  0  0  0  0  0
    2.7910    3.1660   19.0300 C   0  0  0  0  0  0  0  0  0  0  0  0
    6.9050   -0.5430   20.6930 N   0  0  0  0  0  0  0  0  0  0  0  0
    4.7200    0.3450   21.2540 C   0  0  0  0  0  0  0  0  0  0  0  0
    2.0230    2.4780   19.9890 C   0  0  0  0  0  0  0  0  0  0  0  0
    2.1170    4.1420   18.2730 C   0  0  0  0  0  0  0  0  0  0  0  0
    5.8990   -0.3260   21.5620 C   0  0  0  0  0  0  0  0  0  0  0  0
    3.7760    0.4720   22.3850 C   0  0  0  0  0  0  0  0  0  0  0  0
    0.6620    2.7510   20.1830 C   0  0  0  0  0  0  0  0  0  0  0  0
    0.7590    4.4170   18.4650 C   0  0  0  0  0  0  0  0  0  0  0  0
    4.3170    1.5260   23.3400 C   0  0  0  0  0  0  0  0  0  0  0  0
    0.0320    3.7250   19.4190 C   0  0  0  0  0  0  0  0  0  0  0  0
    3.2570    2.3810   23.7990 N   0  0  0  0  0  0  0  0  0  0  0  0
    2.0720    1.7730   24.1380 C   0  0  0  0  0  0  0  0  0  0  0  0
    1.8600    0.5810   23.9850 O   0  0  0  0  0  0  0  0  0  0  0  0
    1.0150    2.6930   24.7610 C   0  0  0  0  0  0  0  0  0  0  0  0
   -0.4080    2.1540   24.7250 C   0  0  0  0  0  0  0  0  0  0  0  0
    1.3160    3.9320   25.3210 C   0  0  0  0  0  0  0  0  0  0  0  0
   -1.4420    2.9160   25.2680 C   0  0  0  0  0  0  0  0  0  0  0  0
    0.1880    4.7630   25.9130 C   0  0  0  0  0  0  0  0  0  0  0  0
   -1.1260    4.2920   25.8950 C   0  0  0  0  0  0  0  0  0  0  0  0
    0.5280    6.2990   26.6170 Cl  0  0  0  0  0  0  0  0  0  0  0  0
  1  2  2  0
  2  3  1  0
  2  4  1  0
  3  5  1  0
  4  6  1  0
  6  7  1  0
  6  8  1  0
  7  9  2  0
  7 10  1  0
  8 11  2  0
  8 12  1  0
 10 13  1  0
 11 14  1  0
 12 15  2  0
 13 16  2  0
 13 17  1  0
 14 18  2  0
 15 18  1  0
 15 19  1  0
 16 20  1  0
 17 21  2  0
 19 22  1  0
 20 23  2  0
 21 23  1  0
 22 24  1  0
 24 25  1  0
 25 26  2  0
 25 27  1  0
 27 28  2  0
 27 29  1  0
 28 30  1  0
 29 31  2  0
 30 32  2  0
 31 32  1  0
 31 33  1  0
M  END
