NIM-UNI-310206f0-1-chloroacetamide
     RDKit          3D

 23 25  0  0  0  0  0  0  0  0999 V2000
    7.0030   -3.0390   18.9710 C   0  0  0  0  0  0  0  0  0  0  0  0
    6.0810   -3.5650   20.0660 C   0  0  0  0  0  0  0  0  0  0  0  0
    5.1770   -4.3390   19.7790 O   0  0  0  0  0  0  0  0  0  0  0  0
    6.2910   -3.2060   21.3870 N   0  0  0  0  0  0  0  0  0  0  0  0
    5.8830   -1.9650   21.8970 C   0  0  0  0  0  0  0  0  0  0  0  0
    6.1960   -4.3030   22.3640 C   0  0  0  0  0  0  0  0  0  0  0  0
    5.5530   -1.9740   23.2420 C   0  0  0  0  0  0  0  0  0  0  0  0
    6.8560   -4.0440   23.5600 C   0  0  0  0  0  0  0  0  0  0  0  0
    6.6510   -2.6300   23.9590 N   0  0  0  0  0  0  0  0  0  0  0  0
    7.7570   -1.7270   23.7800 C   0  0  0  0  0  0  0  0  0  0  0  0
    9.0000   -2.3340   23.6920 C   0  0  0  0  0  0  0  0  0  0  0  0
    7.6460   -0.3050   23.6760 C   0  0  0  0  0  0  0  0  0  0  0  0
    9.2410   -3.6360   23.7760 F   0  0  0  0  0  0  0  0  0  0  0  0
   10.1420   -1.5020   23.4790 C   0  0  0  0  0  0  0  0  0  0  0  0
    8.7360    0.4980   23.4690 C   0  0  0  0  0  0  0  0  0  0  0  0
    6.4580    0.3160   23.7660 F   0  0  0  0  0  0  0  0  0  0  0  0
    9.9640   -0.0940   23.3630 C   0  0  0  0  0  0  0  0  0  0  0  0
   11.2270    0.3640   23.1370 C   0  0  0  0  0  0  0  0  0  0  0  0
   12.1050   -0.8080   22.9090 C   0  0  0  0  0  0  0  0  0  0  0  0
   11.7280    1.7710   23.1030 C   0  0  0  0  0  0  0  0  0  0  0  0
   13.5100   -0.6440   22.6520 C   0  0  0  0  0  0  0  0  0  0  0  0
   13.0770    1.8580   22.8650 C   0  0  0  0  0  0  0  0  0  0  0  0
   13.9590    0.7520   22.6510 N   0  0  0  0  0  0  0  0  0  0  0  0
  1  2  1  0
  2  3  2  0
  2  4  1  0
  4  5  1  0
  4  6  1  0
  5  7  1  0
  6  8  1  0
  7  9  1  0
  8  9  1  0
  9 10  1  0
 10 11  2  0
 10 12  1  0
 11 13  1  0
 11 14  1  0
 12 15  2  0
 12 16  1  0
 14 17  2  0
 15 17  1  0
 17 18  1  0
 18 19  2  0
 18 20  1  0
 19 21  1  0
 20 22  2  0
 21 23  2  0
 22 23  1  0
M  END
