NIM-UNI-05f93fcc-4-vinylsulfonamide
     RDKit          3D

 28 31  0  0  0  0  0  0  0  0999 V2000
    8.1200   -4.1440   20.3140 C   0  0  0  0  0  0  0  0  0  0  0  0
    7.2510   -2.9160   20.1620 C   0  0  0  0  0  0  0  0  0  0  0  0
    5.7200   -3.4470   20.8100 S   0  0  0  0  0  0  0  0  0  0  0  0
    5.0740   -4.1520   19.7190 O   0  0  0  0  0  0  0  0  0  0  0  0
    5.0830   -2.3180   21.4440 O   0  0  0  0  0  0  0  0  0  0  0  0
    6.2630   -4.5670   21.9840 N   0  0  0  0  0  0  0  0  0  0  0  0
    5.6260   -5.8280   22.1240 C   0  0  0  0  0  0  0  0  0  0  0  0
    7.1520   -4.1350   23.0730 C   0  0  0  0  0  0  0  0  0  0  0  0
    5.0000   -6.0740   23.3260 C   0  0  0  0  0  0  0  0  0  0  0  0
    7.0390   -4.9130   24.2270 C   0  0  0  0  0  0  0  0  0  0  0  0
    5.6080   -5.2460   24.3830 N   0  0  0  0  0  0  0  0  0  0  0  0
    4.9410   -5.3260   25.9290 S   0  0  0  0  0  0  0  0  0  0  0  0
    4.0150   -6.4420   25.9910 O   0  0  0  0  0  0  0  0  0  0  0  0
    6.0080   -5.1510   26.8900 O   0  0  0  0  0  0  0  0  0  0  0  0
    3.9670   -3.8690   26.0350 C   0  0  0  0  0  0  0  0  0  0  0  0
    4.2590   -2.5180   26.1220 C   0  0  0  0  0  0  0  0  0  0  0  0
    2.2690   -4.0980   26.0270 S   0  0  0  0  0  0  0  0  0  0  0  0
    3.1220   -1.5680   26.1930 C   0  0  0  0  0  0  0  0  0  0  0  0
    1.9300   -2.4250   26.1470 C   0  0  0  0  0  0  0  0  0  0  0  0
    0.6140   -1.8310   26.2090 C   0  0  0  0  0  0  0  0  0  0  0  0
   -0.5750   -2.6260   25.6100 C   0  0  0  0  0  0  0  0  0  0  0  0
    0.2960   -0.5590   26.7870 C   0  0  0  0  0  0  0  0  0  0  0  0
   -1.9940   -2.0150   25.6680 C   0  0  0  0  0  0  0  0  0  0  0  0
   -0.9850   -0.0190   26.8320 C   0  0  0  0  0  0  0  0  0  0  0  0
   -2.1330   -0.6270   26.3320 C   0  0  0  0  0  0  0  0  0  0  0  0
   -1.3340    1.2940   27.4250 N   0  0  0  0  0  0  0  0  0  0  0  0
   -3.2300    0.2040   26.5540 C   0  0  0  0  0  0  0  0  0  0  0  0
   -2.8190    1.3700   27.2040 C   0  0  0  0  0  0  0  0  0  0  0  0
  1  2  1  0
  3  2  1  0
  3  4  2  0
  3  5  2  0
  3  6  1  0
  6  7  1  0
  6  8  1  0
  7  9  1  0
  8 10  1  0
  9 11  1  0
 10 11  1  0
 11 12  1  0
 12 13  2  0
 12 14  2  0
 12 15  1  0
 15 16  2  0
 15 17  1  0
 16 18  1  0
 17 19  1  0
 18 19  2  0
 19 20  1  0
 20 21  2  0
 20 22  1  0
 21 23  1  0
 22 24  2  0
 23 25  2  0
 24 25  1  0
 24 26  1  0
 25 27  1  0
 26 28  1  0
 27 28  2  0
M  END
