NIM-UNI-310206f0-61-acrylamide
     RDKit          3D

 35 39  0  0  0  0  0  0  0  0999 V2000
    6.9640   -3.1110   19.1410 C   0  0  0  0  0  0  0  0  0  0  0  0
    5.8120   -3.7290   19.9380 C   0  0  0  0  0  0  0  0  0  0  0  0
    5.7440   -3.3920   21.4210 C   0  0  0  0  0  0  0  0  0  0  0  0
    4.7390   -3.7240   22.0360 O   0  0  0  0  0  0  0  0  0  0  0  0
    6.7590   -2.7350   22.0920 N   0  0  0  0  0  0  0  0  0  0  0  0
    7.2120   -1.3920   21.6960 C   0  0  0  0  0  0  0  0  0  0  0  0
    6.6850   -2.9310   23.5530 C   0  0  0  0  0  0  0  0  0  0  0  0
    7.2800   -0.4350   22.8770 C   0  0  0  0  0  0  0  0  0  0  0  0
    7.7650   -2.4310   24.2900 C   0  0  0  0  0  0  0  0  0  0  0  0
    8.0780   -1.0280   23.9730 N   0  0  0  0  0  0  0  0  0  0  0  0
    9.2850   -0.7520   23.5950 C   0  0  0  0  0  0  0  0  0  0  0  0
    9.9290    0.3110   24.1350 C   0  0  0  0  0  0  0  0  0  0  0  0
   10.0120   -1.4400   22.6690 C   0  0  0  0  0  0  0  0  0  0  0  0
    9.3170    1.0600   25.0580 F   0  0  0  0  0  0  0  0  0  0  0  0
   11.2230    0.6870   23.7710 C   0  0  0  0  0  0  0  0  0  0  0  0
   11.4190   -1.0380   22.2680 C   0  0  0  0  0  0  0  0  0  0  0  0
    9.4720   -2.5050   22.0820 F   0  0  0  0  0  0  0  0  0  0  0  0
   12.1110    0.0940   22.8120 C   0  0  0  0  0  0  0  0  0  0  0  0
   13.3540    0.0520   22.1090 N   0  0  0  0  0  0  0  0  0  0  0  0
   14.0730    0.4320   20.8270 C   0  0  0  0  0  0  0  0  0  0  0  0
   13.3530   -1.1240   22.0510 C   0  0  0  0  0  0  0  0  0  0  0  0
   14.8390    1.7630   20.4200 C   0  0  0  0  0  0  0  0  0  0  0  0
   14.2120   -0.5780   19.8860 N   0  0  0  0  0  0  0  0  0  0  0  0
   13.2870   -1.6690   20.7690 C   0  0  0  0  0  0  0  0  0  0  0  0
   13.4230   -1.7110   23.2130 C   0  0  0  0  0  0  0  0  0  0  0  0
   15.5590    1.9240   19.1700 C   0  0  0  0  0  0  0  0  0  0  0  0
   15.0360   -0.3060   18.6460 C   0  0  0  0  0  0  0  0  0  0  0  0
   13.3200   -3.0300   20.6110 C   0  0  0  0  0  0  0  0  0  0  0  0
   13.5130   -2.9930   23.1580 C   0  0  0  0  0  0  0  0  0  0  0  0
   13.4330   -1.2860   24.5110 C   0  0  0  0  0  0  0  0  0  0  0  0
   15.6610    0.8280   18.2580 C   0  0  0  0  0  0  0  0  0  0  0  0
   13.4640   -3.6050   21.8340 C   0  0  0  0  0  0  0  0  0  0  0  0
   13.6410   -3.3340   24.4890 N   0  0  0  0  0  0  0  0  0  0  0  0
   13.5880   -2.3390   25.3350 C   0  0  0  0  0  0  0  0  0  0  0  0
   16.3770    0.9740   17.0910 C   0  0  0  0  0  0  0  0  0  0  0  0
  1  2  1  0
  2  3  1  0
  3  4  2  0
  3  5  1  0
  5  6  1  0
  5  7  1  0
  6  8  1  0
  7  9  1  0
  8 10  1  0
  9 10  1  0
 10 11  1  0
 11 12  2  0
 11 13  1  0
 12 14  1  0
 12 15  1  0
 13 16  2  0
 13 17  1  0
 15 18  2  0
 16 18  1  0
 18 19  1  0
 19 20  1  0
 19 21  1  0
 20 22  2  0
 20 23  1  0
 21 24  2  0
 21 25  1  0
 22 26  1  0
 23 27  2  0
 24 28  1  0
 25 29  2  0
 25 30  1  0
 26 31  2  0
 27 31  1  0
 28 32  2  0
 29 32  1  0
 29 33  1  0
 30 34  2  0
 33 34  1  0
 31 35  1  0
M  END
