NIM-NMI-8bb27a2b-10-bromoalkyne
     RDKit          3D

 29 31  0  0  0  0  0  0  0  0999 V2000
    8.5800   -3.7080   19.8290 C   0  0  0  0  0  0  0  0  0  0  0  0
    7.1690   -3.4310   19.1910 C   0  0  0  0  0  0  0  0  0  0  0  0
    8.7840   -3.6100   21.1990 N   0  0  0  0  0  0  0  0  0  0  0  0
   10.0730   -3.1540   21.7480 C   0  0  0  0  0  0  0  0  0  0  0  0
    7.8030   -2.9230   21.8380 C   0  0  1  0  0  0  0  0  0  0  0  0
   10.3020   -2.9500   23.1790 C   0  0  0  0  0  0  0  0  0  0  0  0
   11.2220   -2.8230   21.1730 N   0  0  0  0  0  0  0  0  0  0  0  0
    7.3170   -1.5290   21.3200 C   0  0  0  0  0  0  0  0  0  0  0  0
    6.7790   -3.8240   21.9990 C   0  0  0  0  0  0  0  0  0  0  0  0
   11.5910   -2.5010   23.1720 C   0  0  0  0  0  0  0  0  0  0  0  0
   12.0740   -2.4580   22.0420 O   0  0  0  0  0  0  0  0  0  0  0  0
    6.2630   -1.4450   20.6930 O   0  0  0  0  0  0  0  0  0  0  0  0
    8.1870   -0.5330   21.6570 N   0  0  0  0  0  0  0  0  0  0  0  0
    7.1610   -5.1600   22.2080 C   0  0  0  0  0  0  0  0  0  0  0  0
    5.4280   -3.5110   21.9730 C   0  0  0  0  0  0  0  0  0  0  0  0
   12.3660   -2.1010   24.2150 C   0  0  0  0  0  0  0  0  0  0  0  0
    8.8050   -0.9450   22.8040 C   0  0  0  0  0  0  0  0  0  0  0  0
    6.1820   -6.1250   22.3830 C   0  0  0  0  0  0  0  0  0  0  0  0
    4.4520   -4.4420   22.1380 N   0  0  0  0  0  0  0  0  0  0  0  0
   12.7890   -3.0620   25.0700 C   0  0  0  0  0  0  0  0  0  0  0  0
   11.8070   -0.9290   25.0120 C   0  0  0  0  0  0  0  0  0  0  0  0
   13.5590   -1.6070   23.9520 C   0  0  0  0  0  0  0  0  0  0  0  0
   10.0850   -0.1790   22.9440 C   0  0  0  0  0  0  0  0  0  0  0  0
    4.8600   -5.7190   22.3420 C   0  0  0  0  0  0  0  0  0  0  0  0
   11.2410   -0.6760   22.3760 C   0  0  0  0  0  0  0  0  0  0  0  0
   10.2450    1.0290   23.6170 C   0  0  0  0  0  0  0  0  0  0  0  0
   12.4690   -0.0640   22.4530 C   0  0  0  0  0  0  0  0  0  0  0  0
   11.4770    1.6860   23.7060 C   0  0  0  0  0  0  0  0  0  0  0  0
   12.6210    1.1280   23.1130 C   0  0  0  0  0  0  0  0  0  0  0  0
  1  2  2  3
  1  3  1  0
  3  4  1  0
  3  5  1  0
  4  6  1  0
  4  7  2  0
  5  8  1  6
  5  9  1  0
  6 10  2  0
  7 11  1  0
 10 11  1  0
  8 12  2  0
  8 13  1  0
  9 14  2  0
  9 15  1  0
 10 16  1  0
 13 17  1  0
 14 18  1  0
 15 19  2  0
 16 20  1  0
 16 21  1  0
 16 22  1  0
 17 23  1  0
 18 24  2  0
 19 24  1  0
 23 25  2  0
 23 26  1  0
 25 27  1  0
 26 28  2  0
 27 29  2  0
 28 29  1  0
M  END
