NIM-UNI-310206f0-17-acrylamide
     RDKit          3D

 36 39  0  0  0  0  0  0  0  0999 V2000
    7.5560   -2.7910   18.6170 C   0  0  0  0  0  0  0  0  0  0  0  0
    6.0800   -2.7780   19.0180 C   0  0  0  0  0  0  0  0  0  0  0  0
    5.6410   -3.6470   20.1490 C   0  0  0  0  0  0  0  0  0  0  0  0
    5.1640   -4.7490   19.9480 O   0  0  0  0  0  0  0  0  0  0  0  0
    5.7700   -3.1250   21.3810 N   0  0  0  0  0  0  0  0  0  0  0  0
    5.9810   -1.6840   21.5370 C   0  0  0  0  0  0  0  0  0  0  0  0
    6.0670   -3.9480   22.5610 C   0  0  0  0  0  0  0  0  0  0  0  0
    5.6900   -1.4800   23.0430 C   0  0  0  0  0  0  0  0  0  0  0  0
    7.1810   -3.3590   23.4370 C   0  0  0  0  0  0  0  0  0  0  0  0
    6.9310   -1.9200   23.6960 N   0  0  0  0  0  0  0  0  0  0  0  0
    8.0500   -1.1480   23.4310 C   0  0  0  0  0  0  0  0  0  0  0  0
    7.8620    0.1570   22.5770 C   0  0  0  0  0  0  0  0  0  0  0  0
    9.3100   -1.5070   23.9010 C   0  0  0  0  0  0  0  0  0  0  0  0
    6.7090    0.6240   22.0660 F   0  0  0  0  0  0  0  0  0  0  0  0
    9.2140    0.8860   22.3820 C   0  0  0  0  0  0  0  0  0  0  0  0
   10.5720   -0.7140   23.6540 C   0  0  0  0  0  0  0  0  0  0  0  0
    9.4540   -2.6120   24.6190 F   0  0  0  0  0  0  0  0  0  0  0  0
   10.5760    0.4430   22.9260 C   0  0  0  0  0  0  0  0  0  0  0  0
   11.8210    1.1210   22.7370 N   0  0  0  0  0  0  0  0  0  0  0  0
   12.9370    0.1950   22.9760 C   0  0  0  0  0  0  0  0  0  0  0  0
   11.8140    2.5680   22.7730 C   0  0  0  0  0  0  0  0  0  0  0  0
   13.3260   -0.0940   24.0890 O   0  0  0  0  0  0  0  0  0  0  0  0
   13.4510   -0.3710   21.8680 N   0  0  0  0  0  0  0  0  0  0  0  0
   10.5930    3.1960   22.7300 N   0  0  0  0  0  0  0  0  0  0  0  0
   13.0200    3.2600   22.8430 N   0  0  0  0  0  0  0  0  0  0  0  0
   12.9510   -1.5630   21.5540 C   0  0  0  0  0  0  0  0  0  0  0  0
   10.5200    4.5490   22.7480 C   0  0  0  0  0  0  0  0  0  0  0  0
   12.9860    4.6000   22.8560 C   0  0  0  0  0  0  0  0  0  0  0  0
   12.3720   -2.2760   22.6340 C   0  0  0  0  0  0  0  0  0  0  0  0
   11.6900    5.3400   22.8080 C   0  0  0  0  0  0  0  0  0  0  0  0
   10.9850   -2.7470   22.5190 C   0  0  0  0  0  0  0  0  0  0  0  0
   13.1710   -2.4790   23.7390 C   0  0  0  0  0  0  0  0  0  0  0  0
   10.3360   -3.5190   23.6330 C   0  0  0  0  0  0  0  0  0  0  0  0
   12.6580   -3.2200   24.9060 C   0  0  0  0  0  0  0  0  0  0  0  0
   11.2220   -3.7510   24.8460 C   0  0  0  0  0  0  0  0  0  0  0  0
   13.4630   -3.4270   25.9850 F   0  0  0  0  0  0  0  0  0  0  0  0
  1  2  1  0
  2  3  1  0
  3  4  2  0
  3  5  1  0
  5  6  1  0
  5  7  1  0
  6  8  1  0
  7  9  1  0
  8 10  1  0
  9 10  1  0
 10 11  1  0
 11 12  2  0
 11 13  1  0
 12 14  1  0
 12 15  1  0
 13 16  2  0
 13 17  1  0
 15 18  2  0
 16 18  1  0
 18 19  1  0
 19 20  1  0
 19 21  1  0
 20 22  2  0
 20 23  1  0
 21 24  2  0
 21 25  1  0
 23 26  1  0
 24 27  1  0
 25 28  2  0
 26 29  1  0
 27 30  2  0
 28 30  1  0
 29 31  2  0
 29 32  1  0
 31 33  1  0
 32 34  2  0
 33 35  2  0
 34 35  1  0
 34 36  1  0
M  END
