NIM-UNI-ed9fc491-2-bromoalkyne
     RDKit          3D

 26 27  0  0  0  0  0  0  0  0999 V2000
    8.0760   -3.7380   19.8040 C   0  0  0  0  0  0  0  0  0  0  0  0
    6.8850   -3.4460   19.1720 C   0  0  0  0  0  0  0  0  0  0  0  0
    8.2180   -3.6610   21.1960 N   0  0  0  0  0  0  0  0  0  0  0  0
    8.4510   -4.7320   22.1990 C   0  0  0  0  0  0  0  0  0  0  0  0
    8.8610   -2.4260   21.6020 C   0  0  0  0  0  0  0  0  0  0  0  0
    9.4510   -4.2320   23.3010 C   0  0  0  0  0  0  0  0  0  0  0  0
   10.2070   -2.6740   21.7560 C   0  0  0  0  0  0  0  0  0  0  0  0
   10.5450   -3.3240   22.8450 N   0  0  0  0  0  0  0  0  0  0  0  0
   11.0210   -2.3710   23.8330 C   0  0  0  0  0  0  0  0  0  0  0  0
   10.0470   -1.2050   24.0420 C   0  0  0  0  0  0  0  0  0  0  0  0
    9.7580   -0.5550   22.7220 N   0  0  0  0  0  0  0  0  0  0  0  0
    9.5800    0.9110   22.8180 C   0  0  0  0  0  0  0  0  0  0  0  0
   10.6550    1.8230   22.6330 O   0  0  0  0  0  0  0  0  0  0  0  0
    8.2830    1.3820   23.1470 C   0  0  2  0  0  0  0  0  0  0  0  0
    7.2040    0.5970   22.7420 C   0  0  0  0  0  0  0  0  0  0  0  0
    8.1170    2.6390   22.3860 N   0  0  0  0  0  0  0  0  0  0  0  0
    6.8510    0.6270   21.3880 C   0  0  0  0  0  0  0  0  0  0  0  0
    7.1550    3.4970   22.8350 C   0  0  0  0  0  0  0  0  0  0  0  0
    7.3510   -0.3900   20.5410 C   0  0  0  0  0  0  0  0  0  0  0  0
    6.0050    1.6430   20.8580 C   0  0  0  0  0  0  0  0  0  0  0  0
    7.0200    4.6580   22.0700 C   0  0  0  0  0  0  0  0  0  0  0  0
    6.4700    3.2890   23.8070 O   0  0  0  0  0  0  0  0  0  0  0  0
    6.9970   -0.4280   19.0410 C   0  0  0  0  0  0  0  0  0  0  0  0
    5.6320    1.6880   19.5110 C   0  0  0  0  0  0  0  0  0  0  0  0
    6.0910    0.6520   18.4630 C   0  0  0  0  0  0  0  0  0  0  0  0
    5.6940    0.8000   17.3250 O   0  0  0  0  0  0  0  0  0  0  0  0
  1  2  2  3
  1  3  1  0
  3  4  1  0
  3  5  1  0
  4  6  1  0
  5  7  1  0
  6  8  1  0
  7  8  1  0
  8  9  1  0
  9 10  1  0
 10 11  1  0
 11 12  1  0
 12 13  2  0
 12 14  1  0
 14 15  1  6
 14 16  1  0
 15 17  1  0
 16 18  1  0
 17 19  2  0
 17 20  1  0
 18 21  1  0
 18 22  2  0
 19 23  1  0
 20 24  2  0
 23 25  2  0
 24 25  1  0
 25 26  1  0
M  END
