NIM-UNI-ed9fc491-2-nitrile
     RDKit          3D

 26 27  0  0  0  0  0  0  0  0999 V2000
    6.7940   -4.3170   20.3280 C   0  0  0  0  0  0  0  0  0  0  0  0
    5.8220   -3.7730   19.6880 N   0  0  0  0  0  0  0  0  0  0  0  0
    7.6060   -3.7140   21.3140 N   0  0  0  0  0  0  0  0  0  0  0  0
    7.6030   -4.0800   22.7400 C   0  0  0  0  0  0  0  0  0  0  0  0
    8.7620   -2.9230   20.9000 C   0  0  0  0  0  0  0  0  0  0  0  0
    8.5830   -3.1870   23.5390 C   0  0  0  0  0  0  0  0  0  0  0  0
    9.8250   -2.3870   21.6700 C   0  0  0  0  0  0  0  0  0  0  0  0
    9.8970   -2.8790   22.9110 N   0  0  0  0  0  0  0  0  0  0  0  0
   10.7290   -1.9440   23.6620 C   0  0  0  0  0  0  0  0  0  0  0  0
   10.5560   -0.5360   23.0700 C   0  0  0  0  0  0  0  0  0  0  0  0
    9.2620   -0.1790   23.1180 N   0  0  0  0  0  0  0  0  0  0  0  0
    8.8260    0.9060   22.4350 C   0  0  0  0  0  0  0  0  0  0  0  0
    9.3310    1.4010   21.4240 O   0  0  0  0  0  0  0  0  0  0  0  0
    7.6890    1.5780   22.8960 C   0  0  2  0  0  0  0  0  0  0  0  0
    6.4740    0.9730   22.5380 C   0  0  0  0  0  0  0  0  0  0  0  0
    7.8620    2.7780   22.3300 N   0  0  0  0  0  0  0  0  0  0  0  0
    6.2440    0.9620   21.1750 C   0  0  0  0  0  0  0  0  0  0  0  0
    7.0490    3.9160   22.7340 C   0  0  0  0  0  0  0  0  0  0  0  0
    7.0070    0.0910   20.3530 C   0  0  0  0  0  0  0  0  0  0  0  0
    5.2640    1.8100   20.6110 C   0  0  0  0  0  0  0  0  0  0  0  0
    7.1780    5.3270   22.1450 C   0  0  0  0  0  0  0  0  0  0  0  0
    6.1920    3.8560   23.5830 O   0  0  0  0  0  0  0  0  0  0  0  0
    6.8920   -0.0320   18.9490 C   0  0  0  0  0  0  0  0  0  0  0  0
    5.0300    1.7840   19.0920 C   0  0  0  0  0  0  0  0  0  0  0  0
    5.8600    0.8460   18.2310 C   0  0  0  0  0  0  0  0  0  0  0  0
    5.6560    0.8550   17.0500 O   0  0  0  0  0  0  0  0  0  0  0  0
  1  2  2  3
  1  3  1  0
  3  4  1  0
  3  5  1  0
  4  6  1  0
  5  7  1  0
  6  8  1  0
  7  8  1  0
  8  9  1  0
  9 10  1  0
 10 11  1  0
 11 12  1  0
 12 13  2  0
 12 14  1  0
 14 15  1  6
 14 16  1  0
 15 17  1  0
 16 18  1  0
 17 19  2  0
 17 20  1  0
 18 21  1  0
 18 22  2  0
 19 23  1  0
 20 24  2  0
 23 25  2  0
 24 25  1  0
 25 26  1  0
M  END
