NIM-UNI-05f93fcc-4-nitrile
     RDKit          3D

 25 28  0  0  0  0  0  0  0  0999 V2000
    6.6880   -4.3240   20.3470 C   0  0  0  0  0  0  0  0  0  0  0  0
    5.6260   -4.0260   19.7140 N   0  0  0  0  0  0  0  0  0  0  0  0
    6.7720   -5.0400   21.5450 N   0  0  0  0  0  0  0  0  0  0  0  0
    7.5100   -4.4730   22.6250 C   0  0  0  0  0  0  0  0  0  0  0  0
    5.7990   -6.0820   21.9640 C   0  0  0  0  0  0  0  0  0  0  0  0
    6.8710   -4.3700   23.8730 C   0  0  0  0  0  0  0  0  0  0  0  0
    5.0410   -5.6750   23.0600 C   0  0  0  0  0  0  0  0  0  0  0  0
    6.0180   -5.3760   24.1390 N   0  0  0  0  0  0  0  0  0  0  0  0
    5.3450   -5.3620   25.7160 S   0  0  0  0  0  0  0  0  0  0  0  0
    6.3940   -5.2070   26.6960 O   0  0  0  0  0  0  0  0  0  0  0  0
    4.3990   -6.4620   25.7990 O   0  0  0  0  0  0  0  0  0  0  0  0
    4.2990   -3.9520   25.8430 C   0  0  0  0  0  0  0  0  0  0  0  0
    4.5250   -2.5650   26.0020 C   0  0  0  0  0  0  0  0  0  0  0  0
    2.6480   -4.3530   25.7540 S   0  0  0  0  0  0  0  0  0  0  0  0
    3.3900   -1.7670   26.0620 C   0  0  0  0  0  0  0  0  0  0  0  0
    2.2130   -2.6610   25.9350 C   0  0  0  0  0  0  0  0  0  0  0  0
    0.8370   -2.2920   25.9460 C   0  0  0  0  0  0  0  0  0  0  0  0
    0.3790   -0.9550   26.3970 C   0  0  0  0  0  0  0  0  0  0  0  0
   -0.0920   -3.2580   25.5150 C   0  0  0  0  0  0  0  0  0  0  0  0
   -1.1690   -0.7120   26.3550 C   0  0  0  0  0  0  0  0  0  0  0  0
   -1.4410   -3.0640   25.4720 C   0  0  0  0  0  0  0  0  0  0  0  0
   -2.0330   -1.8950   25.8500 C   0  0  0  0  0  0  0  0  0  0  0  0
   -2.3560   -4.0290   25.0410 N   0  0  0  0  0  0  0  0  0  0  0  0
   -3.5240   -2.1490   25.6320 C   0  0  0  0  0  0  0  0  0  0  0  0
   -3.6980   -3.4400   25.1440 C   0  0  0  0  0  0  0  0  0  0  0  0
  1  2  2  3
  1  3  1  0
  3  4  1  0
  3  5  1  0
  4  6  1  0
  5  7  1  0
  6  8  1  0
  7  8  1  0
  8  9  1  0
  9 10  2  0
  9 11  2  0
  9 12  1  0
 12 13  2  0
 12 14  1  0
 13 15  1  0
 14 16  1  0
 15 16  2  0
 16 17  1  0
 17 18  2  0
 17 19  1  0
 18 20  1  0
 19 21  2  0
 20 22  2  0
 21 22  1  0
 21 23  1  0
 22 24  1  0
 23 25  1  0
 24 25  2  0
M  END
