NIM-UNI-ed9fc491-3-acrylamide
     RDKit          3D

 33 35  0  0  0  0  0  0  0  0999 V2000
    6.5530   -5.7040   19.9770 C   0  0  0  0  0  0  0  0  0  0  0  0
    6.5170   -5.7860   21.2980 C   0  0  0  0  0  0  0  0  0  0  0  0
    6.3320   -4.4000   21.7920 C   0  0  0  0  0  0  0  0  0  0  0  0
    5.1030   -3.9460   21.6510 O   0  0  0  0  0  0  0  0  0  0  0  0
    7.5490   -3.7400   22.3480 N   0  0  0  0  0  0  0  0  0  0  0  0
    7.5170   -3.4230   23.7670 C   0  0  0  0  0  0  0  0  0  0  0  0
    9.0070   -3.9630   21.8480 C   0  0  0  0  0  0  0  0  0  0  0  0
    8.8210   -2.7560   24.2200 C   0  0  0  0  0  0  0  0  0  0  0  0
   10.1670   -3.1500   22.4030 C   0  0  0  0  0  0  0  0  0  0  0  0
    9.6420   -2.1160   23.1880 N   0  0  0  0  0  0  0  0  0  0  0  0
    8.8800   -1.1510   22.4440 C   0  0  2  0  0  0  0  0  0  0  0  0
    8.7770    0.0130   23.3070 N   0  0  0  0  0  0  0  0  0  0  0  0
    7.6190   -1.5250   21.8900 C   0  0  0  0  0  0  0  0  0  0  0  0
    9.0910    1.2120   22.5950 C   0  0  0  0  0  0  0  0  0  0  0  0
    6.4300   -1.3280   22.8140 C   0  0  0  0  0  0  0  0  0  0  0  0
    7.4810   -2.0790   20.4580 C   0  0  0  0  0  0  0  0  0  0  0  0
   10.2170    1.5430   22.2710 O   0  0  0  0  0  0  0  0  0  0  0  0
    7.9650    1.9660   22.3190 C   0  0  1  0  0  0  0  0  0  0  0  0
    5.2480   -1.7030   22.2130 C   0  0  0  0  0  0  0  0  0  0  0  0
    6.1850   -2.3970   20.0300 C   0  0  0  0  0  0  0  0  0  0  0  0
    6.7540    1.3050   22.4000 C   0  0  0  0  0  0  0  0  0  0  0  0
    7.9140    2.9590   23.3740 N   0  0  0  0  0  0  0  0  0  0  0  0
    5.8990   -2.0010   21.1890 C   0  0  0  0  0  0  0  0  0  0  0  0
    6.3880    1.1370   21.0920 C   0  0  0  0  0  0  0  0  0  0  0  0
    6.9990    3.9260   23.1720 C   0  0  0  0  0  0  0  0  0  0  0  0
    7.1860    0.2960   20.3020 C   0  0  0  0  0  0  0  0  0  0  0  0
    5.2660    1.7980   20.5620 C   0  0  0  0  0  0  0  0  0  0  0  0
    7.4190    4.9210   22.2840 C   0  0  0  0  0  0  0  0  0  0  0  0
    5.9010    3.9270   23.7180 O   0  0  0  0  0  0  0  0  0  0  0  0
    6.8490    0.0860   18.8370 C   0  0  0  0  0  0  0  0  0  0  0  0
    4.8870    1.6710   19.2410 C   0  0  0  0  0  0  0  0  0  0  0  0
    5.6510    0.7960   18.2340 C   0  0  0  0  0  0  0  0  0  0  0  0
    5.3450    0.6860   17.1010 O   0  0  0  0  0  0  0  0  0  0  0  0
  1  2  1  0
  2  3  1  0
  3  4  2  0
  3  5  1  0
  5  6  1  0
  5  7  1  0
  6  8  1  0
  7  9  1  0
  8 10  1  0
  9 10  1  0
 10 11  1  0
 11 12  1  1
 11 13  1  0
 12 14  1  0
 13 15  2  0
 13 16  1  0
 14 17  2  0
 14 18  1  0
 15 19  1  0
 16 20  2  0
 18 21  1  1
 18 22  1  0
 19 23  2  0
 20 23  1  0
 21 24  1  0
 22 25  1  0
 24 26  2  0
 24 27  1  0
 25 28  1  0
 25 29  2  0
 26 30  1  0
 27 31  2  0
 30 32  2  0
 31 32  1  0
 32 33  1  0
M  END
