NIM-NMI-8bb27a2b-16-bromoalkyne
     RDKit          3D

 27 28  0  0  0  0  0  0  0  0999 V2000
    7.3740   -3.5010   20.1960 C   0  0  0  0  0  0  0  0  0  0  0  0
    5.9050   -4.0020   19.9600 C   0  0  0  0  0  0  0  0  0  0  0  0
    7.7670   -2.2320   20.9760 N   0  0  0  0  0  0  0  0  0  0  0  0
    9.0110   -1.8500   21.8620 C   0  0  0  0  0  0  0  0  0  0  0  0
    6.8210   -1.0670   21.1150 C   0  0  2  0  0  0  0  0  0  0  0  0
   10.3520   -2.3490   21.5740 C   0  0  0  0  0  0  0  0  0  0  0  0
    8.9960   -0.9810   23.0040 C   0  0  0  0  0  0  0  0  0  0  0  0
    6.3630   -0.5060   19.7660 C   0  0  0  0  0  0  0  0  0  0  0  0
    7.3010    0.0230   22.0810 C   0  0  0  0  0  0  0  0  0  0  0  0
   11.5860   -1.9860   22.3690 C   0  0  0  0  0  0  0  0  0  0  0  0
   10.1480   -0.6460   23.7490 C   0  0  0  0  0  0  0  0  0  0  0  0
    6.3160   -1.1290   18.7120 O   0  0  0  0  0  0  0  0  0  0  0  0
    5.9480    0.8920   19.8660 N   0  0  0  0  0  0  0  0  0  0  0  0
    8.2790    1.1380   21.7080 C   0  0  0  0  0  0  0  0  0  0  0  0
    6.8120    0.0220   23.4110 C   0  0  0  0  0  0  0  0  0  0  0  0
   11.4140   -1.1530   23.4130 C   0  0  0  0  0  0  0  0  0  0  0  0
    5.0720    1.2620   20.8340 C   0  0  0  0  0  0  0  0  0  0  0  0
    8.6480    2.1330   22.7630 C   0  0  0  0  0  0  0  0  0  0  0  0
    7.1320    0.9180   24.3980 N   0  0  0  0  0  0  0  0  0  0  0  0
   12.5980   -0.9180   24.0300 C   0  0  0  0  0  0  0  0  0  0  0  0
    5.3530    2.5630   21.2240 C   0  0  0  0  0  0  0  0  0  0  0  0
    7.9950    1.9090   24.0950 C   0  0  0  0  0  0  0  0  0  0  0  0
   13.3010    0.0380   23.3720 F   0  0  0  0  0  0  0  0  0  0  0  0
   13.3920   -2.0210   24.0950 F   0  0  0  0  0  0  0  0  0  0  0  0
   12.4380   -0.4970   25.3010 F   0  0  0  0  0  0  0  0  0  0  0  0
    4.5390    3.4770   20.5590 C   0  0  0  0  0  0  0  0  0  0  0  0
    4.6870    4.7800   21.0560 C   0  0  0  0  0  0  0  0  0  0  0  0
  1  2  2  3
  1  3  1  0
  3  4  1  0
  3  5  1  0
  4  6  2  0
  4  7  1  0
  5  8  1  6
  5  9  1  0
  6 10  1  0
  7 11  2  0
  8 12  2  0
  8 13  1  0
  9 14  2  0
  9 15  1  0
 10 16  2  0
 11 16  1  0
 13 17  1  0
 14 18  1  0
 15 19  2  0
 16 20  1  0
 17 21  1  0
 18 22  2  0
 19 22  1  0
 20 23  1  0
 20 24  1  0
 20 25  1  0
 21 26  1  0
 26 27  1  0
M  END
