NIM-UNI-7ba87d62-5-bromoalkyne
     RDKit          3D

 23 25  0  0  0  0  0  0  0  0999 V2000
    6.6040   -4.2140   19.5050 C   0  0  0  0  0  0  0  0  0  0  0  0
    5.7060   -5.2980   20.0150 C   0  0  0  0  0  0  0  0  0  0  0  0
    6.4350   -2.9610   19.9660 N   0  0  0  0  0  0  0  0  0  0  0  0
    7.0080   -2.6730   21.2580 C   0  0  0  0  0  0  0  0  0  0  0  0
    7.0670   -3.7950   22.1190 N   0  0  0  0  0  0  0  0  0  0  0  0
    7.5010   -1.3840   21.6470 C   0  0  0  0  0  0  0  0  0  0  0  0
    7.6610   -3.5230   23.2960 C   0  0  0  0  0  0  0  0  0  0  0  0
    8.4140   -1.5440   22.7150 C   0  0  0  0  0  0  0  0  0  0  0  0
    7.0530   -0.2200   21.0380 C   0  0  0  0  0  0  0  0  0  0  0  0
    7.2180   -3.9150   24.3590 O   0  0  0  0  0  0  0  0  0  0  0  0
    8.6430   -2.8470   23.1730 N   0  0  0  0  0  0  0  0  0  0  0  0
    6.9050   -0.2290   19.5650 C   0  0  0  0  0  0  0  0  0  0  0  0
    6.7170    0.9420   21.8440 C   0  0  0  0  0  0  0  0  0  0  0  0
    9.5950   -2.9890   24.2110 C   0  0  0  0  0  0  0  0  0  0  0  0
    6.4050    0.9470   18.9730 C   0  0  0  0  0  0  0  0  0  0  0  0
    6.2120    2.1650   21.3380 N   0  0  0  0  0  0  0  0  0  0  0  0
    9.1630   -3.9330   25.2630 C   0  0  0  0  0  0  0  0  0  0  0  0
    6.1700    1.8610   19.9630 C   0  0  0  0  0  0  0  0  0  0  0  0
    9.7970   -5.3140   25.4250 C   0  0  0  0  0  0  0  0  0  0  0  0
    7.9390   -3.7070   26.4410 S   0  0  0  0  0  0  0  0  0  0  0  0
    9.1950   -5.9820   26.4690 C   0  0  0  0  0  0  0  0  0  0  0  0
    8.1740   -5.2730   27.1200 C   0  0  0  0  0  0  0  0  0  0  0  0
    7.1210   -5.8860   28.5770 Br  0  0  0  0  0  0  0  0  0  0  0  0
  1  2  2  3
  1  3  1  0
  3  4  1  0
  4  5  2  0
  4  6  1  0
  5  7  1  0
  6  8  2  0
  6  9  1  0
  7 10  2  0
  7 11  1  0
  8 11  1  0
  9 12  2  0
  9 13  1  0
 11 14  1  0
 12 15  1  0
 13 16  2  0
 14 17  1  0
 15 18  2  0
 16 18  1  0
 17 19  2  0
 17 20  1  0
 19 21  1  0
 20 22  1  0
 21 22  2  0
 22 23  1  0
M  END
