NIM-UNI-310206f0-13-acrylamide
     RDKit          3D

 31 33  0  0  0  0  0  0  0  0999 V2000
    7.3650   -2.8260   18.3340 C   0  0  0  0  0  0  0  0  0  0  0  0
    6.2520   -2.3200   19.2000 C   0  0  0  0  0  0  0  0  0  0  0  0
    5.8010   -3.3100   20.2180 C   0  0  0  0  0  0  0  0  0  0  0  0
    5.2040   -4.3640   19.9510 O   0  0  0  0  0  0  0  0  0  0  0  0
    6.1290   -2.9050   21.4590 N   0  0  0  0  0  0  0  0  0  0  0  0
    6.3400   -3.8180   22.5890 C   0  0  0  0  0  0  0  0  0  0  0  0
    6.5980   -1.5550   21.7020 C   0  0  0  0  0  0  0  0  0  0  0  0
    7.7590   -3.4090   23.1270 C   0  0  0  0  0  0  0  0  0  0  0  0
    6.6120   -1.3440   23.2000 C   0  0  0  0  0  0  0  0  0  0  0  0
    7.6040   -2.1510   23.9090 N   0  0  0  0  0  0  0  0  0  0  0  0
    8.6640   -1.2820   23.9620 C   0  0  0  0  0  0  0  0  0  0  0  0
    9.9980   -1.6850   23.3210 C   0  0  0  0  0  0  0  0  0  0  0  0
    8.5250    0.0060   24.5830 C   0  0  0  0  0  0  0  0  0  0  0  0
   10.3540   -2.7730   22.7050 F   0  0  0  0  0  0  0  0  0  0  0  0
   10.9720   -0.5920   23.4590 C   0  0  0  0  0  0  0  0  0  0  0  0
    9.6260    1.0710   24.6560 C   0  0  0  0  0  0  0  0  0  0  0  0
    7.3510    0.3540   25.1470 F   0  0  0  0  0  0  0  0  0  0  0  0
   10.8030    0.7390   24.0950 C   0  0  0  0  0  0  0  0  0  0  0  0
   12.0000    1.4570   23.9600 N   0  0  0  0  0  0  0  0  0  0  0  0
   12.6400    0.1720   23.5290 C   0  0  0  0  0  0  0  0  0  0  0  0
   11.5290    2.9100   23.0800 S   0  0  0  0  0  0  0  0  0  0  0  0
   13.0010   -0.0550   22.2500 N   0  0  0  0  0  0  0  0  0  0  0  0
   12.7210   -0.6940   24.5920 N   0  0  0  0  0  0  0  0  0  0  0  0
   10.5800    2.5480   22.0680 O   0  0  0  0  0  0  0  0  0  0  0  0
   11.0120    3.8850   23.9770 O   0  0  0  0  0  0  0  0  0  0  0  0
   12.9700    3.7430   22.4430 C   0  0  0  0  0  0  0  0  0  0  0  0
   13.4520   -1.2890   22.0440 C   0  0  0  0  0  0  0  0  0  0  0  0
   13.2020   -1.9500   24.3690 C   0  0  0  0  0  0  0  0  0  0  0  0
   13.3710    4.8810   23.3660 C   0  0  0  0  0  0  0  0  0  0  0  0
   12.6680    4.4030   21.1300 C   0  0  0  0  0  0  0  0  0  0  0  0
   13.5710   -2.3000   23.1030 C   0  0  0  0  0  0  0  0  0  0  0  0
  1  2  1  0
  2  3  1  0
  3  4  2  0
  3  5  1  0
  5  6  1  0
  5  7  1  0
  6  8  1  0
  7  9  1  0
  8 10  1  0
  9 10  1  0
 10 11  1  0
 11 12  2  0
 11 13  1  0
 12 14  1  0
 12 15  1  0
 13 16  2  0
 13 17  1  0
 15 18  2  0
 16 18  1  0
 18 19  1  0
 19 20  1  0
 21 19  1  0
 20 22  2  0
 20 23  1  0
 21 24  2  0
 21 25  2  0
 21 26  1  0
 22 27  1  0
 23 28  2  0
 26 29  1  0
 26 30  1  0
 27 31  2  0
 28 31  1  0
M  END
