NIM-UNI-310206f0-28-vinylsulfonamide
     RDKit          3D

 35 38  0  0  0  0  0  0  0  0999 V2000
    7.5280   -2.9280   18.3570 C   0  0  0  0  0  0  0  0  0  0  0  0
    6.9470   -2.3460   19.5860 C   0  0  0  0  0  0  0  0  0  0  0  0
    5.7000   -3.4190   20.2240 S   0  0  0  0  0  0  0  0  0  0  0  0
    4.4810   -2.9750   19.6980 O   0  0  0  0  0  0  0  0  0  0  0  0
    5.9470   -4.8080   20.0460 O   0  0  0  0  0  0  0  0  0  0  0  0
    5.8560   -3.0340   21.8140 N   0  0  0  0  0  0  0  0  0  0  0  0
    7.0270   -3.5990   22.5200 C   0  0  0  0  0  0  0  0  0  0  0  0
    5.8040   -1.5740   21.9340 C   0  0  0  0  0  0  0  0  0  0  0  0
    6.8730   -3.1730   24.0200 C   0  0  0  0  0  0  0  0  0  0  0  0
    5.7690   -1.1280   23.3780 C   0  0  0  0  0  0  0  0  0  0  0  0
    6.9240   -1.6910   24.0530 N   0  0  0  0  0  0  0  0  0  0  0  0
    8.2000   -1.1320   23.6300 C   0  0  0  0  0  0  0  0  0  0  0  0
    8.1000    0.3640   23.2120 C   0  0  0  0  0  0  0  0  0  0  0  0
    9.3670   -1.8440   23.5900 C   0  0  0  0  0  0  0  0  0  0  0  0
    6.9770    1.1020   23.2430 F   0  0  0  0  0  0  0  0  0  0  0  0
    9.4340    1.0200   22.7130 C   0  0  0  0  0  0  0  0  0  0  0  0
   10.6100   -1.2380   23.1250 C   0  0  0  0  0  0  0  0  0  0  0  0
    9.4500   -3.1140   23.9540 F   0  0  0  0  0  0  0  0  0  0  0  0
   10.6440    0.0610   22.7190 C   0  0  0  0  0  0  0  0  0  0  0  0
   11.9460    0.3390   22.3140 N   0  0  0  0  0  0  0  0  0  0  0  0
   12.5520   -0.8140   22.8340 C   0  0  0  0  0  0  0  0  0  0  0  0
   12.7730    1.5350   23.0580 S   0  0  0  0  0  0  0  0  0  0  0  0
   12.6090   -0.6990   24.2360 N   0  0  0  0  0  0  0  0  0  0  0  0
   12.9500   -1.8030   22.0210 N   0  0  0  0  0  0  0  0  0  0  0  0
   12.0920    1.5310   24.3060 O   0  0  0  0  0  0  0  0  0  0  0  0
   14.0790    0.9720   22.8500 O   0  0  0  0  0  0  0  0  0  0  0  0
   12.7900    3.1880   22.4190 C   0  0  0  0  0  0  0  0  0  0  0  0
   13.1270   -1.7480   24.7840 C   0  0  0  0  0  0  0  0  0  0  0  0
   13.4490   -2.8110   22.7130 C   0  0  0  0  0  0  0  0  0  0  0  0
   11.6140    4.1000   22.6220 C   0  0  0  0  0  0  0  0  0  0  0  0
   13.9000    3.6540   21.7510 C   0  0  0  0  0  0  0  0  0  0  0  0
   13.5460   -2.8070   24.0830 C   0  0  0  0  0  0  0  0  0  0  0  0
   11.7300    5.5110   22.0730 C   0  0  0  0  0  0  0  0  0  0  0  0
   14.0370    4.9090   21.2280 N   0  0  0  0  0  0  0  0  0  0  0  0
   13.0460    5.7950   21.3690 C   0  0  0  0  0  0  0  0  0  0  0  0
  1  2  1  0
  3  2  1  0
  3  4  2  0
  3  5  2  0
  3  6  1  0
  6  7  1  0
  6  8  1  0
  7  9  1  0
  8 10  1  0
  9 11  1  0
 10 11  1  0
 11 12  1  0
 12 13  2  0
 12 14  1  0
 13 15  1  0
 13 16  1  0
 14 17  2  0
 14 18  1  0
 16 19  2  0
 17 19  1  0
 19 20  1  0
 20 21  1  0
 22 20  1  0
 21 23  2  0
 21 24  1  0
 22 25  2  0
 22 26  2  0
 22 27  1  0
 23 28  1  0
 24 29  2  0
 27 30  2  0
 27 31  1  0
 28 32  2  0
 29 32  1  0
 30 33  1  0
 31 34  2  0
 33 35  2  0
 34 35  1  0
M  END
