NIM-UNI-310206f0-58-vinylsulfonamide
     RDKit          3D

 36 39  0  0  0  0  0  0  0  0999 V2000
    6.3030   -3.9380   19.8950 C   0  0  0  0  0  0  0  0  0  0  0  0
    6.2560   -3.2070   21.2380 C   0  0  0  0  0  0  0  0  0  0  0  0
    5.9010   -4.4090   22.4900 S   0  0  0  0  0  0  0  0  0  0  0  0
    4.6250   -4.9940   22.1490 O   0  0  0  0  0  0  0  0  0  0  0  0
    7.1010   -5.2340   22.6250 O   0  0  0  0  0  0  0  0  0  0  0  0
    5.6340   -3.4860   23.8930 N   0  0  0  0  0  0  0  0  0  0  0  0
    4.4310   -2.6170   24.0040 C   0  0  0  0  0  0  0  0  0  0  0  0
    6.3080   -3.8980   25.1420 C   0  0  0  0  0  0  0  0  0  0  0  0
    4.5840   -1.6540   25.0400 C   0  0  0  0  0  0  0  0  0  0  0  0
    5.7690   -3.2600   26.2880 C   0  0  0  0  0  0  0  0  0  0  0  0
    5.5870   -1.8130   26.0010 N   0  0  0  0  0  0  0  0  0  0  0  0
    6.8280   -1.2050   25.7550 C   0  0  0  0  0  0  0  0  0  0  0  0
    7.7170   -0.6240   26.8290 C   0  0  0  0  0  0  0  0  0  0  0  0
    7.3190   -1.1040   24.4820 C   0  0  0  0  0  0  0  0  0  0  0  0
    7.3600   -0.6500   28.1260 F   0  0  0  0  0  0  0  0  0  0  0  0
    8.9600   -0.0350   26.5170 C   0  0  0  0  0  0  0  0  0  0  0  0
    8.5220   -0.5310   24.1470 C   0  0  0  0  0  0  0  0  0  0  0  0
    6.6110   -1.5830   23.4490 F   0  0  0  0  0  0  0  0  0  0  0  0
    9.4590    0.0720   25.2070 C   0  0  0  0  0  0  0  0  0  0  0  0
   10.5800    0.5840   24.6120 N   0  0  0  0  0  0  0  0  0  0  0  0
   10.0530    0.2050   23.4860 C   0  0  0  0  0  0  0  0  0  0  0  0
   12.0510   -0.2800   24.6230 S   0  0  0  0  0  0  0  0  0  0  0  0
    8.8030    0.7210   23.0690 C   0  0  0  0  0  0  0  0  0  0  0  0
   10.7650   -0.7770   22.7480 C   0  0  0  0  0  0  0  0  0  0  0  0
   12.7280   -0.0280   23.3640 O   0  0  0  0  0  0  0  0  0  0  0  0
   12.7890   -0.2540   25.8350 O   0  0  0  0  0  0  0  0  0  0  0  0
   11.2800   -1.8560   24.6060 C   0  0  0  0  0  0  0  0  0  0  0  0
    8.2020    0.1800   21.8230 C   0  0  0  0  0  0  0  0  0  0  0  0
   10.1830   -1.2780   21.5920 C   0  0  0  0  0  0  0  0  0  0  0  0
   12.1300   -1.5310   22.8760 C   0  0  0  0  0  0  0  0  0  0  0  0
   12.0500   -3.1570   24.5940 C   0  0  0  0  0  0  0  0  0  0  0  0
    8.9370   -0.8680   21.0890 C   0  0  0  0  0  0  0  0  0  0  0  0
   11.0520   -2.2050   21.0890 N   0  0  0  0  0  0  0  0  0  0  0  0
   12.2440   -2.4660   21.7170 C   0  0  0  0  0  0  0  0  0  0  0  0
   12.9550   -3.3710   25.6570 O   0  0  0  0  0  0  0  0  0  0  0  0
   14.0330   -2.5020   25.6230 C   0  0  0  0  0  0  0  0  0  0  0  0
  1  2  1  0
  3  2  1  0
  3  4  2  0
  3  5  2  0
  3  6  1  0
  6  7  1  0
  6  8  1  0
  7  9  1  0
  8 10  1  0
  9 11  1  0
 10 11  1  0
 11 12  1  0
 12 13  2  0
 12 14  1  0
 13 15  1  0
 13 16  1  0
 14 17  2  0
 14 18  1  0
 16 19  2  0
 17 19  1  0
 19 20  1  0
 20 21  1  0
 22 20  1  0
 21 23  2  0
 21 24  1  0
 22 25  2  0
 22 26  2  0
 22 27  1  0
 23 28  1  0
 24 29  2  0
 24 30  1  0
 27 31  1  0
 28 32  2  0
 29 32  1  0
 29 33  1  0
 30 34  2  0
 33 34  1  0
 31 35  1  0
 35 36  1  0
M  END
