NIM-UNI-310206f0-16-vinylsulfonamide
     RDKit          3D

 36 39  0  0  0  0  0  0  0  0999 V2000
    7.2140   -3.1860   19.2900 C   0  0  0  0  0  0  0  0  0  0  0  0
    7.3000   -2.4620   20.6300 C   0  0  0  0  0  0  0  0  0  0  0  0
    5.7660   -2.7690   21.4530 S   0  0  0  0  0  0  0  0  0  0  0  0
    5.2980   -4.0260   20.9340 O   0  0  0  0  0  0  0  0  0  0  0  0
    4.9920   -1.5580   21.3220 O   0  0  0  0  0  0  0  0  0  0  0  0
    6.0960   -3.0070   23.0730 N   0  0  0  0  0  0  0  0  0  0  0  0
    6.2760   -4.3800   23.5870 C   0  0  0  0  0  0  0  0  0  0  0  0
    5.3170   -2.1230   23.9630 C   0  0  0  0  0  0  0  0  0  0  0  0
    6.9910   -4.2410   24.9940 C   0  0  0  0  0  0  0  0  0  0  0  0
    6.0220   -1.9550   25.3140 C   0  0  0  0  0  0  0  0  0  0  0  0
    7.2280   -2.8020   25.3210 N   0  0  0  0  0  0  0  0  0  0  0  0
    8.5290   -2.2250   24.8980 C   0  0  0  0  0  0  0  0  0  0  0  0
    8.3530   -1.0760   23.9000 C   0  0  0  0  0  0  0  0  0  0  0  0
    9.7840   -2.6440   25.3260 C   0  0  0  0  0  0  0  0  0  0  0  0
    7.1670   -0.6310   23.4590 F   0  0  0  0  0  0  0  0  0  0  0  0
    9.6680   -0.4040   23.3800 C   0  0  0  0  0  0  0  0  0  0  0  0
   11.0590   -1.9790   24.8190 C   0  0  0  0  0  0  0  0  0  0  0  0
    9.9090   -3.6570   26.2040 F   0  0  0  0  0  0  0  0  0  0  0  0
   11.0470   -0.9350   23.9080 C   0  0  0  0  0  0  0  0  0  0  0  0
   12.2570   -0.3010   23.4200 N   0  0  0  0  0  0  0  0  0  0  0  0
   13.1460   -1.0440   22.4840 C   0  0  0  0  0  0  0  0  0  0  0  0
   11.9590    1.0880   23.1080 C   0  0  0  0  0  0  0  0  0  0  0  0
   13.6010   -0.5060   21.5120 O   0  0  0  0  0  0  0  0  0  0  0  0
   13.4990   -2.3780   22.6830 N   0  0  0  0  0  0  0  0  0  0  0  0
   10.6570    1.4630   22.9280 N   0  0  0  0  0  0  0  0  0  0  0  0
   12.9710    1.9620   23.0000 N   0  0  0  0  0  0  0  0  0  0  0  0
   13.0390   -3.0850   21.6380 C   0  0  0  0  0  0  0  0  0  0  0  0
   10.3460    2.7510   22.6280 C   0  0  0  0  0  0  0  0  0  0  0  0
   12.7180    3.2490   22.7060 C   0  0  0  0  0  0  0  0  0  0  0  0
   13.5330   -4.1330   20.7730 C   0  0  0  0  0  0  0  0  0  0  0  0
   11.7810   -2.8200   21.2230 C   0  0  0  0  0  0  0  0  0  0  0  0
   11.3060    3.7270   22.4920 C   0  0  0  0  0  0  0  0  0  0  0  0
   14.8340   -4.9190   20.6510 C   0  0  0  0  0  0  0  0  0  0  0  0
   12.5770   -4.4600   19.9130 N   0  0  0  0  0  0  0  0  0  0  0  0
   11.5160   -3.6520   20.1950 O   0  0  0  0  0  0  0  0  0  0  0  0
   10.6790   -1.8570   21.6710 C   0  0  0  0  0  0  0  0  0  0  0  0
  1  2  1  0
  3  2  1  0
  3  4  2  0
  3  5  2  0
  3  6  1  0
  6  7  1  0
  6  8  1  0
  7  9  1  0
  8 10  1  0
  9 11  1  0
 10 11  1  0
 11 12  1  0
 12 13  2  0
 12 14  1  0
 13 15  1  0
 13 16  1  0
 14 17  2  0
 14 18  1  0
 16 19  2  0
 17 19  1  0
 19 20  1  0
 20 21  1  0
 20 22  1  0
 21 23  2  0
 21 24  1  0
 22 25  2  0
 22 26  1  0
 24 27  1  0
 25 28  1  0
 26 29  2  0
 27 30  1  0
 27 31  2  0
 28 32  2  0
 29 32  1  0
 30 33  1  0
 30 34  2  0
 31 35  1  0
 34 35  1  0
 31 36  1  0
M  END
