NIM-UNI-310206f0-62-vinylsulfonamide
     RDKit          3D

 38 42  0  0  0  0  0  0  0  0999 V2000
    7.5410   -2.8750   18.2140 C   0  0  0  0  0  0  0  0  0  0  0  0
    6.7590   -2.0200   19.1570 C   0  0  0  0  0  0  0  0  0  0  0  0
    5.7130   -2.9130   20.2860 S   0  0  0  0  0  0  0  0  0  0  0  0
    5.1540   -4.1940   19.8330 O   0  0  0  0  0  0  0  0  0  0  0  0
    4.8640   -1.8840   20.7370 O   0  0  0  0  0  0  0  0  0  0  0  0
    6.7490   -3.0630   21.5740 N   0  0  0  0  0  0  0  0  0  0  0  0
    6.5350   -4.1040   22.6030 C   0  0  0  0  0  0  0  0  0  0  0  0
    6.8980   -1.7170   22.0790 C   0  0  0  0  0  0  0  0  0  0  0  0
    7.1590   -3.7440   23.8380 C   0  0  0  0  0  0  0  0  0  0  0  0
    6.2180   -1.6530   23.4240 C   0  0  0  0  0  0  0  0  0  0  0  0
    7.0950   -2.4230   24.3080 N   0  0  0  0  0  0  0  0  0  0  0  0
    8.2080   -1.6120   24.3630 C   0  0  0  0  0  0  0  0  0  0  0  0
    8.2860   -0.4300   25.2950 C   0  0  0  0  0  0  0  0  0  0  0  0
    9.2990   -1.8120   23.5530 C   0  0  0  0  0  0  0  0  0  0  0  0
    7.3000   -0.1040   26.1500 F   0  0  0  0  0  0  0  0  0  0  0  0
    9.4160    0.3720   25.2680 C   0  0  0  0  0  0  0  0  0  0  0  0
   10.3670   -1.0060   23.5750 C   0  0  0  0  0  0  0  0  0  0  0  0
    9.3740   -2.7980   22.6840 F   0  0  0  0  0  0  0  0  0  0  0  0
   10.4560    0.0820   24.3980 C   0  0  0  0  0  0  0  0  0  0  0  0
   11.5910    0.6650   24.1580 N   0  0  0  0  0  0  0  0  0  0  0  0
   12.0990   -0.4200   23.5250 C   0  0  0  0  0  0  0  0  0  0  0  0
   11.4180    2.0990   23.2500 S   0  0  0  0  0  0  0  0  0  0  0  0
   11.8260   -0.6530   22.2130 C   0  0  0  0  0  0  0  0  0  0  0  0
   12.8670   -1.3520   24.1830 C   0  0  0  0  0  0  0  0  0  0  0  0
   11.2610    3.2660   24.0590 O   0  0  0  0  0  0  0  0  0  0  0  0
   12.4360    2.0860   22.2720 O   0  0  0  0  0  0  0  0  0  0  0  0
    9.8310    2.0190   22.4650 C   0  0  0  0  0  0  0  0  0  0  0  0
   12.3470   -1.8610   21.5000 C   0  0  0  0  0  0  0  0  0  0  0  0
   13.3740   -2.5040   23.5570 C   0  0  0  0  0  0  0  0  0  0  0  0
   13.3350   -1.4240   25.5740 C   0  0  0  0  0  0  0  0  0  0  0  0
    9.2300    0.7740   21.8270 C   0  0  0  0  0  0  0  0  0  0  0  0
    9.0570    3.1880   22.4200 C   0  0  0  0  0  0  0  0  0  0  0  0
   13.1630   -2.8160   22.2360 C   0  0  0  0  0  0  0  0  0  0  0  0
   14.0700   -3.1940   24.4890 N   0  0  0  0  0  0  0  0  0  0  0  0
   14.1340   -2.6760   25.7550 C   0  0  0  0  0  0  0  0  0  0  0  0
    7.8690    0.8760   21.1950 C   0  0  0  0  0  0  0  0  0  0  0  0
    7.7830    3.3190   21.8440 N   0  0  0  0  0  0  0  0  0  0  0  0
    7.1930    2.2270   21.2500 C   0  0  0  0  0  0  0  0  0  0  0  0
  1  2  1  0
  3  2  1  0
  3  4  2  0
  3  5  2  0
  3  6  1  0
  6  7  1  0
  6  8  1  0
  7  9  1  0
  8 10  1  0
  9 11  1  0
 10 11  1  0
 11 12  1  0
 12 13  2  0
 12 14  1  0
 13 15  1  0
 13 16  1  0
 14 17  2  0
 14 18  1  0
 16 19  2  0
 17 19  1  0
 19 20  1  0
 20 21  1  0
 22 20  1  0
 21 23  2  0
 21 24  1  0
 22 25  2  0
 22 26  2  0
 22 27  1  0
 23 28  1  0
 24 29  2  0
 24 30  1  0
 27 31  2  0
 27 32  1  0
 28 33  2  0
 29 33  1  0
 29 34  1  0
 30 35  2  0
 34 35  1  0
 31 36  1  0
 32 37  2  0
 36 38  2  0
 37 38  1  0
M  END
