NIM-UNI-310206f0-17-chloroacetamide
     RDKit          3D

 35 38  0  0  0  0  0  0  0  0999 V2000
    7.1480   -3.0340   18.8270 C   0  0  0  0  0  0  0  0  0  0  0  0
    6.1940   -3.3630   19.9480 C   0  0  0  0  0  0  0  0  0  0  0  0
    5.3470   -4.2590   19.8030 O   0  0  0  0  0  0  0  0  0  0  0  0
    6.3560   -2.6160   21.0950 N   0  0  0  0  0  0  0  0  0  0  0  0
    7.5320   -1.7840   21.2940 C   0  0  0  0  0  0  0  0  0  0  0  0
    5.7950   -3.0890   22.3840 C   0  0  0  0  0  0  0  0  0  0  0  0
    8.3050   -2.7460   22.2360 C   0  0  0  0  0  0  0  0  0  0  0  0
    6.4030   -2.3650   23.6270 C   0  0  0  0  0  0  0  0  0  0  0  0
    7.8660   -2.1810   23.5060 N   0  0  0  0  0  0  0  0  0  0  0  0
    8.5080   -0.8550   23.5760 C   0  0  0  0  0  0  0  0  0  0  0  0
    9.9890   -0.9860   23.9610 C   0  0  0  0  0  0  0  0  0  0  0  0
    7.9250    0.3880   23.3170 C   0  0  0  0  0  0  0  0  0  0  0  0
   10.6030   -2.1530   24.2180 F   0  0  0  0  0  0  0  0  0  0  0  0
   10.8070    0.3500   24.0360 C   0  0  0  0  0  0  0  0  0  0  0  0
    8.7290    1.6690   23.3790 C   0  0  0  0  0  0  0  0  0  0  0  0
    6.6270    0.5080   22.9850 F   0  0  0  0  0  0  0  0  0  0  0  0
   10.0750    1.6890   23.7020 C   0  0  0  0  0  0  0  0  0  0  0  0
   10.7950    2.9470   23.7170 N   0  0  0  0  0  0  0  0  0  0  0  0
   11.9720    2.9470   22.8620 C   0  0  0  0  0  0  0  0  0  0  0  0
   10.0030    4.1720   23.6830 C   0  0  0  0  0  0  0  0  0  0  0  0
   12.3660    3.9350   22.2380 O   0  0  0  0  0  0  0  0  0  0  0  0
   12.6350    1.7520   22.7910 N   0  0  0  0  0  0  0  0  0  0  0  0
    8.8150    4.2160   24.3900 N   0  0  0  0  0  0  0  0  0  0  0  0
   10.5090    5.2310   22.9240 N   0  0  0  0  0  0  0  0  0  0  0  0
   11.8460    0.7610   23.0590 C   0  0  0  0  0  0  0  0  0  0  0  0
    8.0590    5.3480   24.3630 C   0  0  0  0  0  0  0  0  0  0  0  0
    9.7990    6.3640   22.8670 C   0  0  0  0  0  0  0  0  0  0  0  0
   12.4200   -0.4420   23.3180 C   0  0  0  0  0  0  0  0  0  0  0  0
    8.4860    6.5170   23.5990 C   0  0  0  0  0  0  0  0  0  0  0  0
   12.6250   -1.4300   22.2400 C   0  0  0  0  0  0  0  0  0  0  0  0
   12.8190   -0.7170   24.6290 C   0  0  0  0  0  0  0  0  0  0  0  0
   13.2530   -2.7060   22.4680 C   0  0  0  0  0  0  0  0  0  0  0  0
   13.4850   -2.0110   24.9860 C   0  0  0  0  0  0  0  0  0  0  0  0
   13.6830   -2.9570   23.8890 C   0  0  0  0  0  0  0  0  0  0  0  0
   13.9040   -2.3390   26.1950 F   0  0  0  0  0  0  0  0  0  0  0  0
  1  2  1  0
  2  3  2  0
  2  4  1  0
  4  5  1  0
  4  6  1  0
  5  7  1  0
  6  8  1  0
  7  9  1  0
  8  9  1  0
  9 10  1  0
 10 11  2  0
 10 12  1  0
 11 13  1  0
 11 14  1  0
 12 15  2  0
 12 16  1  0
 14 17  2  0
 15 17  1  0
 17 18  1  0
 18 19  1  0
 18 20  1  0
 19 21  2  0
 19 22  1  0
 20 23  2  0
 20 24  1  0
 22 25  1  0
 23 26  1  0
 24 27  2  0
 25 28  1  0
 26 29  2  0
 27 29  1  0
 28 30  2  0
 28 31  1  0
 30 32  1  0
 31 33  2  0
 32 34  2  0
 33 34  1  0
 33 35  1  0
M  END
