NIM-NMI-8bb27a2b-28-vinylsulfonamide
     RDKit          3D

 34 36  0  0  0  0  0  0  0  0999 V2000
    8.2240   -4.7490   21.0980 C   0  0  0  0  0  0  0  0  0  0  0  0
    6.9470   -4.8940   21.8480 C   0  0  0  0  0  0  0  0  0  0  0  0
    6.3010   -3.3270   22.2920 S   0  0  0  0  0  0  0  0  0  0  0  0
    4.9770   -3.3890   21.4930 O   0  0  0  0  0  0  0  0  0  0  0  0
    6.2510   -3.3580   23.7380 O   0  0  0  0  0  0  0  0  0  0  0  0
    7.4320   -1.9760   21.8790 N   0  0  0  0  0  0  0  0  0  0  0  0
    8.8700   -1.5390   22.3590 C   0  0  0  0  0  0  0  0  0  0  0  0
    6.5520   -0.8440   21.5380 C   0  0  1  0  0  0  0  0  0  0  0  0
    9.0010   -0.5090   23.4480 C   0  0  0  0  0  0  0  0  0  0  0  0
   10.1150   -2.0000   21.8360 C   0  0  0  0  0  0  0  0  0  0  0  0
    6.5400    0.2710   22.5640 C   0  0  0  0  0  0  0  0  0  0  0  0
    6.4980   -0.2500   20.1830 C   0  0  0  0  0  0  0  0  0  0  0  0
   10.3700   -0.0050   23.9220 C   0  0  0  0  0  0  0  0  0  0  0  0
   11.3560   -1.5290   22.2790 C   0  0  0  0  0  0  0  0  0  0  0  0
    7.3070    1.1460   22.8110 O   0  0  0  0  0  0  0  0  0  0  0  0
    5.2860    0.2330   23.3350 N   0  0  0  0  0  0  0  0  0  0  0  0
    5.4600   -0.2100   19.0250 C   0  0  0  0  0  0  0  0  0  0  0  0
    5.4400   -0.6310   19.8520 C   0  0  0  0  0  0  0  0  0  0  0  0
   11.4460   -0.5610   23.2840 C   0  0  0  0  0  0  0  0  0  0  0  0
    4.1480   -0.3650   22.8570 C   0  0  0  0  0  0  0  0  0  0  0  0
    5.5140    0.4360   17.8100 C   0  0  0  0  0  0  0  0  0  0  0  0
    6.5480    0.2180   19.2790 N   0  0  0  0  0  0  0  0  0  0  0  0
   12.5910   -0.0620   23.7340 C   0  0  0  0  0  0  0  0  0  0  0  0
    3.4090    0.5270   22.0690 C   0  0  0  0  0  0  0  0  0  0  0  0
    6.5840    0.8300   18.1040 C   0  0  0  0  0  0  0  0  0  0  0  0
   12.5300    1.2900   23.7930 F   0  0  0  0  0  0  0  0  0  0  0  0
   12.9220   -0.5460   24.9600 F   0  0  0  0  0  0  0  0  0  0  0  0
   13.5920   -0.3670   22.8800 F   0  0  0  0  0  0  0  0  0  0  0  0
    2.4150    1.2660   22.6570 C   0  0  0  0  0  0  0  0  0  0  0  0
    3.6140    0.7110   20.7280 C   0  0  0  0  0  0  0  0  0  0  0  0
    1.5620    2.2130   22.0300 C   0  0  0  0  0  0  0  0  0  0  0  0
    2.8570    1.6090   19.9940 C   0  0  0  0  0  0  0  0  0  0  0  0
    1.8160    2.4200   20.4720 C   0  0  0  0  0  0  0  0  0  0  0  0
    0.9090    3.5160   19.5080 Cl  0  0  0  0  0  0  0  0  0  0  0  0
  1  2  1  0
  2  3  1  0
  3  4  2  0
  3  5  2  0
  3  6  1  0
  6  7  1  0
  6  8  1  0
  7  9  2  0
  7 10  1  0
  8 11  1  1
  8 12  1  0
  9 13  1  0
 10 14  2  0
 11 15  2  0
 11 16  1  0
 12 17  2  0
 12 18  1  0
 13 19  2  0
 14 19  1  0
 16 20  1  0
 17 21  1  0
 18 22  2  0
 19 23  1  0
 20 24  1  0
 21 25  2  0
 22 25  1  0
 23 26  1  0
 23 27  1  0
 23 28  1  0
 24 29  2  0
 24 30  1  0
 29 31  1  0
 30 32  2  0
 31 33  2  0
 32 33  1  0
 33 34  1  0
M  END
