NIM-NMI-8bb27a2b-16-vinylsulfonamide
     RDKit          3D

 30 31  0  0  0  0  0  0  0  0999 V2000
    7.0650   -4.8760   20.3640 C   0  0  0  0  0  0  0  0  0  0  0  0
    7.2390   -3.9580   21.5380 C   0  0  0  0  0  0  0  0  0  0  0  0
    6.2650   -2.5470   21.1600 S   0  0  0  0  0  0  0  0  0  0  0  0
    4.8130   -3.0990   21.4670 O   0  0  0  0  0  0  0  0  0  0  0  0
    6.4040   -2.1480   19.7850 O   0  0  0  0  0  0  0  0  0  0  0  0
    7.3120   -1.2830   22.0040 N   0  0  0  0  0  0  0  0  0  0  0  0
    8.8570   -1.2260   22.2030 C   0  0  0  0  0  0  0  0  0  0  0  0
    7.1070    0.1960   21.7900 C   0  0  1  0  0  0  0  0  0  0  0  0
    9.3190    0.0520   22.8450 C   0  0  0  0  0  0  0  0  0  0  0  0
    9.8980   -2.1260   21.8820 C   0  0  0  0  0  0  0  0  0  0  0  0
    7.3340    0.7600   20.3470 C   0  0  0  0  0  0  0  0  0  0  0  0
    6.0080    0.7770   22.6790 C   0  0  0  0  0  0  0  0  0  0  0  0
   10.7860    0.3440   23.1130 C   0  0  0  0  0  0  0  0  0  0  0  0
   11.2430   -1.8360   22.1490 C   0  0  0  0  0  0  0  0  0  0  0  0
    8.0670    1.6400   20.7610 O   0  0  0  0  0  0  0  0  0  0  0  0
    6.4550   -0.3460   20.1240 N   0  0  0  0  0  0  0  0  0  0  0  0
    5.1600   -0.0760   23.6170 C   0  0  0  0  0  0  0  0  0  0  0  0
    5.7450    2.1590   22.6670 C   0  0  0  0  0  0  0  0  0  0  0  0
   11.6380   -0.6380   22.7430 C   0  0  0  0  0  0  0  0  0  0  0  0
    5.1210   -0.1510   19.9580 C   0  0  0  0  0  0  0  0  0  0  0  0
    4.1220    0.6100   24.4470 C   0  0  0  0  0  0  0  0  0  0  0  0
    4.8020    2.8070   23.4160 N   0  0  0  0  0  0  0  0  0  0  0  0
   12.9060   -0.3420   22.9990 C   0  0  0  0  0  0  0  0  0  0  0  0
    4.8610    1.2050   20.0190 C   0  0  0  0  0  0  0  0  0  0  0  0
    4.0240    2.0950   24.2640 C   0  0  0  0  0  0  0  0  0  0  0  0
   13.1140    0.9940   23.0940 F   0  0  0  0  0  0  0  0  0  0  0  0
   13.6830   -0.8150   22.0080 F   0  0  0  0  0  0  0  0  0  0  0  0
   13.3160   -0.9220   24.1530 F   0  0  0  0  0  0  0  0  0  0  0  0
    4.5730    1.6670   18.7500 C   0  0  0  0  0  0  0  0  0  0  0  0
    3.8040    2.8290   18.6850 C   0  0  0  0  0  0  0  0  0  0  0  0
  1  2  1  0
  2  3  1  0
  3  4  2  0
  3  5  2  0
  3  6  1  0
  6  7  1  0
  6  8  1  0
  7  9  2  0
  7 10  1  0
  8 11  1  6
  8 12  1  0
  9 13  1  0
 10 14  2  0
 11 15  2  0
 11 16  1  0
 12 17  2  0
 12 18  1  0
 13 19  2  0
 14 19  1  0
 16 20  1  0
 17 21  1  0
 18 22  2  0
 19 23  1  0
 20 24  1  0
 21 25  2  0
 22 25  1  0
 23 26  1  0
 23 27  1  0
 23 28  1  0
 24 29  1  0
 29 30  1  0
M  END
