NIM-UNI-310206f0-59-vinylsulfonamide
     RDKit          3D

 39 43  0  0  0  0  0  0  0  0999 V2000
    7.9920   -3.3500   19.1810 C   0  0  0  0  0  0  0  0  0  0  0  0
    6.8640   -2.4440   18.7150 C   0  0  0  0  0  0  0  0  0  0  0  0
    5.5360   -2.4420   19.8470 S   0  0  0  0  0  0  0  0  0  0  0  0
    4.9380   -3.7310   19.6690 O   0  0  0  0  0  0  0  0  0  0  0  0
    4.7980   -1.2470   19.6050 O   0  0  0  0  0  0  0  0  0  0  0  0
    6.2830   -2.2540   21.3360 N   0  0  0  0  0  0  0  0  0  0  0  0
    5.6650   -2.6600   22.6240 C   0  0  0  0  0  0  0  0  0  0  0  0
    7.7130   -2.0700   21.3850 C   0  0  0  0  0  0  0  0  0  0  0  0
    6.4680   -2.2390   23.7430 C   0  0  0  0  0  0  0  0  0  0  0  0
    8.2290   -2.9830   22.4700 C   0  0  0  0  0  0  0  0  0  0  0  0
    7.8670   -2.3320   23.6910 N   0  0  0  0  0  0  0  0  0  0  0  0
    8.7170   -1.2460   23.6980 C   0  0  0  0  0  0  0  0  0  0  0  0
    8.2790    0.1920   23.5180 C   0  0  0  0  0  0  0  0  0  0  0  0
   10.0790   -1.4250   23.8340 C   0  0  0  0  0  0  0  0  0  0  0  0
    6.9930    0.5520   23.3770 F   0  0  0  0  0  0  0  0  0  0  0  0
    9.2250    1.2170   23.4730 C   0  0  0  0  0  0  0  0  0  0  0  0
   10.9410   -0.3680   23.7850 C   0  0  0  0  0  0  0  0  0  0  0  0
   10.6380   -2.6290   24.0000 F   0  0  0  0  0  0  0  0  0  0  0  0
   10.5910    0.9460   23.5970 C   0  0  0  0  0  0  0  0  0  0  0  0
   11.6250    1.7870   23.5390 N   0  0  0  0  0  0  0  0  0  0  0  0
   12.6040    1.1200   22.8870 C   0  0  0  0  0  0  0  0  0  0  0  0
   11.4490    3.1500   23.2560 C   0  0  0  0  0  0  0  0  0  0  0  0
   13.8050    1.5730   22.7120 O   0  0  0  0  0  0  0  0  0  0  0  0
   12.2670   -0.1190   22.3520 N   0  0  0  0  0  0  0  0  0  0  0  0
   12.6470    3.7990   22.4810 C   0  0  0  0  0  0  0  0  0  0  0  0
   10.2320    3.7760   23.7000 C   0  0  0  0  0  0  0  0  0  0  0  0
   12.7440   -1.1430   23.0250 C   0  0  0  0  0  0  0  0  0  0  0  0
   12.1350    5.2380   22.3520 C   0  0  0  0  0  0  0  0  0  0  0  0
    9.9790    5.1210   23.4690 C   0  0  0  0  0  0  0  0  0  0  0  0
    9.0810    3.3860   24.3850 C   0  0  0  0  0  0  0  0  0  0  0  0
   13.2140   -2.3040   22.3730 C   0  0  0  0  0  0  0  0  0  0  0  0
   12.8730   -1.3040   24.3180 C   0  0  0  0  0  0  0  0  0  0  0  0
   10.8390    5.8390   22.8440 C   0  0  0  0  0  0  0  0  0  0  0  0
    8.7420    5.5130   23.9900 N   0  0  0  0  0  0  0  0  0  0  0  0
    8.1900    4.4160   24.5610 C   0  0  0  0  0  0  0  0  0  0  0  0
   13.2040   -2.4770   20.9190 C   0  0  0  0  0  0  0  0  0  0  0  0
   13.6530   -3.1640   23.2980 N   0  0  0  0  0  0  0  0  0  0  0  0
   13.4560   -2.5810   24.5450 O   0  0  0  0  0  0  0  0  0  0  0  0
   12.5630   -0.5060   25.3310 C   0  0  0  0  0  0  0  0  0  0  0  0
  1  2  1  0
  3  2  1  0
  3  4  2  0
  3  5  2  0
  3  6  1  0
  6  7  1  0
  6  8  1  0
  7  9  1  0
  8 10  1  0
  9 11  1  0
 10 11  1  0
 11 12  1  0
 12 13  2  0
 12 14  1  0
 13 15  1  0
 13 16  1  0
 14 17  2  0
 14 18  1  0
 16 19  2  0
 17 19  1  0
 19 20  1  0
 20 21  1  0
 20 22  1  0
 21 23  2  0
 21 24  1  0
 22 25  2  0
 22 26  1  0
 24 27  1  0
 25 28  1  0
 26 29  2  0
 26 30  1  0
 27 31  1  0
 27 32  2  0
 28 33  2  0
 29 33  1  0
 29 34  1  0
 30 35  2  0
 34 35  1  0
 31 36  1  0
 31 37  2  0
 32 38  1  0
 37 38  1  0
 32 39  1  0
M  END
