NIM-NMI-8bb27a2b-2-chloroacetamide
     RDKit          3D

 27 28  0  0  0  0  0  0  0  0999 V2000
    8.1060   -3.8660   20.4330 C   0  0  0  0  0  0  0  0  0  0  0  0
    7.4390   -2.6110   20.0380 C   0  0  0  0  0  0  0  0  0  0  0  0
    6.6530   -2.7780   18.9700 O   0  0  0  0  0  0  0  0  0  0  0  0
    7.6190   -1.4250   20.8450 N   0  0  0  0  0  0  0  0  0  0  0  0
    8.6680   -1.0560   21.9070 C   0  0  0  0  0  0  0  0  0  0  0  0
    6.2740   -0.9880   21.1840 C   0  0  2  0  0  0  0  0  0  0  0  0
   10.1170   -1.1070   21.8430 C   0  0  0  0  0  0  0  0  0  0  0  0
    8.4810   -0.5780   23.1330 N   0  0  0  0  0  0  0  0  0  0  0  0
    5.3360   -2.2380   21.3650 C   0  0  0  0  0  0  0  0  0  0  0  0
    5.8550   -0.0820   20.0710 C   0  0  0  0  0  0  0  0  0  0  0  0
   10.7150   -0.6210   23.0930 C   0  0  0  0  0  0  0  0  0  0  0  0
    9.7320   -0.3300   23.8090 O   0  0  0  0  0  0  0  0  0  0  0  0
    4.7260   -3.2160   21.7630 O   0  0  0  0  0  0  0  0  0  0  0  0
    6.0630   -2.0590   22.5220 N   0  0  0  0  0  0  0  0  0  0  0  0
    4.7080    0.8340   20.0950 C   0  0  0  0  0  0  0  0  0  0  0  0
    6.5430   -0.0520   18.8970 C   0  0  0  0  0  0  0  0  0  0  0  0
   12.0680   -0.5170   23.3740 C   0  0  0  0  0  0  0  0  0  0  0  0
    6.6040   -3.1650   23.1280 C   0  0  0  0  0  0  0  0  0  0  0  0
    4.4430    1.6460   18.8830 C   0  0  0  0  0  0  0  0  0  0  0  0
    6.2440    0.7140   17.8320 N   0  0  0  0  0  0  0  0  0  0  0  0
   12.7340   -1.1260   22.3620 C   0  0  0  0  0  0  0  0  0  0  0  0
   12.7100    0.8710   23.2800 C   0  0  0  0  0  0  0  0  0  0  0  0
   12.4650   -1.3940   24.5770 C   0  0  0  0  0  0  0  0  0  0  0  0
    5.9640   -4.4170   23.1160 C   0  0  0  0  0  0  0  0  0  0  0  0
    5.2490    1.6410   17.5790 C   0  0  0  0  0  0  0  0  0  0  0  0
    6.7630   -5.5310   23.3750 C   0  0  0  0  0  0  0  0  0  0  0  0
    6.3140   -6.6990   22.7250 C   0  0  0  0  0  0  0  0  0  0  0  0
  1  2  1  0
  2  3  2  0
  2  4  1  0
  4  5  1  0
  4  6  1  0
  5  7  1  0
  5  8  2  0
  6  9  1  6
  6 10  1  0
  7 11  2  0
  8 12  1  0
 11 12  1  0
  9 13  2  0
  9 14  1  0
 10 15  2  0
 10 16  1  0
 11 17  1  0
 14 18  1  0
 15 19  1  0
 16 20  2  0
 17 21  1  0
 17 22  1  0
 17 23  1  0
 18 24  1  0
 19 25  2  0
 20 25  1  0
 24 26  1  0
 26 27  1  0
M  END
