NIM-NMI-8bb27a2b-20-chloroacetamide
     RDKit          3D

 31 33  0  0  0  0  0  0  0  0999 V2000
    8.2690   -3.3440   19.8710 C   0  0  0  0  0  0  0  0  0  0  0  0
    6.9290   -3.5990   20.6290 C   0  0  0  0  0  0  0  0  0  0  0  0
    6.5620   -3.8390   19.4580 O   0  0  0  0  0  0  0  0  0  0  0  0
    7.6300   -3.2530   21.8630 N   0  0  0  0  0  0  0  0  0  0  0  0
    8.9080   -2.4930   22.0270 C   0  0  0  0  0  0  0  0  0  0  0  0
    6.7850   -2.9540   23.1100 C   0  0  2  0  0  0  0  0  0  0  0  0
    8.8070   -1.0360   22.2110 C   0  0  0  0  0  0  0  0  0  0  0  0
   10.1900   -3.0540   22.0510 C   0  0  0  0  0  0  0  0  0  0  0  0
    7.7650   -2.4970   24.2310 C   0  0  0  0  0  0  0  0  0  0  0  0
    5.6710   -3.9090   23.5930 C   0  0  0  0  0  0  0  0  0  0  0  0
   10.0700   -0.2100   22.4330 C   0  0  0  0  0  0  0  0  0  0  0  0
   11.3290   -2.2850   22.2480 C   0  0  0  0  0  0  0  0  0  0  0  0
    7.7840   -1.3600   24.6940 O   0  0  0  0  0  0  0  0  0  0  0  0
    8.6770   -3.5450   24.7270 N   0  0  0  0  0  0  0  0  0  0  0  0
    4.4180   -3.9230   22.9470 C   0  0  0  0  0  0  0  0  0  0  0  0
    5.8110   -4.7940   24.6740 C   0  0  0  0  0  0  0  0  0  0  0  0
   11.2640   -0.8970   22.4440 C   0  0  0  0  0  0  0  0  0  0  0  0
    9.2560   -4.4720   23.9070 C   0  0  0  0  0  0  0  0  0  0  0  0
    3.4150   -4.7930   23.3950 C   0  0  0  0  0  0  0  0  0  0  0  0
    4.8380   -5.6410   25.1220 N   0  0  0  0  0  0  0  0  0  0  0  0
   12.3600   -0.0840   22.6690 C   0  0  0  0  0  0  0  0  0  0  0  0
    8.2360   -5.1300   23.2310 C   0  0  0  0  0  0  0  0  0  0  0  0
    3.6640   -5.6250   24.4730 C   0  0  0  0  0  0  0  0  0  0  0  0
   12.8290   -0.1480   23.9230 F   0  0  0  0  0  0  0  0  0  0  0  0
   13.4280   -0.4120   21.9050 F   0  0  0  0  0  0  0  0  0  0  0  0
   12.0940    1.2360   22.5150 F   0  0  0  0  0  0  0  0  0  0  0  0
    7.2020   -4.4220   22.6820 C   0  0  0  0  0  0  0  0  0  0  0  0
    8.2070   -6.4570   23.0910 C   0  0  0  0  0  0  0  0  0  0  0  0
    6.0670   -4.9120   21.9690 C   0  0  0  0  0  0  0  0  0  0  0  0
    7.1610   -7.0770   22.4320 C   0  0  0  0  0  0  0  0  0  0  0  0
    6.0600   -6.4650   21.8420 C   0  0  0  0  0  0  0  0  0  0  0  0
  1  2  1  0
  2  3  2  0
  2  4  1  0
  4  5  1  0
  4  6  1  0
  5  7  2  0
  5  8  1  0
  6  9  1  1
  6 10  1  0
  7 11  1  0
  8 12  2  0
  9 13  2  0
  9 14  1  0
 10 15  2  0
 10 16  1  0
 11 17  2  0
 12 17  1  0
 14 18  1  0
 15 19  1  0
 16 20  2  0
 17 21  1  0
 18 22  1  0
 19 23  2  0
 20 23  1  0
 21 24  1  0
 21 25  1  0
 21 26  1  0
 22 27  2  0
 22 28  1  0
 27 29  1  0
 28 30  2  0
 29 31  2  0
 30 31  1  0
M  END
