NIM-UNI-310206f0-22-chloroacetamide
     RDKit          3D

 33 36  0  0  0  0  0  0  0  0999 V2000
    7.0570   -3.1060   19.1090 C   0  0  0  0  0  0  0  0  0  0  0  0
    6.1890   -3.6880   20.2210 C   0  0  0  0  0  0  0  0  0  0  0  0
    5.3930   -4.5900   19.9350 O   0  0  0  0  0  0  0  0  0  0  0  0
    6.2890   -3.1790   21.5210 N   0  0  0  0  0  0  0  0  0  0  0  0
    6.0080   -3.9260   22.7650 C   0  0  0  0  0  0  0  0  0  0  0  0
    6.3310   -1.7300   21.7820 C   0  0  0  0  0  0  0  0  0  0  0  0
    7.2980   -3.7760   23.6730 C   0  0  0  0  0  0  0  0  0  0  0  0
    6.5410   -1.4480   23.2850 C   0  0  0  0  0  0  0  0  0  0  0  0
    7.6020   -2.3140   23.8300 N   0  0  0  0  0  0  0  0  0  0  0  0
    9.0040   -1.9720   23.4590 C   0  0  0  0  0  0  0  0  0  0  0  0
    9.8250   -1.0700   24.3910 C   0  0  0  0  0  0  0  0  0  0  0  0
    9.5240   -2.4550   22.3100 C   0  0  0  0  0  0  0  0  0  0  0  0
    9.3740   -0.5520   25.5470 F   0  0  0  0  0  0  0  0  0  0  0  0
   11.2930   -0.7550   23.8910 C   0  0  0  0  0  0  0  0  0  0  0  0
   10.9300   -2.1640   21.8070 C   0  0  0  0  0  0  0  0  0  0  0  0
    8.6960   -3.2140   21.6210 F   0  0  0  0  0  0  0  0  0  0  0  0
   11.7960   -1.3580   22.5110 C   0  0  0  0  0  0  0  0  0  0  0  0
   13.1400   -0.9870   22.0610 N   0  0  0  0  0  0  0  0  0  0  0  0
   13.7030   -1.5170   20.7510 C   0  0  0  0  0  0  0  0  0  0  0  0
   13.0050    0.4050   22.3560 C   0  0  0  0  0  0  0  0  0  0  0  0
   13.6310   -2.7240   20.5410 O   0  0  0  0  0  0  0  0  0  0  0  0
   14.3230   -0.4930   19.8420 N   0  0  0  0  0  0  0  0  0  0  0  0
   13.8990    1.3320   22.0180 N   0  0  0  0  0  0  0  0  0  0  0  0
   11.8430    0.6890   23.0070 N   0  0  0  0  0  0  0  0  0  0  0  0
   15.2800   -0.4870   18.7580 C   0  0  0  0  0  0  0  0  0  0  0  0
   13.6320    2.6080   22.3450 C   0  0  0  0  0  0  0  0  0  0  0  0
   11.5360    1.9360   23.3470 C   0  0  0  0  0  0  0  0  0  0  0  0
   15.9160   -1.5100   18.1320 C   0  0  0  0  0  0  0  0  0  0  0  0
   15.7110    0.7350   18.1490 C   0  0  0  0  0  0  0  0  0  0  0  0
   12.4950    3.0270   23.0010 C   0  0  0  0  0  0  0  0  0  0  0  0
   16.8260   -1.2770   17.0760 C   0  0  0  0  0  0  0  0  0  0  0  0
   16.5870    0.9110   17.0790 C   0  0  0  0  0  0  0  0  0  0  0  0
   17.1710   -0.1370   16.5250 N   0  0  0  0  0  0  0  0  0  0  0  0
  1  2  1  0
  2  3  2  0
  2  4  1  0
  4  5  1  0
  4  6  1  0
  5  7  1  0
  6  8  1  0
  7  9  1  0
  8  9  1  0
  9 10  1  0
 10 11  2  0
 10 12  1  0
 11 13  1  0
 11 14  1  0
 12 15  2  0
 12 16  1  0
 14 17  2  0
 15 17  1  0
 17 18  1  0
 18 19  1  0
 18 20  1  0
 19 21  2  0
 19 22  1  0
 20 23  2  0
 20 24  1  0
 22 25  1  0
 23 26  1  0
 24 27  2  0
 25 28  2  0
 25 29  1  0
 26 30  2  0
 27 30  1  0
 28 31  1  0
 29 32  2  0
 31 33  2  0
 32 33  1  0
M  END
