NIM-UNI-310206f0-3-chloroacetamide
     RDKit          3D

 23 25  0  0  0  0  0  0  0  0999 V2000
    7.0220   -3.0550   19.0390 C   0  0  0  0  0  0  0  0  0  0  0  0
    6.0730   -3.6030   20.0990 C   0  0  0  0  0  0  0  0  0  0  0  0
    5.1550   -4.3420   19.7720 O   0  0  0  0  0  0  0  0  0  0  0  0
    6.2700   -3.3090   21.4400 N   0  0  0  0  0  0  0  0  0  0  0  0
    5.9850   -2.0440   21.9890 C   0  0  0  0  0  0  0  0  0  0  0  0
    6.3140   -4.3800   22.4540 C   0  0  0  0  0  0  0  0  0  0  0  0
    5.8040   -2.0230   23.3630 C   0  0  0  0  0  0  0  0  0  0  0  0
    7.1240   -4.0750   23.5430 C   0  0  0  0  0  0  0  0  0  0  0  0
    6.9530   -2.6830   23.9930 N   0  0  0  0  0  0  0  0  0  0  0  0
    8.0410   -1.7640   23.7700 C   0  0  0  0  0  0  0  0  0  0  0  0
    9.3100   -2.3310   23.7310 C   0  0  0  0  0  0  0  0  0  0  0  0
    7.8620   -0.3820   23.5830 C   0  0  0  0  0  0  0  0  0  0  0  0
    9.5750   -3.6150   23.9010 F   0  0  0  0  0  0  0  0  0  0  0  0
   10.4640   -1.4850   23.4780 C   0  0  0  0  0  0  0  0  0  0  0  0
    9.0560    0.5020   23.3130 C   0  0  0  0  0  0  0  0  0  0  0  0
    6.6590    0.2180   23.6190 F   0  0  0  0  0  0  0  0  0  0  0  0
   10.2850   -0.0800   23.2640 C   0  0  0  0  0  0  0  0  0  0  0  0
   11.4950    0.5100   22.9990 C   0  0  0  0  0  0  0  0  0  0  0  0
   12.5210   -0.5400   22.6440 C   0  0  0  0  0  0  0  0  0  0  0  0
   11.7550    1.9650   23.0410 C   0  0  0  0  0  0  0  0  0  0  0  0
   13.7200   -0.1210   22.3510 N   0  0  0  0  0  0  0  0  0  0  0  0
   12.9630    2.4240   22.7680 N   0  0  0  0  0  0  0  0  0  0  0  0
   13.9240    1.3440   22.4250 C   0  0  0  0  0  0  0  0  0  0  0  0
  1  2  1  0
  2  3  2  0
  2  4  1  0
  4  5  1  0
  4  6  1  0
  5  7  1  0
  6  8  1  0
  7  9  1  0
  8  9  1  0
  9 10  1  0
 10 11  2  0
 10 12  1  0
 11 13  1  0
 11 14  1  0
 12 15  2  0
 12 16  1  0
 14 17  2  0
 15 17  1  0
 17 18  1  0
 18 19  2  0
 18 20  1  0
 19 21  1  0
 20 22  2  0
 21 23  2  0
 22 23  1  0
M  END
