NIM-UNI-310206f0-33-acrylamide
     RDKit          3D

 36 40  0  0  0  0  0  0  0  0999 V2000
    7.3960   -3.0410   18.6140 C   0  0  0  0  0  0  0  0  0  0  0  0
    6.8370   -2.0850   19.6180 C   0  0  0  0  0  0  0  0  0  0  0  0
    5.7070   -2.8300   20.2760 C   0  0  0  0  0  0  0  0  0  0  0  0
    5.0390   -3.3740   21.1280 O   0  0  0  0  0  0  0  0  0  0  0  0
    6.4990   -2.6120   21.3680 N   0  0  0  0  0  0  0  0  0  0  0  0
    6.4380   -3.5250   22.5290 C   0  0  0  0  0  0  0  0  0  0  0  0
    6.7750   -1.2340   21.7420 C   0  0  0  0  0  0  0  0  0  0  0  0
    7.8160   -3.2790   23.2310 C   0  0  0  0  0  0  0  0  0  0  0  0
    6.6720   -1.1470   23.2580 C   0  0  0  0  0  0  0  0  0  0  0  0
    7.7420   -1.9330   23.8610 N   0  0  0  0  0  0  0  0  0  0  0  0
    8.8820   -1.1700   23.8410 C   0  0  0  0  0  0  0  0  0  0  0  0
   10.1130   -1.6520   23.0650 C   0  0  0  0  0  0  0  0  0  0  0  0
    8.9300    0.1420   24.5280 C   0  0  0  0  0  0  0  0  0  0  0  0
   10.4600   -2.6940   22.3540 F   0  0  0  0  0  0  0  0  0  0  0  0
   10.9090   -0.4980   23.3140 C   0  0  0  0  0  0  0  0  0  0  0  0
   10.0140    1.1070   24.5650 C   0  0  0  0  0  0  0  0  0  0  0  0
    7.8310    0.5270   25.2080 F   0  0  0  0  0  0  0  0  0  0  0  0
   11.1710    0.7920   23.8710 C   0  0  0  0  0  0  0  0  0  0  0  0
   12.4400    1.3580   23.5610 N   0  0  0  0  0  0  0  0  0  0  0  0
   12.1840    2.7590   23.2240 C   0  0  0  0  0  0  0  0  0  0  0  0
   12.7900    0.2780   22.6960 C   0  0  0  0  0  0  0  0  0  0  0  0
   13.1920    3.5260   22.6890 C   0  0  0  0  0  0  0  0  0  0  0  0
   10.9200    3.3210   23.4850 C   0  0  0  0  0  0  0  0  0  0  0  0
   12.3080    0.0250   24.0210 C   0  0  0  0  0  0  0  0  0  0  0  0
   12.9790   -1.0800   22.2150 C   0  0  0  0  0  0  0  0  0  0  0  0
   12.9680    4.9440   22.4160 C   0  0  0  0  0  0  0  0  0  0  0  0
   10.6390    4.7860   23.2210 C   0  0  0  0  0  0  0  0  0  0  0  0
   12.0220   -1.1680   24.8330 C   0  0  0  0  0  0  0  0  0  0  0  0
   12.7150   -2.2910   22.9260 C   0  0  0  0  0  0  0  0  0  0  0  0
   13.4800   -1.6290   20.8410 C   0  0  0  0  0  0  0  0  0  0  0  0
   11.6610    5.5590   22.7130 C   0  0  0  0  0  0  0  0  0  0  0  0
   12.2310   -2.3930   24.2820 C   0  0  0  0  0  0  0  0  0  0  0  0
   13.0230   -3.1580   22.0110 N   0  0  0  0  0  0  0  0  0  0  0  0
   13.4380   -3.1460   20.8230 C   0  0  0  0  0  0  0  0  0  0  0  0
   11.6390    6.7260   22.4810 O   0  0  0  0  0  0  0  0  0  0  0  0
   12.6370    7.2530   23.3370 C   0  0  0  0  0  0  0  0  0  0  0  0
  1  2  1  0
  2  3  1  0
  3  4  2  0
  3  5  1  0
  5  6  1  0
  5  7  1  0
  6  8  1  0
  7  9  1  0
  8 10  1  0
  9 10  1  0
 10 11  1  0
 11 12  2  0
 11 13  1  0
 12 14  1  0
 12 15  1  0
 13 16  2  0
 13 17  1  0
 15 18  2  0
 16 18  1  0
 18 19  1  0
 19 20  1  0
 19 21  1  0
 20 22  2  0
 20 23  1  0
 21 24  2  0
 21 25  1  0
 22 26  1  0
 23 27  2  0
 24 28  1  0
 25 29  2  0
 25 30  1  0
 26 31  2  0
 27 31  1  0
 28 32  2  0
 29 32  1  0
 29 33  1  0
 30 34  2  0
 33 34  1  0
 31 35  1  0
 35 36  1  0
M  END
