NIM-UNI-bb610069-1-chloroacetamide
     RDKit          3D

 27 29  0  0  0  0  0  0  0  0999 V2000
    7.7790   -4.1340   20.6820 C   0  0  0  0  0  0  0  0  0  0  0  0
    6.5830   -3.5160   20.9440 C   0  0  0  0  0  0  0  0  0  0  0  0
    6.0190   -4.1910   19.9560 O   0  0  0  0  0  0  0  0  0  0  0  0
    7.4440   -2.8860   22.0030 N   0  0  0  0  0  0  0  0  0  0  0  0
    8.9100   -3.2350   22.3540 C   0  0  0  0  0  0  0  0  0  0  0  0
    6.7480   -2.7820   23.3140 C   0  0  2  0  0  0  0  0  0  0  0  0
   10.0020   -2.0800   22.5130 C   0  0  0  0  0  0  0  0  0  0  0  0
    5.3640   -2.0800   23.2640 C   0  0  0  0  0  0  0  0  0  0  0  0
    7.4590   -2.1440   24.5240 C   0  0  0  0  0  0  0  0  0  0  0  0
    9.3600   -0.8260   22.6590 C   0  0  0  0  0  0  0  0  0  0  0  0
   11.4080   -1.8700   22.5370 N   0  0  0  0  0  0  0  0  0  0  0  0
    4.9270   -1.8580   24.7280 C   0  0  0  0  0  0  0  0  0  0  0  0
    6.2640   -2.0740   25.8410 S   0  0  0  0  0  0  0  0  0  0  0  0
   10.3760    0.0600   22.7070 N   0  0  0  0  0  0  0  0  0  0  0  0
   11.6160   -0.5100   22.6590 N   0  0  0  0  0  0  0  0  0  0  0  0
    6.4600   -0.8680   26.6220 O   0  0  0  0  0  0  0  0  0  0  0  0
    6.1530   -3.3870   26.4340 O   0  0  0  0  0  0  0  0  0  0  0  0
    9.7720    1.3330   22.7690 C   0  0  0  0  0  0  0  0  0  0  0  0
    8.7990    1.3160   21.7030 C   0  0  0  0  0  0  0  0  0  0  0  0
    8.8300    2.2910   21.0050 O   0  0  0  0  0  0  0  0  0  0  0  0
    7.8680    0.2470   21.4540 N   0  0  0  0  0  0  0  0  0  0  0  0
    6.9410    0.5290   20.3210 C   0  0  0  0  0  0  0  0  0  0  0  0
    5.8540    1.3550   20.5080 C   0  0  0  0  0  0  0  0  0  0  0  0
    7.0680   -0.0140   18.9250 C   0  0  0  0  0  0  0  0  0  0  0  0
    5.0070    1.6150   19.4350 C   0  0  0  0  0  0  0  0  0  0  0  0
    6.2240    0.2550   17.8630 N   0  0  0  0  0  0  0  0  0  0  0  0
    5.1830    1.0910   18.1570 C   0  0  0  0  0  0  0  0  0  0  0  0
  1  2  1  0
  2  3  2  0
  2  4  1  0
  4  5  1  0
  6  4  1  6
  5  7  1  0
  6  8  1  0
  6  9  1  0
  7 10  2  0
  7 11  1  0
  8 12  1  0
 13  9  1  0
 12 13  1  0
 10 14  1  0
 11 15  2  0
 14 15  1  0
 13 16  2  0
 13 17  2  0
 14 18  1  0
 18 19  1  0
 19 20  2  0
 19 21  1  0
 21 22  1  0
 22 23  2  0
 22 24  1  0
 23 25  1  0
 24 26  2  0
 25 27  2  0
 26 27  1  0
M  END
