NIM-UNI-05f93fcc-4-chloroacetamide
     RDKit          3D

 26 29  0  0  0  0  0  0  0  0999 V2000
    7.1880   -3.3930   19.9360 C   0  0  0  0  0  0  0  0  0  0  0  0
    6.3260   -4.4880   20.5590 C   0  0  0  0  0  0  0  0  0  0  0  0
    5.3090   -4.8140   19.9630 O   0  0  0  0  0  0  0  0  0  0  0  0
    6.6560   -5.1500   21.7470 N   0  0  0  0  0  0  0  0  0  0  0  0
    5.8740   -6.2460   22.1810 C   0  0  0  0  0  0  0  0  0  0  0  0
    7.2390   -4.3760   22.8630 C   0  0  0  0  0  0  0  0  0  0  0  0
    5.0130   -6.0530   23.2520 C   0  0  0  0  0  0  0  0  0  0  0  0
    6.3310   -4.0890   23.8990 C   0  0  0  0  0  0  0  0  0  0  0  0
    5.7610   -5.3860   24.3240 N   0  0  0  0  0  0  0  0  0  0  0  0
    4.9960   -5.3680   25.8420 S   0  0  0  0  0  0  0  0  0  0  0  0
    6.0040   -5.1840   26.8600 O   0  0  0  0  0  0  0  0  0  0  0  0
    4.0840   -6.4960   25.8920 O   0  0  0  0  0  0  0  0  0  0  0  0
    4.0290   -3.8930   25.9230 C   0  0  0  0  0  0  0  0  0  0  0  0
    4.3850   -2.5350   25.9880 C   0  0  0  0  0  0  0  0  0  0  0  0
    2.3180   -4.1250   25.9330 S   0  0  0  0  0  0  0  0  0  0  0  0
    3.1780   -1.6720   26.0540 C   0  0  0  0  0  0  0  0  0  0  0  0
    1.9660   -2.4590   26.0360 C   0  0  0  0  0  0  0  0  0  0  0  0
    0.6520   -1.8550   26.1090 C   0  0  0  0  0  0  0  0  0  0  0  0
    0.5220   -0.4430   26.7630 C   0  0  0  0  0  0  0  0  0  0  0  0
   -0.5480   -2.4650   25.6260 C   0  0  0  0  0  0  0  0  0  0  0  0
   -0.9170    0.1550   26.8180 C   0  0  0  0  0  0  0  0  0  0  0  0
   -1.8120   -1.9140   25.6880 C   0  0  0  0  0  0  0  0  0  0  0  0
   -2.0820   -0.6770   26.2350 C   0  0  0  0  0  0  0  0  0  0  0  0
   -3.0680   -2.5380   25.1890 N   0  0  0  0  0  0  0  0  0  0  0  0
   -3.4460   -0.4570   26.1220 C   0  0  0  0  0  0  0  0  0  0  0  0
   -4.1260   -1.5080   25.5130 C   0  0  0  0  0  0  0  0  0  0  0  0
  1  2  1  0
  2  3  2  0
  2  4  1  0
  4  5  1  0
  4  6  1  0
  5  7  1  0
  6  8  1  0
  7  9  1  0
  8  9  1  0
  9 10  1  0
 10 11  2  0
 10 12  2  0
 10 13  1  0
 13 14  2  0
 13 15  1  0
 14 16  1  0
 15 17  1  0
 16 17  2  0
 17 18  1  0
 18 19  2  0
 18 20  1  0
 19 21  1  0
 20 22  2  0
 21 23  2  0
 22 23  1  0
 22 24  1  0
 23 25  1  0
 24 26  1  0
 25 26  2  0
M  END
