NIM-UNI-363644a0-2-bromoalkyne
     RDKit          3D

 41 45  0  0  0  0  0  0  0  0999 V2000
    6.7470   -3.4710   19.7250 C   0  0  0  0  0  0  0  0  0  0  0  0
    5.8820   -2.9520   18.6250 C   0  0  0  0  0  0  0  0  0  0  0  0
    6.3580   -3.3070   21.0340 N   0  0  0  0  0  0  0  0  0  0  0  0
    6.0200   -4.4180   21.9070 C   0  0  0  0  0  0  0  0  0  0  0  0
    5.7100   -2.0480   21.4410 C   0  0  1  0  0  0  0  0  0  0  0  0
    6.0700   -3.9750   23.3640 C   0  0  0  0  0  0  0  0  0  0  0  0
    6.4380   -1.6310   22.5580 C   0  0  0  0  0  0  0  0  0  0  0  0
    5.5480   -1.0040   20.4640 C   0  0  0  0  0  0  0  0  0  0  0  0
    6.7810   -2.6760   23.5410 N   0  0  0  0  0  0  0  0  0  0  0  0
    6.2770   -0.9820   19.2660 C   0  0  0  0  0  0  0  0  0  0  0  0
    4.6620    0.0610   20.6290 C   0  0  0  0  0  0  0  0  0  0  0  0
    8.0960   -2.5230   23.8680 C   0  0  0  0  0  0  0  0  0  0  0  0
    6.1880   -0.0480   18.2760 N   0  0  0  0  0  0  0  0  0  0  0  0
    4.5850    1.0160   19.5950 C   0  0  0  0  0  0  0  0  0  0  0  0
    3.8330    0.2850   21.7330 C   0  0  0  0  0  0  0  0  0  0  0  0
    8.5010   -1.1070   24.1300 C   0  0  0  0  0  0  0  0  0  0  0  0
    5.3270    0.9820   18.4190 C   0  0  0  0  0  0  0  0  0  0  0  0
    4.1050    1.4050   22.5200 C   0  0  0  0  0  0  0  0  0  0  0  0
    7.6400   -0.2530   24.8080 C   0  0  0  0  0  0  0  0  0  0  0  0
    9.7670   -0.6300   23.6770 C   0  0  0  0  0  0  0  0  0  0  0  0
    3.1240    2.1840   23.0350 N   0  0  0  0  0  0  0  0  0  0  0  0
    8.0830    1.1990   25.0450 C   0  0  0  0  0  0  0  0  0  0  0  0
   10.2310    0.7050   23.8740 C   0  0  0  0  0  0  0  0  0  0  0  0
   10.6010   -1.5060   23.0020 C   0  0  0  0  0  0  0  0  0  0  0  0
    2.1280    1.6620   23.7940 C   0  0  0  0  0  0  0  0  0  0  0  0
    9.4110    1.6070   24.5400 C   0  0  0  0  0  0  0  0  0  0  0  0
   11.4910    1.1100   23.4090 C   0  0  0  0  0  0  0  0  0  0  0  0
   11.8220   -1.0760   22.5580 C   0  0  0  0  0  0  0  0  0  0  0  0
    2.0180    0.3360   24.1320 O   0  0  0  0  0  0  0  0  0  0  0  0
    1.2320    2.6380   24.1830 N   0  0  0  0  0  0  0  0  0  0  0  0
   12.2980    0.2100   22.7450 C   0  0  0  0  0  0  0  0  0  0  0  0
   12.8800   -2.1790   21.7040 S   0  0  0  0  0  0  0  0  0  0  0  0
    1.5000    3.5020   25.3260 C   0  0  0  0  0  0  0  0  0  0  0  0
   13.6140   -2.8120   23.0900 N   0  0  0  0  0  0  0  0  0  0  0  0
   12.0970   -3.1960   21.0670 O   0  0  0  0  0  0  0  0  0  0  0  0
   13.7960   -1.3810   20.9340 O   0  0  0  0  0  0  0  0  0  0  0  0
    1.4200    4.9370   24.8270 C   0  0  0  0  0  0  0  0  0  0  0  0
    0.5850    3.1820   26.3500 C   0  0  0  0  0  0  0  0  0  0  0  0
    0.0330    5.5480   24.9080 C   0  0  0  0  0  0  0  0  0  0  0  0
   -0.6430    3.8470   26.4260 C   0  0  0  0  0  0  0  0  0  0  0  0
   -0.9880    4.7560   25.4250 C   0  0  0  0  0  0  0  0  0  0  0  0
  1  2  2  3
  1  3  1  0
  3  4  1  0
  3  5  1  0
  4  6  1  0
  5  7  1  0
  5  8  1  6
  6  9  1  0
  7  9  1  0
  8 10  2  0
  8 11  1  0
  9 12  1  0
 10 13  1  0
 11 14  2  0
 11 15  1  0
 12 16  1  0
 13 17  2  0
 14 17  1  0
 15 18  1  0
 16 19  2  0
 16 20  1  0
 18 21  1  0
 19 22  1  0
 20 23  2  0
 20 24  1  0
 21 25  1  0
 22 26  2  0
 23 26  1  0
 23 27  1  0
 24 28  2  0
 25 29  2  0
 25 30  1  0
 27 31  2  0
 28 31  1  0
 28 32  1  0
 30 33  1  0
 32 34  1  0
 32 35  2  0
 32 36  2  0
 33 37  1  0
 33 38  1  0
 37 39  1  0
 38 40  1  0
 39 41  1  0
 40 41  1  0
M  END
