NIM-UNI-bb9030bf-13-acrylamide
     RDKit          3D

 21 22  0  0  0  0  0  0  0  0999 V2000
    6.6050   -4.8990   20.5130 C   0  0  0  0  0  0  0  0  0  0  0  0
    6.7480   -4.1520   21.8360 C   0  0  0  0  0  0  0  0  0  0  0  0
    5.8380   -2.9520   21.8270 C   0  0  0  0  0  0  0  0  0  0  0  0
    4.6290   -3.1240   21.7010 O   0  0  0  0  0  0  0  0  0  0  0  0
    6.4110   -1.6760   21.9620 N   0  0  0  0  0  0  0  0  0  0  0  0
    7.2220   -1.0580   20.8820 C   0  0  2  0  0  0  0  0  0  0  0  0
    8.4510   -0.4080   21.4620 C   0  0  0  0  0  0  0  0  0  0  0  0
    6.4320   -0.1240   19.9930 C   0  0  0  0  0  0  0  0  0  0  0  0
    8.5510    0.9990   21.1510 O   0  0  0  0  0  0  0  0  0  0  0  0
    9.3640   -1.3010   22.2470 N   0  0  0  0  0  0  0  0  0  0  0  0
    6.8240    0.1040   18.7020 C   0  0  0  0  0  0  0  0  0  0  0  0
    5.3060    0.5230   20.4280 C   0  0  0  0  0  0  0  0  0  0  0  0
    9.8580   -0.6850   23.3910 C   0  0  0  0  0  0  0  0  0  0  0  0
    6.0080    1.0620   17.8010 C   0  0  0  0  0  0  0  0  0  0  0  0
    4.5070    1.3940   19.7120 N   0  0  0  0  0  0  0  0  0  0  0  0
   11.0460   -0.0560   23.2250 C   0  0  0  0  0  0  0  0  0  0  0  0
    4.7990    1.6830   18.4570 C   0  0  0  0  0  0  0  0  0  0  0  0
   12.3980   -0.5960   22.7010 C   0  0  0  0  0  0  0  0  0  0  0  0
   11.2130    1.3240   23.5560 N   0  0  0  0  0  0  0  0  0  0  0  0
   13.2720    0.5540   22.7690 C   0  0  0  0  0  0  0  0  0  0  0  0
   12.5340    1.6140   23.2610 C   0  0  0  0  0  0  0  0  0  0  0  0
  1  2  1  0
  2  3  1  0
  3  4  2  0
  3  5  1  0
  6  5  1  1
  6  7  1  0
  6  8  1  0
  7  9  2  0
  7 10  1  0
  8 11  2  0
  8 12  1  0
 10 13  1  0
 11 14  1  0
 12 15  2  0
 13 16  1  0
 14 17  2  0
 15 17  1  0
 16 18  2  0
 16 19  1  0
 18 20  1  0
 19 21  1  0
 20 21  2  0
M  END
