NIM-UNI-43fe0159-11-vinylsulfonamide
     RDKit          3D

 21 22  0  0  0  0  0  0  0  0999 V2000
    7.0000   -2.9080   18.7880 C   0  0  0  0  0  0  0  0  0  0  0  0
    5.9130   -3.2160   19.5310 C   0  0  0  0  0  0  0  0  0  0  0  0
    5.9070   -4.0360   21.0930 S   0  0  0  0  0  0  0  0  0  0  0  0
    4.8120   -3.4310   21.7680 O   0  0  0  0  0  0  0  0  0  0  0  0
    5.8710   -5.4600   20.8570 O   0  0  0  0  0  0  0  0  0  0  0  0
    7.2090   -3.6790   21.9650 N   0  0  0  0  0  0  0  0  0  0  0  0
    7.3620   -4.3700   23.2500 C   0  0  0  0  0  0  0  0  0  0  0  0
    7.4990   -2.2710   21.9330 C   0  0  0  0  0  0  0  0  0  0  0  0
    8.2350   -3.5700   24.2060 C   0  0  0  0  0  0  0  0  0  0  0  0
    7.0690   -1.6920   23.1400 O   0  0  0  0  0  0  0  0  0  0  0  0
    7.9950   -2.0520   24.1450 C   0  0  2  0  0  0  0  0  0  0  0  0
    9.2440   -1.3240   23.8350 C   0  0  0  0  0  0  0  0  0  0  0  0
   10.0500   -1.8370   22.8050 C   0  0  0  0  0  0  0  0  0  0  0  0
    9.6300   -0.1800   24.5340 C   0  0  0  0  0  0  0  0  0  0  0  0
   11.2150   -1.2140   22.5210 C   0  0  0  0  0  0  0  0  0  0  0  0
   10.8050    0.4360   24.2290 C   0  0  0  0  0  0  0  0  0  0  0  0
   11.6070   -0.0720   23.2410 C   0  0  0  0  0  0  0  0  0  0  0  0
   13.1290    0.5550   22.7800 S   0  0  0  0  0  0  0  0  0  0  0  0
   13.5300   -1.1180   22.3850 C   0  0  0  0  0  0  0  0  0  0  0  0
   13.2960   -1.6420   21.1060 C   0  0  0  0  0  0  0  0  0  0  0  0
   14.0580   -1.9770   23.3380 O   0  0  0  0  0  0  0  0  0  0  0  0
  1  2  1  0
  3  2  1  0
  3  4  2  0
  3  5  2  0
  3  6  1  0
  6  7  1  0
  6  8  1  0
  7  9  1  0
  8 10  1  0
  9 11  1  0
 10 11  1  0
 11 12  1  6
 12 13  2  0
 12 14  1  0
 13 15  1  0
 14 16  2  0
 15 17  2  0
 16 17  1  0
 17 18  1  0
 18 19  1  0
 19 20  1  0
 19 21  2  0
M  END
