NIM-UNI-43fe0159-7-acrylamide
     RDKit          3D

 20 21  0  0  0  0  0  0  0  0999 V2000
    8.1630   -3.5010   19.8990 C   0  0  0  0  0  0  0  0  0  0  0  0
    7.0350   -2.8590   19.6480 C   0  0  0  0  0  0  0  0  0  0  0  0
    6.0570   -3.5530   20.5240 C   0  0  0  0  0  0  0  0  0  0  0  0
    5.2350   -4.3530   20.0520 O   0  0  0  0  0  0  0  0  0  0  0  0
    6.1890   -3.2330   21.8770 N   0  0  0  0  0  0  0  0  0  0  0  0
    6.1030   -1.8230   22.1180 C   0  0  0  0  0  0  0  0  0  0  0  0
    7.4030   -3.8150   22.5800 C   0  0  0  0  0  0  0  0  0  0  0  0
    7.4970   -1.4090   22.4810 C   0  0  0  0  0  0  0  0  0  0  0  0
    7.7880   -3.2850   23.6850 O   0  0  0  0  0  0  0  0  0  0  0  0
    8.0290   -1.8490   23.7690 C   0  0  1  0  0  0  0  0  0  0  0  0
    9.3520   -1.4640   23.6600 C   0  0  0  0  0  0  0  0  0  0  0  0
    9.9690   -0.4010   24.3620 C   0  0  0  0  0  0  0  0  0  0  0  0
   10.0530   -2.2060   22.7460 C   0  0  0  0  0  0  0  0  0  0  0  0
   11.3410   -0.0730   24.1240 C   0  0  0  0  0  0  0  0  0  0  0  0
   11.4770   -1.8650   22.5010 C   0  0  0  0  0  0  0  0  0  0  0  0
   12.0590   -0.8200   23.1940 C   0  0  0  0  0  0  0  0  0  0  0  0
   13.2880   -0.6690   22.8710 N   0  0  0  0  0  0  0  0  0  0  0  0
   13.5080   -1.8800   22.4030 C   0  0  0  0  0  0  0  0  0  0  0  0
   13.2990   -2.1540   20.9370 C   0  0  0  0  0  0  0  0  0  0  0  0
   13.8620   -2.8910   23.2270 O   0  0  0  0  0  0  0  0  0  0  0  0
  1  2  1  0
  2  3  1  0
  3  4  2  0
  3  5  1  0
  5  6  1  0
  5  7  1  0
  6  8  1  0
  7  9  1  0
  8 10  1  0
  9 10  1  0
 10 11  1  6
 11 12  2  0
 11 13  1  0
 12 14  1  0
 13 15  2  0
 14 16  2  0
 15 16  1  0
 16 17  1  0
 17 18  1  0
 18 19  1  0
 18 20  2  0
M  END
