NIM-UNI-310206f0-24-nitrile
     RDKit          3D

 33 36  0  0  0  0  0  0  0  0999 V2000
    6.4240   -4.2330   20.1070 C   0  0  0  0  0  0  0  0  0  0  0  0
    6.1380   -3.4350   19.1360 N   0  0  0  0  0  0  0  0  0  0  0  0
    5.7820   -4.1430   21.3310 N   0  0  0  0  0  0  0  0  0  0  0  0
    5.4610   -5.2510   22.2690 C   0  0  0  0  0  0  0  0  0  0  0  0
    5.5810   -2.8260   21.9550 C   0  0  0  0  0  0  0  0  0  0  0  0
    6.7010   -5.2890   23.2360 C   0  0  0  0  0  0  0  0  0  0  0  0
    5.9290   -2.8660   23.4470 C   0  0  0  0  0  0  0  0  0  0  0  0
    6.9310   -3.9130   23.7690 N   0  0  0  0  0  0  0  0  0  0  0  0
    8.1980   -3.4800   23.9300 C   0  0  0  0  0  0  0  0  0  0  0  0
    8.9840   -3.7520   25.2610 C   0  0  0  0  0  0  0  0  0  0  0  0
    8.8220   -2.7760   22.8950 C   0  0  0  0  0  0  0  0  0  0  0  0
    8.4450   -4.4180   26.2940 F   0  0  0  0  0  0  0  0  0  0  0  0
   10.4440   -3.2130   25.3690 C   0  0  0  0  0  0  0  0  0  0  0  0
   10.2280   -2.2580   23.0050 C   0  0  0  0  0  0  0  0  0  0  0  0
    8.1660   -2.5360   21.7510 F   0  0  0  0  0  0  0  0  0  0  0  0
   10.9950   -2.4460   24.1400 C   0  0  0  0  0  0  0  0  0  0  0  0
   12.3430   -1.9190   24.2220 N   0  0  0  0  0  0  0  0  0  0  0  0
   13.4550   -2.8420   24.0830 C   0  0  0  0  0  0  0  0  0  0  0  0
   12.5160   -0.7310   23.6610 C   0  0  0  0  0  0  0  0  0  0  0  0
   13.8370   -3.2210   22.9990 O   0  0  0  0  0  0  0  0  0  0  0  0
   14.2750   -3.3600   25.3180 C   0  0  0  0  0  0  0  0  0  0  0  0
   11.9550    0.3930   24.1560 N   0  0  0  0  0  0  0  0  0  0  0  0
   13.2890   -0.7190   22.5620 N   0  0  0  0  0  0  0  0  0  0  0  0
   15.1770   -4.6460   25.4760 C   0  0  0  0  0  0  0  0  0  0  0  0
   12.1840    1.5790   23.5430 C   0  0  0  0  0  0  0  0  0  0  0  0
   13.5170    0.4490   21.9610 C   0  0  0  0  0  0  0  0  0  0  0  0
   14.9950   -5.4530   26.4760 C   0  0  0  0  0  0  0  0  0  0  0  0
   16.2160   -5.0770   24.6760 C   0  0  0  0  0  0  0  0  0  0  0  0
   12.9460    1.7440   22.4510 C   0  0  0  0  0  0  0  0  0  0  0  0
   15.8070   -6.6640   26.7320 C   0  0  0  0  0  0  0  0  0  0  0  0
   17.1310   -6.2860   24.8310 C   0  0  0  0  0  0  0  0  0  0  0  0
   16.4720   -4.4000   23.6560 F   0  0  0  0  0  0  0  0  0  0  0  0
   16.9060   -7.1100   25.9060 C   0  0  0  0  0  0  0  0  0  0  0  0
  1  2  2  3
  1  3  1  0
  3  4  1  0
  3  5  1  0
  4  6  1  0
  5  7  1  0
  6  8  1  0
  7  8  1  0
  8  9  1  0
  9 10  2  0
  9 11  1  0
 10 12  1  0
 10 13  1  0
 11 14  2  0
 11 15  1  0
 13 16  2  0
 14 16  1  0
 16 17  1  0
 17 18  1  0
 17 19  1  0
 18 20  2  0
 18 21  1  0
 19 22  2  0
 19 23  1  0
 21 24  1  0
 22 25  1  0
 23 26  2  0
 24 27  2  0
 24 28  1  0
 25 29  2  0
 26 29  1  0
 27 30  1  0
 28 31  2  0
 28 32  1  0
 30 33  2  0
 31 33  1  0
M  END
