NIM-UNI-05f93fcc-7-acrylamide
     RDKit          3D

 26 28  0  0  0  0  0  0  0  0999 V2000
    7.3600   -3.0420   18.9450 C   0  0  0  0  0  0  0  0  0  0  0  0
    7.0060   -3.0550   20.4310 C   0  0  0  0  0  0  0  0  0  0  0  0
    6.1960   -4.2990   20.7070 C   0  0  0  0  0  0  0  0  0  0  0  0
    5.2090   -4.5390   19.9930 O   0  0  0  0  0  0  0  0  0  0  0  0
    6.6370   -5.1260   21.7530 N   0  0  0  0  0  0  0  0  0  0  0  0
    5.7940   -6.2290   22.1710 C   0  0  0  0  0  0  0  0  0  0  0  0
    7.3800   -4.5140   22.8620 C   0  0  0  0  0  0  0  0  0  0  0  0
    4.9430   -6.0090   23.2590 C   0  0  0  0  0  0  0  0  0  0  0  0
    6.4430   -4.1580   24.0200 C   0  0  0  0  0  0  0  0  0  0  0  0
    5.6490   -5.3440   24.3740 N   0  0  0  0  0  0  0  0  0  0  0  0
    4.9240   -5.3980   25.9010 S   0  0  0  0  0  0  0  0  0  0  0  0
    4.0580   -6.5600   25.9400 O   0  0  0  0  0  0  0  0  0  0  0  0
    5.9440   -5.1930   26.9040 O   0  0  0  0  0  0  0  0  0  0  0  0
    3.8760   -3.9840   25.9640 C   0  0  0  0  0  0  0  0  0  0  0  0
    4.3170   -2.5490   26.0630 C   0  0  0  0  0  0  0  0  0  0  0  0
    2.1850   -4.1810   25.9130 S   0  0  0  0  0  0  0  0  0  0  0  0
    3.1520   -1.6680   26.0970 C   0  0  0  0  0  0  0  0  0  0  0  0
    1.9380   -2.4970   26.0220 C   0  0  0  0  0  0  0  0  0  0  0  0
    0.5770   -1.8160   26.0490 C   0  0  0  0  0  0  0  0  0  0  0  0
    0.3420   -0.4730   26.7520 C   0  0  0  0  0  0  0  0  0  0  0  0
   -0.5680   -2.3790   25.4250 C   0  0  0  0  0  0  0  0  0  0  0  0
   -1.0530    0.1650   26.7430 C   0  0  0  0  0  0  0  0  0  0  0  0
   -1.8380   -1.7530   25.4420 C   0  0  0  0  0  0  0  0  0  0  0  0
   -1.2720    1.3880   27.3830 C   0  0  0  0  0  0  0  0  0  0  0  0
   -2.0770   -0.5270   26.0770 C   0  0  0  0  0  0  0  0  0  0  0  0
   -2.8830   -2.3950   24.7970 C   0  0  0  0  0  0  0  0  0  0  0  0
  1  2  1  0
  2  3  1  0
  3  4  2  0
  3  5  1  0
  5  6  1  0
  5  7  1  0
  6  8  1  0
  7  9  1  0
  8 10  1  0
  9 10  1  0
 10 11  1  0
 11 12  2  0
 11 13  2  0
 11 14  1  0
 14 15  2  0
 14 16  1  0
 15 17  1  0
 16 18  1  0
 17 18  2  0
 18 19  1  0
 19 20  2  0
 19 21  1  0
 20 22  1  0
 21 23  2  0
 22 24  1  0
 22 25  2  0
 23 25  1  0
 23 26  1  0
M  END
