NIM-UNI-05f93fcc-6-chloroacetamide
     RDKit          3D

 23 25  0  0  0  0  0  0  0  0999 V2000
    7.1530   -3.3910   19.9460 C   0  0  0  0  0  0  0  0  0  0  0  0
    6.3240   -4.5120   20.5760 C   0  0  0  0  0  0  0  0  0  0  0  0
    5.3310   -4.8880   19.9720 O   0  0  0  0  0  0  0  0  0  0  0  0
    6.6440   -5.1400   21.7830 N   0  0  0  0  0  0  0  0  0  0  0  0
    5.8750   -6.2580   22.2010 C   0  0  0  0  0  0  0  0  0  0  0  0
    7.3110   -4.4040   22.8710 C   0  0  0  0  0  0  0  0  0  0  0  0
    5.0070   -6.1020   23.2710 C   0  0  0  0  0  0  0  0  0  0  0  0
    6.3980   -4.1050   23.8700 C   0  0  0  0  0  0  0  0  0  0  0  0
    5.7040   -5.3400   24.3140 N   0  0  0  0  0  0  0  0  0  0  0  0
    4.9570   -5.3590   25.8400 S   0  0  0  0  0  0  0  0  0  0  0  0
    3.9840   -6.4340   25.8480 O   0  0  0  0  0  0  0  0  0  0  0  0
    5.9720   -5.2700   26.8630 O   0  0  0  0  0  0  0  0  0  0  0  0
    3.9890   -3.8870   25.9280 C   0  0  0  0  0  0  0  0  0  0  0  0
    4.3480   -2.5330   26.0200 C   0  0  0  0  0  0  0  0  0  0  0  0
    2.2790   -4.1160   25.9000 S   0  0  0  0  0  0  0  0  0  0  0  0
    3.1450   -1.6670   26.0750 C   0  0  0  0  0  0  0  0  0  0  0  0
    1.9310   -2.4540   26.0190 C   0  0  0  0  0  0  0  0  0  0  0  0
    0.6190   -1.8460   26.0690 C   0  0  0  0  0  0  0  0  0  0  0  0
   -0.6110   -2.5710   25.4910 C   0  0  0  0  0  0  0  0  0  0  0  0
    0.3730   -0.4640   26.6960 C   0  0  0  0  0  0  0  0  0  0  0  0
   -1.9660   -1.8360   25.5990 C   0  0  0  0  0  0  0  0  0  0  0  0
   -0.9320    0.2380   26.7960 N   0  0  0  0  0  0  0  0  0  0  0  0
   -2.1380   -0.4330   26.2480 C   0  0  0  0  0  0  0  0  0  0  0  0
  1  2  1  0
  2  3  2  0
  2  4  1  0
  4  5  1  0
  4  6  1  0
  5  7  1  0
  6  8  1  0
  7  9  1  0
  8  9  1  0
  9 10  1  0
 10 11  2  0
 10 12  2  0
 10 13  1  0
 13 14  2  0
 13 15  1  0
 14 16  1  0
 15 17  1  0
 16 17  2  0
 17 18  1  0
 18 19  2  0
 18 20  1  0
 19 21  1  0
 20 22  2  0
 21 23  2  0
 22 23  1  0
M  END
