NIM-UNI-bb9030bf-11-vinylsulfonamide
     RDKit          3D

 22 23  0  0  0  0  0  0  0  0999 V2000
    7.1260   -3.3130   19.3340 C   0  0  0  0  0  0  0  0  0  0  0  0
    6.7490   -3.8470   20.7010 C   0  0  0  0  0  0  0  0  0  0  0  0
    5.4530   -2.7680   21.1470 S   0  0  0  0  0  0  0  0  0  0  0  0
    4.5910   -3.4750   22.0650 O   0  0  0  0  0  0  0  0  0  0  0  0
    4.9500   -2.2990   19.8850 O   0  0  0  0  0  0  0  0  0  0  0  0
    6.2760   -1.4740   21.8480 N   0  0  0  0  0  0  0  0  0  0  0  0
    7.1690   -0.8110   20.8960 C   0  0  2  0  0  0  0  0  0  0  0  0
    8.2880    0.0220   21.5110 C   0  0  0  0  0  0  0  0  0  0  0  0
    6.3630    0.0330   19.9580 C   0  0  0  0  0  0  0  0  0  0  0  0
    8.4770    1.3480   20.9740 O   0  0  0  0  0  0  0  0  0  0  0  0
    9.0890   -0.6060   22.5680 N   0  0  0  0  0  0  0  0  0  0  0  0
    5.1450    0.5650   20.3510 C   0  0  0  0  0  0  0  0  0  0  0  0
    6.8280    0.2980   18.6850 C   0  0  0  0  0  0  0  0  0  0  0  0
   10.3770   -0.2090   22.7400 C   0  0  0  0  0  0  0  0  0  0  0  0
    4.3500    1.4410   19.3530 C   0  0  0  0  0  0  0  0  0  0  0  0
    6.2050    1.0790   17.7130 N   0  0  0  0  0  0  0  0  0  0  0  0
   11.3960   -1.2060   22.3430 C   0  0  0  0  0  0  0  0  0  0  0  0
    5.0270    1.6470   17.9690 C   0  0  0  0  0  0  0  0  0  0  0  0
   11.4650   -2.2240   23.2790 C   0  0  0  0  0  0  0  0  0  0  0  0
   12.5700   -0.4220   22.4820 C   0  0  0  0  0  0  0  0  0  0  0  0
   12.2070   -1.5650   24.4520 C   0  0  0  0  0  0  0  0  0  0  0  0
   12.9670   -0.4600   23.7990 C   0  0  0  0  0  0  0  0  0  0  0  0
  1  2  1  0
  2  3  1  0
  3  4  2  0
  3  5  2  0
  3  6  1  0
  7  6  1  1
  7  8  1  0
  7  9  1  0
  8 10  2  0
  8 11  1  0
  9 12  2  0
  9 13  1  0
 11 14  1  0
 12 15  1  0
 13 16  2  0
 14 17  1  0
 15 18  2  0
 16 18  1  0
 17 19  1  0
 17 20  1  0
 19 21  1  0
 20 22  1  0
 21 22  1  0
M  END
