NIM-UNI-bb610069-3-chloroacetamide
     RDKit          3D

 25 27  0  0  0  0  0  0  0  0999 V2000
    7.2180   -3.6360   19.7970 C   0  0  0  0  0  0  0  0  0  0  0  0
    5.8180   -3.2600   20.1210 C   0  0  0  0  0  0  0  0  0  0  0  0
    4.9510   -3.6200   19.3330 O   0  0  0  0  0  0  0  0  0  0  0  0
    5.5730   -2.6100   21.2920 N   0  0  0  0  0  0  0  0  0  0  0  0
    6.0170   -1.2170   21.4810 C   0  0  0  0  0  0  0  0  0  0  0  0
    5.0490   -3.3290   22.4590 C   0  0  0  0  0  0  0  0  0  0  0  0
    7.0080   -1.2980   22.6770 C   0  0  0  0  0  0  0  0  0  0  0  0
    6.1560   -3.3440   23.3020 C   0  0  0  0  0  0  0  0  0  0  0  0
    6.2760   -2.0840   23.7090 N   0  0  0  0  0  0  0  0  0  0  0  0
    6.8580   -1.8960   25.0490 C   0  0  0  0  0  0  0  0  0  0  0  0
    8.2920   -1.7880   24.6570 C   0  0  0  0  0  0  0  0  0  0  0  0
    8.7980   -0.3850   24.5070 C   0  0  0  0  0  0  0  0  0  0  0  0
    9.2380   -2.7150   24.3760 N   0  0  0  0  0  0  0  0  0  0  0  0
   10.1120   -0.6860   24.0840 N   0  0  0  0  0  0  0  0  0  0  0  0
   10.3200   -2.0410   24.0440 N   0  0  0  0  0  0  0  0  0  0  0  0
   11.1130    0.0890   23.6950 C   0  0  0  0  0  0  0  0  0  0  0  0
   11.5720    1.5060   23.8620 C   0  0  0  0  0  0  0  0  0  0  0  0
   11.7990   -0.7420   22.9560 C   0  0  0  0  0  0  0  0  0  0  0  0
   12.7670    1.8120   23.1930 C   0  0  0  0  0  0  0  0  0  0  0  0
   12.8630   -0.4290   22.3630 C   0  0  0  0  0  0  0  0  0  0  0  0
   13.4310    0.8170   22.4410 C   0  0  0  0  0  0  0  0  0  0  0  0
   13.3440   -1.8430   21.5020 S   0  0  0  0  0  0  0  0  0  0  0  0
   11.8680   -2.3820   20.9290 N   0  0  0  0  0  0  0  0  0  0  0  0
   14.0900   -1.4560   20.3440 O   0  0  0  0  0  0  0  0  0  0  0  0
   13.6880   -2.8250   22.5060 O   0  0  0  0  0  0  0  0  0  0  0  0
  1  2  1  0
  2  3  2  0
  2  4  1  0
  4  5  1  0
  4  6  1  0
  5  7  1  0
  6  8  1  0
  7  9  1  0
  8  9  1  0
  9 10  1  0
 10 11  1  0
 11 12  2  0
 11 13  1  0
 12 14  1  0
 13 15  2  0
 14 15  1  0
 14 16  1  0
 16 17  2  0
 16 18  1  0
 17 19  1  0
 18 20  2  0
 19 21  2  0
 20 21  1  0
 20 22  1  0
 22 23  1  0
 22 24  2  0
 22 25  2  0
M  END
