NIM-UNI-310206f0-17-bromoalkyne
     RDKit          3D

 34 37  0  0  0  0  0  0  0  0999 V2000
    6.7670   -4.2340   20.1400 C   0  0  0  0  0  0  0  0  0  0  0  0
    5.8130   -5.4270   20.0880 C   0  0  0  0  0  0  0  0  0  0  0  0
    6.8220   -3.3580   21.2230 N   0  0  0  0  0  0  0  0  0  0  0  0
    7.1420   -3.8580   22.5900 C   0  0  0  0  0  0  0  0  0  0  0  0
    7.4070   -2.0270   21.0460 C   0  0  0  0  0  0  0  0  0  0  0  0
    7.3960   -2.5750   23.4890 C   0  0  0  0  0  0  0  0  0  0  0  0
    8.8220   -2.0990   21.6040 C   0  0  0  0  0  0  0  0  0  0  0  0
    8.6800   -1.9410   23.0270 N   0  0  0  0  0  0  0  0  0  0  0  0
    8.8190   -0.5190   23.3040 C   0  0  0  0  0  0  0  0  0  0  0  0
   10.1920   -0.0060   22.8180 C   0  0  0  0  0  0  0  0  0  0  0  0
    7.8810    0.3040   23.8910 C   0  0  0  0  0  0  0  0  0  0  0  0
   11.1310   -0.7880   22.2520 F   0  0  0  0  0  0  0  0  0  0  0  0
   10.4560    1.5240   23.0100 C   0  0  0  0  0  0  0  0  0  0  0  0
    8.1390    1.7710   24.0800 C   0  0  0  0  0  0  0  0  0  0  0  0
    6.7030   -0.1750   24.3090 F   0  0  0  0  0  0  0  0  0  0  0  0
    9.3170    2.3680   23.6760 C   0  0  0  0  0  0  0  0  0  0  0  0
    9.4910    3.7780   23.8660 N   0  0  0  0  0  0  0  0  0  0  0  0
   10.3890    4.3040   22.8750 C   0  0  0  0  0  0  0  0  0  0  0  0
    9.4910    4.3250   25.2100 C   0  0  0  0  0  0  0  0  0  0  0  0
   10.9690    3.6370   22.0200 O   0  0  0  0  0  0  0  0  0  0  0  0
   10.5870    5.6570   22.9160 N   0  0  0  0  0  0  0  0  0  0  0  0
   10.4240    5.3030   25.4970 N   0  0  0  0  0  0  0  0  0  0  0  0
    8.5550    3.8300   26.1200 N   0  0  0  0  0  0  0  0  0  0  0  0
   11.8690    5.8670   23.0390 C   0  0  0  0  0  0  0  0  0  0  0  0
   10.4770    5.8500   26.7380 C   0  0  0  0  0  0  0  0  0  0  0  0
    8.5680    4.3380   27.3570 C   0  0  0  0  0  0  0  0  0  0  0  0
   12.8170    5.1590   22.3130 C   0  0  0  0  0  0  0  0  0  0  0  0
    9.5520    5.4140   27.7750 C   0  0  0  0  0  0  0  0  0  0  0  0
   13.5220    5.8070   21.2020 C   0  0  0  0  0  0  0  0  0  0  0  0
   13.1310    3.8260   22.6150 C   0  0  0  0  0  0  0  0  0  0  0  0
   14.5730    5.1730   20.3800 C   0  0  0  0  0  0  0  0  0  0  0  0
   14.1950    3.0490   21.8420 C   0  0  0  0  0  0  0  0  0  0  0  0
   14.9220    3.7760   20.7260 C   0  0  0  0  0  0  0  0  0  0  0  0
   14.4850    1.7730   22.1130 F   0  0  0  0  0  0  0  0  0  0  0  0
  1  2  2  3
  1  3  1  0
  3  4  1  0
  3  5  1  0
  4  6  1  0
  5  7  1  0
  6  8  1  0
  7  8  1  0
  8  9  1  0
  9 10  2  0
  9 11  1  0
 10 12  1  0
 10 13  1  0
 11 14  2  0
 11 15  1  0
 13 16  2  0
 14 16  1  0
 16 17  1  0
 17 18  1  0
 17 19  1  0
 18 20  2  0
 18 21  1  0
 19 22  2  0
 19 23  1  0
 21 24  1  0
 22 25  1  0
 23 26  2  0
 24 27  1  0
 25 28  2  0
 26 28  1  0
 27 29  2  0
 27 30  1  0
 29 31  1  0
 30 32  2  0
 31 33  2  0
 32 33  1  0
 32 34  1  0
M  END
