NIM-UNI-43fe0159-1-bromoalkyne
     RDKit          3D

 15 16  0  0  0  0  0  0  0  0999 V2000
    6.8490   -3.8460   19.8390 C   0  0  0  0  0  0  0  0  0  0  0  0
    6.4010   -3.0720   18.8470 C   0  0  0  0  0  0  0  0  0  0  0  0
    6.2650   -3.7130   21.0740 N   0  0  0  0  0  0  0  0  0  0  0  0
    6.5900   -4.4720   22.2850 C   0  0  0  0  0  0  0  0  0  0  0  0
    6.2110   -2.3860   21.5360 C   0  0  0  0  0  0  0  0  0  0  0  0
    7.6910   -3.7300   23.1280 C   0  0  0  0  0  0  0  0  0  0  0  0
    7.3460   -1.9590   21.5900 O   0  0  0  0  0  0  0  0  0  0  0  0
    7.9460   -2.2200   22.7900 C   0  0  2  0  0  0  0  0  0  0  0  0
    9.3140   -1.6000   23.0500 C   0  0  0  0  0  0  0  0  0  0  0  0
    9.4570   -0.7490   24.1600 C   0  0  0  0  0  0  0  0  0  0  0  0
   10.4360   -1.8230   22.2240 C   0  0  0  0  0  0  0  0  0  0  0  0
   10.6660   -0.1430   24.4190 C   0  0  0  0  0  0  0  0  0  0  0  0
   11.6670   -1.2060   22.4900 C   0  0  0  0  0  0  0  0  0  0  0  0
   11.7980   -0.3550   23.5880 C   0  0  0  0  0  0  0  0  0  0  0  0
   12.9810    0.2250   23.8020 N   0  0  0  0  0  0  0  0  0  0  0  0
  1  2  2  3
  1  3  1  0
  3  4  1  0
  3  5  1  0
  4  6  1  0
  5  7  1  0
  6  8  1  0
  7  8  1  0
  8  9  1  6
  9 10  2  0
  9 11  1  0
 10 12  1  0
 11 13  2  0
 12 14  2  0
 13 14  1  0
 14 15  1  0
M  END
