NIM-UNI-310206f0-22-bromoalkyne
     RDKit          3D

 32 35  0  0  0  0  0  0  0  0999 V2000
    6.4540   -4.2950   20.0370 C   0  0  0  0  0  0  0  0  0  0  0  0
    5.7530   -5.6340   20.0450 C   0  0  0  0  0  0  0  0  0  0  0  0
    6.2900   -3.4370   21.0970 N   0  0  0  0  0  0  0  0  0  0  0  0
    6.0310   -3.8980   22.4710 C   0  0  0  0  0  0  0  0  0  0  0  0
    6.0140   -2.0070   20.9090 C   0  0  0  0  0  0  0  0  0  0  0  0
    7.2160   -3.2780   23.2860 C   0  0  0  0  0  0  0  0  0  0  0  0
    5.9540   -1.3340   22.2830 C   0  0  0  0  0  0  0  0  0  0  0  0
    7.0640   -1.7960   23.1350 N   0  0  0  0  0  0  0  0  0  0  0  0
    8.3110   -1.0110   23.0510 C   0  0  0  0  0  0  0  0  0  0  0  0
    9.4080   -1.7110   22.2690 C   0  0  0  0  0  0  0  0  0  0  0  0
    8.4880    0.2320   23.6080 C   0  0  0  0  0  0  0  0  0  0  0  0
    9.2820   -2.8900   21.7280 F   0  0  0  0  0  0  0  0  0  0  0  0
   10.7400   -0.9670   22.1210 C   0  0  0  0  0  0  0  0  0  0  0  0
    9.7840    0.9710   23.4690 C   0  0  0  0  0  0  0  0  0  0  0  0
    7.5080    0.8200   24.2940 F   0  0  0  0  0  0  0  0  0  0  0  0
   10.8380    0.4160   22.7800 C   0  0  0  0  0  0  0  0  0  0  0  0
   12.0930    1.0010   22.6440 N   0  0  0  0  0  0  0  0  0  0  0  0
   11.9920    2.3220   23.1980 C   0  0  0  0  0  0  0  0  0  0  0  0
   12.4910   -0.1940   23.2700 C   0  0  0  0  0  0  0  0  0  0  0  0
   11.2640    2.6390   24.1310 O   0  0  0  0  0  0  0  0  0  0  0  0
   12.7310    3.3120   22.6090 N   0  0  0  0  0  0  0  0  0  0  0  0
   13.4550   -1.0500   22.8550 N   0  0  0  0  0  0  0  0  0  0  0  0
   11.7020   -0.4060   24.3220 N   0  0  0  0  0  0  0  0  0  0  0  0
   12.1840    4.4670   22.8730 C   0  0  0  0  0  0  0  0  0  0  0  0
   13.6190   -2.2050   23.5780 C   0  0  0  0  0  0  0  0  0  0  0  0
   11.8290   -1.4920   25.0240 C   0  0  0  0  0  0  0  0  0  0  0  0
   12.9540    5.5640   23.0610 C   0  0  0  0  0  0  0  0  0  0  0  0
   10.7910    4.6180   22.9710 C   0  0  0  0  0  0  0  0  0  0  0  0
   12.8610   -2.5190   24.6750 C   0  0  0  0  0  0  0  0  0  0  0  0
   12.2550    6.7970   23.3590 C   0  0  0  0  0  0  0  0  0  0  0  0
   10.1260    5.8470   23.2630 C   0  0  0  0  0  0  0  0  0  0  0  0
   10.9070    6.9630   23.4640 N   0  0  0  0  0  0  0  0  0  0  0  0
  1  2  2  3
  1  3  1  0
  3  4  1  0
  3  5  1  0
  4  6  1  0
  5  7  1  0
  6  8  1  0
  7  8  1  0
  8  9  1  0
  9 10  2  0
  9 11  1  0
 10 12  1  0
 10 13  1  0
 11 14  2  0
 11 15  1  0
 13 16  2  0
 14 16  1  0
 16 17  1  0
 17 18  1  0
 17 19  1  0
 18 20  2  0
 18 21  1  0
 19 22  2  0
 19 23  1  0
 21 24  1  0
 22 25  1  0
 23 26  2  0
 24 27  2  0
 24 28  1  0
 25 29  2  0
 26 29  1  0
 27 30  1  0
 28 31  2  0
 30 32  2  0
 31 32  1  0
M  END
