NIM-UNI-310206f0-48-chloroacetamide
     RDKit          3D

 30 33  0  0  0  0  0  0  0  0999 V2000
    6.9960   -3.0670   19.0100 C   0  0  0  0  0  0  0  0  0  0  0  0
    6.0360   -3.6190   20.0420 C   0  0  0  0  0  0  0  0  0  0  0  0
    5.1760   -4.4350   19.7940 O   0  0  0  0  0  0  0  0  0  0  0  0
    6.1610   -3.1830   21.3450 N   0  0  0  0  0  0  0  0  0  0  0  0
    5.8950   -1.7850   21.5840 C   0  0  0  0  0  0  0  0  0  0  0  0
    6.5930   -3.9660   22.5000 C   0  0  0  0  0  0  0  0  0  0  0  0
    6.9360   -1.2710   22.3350 C   0  0  0  0  0  0  0  0  0  0  0  0
    7.8110   -3.4700   22.9760 C   0  0  0  0  0  0  0  0  0  0  0  0
    7.6970   -2.0170   23.2370 N   0  0  0  0  0  0  0  0  0  0  0  0
    8.8900   -1.3740   23.3010 C   0  0  0  0  0  0  0  0  0  0  0  0
   10.1870   -1.9390   23.7470 C   0  0  0  0  0  0  0  0  0  0  0  0
    8.8850   -0.0410   22.8860 C   0  0  0  0  0  0  0  0  0  0  0  0
   10.3940   -3.1700   24.1550 F   0  0  0  0  0  0  0  0  0  0  0  0
   11.2700   -1.1480   23.7330 C   0  0  0  0  0  0  0  0  0  0  0  0
    9.9760    0.7640   22.8510 C   0  0  0  0  0  0  0  0  0  0  0  0
    7.7530    0.5570   22.4690 F   0  0  0  0  0  0  0  0  0  0  0  0
   11.2780    0.1580   23.3110 C   0  0  0  0  0  0  0  0  0  0  0  0
   12.3090    0.8870   23.2710 N   0  0  0  0  0  0  0  0  0  0  0  0
   13.3610    0.1290   22.9250 C   0  0  0  0  0  0  0  0  0  0  0  0
   12.1530    2.2350   22.9810 C   0  0  0  0  0  0  0  0  0  0  0  0
   13.2270   -0.9520   22.0030 C   0  0  0  0  0  0  0  0  0  0  0  0
   10.9340    2.9320   23.0770 C   0  0  0  0  0  0  0  0  0  0  0  0
   13.2570    3.0660   22.5470 C   0  0  0  0  0  0  0  0  0  0  0  0
   12.0980   -1.6980   21.8750 C   0  0  0  0  0  0  0  0  0  0  0  0
   13.2730   -2.3300   22.5830 C   0  0  0  0  0  0  0  0  0  0  0  0
   10.8470    4.3850   22.7600 C   0  0  0  0  0  0  0  0  0  0  0  0
   13.2000    4.3600   22.2570 C   0  0  0  0  0  0  0  0  0  0  0  0
   12.0560    5.1290   22.3310 C   0  0  0  0  0  0  0  0  0  0  0  0
   12.1150    6.3030   22.0670 O   0  0  0  0  0  0  0  0  0  0  0  0
   13.1150    6.9120   22.8520 C   0  0  0  0  0  0  0  0  0  0  0  0
  1  2  1  0
  2  3  2  0
  2  4  1  0
  4  5  1  0
  4  6  1  0
  5  7  1  0
  6  8  1  0
  7  9  1  0
  8  9  1  0
  9 10  1  0
 10 11  2  0
 10 12  1  0
 11 13  1  0
 11 14  1  0
 12 15  2  0
 12 16  1  0
 14 17  2  0
 15 17  1  0
 17 18  1  0
 18 19  1  0
 18 20  1  0
 19 21  1  0
 20 22  2  0
 20 23  1  0
 21 24  1  0
 21 25  1  0
 24 25  1  0
 22 26  1  0
 23 27  2  0
 26 28  2  0
 27 28  1  0
 28 29  1  0
 29 30  1  0
M  END
