NIM-UNI-310206f0-52-nitrile
     RDKit          3D

 35 39  0  0  0  0  0  0  0  0999 V2000
    6.3510   -3.9830   19.9410 C   0  0  0  0  0  0  0  0  0  0  0  0
    5.4890   -3.4480   19.1630 N   0  0  0  0  0  0  0  0  0  0  0  0
    6.1510   -4.1630   21.3040 N   0  0  0  0  0  0  0  0  0  0  0  0
    5.5260   -3.0960   22.1120 C   0  0  0  0  0  0  0  0  0  0  0  0
    5.7430   -5.4880   21.8370 C   0  0  0  0  0  0  0  0  0  0  0  0
    5.4350   -3.4270   23.4620 C   0  0  0  0  0  0  0  0  0  0  0  0
    6.3550   -5.6800   23.0910 C   0  0  0  0  0  0  0  0  0  0  0  0
    6.4890   -4.3790   23.8190 N   0  0  0  0  0  0  0  0  0  0  0  0
    7.8000   -4.0090   24.1020 C   0  0  0  0  0  0  0  0  0  0  0  0
    8.5570   -4.5340   25.3150 C   0  0  0  0  0  0  0  0  0  0  0  0
    8.5130   -3.1290   23.2820 C   0  0  0  0  0  0  0  0  0  0  0  0
    8.0030   -5.3760   26.1970 F   0  0  0  0  0  0  0  0  0  0  0  0
    9.9860   -4.0900   25.5210 C   0  0  0  0  0  0  0  0  0  0  0  0
    9.8270   -2.7470   23.5060 C   0  0  0  0  0  0  0  0  0  0  0  0
    7.9290   -2.6020   22.2010 F   0  0  0  0  0  0  0  0  0  0  0  0
   10.5610   -3.2210   24.5990 C   0  0  0  0  0  0  0  0  0  0  0  0
   11.8320   -2.8020   24.7050 N   0  0  0  0  0  0  0  0  0  0  0  0
   11.9890   -1.5590   24.2680 C   0  0  0  0  0  0  0  0  0  0  0  0
   12.9370   -3.4250   25.8190 S   0  0  0  0  0  0  0  0  0  0  0  0
   11.6080   -0.3650   24.8530 C   0  0  0  0  0  0  0  0  0  0  0  0
   12.5940   -1.5510   23.0840 C   0  0  0  0  0  0  0  0  0  0  0  0
   12.3520   -4.4030   26.6700 O   0  0  0  0  0  0  0  0  0  0  0  0
   13.5720   -2.1840   26.1730 O   0  0  0  0  0  0  0  0  0  0  0  0
   14.5710   -3.8620   25.6010 C   0  0  0  0  0  0  0  0  0  0  0  0
   11.8980    0.8480   24.1640 C   0  0  0  0  0  0  0  0  0  0  0  0
   12.9040   -0.4280   22.3820 C   0  0  0  0  0  0  0  0  0  0  0  0
   13.0510   -2.6530   22.2710 C   0  0  0  0  0  0  0  0  0  0  0  0
   15.3620   -5.0230   25.2490 C   0  0  0  0  0  0  0  0  0  0  0  0
   15.4220   -2.9320   25.8340 N   0  0  0  0  0  0  0  0  0  0  0  0
   12.5940    0.8180   22.8620 C   0  0  0  0  0  0  0  0  0  0  0  0
   13.5250   -0.8110   21.2060 N   0  0  0  0  0  0  0  0  0  0  0  0
   13.6240   -2.1920   21.0350 C   0  0  0  0  0  0  0  0  0  0  0  0
   16.7140   -4.7650   25.2180 C   0  0  0  0  0  0  0  0  0  0  0  0
   16.7710   -3.4480   25.5910 O   0  0  0  0  0  0  0  0  0  0  0  0
   17.7490   -5.7380   24.8740 C   0  0  0  0  0  0  0  0  0  0  0  0
  1  2  2  3
  1  3  1  0
  3  4  1  0
  3  5  1  0
  4  6  1  0
  5  7  1  0
  6  8  1  0
  7  8  1  0
  8  9  1  0
  9 10  2  0
  9 11  1  0
 10 12  1  0
 10 13  1  0
 11 14  2  0
 11 15  1  0
 13 16  2  0
 14 16  1  0
 16 17  1  0
 17 18  1  0
 19 17  1  0
 18 20  2  0
 18 21  1  0
 19 22  2  0
 19 23  2  0
 19 24  1  0
 20 25  1  0
 21 26  2  0
 21 27  1  0
 24 28  1  0
 24 29  2  0
 25 30  2  0
 26 30  1  0
 26 31  1  0
 27 32  2  0
 31 32  1  0
 28 33  2  0
 29 34  1  0
 33 34  1  0
 33 35  1  0
M  END
