NIM-UNI-43fe0159-5-vinylsulfonamide
     RDKit          3D

 18 19  0  0  0  0  0  0  0  0999 V2000
    7.0770   -2.9450   18.9770 C   0  0  0  0  0  0  0  0  0  0  0  0
    6.0380   -3.4030   19.7220 C   0  0  0  0  0  0  0  0  0  0  0  0
    6.2200   -4.2840   21.2530 S   0  0  0  0  0  0  0  0  0  0  0  0
    5.0800   -5.1710   21.3110 O   0  0  0  0  0  0  0  0  0  0  0  0
    7.5750   -4.7020   21.4890 O   0  0  0  0  0  0  0  0  0  0  0  0
    5.9880   -3.3060   22.5310 N   0  0  0  0  0  0  0  0  0  0  0  0
    6.1020   -1.8550   22.4110 C   0  0  0  0  0  0  0  0  0  0  0  0
    6.7380   -3.9070   23.6160 C   0  0  0  0  0  0  0  0  0  0  0  0
    6.9680   -1.3260   23.5620 C   0  0  0  0  0  0  0  0  0  0  0  0
    7.8960   -3.5970   23.4340 O   0  0  0  0  0  0  0  0  0  0  0  0
    8.1210   -2.2850   23.9300 C   0  0  1  0  0  0  0  0  0  0  0  0
    9.4680   -1.8160   23.5200 C   0  0  0  0  0  0  0  0  0  0  0  0
    9.8970   -1.9160   22.1890 C   0  0  0  0  0  0  0  0  0  0  0  0
   10.3100   -1.2720   24.4600 C   0  0  0  0  0  0  0  0  0  0  0  0
   11.1380   -1.4430   21.8590 C   0  0  0  0  0  0  0  0  0  0  0  0
   11.5420   -0.8120   24.0820 C   0  0  0  0  0  0  0  0  0  0  0  0
   11.9480   -0.8690   22.8300 C   0  0  0  0  0  0  0  0  0  0  0  0
   13.5010   -0.1930   22.5140 S   0  0  0  0  0  0  0  0  0  0  0  0
  1  2  1  0
  3  2  1  0
  3  4  2  0
  3  5  2  0
  3  6  1  0
  6  7  1  0
  6  8  1  0
  7  9  1  0
  8 10  1  0
  9 11  1  0
 10 11  1  0
 11 12  1  6
 12 13  2  0
 12 14  1  0
 13 15  1  0
 14 16  2  0
 15 17  2  0
 16 17  1  0
 17 18  1  0
M  END
