NIM-UNI-310206f0-37-vinylsulfonamide
     RDKit          3D

 29 31  0  0  0  0  0  0  0  0999 V2000
    8.0350   -3.5400   19.8830 C   0  0  0  0  0  0  0  0  0  0  0  0
    6.8790   -2.7690   19.3420 C   0  0  0  0  0  0  0  0  0  0  0  0
    5.5460   -3.5750   20.1300 S   0  0  0  0  0  0  0  0  0  0  0  0
    4.4010   -3.0260   19.5490 O   0  0  0  0  0  0  0  0  0  0  0  0
    5.6850   -4.9950   20.0140 O   0  0  0  0  0  0  0  0  0  0  0  0
    5.6800   -3.1170   21.7210 N   0  0  0  0  0  0  0  0  0  0  0  0
    4.9070   -3.7430   22.7980 C   0  0  0  0  0  0  0  0  0  0  0  0
    5.8680   -1.6930   21.9370 C   0  0  0  0  0  0  0  0  0  0  0  0
    5.8690   -3.6370   24.0340 C   0  0  0  0  0  0  0  0  0  0  0  0
    5.4320   -1.3230   23.3580 C   0  0  0  0  0  0  0  0  0  0  0  0
    6.0770   -2.1910   24.3770 N   0  0  0  0  0  0  0  0  0  0  0  0
    7.4680   -1.7560   24.5480 C   0  0  0  0  0  0  0  0  0  0  0  0
    8.4120   -2.4900   23.5860 C   0  0  0  0  0  0  0  0  0  0  0  0
    7.9120   -0.7970   25.4580 C   0  0  0  0  0  0  0  0  0  0  0  0
    8.0170   -3.4130   22.7030 F   0  0  0  0  0  0  0  0  0  0  0  0
    9.9140   -2.1080   23.6800 C   0  0  0  0  0  0  0  0  0  0  0  0
    9.3490   -0.4350   25.5400 C   0  0  0  0  0  0  0  0  0  0  0  0
    7.0470   -0.1590   26.3030 F   0  0  0  0  0  0  0  0  0  0  0  0
   10.2810   -1.0360   24.7240 C   0  0  0  0  0  0  0  0  0  0  0  0
   11.6340   -0.6590   24.8330 N   0  0  0  0  0  0  0  0  0  0  0  0
   11.7950    0.6020   24.2210 C   0  0  0  0  0  0  0  0  0  0  0  0
   12.6760   -1.6170   24.7720 C   0  0  0  0  0  0  0  0  0  0  0  0
   12.1130    0.5910   22.7830 C   0  0  0  0  0  0  0  0  0  0  0  0
   13.4640   -1.8530   25.6790 O   0  0  0  0  0  0  0  0  0  0  0  0
   12.8740   -2.4720   23.5410 C   0  0  0  0  0  0  0  0  0  0  0  0
   13.2990    0.8670   22.3630 C   0  0  0  0  0  0  0  0  0  0  0  0
   13.2650   -0.4900   22.2650 C   0  0  0  0  0  0  0  0  0  0  0  0
   12.1640   -2.0050   22.3970 O   0  0  0  0  0  0  0  0  0  0  0  0
   12.6180   -2.6110   21.1950 C   0  0  0  0  0  0  0  0  0  0  0  0
  1  2  1  0
  3  2  1  0
  3  4  2  0
  3  5  2  0
  3  6  1  0
  6  7  1  0
  6  8  1  0
  7  9  1  0
  8 10  1  0
  9 11  1  0
 10 11  1  0
 11 12  1  0
 12 13  2  0
 12 14  1  0
 13 15  1  0
 13 16  1  0
 14 17  2  0
 14 18  1  0
 16 19  2  0
 17 19  1  0
 19 20  1  0
 20 21  1  0
 20 22  1  0
 21 23  1  0
 22 24  2  0
 22 25  1  0
 23 26  1  0
 23 27  1  0
 26 27  1  0
 25 28  1  0
 28 29  1  0
M  END
