NIM-UNI-7f77122c-2
     RDKit          3D

 40 45  0  0  0  0  0  0  0  0999 V2000
    4.3450   -7.7500   24.6400 O   0  0  0  0  0  0  0  0  0  0  0  0
    3.9250   -6.7400   24.0810 C   0  0  0  0  0  0  0  0  0  0  0  0
    4.8100   -5.4860   23.9650 C   0  0  0  0  0  0  0  0  0  0  0  0
    2.6770   -6.7900   23.5960 N   0  0  0  0  0  0  0  0  0  0  0  0
    5.0060   -5.0260   22.5030 C   0  0  0  0  0  0  0  0  0  0  0  0
    5.3890   -4.8080   25.0750 C   0  0  0  0  0  0  0  0  0  0  0  0
    1.7600   -5.6660   23.5980 C   0  0  0  0  0  0  0  0  0  0  0  0
    2.0320   -8.1010   23.5380 C   0  0  0  0  0  0  0  0  0  0  0  0
    5.8530   -3.7870   22.2680 C   0  0  0  0  0  0  0  0  0  0  0  0
    6.1810   -3.6600   24.8750 C   0  0  0  0  0  0  0  0  0  0  0  0
    0.7550   -5.8560   24.7210 C   0  0  0  0  0  0  0  0  0  0  0  0
    0.9520   -8.1950   24.6170 C   0  0  0  0  0  0  0  0  0  0  0  0
    6.3470   -3.2530   23.5630 C   0  0  0  0  0  0  0  0  0  0  0  0
    0.0570   -7.0840   24.4660 O   0  0  0  0  0  0  0  0  0  0  0  0
    6.9960   -2.2160   22.6770 C   0  0  0  0  0  0  0  0  0  0  0  0
    7.6510   -1.4270   23.3610 O   0  0  0  0  0  0  0  0  0  0  0  0
    9.0150   -1.4380   23.1720 C   0  0  0  0  0  0  0  0  0  0  0  0
    9.5660   -2.1170   22.0930 N   0  0  0  0  0  0  0  0  0  0  0  0
    9.7720   -0.7490   24.1290 N   0  0  0  0  0  0  0  0  0  0  0  0
   11.0130   -2.1360   21.9680 C   0  0  0  0  0  0  0  0  0  0  0  0
   11.0610   -1.2170   24.2550 C   0  0  0  0  0  0  0  0  0  0  0  0
    9.4370    0.4930   24.5370 C   0  0  0  0  0  0  0  0  0  0  0  0
   11.8330   -2.3420   20.9100 O   0  0  0  0  0  0  0  0  0  0  0  0
   11.6880   -1.8890   23.2580 C   0  0  0  0  0  0  0  0  0  0  0  0
   11.9780   -1.1840   25.2140 N   0  0  0  0  0  0  0  0  0  0  0  0
   10.2140    1.4560   23.8720 C   0  0  0  0  0  0  0  0  0  0  0  0
   12.9910   -2.1000   24.9160 C   0  0  0  0  0  0  0  0  0  0  0  0
   12.9940   -2.3270   23.5550 N   0  0  0  0  0  0  0  0  0  0  0  0
   11.5300    1.3310   23.6200 C   0  0  0  0  0  0  0  0  0  0  0  0
    9.6890    2.6390   23.4080 C   0  0  0  0  0  0  0  0  0  0  0  0
   13.7380   -2.6100   25.7380 O   0  0  0  0  0  0  0  0  0  0  0  0
   13.8090   -3.2380   22.8240 C   0  0  0  0  0  0  0  0  0  0  0  0
   12.2760    2.2770   22.9700 C   0  0  0  0  0  0  0  0  0  0  0  0
   10.5020    3.6000   22.7350 C   0  0  0  0  0  0  0  0  0  0  0  0
   15.1380   -3.8400   23.5940 C   0  0  0  0  0  0  0  0  0  0  0  0
   13.5450   -3.6790   21.4510 C   0  0  0  0  0  0  0  0  0  0  0  0
   11.9110    3.6490   22.3730 C   0  0  0  0  0  0  0  0  0  0  0  0
   16.0990   -4.8690   22.6780 C   0  0  0  0  0  0  0  0  0  0  0  0
   14.3570   -4.5870   20.7090 N   0  0  0  0  0  0  0  0  0  0  0  0
   15.5470   -5.1520   21.2230 C   0  0  0  0  0  0  0  0  0  0  0  0
  1  2  2  0
  2  3  1  0
  2  4  1  0
  3  5  2  0
  3  6  1  0
  4  7  1  0
  4  8  1  0
  5  9  1  0
  6 10  2  0
  7 11  1  0
  8 12  1  0
  9 13  2  0
 10 13  1  0
 11 14  1  0
 12 14  1  0
 13 15  1  0
 15 16  1  0
 16 17  1  0
 17 18  2  0
 17 19  1  0
 18 20  1  0
 19 21  1  0
 19 22  1  0
 20 23  2  0
 20 24  1  0
 21 24  2  0
 21 25  1  0
 22 26  1  0
 25 27  1  0
 24 28  1  0
 27 28  1  0
 26 29  2  0
 26 30  1  0
 27 31  2  0
 28 32  1  0
 29 33  1  0
 30 34  2  0
 32 35  2  0
 32 36  1  0
 33 37  2  0
 34 37  1  0
 35 38  1  0
 36 39  2  0
 38 40  2  0
 39 40  1  0
M  END
