NIM-UNI-310206f0-66-acrylamide
     RDKit          3D

 39 43  0  0  0  0  0  0  0  0999 V2000
    7.1650   -2.8790   18.6470 C   0  0  0  0  0  0  0  0  0  0  0  0
    6.2920   -2.5330   19.8530 C   0  0  0  0  0  0  0  0  0  0  0  0
    5.6680   -3.7510   20.5050 C   0  0  0  0  0  0  0  0  0  0  0  0
    5.1300   -4.6220   19.8310 O   0  0  0  0  0  0  0  0  0  0  0  0
    5.7410   -3.8730   21.8840 N   0  0  0  0  0  0  0  0  0  0  0  0
    6.8960   -4.4990   22.5210 C   0  0  0  0  0  0  0  0  0  0  0  0
    4.6630   -3.5800   22.8310 C   0  0  0  0  0  0  0  0  0  0  0  0
    7.1310   -4.0750   23.9610 C   0  0  0  0  0  0  0  0  0  0  0  0
    5.0850   -2.5960   23.9300 C   0  0  0  0  0  0  0  0  0  0  0  0
    6.4910   -2.7830   24.2970 N   0  0  0  0  0  0  0  0  0  0  0  0
    7.4000   -1.9020   24.0170 C   0  0  0  0  0  0  0  0  0  0  0  0
    8.1000   -1.9890   22.8540 C   0  0  0  0  0  0  0  0  0  0  0  0
    7.7590   -0.8230   24.8070 C   0  0  0  0  0  0  0  0  0  0  0  0
    7.8690   -2.9690   21.9970 F   0  0  0  0  0  0  0  0  0  0  0  0
    9.0820   -1.0890   22.4870 C   0  0  0  0  0  0  0  0  0  0  0  0
    8.7550    0.0800   24.4280 C   0  0  0  0  0  0  0  0  0  0  0  0
    7.1500   -0.6030   25.9870 F   0  0  0  0  0  0  0  0  0  0  0  0
    9.5120    0.0230   23.2240 C   0  0  0  0  0  0  0  0  0  0  0  0
   10.2800    1.0760   23.4050 N   0  0  0  0  0  0  0  0  0  0  0  0
   11.2840    0.7380   24.1830 C   0  0  0  0  0  0  0  0  0  0  0  0
    9.7980    2.4330   23.4220 C   0  0  0  0  0  0  0  0  0  0  0  0
   12.4850    1.2590   24.0790 O   0  0  0  0  0  0  0  0  0  0  0  0
   10.9500   -0.2340   25.1190 N   0  0  0  0  0  0  0  0  0  0  0  0
    8.3520    2.7790   23.7440 C   0  0  0  0  0  0  0  0  0  0  0  0
   10.6880    3.5270   23.1320 C   0  0  0  0  0  0  0  0  0  0  0  0
   11.1160   -1.4850   24.7250 C   0  0  0  0  0  0  0  0  0  0  0  0
    7.8990    4.2270   23.7480 C   0  0  0  0  0  0  0  0  0  0  0  0
   10.2620    4.8870   23.1350 C   0  0  0  0  0  0  0  0  0  0  0  0
   12.1430    3.6520   22.7770 C   0  0  0  0  0  0  0  0  0  0  0  0
   11.9260   -1.3940   23.5240 C   0  0  0  0  0  0  0  0  0  0  0  0
    8.9440    5.2850   23.4210 C   0  0  0  0  0  0  0  0  0  0  0  0
   11.3550    5.7080   22.8160 N   0  0  0  0  0  0  0  0  0  0  0  0
   12.5040    4.9840   22.5930 C   0  0  0  0  0  0  0  0  0  0  0  0
   12.8200   -0.2280   23.4070 C   0  0  0  0  0  0  0  0  0  0  0  0
   11.8470   -2.3540   22.5550 C   0  0  0  0  0  0  0  0  0  0  0  0
   13.6050   -0.0750   22.2960 C   0  0  0  0  0  0  0  0  0  0  0  0
   12.6630   -2.2840   21.3370 C   0  0  0  0  0  0  0  0  0  0  0  0
   13.5660   -1.1120   21.2030 C   0  0  0  0  0  0  0  0  0  0  0  0
   12.6230   -3.1940   20.3880 F   0  0  0  0  0  0  0  0  0  0  0  0
  1  2  1  0
  2  3  1  0
  3  4  2  0
  3  5  1  0
  5  6  1  0
  5  7  1  0
  6  8  1  0
  7  9  1  0
  8 10  1  0
  9 10  1  0
 10 11  1  0
 11 12  2  0
 11 13  1  0
 12 14  1  0
 12 15  1  0
 13 16  2  0
 13 17  1  0
 15 18  2  0
 16 18  1  0
 18 19  1  0
 19 20  1  0
 19 21  1  0
 20 22  2  0
 20 23  1  0
 21 24  2  0
 21 25  1  0
 23 26  1  0
 24 27  1  0
 25 28  2  0
 25 29  1  0
 26 30  1  0
 27 31  2  0
 28 31  1  0
 28 32  1  0
 29 33  2  0
 32 33  1  0
 30 34  2  0
 30 35  1  0
 34 36  1  0
 35 37  2  0
 36 38  2  0
 37 38  1  0
 37 39  1  0
M  END
