NIM-NMI-8bb27a2b-19-chloroacetamide
     RDKit          3D

 29 30  0  0  0  0  0  0  0  0999 V2000
    7.4150   -3.5560   20.1850 C   0  0  0  0  0  0  0  0  0  0  0  0
    7.4340   -2.0670   19.8980 C   0  0  0  0  0  0  0  0  0  0  0  0
    6.9090   -2.6210   18.8000 O   0  0  0  0  0  0  0  0  0  0  0  0
    7.9870   -1.9820   21.2880 N   0  0  0  0  0  0  0  0  0  0  0  0
    9.3060   -1.3550   21.8010 C   0  0  0  0  0  0  0  0  0  0  0  0
    6.8890   -2.0010   22.3290 C   0  0  1  0  0  0  0  0  0  0  0  0
    9.2150   -0.0480   22.5060 C   0  0  0  0  0  0  0  0  0  0  0  0
   10.6230   -1.8990   21.6910 C   0  0  0  0  0  0  0  0  0  0  0  0
    6.0590   -3.3310   22.3060 C   0  0  0  0  0  0  0  0  0  0  0  0
    7.3410   -1.5030   23.5740 C   0  0  0  0  0  0  0  0  0  0  0  0
   10.4520    0.6380   23.0480 C   0  0  0  0  0  0  0  0  0  0  0  0
   11.7410   -1.2420   22.1960 C   0  0  0  0  0  0  0  0  0  0  0  0
    5.0340   -3.5080   21.6210 O   0  0  0  0  0  0  0  0  0  0  0  0
    6.5980   -4.3690   23.1940 N   0  0  0  0  0  0  0  0  0  0  0  0
    8.7050   -1.9830   24.1940 C   0  0  0  0  0  0  0  0  0  0  0  0
    6.4890   -0.5630   24.1900 C   0  0  0  0  0  0  0  0  0  0  0  0
   11.6230   -0.0120   22.8450 C   0  0  0  0  0  0  0  0  0  0  0  0
    7.0350   -5.5860   22.7570 C   0  0  0  0  0  0  0  0  0  0  0  0
    8.8250   -1.2030   25.5220 C   0  0  0  0  0  0  0  0  0  0  0  0
    6.6710    0.0740   25.3630 N   0  0  0  0  0  0  0  0  0  0  0  0
   12.6140    0.6730   23.3430 C   0  0  0  0  0  0  0  0  0  0  0  0
    8.1350   -5.9740   23.5240 C   0  0  0  0  0  0  0  0  0  0  0  0
    7.7930   -0.2390   25.9910 C   0  0  0  0  0  0  0  0  0  0  0  0
   13.7620    0.3570   22.7240 F   0  0  0  0  0  0  0  0  0  0  0  0
   12.4430    2.0180   23.2640 F   0  0  0  0  0  0  0  0  0  0  0  0
   12.7080    0.3330   24.6260 F   0  0  0  0  0  0  0  0  0  0  0  0
    9.0040   -6.7270   23.1230 O   0  0  0  0  0  0  0  0  0  0  0  0
    8.1030   -5.4150   24.7570 O   0  0  0  0  0  0  0  0  0  0  0  0
    9.3010   -5.4200   25.5840 C   0  0  0  0  0  0  0  0  0  0  0  0
  1  2  1  0
  2  3  2  0
  2  4  1  0
  4  5  1  0
  4  6  1  0
  5  7  2  0
  5  8  1  0
  6  9  1  1
  6 10  1  0
  7 11  1  0
  8 12  2  0
  9 13  2  0
  9 14  1  0
 10 15  2  0
 10 16  1  0
 11 17  2  0
 12 17  1  0
 14 18  1  0
 15 19  1  0
 16 20  2  0
 17 21  1  0
 18 22  1  0
 19 23  2  0
 20 23  1  0
 21 24  1  0
 21 25  1  0
 21 26  1  0
 22 27  2  0
 22 28  1  0
 28 29  1  0
M  END
