NIM-UNI-310206f0-50-acrylamide
     RDKit          3D

 37 41  0  0  0  0  0  0  0  0999 V2000
    7.1020   -2.8460   18.6050 C   0  0  0  0  0  0  0  0  0  0  0  0
    6.2460   -2.3980   19.7790 C   0  0  0  0  0  0  0  0  0  0  0  0
    5.6710   -3.5460   20.5770 C   0  0  0  0  0  0  0  0  0  0  0  0
    5.2150   -4.5590   20.0240 O   0  0  0  0  0  0  0  0  0  0  0  0
    5.6840   -3.3860   21.9540 N   0  0  0  0  0  0  0  0  0  0  0  0
    5.3980   -2.0860   22.5910 C   0  0  0  0  0  0  0  0  0  0  0  0
    6.6080   -4.2300   22.7220 C   0  0  0  0  0  0  0  0  0  0  0  0
    6.3920   -1.6770   23.6820 C   0  0  0  0  0  0  0  0  0  0  0  0
    7.8540   -3.6120   22.8810 C   0  0  0  0  0  0  0  0  0  0  0  0
    7.7380   -2.2760   23.4790 N   0  0  0  0  0  0  0  0  0  0  0  0
    8.6410   -1.3380   23.2690 C   0  0  0  0  0  0  0  0  0  0  0  0
    8.3090   -0.0880   22.7740 C   0  0  0  0  0  0  0  0  0  0  0  0
    9.9950   -1.4760   23.5100 C   0  0  0  0  0  0  0  0  0  0  0  0
    7.0380    0.2150   22.4760 F   0  0  0  0  0  0  0  0  0  0  0  0
    9.2400    0.9530   22.5480 C   0  0  0  0  0  0  0  0  0  0  0  0
   10.9630   -0.3320   23.2540 C   0  0  0  0  0  0  0  0  0  0  0  0
   10.4970   -2.6260   23.9830 F   0  0  0  0  0  0  0  0  0  0  0  0
   10.6520    0.9640   22.7630 C   0  0  0  0  0  0  0  0  0  0  0  0
   11.8860    1.5550   22.7510 N   0  0  0  0  0  0  0  0  0  0  0  0
   12.9440    0.7530   23.0300 C   0  0  0  0  0  0  0  0  0  0  0  0
   11.9220    3.0100   22.9580 C   0  0  0  0  0  0  0  0  0  0  0  0
   13.0730    0.1030   24.1740 O   0  0  0  0  0  0  0  0  0  0  0  0
   13.9060    0.5330   22.0600 N   0  0  0  0  0  0  0  0  0  0  0  0
   13.1490    3.8190   22.6430 C   0  0  0  0  0  0  0  0  0  0  0  0
   10.7820    3.7430   23.4750 C   0  0  0  0  0  0  0  0  0  0  0  0
   14.6130    1.5230   21.3960 C   0  0  0  0  0  0  0  0  0  0  0  0
   13.1550    5.3120   22.8610 C   0  0  0  0  0  0  0  0  0  0  0  0
   10.7960    5.1710   23.6830 C   0  0  0  0  0  0  0  0  0  0  0  0
    9.4980    3.4080   23.8880 C   0  0  0  0  0  0  0  0  0  0  0  0
   14.7610    2.9510   21.7540 C   0  0  0  0  0  0  0  0  0  0  0  0
   15.3860    1.1510   19.9050 C   0  0  0  0  0  0  0  0  0  0  0  0
   11.9160    5.9630   23.3980 C   0  0  0  0  0  0  0  0  0  0  0  0
    9.5640    5.5700   24.1850 N   0  0  0  0  0  0  0  0  0  0  0  0
    8.7520    4.4830   24.3160 C   0  0  0  0  0  0  0  0  0  0  0  0
   15.5090    3.8660   20.8560 C   0  0  0  0  0  0  0  0  0  0  0  0
   16.0510    2.2810   19.1830 C   0  0  0  0  0  0  0  0  0  0  0  0
   16.0990    3.5610   19.6660 N   0  0  0  0  0  0  0  0  0  0  0  0
  1  2  1  0
  2  3  1  0
  3  4  2  0
  3  5  1  0
  5  6  1  0
  5  7  1  0
  6  8  1  0
  7  9  1  0
  8 10  1  0
  9 10  1  0
 10 11  1  0
 11 12  2  0
 11 13  1  0
 12 14  1  0
 12 15  1  0
 13 16  2  0
 13 17  1  0
 15 18  2  0
 16 18  1  0
 18 19  1  0
 19 20  1  0
 19 21  1  0
 20 22  2  0
 20 23  1  0
 21 24  2  0
 21 25  1  0
 23 26  1  0
 24 27  1  0
 25 28  2  0
 25 29  1  0
 26 30  2  0
 26 31  1  0
 27 32  2  0
 28 32  1  0
 28 33  1  0
 29 34  2  0
 33 34  1  0
 30 35  1  0
 31 36  2  0
 35 37  2  0
 36 37  1  0
M  END
