NIM-NMI-8bb27a2b-5-vinylsulfonamide
     RDKit          3D

 33 34  0  0  0  0  0  0  0  0999 V2000
    6.4500   -4.8190   20.2200 C   0  0  0  0  0  0  0  0  0  0  0  0
    7.3000   -3.8070   20.9190 C   0  0  0  0  0  0  0  0  0  0  0  0
    6.2840   -2.4210   20.7530 S   0  0  0  0  0  0  0  0  0  0  0  0
    4.8850   -3.0390   21.0990 O   0  0  0  0  0  0  0  0  0  0  0  0
    6.5070   -1.9720   19.3960 O   0  0  0  0  0  0  0  0  0  0  0  0
    7.1480   -1.3050   21.7850 N   0  0  0  0  0  0  0  0  0  0  0  0
    8.6420   -1.5450   21.9920 C   0  0  0  0  0  0  0  0  0  0  0  0
    6.7810    0.0940   21.4810 C   0  0  1  0  0  0  0  0  0  0  0  0
    9.6200   -0.6590   22.6500 C   0  0  0  0  0  0  0  0  0  0  0  0
    9.3720   -2.5770   21.6340 N   0  0  0  0  0  0  0  0  0  0  0  0
    7.5840    1.0810   22.3730 C   0  0  0  0  0  0  0  0  0  0  0  0
    6.7330    0.3110   20.0880 C   0  0  0  0  0  0  0  0  0  0  0  0
   10.9530   -1.3220   22.5960 C   0  0  0  0  0  0  0  0  0  0  0  0
   10.7460   -2.4000   22.0140 O   0  0  0  0  0  0  0  0  0  0  0  0
    7.8270    1.7150   23.4020 O   0  0  0  0  0  0  0  0  0  0  0  0
    6.4710    0.5130   22.9600 N   0  0  0  0  0  0  0  0  0  0  0  0
    5.2730    0.8760   20.2800 C   0  0  0  0  0  0  0  0  0  0  0  0
    6.2010    0.6890   18.9360 C   0  0  0  0  0  0  0  0  0  0  0  0
   12.1870   -0.9150   23.0540 C   0  0  0  0  0  0  0  0  0  0  0  0
    6.6580   -0.1450   24.1440 C   0  0  0  0  0  0  0  0  0  0  0  0
    4.5080    1.3550   19.1060 C   0  0  0  0  0  0  0  0  0  0  0  0
    6.4130    0.7840   17.6320 N   0  0  0  0  0  0  0  0  0  0  0  0
   12.4020   -1.5540   24.2630 C   0  0  0  0  0  0  0  0  0  0  0  0
   12.4700    0.5830   23.2660 C   0  0  0  0  0  0  0  0  0  0  0  0
   13.1940   -1.4840   22.0600 C   0  0  0  0  0  0  0  0  0  0  0  0
    5.7220   -1.0640   24.6410 C   0  0  0  0  0  0  0  0  0  0  0  0
    5.2520    1.2160   17.9470 C   0  0  0  0  0  0  0  0  0  0  0  0
    5.1100   -0.7030   25.8090 O   0  0  0  0  0  0  0  0  0  0  0  0
    5.5560   -2.1960   23.8850 O   0  0  0  0  0  0  0  0  0  0  0  0
    6.2230   -3.3770   24.3600 C   0  0  0  0  0  0  0  0  0  0  0  0
    5.7600   -4.5170   23.6760 C   0  0  0  0  0  0  0  0  0  0  0  0
    5.9860   -3.5420   25.8630 C   0  0  0  0  0  0  0  0  0  0  0  0
    7.7120   -3.1340   24.0800 C   0  0  0  0  0  0  0  0  0  0  0  0
  1  2  1  0
  2  3  1  0
  3  4  2  0
  3  5  2  0
  3  6  1  0
  6  7  1  0
  6  8  1  0
  7  9  1  0
  7 10  2  0
  8 11  1  1
  8 12  1  0
  9 13  2  0
 10 14  1  0
 13 14  1  0
 11 15  2  0
 11 16  1  0
 12 17  2  0
 12 18  1  0
 13 19  1  0
 16 20  1  0
 17 21  1  0
 18 22  2  0
 19 23  1  0
 19 24  1  0
 19 25  1  0
 20 26  1  0
 21 27  2  0
 22 27  1  0
 26 28  2  0
 26 29  1  0
 30 29  1  0
 30 31  1  0
 30 32  1  0
 30 33  1  0
M  END
