NIM-UNI-310206f0-3-acrylamide
     RDKit          3D

 24 26  0  0  0  0  0  0  0  0999 V2000
    7.1850   -2.8400   18.5590 C   0  0  0  0  0  0  0  0  0  0  0  0
    6.3200   -2.3870   19.7310 C   0  0  0  0  0  0  0  0  0  0  0  0
    5.6450   -3.5680   20.4000 C   0  0  0  0  0  0  0  0  0  0  0  0
    5.0960   -4.4310   19.7250 O   0  0  0  0  0  0  0  0  0  0  0  0
    5.6830   -3.6510   21.7940 N   0  0  0  0  0  0  0  0  0  0  0  0
    6.6960   -4.4150   22.4760 C   0  0  0  0  0  0  0  0  0  0  0  0
    5.2260   -2.5270   22.5860 C   0  0  0  0  0  0  0  0  0  0  0  0
    7.6850   -3.7170   23.1660 C   0  0  0  0  0  0  0  0  0  0  0  0
    6.2830   -1.7020   22.8130 C   0  0  0  0  0  0  0  0  0  0  0  0
    7.3040   -2.3660   23.6510 N   0  0  0  0  0  0  0  0  0  0  0  0
    8.4540   -1.5070   23.5280 C   0  0  0  0  0  0  0  0  0  0  0  0
    9.8360   -2.0570   23.7120 C   0  0  0  0  0  0  0  0  0  0  0  0
    8.2000   -0.1800   23.2140 C   0  0  0  0  0  0  0  0  0  0  0  0
   10.1450   -3.3010   24.0120 F   0  0  0  0  0  0  0  0  0  0  0  0
   10.9150   -1.1270   23.5260 C   0  0  0  0  0  0  0  0  0  0  0  0
    9.2010    0.6850   23.0360 C   0  0  0  0  0  0  0  0  0  0  0  0
    6.9610    0.3090   23.0600 F   0  0  0  0  0  0  0  0  0  0  0  0
   10.4940    0.2270   23.1750 C   0  0  0  0  0  0  0  0  0  0  0  0
   11.6610    1.0820   22.9510 C   0  0  0  0  0  0  0  0  0  0  0  0
   12.9820    0.2190   22.8520 C   0  0  0  0  0  0  0  0  0  0  0  0
   11.5470    2.6530   22.8100 C   0  0  0  0  0  0  0  0  0  0  0  0
   14.1080    1.0360   22.6070 N   0  0  0  0  0  0  0  0  0  0  0  0
   12.6430    3.3930   22.5770 N   0  0  0  0  0  0  0  0  0  0  0  0
   13.2610    2.1720   22.6130 C   0  0  0  0  0  0  0  0  0  0  0  0
  1  2  1  0
  2  3  1  0
  3  4  2  0
  3  5  1  0
  5  6  1  0
  5  7  1  0
  6  8  1  0
  7  9  1  0
  8 10  1  0
  9 10  1  0
 10 11  1  0
 11 12  2  0
 11 13  1  0
 12 14  1  0
 12 15  1  0
 13 16  2  0
 13 17  1  0
 15 18  2  0
 16 18  1  0
 18 19  1  0
 19 20  2  0
 19 21  1  0
 20 22  1  0
 21 23  2  0
 22 24  2  0
 23 24  1  0
M  END
