NIM-UNI-310206f0-33-bromoalkyne
     RDKit          3D

 34 38  0  0  0  0  0  0  0  0999 V2000
    7.0100   -4.1080   20.2090 C   0  0  0  0  0  0  0  0  0  0  0  0
    5.8120   -5.0420   20.0960 C   0  0  0  0  0  0  0  0  0  0  0  0
    7.1430   -3.1330   21.2240 N   0  0  0  0  0  0  0  0  0  0  0  0
    6.9480   -3.4080   22.6640 C   0  0  0  0  0  0  0  0  0  0  0  0
    8.0000   -1.9770   21.0970 C   0  0  0  0  0  0  0  0  0  0  0  0
    8.3600   -3.5380   23.4530 C   0  0  0  0  0  0  0  0  0  0  0  0
    9.4240   -2.4030   21.4630 C   0  0  0  0  0  0  0  0  0  0  0  0
    9.5970   -2.8980   22.8000 N   0  0  0  0  0  0  0  0  0  0  0  0
   10.1200   -1.6350   23.2300 C   0  0  0  0  0  0  0  0  0  0  0  0
   11.6240   -1.2030   23.0750 C   0  0  0  0  0  0  0  0  0  0  0  0
    9.2130   -0.8610   23.6930 C   0  0  0  0  0  0  0  0  0  0  0  0
   12.6110   -1.9800   22.5970 F   0  0  0  0  0  0  0  0  0  0  0  0
   11.9090    0.3120   23.5130 C   0  0  0  0  0  0  0  0  0  0  0  0
    9.4460    0.4930   24.0820 C   0  0  0  0  0  0  0  0  0  0  0  0
    8.0080   -1.3410   23.7840 F   0  0  0  0  0  0  0  0  0  0  0  0
   10.6250    1.0890   24.0050 C   0  0  0  0  0  0  0  0  0  0  0  0
   10.3860    2.4270   24.4190 N   0  0  0  0  0  0  0  0  0  0  0  0
   11.1360    3.4390   23.7480 C   0  0  0  0  0  0  0  0  0  0  0  0
    8.9740    2.6900   24.5360 C   0  0  0  0  0  0  0  0  0  0  0  0
   12.3750    3.0830   22.9730 C   0  0  0  0  0  0  0  0  0  0  0  0
   10.7800    4.8100   23.7820 C   0  0  0  0  0  0  0  0  0  0  0  0
    8.4700    3.8720   23.9510 C   0  0  0  0  0  0  0  0  0  0  0  0
    8.0770    1.7920   25.2170 C   0  0  0  0  0  0  0  0  0  0  0  0
   13.1340    4.0000   22.3410 C   0  0  0  0  0  0  0  0  0  0  0  0
   11.6390    5.8340   23.0590 C   0  0  0  0  0  0  0  0  0  0  0  0
    7.1220    4.2330   24.0000 C   0  0  0  0  0  0  0  0  0  0  0  0
    6.6940    2.0670   25.3200 C   0  0  0  0  0  0  0  0  0  0  0  0
    8.1990    0.4660   25.9520 C   0  0  0  0  0  0  0  0  0  0  0  0
   12.7660    5.4220   22.3750 C   0  0  0  0  0  0  0  0  0  0  0  0
    6.1690    3.3480   24.6880 C   0  0  0  0  0  0  0  0  0  0  0  0
    5.9850    1.0590   26.0320 N   0  0  0  0  0  0  0  0  0  0  0  0
    6.8450    0.0710   26.4350 C   0  0  0  0  0  0  0  0  0  0  0  0
   13.5830    6.0180   21.7460 O   0  0  0  0  0  0  0  0  0  0  0  0
   14.3870    4.9860   21.2080 C   0  0  0  0  0  0  0  0  0  0  0  0
  1  2  2  3
  1  3  1  0
  3  4  1  0
  3  5  1  0
  4  6  1  0
  5  7  1  0
  6  8  1  0
  7  8  1  0
  8  9  1  0
  9 10  2  0
  9 11  1  0
 10 12  1  0
 10 13  1  0
 11 14  2  0
 11 15  1  0
 13 16  2  0
 14 16  1  0
 16 17  1  0
 17 18  1  0
 17 19  1  0
 18 20  2  0
 18 21  1  0
 19 22  2  0
 19 23  1  0
 20 24  1  0
 21 25  2  0
 22 26  1  0
 23 27  2  0
 23 28  1  0
 24 29  2  0
 25 29  1  0
 26 30  2  0
 27 30  1  0
 27 31  1  0
 28 32  2  0
 31 32  1  0
 29 33  1  0
 33 34  1  0
M  END
