NIM-NMI-8bb27a2b-9-chloroacetamide
     RDKit          3D

 33 36  0  0  0  0  0  0  0  0999 V2000
    7.8350   -4.0620   20.3980 C   0  0  0  0  0  0  0  0  0  0  0  0
    6.6530   -3.2180   20.3860 C   0  0  0  0  0  0  0  0  0  0  0  0
    5.7550   -3.4030   19.4820 O   0  0  0  0  0  0  0  0  0  0  0  0
    6.7820   -2.3500   21.4940 N   0  0  0  0  0  0  0  0  0  0  0  0
    7.8480   -2.7340   22.4690 C   0  0  0  0  0  0  0  0  0  0  0  0
    6.8430   -0.9490   21.3950 C   0  0  1  0  0  0  0  0  0  0  0  0
    9.2290   -2.2530   22.2140 C   0  0  0  0  0  0  0  0  0  0  0  0
    7.8660   -3.4460   23.6020 N   0  0  0  0  0  0  0  0  0  0  0  0
    8.1510   -0.1760   21.6520 C   0  0  0  0  0  0  0  0  0  0  0  0
    6.2310   -0.2480   20.1770 C   0  0  0  0  0  0  0  0  0  0  0  0
   10.0090   -2.6870   23.2550 C   0  0  0  0  0  0  0  0  0  0  0  0
    9.0760   -3.4510   24.0930 O   0  0  0  0  0  0  0  0  0  0  0  0
    8.4690    1.0340   20.9570 O   0  0  0  0  0  0  0  0  0  0  0  0
    8.9250   -0.7710   22.6280 N   0  0  0  0  0  0  0  0  0  0  0  0
    5.0150    0.4390   20.3140 C   0  0  0  0  0  0  0  0  0  0  0  0
    6.8720   -0.2550   18.9470 C   0  0  0  0  0  0  0  0  0  0  0  0
   11.3820   -2.4780   23.5420 C   0  0  0  0  0  0  0  0  0  0  0  0
    9.9340    0.1060   22.7220 C   0  0  0  0  0  0  0  0  0  0  0  0
    4.4650    1.1100   19.2350 C   0  0  0  0  0  0  0  0  0  0  0  0
    6.4000    0.3830   17.8330 N   0  0  0  0  0  0  0  0  0  0  0  0
   11.9140   -3.1940   24.5820 C   0  0  0  0  0  0  0  0  0  0  0  0
   11.5450   -1.1410   24.2090 C   0  0  0  0  0  0  0  0  0  0  0  0
   12.3910   -2.4280   22.5730 C   0  0  0  0  0  0  0  0  0  0  0  0
   11.3170   -0.4160   22.4770 C   0  0  0  0  0  0  0  0  0  0  0  0
    9.7540    1.4070   23.0040 C   0  0  0  0  0  0  0  0  0  0  0  0
    5.2410    1.0510   17.9470 C   0  0  0  0  0  0  0  0  0  0  0  0
   12.3610    0.4950   22.5340 C   0  0  0  0  0  0  0  0  0  0  0  0
   10.8120    2.2720   23.0330 C   0  0  0  0  0  0  0  0  0  0  0  0
   12.1150    1.8400   22.7910 C   0  0  0  0  0  0  0  0  0  0  0  0
   10.5190    3.7380   23.3220 C   0  0  0  0  0  0  0  0  0  0  0  0
   13.1300    2.7670   22.7930 C   0  0  0  0  0  0  0  0  0  0  0  0
   11.7230    4.6710   23.3040 C   0  0  0  0  0  0  0  0  0  0  0  0
   12.9870    4.1330   23.0320 C   0  0  0  0  0  0  0  0  0  0  0  0
  1  2  1  0
  2  3  2  0
  2  4  1  0
  4  5  1  0
  4  6  1  0
  5  7  1  0
  5  8  2  0
  6  9  1  6
  6 10  1  0
  7 11  2  0
  8 12  1  0
 11 12  1  0
  9 13  2  0
  9 14  1  0
 10 15  2  0
 10 16  1  0
 11 17  1  0
 14 18  1  0
 15 19  1  0
 16 20  2  0
 17 21  1  0
 17 22  1  0
 17 23  1  0
 18 24  2  0
 18 25  1  0
 19 26  2  0
 20 26  1  0
 24 27  1  0
 25 28  2  0
 27 29  2  0
 28 29  1  0
 28 30  1  0
 29 31  1  0
 30 32  2  0
 31 33  2  0
 32 33  1  0
M  END
