NIM-UNI-310206f0-52-acrylamide
     RDKit          3D

 37 41  0  0  0  0  0  0  0  0999 V2000
    7.1000   -2.8840   18.5660 C   0  0  0  0  0  0  0  0  0  0  0  0
    6.1070   -2.6070   19.6940 C   0  0  0  0  0  0  0  0  0  0  0  0
    5.5950   -3.8030   20.4970 C   0  0  0  0  0  0  0  0  0  0  0  0
    4.9490   -4.0550   19.5000 O   0  0  0  0  0  0  0  0  0  0  0  0
    6.4270   -3.2210   21.4020 N   0  0  0  0  0  0  0  0  0  0  0  0
    6.7590   -3.9610   22.6140 C   0  0  0  0  0  0  0  0  0  0  0  0
    6.4980   -1.7800   21.6050 C   0  0  0  0  0  0  0  0  0  0  0  0
    7.8810   -3.3070   23.3740 C   0  0  0  0  0  0  0  0  0  0  0  0
    6.2530   -1.5340   23.0780 C   0  0  0  0  0  0  0  0  0  0  0  0
    7.4610   -1.9570   23.7820 N   0  0  0  0  0  0  0  0  0  0  0  0
    8.4630   -1.2600   23.4770 C   0  0  0  0  0  0  0  0  0  0  0  0
    9.7070   -1.7360   23.6790 C   0  0  0  0  0  0  0  0  0  0  0  0
    8.3680    0.0310   22.9090 C   0  0  0  0  0  0  0  0  0  0  0  0
   10.0070   -2.9070   24.1850 F   0  0  0  0  0  0  0  0  0  0  0  0
   10.7570   -1.0240   23.3560 C   0  0  0  0  0  0  0  0  0  0  0  0
    9.4890    0.7710   22.5640 C   0  0  0  0  0  0  0  0  0  0  0  0
    7.1840    0.6180   22.6630 F   0  0  0  0  0  0  0  0  0  0  0  0
   10.7330    0.2200   22.7930 C   0  0  0  0  0  0  0  0  0  0  0  0
   11.6130    1.0370   22.4010 N   0  0  0  0  0  0  0  0  0  0  0  0
   12.2500    0.0760   23.0110 C   0  0  0  0  0  0  0  0  0  0  0  0
   11.5230    2.7510   22.6440 S   0  0  0  0  0  0  0  0  0  0  0  0
   12.3910    0.3480   24.4010 C   0  0  0  0  0  0  0  0  0  0  0  0
   12.6910   -1.1580   22.4510 C   0  0  0  0  0  0  0  0  0  0  0  0
   11.4990    3.0490   24.0270 O   0  0  0  0  0  0  0  0  0  0  0  0
   10.4390    3.2520   21.8420 O   0  0  0  0  0  0  0  0  0  0  0  0
   13.0090    3.2210   21.7990 C   0  0  0  0  0  0  0  0  0  0  0  0
   12.9970   -0.6520   25.2900 C   0  0  0  0  0  0  0  0  0  0  0  0
   13.2820   -2.1010   23.3260 C   0  0  0  0  0  0  0  0  0  0  0  0
   12.7300   -1.8840   21.1430 C   0  0  0  0  0  0  0  0  0  0  0  0
   13.3220    4.3810   20.8890 C   0  0  0  0  0  0  0  0  0  0  0  0
   14.1840    2.4930   21.8290 N   0  0  0  0  0  0  0  0  0  0  0  0
   13.4820   -1.9400   24.8000 C   0  0  0  0  0  0  0  0  0  0  0  0
   13.6460   -3.1880   22.6700 N   0  0  0  0  0  0  0  0  0  0  0  0
   13.3440   -3.1610   21.2720 C   0  0  0  0  0  0  0  0  0  0  0  0
   14.7360    4.2350   20.4000 C   0  0  0  0  0  0  0  0  0  0  0  0
   15.1640    3.1090   21.0120 O   0  0  0  0  0  0  0  0  0  0  0  0
   15.6360    5.0220   19.4470 C   0  0  0  0  0  0  0  0  0  0  0  0
  1  2  1  0
  2  3  1  0
  3  4  2  0
  3  5  1  0
  5  6  1  0
  5  7  1  0
  6  8  1  0
  7  9  1  0
  8 10  1  0
  9 10  1  0
 10 11  1  0
 11 12  2  0
 11 13  1  0
 12 14  1  0
 12 15  1  0
 13 16  2  0
 13 17  1  0
 15 18  2  0
 16 18  1  0
 18 19  1  0
 19 20  1  0
 21 19  1  0
 20 22  2  0
 20 23  1  0
 21 24  2  0
 21 25  2  0
 21 26  1  0
 22 27  1  0
 23 28  2  0
 23 29  1  0
 26 30  1  0
 26 31  2  0
 27 32  2  0
 28 32  1  0
 28 33  1  0
 29 34  2  0
 33 34  1  0
 30 35  2  0
 31 36  1  0
 35 36  1  0
 35 37  1  0
M  END
