NIM-NMI-8bb27a2b-7-acrylamide
     RDKit          3D

 32 34  0  0  0  0  0  0  0  0999 V2000
    7.2980   -2.8920   18.5270 C   0  0  0  0  0  0  0  0  0  0  0  0
    7.0440   -2.2220   19.8150 C   0  0  0  0  0  0  0  0  0  0  0  0
    5.8700   -2.8630   20.4610 C   0  0  0  0  0  0  0  0  0  0  0  0
    4.9820   -3.2840   21.2940 O   0  0  0  0  0  0  0  0  0  0  0  0
    6.6780   -2.1530   21.4390 N   0  0  0  0  0  0  0  0  0  0  0  0
    7.9850   -2.6210   22.0350 C   0  0  0  0  0  0  0  0  0  0  0  0
    6.6290   -0.7500   21.4310 C   0  0  1  0  0  0  0  0  0  0  0  0
    9.2030   -1.9750   21.7420 C   0  0  0  0  0  0  0  0  0  0  0  0
    8.4030   -3.7040   22.9850 N   0  0  0  0  0  0  0  0  0  0  0  0
    7.8850   -0.1630   21.8270 C   0  0  0  0  0  0  0  0  0  0  0  0
    6.2070   -0.1140   20.2460 C   0  0  0  0  0  0  0  0  0  0  0  0
   10.2390   -2.5410   22.4250 C   0  0  0  0  0  0  0  0  0  0  0  0
    9.6810   -3.6100   23.1760 O   0  0  0  0  0  0  0  0  0  0  0  0
    8.2910    0.6190   20.9740 O   0  0  0  0  0  0  0  0  0  0  0  0
    8.6130   -0.3520   23.0160 N   0  0  0  0  0  0  0  0  0  0  0  0
    5.0030    0.6010   20.3020 C   0  0  0  0  0  0  0  0  0  0  0  0
    6.8720   -0.1140   19.0140 C   0  0  0  0  0  0  0  0  0  0  0  0
   11.6350   -2.1070   22.3990 C   0  0  0  0  0  0  0  0  0  0  0  0
    9.9010    0.1750   23.0500 C   0  0  0  0  0  0  0  0  0  0  0  0
    4.5210    1.2670   19.1770 C   0  0  0  0  0  0  0  0  0  0  0  0
    6.4150    0.5340   17.9010 N   0  0  0  0  0  0  0  0  0  0  0  0
   11.7270   -0.6210   22.5910 C   0  0  0  0  0  0  0  0  0  0  0  0
   12.5250   -2.7110   23.5490 C   0  0  0  0  0  0  0  0  0  0  0  0
   12.4890   -2.2590   21.3290 C   0  0  0  0  0  0  0  0  0  0  0  0
   10.8950   -0.6600   23.5420 C   0  0  0  0  0  0  0  0  0  0  0  0
   10.3930    1.5430   22.6240 C   0  0  0  0  0  0  0  0  0  0  0  0
    5.2530    1.2110   18.0040 C   0  0  0  0  0  0  0  0  0  0  0  0
   10.6770   -1.9220   23.9880 C   0  0  0  0  0  0  0  0  0  0  0  0
   12.4230   -0.2490   23.6380 C   0  0  0  0  0  0  0  0  0  0  0  0
   11.8760    1.8750   22.7320 C   0  0  0  0  0  0  0  0  0  0  0  0
    9.3500    2.7810   22.0120 Cl  0  0  0  0  0  0  0  0  0  0  0  0
   12.7830    0.9840   23.2110 C   0  0  0  0  0  0  0  0  0  0  0  0
  1  2  1  0
  2  3  1  0
  3  4  2  0
  3  5  1  0
  5  6  1  0
  5  7  1  0
  6  8  1  0
  6  9  2  0
  7 10  1  6
  7 11  1  0
  8 12  2  0
  9 13  1  0
 12 13  1  0
 10 14  2  0
 10 15  1  0
 11 16  2  0
 11 17  1  0
 12 18  1  0
 15 19  1  0
 16 20  1  0
 17 21  2  0
 18 22  1  0
 18 23  1  0
 18 24  1  0
 19 25  2  0
 19 26  1  0
 20 27  2  0
 21 27  1  0
 25 28  1  0
 25 29  1  0
 26 30  2  0
 26 31  1  0
 29 32  2  0
 30 32  1  0
M  END
