NIM-UNI-05f93fcc-11-bromoalkyne
     RDKit          3D

 23 25  0  0  0  0  0  0  0  0999 V2000
    6.7430   -4.2280   20.3660 C   0  0  0  0  0  0  0  0  0  0  0  0
    5.5620   -4.2520   19.8840 C   0  0  0  0  0  0  0  0  0  0  0  0
    6.9340   -5.0050   21.5360 N   0  0  0  0  0  0  0  0  0  0  0  0
    6.0850   -6.2010   21.7290 C   0  0  0  0  0  0  0  0  0  0  0  0
    7.3940   -4.4180   22.8340 C   0  0  0  0  0  0  0  0  0  0  0  0
    5.0140   -5.9790   22.8060 C   0  0  0  0  0  0  0  0  0  0  0  0
    6.3930   -4.3300   23.8830 C   0  0  0  0  0  0  0  0  0  0  0  0
    5.6360   -5.6020   24.0650 N   0  0  0  0  0  0  0  0  0  0  0  0
    4.7430   -5.9080   25.5120 S   0  0  0  0  0  0  0  0  0  0  0  0
    5.6690   -5.8830   26.5920 O   0  0  0  0  0  0  0  0  0  0  0  0
    3.9320   -7.0430   25.3340 O   0  0  0  0  0  0  0  0  0  0  0  0
    3.6930   -4.5120   25.6430 C   0  0  0  0  0  0  0  0  0  0  0  0
    2.1900   -4.3210   25.5670 C   0  0  0  0  0  0  0  0  0  0  0  0
    4.4690   -3.0820   25.9050 S   0  0  0  0  0  0  0  0  0  0  0  0
    1.8620   -2.9680   25.7390 C   0  0  0  0  0  0  0  0  0  0  0  0
    3.0060   -2.2080   25.9290 C   0  0  0  0  0  0  0  0  0  0  0  0
    3.3250   -0.8960   26.1390 C   0  0  0  0  0  0  0  0  0  0  0  0
    2.4650    0.2410   26.2620 C   0  0  0  0  0  0  0  0  0  0  0  0
    4.7220   -0.7950   26.2280 C   0  0  0  0  0  0  0  0  0  0  0  0
    3.0550    1.5070   26.4790 C   0  0  0  0  0  0  0  0  0  0  0  0
    5.3900    0.5260   26.4570 C   0  0  0  0  0  0  0  0  0  0  0  0
    4.5770    1.6630   26.5810 C   0  0  0  0  0  0  0  0  0  0  0  0
    5.1890    3.0330   26.8130 C   0  0  0  0  0  0  0  0  0  0  0  0
  1  2  2  3
  1  3  1  0
  3  4  1  0
  3  5  1  0
  4  6  1  0
  5  7  1  0
  6  8  1  0
  7  8  1  0
  8  9  1  0
  9 10  2  0
  9 11  2  0
  9 12  1  0
 12 13  2  0
 12 14  1  0
 13 15  1  0
 14 16  1  0
 15 16  2  0
 16 17  1  0
 17 18  2  0
 17 19  1  0
 18 20  1  0
 19 21  2  0
 20 22  2  0
 21 22  1  0
 22 23  1  0
M  END
