NIM-UNI-bb9030bf-2-nitrile
     RDKit          3D

 24 25  0  0  0  0  0  0  0  0999 V2000
    6.4350   -4.2360   19.9080 C   0  0  0  0  0  0  0  0  0  0  0  0
    5.1800   -4.2730   19.8100 N   0  0  0  0  0  0  0  0  0  0  0  0
    7.1540   -3.0840   19.9400 N   0  0  0  0  0  0  0  0  0  0  0  0
    6.6030   -1.9780   20.6960 C   0  0  2  0  0  0  0  0  0  0  0  0
    7.3000   -0.6590   20.3390 C   0  0  0  0  0  0  0  0  0  0  0  0
    6.5480   -2.4000   22.1610 C   0  0  0  0  0  0  0  0  0  0  0  0
    7.4570   -0.3020   19.1830 O   0  0  0  0  0  0  0  0  0  0  0  0
    7.7000    0.1540   21.4820 N   0  0  0  0  0  0  0  0  0  0  0  0
    5.5920   -1.7360   23.1970 C   0  0  0  0  0  0  0  0  0  0  0  0
    7.3850   -3.4440   22.6210 C   0  0  0  0  0  0  0  0  0  0  0  0
    8.1260   -0.5200   22.6260 C   0  0  0  0  0  0  0  0  0  0  0  0
    5.6900   -2.3270   24.6330 C   0  0  0  0  0  0  0  0  0  0  0  0
    7.4560   -3.9540   23.8910 N   0  0  0  0  0  0  0  0  0  0  0  0
    9.4460   -0.0980   23.1210 C   0  0  0  0  0  0  0  0  0  0  0  0
    6.6600   -3.4320   24.8430 C   0  0  0  0  0  0  0  0  0  0  0  0
    9.8830   -1.1110   22.1520 C   0  0  0  0  0  0  0  0  0  0  0  0
   10.1370    0.7340   23.9780 C   0  0  0  0  0  0  0  0  0  0  0  0
   11.1930   -1.2390   22.1050 C   0  0  0  0  0  0  0  0  0  0  0  0
   11.5100    0.5930   23.9150 C   0  0  0  0  0  0  0  0  0  0  0  0
   12.0300   -0.3550   23.0170 C   0  0  0  0  0  0  0  0  0  0  0  0
   13.3930   -0.5810   22.8760 C   0  0  0  0  0  0  0  0  0  0  0  0
   13.6150   -1.3140   21.7530 F   0  0  0  0  0  0  0  0  0  0  0  0
   13.7940   -1.2940   23.9500 F   0  0  0  0  0  0  0  0  0  0  0  0
   13.9580    0.6240   22.7440 F   0  0  0  0  0  0  0  0  0  0  0  0
  1  2  2  3
  1  3  1  0
  4  3  1  6
  4  5  1  0
  4  6  1  0
  5  7  2  0
  5  8  1  0
  6  9  2  0
  6 10  1  0
  8 11  1  0
  9 12  1  0
 10 13  2  0
 11 14  1  0
 12 15  2  0
 13 15  1  0
 14 16  2  0
 14 17  1  0
 16 18  1  0
 17 19  2  0
 18 20  2  0
 19 20  1  0
 20 21  1  0
 21 22  1  0
 21 23  1  0
 21 24  1  0
M  END
