NIM-UNI-310206f0-2-vinylsulfonamide
     RDKit          3D

 25 27  0  0  0  0  0  0  0  0999 V2000
    7.5420   -2.9540   18.3980 C   0  0  0  0  0  0  0  0  0  0  0  0
    7.2170   -2.1420   19.6050 C   0  0  0  0  0  0  0  0  0  0  0  0
    5.6950   -2.6820   20.3140 S   0  0  0  0  0  0  0  0  0  0  0  0
    5.1070   -3.9410   19.8160 O   0  0  0  0  0  0  0  0  0  0  0  0
    4.9010   -1.4760   20.3290 O   0  0  0  0  0  0  0  0  0  0  0  0
    6.2230   -2.9590   21.8850 N   0  0  0  0  0  0  0  0  0  0  0  0
    6.3640   -1.8030   22.6330 C   0  0  0  0  0  0  0  0  0  0  0  0
    7.3540   -3.8760   22.0860 C   0  0  0  0  0  0  0  0  0  0  0  0
    6.5200   -2.0600   23.9780 C   0  0  0  0  0  0  0  0  0  0  0  0
    7.7370   -4.1180   23.4190 C   0  0  0  0  0  0  0  0  0  0  0  0
    7.7060   -2.8800   24.2560 N   0  0  0  0  0  0  0  0  0  0  0  0
    8.7200   -1.8610   24.1830 C   0  0  0  0  0  0  0  0  0  0  0  0
    9.7820   -2.1140   23.3390 C   0  0  0  0  0  0  0  0  0  0  0  0
    8.6560   -0.6290   24.8920 C   0  0  0  0  0  0  0  0  0  0  0  0
    9.9790   -3.2210   22.6490 F   0  0  0  0  0  0  0  0  0  0  0  0
   10.7880   -1.1250   23.1210 C   0  0  0  0  0  0  0  0  0  0  0  0
    9.6000    0.3340   24.7130 C   0  0  0  0  0  0  0  0  0  0  0  0
    7.6510   -0.3500   25.7440 F   0  0  0  0  0  0  0  0  0  0  0  0
   10.6130    0.0910   23.8270 C   0  0  0  0  0  0  0  0  0  0  0  0
   11.6370    0.8430   23.3370 C   0  0  0  0  0  0  0  0  0  0  0  0
   12.8550    0.1170   22.8370 C   0  0  0  0  0  0  0  0  0  0  0  0
   11.5430    2.3350   23.0990 C   0  0  0  0  0  0  0  0  0  0  0  0
   13.8170    0.9870   22.1120 C   0  0  0  0  0  0  0  0  0  0  0  0
   12.8520    2.6040   22.8450 C   0  0  0  0  0  0  0  0  0  0  0  0
   13.3120    2.0550   21.8390 O   0  0  0  0  0  0  0  0  0  0  0  0
  1  2  1  0
  3  2  1  0
  3  4  2  0
  3  5  2  0
  3  6  1  0
  6  7  1  0
  6  8  1  0
  7  9  1  0
  8 10  1  0
  9 11  1  0
 10 11  1  0
 11 12  1  0
 12 13  2  0
 12 14  1  0
 13 15  1  0
 13 16  1  0
 14 17  2  0
 14 18  1  0
 16 19  2  0
 17 19  1  0
 19 20  1  0
 20 21  2  0
 20 22  1  0
 21 23  1  0
 22 24  1  0
 23 25  1  0
 24 25  1  0
M  END
