NIM-UNI-310206f0-40-nitrile
     RDKit          3D

 31 34  0  0  0  0  0  0  0  0999 V2000
    6.7530   -3.4040   19.5600 C   0  0  0  0  0  0  0  0  0  0  0  0
    5.9170   -3.0780   18.6560 N   0  0  0  0  0  0  0  0  0  0  0  0
    6.6060   -3.0910   20.8860 N   0  0  0  0  0  0  0  0  0  0  0  0
    6.5580   -4.0560   22.0090 C   0  0  0  0  0  0  0  0  0  0  0  0
    6.6850   -1.7010   21.3320 C   0  0  0  0  0  0  0  0  0  0  0  0
    7.8600   -3.7350   22.8450 C   0  0  0  0  0  0  0  0  0  0  0  0
    6.5610   -1.6900   22.8450 C   0  0  0  0  0  0  0  0  0  0  0  0
    7.7170   -2.3780   23.4000 N   0  0  0  0  0  0  0  0  0  0  0  0
    8.8060   -1.6160   23.3770 C   0  0  0  0  0  0  0  0  0  0  0  0
    8.5940   -0.1340   22.8780 C   0  0  0  0  0  0  0  0  0  0  0  0
   10.0800   -2.0270   23.7480 C   0  0  0  0  0  0  0  0  0  0  0  0
    7.4120    0.3790   22.4970 F   0  0  0  0  0  0  0  0  0  0  0  0
    9.8150    0.7940   22.8180 C   0  0  0  0  0  0  0  0  0  0  0  0
   11.2340   -1.1200   23.7000 C   0  0  0  0  0  0  0  0  0  0  0  0
   10.3790   -3.2370   24.1640 F   0  0  0  0  0  0  0  0  0  0  0  0
   11.1350    0.1500   23.2750 C   0  0  0  0  0  0  0  0  0  0  0  0
   12.2580    0.9320   23.2250 N   0  0  0  0  0  0  0  0  0  0  0  0
   13.4010    0.1640   22.8390 C   0  0  0  0  0  0  0  0  0  0  0  0
   12.1110    2.3090   22.9930 C   0  0  0  0  0  0  0  0  0  0  0  0
   13.3170   -1.0640   21.8820 C   0  0  0  0  0  0  0  0  0  0  0  0
   11.0260    2.8810   22.9820 O   0  0  0  0  0  0  0  0  0  0  0  0
   13.2420    3.0070   22.7870 N   0  0  0  0  0  0  0  0  0  0  0  0
   13.0390   -2.3440   22.3690 C   0  0  0  0  0  0  0  0  0  0  0  0
   11.9420   -2.0360   21.7740 C   0  0  0  0  0  0  0  0  0  0  0  0
   13.0500    4.3400   22.6960 C   0  0  0  0  0  0  0  0  0  0  0  0
   12.2030    5.3630   23.4150 C   0  0  0  0  0  0  0  0  0  0  0  0
   13.6970    5.0790   21.7970 C   0  0  0  0  0  0  0  0  0  0  0  0
   11.2480    5.0070   24.5650 C   0  0  0  0  0  0  0  0  0  0  0  0
   12.3950    6.5850   22.9240 N   0  0  0  0  0  0  0  0  0  0  0  0
   13.3330    6.4010   21.9020 O   0  0  0  0  0  0  0  0  0  0  0  0
   14.6090    4.6660   20.8590 C   0  0  0  0  0  0  0  0  0  0  0  0
  1  2  2  3
  1  3  1  0
  3  4  1  0
  3  5  1  0
  4  6  1  0
  5  7  1  0
  6  8  1  0
  7  8  1  0
  8  9  1  0
  9 10  2  0
  9 11  1  0
 10 12  1  0
 10 13  1  0
 11 14  2  0
 11 15  1  0
 13 16  2  0
 14 16  1  0
 16 17  1  0
 17 18  1  0
 17 19  1  0
 18 20  1  0
 19 21  2  0
 19 22  1  0
 20 23  1  0
 20 24  1  0
 23 24  1  0
 22 25  1  0
 25 26  1  0
 25 27  2  0
 26 28  1  0
 26 29  2  0
 27 30  1  0
 29 30  1  0
 27 31  1  0
M  END
