NIM-UNI-310206f0-68-nitrile
     RDKit          3D

 22 24  0  0  0  0  0  0  0  0999 V2000
    6.6280   -4.0940   20.2800 C   0  0  0  0  0  0  0  0  0  0  0  0
    5.5190   -3.8970   19.6780 N   0  0  0  0  0  0  0  0  0  0  0  0
    6.8120   -3.6060   21.5660 N   0  0  0  0  0  0  0  0  0  0  0  0
    6.4460   -4.3880   22.7690 C   0  0  0  0  0  0  0  0  0  0  0  0
    6.9310   -2.1560   21.7960 C   0  0  0  0  0  0  0  0  0  0  0  0
    7.0250   -3.8690   23.9420 C   0  0  0  0  0  0  0  0  0  0  0  0
    6.2370   -1.6630   23.0810 C   0  0  0  0  0  0  0  0  0  0  0  0
    6.4980   -2.5230   24.2380 N   0  0  0  0  0  0  0  0  0  0  0  0
    7.2300   -1.6870   25.5660 S   0  0  0  0  0  0  0  0  0  0  0  0
    7.5570   -2.6820   26.5720 O   0  0  0  0  0  0  0  0  0  0  0  0
    6.4010   -0.5420   25.8930 O   0  0  0  0  0  0  0  0  0  0  0  0
    8.7760   -1.0060   24.9560 C   0  0  0  0  0  0  0  0  0  0  0  0
    9.6820    0.1560   25.2330 C   0  0  0  0  0  0  0  0  0  0  0  0
    9.5060   -1.8640   23.6850 S   0  0  0  0  0  0  0  0  0  0  0  0
   10.8880    0.2250   24.3690 C   0  0  0  0  0  0  0  0  0  0  0  0
   10.8860   -0.8320   23.4880 C   0  0  0  0  0  0  0  0  0  0  0  0
   11.7940   -1.1650   22.5090 C   0  0  0  0  0  0  0  0  0  0  0  0
   13.0150   -0.7270   22.0970 C   0  0  0  0  0  0  0  0  0  0  0  0
   11.4710   -2.1720   21.6960 C   0  0  0  0  0  0  0  0  0  0  0  0
   13.5160   -1.3930   20.9380 C   0  0  0  0  0  0  0  0  0  0  0  0
   12.4890   -3.0960   21.4810 C   0  0  0  0  0  0  0  0  0  0  0  0
   13.6730   -2.7320   21.0260 O   0  0  0  0  0  0  0  0  0  0  0  0
  1  2  2  3
  1  3  1  0
  3  4  1  0
  3  5  1  0
  4  6  1  0
  5  7  1  0
  6  8  1  0
  7  8  1  0
  8  9  1  0
  9 10  2  0
  9 11  2  0
  9 12  1  0
 12 13  2  0
 12 14  1  0
 13 15  1  0
 14 16  1  0
 15 16  2  0
 16 17  1  0
 17 18  2  0
 17 19  1  0
 18 20  1  0
 19 21  1  0
 20 22  1  0
 21 22  1  0
M  END
