NIM-UNI-310206f0-10-nitrile
     RDKit          3D

 26 29  0  0  0  0  0  0  0  0999 V2000
    6.8280   -4.7780   20.2770 C   0  0  0  0  0  0  0  0  0  0  0  0
    5.9230   -5.2930   19.8550 N   0  0  0  0  0  0  0  0  0  0  0  0
    8.0190   -4.1010   20.8320 N   0  0  0  0  0  0  0  0  0  0  0  0
    7.7150   -2.7700   20.9510 C   0  0  0  0  0  0  0  0  0  0  0  0
    8.6070   -4.6310   22.0770 C   0  0  0  0  0  0  0  0  0  0  0  0
    8.3210   -1.9300   21.8940 C   0  0  0  0  0  0  0  0  0  0  0  0
    9.8200   -3.7280   22.4420 C   0  0  0  0  0  0  0  0  0  0  0  0
    9.2940   -2.4380   22.7300 N   0  0  0  0  0  0  0  0  0  0  0  0
   10.2170   -1.2340   23.0550 C   0  0  0  0  0  0  0  0  0  0  0  0
   11.1250   -0.8090   22.1150 C   0  0  0  0  0  0  0  0  0  0  0  0
   10.1960   -0.5540   24.2620 C   0  0  0  0  0  0  0  0  0  0  0  0
   11.2530   -1.4230   20.9540 F   0  0  0  0  0  0  0  0  0  0  0  0
   11.9440    0.2960   22.3190 C   0  0  0  0  0  0  0  0  0  0  0  0
   10.9900    0.5330   24.5510 C   0  0  0  0  0  0  0  0  0  0  0  0
    9.3610   -0.9790   25.2760 F   0  0  0  0  0  0  0  0  0  0  0  0
   11.8900    1.1030   23.6090 C   0  0  0  0  0  0  0  0  0  0  0  0
   12.6350    2.2440   23.7880 N   0  0  0  0  0  0  0  0  0  0  0  0
   12.4440    3.5200   23.1940 C   0  0  0  0  0  0  0  0  0  0  0  0
   12.3200    3.4060   21.8010 C   0  0  0  0  0  0  0  0  0  0  0  0
   12.4330    4.9120   23.7630 C   0  0  0  0  0  0  0  0  0  0  0  0
   12.1600    4.6940   20.9500 C   0  0  0  0  0  0  0  0  0  0  0  0
   12.2870    6.1110   22.9870 C   0  0  0  0  0  0  0  0  0  0  0  0
   12.5660    5.4290   25.0580 C   0  0  0  0  0  0  0  0  0  0  0  0
   12.1670    6.0090   21.6290 C   0  0  0  0  0  0  0  0  0  0  0  0
   12.2950    7.2850   23.7300 N   0  0  0  0  0  0  0  0  0  0  0  0
   12.4730    6.9340   25.0280 C   0  0  0  0  0  0  0  0  0  0  0  0
  1  2  2  3
  1  3  1  0
  3  4  1  0
  3  5  1  0
  4  6  1  0
  5  7  1  0
  6  8  1  0
  7  8  1  0
  8  9  1  0
  9 10  2  0
  9 11  1  0
 10 12  1  0
 10 13  1  0
 11 14  2  0
 11 15  1  0
 13 16  2  0
 14 16  1  0
 16 17  1  0
 17 18  1  0
 18 19  2  0
 18 20  1  0
 19 21  1  0
 20 22  2  0
 20 23  1  0
 21 24  2  0
 22 24  1  0
 22 25  1  0
 23 26  2  0
 25 26  1  0
M  END
