NIM-UNI-05f93fcc-8-bromoalkyne
     RDKit          3D

 25 28  0  0  0  0  0  0  0  0999 V2000
    6.6260   -4.1910   20.0750 C   0  0  0  0  0  0  0  0  0  0  0  0
    5.4480   -3.4780   19.4870 C   0  0  0  0  0  0  0  0  0  0  0  0
    6.6620   -4.7200   21.4150 N   0  0  0  0  0  0  0  0  0  0  0  0
    7.2150   -3.9880   22.5160 C   0  0  0  0  0  0  0  0  0  0  0  0
    5.9610   -5.9620   21.8080 C   0  0  0  0  0  0  0  0  0  0  0  0
    6.5690   -3.9750   23.7640 C   0  0  0  0  0  0  0  0  0  0  0  0
    5.1160   -5.7740   22.9000 C   0  0  0  0  0  0  0  0  0  0  0  0
    5.9240   -5.2740   24.0370 N   0  0  0  0  0  0  0  0  0  0  0  0
    5.1880   -5.4080   25.5790 S   0  0  0  0  0  0  0  0  0  0  0  0
    6.1620   -5.3240   26.6350 O   0  0  0  0  0  0  0  0  0  0  0  0
    4.2140   -6.4830   25.5450 O   0  0  0  0  0  0  0  0  0  0  0  0
    4.2170   -3.9600   25.7850 C   0  0  0  0  0  0  0  0  0  0  0  0
    4.5140   -2.5940   25.9620 C   0  0  0  0  0  0  0  0  0  0  0  0
    2.5450   -4.2850   25.7760 S   0  0  0  0  0  0  0  0  0  0  0  0
    3.2680   -1.7940   26.0940 C   0  0  0  0  0  0  0  0  0  0  0  0
    2.1210   -2.6630   26.0050 C   0  0  0  0  0  0  0  0  0  0  0  0
    0.7590   -2.2680   26.0940 C   0  0  0  0  0  0  0  0  0  0  0  0
    0.3630   -0.8490   26.5920 C   0  0  0  0  0  0  0  0  0  0  0  0
   -0.1790   -3.2440   25.7120 C   0  0  0  0  0  0  0  0  0  0  0  0
   -1.1580   -0.5860   26.6340 C   0  0  0  0  0  0  0  0  0  0  0  0
   -1.5410   -2.9540   25.7720 C   0  0  0  0  0  0  0  0  0  0  0  0
   -2.0750   -1.7370   26.1910 C   0  0  0  0  0  0  0  0  0  0  0  0
   -2.5790   -3.8970   25.3970 O   0  0  0  0  0  0  0  0  0  0  0  0
   -3.4390   -1.7710   26.1340 N   0  0  0  0  0  0  0  0  0  0  0  0
   -3.7240   -3.0810   25.6520 C   0  0  0  0  0  0  0  0  0  0  0  0
  1  2  2  3
  1  3  1  0
  3  4  1  0
  3  5  1  0
  4  6  1  0
  5  7  1  0
  6  8  1  0
  7  8  1  0
  8  9  1  0
  9 10  2  0
  9 11  2  0
  9 12  1  0
 12 13  2  0
 12 14  1  0
 13 15  1  0
 14 16  1  0
 15 16  2  0
 16 17  1  0
 17 18  2  0
 17 19  1  0
 18 20  1  0
 19 21  2  0
 20 22  2  0
 21 22  1  0
 21 23  1  0
 22 24  1  0
 23 25  1  0
 24 25  2  0
M  END
