NIM-UNI-43fe0159-1-acrylamide
     RDKit          3D

 17 18  0  0  0  0  0  0  0  0999 V2000
    7.5790   -2.9120   18.4560 C   0  0  0  0  0  0  0  0  0  0  0  0
    6.8750   -2.4000   19.4580 C   0  0  0  0  0  0  0  0  0  0  0  0
    6.1420   -3.3520   20.3970 C   0  0  0  0  0  0  0  0  0  0  0  0
    5.2420   -4.1810   20.0470 O   0  0  0  0  0  0  0  0  0  0  0  0
    6.5720   -3.1770   21.7090 N   0  0  0  0  0  0  0  0  0  0  0  0
    6.8850   -1.8030   22.0810 C   0  0  0  0  0  0  0  0  0  0  0  0
    7.3550   -4.1380   22.4930 C   0  0  0  0  0  0  0  0  0  0  0  0
    7.7040   -1.7680   23.3710 C   0  0  0  0  0  0  0  0  0  0  0  0
    8.5540   -3.7700   22.5680 O   0  0  0  0  0  0  0  0  0  0  0  0
    8.8610   -2.6780   23.4820 C   0  0  1  0  0  0  0  0  0  0  0  0
   10.0580   -2.0480   23.1470 C   0  0  0  0  0  0  0  0  0  0  0  0
   10.6340   -1.0630   23.9660 C   0  0  0  0  0  0  0  0  0  0  0  0
   10.7230   -2.3920   21.9850 C   0  0  0  0  0  0  0  0  0  0  0  0
   11.8700   -0.4480   23.5860 C   0  0  0  0  0  0  0  0  0  0  0  0
   11.9120   -1.8070   21.6220 C   0  0  0  0  0  0  0  0  0  0  0  0
   12.5100   -0.8300   22.4010 C   0  0  0  0  0  0  0  0  0  0  0  0
   13.6400   -0.2550   22.0700 N   0  0  0  0  0  0  0  0  0  0  0  0
  1  2  1  0
  2  3  1  0
  3  4  2  0
  3  5  1  0
  5  6  1  0
  5  7  1  0
  6  8  1  0
  7  9  1  0
  8 10  1  0
  9 10  1  0
 10 11  1  6
 11 12  2  0
 11 13  1  0
 12 14  1  0
 13 15  2  0
 14 16  2  0
 15 16  1  0
 16 17  1  0
M  END
