NIM-NMI-8bb27a2b-24-acrylamide
     RDKit          3D

 30 31  0  0  0  0  0  0  0  0999 V2000
    7.2270   -2.9330   18.8270 C   0  0  0  0  0  0  0  0  0  0  0  0
    6.8400   -1.8670   19.8520 C   0  0  0  0  0  0  0  0  0  0  0  0
    6.2580   -2.3920   21.1510 C   0  0  0  0  0  0  0  0  0  0  0  0
    5.0240   -3.1470   21.0890 O   0  0  0  0  0  0  0  0  0  0  0  0
    7.1300   -2.0150   22.3540 N   0  0  0  0  0  0  0  0  0  0  0  0
    8.5970   -1.3760   22.5540 C   0  0  0  0  0  0  0  0  0  0  0  0
    6.5140   -2.4230   23.6260 C   0  0  1  0  0  0  0  0  0  0  0  0
    9.8990   -1.9720   21.9220 C   0  0  0  0  0  0  0  0  0  0  0  0
    8.8620   -0.2180   23.3590 C   0  0  0  0  0  0  0  0  0  0  0  0
    7.2410   -3.6770   24.1330 C   0  0  0  0  0  0  0  0  0  0  0  0
    6.5800   -1.3260   24.6750 C   0  0  0  0  0  0  0  0  0  0  0  0
   11.1950   -1.4350   22.1350 C   0  0  0  0  0  0  0  0  0  0  0  0
   10.1450    0.2810   23.5480 C   0  0  0  0  0  0  0  0  0  0  0  0
    8.2990   -3.3880   23.5860 O   0  0  0  0  0  0  0  0  0  0  0  0
    5.9150   -3.4770   24.4750 N   0  0  0  0  0  0  0  0  0  0  0  0
    7.8780   -1.0250   25.3470 C   0  0  0  0  0  0  0  0  0  0  0  0
    5.4900   -0.5550   25.0740 C   0  0  0  0  0  0  0  0  0  0  0  0
   11.2580   -0.3190   22.9560 C   0  0  0  0  0  0  0  0  0  0  0  0
    5.0180   -4.5650   24.3560 C   0  0  0  0  0  0  0  0  0  0  0  0
    7.9270   -0.0190   26.3090 C   0  0  0  0  0  0  0  0  0  0  0  0
    5.5520    0.4280   26.0180 N   0  0  0  0  0  0  0  0  0  0  0  0
   12.5310    0.1110   23.1170 C   0  0  0  0  0  0  0  0  0  0  0  0
    5.6110   -5.8200   24.4180 C   0  0  0  0  0  0  0  0  0  0  0  0
    6.7510    0.6740   26.6090 C   0  0  0  0  0  0  0  0  0  0  0  0
   13.3760   -0.4190   22.1970 F   0  0  0  0  0  0  0  0  0  0  0  0
   13.0060   -0.2810   24.3230 F   0  0  0  0  0  0  0  0  0  0  0  0
   12.6520    1.4640   23.0560 F   0  0  0  0  0  0  0  0  0  0  0  0
    5.7990   -6.4230   23.1590 C   0  0  0  0  0  0  0  0  0  0  0  0
    7.2860   -6.0050   23.2300 C   0  0  0  0  0  0  0  0  0  0  0  0
    5.1500   -5.7880   21.9480 C   0  0  0  0  0  0  0  0  0  0  0  0
  1  2  1  0
  2  3  1  0
  3  4  2  0
  3  5  1  0
  5  6  1  0
  5  7  1  0
  6  8  2  0
  6  9  1  0
  7 10  1  1
  7 11  1  0
  8 12  1  0
  9 13  2  0
 10 14  2  0
 10 15  1  0
 11 16  2  0
 11 17  1  0
 12 18  2  0
 13 18  1  0
 15 19  1  0
 16 20  1  0
 17 21  2  0
 18 22  1  0
 19 23  1  0
 20 24  2  0
 21 24  1  0
 22 25  1  0
 22 26  1  0
 22 27  1  0
 23 28  1  0
 28 29  1  0
 28 30  1  0
M  END
