NIM-UNI-310206f0-32-acrylamide
     RDKit          3D

 30 32  0  0  0  0  0  0  0  0999 V2000
    7.9430   -3.3310   19.1770 C   0  0  0  0  0  0  0  0  0  0  0  0
    6.7570   -2.4200   19.0410 C   0  0  0  0  0  0  0  0  0  0  0  0
    5.7630   -2.9350   20.0090 C   0  0  0  0  0  0  0  0  0  0  0  0
    4.8820   -3.6720   19.6040 O   0  0  0  0  0  0  0  0  0  0  0  0
    5.9760   -2.6050   21.3180 N   0  0  0  0  0  0  0  0  0  0  0  0
    6.1750   -3.6270   22.3720 C   0  0  0  0  0  0  0  0  0  0  0  0
    6.5190   -1.3330   21.7310 C   0  0  0  0  0  0  0  0  0  0  0  0
    7.6890   -3.4670   22.8070 C   0  0  0  0  0  0  0  0  0  0  0  0
    6.6650   -1.3950   23.2510 C   0  0  0  0  0  0  0  0  0  0  0  0
    7.7370   -2.2820   23.7030 N   0  0  0  0  0  0  0  0  0  0  0  0
    8.8400   -1.4540   23.6900 C   0  0  0  0  0  0  0  0  0  0  0  0
    8.4270    0.0570   23.5660 C   0  0  0  0  0  0  0  0  0  0  0  0
   10.2030   -1.8310   23.7640 C   0  0  0  0  0  0  0  0  0  0  0  0
    7.1840    0.5670   23.4930 F   0  0  0  0  0  0  0  0  0  0  0  0
    9.6590    0.9440   23.5210 C   0  0  0  0  0  0  0  0  0  0  0  0
   11.3530   -0.8680   23.7280 C   0  0  0  0  0  0  0  0  0  0  0  0
   10.5960   -3.0940   23.8630 F   0  0  0  0  0  0  0  0  0  0  0  0
   11.0820    0.4520   23.5960 C   0  0  0  0  0  0  0  0  0  0  0  0
   12.1860    1.3180   23.5080 N   0  0  0  0  0  0  0  0  0  0  0  0
   13.2800    0.5820   22.8870 C   0  0  0  0  0  0  0  0  0  0  0  0
   11.9290    2.6880   23.1760 C   0  0  0  0  0  0  0  0  0  0  0  0
   14.3530    1.0050   22.6270 O   0  0  0  0  0  0  0  0  0  0  0  0
   13.0520   -0.7390   22.5720 C   0  0  0  0  0  0  0  0  0  0  0  0
   12.8890    3.3870   22.4490 N   0  0  0  0  0  0  0  0  0  0  0  0
   10.7410    3.2260   23.6100 N   0  0  0  0  0  0  0  0  0  0  0  0
   13.5650   -1.1470   21.3310 O   0  0  0  0  0  0  0  0  0  0  0  0
   12.5910    4.6920   22.1800 C   0  0  0  0  0  0  0  0  0  0  0  0
   10.4140    4.5160   23.3600 C   0  0  0  0  0  0  0  0  0  0  0  0
   13.0150   -2.4050   21.0910 C   0  0  0  0  0  0  0  0  0  0  0  0
   11.3360    5.4290   22.5920 C   0  0  0  0  0  0  0  0  0  0  0  0
  1  2  1  0
  2  3  1  0
  3  4  2  0
  3  5  1  0
  5  6  1  0
  5  7  1  0
  6  8  1  0
  7  9  1  0
  8 10  1  0
  9 10  1  0
 10 11  1  0
 11 12  2  0
 11 13  1  0
 12 14  1  0
 12 15  1  0
 13 16  2  0
 13 17  1  0
 15 18  2  0
 16 18  1  0
 18 19  1  0
 19 20  1  0
 19 21  1  0
 20 22  2  0
 20 23  1  0
 21 24  2  0
 21 25  1  0
 23 26  1  0
 24 27  1  0
 25 28  2  0
 26 29  1  0
 27 30  2  0
 28 30  1  0
M  END
