NIR-THE-0d6461ce-4-vinylsulfonamide
     RDKit          3D

 26 28  0  0  0  0  0  0  0  0999 V2000
    7.5030   -2.9830   18.3540 C   0  0  0  0  0  0  0  0  0  0  0  0
    7.0190   -1.8360   19.1560 C   0  0  0  0  0  0  0  0  0  0  0  0
    5.5220   -2.2330   20.0230 S   0  0  0  0  0  0  0  0  0  0  0  0
    4.9930   -3.6050   19.8190 O   0  0  0  0  0  0  0  0  0  0  0  0
    4.6860   -1.0740   19.8230 O   0  0  0  0  0  0  0  0  0  0  0  0
    6.1170   -2.0860   21.5990 N   0  0  0  0  0  0  0  0  0  0  0  0
    6.1710   -3.2700   22.4450 C   0  0  0  0  0  0  0  0  0  0  0  0
    7.1390   -1.0550   21.7550 C   0  0  0  0  0  0  0  0  0  0  0  0
    7.2750   -3.1580   23.4990 C   0  0  0  0  0  0  0  0  0  0  0  0
    8.5320   -1.6520   21.8480 C   0  0  0  0  0  0  0  0  0  0  0  0
    8.6260   -2.7440   22.9250 C   0  0  0  0  0  0  0  0  0  0  0  0
    9.6410   -2.3450   23.9890 C   0  0  0  0  0  0  0  0  0  0  0  0
   10.4950   -1.2800   23.7220 C   0  0  0  0  0  0  0  0  0  0  0  0
   11.8060   -1.4230   23.2630 C   0  0  0  0  0  0  0  0  0  0  0  0
   10.0330    0.0140   23.9040 C   0  0  0  0  0  0  0  0  0  0  0  0
   12.5880   -0.2970   22.9950 C   0  0  0  0  0  0  0  0  0  0  0  0
   10.7930    1.1420   23.6360 C   0  0  0  0  0  0  0  0  0  0  0  0
   12.1150    1.0220   23.1620 C   0  0  0  0  0  0  0  0  0  0  0  0
   10.2610    2.4500   23.8200 C   0  0  0  0  0  0  0  0  0  0  0  0
   12.8550    2.1800   22.8880 C   0  0  0  0  0  0  0  0  0  0  0  0
   11.0080    3.6210   23.5290 C   0  0  0  0  0  0  0  0  0  0  0  0
   12.3160    3.4810   23.0570 C   0  0  0  0  0  0  0  0  0  0  0  0
   10.3120    5.2570   23.7460 S   0  0  0  0  0  0  0  0  0  0  0  0
    8.9960    5.2050   22.6980 N   0  0  0  0  0  0  0  0  0  0  0  0
    9.7550    5.4350   25.0630 O   0  0  0  0  0  0  0  0  0  0  0  0
   11.2210    6.2270   23.1780 O   0  0  0  0  0  0  0  0  0  0  0  0
  1  2  1  0
  3  2  1  0
  3  4  2  0
  3  5  2  0
  3  6  1  0
  6  7  1  0
  6  8  1  0
  7  9  1  0
  8 10  1  0
  9 11  1  0
 10 11  1  0
 11 12  1  0
 12 13  1  0
 13 14  2  0
 13 15  1  0
 14 16  1  0
 15 17  2  0
 16 18  2  0
 17 18  1  0
 17 19  1  0
 18 20  1  0
 19 21  2  0
 20 22  2  0
 21 22  1  0
 21 23  1  0
 23 24  1  0
 23 25  2  0
 23 26  2  0
M  END
