NIR-THE-0d6461ce-5-chloroacetamide
     RDKit          3D

 24 26  0  0  0  0  0  0  0  0999 V2000
    7.1270   -2.9580   18.7680 C   0  0  0  0  0  0  0  0  0  0  0  0
    6.2130   -3.2980   19.9110 C   0  0  0  0  0  0  0  0  0  0  0  0
    5.3580   -4.1820   19.7590 O   0  0  0  0  0  0  0  0  0  0  0  0
    6.3850   -2.6180   21.1170 N   0  0  0  0  0  0  0  0  0  0  0  0
    7.0920   -1.3380   21.1880 C   0  0  0  0  0  0  0  0  0  0  0  0
    6.2790   -3.3000   22.4150 C   0  0  0  0  0  0  0  0  0  0  0  0
    8.4310   -1.5030   21.8870 C   0  0  0  0  0  0  0  0  0  0  0  0
    7.5450   -3.5420   23.0110 C   0  0  0  0  0  0  0  0  0  0  0  0
    8.2860   -2.2220   23.2250 C   0  0  0  0  0  0  0  0  0  0  0  0
    9.6030   -2.3430   23.8730 N   0  0  0  0  0  0  0  0  0  0  0  0
   10.5180   -1.3400   23.6420 C   0  0  0  0  0  0  0  0  0  0  0  0
   11.8530   -1.4650   23.2220 C   0  0  0  0  0  0  0  0  0  0  0  0
   10.0280   -0.0450   23.8360 C   0  0  0  0  0  0  0  0  0  0  0  0
   12.6370   -0.3150   22.9940 C   0  0  0  0  0  0  0  0  0  0  0  0
   10.7660    1.1090   23.6160 C   0  0  0  0  0  0  0  0  0  0  0  0
   12.1070    0.9700   23.1750 C   0  0  0  0  0  0  0  0  0  0  0  0
   10.1980    2.3830   23.8080 C   0  0  0  0  0  0  0  0  0  0  0  0
   12.8360    2.1210   22.9350 C   0  0  0  0  0  0  0  0  0  0  0  0
   10.9040    3.5570   23.5630 C   0  0  0  0  0  0  0  0  0  0  0  0
   12.2030    3.3870   23.1310 C   0  0  0  0  0  0  0  0  0  0  0  0
   10.1840    5.1820   23.7850 S   0  0  0  0  0  0  0  0  0  0  0  0
    8.9370    5.1330   22.6540 N   0  0  0  0  0  0  0  0  0  0  0  0
   11.1450    6.1620   23.3280 O   0  0  0  0  0  0  0  0  0  0  0  0
    9.5130    5.3250   25.0610 O   0  0  0  0  0  0  0  0  0  0  0  0
  1  2  1  0
  2  3  2  0
  2  4  1  0
  4  5  1  0
  4  6  1  0
  5  7  1  0
  6  8  1  0
  7  9  1  0
  8  9  1  0
  9 10  1  0
 10 11  1  0
 11 12  2  0
 11 13  1  0
 12 14  1  0
 13 15  2  0
 14 16  2  0
 15 16  1  0
 15 17  1  0
 16 18  1  0
 17 19  2  0
 18 20  2  0
 19 20  1  0
 19 21  1  0
 21 22  1  0
 21 23  2  0
 21 24  2  0
M  END
