NIR-THE-0d6461ce-2-nitrile
     RDKit          3D

 25 27  0  0  0  0  0  0  0  0999 V2000
    6.8120   -3.5390   19.8250 C   0  0  0  0  0  0  0  0  0  0  0  0
    5.8840   -3.2990   18.9770 N   0  0  0  0  0  0  0  0  0  0  0  0
    6.8100   -2.9620   21.0760 N   0  0  0  0  0  0  0  0  0  0  0  0
    6.6580   -1.5010   21.1050 C   0  0  0  0  0  0  0  0  0  0  0  0
    6.4220   -3.6610   22.3110 C   0  0  0  0  0  0  0  0  0  0  0  0
    7.3490   -0.9560   22.1890 C   0  0  0  0  0  0  0  0  0  0  0  0
    7.0500   -2.9950   23.5630 C   0  0  0  0  0  0  0  0  0  0  0  0
    6.8620   -1.4640   23.5570 C   0  0  0  0  0  0  0  0  0  0  0  0
    7.5210   -0.7300   24.7600 C   0  0  0  0  0  0  0  0  0  0  0  0
    8.7730    0.0190   24.3370 C   0  0  0  0  0  0  0  0  0  0  0  0
    8.9560    1.4050   24.4820 C   0  0  0  0  0  0  0  0  0  0  0  0
    9.7980   -0.6880   23.7670 C   0  0  0  0  0  0  0  0  0  0  0  0
   10.1490    2.0200   24.0580 C   0  0  0  0  0  0  0  0  0  0  0  0
   10.9680   -0.1020   23.3550 C   0  0  0  0  0  0  0  0  0  0  0  0
    9.9470   -2.0170   23.4710 N   0  0  0  0  0  0  0  0  0  0  0  0
   10.3060    3.3380   24.1870 F   0  0  0  0  0  0  0  0  0  0  0  0
   11.1700    1.2580   23.4970 C   0  0  0  0  0  0  0  0  0  0  0  0
   11.9110   -1.0600   22.7730 C   0  0  0  0  0  0  0  0  0  0  0  0
   11.2640   -2.2240   22.8480 C   0  0  0  0  0  0  0  0  0  0  0  0
   13.2540   -1.0300   22.1840 C   0  0  0  0  0  0  0  0  0  0  0  0
   13.2430   -1.8750   21.0700 C   0  0  0  0  0  0  0  0  0  0  0  0
   13.4510   -3.2810   21.3760 N   0  0  0  0  0  0  0  0  0  0  0  0
   13.7310   -4.2230   20.3970 C   0  0  0  0  0  0  0  0  0  0  0  0
   14.9830   -5.1350   20.5440 C   0  0  0  0  0  0  0  0  0  0  0  0
   12.9730   -4.3880   19.4730 O   0  0  0  0  0  0  0  0  0  0  0  0
  1  2  2  3
  1  3  1  0
  3  4  1  0
  3  5  1  0
  4  6  1  0
  5  7  1  0
  6  8  1  0
  7  8  1  0
  8  9  1  0
  9 10  1  0
 10 11  2  0
 10 12  1  0
 11 13  1  0
 12 14  2  0
 12 15  1  0
 13 16  1  0
 13 17  2  0
 14 17  1  0
 14 18  1  0
 15 19  1  0
 18 19  2  0
 18 20  1  0
 20 21  1  0
 21 22  1  0
 22 23  1  0
 23 24  1  0
 23 25  2  0
M  END
