NIR-THE-0d6461ce-5-vinylsulfonamide
     RDKit          3D

 26 28  0  0  0  0  0  0  0  0999 V2000
    7.9430   -3.2400   19.0560 C   0  0  0  0  0  0  0  0  0  0  0  0
    6.7860   -2.3670   18.6300 C   0  0  0  0  0  0  0  0  0  0  0  0
    5.5610   -2.3550   19.8630 S   0  0  0  0  0  0  0  0  0  0  0  0
    4.9260   -3.6350   19.7050 O   0  0  0  0  0  0  0  0  0  0  0  0
    4.8500   -1.1000   19.7790 O   0  0  0  0  0  0  0  0  0  0  0  0
    6.5220   -2.3060   21.2620 N   0  0  0  0  0  0  0  0  0  0  0  0
    6.1490   -3.0520   22.4540 C   0  0  0  0  0  0  0  0  0  0  0  0
    7.5470   -1.2850   21.3990 C   0  0  0  0  0  0  0  0  0  0  0  0
    7.1890   -2.8590   23.5640 C   0  0  0  0  0  0  0  0  0  0  0  0
    8.7680   -1.8370   21.7990 C   0  0  0  0  0  0  0  0  0  0  0  0
    8.6240   -2.7200   23.0460 C   0  0  0  0  0  0  0  0  0  0  0  0
    9.6380   -2.3140   24.0260 N   0  0  0  0  0  0  0  0  0  0  0  0
   10.5170   -1.2890   23.7590 C   0  0  0  0  0  0  0  0  0  0  0  0
   11.8420   -1.4310   23.3170 C   0  0  0  0  0  0  0  0  0  0  0  0
   10.0270    0.0120   23.9300 C   0  0  0  0  0  0  0  0  0  0  0  0
   12.6290   -0.2990   23.0450 C   0  0  0  0  0  0  0  0  0  0  0  0
   10.7780    1.1550   23.6620 C   0  0  0  0  0  0  0  0  0  0  0  0
   12.1100    0.9900   23.2040 C   0  0  0  0  0  0  0  0  0  0  0  0
   10.2160    2.4400   23.8360 C   0  0  0  0  0  0  0  0  0  0  0  0
   12.8530    2.1180   22.9220 C   0  0  0  0  0  0  0  0  0  0  0  0
   10.9540    3.5930   23.5430 C   0  0  0  0  0  0  0  0  0  0  0  0
   12.2420    3.3910   23.0940 C   0  0  0  0  0  0  0  0  0  0  0  0
   10.2920    5.2440   23.7240 S   0  0  0  0  0  0  0  0  0  0  0  0
    8.9460    5.1830   22.7160 N   0  0  0  0  0  0  0  0  0  0  0  0
   11.2310    6.1830   23.1610 O   0  0  0  0  0  0  0  0  0  0  0  0
    9.7330    5.4430   25.0390 O   0  0  0  0  0  0  0  0  0  0  0  0
  1  2  1  0
  3  2  1  0
  3  4  2  0
  3  5  2  0
  3  6  1  0
  6  7  1  0
  6  8  1  0
  7  9  1  0
  8 10  1  0
  9 11  1  0
 10 11  1  0
 11 12  1  0
 12 13  1  0
 13 14  2  0
 13 15  1  0
 14 16  1  0
 15 17  2  0
 16 18  2  0
 17 18  1  0
 17 19  1  0
 18 20  1  0
 19 21  2  0
 20 22  2  0
 21 22  1  0
 21 23  1  0
 23 24  1  0
 23 25  2  0
 23 26  2  0
M  END
