NIR-THE-0d6461ce-5-bromoalkyne
     RDKit          3D

 23 25  0  0  0  0  0  0  0  0999 V2000
    7.0380   -3.1960   19.6880 C   0  0  0  0  0  0  0  0  0  0  0  0
    5.7390   -3.1050   18.9440 C   0  0  0  0  0  0  0  0  0  0  0  0
    7.1150   -2.9180   21.0340 N   0  0  0  0  0  0  0  0  0  0  0  0
    6.6330   -3.7310   22.1380 C   0  0  0  0  0  0  0  0  0  0  0  0
    7.3230   -1.5230   21.3890 C   0  0  0  0  0  0  0  0  0  0  0  0
    7.4800   -3.3980   23.3650 C   0  0  0  0  0  0  0  0  0  0  0  0
    8.4730   -1.3870   22.1580 C   0  0  0  0  0  0  0  0  0  0  0  0
    8.7590   -2.6710   22.9400 C   0  0  0  0  0  0  0  0  0  0  0  0
    9.7300   -2.3420   23.9810 N   0  0  0  0  0  0  0  0  0  0  0  0
   10.5920   -1.2980   23.7330 C   0  0  0  0  0  0  0  0  0  0  0  0
   11.9150   -1.4090   23.2910 C   0  0  0  0  0  0  0  0  0  0  0  0
   10.0800   -0.0110   23.9180 C   0  0  0  0  0  0  0  0  0  0  0  0
   12.6780   -0.2560   23.0290 C   0  0  0  0  0  0  0  0  0  0  0  0
   10.7950    1.1490   23.6640 C   0  0  0  0  0  0  0  0  0  0  0  0
   12.1300    1.0220   23.2010 C   0  0  0  0  0  0  0  0  0  0  0  0
   10.2160    2.4180   23.8470 C   0  0  0  0  0  0  0  0  0  0  0  0
   12.8420    2.1770   22.9280 C   0  0  0  0  0  0  0  0  0  0  0  0
   10.9070    3.5980   23.5710 C   0  0  0  0  0  0  0  0  0  0  0  0
   12.1970    3.4350   23.1170 C   0  0  0  0  0  0  0  0  0  0  0  0
   10.1830    5.2190   23.7790 S   0  0  0  0  0  0  0  0  0  0  0  0
    8.9290    5.1720   22.6570 N   0  0  0  0  0  0  0  0  0  0  0  0
   11.1170    6.2060   23.2800 O   0  0  0  0  0  0  0  0  0  0  0  0
    9.5350    5.3690   25.0690 O   0  0  0  0  0  0  0  0  0  0  0  0
  1  2  2  3
  1  3  1  0
  3  4  1  0
  3  5  1  0
  4  6  1  0
  5  7  1  0
  6  8  1  0
  7  8  1  0
  8  9  1  0
  9 10  1  0
 10 11  2  0
 10 12  1  0
 11 13  1  0
 12 14  2  0
 13 15  2  0
 14 15  1  0
 14 16  1  0
 15 17  1  0
 16 18  2  0
 17 19  2  0
 18 19  1  0
 18 20  1  0
 20 21  1  0
 20 22  2  0
 20 23  2  0
M  END
