NIR-THE-0d6461ce-6-nitrile
     RDKit          3D

 20 21  0  0  0  0  0  0  0  0999 V2000
    7.3960   -3.3050   19.4720 C   0  0  0  0  0  0  0  0  0  0  0  0
    6.5970   -3.1360   18.5050 N   0  0  0  0  0  0  0  0  0  0  0  0
    7.1340   -2.7420   20.6990 N   0  0  0  0  0  0  0  0  0  0  0  0
    7.5680   -1.3750   20.9790 C   0  0  0  0  0  0  0  0  0  0  0  0
    6.5800   -3.4870   21.8340 C   0  0  0  0  0  0  0  0  0  0  0  0
    8.7270   -1.4710   21.9420 C   0  0  0  0  0  0  0  0  0  0  0  0
    7.3000   -3.2240   23.0040 C   0  0  0  0  0  0  0  0  0  0  0  0
    8.7350   -2.8150   22.6650 C   0  0  0  0  0  0  0  0  0  0  0  0
    9.5960   -2.7160   23.8860 C   0  0  0  0  0  0  0  0  0  0  0  0
   10.6690   -1.7060   23.6130 C   0  0  0  0  0  0  0  0  0  0  0  0
   11.5870   -1.9420   22.6400 C   0  0  0  0  0  0  0  0  0  0  0  0
   10.7600   -0.5080   24.3010 C   0  0  0  0  0  0  0  0  0  0  0  0
   12.5550   -1.0260   22.3650 C   0  0  0  0  0  0  0  0  0  0  0  0
   11.7240    0.4080   24.0580 N   0  0  0  0  0  0  0  0  0  0  0  0
    9.7850   -0.2830   25.2530 N   0  0  0  0  0  0  0  0  0  0  0  0
   13.3960   -1.2920   21.3740 C   0  0  0  0  0  0  0  0  0  0  0  0
   12.6150    0.1350   23.0890 C   0  0  0  0  0  0  0  0  0  0  0  0
    9.2700    1.0610   25.2990 C   0  0  0  0  0  0  0  0  0  0  0  0
   13.9770   -1.4520   20.4400 N   0  0  0  0  0  0  0  0  0  0  0  0
   10.0190    1.9790   24.3650 C   0  0  0  0  0  0  0  0  0  0  0  0
  1  2  2  3
  1  3  1  0
  3  4  1  0
  3  5  1  0
  4  6  1  0
  5  7  1  0
  6  8  1  0
  7  8  1  0
  8  9  1  0
  9 10  1  0
 10 11  2  0
 10 12  1  0
 11 13  1  0
 12 14  2  0
 12 15  1  0
 13 16  1  0
 13 17  2  0
 14 17  1  0
 15 18  1  0
 16 19  3  0
 18 20  1  0
M  END
