NIR-THE-0d6461ce-5-acrylamide
     RDKit          3D

 25 27  0  0  0  0  0  0  0  0999 V2000
    7.3270   -2.7970   18.2560 C   0  0  0  0  0  0  0  0  0  0  0  0
    6.3090   -2.1550   19.1410 C   0  0  0  0  0  0  0  0  0  0  0  0
    5.8190   -3.0570   20.2230 C   0  0  0  0  0  0  0  0  0  0  0  0
    5.2100   -4.1290   20.0030 O   0  0  0  0  0  0  0  0  0  0  0  0
    6.1350   -2.5840   21.4810 N   0  0  0  0  0  0  0  0  0  0  0  0
    6.8840   -1.3350   21.6790 C   0  0  0  0  0  0  0  0  0  0  0  0
    6.2900   -3.5990   22.5210 C   0  0  0  0  0  0  0  0  0  0  0  0
    8.3620   -1.5700   21.9640 C   0  0  0  0  0  0  0  0  0  0  0  0
    7.2960   -3.2130   23.6090 C   0  0  0  0  0  0  0  0  0  0  0  0
    8.5830   -2.6750   22.9970 C   0  0  0  0  0  0  0  0  0  0  0  0
    9.6590   -2.3490   23.9480 N   0  0  0  0  0  0  0  0  0  0  0  0
   10.5280   -1.3070   23.7040 C   0  0  0  0  0  0  0  0  0  0  0  0
   11.8540   -1.4190   23.2730 C   0  0  0  0  0  0  0  0  0  0  0  0
   10.0320   -0.0220   23.8850 C   0  0  0  0  0  0  0  0  0  0  0  0
   12.6300   -0.2810   23.0220 C   0  0  0  0  0  0  0  0  0  0  0  0
   10.7860    1.1210   23.6340 C   0  0  0  0  0  0  0  0  0  0  0  0
   12.1240    1.0190   23.1820 C   0  0  0  0  0  0  0  0  0  0  0  0
   10.2360    2.4310   23.8090 C   0  0  0  0  0  0  0  0  0  0  0  0
   12.8520    2.1890   22.9200 C   0  0  0  0  0  0  0  0  0  0  0  0
   10.9590    3.6210   23.5380 C   0  0  0  0  0  0  0  0  0  0  0  0
   12.2570    3.4550   23.0950 C   0  0  0  0  0  0  0  0  0  0  0  0
   10.2680    5.2620   23.7390 S   0  0  0  0  0  0  0  0  0  0  0  0
    8.9570    5.1920   22.6910 N   0  0  0  0  0  0  0  0  0  0  0  0
    9.7150    5.4380   25.0590 O   0  0  0  0  0  0  0  0  0  0  0  0
   11.2120    6.2120   23.1980 O   0  0  0  0  0  0  0  0  0  0  0  0
  1  2  1  0
  2  3  1  0
  3  4  2  0
  3  5  1  0
  5  6  1  0
  5  7  1  0
  6  8  1  0
  7  9  1  0
  8 10  1  0
  9 10  1  0
 10 11  1  0
 11 12  1  0
 12 13  2  0
 12 14  1  0
 13 15  1  0
 14 16  2  0
 15 17  2  0
 16 17  1  0
 16 18  1  0
 17 19  1  0
 18 20  2  0
 19 21  2  0
 20 21  1  0
 20 22  1  0
 22 23  1  0
 22 24  2  0
 22 25  2  0
M  END
