NIR-THE-0d6461ce-6-chloroacetamide
     RDKit          3D

 21 22  0  0  0  0  0  0  0  0999 V2000
    7.3830   -2.9550   18.7080 C   0  0  0  0  0  0  0  0  0  0  0  0
    6.3490   -3.0880   19.7740 C   0  0  0  0  0  0  0  0  0  0  0  0
    5.4060   -3.8720   19.5980 O   0  0  0  0  0  0  0  0  0  0  0  0
    6.4900   -2.3350   20.9250 N   0  0  0  0  0  0  0  0  0  0  0  0
    7.3470   -1.1430   20.9750 C   0  0  0  0  0  0  0  0  0  0  0  0
    6.2400   -2.9080   22.2500 C   0  0  0  0  0  0  0  0  0  0  0  0
    8.6280   -1.4250   21.7430 C   0  0  0  0  0  0  0  0  0  0  0  0
    7.4440   -3.3230   22.8330 C   0  0  0  0  0  0  0  0  0  0  0  0
    8.2930   -2.0740   23.0730 C   0  0  0  0  0  0  0  0  0  0  0  0
    9.5210   -2.4060   23.8940 C   0  0  0  0  0  0  0  0  0  0  0  0
   10.6050   -1.5900   23.6520 C   0  0  0  0  0  0  0  0  0  0  0  0
   11.4750   -1.8780   22.6460 C   0  0  0  0  0  0  0  0  0  0  0  0
   10.8500   -0.4410   24.4000 C   0  0  0  0  0  0  0  0  0  0  0  0
   12.5320   -1.0560   22.4020 C   0  0  0  0  0  0  0  0  0  0  0  0
   11.8990    0.3750   24.1700 N   0  0  0  0  0  0  0  0  0  0  0  0
    9.9370   -0.1120   25.4410 N   0  0  0  0  0  0  0  0  0  0  0  0
   13.3380   -1.3560   21.4010 C   0  0  0  0  0  0  0  0  0  0  0  0
   12.7260    0.0560   23.1710 C   0  0  0  0  0  0  0  0  0  0  0  0
    9.3030    1.0850   25.3590 C   0  0  0  0  0  0  0  0  0  0  0  0
   13.9320   -1.5420   20.4870 N   0  0  0  0  0  0  0  0  0  0  0  0
    9.9930    2.0970   24.4180 C   0  0  0  0  0  0  0  0  0  0  0  0
  1  2  1  0
  2  3  2  0
  2  4  1  0
  4  5  1  0
  4  6  1  0
  5  7  1  0
  6  8  1  0
  7  9  1  0
  8  9  1  0
  9 10  1  0
 10 11  1  0
 11 12  2  0
 11 13  1  0
 12 14  1  0
 13 15  2  0
 13 16  1  0
 14 17  1  0
 14 18  2  0
 15 18  1  0
 16 19  1  0
 17 20  3  0
 19 21  1  0
M  END
