NIR-THE-0d6461ce-9-bromoalkyne
     RDKit          3D

 17 18  0  0  0  0  0  0  0  0999 V2000
    6.8850   -3.3680   19.6220 C   0  0  0  0  0  0  0  0  0  0  0  0
    5.9050   -2.8280   18.6520 C   0  0  0  0  0  0  0  0  0  0  0  0
    6.8350   -2.9550   20.9440 N   0  0  0  0  0  0  0  0  0  0  0  0
    7.0510   -1.5280   21.2330 C   0  0  0  0  0  0  0  0  0  0  0  0
    6.2460   -3.6900   22.0630 C   0  0  0  0  0  0  0  0  0  0  0  0
    8.3860   -1.5280   21.9850 C   0  0  0  0  0  0  0  0  0  0  0  0
    6.9680   -3.1640   23.3160 C   0  0  0  0  0  0  0  0  0  0  0  0
    8.3870   -2.7210   22.9690 C   0  0  0  0  0  0  0  0  0  0  0  0
    9.1510   -2.4030   24.1880 N   0  0  0  0  0  0  0  0  0  0  0  0
   10.1600   -1.4620   23.7420 C   0  0  0  0  0  0  0  0  0  0  0  0
    9.9660   -0.1180   24.1090 C   0  0  0  0  0  0  0  0  0  0  0  0
   11.2390   -1.8570   22.9730 C   0  0  0  0  0  0  0  0  0  0  0  0
   10.8700    0.8610   23.6960 C   0  0  0  0  0  0  0  0  0  0  0  0
   12.1780   -0.9780   22.5220 C   0  0  0  0  0  0  0  0  0  0  0  0
   10.7220    2.1950   23.9900 C   0  0  0  0  0  0  0  0  0  0  0  0
   12.0780    0.4910   22.8610 C   0  0  0  0  0  0  0  0  0  0  0  0
   13.3990   -1.6180   21.5670 Cl  0  0  0  0  0  0  0  0  0  0  0  0
  1  2  2  3
  1  3  1  0
  3  4  1  0
  3  5  1  0
  4  6  1  0
  5  7  1  0
  6  8  1  0
  7  8  1  0
  8  9  1  0
  9 10  1  0
 10 11  2  0
 10 12  1  0
 11 13  1  0
 12 14  2  0
 13 15  1  0
 13 16  2  0
 14 16  1  0
 14 17  1  0
M  END
