NIR-THE-0d6461ce-3-acrylamide
     RDKit          3D

 27 29  0  0  0  0  0  0  0  0999 V2000
    7.8790   -3.1460   19.1230 C   0  0  0  0  0  0  0  0  0  0  0  0
    6.5990   -2.3710   18.9250 C   0  0  0  0  0  0  0  0  0  0  0  0
    5.5420   -2.8290   19.8650 C   0  0  0  0  0  0  0  0  0  0  0  0
    4.8430   -3.7610   19.5060 O   0  0  0  0  0  0  0  0  0  0  0  0
    5.4570   -2.1900   21.1060 N   0  0  0  0  0  0  0  0  0  0  0  0
    6.1680   -0.9420   21.3430 C   0  0  0  0  0  0  0  0  0  0  0  0
    5.4060   -3.0600   22.2960 C   0  0  0  0  0  0  0  0  0  0  0  0
    7.5200   -1.2370   21.9780 C   0  0  0  0  0  0  0  0  0  0  0  0
    5.9360   -2.4150   23.5910 C   0  0  0  0  0  0  0  0  0  0  0  0
    7.3350   -1.8300   23.3720 C   0  0  0  0  0  0  0  0  0  0  0  0
    7.8200   -0.8880   24.3990 N   0  0  0  0  0  0  0  0  0  0  0  0
    8.9350   -0.1130   24.1550 C   0  0  0  0  0  0  0  0  0  0  0  0
    9.1310    1.2590   24.3570 C   0  0  0  0  0  0  0  0  0  0  0  0
   10.0220   -0.7590   23.6180 C   0  0  0  0  0  0  0  0  0  0  0  0
   10.3390    1.8810   24.0250 C   0  0  0  0  0  0  0  0  0  0  0  0
   11.2370   -0.1750   23.2840 C   0  0  0  0  0  0  0  0  0  0  0  0
   10.1030   -2.0800   23.3090 N   0  0  0  0  0  0  0  0  0  0  0  0
   10.4660    3.1920   24.2210 F   0  0  0  0  0  0  0  0  0  0  0  0
   11.4130    1.1900   23.4920 C   0  0  0  0  0  0  0  0  0  0  0  0
   12.0230   -1.2190   22.7740 C   0  0  0  0  0  0  0  0  0  0  0  0
   11.3110   -2.3350   22.7980 C   0  0  0  0  0  0  0  0  0  0  0  0
   13.3500   -1.2700   22.2610 C   0  0  0  0  0  0  0  0  0  0  0  0
   13.2240   -2.1800   21.0580 C   0  0  0  0  0  0  0  0  0  0  0  0
   13.3720   -3.6220   21.3060 N   0  0  0  0  0  0  0  0  0  0  0  0
   14.2530   -4.2480   20.4700 C   0  0  0  0  0  0  0  0  0  0  0  0
   14.8870   -5.6080   20.5430 C   0  0  0  0  0  0  0  0  0  0  0  0
   14.6460   -3.5680   19.6670 O   0  0  0  0  0  0  0  0  0  0  0  0
  1  2  1  0
  2  3  1  0
  3  4  2  0
  3  5  1  0
  5  6  1  0
  5  7  1  0
  6  8  1  0
  7  9  1  0
  8 10  1  0
  9 10  1  0
 10 11  1  0
 11 12  1  0
 12 13  2  0
 12 14  1  0
 13 15  1  0
 14 16  2  0
 14 17  1  0
 15 18  1  0
 15 19  2  0
 16 19  1  0
 16 20  1  0
 17 21  1  0
 20 21  2  0
 20 22  1  0
 22 23  1  0
 23 24  1  0
 24 25  1  0
 25 26  1  0
 25 27  2  0
M  END
