OLE-CAR-5b17bec5-6
     RDKit          3D

 25 28  0  0  0  0  0  0  0  0999 V2000
    5.0130   -2.4510   18.8670 N   0  0  0  0  0  0  0  0  0  0  0  0
    6.1610   -3.0160   19.2820 C   0  0  0  0  0  0  0  0  0  0  0  0
    7.3520   -2.7430   18.5750 O   0  0  0  0  0  0  0  0  0  0  0  0
    6.0210   -3.8130   20.5270 C   0  0  0  0  0  0  0  0  0  0  0  0
    5.4380   -5.2500   20.6140 C   0  0  0  0  0  0  0  0  0  0  0  0
    6.4530   -3.1110   21.5780 C   0  0  0  0  0  0  0  0  0  0  0  0
    5.2620   -5.9510   21.9980 C   0  0  0  0  0  0  0  0  0  0  0  0
    6.3520   -3.6570   22.8030 C   0  0  0  0  0  0  0  0  0  0  0  0
    5.7650   -4.9990   23.0580 C   0  0  0  0  0  0  0  0  0  0  0  0
    6.7570   -3.1140   24.0750 C   0  0  0  0  0  0  0  0  0  0  0  0
    7.4170   -1.9710   24.4010 O   0  0  0  0  0  0  0  0  0  0  0  0
    6.3470   -4.0020   25.0060 C   0  0  0  0  0  0  0  0  0  0  0  0
    5.7650   -5.2330   24.5250 N   0  0  0  0  0  0  0  0  0  0  0  0
    6.4990   -3.5870   26.2880 O   0  0  0  0  0  0  0  0  0  0  0  0
    4.5840   -5.6820   25.2940 C   0  0  0  0  0  0  0  0  0  0  0  0
    3.5640   -4.5640   25.4920 C   0  0  0  0  0  0  0  0  0  0  0  0
    3.9810   -3.0700   25.5890 C   0  0  0  0  0  0  0  0  0  0  0  0
    2.2020   -4.8800   25.6030 C   0  0  0  0  0  0  0  0  0  0  0  0
    2.9500   -1.9360   25.8170 C   0  0  0  0  0  0  0  0  0  0  0  0
    1.1310   -3.8090   25.8310 C   0  0  0  0  0  0  0  0  0  0  0  0
    1.4500   -2.3050   25.9540 C   0  0  0  0  0  0  0  0  0  0  0  0
   -0.3440   -4.1730   25.9580 C   0  0  0  0  0  0  0  0  0  0  0  0
    0.3060   -1.2950   26.2010 C   0  0  0  0  0  0  0  0  0  0  0  0
   -1.4240   -3.1490   26.1940 C   0  0  0  0  0  0  0  0  0  0  0  0
   -1.1600   -1.7680   26.3190 C   0  0  0  0  0  0  0  0  0  0  0  0
  1  2  1  0
  2  3  2  0
  2  4  1  0
  4  5  2  0
  4  6  1  0
  5  7  1  0
  6  8  2  0
  7  9  2  0
  8  9  1  0
  8 10  1  0
 10 11  2  0
 10 12  1  0
  9 13  1  0
 12 13  1  0
 12 14  2  0
 13 15  1  0
 15 16  1  0
 16 17  2  0
 16 18  1  0
 17 19  1  0
 18 20  2  0
 19 21  2  0
 20 21  1  0
 20 22  1  0
 21 23  1  0
 22 24  2  0
 23 25  2  0
 24 25  1  0
M  END
