OLE-CAR-5b17bec5-9
     RDKit          3D

 45 46  0  0  0  0  0  0  0  0999 V2000
   -2.8360   -3.4480   17.8140 C   0  0  0  0  0  0  0  0  0  0  0  0
   -3.6630   -4.6410   18.0480 C   0  0  0  0  0  0  0  0  0  0  0  0
   -3.2200   -5.7200   17.6530 O   0  0  0  0  0  0  0  0  0  0  0  0
   -2.9630   -6.5660   18.7090 C   0  0  0  0  0  0  0  0  0  0  0  0
   -3.3410   -7.7360   18.7510 O   0  0  0  0  0  0  0  0  0  0  0  0
   -2.1560   -5.9710   19.8770 C   0  0  0  0  0  0  0  0  0  0  0  0
   -1.7160   -6.8310   21.0730 C   0  0  0  0  0  0  0  0  0  0  0  0
   -0.9830   -6.5810   22.3150 C   0  0  2  0  0  0  0  0  0  0  0  0
   -1.2770   -5.3730   23.0930 C   0  0  0  0  0  0  0  0  0  0  0  0
    0.4180   -6.5870   22.1900 N   0  0  0  0  0  0  0  0  0  0  0  0
   -2.6330   -4.9020   23.0480 C   0  0  2  0  0  0  0  0  0  0  0  0
    1.3550   -6.0410   23.2010 C   0  0  0  0  0  0  0  0  0  0  0  0
   -2.7890   -4.0980   21.9360 C   0  0  0  0  0  0  0  0  0  0  0  0
   -3.0480   -3.9890   24.2400 C   0  0  0  0  0  0  0  0  0  0  0  0
    0.9110   -5.0810   24.1720 O   0  0  0  0  0  0  0  0  0  0  0  0
    2.8440   -6.5240   23.1920 C   0  0  2  0  0  0  0  0  0  0  0  0
   -3.2720   -2.8190   22.2060 C   0  0  0  0  0  0  0  0  0  0  0  0
   -3.4310   -2.7030   23.6610 N   0  0  0  0  0  0  0  0  0  0  0  0
   -3.0570   -4.3220   25.5580 O   0  0  0  0  0  0  0  0  0  0  0  0
    3.0990   -7.4630   24.4090 C   0  0  0  0  0  0  0  0  0  0  0  0
    3.9930   -5.6290   23.1290 N   0  0  0  0  0  0  0  0  0  0  0  0
    2.0730   -8.5590   24.7900 C   0  0  0  0  0  0  0  0  0  0  0  0
    5.0520   -5.5160   22.0990 C   0  0  0  0  0  0  0  0  0  0  0  0
    1.0230   -8.6830   23.6810 C   0  0  0  0  0  0  0  0  0  0  0  0
    1.3750   -8.3010   26.1250 C   0  0  0  0  0  0  0  0  0  0  0  0
    5.2660   -6.2990   21.1860 O   0  0  0  0  0  0  0  0  0  0  0  0
    5.8150   -4.3670   22.3070 C   0  0  1  0  0  0  0  0  0  0  0  0
    6.8730   -4.7170   23.0990 N   0  0  0  0  0  0  0  0  0  0  0  0
    6.1330   -3.4420   21.1040 C   0  0  2  0  0  0  0  0  0  0  0  0
    6.6290   -4.9830   24.4820 C   0  0  0  0  0  0  0  0  0  0  0  0
    5.5320   -3.7320   19.9070 C   0  0  0  0  0  0  0  0  0  0  0  0
    7.5450   -3.3160   20.9330 O   0  0  0  0  0  0  0  0  0  0  0  0
    7.4520   -4.9210   25.3860 O   0  0  0  0  0  0  0  0  0  0  0  0
    5.3150   -5.3160   24.5890 O   0  0  0  0  0  0  0  0  0  0  0  0
    8.1080   -2.1670   21.5850 C   0  0  0  0  0  0  0  0  0  0  0  0
    4.7210   -5.2520   25.8920 C   0  0  0  0  0  0  0  0  0  0  0  0
    7.9570   -0.9310   20.7300 C   0  0  0  0  0  0  0  0  0  0  0  0
    9.5940   -2.4830   21.7840 C   0  0  0  0  0  0  0  0  0  0  0  0
    7.4650   -1.9290   22.9570 C   0  0  0  0  0  0  0  0  0  0  0  0
    3.6960   -4.2710   25.9080 C   0  0  0  0  0  0  0  0  0  0  0  0
    4.0030   -2.9090   25.8560 C   0  0  0  0  0  0  0  0  0  0  0  0
    2.3340   -4.6470   25.9790 C   0  0  0  0  0  0  0  0  0  0  0  0
    3.0190   -1.9130   25.8760 C   0  0  0  0  0  0  0  0  0  0  0  0
    1.2990   -3.6980   26.0020 C   0  0  0  0  0  0  0  0  0  0  0  0
    1.5950   -2.3440   25.9550 C   0  0  0  0  0  0  0  0  0  0  0  0
  1  2  1  0
  2  3  1  0
  3  4  1  0
  4  5  2  0
  4  6  1  0
  6  7  2  3
  8  7  1  6
  8  9  1  0
  8 10  1  0
 11  9  1  1
 10 12  1  0
 11 13  1  0
 11 14  1  0
 12 15  2  0
 12 16  1  0
 13 17  1  0
 14 18  1  0
 17 18  1  0
 14 19  2  0
 16 20  1  1
 16 21  1  0
 20 22  1  0
 21 23  1  0
 22 24  1  0
 22 25  1  0
 23 26  2  0
 23 27  1  0
 27 28  1  6
 27 29  1  0
 28 30  1  0
 29 31  1  6
 29 32  1  0
 30 33  2  0
 30 34  1  0
 35 32  1  0
 34 36  1  0
 35 37  1  0
 35 38  1  0
 35 39  1  0
 36 40  1  0
 40 41  2  0
 40 42  1  0
 41 43  1  0
 42 44  2  0
 43 45  2  0
 44 45  1  0
M  END
