ORN-MSD-5b974918-1
     RDKit          3D

 25 27  0  0  0  0  0  0  0  0999 V2000
    9.1560    6.2110   22.6820 N   0  0  0  0  0  0  0  0  0  0  0  0
   10.2610    6.1000   23.3320 C   0  0  0  0  0  0  0  0  0  0  0  0
   10.3040    6.3430   24.7350 O   0  0  0  0  0  0  0  0  0  0  0  0
   11.3710    5.7340   22.6310 N   0  0  0  0  0  0  0  0  0  0  0  0
   12.5790    5.1410   23.1620 C   0  0  0  0  0  0  0  0  0  0  0  0
   12.6270    3.6470   22.7980 C   0  0  0  0  0  0  0  0  0  0  0  0
   11.6140    2.5610   23.2040 C   0  0  0  0  0  0  0  0  0  0  0  0
   10.2490    2.7020   23.7770 C   0  0  0  0  0  0  0  0  0  0  0  0
   11.8170    1.1440   23.0690 C   0  0  0  0  0  0  0  0  0  0  0  0
    9.7290    1.4410   23.9180 N   0  0  0  0  0  0  0  0  0  0  0  0
   10.6320    0.4960   23.4950 C   0  0  0  0  0  0  0  0  0  0  0  0
   12.9170    0.3970   22.6030 C   0  0  0  0  0  0  0  0  0  0  0  0
   10.4190   -0.9740   23.4690 C   0  0  0  0  0  0  0  0  0  0  0  0
   12.6280   -1.1060   22.5960 C   0  0  0  0  0  0  0  0  0  0  0  0
    9.1850   -1.7050   23.8760 C   0  0  0  0  0  0  0  0  0  0  0  0
   11.5030   -1.7370   22.9850 C   0  0  0  0  0  0  0  0  0  0  0  0
   13.5420   -1.9750   22.1610 F   0  0  0  0  0  0  0  0  0  0  0  0
    9.3350   -2.7230   24.8290 C   0  0  0  0  0  0  0  0  0  0  0  0
    9.1190   -3.3960   25.7520 N   0  0  0  0  0  0  0  0  0  0  0  0
    7.7020   -3.6700   25.9890 C   0  0  0  0  0  0  0  0  0  0  0  0
    9.9120   -4.4690   25.8800 C   0  0  0  0  0  0  0  0  0  0  0  0
    7.3000   -4.2880   27.1630 C   0  0  0  0  0  0  0  0  0  0  0  0
    9.1840   -5.7890   26.1410 C   0  0  0  0  0  0  0  0  0  0  0  0
    8.3170   -5.0520   27.8970 C   0  0  0  0  0  0  0  0  0  0  0  0
    8.7010   -6.0140   27.2450 O   0  0  0  0  0  0  0  0  0  0  0  0
  1  2  1  0
  2  3  2  0
  2  4  1  0
  4  5  1  0
  5  6  1  0
  6  7  1  0
  7  8  2  0
  7  9  1  0
  8 10  1  0
  9 11  2  0
 10 11  1  0
  9 12  1  0
 11 13  1  0
 12 14  2  0
 13 15  1  0
 13 16  2  0
 14 16  1  0
 14 17  1  0
 15 18  1  0
 18 19  1  0
 19 20  1  0
 19 21  1  0
 20 22  1  0
 21 23  1  0
 22 24  1  0
 23 25  1  0
 24 25  1  0
M  END
