ORN-MSD-f9d8c68a-1
     RDKit          3D

 25 27  0  0  0  0  0  0  0  0999 V2000
    9.0980    6.2370   22.6300 N   0  0  0  0  0  0  0  0  0  0  0  0
   10.2240    6.1540   23.3900 C   0  0  0  0  0  0  0  0  0  0  0  0
   10.2120    6.3840   24.7910 O   0  0  0  0  0  0  0  0  0  0  0  0
   11.3800    5.7990   22.5440 N   0  0  0  0  0  0  0  0  0  0  0  0
   12.3090    4.9360   23.2750 C   0  0  0  0  0  0  0  0  0  0  0  0
   12.4640    3.5460   22.6250 C   0  0  0  0  0  0  0  0  0  0  0  0
   11.6270    2.3550   23.1670 C   0  0  0  0  0  0  0  0  0  0  0  0
   10.5340    2.5000   24.1930 C   0  0  0  0  0  0  0  0  0  0  0  0
   11.5960    0.9150   22.8180 C   0  0  2  0  0  0  0  0  0  0  0  0
    9.9740    1.2660   24.5050 N   0  0  0  0  0  0  0  0  0  0  0  0
   10.2940    0.3740   23.4970 C   0  0  2  0  0  0  0  0  0  0  0  0
   12.8100    0.0240   22.7110 C   0  0  0  0  0  0  0  0  0  0  0  0
   10.2400   -1.0310   23.7150 C   0  0  0  0  0  0  0  0  0  0  0  0
   12.7000   -1.3310   22.9830 C   0  0  0  0  0  0  0  0  0  0  0  0
    9.0720   -1.6470   24.1670 C   0  0  0  0  0  0  0  0  0  0  0  0
   11.3530   -1.8730   23.4690 C   0  0  0  0  0  0  0  0  0  0  0  0
   13.7150   -2.1750   22.8480 F   0  0  0  0  0  0  0  0  0  0  0  0
    8.0600   -1.8300   23.1730 C   0  0  0  0  0  0  0  0  0  0  0  0
    7.2920   -2.9340   23.3980 N   0  0  0  0  0  0  0  0  0  0  0  0
    7.6530   -4.2080   23.1080 C   0  0  0  0  0  0  0  0  0  0  0  0
    6.4640   -2.8120   24.4960 C   0  0  0  0  0  0  0  0  0  0  0  0
    6.6250   -4.9690   22.5330 C   0  0  0  0  0  0  0  0  0  0  0  0
    5.6180   -4.0260   24.9560 C   0  0  0  0  0  0  0  0  0  0  0  0
    5.4380   -5.3650   23.3960 C   0  0  0  0  0  0  0  0  0  0  0  0
    4.8770   -4.5570   24.1310 O   0  0  0  0  0  0  0  0  0  0  0  0
  1  2  1  0
  2  3  2  0
  2  4  1  0
  4  5  1  0
  5  6  1  0
  6  7  1  0
  7  8  2  0
  7  9  1  0
  8 10  1  0
  9 11  1  0
 11 10  1  1
  9 12  1  1
 11 13  1  0
 12 14  2  0
 13 15  1  0
 13 16  2  0
 14 16  1  0
 14 17  1  0
 15 18  1  0
 18 19  1  0
 19 20  1  0
 19 21  1  0
 20 22  1  0
 21 23  1  0
 22 24  1  0
 23 25  1  0
 24 25  1  0
M  END
