PAF-PIO-d312ccf6-3
     RDKit          3D

 22 24  0  0  0  0  0  0  0  0999 V2000
    8.6430   -2.5760   24.8140 O   0  0  0  0  0  0  0  0  0  0  0  0
    7.5400   -3.0310   24.5890 C   0  0  0  0  0  0  0  0  0  0  0  0
    6.3230   -2.7770   25.3820 C   0  0  0  0  0  0  0  0  0  0  0  0
    7.0450   -3.8740   23.4950 C   0  0  0  0  0  0  0  0  0  0  0  0
    6.0230   -1.4670   25.7160 O   0  0  0  0  0  0  0  0  0  0  0  0
    5.4850   -4.0250   25.5870 C   0  0  0  0  0  0  0  0  0  0  0  0
    6.2450   -4.9820   23.8920 C   0  0  0  0  0  0  0  0  0  0  0  0
    7.2580   -3.6460   22.1260 C   0  0  0  0  0  0  0  0  0  0  0  0
    4.1180   -3.6540   26.0430 C   0  0  0  0  0  0  0  0  0  0  0  0
    5.9270   -5.2420   25.1720 O   0  0  0  0  0  0  0  0  0  0  0  0
    5.6580   -5.9260   22.9490 C   0  0  0  0  0  0  0  0  0  0  0  0
    6.6480   -4.5630   21.2930 C   0  0  0  0  0  0  0  0  0  0  0  0
    7.9900   -2.5880   21.6580 O   0  0  0  0  0  0  0  0  0  0  0  0
    3.9800   -2.3990   26.6530 C   0  0  0  0  0  0  0  0  0  0  0  0
    2.9760   -4.4550   25.8310 C   0  0  0  0  0  0  0  0  0  0  0  0
    4.8920   -6.9980   23.3450 O   0  0  0  0  0  0  0  0  0  0  0  0
    5.9160   -5.6360   21.6710 C   0  0  0  0  0  0  0  0  0  0  0  0
    2.7440   -1.9040   27.0340 C   0  0  0  0  0  0  0  0  0  0  0  0
    1.7380   -3.9280   26.2250 C   0  0  0  0  0  0  0  0  0  0  0  0
    5.4260   -6.4160   20.8000 O   0  0  0  0  0  0  0  0  0  0  0  0
    1.5980   -2.6610   26.8150 C   0  0  0  0  0  0  0  0  0  0  0  0
    0.5260   -2.1770   27.1470 O   0  0  0  0  0  0  0  0  0  0  0  0
  1  2  2  0
  2  3  1  0
  2  4  1  0
  3  5  1  0
  3  6  2  0
  4  7  2  0
  4  8  1  0
  6  9  1  0
  6 10  1  0
  7 10  1  0
  7 11  1  0
  8 12  2  0
  8 13  1  0
  9 14  2  0
  9 15  1  0
 11 16  1  0
 11 17  2  0
 12 17  1  0
 14 18  1  0
 15 19  2  0
 17 20  1  0
 18 21  2  0
 19 21  1  0
 21 22  1  0
M  END
