PAT-GYR-359dbb24-3
     RDKit          3D

 22 23  0  0  0  0  0  0  0  0999 V2000
   15.2910   -5.6280   20.4650 C   0  0  0  0  0  0  0  0  0  0  0  0
   13.9420   -5.2280   20.5910 O   0  0  0  0  0  0  0  0  0  0  0  0
   13.7960   -3.9070   20.4090 C   0  0  0  0  0  0  0  0  0  0  0  0
   14.6250   -3.4550   19.7450 O   0  0  0  0  0  0  0  0  0  0  0  0
   12.6770   -2.9640   20.9710 C   0  0  0  0  0  0  0  0  0  0  0  0
   13.4150   -1.6520   21.3510 C   0  0  0  0  0  0  0  0  0  0  0  0
   12.3530   -1.1230   22.3410 C   0  0  0  0  0  0  0  0  0  0  0  0
   12.7990    0.2660   22.7820 C   0  0  0  0  0  0  0  0  0  0  0  0
   11.2270   -1.8120   22.7190 C   0  0  0  0  0  0  0  0  0  0  0  0
   11.8890    1.0340   23.7760 C   0  0  0  0  0  0  0  0  0  0  0  0
   10.2870   -1.1610   23.6890 C   0  0  0  0  0  0  0  0  0  0  0  0
   10.6200    0.2480   24.2070 C   0  0  0  0  0  0  0  0  0  0  0  0
    9.5380    0.7430   25.1850 C   0  0  0  0  0  0  0  0  0  0  0  0
    8.2510    0.5030   24.6490 N   0  0  0  0  0  0  0  0  0  0  0  0
    7.5130    1.4300   23.9530 C   0  0  0  0  0  0  0  0  0  0  0  0
    8.1020    2.5980   23.3920 O   0  0  0  0  0  0  0  0  0  0  0  0
    6.0930    1.1310   23.8400 N   0  0  0  0  0  0  0  0  0  0  0  0
    5.2540    0.9200   24.9300 C   0  0  0  0  0  0  0  0  0  0  0  0
    5.3700    1.5420   22.6220 C   0  0  0  0  0  0  0  0  0  0  0  0
    4.0060    0.1870   24.5800 C   0  0  0  0  0  0  0  0  0  0  0  0
    4.0960    0.9920   22.5310 C   0  0  0  0  0  0  0  0  0  0  0  0
    3.3460    0.9220   23.6510 O   0  0  0  0  0  0  0  0  0  0  0  0
  1  2  1  0
  2  3  1  0
  3  4  2  0
  3  5  1  0
  5  6  3  0
  6  7  1  0
  7  8  2  0
  7  9  1  0
  8 10  1  0
  9 11  2  0
 10 12  2  0
 11 12  1  0
 12 13  1  0
 13 14  1  0
 14 15  1  0
 15 16  2  0
 15 17  1  0
 17 18  1  0
 17 19  1  0
 18 20  1  0
 19 21  1  0
 20 22  1  0
 21 22  1  0
M  END
