PAT-UNK-b2d83456-5-acrylamide
     RDKit          3D

 29 31  0  0  0  0  0  0  0  0999 V2000
    7.4910   -2.9140   18.5040 C   0  0  0  0  0  0  0  0  0  0  0  0
    6.8640   -2.0070   19.5900 C   0  0  0  0  0  0  0  0  0  0  0  0
    6.2630   -2.5970   20.8740 C   0  0  0  0  0  0  0  0  0  0  0  0
    5.0760   -3.2880   21.0110 O   0  0  0  0  0  0  0  0  0  0  0  0
    7.2720   -2.2220   21.9810 C   0  0  0  0  0  0  0  0  0  0  0  0
    7.1120   -2.9400   23.0610 C   0  0  0  0  0  0  0  0  0  0  0  0
    8.2290   -1.1280   21.5900 C   0  0  0  0  0  0  0  0  0  0  0  0
    7.9260   -2.8060   24.2140 C   0  0  0  0  0  0  0  0  0  0  0  0
    9.0500   -1.0060   22.8050 C   0  0  0  0  0  0  0  0  0  0  0  0
    7.6410   -3.7050   25.3670 C   0  0  0  0  0  0  0  0  0  0  0  0
    8.8740   -1.8390   24.0630 C   0  0  0  0  0  0  0  0  0  0  0  0
   10.1710   -0.0160   22.9330 C   0  0  0  0  0  0  0  0  0  0  0  0
    7.1780   -4.9760   24.7860 N   0  0  0  0  0  0  0  0  0  0  0  0
    9.8030   -1.3990   24.8720 N   0  0  0  0  0  0  0  0  0  0  0  0
   10.5040   -0.4160   24.2700 C   0  0  0  0  0  0  0  0  0  0  0  0
   11.2520    0.8340   23.2520 C   0  0  0  0  0  0  0  0  0  0  0  0
    5.7530   -4.9420   24.4160 C   0  0  0  0  0  0  0  0  0  0  0  0
    8.0390   -5.4210   23.6610 C   0  0  0  0  0  0  0  0  0  0  0  0
   12.5990    0.4470   23.2700 C   0  0  0  0  0  0  0  0  0  0  0  0
    5.3000   -5.3360   23.1360 C   0  0  0  0  0  0  0  0  0  0  0  0
    7.6390   -5.1880   22.3220 C   0  0  0  0  0  0  0  0  0  0  0  0
   12.9860   -0.5820   22.3450 N   0  0  0  0  0  0  0  0  0  0  0  0
    6.2160   -4.9510   22.0570 N   0  0  0  0  0  0  0  0  0  0  0  0
   12.5760   -1.8640   22.5340 C   0  0  0  0  0  0  0  0  0  0  0  0
    5.7020   -4.7990   20.7710 C   0  0  0  0  0  0  0  0  0  0  0  0
   11.4630   -2.2070   21.7120 C   0  0  0  0  0  0  0  0  0  0  0  0
   13.1080   -2.6320   23.3300 O   0  0  0  0  0  0  0  0  0  0  0  0
    5.5010   -3.5140   20.2680 C   0  0  0  0  0  0  0  0  0  0  0  0
    5.4170   -5.7380   20.0450 O   0  0  0  0  0  0  0  0  0  0  0  0
  1  2  1  0
  2  3  1  0
  3  4  2  0
  3  5  1  0
  5  6  2  0
  5  7  1  0
  6  8  1  0
  7  9  2  0
  8 10  1  0
  8 11  2  0
  9 11  1  0
  9 12  1  0
 10 13  1  0
 11 14  1  0
 12 15  2  0
 14 15  1  0
 12 16  1  0
 13 17  1  0
 13 18  1  0
 16 19  1  0
 17 20  1  0
 18 21  1  0
 19 22  1  0
 20 23  1  0
 21 23  1  0
 22 24  1  0
 23 25  1  0
 24 26  1  0
 24 27  2  0
 25 28  1  0
 25 29  2  0
M  END
