PAU-UNI-d269d79c-1
     RDKit          3D

 28 31  0  0  0  0  0  0  0  0999 V2000
   -3.5090  -14.1700   23.3710 C   0  0  0  0  0  0  0  0  0  0  0  0
   -3.1100  -12.7770   23.1100 C   0  0  0  0  0  0  0  0  0  0  0  0
   -1.7560  -12.4460   23.7480 C   0  0  0  0  0  0  0  0  0  0  0  0
   -3.8280  -11.8220   22.3800 C   0  0  0  0  0  0  0  0  0  0  0  0
   -1.1460  -11.0460   23.6020 C   0  0  0  0  0  0  0  0  0  0  0  0
   -3.2360  -10.4160   22.2220 C   0  0  0  0  0  0  0  0  0  0  0  0
   -5.3480  -12.1930   21.6630 Cl  0  0  0  0  0  0  0  0  0  0  0  0
   -0.0310  -10.8350   24.1540 O   0  0  0  0  0  0  0  0  0  0  0  0
   -1.8750  -10.0780   22.8560 C   0  0  0  0  0  0  0  0  0  0  0  0
    0.5490   -9.5870   24.0540 C   0  0  0  0  0  0  0  0  0  0  0  0
   -1.2270   -8.7060   22.7240 C   0  0  0  0  0  0  0  0  0  0  0  0
   -0.0450   -8.5280   23.3320 C   0  0  0  0  0  0  0  0  0  0  0  0
   -1.8090   -7.7000   22.0230 O   0  0  0  0  0  0  0  0  0  0  0  0
    1.7590   -9.0570   24.5670 C   0  0  0  0  0  0  0  0  0  0  0  0
    0.6890   -7.3370   23.3190 C   0  0  2  0  0  0  0  0  0  0  0  0
    1.9680   -7.8810   23.8560 N   0  0  0  0  0  0  0  0  0  0  0  0
    2.4550   -9.5480   25.4300 O   0  0  0  0  0  0  0  0  0  0  0  0
    0.0860   -6.2980   24.2920 C   0  0  0  0  0  0  0  0  0  0  0  0
    3.1190   -7.0340   24.1940 C   0  0  0  0  0  0  0  0  0  0  0  0
   -1.1260   -6.7430   25.1190 C   0  0  0  0  0  0  0  0  0  0  0  0
    0.5970   -4.9990   24.4400 C   0  0  0  0  0  0  0  0  0  0  0  0
    3.1450   -5.7940   23.5280 C   0  0  0  0  0  0  0  0  0  0  0  0
   -1.7090   -5.6900   26.0810 C   0  0  0  0  0  0  0  0  0  0  0  0
    0.0450   -4.0490   25.3280 C   0  0  0  0  0  0  0  0  0  0  0  0
    4.3290   -5.2250   23.0000 C   0  0  0  0  0  0  0  0  0  0  0  0
   -1.0650   -4.2830   26.1620 C   0  0  0  0  0  0  0  0  0  0  0  0
    5.2600   -5.9150   22.2480 O   0  0  0  0  0  0  0  0  0  0  0  0
   -1.6740   -3.0660   27.2160 Cl  0  0  0  0  0  0  0  0  0  0  0  0
  1  2  1  0
  2  3  2  0
  2  4  1  0
  3  5  1  0
  4  6  2  0
  4  7  1  0
  5  8  1  0
  5  9  2  0
  6  9  1  0
  8 10  1  0
  9 11  1  0
 10 12  2  0
 11 12  1  0
 11 13  2  0
 10 14  1  0
 12 15  1  0
 14 16  1  0
 15 16  1  0
 14 17  2  0
 15 18  1  1
 16 19  1  0
 18 20  2  0
 18 21  1  0
 19 22  1  0
 20 23  1  0
 21 24  2  0
 22 25  1  0
 23 26  2  0
 24 26  1  0
 25 27  1  0
 26 28  1  0
M  END
