PAU-WEI-f734c343-3-vinylsulfonamide
     RDKit          3D

 29 31  0  0  0  0  0  0  0  0999 V2000
    7.8680   -3.0580   18.4610 C   0  0  0  0  0  0  0  0  0  0  0  0
    7.5850   -2.6290   19.8350 C   0  0  0  0  0  0  0  0  0  0  0  0
    5.8380   -2.4690   19.9250 S   0  0  0  0  0  0  0  0  0  0  0  0
    5.1840   -3.7320   20.1670 O   0  0  0  0  0  0  0  0  0  0  0  0
    5.4510   -1.6550   18.8090 O   0  0  0  0  0  0  0  0  0  0  0  0
    5.8320   -1.6140   21.3540 N   0  0  0  0  0  0  0  0  0  0  0  0
    6.8680   -0.6030   21.4260 C   0  0  0  0  0  0  0  0  0  0  0  0
    5.7340   -2.4440   22.5510 C   0  0  0  0  0  0  0  0  0  0  0  0
    8.2140   -1.1340   21.9590 C   0  0  0  0  0  0  0  0  0  0  0  0
    7.0710   -3.1460   22.7930 C   0  0  0  0  0  0  0  0  0  0  0  0
    8.1040   -2.1390   23.0320 N   0  0  0  0  0  0  0  0  0  0  0  0
    9.2820   -2.8070   23.4670 C   0  0  2  0  0  0  0  0  0  0  0  0
    9.0670   -3.7710   24.6640 C   0  0  0  0  0  0  0  0  0  0  0  0
   10.3060   -1.8530   23.3450 C   0  0  0  0  0  0  0  0  0  0  0  0
    9.7230   -5.0970   24.9070 C   0  0  0  0  0  0  0  0  0  0  0  0
    7.9660   -3.5530   26.0090 S   0  0  0  0  0  0  0  0  0  0  0  0
   11.3600   -2.2100   22.5800 C   0  0  0  0  0  0  0  0  0  0  0  0
   10.3800   -0.5590   23.9090 C   0  0  0  0  0  0  0  0  0  0  0  0
    9.2760   -5.7670   26.1030 C   0  0  0  0  0  0  0  0  0  0  0  0
    8.3100   -5.0540   26.8040 C   0  0  0  0  0  0  0  0  0  0  0  0
   12.4850   -1.3620   22.3540 C   0  0  0  0  0  0  0  0  0  0  0  0
   11.4550    0.2780   23.7060 N   0  0  0  0  0  0  0  0  0  0  0  0
    9.3430   -0.1240   24.6790 N   0  0  0  0  0  0  0  0  0  0  0  0
    7.4530   -5.6160   28.4050 Br  0  0  0  0  0  0  0  0  0  0  0  0
   13.4660   -1.8570   21.5810 C   0  0  0  0  0  0  0  0  0  0  0  0
   12.4900   -0.1240   22.9390 C   0  0  0  0  0  0  0  0  0  0  0  0
    9.3010    1.1910   25.2640 C   0  0  0  0  0  0  0  0  0  0  0  0
   13.8390   -1.2080   20.4610 N   0  0  0  0  0  0  0  0  0  0  0  0
   10.1390    2.0960   24.3310 C   0  0  0  0  0  0  0  0  0  0  0  0
  1  2  1  0
  3  2  1  0
  3  4  2  0
  3  5  2  0
  3  6  1  0
  6  7  1  0
  6  8  1  0
  7  9  1  0
  8 10  1  0
  9 11  1  0
 10 11  1  0
 11 12  1  0
 12 13  1  1
 12 14  1  0
 13 15  2  0
 13 16  1  0
 14 17  2  0
 14 18  1  0
 15 19  1  0
 16 20  1  0
 19 20  2  0
 17 21  1  0
 18 22  2  0
 18 23  1  0
 20 24  1  0
 21 25  1  0
 21 26  2  0
 22 26  1  0
 23 27  1  0
 25 28  3  0
 27 29  1  0
M  END
