PAU-UNI-19862c28-1-nitrile
     RDKit          3D

 20 22  0  0  0  0  0  0  0  0999 V2000
    7.3180   -3.2650   19.4610 C   0  0  0  0  0  0  0  0  0  0  0  0
    6.3850   -3.1150   18.5980 N   0  0  0  0  0  0  0  0  0  0  0  0
    7.1080   -2.7840   20.7400 N   0  0  0  0  0  0  0  0  0  0  0  0
    7.5320   -1.4200   21.0200 C   0  0  0  0  0  0  0  0  0  0  0  0
    7.0660   -3.6410   21.9450 C   0  0  0  0  0  0  0  0  0  0  0  0
    8.6510   -1.4880   21.9790 C   0  0  0  0  0  0  0  0  0  0  0  0
    8.3010   -3.5120   22.6100 C   0  0  0  0  0  0  0  0  0  0  0  0
    8.3670   -2.4490   23.0750 N   0  0  0  0  0  0  0  0  0  0  0  0
    9.4280   -2.3660   24.0810 C   0  0  0  0  0  0  0  0  0  0  0  0
   10.3880   -1.4740   23.6190 C   0  0  0  0  0  0  0  0  0  0  0  0
   11.3990   -1.9230   22.7900 C   0  0  0  0  0  0  0  0  0  0  0  0
   10.3230   -0.1140   23.9590 C   0  0  0  0  0  0  0  0  0  0  0  0
   12.3140   -1.0280   22.3230 C   0  0  0  0  0  0  0  0  0  0  0  0
   11.3070    0.7660   23.4460 C   0  0  0  0  0  0  0  0  0  0  0  0
    9.3090    0.3710   24.7670 C   0  0  0  0  0  0  0  0  0  0  0  0
   13.4890   -1.6690   21.2540 Cl  0  0  0  0  0  0  0  0  0  0  0  0
   12.2880    0.2910   22.6530 C   0  0  0  0  0  0  0  0  0  0  0  0
   11.3080    2.2330   23.7220 C   0  0  0  0  0  0  0  0  0  0  0  0
    9.2300    1.7430   25.0640 C   0  0  0  0  0  0  0  0  0  0  0  0
   10.1480    2.6870   24.5890 C   0  0  0  0  0  0  0  0  0  0  0  0
  1  2  2  3
  1  3  1  0
  3  4  1  0
  3  5  1  0
  4  6  1  0
  5  7  1  0
  6  8  1  0
  7  8  1  0
  8  9  1  0
  9 10  1  0
 10 11  2  0
 10 12  1  0
 11 13  1  0
 12 14  2  0
 12 15  1  0
 13 16  1  0
 13 17  2  0
 14 17  1  0
 14 18  1  0
 15 19  2  0
 18 20  2  0
 19 20  1  0
M  END
