PAU-WEI-c6d65c11-1-vinylsulfonamide
     RDKit          3D

 27 29  0  0  0  0  0  0  0  0999 V2000
    7.4090   -2.9570   18.5660 C   0  0  0  0  0  0  0  0  0  0  0  0
    6.8260   -2.5310   19.8920 C   0  0  0  0  0  0  0  0  0  0  0  0
    5.8180   -3.8110   20.5910 S   0  0  0  0  0  0  0  0  0  0  0  0
    4.8340   -3.1920   21.4320 O   0  0  0  0  0  0  0  0  0  0  0  0
    5.3810   -4.7730   19.6190 O   0  0  0  0  0  0  0  0  0  0  0  0
    6.8980   -4.5900   21.6180 N   0  0  0  0  0  0  0  0  0  0  0  0
    6.3400   -5.4430   22.5560 C   0  0  0  0  0  0  0  0  0  0  0  0
    7.8800   -3.6820   22.1640 C   0  0  0  0  0  0  0  0  0  0  0  0
    5.9100   -4.8900   23.7640 C   0  0  0  0  0  0  0  0  0  0  0  0
    7.3800   -2.9210   23.3890 C   0  0  1  0  0  0  0  0  0  0  0  0
    6.7030   -3.9060   24.4100 C   0  0  1  0  0  0  0  0  0  0  0  0
    8.5230   -2.2480   23.8280 C   0  0  0  0  0  0  0  0  0  0  0  0
    6.0620   -3.2520   25.4680 C   0  0  0  0  0  0  0  0  0  0  0  0
    9.6590   -2.3620   22.9930 C   0  0  0  0  0  0  0  0  0  0  0  0
    5.0160   -2.6350   25.2440 O   0  0  0  0  0  0  0  0  0  0  0  0
    6.5830   -3.3110   26.7490 N   0  0  0  0  0  0  0  0  0  0  0  0
   10.6930   -1.4430   22.9890 C   0  0  0  0  0  0  0  0  0  0  0  0
    5.6220   -3.2380   27.8480 C   0  0  0  0  0  0  0  0  0  0  0  0
    7.8890   -3.8320   27.1260 C   0  0  0  0  0  0  0  0  0  0  0  0
   11.8340   -1.7880   22.2800 C   0  0  0  0  0  0  0  0  0  0  0  0
   10.6380   -0.2100   23.6610 C   0  0  0  0  0  0  0  0  0  0  0  0
    5.4010   -4.5970   28.4930 C   0  0  0  0  0  0  0  0  0  0  0  0
    7.7850   -5.2360   27.6960 C   0  0  0  0  0  0  0  0  0  0  0  0
   12.9200   -0.9120   22.2410 C   0  0  0  0  0  0  0  0  0  0  0  0
   11.7290    0.6600   23.6140 C   0  0  0  0  0  0  0  0  0  0  0  0
    6.7040   -5.3450   28.7710 C   0  0  0  0  0  0  0  0  0  0  0  0
   12.8700    0.3090   22.9060 C   0  0  0  0  0  0  0  0  0  0  0  0
  1  2  1  0
  3  2  1  0
  3  4  2  0
  3  5  2  0
  3  6  1  0
  6  7  1  0
  6  8  1  0
  7  9  1  0
  8 10  1  0
  9 11  1  0
 10 11  1  0
 10 12  1  1
 11 13  1  1
 12 14  1  0
 13 15  2  0
 13 16  1  0
 14 17  1  0
 16 18  1  0
 16 19  1  0
 17 20  2  0
 17 21  1  0
 18 22  1  0
 19 23  1  0
 20 24  1  0
 21 25  2  0
 22 26  1  0
 23 26  1  0
 24 27  2  0
 25 27  1  0
M  END
