PAU-UNI-19862c28-1-vinylsulfonamide
     RDKit          3D

 23 25  0  0  0  0  0  0  0  0999 V2000
    7.7700   -3.0500   18.5610 C   0  0  0  0  0  0  0  0  0  0  0  0
    7.5700   -2.8810   20.0130 C   0  0  0  0  0  0  0  0  0  0  0  0
    5.8550   -2.8350   20.2820 S   0  0  0  0  0  0  0  0  0  0  0  0
    5.3260   -4.1560   20.5710 O   0  0  0  0  0  0  0  0  0  0  0  0
    5.2960   -2.0310   19.2350 O   0  0  0  0  0  0  0  0  0  0  0  0
    6.0260   -1.9680   21.7160 N   0  0  0  0  0  0  0  0  0  0  0  0
    6.1130   -2.8560   22.8750 C   0  0  0  0  0  0  0  0  0  0  0  0
    7.1790   -0.9760   21.6470 C   0  0  0  0  0  0  0  0  0  0  0  0
    7.3990   -3.2910   23.1260 C   0  0  0  0  0  0  0  0  0  0  0  0
    8.4260   -1.5080   22.0280 C   0  0  0  0  0  0  0  0  0  0  0  0
    8.2510   -2.1380   23.2290 N   0  0  0  0  0  0  0  0  0  0  0  0
    9.3440   -2.2470   23.9830 C   0  0  0  0  0  0  0  0  0  0  0  0
   10.3440   -1.4080   23.5440 C   0  0  0  0  0  0  0  0  0  0  0  0
   11.3340   -1.9180   22.7330 C   0  0  0  0  0  0  0  0  0  0  0  0
   10.3310   -0.0300   23.8950 C   0  0  0  0  0  0  0  0  0  0  0  0
   12.2950   -1.0790   22.2850 C   0  0  0  0  0  0  0  0  0  0  0  0
   11.3400    0.8440   23.4260 C   0  0  0  0  0  0  0  0  0  0  0  0
    9.3350    0.5430   24.6920 C   0  0  0  0  0  0  0  0  0  0  0  0
   13.4490   -1.7990   21.2330 Cl  0  0  0  0  0  0  0  0  0  0  0  0
   12.3560    0.3910   22.6390 C   0  0  0  0  0  0  0  0  0  0  0  0
   11.3630    2.3050   23.7290 C   0  0  0  0  0  0  0  0  0  0  0  0
    9.3370    1.9130   24.9790 C   0  0  0  0  0  0  0  0  0  0  0  0
   10.3400    2.7920   24.4950 C   0  0  0  0  0  0  0  0  0  0  0  0
  1  2  1  0
  3  2  1  0
  3  4  2  0
  3  5  2  0
  3  6  1  0
  6  7  1  0
  6  8  1  0
  7  9  1  0
  8 10  1  0
  9 11  1  0
 10 11  1  0
 11 12  1  0
 12 13  1  0
 13 14  2  0
 13 15  1  0
 14 16  1  0
 15 17  2  0
 15 18  1  0
 16 19  1  0
 16 20  2  0
 17 20  1  0
 17 21  1  0
 18 22  2  0
 21 23  2  0
 22 23  1  0
M  END
