PAU-UNI-b6a619a1-1-acrylamide
     RDKit          3D

 31 34  0  0  0  0  0  0  0  0999 V2000
    8.6330   -3.9330   20.2020 C   0  0  0  0  0  0  0  0  0  0  0  0
    7.3690   -3.2460   19.7050 C   0  0  0  0  0  0  0  0  0  0  0  0
    6.2180   -3.9520   20.3730 C   0  0  0  0  0  0  0  0  0  0  0  0
    5.1550   -4.2810   19.8290 O   0  0  0  0  0  0  0  0  0  0  0  0
    6.4210   -4.2870   21.6850 N   0  0  0  0  0  0  0  0  0  0  0  0
    5.7170   -5.2870   22.3110 C   0  0  0  0  0  0  0  0  0  0  0  0
    7.4710   -3.6110   22.4550 C   0  0  0  0  0  0  0  0  0  0  0  0
    6.4820   -6.1440   23.3320 C   0  0  0  0  0  0  0  0  0  0  0  0
    8.2840   -4.6120   23.3030 C   0  0  2  0  0  0  0  0  0  0  0  0
    7.3100   -5.2420   24.2760 C   0  0  0  0  0  0  0  0  0  0  0  0
    9.5040   -3.8980   23.9180 C   0  0  0  0  0  0  0  0  0  0  0  0
   10.5070   -4.4510   24.5930 N   0  0  0  0  0  0  0  0  0  0  0  0
    9.6390   -2.5480   23.7470 N   0  0  0  0  0  0  0  0  0  0  0  0
   11.4320   -3.4270   24.8250 C   0  0  0  0  0  0  0  0  0  0  0  0
   10.9180   -2.2840   24.3240 C   0  0  0  0  0  0  0  0  0  0  0  0
    8.8470   -1.5280   23.1530 C   0  0  0  0  0  0  0  0  0  0  0  0
   12.6730   -3.4260   25.4240 C   0  0  0  0  0  0  0  0  0  0  0  0
   11.5820   -1.0790   24.3800 C   0  0  0  0  0  0  0  0  0  0  0  0
    9.7020   -0.4310   22.6170 C   0  0  0  0  0  0  0  0  0  0  0  0
   13.4210   -2.1890   25.4850 C   0  0  0  0  0  0  0  0  0  0  0  0
   12.8230   -1.0180   24.9440 C   0  0  0  0  0  0  0  0  0  0  0  0
    8.8980    0.3190   21.6070 C   0  0  0  0  0  0  0  0  0  0  0  0
    8.9250    1.7340   21.6410 C   0  0  0  0  0  0  0  0  0  0  0  0
    8.1890   -0.4140   20.7390 N   0  0  0  0  0  0  0  0  0  0  0  0
    6.9940    0.0760   20.1150 C   0  0  0  0  0  0  0  0  0  0  0  0
    6.8710    0.1900   18.7430 C   0  0  0  0  0  0  0  0  0  0  0  0
    5.7810    0.5210   20.6300 C   0  0  0  0  0  0  0  0  0  0  0  0
    6.2860    0.4670   17.8200 N   0  0  0  0  0  0  0  0  0  0  0  0
    4.7970    0.9560   19.7190 C   0  0  0  0  0  0  0  0  0  0  0  0
    5.2020    0.6780   21.8840 C   0  0  0  0  0  0  0  0  0  0  0  0
    5.0280    0.9420   18.3140 C   0  0  0  0  0  0  0  0  0  0  0  0
  1  2  1  0
  2  3  1  0
  3  4  2  0
  3  5  1  0
  5  6  1  0
  5  7  1  0
  6  8  1  0
  7  9  1  0
  8 10  1  0
  9 10  1  0
  9 11  1  1
 11 12  2  0
 11 13  1  0
 12 14  1  0
 13 15  1  0
 14 15  2  0
 13 16  1  0
 14 17  1  0
 15 18  1  0
 16 19  1  0
 17 20  2  0
 18 21  2  0
 20 21  1  0
 19 22  1  0
 22 23  2  3
 22 24  1  0
 24 25  1  0
 25 26  2  0
 25 27  1  0
 26 28  1  0
 27 29  2  0
 27 30  1  0
 28 31  2  0
 29 31  1  0
M  END
