PAU-WEI-f734c343-2-nitrile
     RDKit          3D

 33 36  0  0  0  0  0  0  0  0999 V2000
    6.8390   -3.2910   19.4460 C   0  0  0  0  0  0  0  0  0  0  0  0
    6.0390   -2.9930   18.5070 N   0  0  0  0  0  0  0  0  0  0  0  0
    6.7290   -2.7670   20.7090 N   0  0  0  0  0  0  0  0  0  0  0  0
    6.3310   -3.5670   21.8330 C   0  0  0  0  0  0  0  0  0  0  0  0
    7.4710   -1.5550   21.0490 C   0  0  0  0  0  0  0  0  0  0  0  0
    7.5200   -3.8070   22.7760 C   0  0  0  0  0  0  0  0  0  0  0  0
    8.6530   -1.9100   21.9480 C   0  0  0  0  0  0  0  0  0  0  0  0
    8.3270   -2.6020   23.0840 N   0  0  0  0  0  0  0  0  0  0  0  0
    9.4640   -2.7640   23.8430 C   0  0  2  0  0  0  0  0  0  0  0  0
    9.1410   -3.7260   25.0000 C   0  0  0  0  0  0  0  0  0  0  0  0
   10.3260   -1.5910   23.7400 C   0  0  0  0  0  0  0  0  0  0  0  0
    9.8050   -5.0510   25.2850 C   0  0  0  0  0  0  0  0  0  0  0  0
    7.8790   -3.5060   26.2070 S   0  0  0  0  0  0  0  0  0  0  0  0
   11.3790   -1.8650   22.8600 C   0  0  0  0  0  0  0  0  0  0  0  0
   10.2820   -0.2640   24.3410 C   0  0  0  0  0  0  0  0  0  0  0  0
    9.2300   -5.7650   26.4300 C   0  0  0  0  0  0  0  0  0  0  0  0
    8.1380   -5.0140   27.0320 C   0  0  0  0  0  0  0  0  0  0  0  0
   12.3610   -0.9590   22.5500 C   0  0  0  0  0  0  0  0  0  0  0  0
   11.3310    0.8460   24.0620 C   0  0  0  0  0  0  0  0  0  0  0  0
    9.2320    0.2400   25.3090 C   0  0  0  0  0  0  0  0  0  0  0  0
    7.1870   -5.7510   28.5480 Br  0  0  0  0  0  0  0  0  0  0  0  0
   13.4340   -1.2630   21.6480 C   0  0  0  0  0  0  0  0  0  0  0  0
   12.4270    0.4330   23.1040 C   0  0  0  0  0  0  0  0  0  0  0  0
    7.9450    0.3240   24.9460 N   0  0  0  0  0  0  0  0  0  0  0  0
   13.3590   -2.2960   20.8300 N   0  0  0  0  0  0  0  0  0  0  0  0
    7.5750    1.3580   24.1540 C   0  0  0  0  0  0  0  0  0  0  0  0
    8.2570    2.3030   23.7550 O   0  0  0  0  0  0  0  0  0  0  0  0
    6.1960    1.1050   23.8770 N   0  0  0  0  0  0  0  0  0  0  0  0
    5.3480    0.9460   25.0590 C   0  0  0  0  0  0  0  0  0  0  0  0
    5.5550    1.7500   22.7290 C   0  0  0  0  0  0  0  0  0  0  0  0
    3.9780    0.4330   24.6270 C   0  0  0  0  0  0  0  0  0  0  0  0
    4.1560    1.1370   22.5140 C   0  0  0  0  0  0  0  0  0  0  0  0
    3.4030    1.0420   23.7320 O   0  0  0  0  0  0  0  0  0  0  0  0
  1  2  2  3
  1  3  1  0
  3  4  1  0
  3  5  1  0
  4  6  1  0
  5  7  1  0
  6  8  1  0
  7  8  1  0
  8  9  1  0
  9 10  1  1
  9 11  1  0
 10 12  2  0
 10 13  1  0
 11 14  2  0
 11 15  1  0
 12 16  1  0
 13 17  1  0
 16 17  2  0
 14 18  1  0
 15 19  2  0
 15 20  1  0
 17 21  1  0
 18 22  1  0
 18 23  2  0
 19 23  1  0
 20 24  1  0
 22 25  3  0
 24 26  1  0
 26 27  2  0
 26 28  1  0
 28 29  1  0
 28 30  1  0
 29 31  1  0
 30 32  1  0
 31 33  1  0
 32 33  1  0
M  END
