PAU-WEI-f734c343-1-acrylamide
     RDKit          3D

 32 35  0  0  0  0  0  0  0  0999 V2000
    8.1410   -3.8390   20.0680 C   0  0  0  0  0  0  0  0  0  0  0  0
    7.3050   -2.8370   19.3200 C   0  0  0  0  0  0  0  0  0  0  0  0
    6.0070   -2.8550   20.0950 C   0  0  0  0  0  0  0  0  0  0  0  0
    4.9980   -3.5860   19.8010 O   0  0  0  0  0  0  0  0  0  0  0  0
    6.0800   -2.0090   21.1940 N   0  0  0  0  0  0  0  0  0  0  0  0
    5.8300   -2.6070   22.4760 C   0  0  0  0  0  0  0  0  0  0  0  0
    7.1610   -0.9990   21.2340 C   0  0  0  0  0  0  0  0  0  0  0  0
    7.1080   -3.0600   23.1550 C   0  0  0  0  0  0  0  0  0  0  0  0
    8.3180   -1.4260   21.8010 C   0  0  0  0  0  0  0  0  0  0  0  0
    8.1830   -2.0550   23.1490 N   0  0  0  0  0  0  0  0  0  0  0  0
    9.4260   -2.4750   23.6190 C   0  0  2  0  0  0  0  0  0  0  0  0
    9.2110   -3.5260   24.7600 C   0  0  0  0  0  0  0  0  0  0  0  0
   10.4750   -1.4890   23.3540 C   0  0  0  0  0  0  0  0  0  0  0  0
    9.8670   -4.8410   24.9310 C   0  0  0  0  0  0  0  0  0  0  0  0
    8.0590   -3.2970   26.0230 S   0  0  0  0  0  0  0  0  0  0  0  0
   11.7130   -2.0740   22.7920 C   0  0  0  0  0  0  0  0  0  0  0  0
   10.5270   -0.0140   23.4940 C   0  0  0  0  0  0  0  0  0  0  0  0
    9.4110   -5.5660   26.0290 C   0  0  0  0  0  0  0  0  0  0  0  0
    8.4190   -4.9090   26.7510 C   0  0  0  0  0  0  0  0  0  0  0  0
   12.8160   -1.3110   22.4270 C   0  0  0  0  0  0  0  0  0  0  0  0
   11.6510    0.7250   23.0860 C   0  0  0  0  0  0  0  0  0  0  0  0
    9.6520    0.9840   23.9680 N   0  0  0  0  0  0  0  0  0  0  0  0
    7.5380   -5.5940   28.2950 Br  0  0  0  0  0  0  0  0  0  0  0  0
   12.8820    0.0470   22.5310 C   0  0  0  0  0  0  0  0  0  0  0  0
   11.4120    2.2100   23.2720 C   0  0  0  0  0  0  0  0  0  0  0  0
   10.1680    2.2890   23.8380 C   0  0  0  0  0  0  0  0  0  0  0  0
   12.4690    3.2660   22.8220 C   0  0  0  0  0  0  0  0  0  0  0  0
   12.1670    4.6470   23.4500 C   0  0  0  0  0  0  0  0  0  0  0  0
   11.1670    5.4280   22.6850 N   0  0  0  0  0  0  0  0  0  0  0  0
   10.1920    6.1080   23.3700 C   0  0  0  0  0  0  0  0  0  0  0  0
    9.0540    6.6060   22.4990 C   0  0  0  0  0  0  0  0  0  0  0  0
   10.2210    6.3020   24.5800 O   0  0  0  0  0  0  0  0  0  0  0  0
  1  2  1  0
  2  3  1  0
  3  4  2  0
  3  5  1  0
  5  6  1  0
  5  7  1  0
  6  8  1  0
  7  9  1  0
  8 10  1  0
  9 10  1  0
 10 11  1  0
 11 12  1  1
 11 13  1  0
 12 14  2  0
 12 15  1  0
 13 16  2  0
 13 17  1  0
 14 18  1  0
 15 19  1  0
 18 19  2  0
 16 20  1  0
 17 21  2  0
 17 22  1  0
 19 23  1  0
 20 24  2  0
 21 24  1  0
 21 25  1  0
 22 26  1  0
 25 26  2  0
 25 27  1  0
 27 28  1  0
 28 29  1  0
 29 30  1  0
 30 31  1  0
 30 32  2  0
M  END
