PAU-WEI-f734c343-2-bromoalkyne
     RDKit          3D

 33 36  0  0  0  0  0  0  0  0999 V2000
    6.9270   -3.3200   19.5740 C   0  0  0  0  0  0  0  0  0  0  0  0
    5.9440   -2.8060   18.6040 C   0  0  0  0  0  0  0  0  0  0  0  0
    6.8710   -2.9390   20.8890 N   0  0  0  0  0  0  0  0  0  0  0  0
    6.3840   -3.7220   21.9730 C   0  0  0  0  0  0  0  0  0  0  0  0
    7.4810   -1.6830   21.2960 C   0  0  0  0  0  0  0  0  0  0  0  0
    7.4500   -3.8370   23.0660 C   0  0  0  0  0  0  0  0  0  0  0  0
    8.5760   -1.9190   22.0040 C   0  0  0  0  0  0  0  0  0  0  0  0
    8.3470   -2.6660   23.2620 N   0  0  0  0  0  0  0  0  0  0  0  0
    9.6130   -2.9170   23.8510 C   0  0  2  0  0  0  0  0  0  0  0  0
    9.3140   -3.8070   25.0630 C   0  0  0  0  0  0  0  0  0  0  0  0
   10.4000   -1.7180   23.7600 C   0  0  0  0  0  0  0  0  0  0  0  0
   10.0390   -5.0000   25.5630 C   0  0  0  0  0  0  0  0  0  0  0  0
    7.9460   -3.5930   26.0870 S   0  0  0  0  0  0  0  0  0  0  0  0
   11.5180   -1.9890   23.0030 C   0  0  0  0  0  0  0  0  0  0  0  0
   10.2490   -0.3800   24.2330 C   0  0  0  0  0  0  0  0  0  0  0  0
    9.4430   -5.6580   26.7040 C   0  0  0  0  0  0  0  0  0  0  0  0
    8.2800   -4.9830   27.0850 C   0  0  0  0  0  0  0  0  0  0  0  0
   12.5050   -0.9840   22.6940 C   0  0  0  0  0  0  0  0  0  0  0  0
   11.1540    0.5940   23.9830 C   0  0  0  0  0  0  0  0  0  0  0  0
    9.0920    0.2020   25.0430 C   0  0  0  0  0  0  0  0  0  0  0  0
    7.1570   -5.5200   28.5250 Br  0  0  0  0  0  0  0  0  0  0  0  0
   13.5640   -1.3140   21.9310 C   0  0  0  0  0  0  0  0  0  0  0  0
   12.3730    0.2740   23.1540 C   0  0  0  0  0  0  0  0  0  0  0  0
    8.1330    0.8140   25.2780 N   0  0  0  0  0  0  0  0  0  0  0  0
   13.2850   -2.0860   20.8460 N   0  0  0  0  0  0  0  0  0  0  0  0
    7.5210    1.5220   24.2630 C   0  0  0  0  0  0  0  0  0  0  0  0
    8.1090    2.3990   23.6320 O   0  0  0  0  0  0  0  0  0  0  0  0
    6.2390    1.2010   23.9890 N   0  0  0  0  0  0  0  0  0  0  0  0
    5.3600    0.9520   25.1330 C   0  0  0  0  0  0  0  0  0  0  0  0
    5.5620    1.7010   22.7840 C   0  0  0  0  0  0  0  0  0  0  0  0
    4.0460    0.2610   24.7980 C   0  0  0  0  0  0  0  0  0  0  0  0
    4.2090    1.0370   22.5510 C   0  0  0  0  0  0  0  0  0  0  0  0
    3.4230    1.0060   23.7460 O   0  0  0  0  0  0  0  0  0  0  0  0
  1  2  2  3
  1  3  1  0
  3  4  1  0
  3  5  1  0
  4  6  1  0
  5  7  1  0
  6  8  1  0
  7  8  1  0
  8  9  1  0
  9 10  1  1
  9 11  1  0
 10 12  2  0
 10 13  1  0
 11 14  2  0
 11 15  1  0
 12 16  1  0
 13 17  1  0
 16 17  2  0
 14 18  1  0
 15 19  2  0
 15 20  1  0
 17 21  1  0
 18 22  1  0
 18 23  2  0
 19 23  1  0
 20 24  1  0
 22 25  3  0
 24 26  1  0
 26 27  2  0
 26 28  1  0
 28 29  1  0
 28 30  1  0
 29 31  1  0
 30 32  1  0
 31 33  1  0
 32 33  1  0
M  END
