PAU-WEI-b9b69149-7-chloroacetamide
     RDKit          3D

 33 36  0  0  0  0  0  0  0  0999 V2000
    7.1510   -3.4310   19.4580 C   0  0  0  0  0  0  0  0  0  0  0  0
    5.7660   -3.1410   19.9010 C   0  0  0  0  0  0  0  0  0  0  0  0
    4.8610   -3.7550   19.3610 O   0  0  0  0  0  0  0  0  0  0  0  0
    5.5620   -2.2610   20.9120 N   0  0  0  0  0  0  0  0  0  0  0  0
    5.1390   -2.6660   22.2600 C   0  0  0  0  0  0  0  0  0  0  0  0
    6.4420   -1.0850   20.8750 C   0  0  0  0  0  0  0  0  0  0  0  0
    6.4540   -3.2920   22.7980 C   0  0  0  0  0  0  0  0  0  0  0  0
    7.6780   -1.3540   21.7360 C   0  0  0  0  0  0  0  0  0  0  0  0
    7.2770   -2.0840   22.9450 N   0  0  0  0  0  0  0  0  0  0  0  0
    8.0400   -1.9620   24.1590 C   0  0  2  0  0  0  0  0  0  0  0  0
    7.1890   -1.1760   25.1650 C   0  0  0  0  0  0  0  0  0  0  0  0
    9.2920   -1.1720   23.8790 C   0  0  0  0  0  0  0  0  0  0  0  0
    6.2600   -2.3070   25.6760 C   0  0  0  0  0  0  0  0  0  0  0  0
    9.5480    0.1640   24.5840 C   0  0  0  0  0  0  0  0  0  0  0  0
   10.2720   -1.6020   22.9840 C   0  0  0  0  0  0  0  0  0  0  0  0
    7.2960   -3.2590   26.3290 C   0  0  0  0  0  0  0  0  0  0  0  0
   10.8110    0.9780   24.3280 C   0  0  0  0  0  0  0  0  0  0  0  0
   11.3860   -0.8850   22.8060 C   0  0  0  0  0  0  0  0  0  0  0  0
   10.4290   -2.6910   22.1340 N   0  0  0  0  0  0  0  0  0  0  0  0
    8.7590   -3.6170   25.9090 C   0  0  0  0  0  0  0  0  0  0  0  0
    7.0110   -4.0930   27.6470 C   0  0  0  0  0  0  0  0  0  0  0  0
   11.7160    0.4430   23.4620 C   0  0  0  0  0  0  0  0  0  0  0  0
   12.2400   -1.5440   21.9160 C   0  0  0  0  0  0  0  0  0  0  0  0
   11.6490   -2.6420   21.4720 C   0  0  0  0  0  0  0  0  0  0  0  0
    9.6240   -4.5900   26.7050 C   0  0  0  0  0  0  0  0  0  0  0  0
    7.8960   -4.9600   28.2810 C   0  0  0  0  0  0  0  0  0  0  0  0
   13.4170   -0.9660   21.7290 C   0  0  0  0  0  0  0  0  0  0  0  0
    9.1860   -5.2160   27.8350 C   0  0  0  0  0  0  0  0  0  0  0  0
   13.3810    0.0130   22.6850 C   0  0  0  0  0  0  0  0  0  0  0  0
   13.5240   -0.6830   24.0150 N   0  0  0  0  0  0  0  0  0  0  0  0
   12.5990   -1.4370   24.7050 C   0  0  0  0  0  0  0  0  0  0  0  0
   13.1610   -2.8210   25.0760 C   0  0  0  0  0  0  0  0  0  0  0  0
   11.4760   -1.0840   25.0310 O   0  0  0  0  0  0  0  0  0  0  0  0
  1  2  1  0
  2  3  2  0
  2  4  1  0
  4  5  1  0
  4  6  1  0
  5  7  1  0
  6  8  1  0
  7  9  1  0
  8  9  1  0
  9 10  1  0
 10 11  1  1
 10 12  1  0
 11 13  1  0
 12 14  2  0
 12 15  1  0
 13 16  1  0
 14 17  1  0
 15 18  2  0
 15 19  1  0
 16 20  2  0
 16 21  1  0
 17 22  2  0
 18 22  1  0
 18 23  1  0
 19 24  1  0
 23 24  2  0
 20 25  1  0
 21 26  2  0
 23 27  1  0
 25 28  2  0
 26 28  1  0
 27 29  1  0
 29 30  1  0
 30 31  1  0
 31 32  1  0
 31 33  2  0
M  END
