PAU-WEI-b9b69149-8-bromoalkyne
     RDKit          3D

 33 36  0  0  0  0  0  0  0  0999 V2000
    6.5660   -3.5570   19.6530 C   0  0  0  0  0  0  0  0  0  0  0  0
    5.8980   -2.8200   18.5670 C   0  0  0  0  0  0  0  0  0  0  0  0
    6.2110   -3.1760   20.9070 N   0  0  0  0  0  0  0  0  0  0  0  0
    6.2010   -1.7500   21.2700 C   0  0  0  0  0  0  0  0  0  0  0  0
    5.7860   -4.0680   21.9770 C   0  0  0  0  0  0  0  0  0  0  0  0
    7.5640   -1.6220   22.0080 C   0  0  0  0  0  0  0  0  0  0  0  0
    6.2530   -3.3760   23.2440 C   0  0  0  0  0  0  0  0  0  0  0  0
    7.5570   -2.7960   22.9090 N   0  0  0  0  0  0  0  0  0  0  0  0
    8.4680   -2.7350   24.0230 C   0  0  1  0  0  0  0  0  0  0  0  0
    9.2030   -4.0790   24.1180 C   0  0  0  0  0  0  0  0  0  0  0  0
    9.4470   -1.7740   23.9170 C   0  0  0  0  0  0  0  0  0  0  0  0
    8.0830   -5.1060   23.8530 C   0  0  0  0  0  0  0  0  0  0  0  0
    9.3140   -0.6180   24.8960 C   0  0  0  0  0  0  0  0  0  0  0  0
   10.5040   -1.8110   23.0060 C   0  0  0  0  0  0  0  0  0  0  0  0
    7.7070   -5.3800   25.3180 C   0  0  0  0  0  0  0  0  0  0  0  0
   10.2880    0.3640   24.8570 C   0  0  0  0  0  0  0  0  0  0  0  0
   11.4280   -0.8440   23.0410 C   0  0  0  0  0  0  0  0  0  0  0  0
   10.8880   -2.6810   21.9750 N   0  0  0  0  0  0  0  0  0  0  0  0
    8.6440   -5.7630   26.4740 C   0  0  0  0  0  0  0  0  0  0  0  0
    6.3470   -5.2840   25.6960 C   0  0  0  0  0  0  0  0  0  0  0  0
   11.3460    0.3180   24.0010 C   0  0  0  0  0  0  0  0  0  0  0  0
   12.3470   -1.1700   22.0980 C   0  0  0  0  0  0  0  0  0  0  0  0
   12.0740   -2.2430   21.3950 C   0  0  0  0  0  0  0  0  0  0  0  0
    8.0380   -5.9890   27.8380 C   0  0  0  0  0  0  0  0  0  0  0  0
    5.8730   -5.5150   26.9970 C   0  0  0  0  0  0  0  0  0  0  0  0
   13.4020   -0.4200   22.0040 C   0  0  0  0  0  0  0  0  0  0  0  0
    6.6870   -5.8660   28.0770 C   0  0  0  0  0  0  0  0  0  0  0  0
   13.2340    0.5660   23.0400 C   0  0  0  0  0  0  0  0  0  0  0  0
    6.1190   -6.1000   29.4240 C   0  0  0  0  0  0  0  0  0  0  0  0
   13.1160   -0.3190   24.2550 N   0  0  0  0  0  0  0  0  0  0  0  0
   13.3810   -1.7950   24.1500 C   0  0  0  0  0  0  0  0  0  0  0  0
   13.4040   -2.5920   25.4370 C   0  0  0  0  0  0  0  0  0  0  0  0
   13.5750   -2.3820   23.1010 O   0  0  0  0  0  0  0  0  0  0  0  0
  1  2  2  3
  1  3  1  0
  3  4  1  0
  3  5  1  0
  4  6  1  0
  5  7  1  0
  6  8  1  0
  7  8  1  0
  8  9  1  0
  9 10  1  6
  9 11  1  0
 10 12  1  0
 11 13  2  0
 11 14  1  0
 12 15  1  0
 13 16  1  0
 14 17  2  0
 14 18  1  0
 15 19  2  0
 15 20  1  0
 16 21  2  0
 17 21  1  0
 17 22  1  0
 18 23  1  0
 22 23  2  0
 19 24  1  0
 20 25  2  0
 22 26  1  0
 24 27  2  0
 25 27  1  0
 26 28  1  0
 27 29  1  0
 28 30  1  0
 30 31  1  0
 31 32  1  0
 31 33  2  0
M  END
