PAU-WEI-b9b69149-2-chloroacetamide
     RDKit          3D

 29 31  0  0  0  0  0  0  0  0999 V2000
    7.1420   -2.9700   18.8110 C   0  0  0  0  0  0  0  0  0  0  0  0
    6.2330   -3.3420   19.9490 C   0  0  0  0  0  0  0  0  0  0  0  0
    5.3730   -4.2170   19.7810 O   0  0  0  0  0  0  0  0  0  0  0  0
    6.4000   -2.7050   21.1590 N   0  0  0  0  0  0  0  0  0  0  0  0
    7.0600   -1.4060   21.3670 C   0  0  0  0  0  0  0  0  0  0  0  0
    6.0630   -3.3540   22.4270 C   0  0  0  0  0  0  0  0  0  0  0  0
    8.4650   -1.8080   21.9330 C   0  0  0  0  0  0  0  0  0  0  0  0
    7.3180   -3.5890   23.2750 C   0  0  0  0  0  0  0  0  0  0  0  0
    8.2430   -2.4390   23.2730 N   0  0  0  0  0  0  0  0  0  0  0  0
    9.5200   -2.6490   23.9850 C   0  0  2  0  0  0  0  0  0  0  0  0
    9.2560   -2.7270   25.4650 C   0  0  0  0  0  0  0  0  0  0  0  0
   10.5380   -1.7340   23.7100 C   0  0  0  0  0  0  0  0  0  0  0  0
    8.9960   -4.2480   25.6200 C   0  0  0  0  0  0  0  0  0  0  0  0
   10.6600   -0.4450   24.5240 C   0  0  0  0  0  0  0  0  0  0  0  0
   11.3880   -2.0480   22.6990 C   0  0  0  0  0  0  0  0  0  0  0  0
    7.8970   -4.1750   26.7050 C   0  0  0  0  0  0  0  0  0  0  0  0
   11.7200    0.3930   24.1430 C   0  0  0  0  0  0  0  0  0  0  0  0
   12.5140   -1.1420   22.3110 C   0  0  0  0  0  0  0  0  0  0  0  0
    7.7300   -5.0280   27.9810 C   0  0  0  0  0  0  0  0  0  0  0  0
    6.8770   -3.2050   26.5480 C   0  0  0  0  0  0  0  0  0  0  0  0
   12.6170    0.1380   23.1350 C   0  0  0  0  0  0  0  0  0  0  0  0
   13.5030   -1.6080   21.0440 Cl  0  0  0  0  0  0  0  0  0  0  0  0
    6.5450   -4.7560   28.9000 C   0  0  0  0  0  0  0  0  0  0  0  0
    5.8270   -3.0360   27.4600 C   0  0  0  0  0  0  0  0  0  0  0  0
    5.6160   -3.7670   28.6260 C   0  0  0  0  0  0  0  0  0  0  0  0
    4.4570   -3.4960   29.5160 C   0  0  0  0  0  0  0  0  0  0  0  0
    4.5600   -2.4960   30.4010 F   0  0  0  0  0  0  0  0  0  0  0  0
    4.0960   -4.5860   30.2490 F   0  0  0  0  0  0  0  0  0  0  0  0
    3.3440   -3.1590   28.7980 F   0  0  0  0  0  0  0  0  0  0  0  0
  1  2  1  0
  2  3  2  0
  2  4  1  0
  4  5  1  0
  4  6  1  0
  5  7  1  0
  6  8  1  0
  7  9  1  0
  8  9  1  0
  9 10  1  0
 10 11  1  1
 10 12  1  0
 11 13  1  0
 12 14  2  0
 12 15  1  0
 13 16  1  0
 14 17  1  0
 15 18  2  0
 16 19  2  0
 16 20  1  0
 17 21  2  0
 18 21  1  0
 18 22  1  0
 19 23  1  0
 20 24  2  0
 23 25  2  0
 24 25  1  0
 25 26  1  0
 26 27  1  0
 26 28  1  0
 26 29  1  0
M  END
