PAU-UNI-b6a619a1-1-nitrile
     RDKit          3D

 29 32  0  0  0  0  0  0  0  0999 V2000
    7.1910   -4.0360   20.2000 C   0  0  0  0  0  0  0  0  0  0  0  0
    6.0710   -3.7970   19.6270 N   0  0  0  0  0  0  0  0  0  0  0  0
    7.0600   -4.4530   21.5120 N   0  0  0  0  0  0  0  0  0  0  0  0
    5.9860   -5.1440   22.0230 C   0  0  0  0  0  0  0  0  0  0  0  0
    8.3060   -4.8990   22.1460 C   0  0  0  0  0  0  0  0  0  0  0  0
    6.0640   -5.3680   23.5300 C   0  0  0  0  0  0  0  0  0  0  0  0
    8.3860   -4.9840   23.6520 C   0  0  2  0  0  0  0  0  0  0  0  0
    7.2120   -4.6950   24.2600 C   0  0  0  0  0  0  0  0  0  0  0  0
    9.5710   -4.0980   24.0060 C   0  0  0  0  0  0  0  0  0  0  0  0
   10.4700   -4.3580   24.9120 N   0  0  0  0  0  0  0  0  0  0  0  0
    9.9130   -2.9170   23.4010 N   0  0  0  0  0  0  0  0  0  0  0  0
   11.3780   -3.3850   24.8490 C   0  0  0  0  0  0  0  0  0  0  0  0
   11.1200   -2.4270   23.9470 C   0  0  0  0  0  0  0  0  0  0  0  0
    9.2610   -2.1830   22.3340 C   0  0  0  0  0  0  0  0  0  0  0  0
   12.6120   -3.3380   25.6940 C   0  0  0  0  0  0  0  0  0  0  0  0
   11.9380   -1.3570   23.7570 C   0  0  0  0  0  0  0  0  0  0  0  0
    9.6620   -0.8450   22.3910 C   0  0  0  0  0  0  0  0  0  0  0  0
   13.4500   -2.1340   25.4080 C   0  0  0  0  0  0  0  0  0  0  0  0
   13.0700   -1.2280   24.4780 C   0  0  0  0  0  0  0  0  0  0  0  0
    8.8250    0.0330   21.7080 C   0  0  0  0  0  0  0  0  0  0  0  0
    9.0170    1.5340   21.7060 C   0  0  0  0  0  0  0  0  0  0  0  0
    7.8490   -0.6550   21.0730 N   0  0  0  0  0  0  0  0  0  0  0  0
    6.8840   -0.0380   20.1520 C   0  0  0  0  0  0  0  0  0  0  0  0
    7.1230   -0.2460   18.7710 C   0  0  0  0  0  0  0  0  0  0  0  0
    5.7880    0.7130   20.5710 C   0  0  0  0  0  0  0  0  0  0  0  0
    6.2100    0.3540   17.7900 N   0  0  0  0  0  0  0  0  0  0  0  0
    4.9490    1.2590   19.6010 C   0  0  0  0  0  0  0  0  0  0  0  0
    5.5210    0.9230   21.9200 C   0  0  0  0  0  0  0  0  0  0  0  0
    5.1820    1.0710   18.2580 C   0  0  0  0  0  0  0  0  0  0  0  0
  1  2  2  3
  1  3  1  0
  3  4  1  0
  3  5  1  0
  4  6  1  0
  5  7  1  0
  6  8  1  0
  7  8  1  0
  7  9  1  1
  9 10  2  0
  9 11  1  0
 10 12  1  0
 11 13  1  0
 12 13  2  0
 11 14  1  0
 12 15  1  0
 13 16  1  0
 14 17  1  0
 15 18  2  0
 16 19  2  0
 18 19  1  0
 17 20  1  0
 20 21  2  3
 20 22  1  0
 22 23  1  0
 23 24  2  0
 23 25  1  0
 24 26  1  0
 25 27  2  0
 25 28  1  0
 26 29  2  0
 27 29  1  0
M  END
