PAU-WEI-c6d65c11-1-bromoalkyne
     RDKit          3D

 24 26  0  0  0  0  0  0  0  0999 V2000
    6.7230   -3.9490   19.9560 C   0  0  0  0  0  0  0  0  0  0  0  0
    5.6030   -3.2720   19.2180 C   0  0  0  0  0  0  0  0  0  0  0  0
    6.7790   -4.0000   21.3440 N   0  0  0  0  0  0  0  0  0  0  0  0
    6.2870   -5.0700   22.1040 C   0  0  0  0  0  0  0  0  0  0  0  0
    6.8330   -2.7230   22.0220 C   0  0  0  0  0  0  0  0  0  0  0  0
    5.9390   -4.8540   23.4510 C   0  0  0  0  0  0  0  0  0  0  0  0
    7.3370   -2.7870   23.4650 C   0  0  1  0  0  0  0  0  0  0  0  0
    6.6750   -3.9520   24.2660 C   0  0  1  0  0  0  0  0  0  0  0  0
    8.7310   -2.7730   23.4560 C   0  0  0  0  0  0  0  0  0  0  0  0
    5.9650   -3.4260   25.3640 C   0  0  0  0  0  0  0  0  0  0  0  0
    9.3960   -2.1600   22.3730 C   0  0  0  0  0  0  0  0  0  0  0  0
    4.8470   -2.9500   25.1250 O   0  0  0  0  0  0  0  0  0  0  0  0
    6.4430   -3.4130   26.6660 N   0  0  0  0  0  0  0  0  0  0  0  0
   10.5560   -1.4300   22.5680 C   0  0  0  0  0  0  0  0  0  0  0  0
    7.8070   -3.8780   26.9000 C   0  0  0  0  0  0  0  0  0  0  0  0
    5.6400   -3.3140   27.8810 C   0  0  0  0  0  0  0  0  0  0  0  0
   11.7200   -1.8560   21.9500 C   0  0  0  0  0  0  0  0  0  0  0  0
   10.5780   -0.2760   23.3670 C   0  0  0  0  0  0  0  0  0  0  0  0
    7.8340   -5.2700   27.5090 C   0  0  0  0  0  0  0  0  0  0  0  0
    5.5410   -4.6700   28.5630 C   0  0  0  0  0  0  0  0  0  0  0  0
   12.9040   -1.1320   22.1290 C   0  0  0  0  0  0  0  0  0  0  0  0
   11.7590    0.4420   23.5400 C   0  0  0  0  0  0  0  0  0  0  0  0
    6.9010   -5.3520   28.7160 C   0  0  0  0  0  0  0  0  0  0  0  0
   12.9240    0.0120   22.9190 C   0  0  0  0  0  0  0  0  0  0  0  0
  1  2  2  3
  1  3  1  0
  3  4  1  0
  3  5  1  0
  4  6  1  0
  5  7  1  0
  6  8  1  0
  7  8  1  0
  7  9  1  6
  8 10  1  1
  9 11  1  0
 10 12  2  0
 10 13  1  0
 11 14  1  0
 13 15  1  0
 13 16  1  0
 14 17  2  0
 14 18  1  0
 15 19  1  0
 16 20  1  0
 17 21  1  0
 18 22  2  0
 19 23  1  0
 20 23  1  0
 21 24  2  0
 22 24  1  0
M  END
