PAU-WEI-b9b69149-9-vinylsulfonamide
     RDKit          3D

 39 42  0  0  0  0  0  0  0  0999 V2000
    7.6510   -2.9640   18.3080 C   0  0  0  0  0  0  0  0  0  0  0  0
    7.2030   -2.4390   19.6060 C   0  0  0  0  0  0  0  0  0  0  0  0
    6.3420   -3.6710   20.5380 S   0  0  0  0  0  0  0  0  0  0  0  0
    5.1330   -4.0750   19.8330 O   0  0  0  0  0  0  0  0  0  0  0  0
    7.2290   -4.6990   21.0760 O   0  0  0  0  0  0  0  0  0  0  0  0
    6.0130   -2.6920   21.8110 N   0  0  0  0  0  0  0  0  0  0  0  0
    5.9240   -3.2960   23.1340 C   0  0  0  0  0  0  0  0  0  0  0  0
    6.7860   -1.4310   21.8030 C   0  0  0  0  0  0  0  0  0  0  0  0
    7.3910   -3.7780   23.4160 C   0  0  0  0  0  0  0  0  0  0  0  0
    8.2370   -1.7380   22.2060 C   0  0  0  0  0  0  0  0  0  0  0  0
    8.2740   -2.5790   23.4190 N   0  0  0  0  0  0  0  0  0  0  0  0
    9.6260   -2.6900   24.0160 C   0  0  2  0  0  0  0  0  0  0  0  0
    9.4340   -2.9060   25.5110 C   0  0  0  0  0  0  0  0  0  0  0  0
   10.4210   -1.5680   23.8080 C   0  0  0  0  0  0  0  0  0  0  0  0
    9.2070   -4.4240   25.6810 C   0  0  0  0  0  0  0  0  0  0  0  0
    9.8910   -0.3990   24.6460 C   0  0  0  0  0  0  0  0  0  0  0  0
   11.5530   -1.3750   22.9770 C   0  0  0  0  0  0  0  0  0  0  0  0
    8.0790   -4.4620   26.7380 C   0  0  0  0  0  0  0  0  0  0  0  0
   10.5360    0.8250   24.5590 C   0  0  0  0  0  0  0  0  0  0  0  0
   12.1180   -0.1320   22.9660 C   0  0  0  0  0  0  0  0  0  0  0  0
   12.3250   -2.1410   22.0830 N   0  0  0  0  0  0  0  0  0  0  0  0
    7.8830   -5.4120   27.9340 C   0  0  0  0  0  0  0  0  0  0  0  0
    7.0380   -3.5050   26.6400 C   0  0  0  0  0  0  0  0  0  0  0  0
   11.6130    0.9990   23.7700 C   0  0  0  0  0  0  0  0  0  0  0  0
   13.1580   -0.1020   22.1280 C   0  0  0  0  0  0  0  0  0  0  0  0
   13.3290   -1.3450   21.5430 C   0  0  0  0  0  0  0  0  0  0  0  0
    6.6710   -5.2430   28.8260 C   0  0  0  0  0  0  0  0  0  0  0  0
    5.9440   -3.4230   27.5240 C   0  0  0  0  0  0  0  0  0  0  0  0
   13.8270    1.1250   21.9940 C   0  0  0  0  0  0  0  0  0  0  0  0
    5.7200   -4.2660   28.6210 C   0  0  0  0  0  0  0  0  0  0  0  0
   13.0910    2.4240   22.3200 C   0  0  0  0  0  0  0  0  0  0  0  0
    4.5280   -4.1110   29.4970 C   0  0  0  0  0  0  0  0  0  0  0  0
   13.7710    3.6590   21.8340 N   0  0  0  0  0  0  0  0  0  0  0  0
    4.4420   -3.0190   30.2690 F   0  0  0  0  0  0  0  0  0  0  0  0
    3.3740   -4.0950   28.7700 F   0  0  0  0  0  0  0  0  0  0  0  0
    4.3850   -5.1520   30.3680 F   0  0  0  0  0  0  0  0  0  0  0  0
   13.2020    4.9870   22.1480 C   0  0  0  0  0  0  0  0  0  0  0  0
   12.3740    5.0370   23.4340 C   0  0  0  0  0  0  0  0  0  0  0  0
   13.3490    5.9830   21.4650 O   0  0  0  0  0  0  0  0  0  0  0  0
  1  2  1  0
  3  2  1  0
  3  4  2  0
  3  5  2  0
  3  6  1  0
  6  7  1  0
  6  8  1  0
  7  9  1  0
  8 10  1  0
  9 11  1  0
 10 11  1  0
 11 12  1  0
 12 13  1  1
 12 14  1  0
 13 15  1  0
 14 16  2  0
 14 17  1  0
 15 18  1  0
 16 19  1  0
 17 20  2  0
 17 21  1  0
 18 22  2  0
 18 23  1  0
 19 24  2  0
 20 24  1  0
 20 25  1  0
 21 26  1  0
 25 26  2  0
 22 27  1  0
 23 28  2  0
 25 29  1  0
 27 30  2  0
 28 30  1  0
 29 31  1  0
 30 32  1  0
 31 33  1  0
 32 34  1  0
 32 35  1  0
 32 36  1  0
 33 37  1  0
 37 38  1  0
 37 39  2  0
M  END
