PAU-UNI-b33c5197-1-acrylamide
     RDKit          3D

 30 33  0  0  0  0  0  0  0  0999 V2000
    7.5070   -2.9420   18.5470 C   0  0  0  0  0  0  0  0  0  0  0  0
    6.8240   -2.6450   19.8550 C   0  0  0  0  0  0  0  0  0  0  0  0
    6.1630   -3.9020   20.3610 C   0  0  0  0  0  0  0  0  0  0  0  0
    5.1460   -4.3440   19.8190 O   0  0  0  0  0  0  0  0  0  0  0  0
    6.7690   -4.5350   21.4270 N   0  0  0  0  0  0  0  0  0  0  0  0
    6.0000   -5.5460   22.1000 C   0  0  0  0  0  0  0  0  0  0  0  0
    7.8010   -3.8170   22.1680 C   0  0  0  0  0  0  0  0  0  0  0  0
    6.6060   -6.1210   23.2210 C   0  0  0  0  0  0  0  0  0  0  0  0
    7.8950   -4.2020   23.6420 C   0  0  1  0  0  0  0  0  0  0  0  0
    7.8290   -5.5910   23.6860 C   0  0  0  0  0  0  0  0  0  0  0  0
    9.1360   -3.6910   23.9860 C   0  0  0  0  0  0  0  0  0  0  0  0
    9.6440   -2.5710   23.4310 N   0  0  0  0  0  0  0  0  0  0  0  0
   10.0530   -4.1870   24.8950 N   0  0  0  0  0  0  0  0  0  0  0  0
   10.9050   -2.3140   23.9370 C   0  0  0  0  0  0  0  0  0  0  0  0
   11.2360   -3.3030   24.8690 C   0  0  0  0  0  0  0  0  0  0  0  0
   10.0020   -5.3350   25.7490 C   0  0  0  0  0  0  0  0  0  0  0  0
   11.8220   -1.1860   23.5870 C   0  0  0  0  0  0  0  0  0  0  0  0
   12.4760   -3.2640   25.5110 C   0  0  0  0  0  0  0  0  0  0  0  0
    9.3250   -5.1940   27.0720 C   0  0  0  0  0  0  0  0  0  0  0  0
   13.1260   -1.2240   24.3220 C   0  0  0  0  0  0  0  0  0  0  0  0
   13.4050   -2.2390   25.2380 C   0  0  0  0  0  0  0  0  0  0  0  0
    8.1990   -4.3620   27.0260 C   0  0  0  0  0  0  0  0  0  0  0  0
    7.8660   -3.8980   25.9510 O   0  0  0  0  0  0  0  0  0  0  0  0
    7.4920   -4.0840   28.1810 N   0  0  0  0  0  0  0  0  0  0  0  0
    6.5880   -4.9050   28.7420 C   0  0  0  0  0  0  0  0  0  0  0  0
    6.7930   -6.3860   28.8890 C   0  0  0  0  0  0  0  0  0  0  0  0
    5.3850   -4.3590   29.2190 C   0  0  0  0  0  0  0  0  0  0  0  0
    5.6820   -7.1800   29.5440 C   0  0  0  0  0  0  0  0  0  0  0  0
    4.3580   -5.0310   29.8150 N   0  0  0  0  0  0  0  0  0  0  0  0
    4.4730   -6.3680   29.9810 C   0  0  0  0  0  0  0  0  0  0  0  0
  1  2  1  0
  2  3  1  0
  3  4  2  0
  3  5  1  0
  5  6  1  0
  5  7  1  0
  6  8  1  0
  7  9  1  0
  8 10  1  0
  9 10  1  0
  9 11  1  6
 11 12  2  0
 11 13  1  0
 12 14  1  0
 13 15  1  0
 14 15  2  0
 13 16  1  0
 14 17  1  0
 15 18  1  0
 16 19  1  0
 17 20  2  0
 18 21  2  0
 20 21  1  0
 19 22  1  0
 22 23  2  0
 22 24  1  0
 24 25  1  0
 25 26  2  0
 25 27  1  0
 26 28  1  0
 27 29  2  0
 28 30  2  0
 29 30  1  0
M  END
