PAU-WEI-b9b69149-6-bromoalkyne
     RDKit          3D

 26 28  0  0  0  0  0  0  0  0999 V2000
    7.0380   -3.5060   19.6740 C   0  0  0  0  0  0  0  0  0  0  0  0
    6.2410   -2.8290   18.5950 C   0  0  0  0  0  0  0  0  0  0  0  0
    6.8940   -2.9650   20.9070 N   0  0  0  0  0  0  0  0  0  0  0  0
    7.1950   -1.5680   21.1850 C   0  0  0  0  0  0  0  0  0  0  0  0
    6.4640   -3.6250   22.1220 C   0  0  0  0  0  0  0  0  0  0  0  0
    8.5850   -1.7460   21.8370 C   0  0  0  0  0  0  0  0  0  0  0  0
    6.9150   -2.7800   23.3220 C   0  0  0  0  0  0  0  0  0  0  0  0
    8.3200   -2.3290   23.1790 N   0  0  0  0  0  0  0  0  0  0  0  0
    8.8180   -1.4210   24.2030 C   0  0  1  0  0  0  0  0  0  0  0  0
    8.9950   -2.1230   25.5430 C   0  0  0  0  0  0  0  0  0  0  0  0
   10.0410   -0.8670   23.8020 C   0  0  0  0  0  0  0  0  0  0  0  0
    7.5690   -2.5150   25.9640 C   0  0  0  0  0  0  0  0  0  0  0  0
   10.3200    0.4430   24.4790 C   0  0  0  0  0  0  0  0  0  0  0  0
   10.9330   -1.4330   22.8730 C   0  0  0  0  0  0  0  0  0  0  0  0
    7.5840   -3.7570   25.0720 C   0  0  0  0  0  0  0  0  0  0  0  0
   11.5020    1.0760   24.1280 C   0  0  0  0  0  0  0  0  0  0  0  0
   12.1050   -0.7600   22.5800 C   0  0  0  0  0  0  0  0  0  0  0  0
    6.4180   -4.6260   24.5620 C   0  0  0  0  0  0  0  0  0  0  0  0
    8.8600   -4.1780   24.6260 C   0  0  0  0  0  0  0  0  0  0  0  0
   12.3900    0.5550   23.2430 C   0  0  0  0  0  0  0  0  0  0  0  0
   13.0130   -1.2690   21.6720 C   0  0  0  0  0  0  0  0  0  0  0  0
    6.7590   -5.7830   23.6540 C   0  0  0  0  0  0  0  0  0  0  0  0
    9.0800   -5.2630   23.7920 C   0  0  0  0  0  0  0  0  0  0  0  0
   13.8480   -1.6750   20.5990 N   0  0  0  0  0  0  0  0  0  0  0  0
    8.0570   -6.0580   23.3000 C   0  0  0  0  0  0  0  0  0  0  0  0
    8.3610   -7.1700   22.4220 C   0  0  0  0  0  0  0  0  0  0  0  0
  1  2  2  3
  1  3  1  0
  3  4  1  0
  3  5  1  0
  4  6  1  0
  5  7  1  0
  6  8  1  0
  7  8  1  0
  8  9  1  0
  9 10  1  1
  9 11  1  0
 10 12  1  0
 11 13  2  0
 11 14  1  0
 12 15  1  0
 13 16  1  0
 14 17  2  0
 15 18  2  0
 15 19  1  0
 16 20  2  0
 17 20  1  0
 17 21  1  0
 18 22  1  0
 19 23  2  0
 21 24  3  0
 22 25  2  0
 23 25  1  0
 25 26  1  0
M  END
