PAU-UNI-2d648ace-1-acrylamide
     RDKit          3D

 27 29  0  0  0  0  0  0  0  0999 V2000
    7.3720   -2.9310   18.7290 C   0  0  0  0  0  0  0  0  0  0  0  0
    6.6320   -2.5760   20.0010 C   0  0  0  0  0  0  0  0  0  0  0  0
    5.7000   -3.6860   20.4420 C   0  0  0  0  0  0  0  0  0  0  0  0
    5.0730   -4.4010   19.6790 O   0  0  0  0  0  0  0  0  0  0  0  0
    5.5830   -3.8790   21.7950 N   0  0  0  0  0  0  0  0  0  0  0  0
    6.5550   -4.7820   22.4340 C   0  0  0  0  0  0  0  0  0  0  0  0
    5.0940   -2.8530   22.6970 C   0  0  0  0  0  0  0  0  0  0  0  0
    7.6410   -4.0760   22.9570 C   0  0  0  0  0  0  0  0  0  0  0  0
    6.3400   -2.0810   23.0820 C   0  0  0  0  0  0  0  0  0  0  0  0
    7.3250   -2.9650   23.7340 N   0  0  0  0  0  0  0  0  0  0  0  0
    8.2230   -2.1540   24.4370 C   0  0  0  0  0  0  0  0  0  0  0  0
    8.6260   -0.8780   23.7400 C   0  0  0  0  0  0  0  0  0  0  0  0
    8.4320    0.2710   24.5300 C   0  0  0  0  0  0  0  0  0  0  0  0
    9.3350    1.2860   24.3360 N   0  0  0  0  0  0  0  0  0  0  0  0
    8.8770    2.4700   23.7270 C   0  0  0  0  0  0  0  0  0  0  0  0
   10.5690    0.8580   24.0650 C   0  0  0  0  0  0  0  0  0  0  0  0
    9.7040    3.0720   22.7710 C   0  0  0  0  0  0  0  0  0  0  0  0
   11.4330    1.7110   23.3640 C   0  0  0  0  0  0  0  0  0  0  0  0
   11.0000   -0.4250   24.4580 C   0  0  0  0  0  0  0  0  0  0  0  0
   11.0620    2.9630   22.9620 C   0  0  0  0  0  0  0  0  0  0  0  0
   12.8050    1.2530   23.0230 C   0  0  0  0  0  0  0  0  0  0  0  0
   12.2840   -0.9340   24.1610 C   0  0  0  0  0  0  0  0  0  0  0  0
   13.1540   -0.1260   23.4600 C   0  0  0  0  0  0  0  0  0  0  0  0
   12.8550   -2.5330   24.6140 S   0  0  0  0  0  0  0  0  0  0  0  0
   11.4260   -3.3530   24.9620 N   0  0  0  0  0  0  0  0  0  0  0  0
   13.3930   -3.0870   23.4030 O   0  0  0  0  0  0  0  0  0  0  0  0
   13.6720   -2.4740   25.8020 O   0  0  0  0  0  0  0  0  0  0  0  0
  1  2  1  0
  2  3  1  0
  3  4  2  0
  3  5  1  0
  5  6  1  0
  5  7  1  0
  6  8  1  0
  7  9  1  0
  8 10  1  0
  9 10  1  0
 10 11  1  0
 11 12  1  0
 12 13  1  0
 13 14  1  0
 14 15  1  0
 14 16  1  0
 15 17  1  0
 16 18  2  0
 16 19  1  0
 17 20  1  0
 18 20  1  0
 18 21  1  0
 19 22  2  0
 21 23  2  0
 22 23  1  0
 22 24  1  0
 24 25  1  0
 24 26  2  0
 24 27  2  0
M  END
