PAU-WEI-b9b69149-1-acrylamide
     RDKit          3D

 26 28  0  0  0  0  0  0  0  0999 V2000
    8.2630   -3.2310   19.0400 C   0  0  0  0  0  0  0  0  0  0  0  0
    6.7640   -3.1680   19.0440 C   0  0  0  0  0  0  0  0  0  0  0  0
    6.1060   -3.5740   20.2760 C   0  0  0  0  0  0  0  0  0  0  0  0
    5.2830   -4.4900   20.2330 O   0  0  0  0  0  0  0  0  0  0  0  0
    6.4710   -2.8230   21.3750 N   0  0  0  0  0  0  0  0  0  0  0  0
    6.3440   -3.2850   22.7350 C   0  0  0  0  0  0  0  0  0  0  0  0
    7.5200   -1.7730   21.2340 C   0  0  0  0  0  0  0  0  0  0  0  0
    7.6900   -4.0360   22.8570 C   0  0  0  0  0  0  0  0  0  0  0  0
    8.8930   -2.1230   21.8790 C   0  0  0  0  0  0  0  0  0  0  0  0
    8.7880   -3.0270   23.0430 N   0  0  0  0  0  0  0  0  0  0  0  0
    9.9060   -3.6820   23.5850 C   0  0  1  0  0  0  0  0  0  0  0  0
   11.3610   -3.0940   23.8410 C   0  0  0  0  0  0  0  0  0  0  0  0
    9.2820   -4.2530   24.8740 C   0  0  0  0  0  0  0  0  0  0  0  0
   12.0400   -2.3630   22.6030 C   0  0  0  0  0  0  0  0  0  0  0  0
    9.7730   -5.5590   25.4200 C   0  0  0  0  0  0  0  0  0  0  0  0
    8.2470   -3.5960   25.5650 C   0  0  0  0  0  0  0  0  0  0  0  0
   11.9050   -0.9500   22.9630 C   0  0  0  0  0  0  0  0  0  0  0  0
    9.2040   -6.0610   26.5740 C   0  0  0  0  0  0  0  0  0  0  0  0
    7.5790   -4.1200   26.8520 C   0  0  0  0  0  0  0  0  0  0  0  0
   12.7420    0.3110   22.9630 C   0  0  0  0  0  0  0  0  0  0  0  0
   10.4890   -0.7930   23.5150 C   0  0  0  0  0  0  0  0  0  0  0  0
    8.1990   -5.4480   27.2760 C   0  0  0  0  0  0  0  0  0  0  0  0
    6.3050   -3.3280   27.6990 Cl  0  0  0  0  0  0  0  0  0  0  0  0
   12.2020    1.4800   23.4490 C   0  0  0  0  0  0  0  0  0  0  0  0
   10.0290    0.3740   23.9690 C   0  0  0  0  0  0  0  0  0  0  0  0
   10.8100    1.4710   23.9620 C   0  0  0  0  0  0  0  0  0  0  0  0
  1  2  1  0
  2  3  1  0
  3  4  2  0
  3  5  1  0
  5  6  1  0
  5  7  1  0
  6  8  1  0
  7  9  1  0
  8 10  1  0
  9 10  1  0
 10 11  1  0
 11 12  1  1
 11 13  1  0
 12 14  1  0
 13 15  2  0
 13 16  1  0
 14 17  1  0
 15 18  1  0
 16 19  2  0
 17 20  2  0
 17 21  1  0
 18 22  2  0
 19 22  1  0
 19 23  1  0
 20 24  1  0
 21 25  2  0
 24 26  2  0
 25 26  1  0
M  END
