PAU-WEI-b9b69149-4-chloroacetamide
     RDKit          3D

 26 28  0  0  0  0  0  0  0  0999 V2000
    7.1480   -2.9760   18.7890 C   0  0  0  0  0  0  0  0  0  0  0  0
    6.2330   -3.3490   19.9220 C   0  0  0  0  0  0  0  0  0  0  0  0
    5.3540   -4.2010   19.7560 O   0  0  0  0  0  0  0  0  0  0  0  0
    6.4120   -2.7410   21.1350 N   0  0  0  0  0  0  0  0  0  0  0  0
    7.1120   -1.4650   21.3590 C   0  0  0  0  0  0  0  0  0  0  0  0
    6.1320   -3.4660   22.3750 C   0  0  0  0  0  0  0  0  0  0  0  0
    8.5420   -1.9020   21.8310 C   0  0  0  0  0  0  0  0  0  0  0  0
    7.4320   -3.8360   23.0910 C   0  0  0  0  0  0  0  0  0  0  0  0
    8.3470   -2.6830   23.0850 N   0  0  0  0  0  0  0  0  0  0  0  0
    9.0730   -2.2410   24.2760 C   0  0  2  0  0  0  0  0  0  0  0  0
    8.1360   -1.2470   24.9410 C   0  0  0  0  0  0  0  0  0  0  0  0
   10.2690   -1.4120   23.8770 C   0  0  0  0  0  0  0  0  0  0  0  0
    6.8910   -2.1260   25.2150 C   0  0  0  0  0  0  0  0  0  0  0  0
   10.5000   -0.0560   24.5320 C   0  0  0  0  0  0  0  0  0  0  0  0
   11.1520   -1.8490   22.9150 C   0  0  0  0  0  0  0  0  0  0  0  0
    7.5010   -3.2370   26.1040 C   0  0  0  0  0  0  0  0  0  0  0  0
   11.6760    0.8110   24.1240 C   0  0  0  0  0  0  0  0  0  0  0  0
   12.2100   -1.0370   22.5720 C   0  0  0  0  0  0  0  0  0  0  0  0
    7.0510   -3.6790   27.5230 C   0  0  0  0  0  0  0  0  0  0  0  0
    8.7390   -4.1660   25.7220 C   0  0  0  0  0  0  0  0  0  0  0  0
   12.4990    0.3140   23.1720 C   0  0  0  0  0  0  0  0  0  0  0  0
   13.1360   -1.3940   21.5780 C   0  0  0  0  0  0  0  0  0  0  0  0
    7.7540   -4.7950   28.2800 C   0  0  0  0  0  0  0  0  0  0  0  0
    9.2950   -5.1660   26.5150 C   0  0  0  0  0  0  0  0  0  0  0  0
   13.9630   -1.5660   20.4570 N   0  0  0  0  0  0  0  0  0  0  0  0
    8.8210   -5.4840   27.7770 C   0  0  0  0  0  0  0  0  0  0  0  0
  1  2  1  0
  2  3  2  0
  2  4  1  0
  4  5  1  0
  4  6  1  0
  5  7  1  0
  6  8  1  0
  7  9  1  0
  8  9  1  0
  9 10  1  0
 10 11  1  1
 10 12  1  0
 11 13  1  0
 12 14  2  0
 12 15  1  0
 13 16  1  0
 14 17  1  0
 15 18  2  0
 16 19  2  0
 16 20  1  0
 17 21  2  0
 18 21  1  0
 18 22  1  0
 19 23  1  0
 20 24  2  0
 22 25  3  0
 23 26  2  0
 24 26  1  0
M  END
