PAU-UNI-b6a619a1-1-bromoalkyne
     RDKit          3D

 29 32  0  0  0  0  0  0  0  0999 V2000
    6.8160   -3.9660   19.9180 C   0  0  0  0  0  0  0  0  0  0  0  0
    5.6860   -3.3070   19.2100 C   0  0  0  0  0  0  0  0  0  0  0  0
    6.8750   -4.4040   21.2130 N   0  0  0  0  0  0  0  0  0  0  0  0
    6.1740   -5.4220   21.8610 C   0  0  0  0  0  0  0  0  0  0  0  0
    7.9830   -3.9500   22.0160 C   0  0  0  0  0  0  0  0  0  0  0  0
    6.8370   -5.9750   23.1220 C   0  0  0  0  0  0  0  0  0  0  0  0
    7.6620   -3.7690   23.4760 C   0  0  1  0  0  0  0  0  0  0  0  0
    7.6750   -5.0360   24.0470 C   0  0  0  0  0  0  0  0  0  0  0  0
    8.8310   -2.9290   23.9810 C   0  0  0  0  0  0  0  0  0  0  0  0
    9.0160   -2.2800   25.0930 N   0  0  0  0  0  0  0  0  0  0  0  0
    9.8700   -2.7110   23.2570 N   0  0  0  0  0  0  0  0  0  0  0  0
   10.2710   -1.7220   24.8900 C   0  0  0  0  0  0  0  0  0  0  0  0
   10.8360   -2.0500   23.7540 C   0  0  0  0  0  0  0  0  0  0  0  0
   10.2770   -2.9510   22.0020 C   0  0  0  0  0  0  0  0  0  0  0  0
   11.1180   -0.8440   25.6330 C   0  0  0  0  0  0  0  0  0  0  0  0
   12.1000   -1.7530   23.2150 C   0  0  0  0  0  0  0  0  0  0  0  0
   10.3770   -1.5440   21.7480 C   0  0  0  0  0  0  0  0  0  0  0  0
   12.3460   -0.5340   25.1850 C   0  0  0  0  0  0  0  0  0  0  0  0
   12.8850   -0.9750   23.9850 C   0  0  0  0  0  0  0  0  0  0  0  0
    9.1270   -0.6500   21.4660 C   0  0  0  0  0  0  0  0  0  0  0  0
    9.2740    0.8290   21.8530 C   0  0  0  0  0  0  0  0  0  0  0  0
    7.9640   -1.0970   20.9140 N   0  0  0  0  0  0  0  0  0  0  0  0
    7.0760   -0.3790   20.1640 C   0  0  0  0  0  0  0  0  0  0  0  0
    7.0320   -0.1260   18.8020 C   0  0  0  0  0  0  0  0  0  0  0  0
    5.9360    0.2960   20.6720 C   0  0  0  0  0  0  0  0  0  0  0  0
    6.5560    0.3450   17.8900 N   0  0  0  0  0  0  0  0  0  0  0  0
    5.1140    0.9990   19.7290 C   0  0  0  0  0  0  0  0  0  0  0  0
    5.5560    0.3020   22.1530 C   0  0  0  0  0  0  0  0  0  0  0  0
    5.3730    1.0580   18.3380 C   0  0  0  0  0  0  0  0  0  0  0  0
  1  2  2  3
  1  3  1  0
  3  4  1  0
  3  5  1  0
  4  6  1  0
  5  7  1  0
  6  8  1  0
  7  8  1  0
  7  9  1  1
  9 10  2  0
  9 11  1  0
 10 12  1  0
 11 13  1  0
 12 13  2  0
 11 14  1  0
 12 15  1  0
 13 16  1  0
 14 17  1  0
 15 18  2  0
 16 19  2  0
 18 19  1  0
 17 20  1  0
 20 21  2  3
 20 22  1  0
 22 23  1  0
 23 24  2  0
 23 25  1  0
 24 26  1  0
 25 27  2  0
 25 28  1  0
 26 29  2  0
 27 29  1  0
M  END
