PAU-WEI-b9b69149-5-chloroacetamide
     RDKit          3D

 30 32  0  0  0  0  0  0  0  0999 V2000
    7.1590   -3.1300   19.0670 C   0  0  0  0  0  0  0  0  0  0  0  0
    6.0150   -3.6870   19.9530 C   0  0  0  0  0  0  0  0  0  0  0  0
    5.6870   -4.8650   19.9840 O   0  0  0  0  0  0  0  0  0  0  0  0
    5.2840   -2.8390   20.7280 N   0  0  0  0  0  0  0  0  0  0  0  0
    4.8610   -3.1500   22.0980 C   0  0  0  0  0  0  0  0  0  0  0  0
    5.7280   -1.4450   20.6990 C   0  0  0  0  0  0  0  0  0  0  0  0
    6.2540   -3.3410   22.7040 C   0  0  0  0  0  0  0  0  0  0  0  0
    6.9120   -1.2460   21.6520 C   0  0  0  0  0  0  0  0  0  0  0  0
    6.6540   -1.9450   22.9300 N   0  0  0  0  0  0  0  0  0  0  0  0
    7.7720   -1.8540   23.8310 C   0  0  2  0  0  0  0  0  0  0  0  0
    7.1480   -1.3610   25.1370 C   0  0  0  0  0  0  0  0  0  0  0  0
    8.8730   -1.1020   23.3860 C   0  0  0  0  0  0  0  0  0  0  0  0
    7.9990   -0.1060   25.3380 C   0  0  0  0  0  0  0  0  0  0  0  0
    8.7200    0.4180   23.5220 C   0  0  0  0  0  0  0  0  0  0  0  0
   10.0250   -1.6940   22.8560 C   0  0  0  0  0  0  0  0  0  0  0  0
    9.3990   -0.7550   25.2190 C   0  0  0  0  0  0  0  0  0  0  0  0
    9.8090    1.1760   23.1020 C   0  0  0  0  0  0  0  0  0  0  0  0
   11.0790   -0.8930   22.4460 C   0  0  0  0  0  0  0  0  0  0  0  0
   10.7240   -0.0470   24.9140 C   0  0  0  0  0  0  0  0  0  0  0  0
    9.5580   -2.1580   25.4040 C   0  0  0  0  0  0  0  0  0  0  0  0
   10.9560    0.6220   22.5910 C   0  0  0  0  0  0  0  0  0  0  0  0
   12.2460   -1.4680   21.8930 C   0  0  0  0  0  0  0  0  0  0  0  0
   12.0080   -0.8290   24.8660 C   0  0  0  0  0  0  0  0  0  0  0  0
   10.7980   -2.7990   25.3370 C   0  0  0  0  0  0  0  0  0  0  0  0
   13.4050   -1.9930   21.1940 N   0  0  0  0  0  0  0  0  0  0  0  0
   12.0190   -2.1730   25.0860 C   0  0  0  0  0  0  0  0  0  0  0  0
   13.2800   -2.8920   25.0760 C   0  0  0  0  0  0  0  0  0  0  0  0
   13.8420   -3.1200   23.8990 F   0  0  0  0  0  0  0  0  0  0  0  0
   14.2040   -2.2600   25.8070 F   0  0  0  0  0  0  0  0  0  0  0  0
   13.2020   -4.0430   25.7870 F   0  0  0  0  0  0  0  0  0  0  0  0
  1  2  1  0
  2  3  2  0
  2  4  1  0
  4  5  1  0
  4  6  1  0
  5  7  1  0
  6  8  1  0
  7  9  1  0
  8  9  1  0
  9 10  1  0
 10 11  1  1
 10 12  1  0
 11 13  1  0
 12 14  2  0
 12 15  1  0
 13 16  1  0
 14 17  1  0
 15 18  2  0
 16 19  2  0
 16 20  1  0
 17 21  2  0
 18 21  1  0
 18 22  1  0
 19 23  1  0
 20 24  2  0
 22 25  3  0
 23 26  2  0
 24 26  1  0
 26 27  1  0
 27 28  1  0
 27 29  1  0
 27 30  1  0
M  END
