PAU-WEI-b9b69149-1-chloroacetamide
     RDKit          3D

 25 27  0  0  0  0  0  0  0  0999 V2000
    7.3670   -2.9890   18.7430 C   0  0  0  0  0  0  0  0  0  0  0  0
    6.4350   -3.2630   19.8760 C   0  0  0  0  0  0  0  0  0  0  0  0
    5.4650   -4.0260   19.7090 O   0  0  0  0  0  0  0  0  0  0  0  0
    6.7250   -2.6680   21.0790 N   0  0  0  0  0  0  0  0  0  0  0  0
    7.4490   -1.3950   21.2730 C   0  0  0  0  0  0  0  0  0  0  0  0
    6.6330   -3.3890   22.3370 C   0  0  0  0  0  0  0  0  0  0  0  0
    8.8990   -1.8300   21.6950 C   0  0  0  0  0  0  0  0  0  0  0  0
    7.3870   -2.6800   23.4540 C   0  0  0  0  0  0  0  0  0  0  0  0
    8.7820   -2.3400   23.0790 N   0  0  0  0  0  0  0  0  0  0  0  0
    9.8070   -3.3560   23.4290 C   0  0  1  0  0  0  0  0  0  0  0  0
   11.3730   -2.9150   23.3780 C   0  0  0  0  0  0  0  0  0  0  0  0
    9.3570   -4.0010   24.7960 C   0  0  0  0  0  0  0  0  0  0  0  0
   11.8730   -2.3630   21.9170 C   0  0  0  0  0  0  0  0  0  0  0  0
    9.8710   -5.3640   25.2550 C   0  0  0  0  0  0  0  0  0  0  0  0
    8.4320   -3.3790   25.6680 C   0  0  0  0  0  0  0  0  0  0  0  0
   11.6660   -1.2280   22.7230 C   0  0  0  0  0  0  0  0  0  0  0  0
    9.4420   -6.0420   26.5480 C   0  0  0  0  0  0  0  0  0  0  0  0
    7.9650   -4.0340   26.9850 C   0  0  0  0  0  0  0  0  0  0  0  0
   12.1810    0.1800   22.9430 C   0  0  0  0  0  0  0  0  0  0  0  0
   10.5550   -1.6230   23.6940 C   0  0  0  0  0  0  0  0  0  0  0  0
    8.5300   -5.3950   27.3660 C   0  0  0  0  0  0  0  0  0  0  0  0
    6.8210   -3.2810   28.0320 Cl  0  0  0  0  0  0  0  0  0  0  0  0
   11.5160    0.9200   24.0570 C   0  0  0  0  0  0  0  0  0  0  0  0
   10.0490   -0.8760   24.6410 C   0  0  0  0  0  0  0  0  0  0  0  0
   10.5010    0.3530   24.8340 C   0  0  0  0  0  0  0  0  0  0  0  0
  1  2  1  0
  2  3  2  0
  2  4  1  0
  4  5  1  0
  4  6  1  0
  5  7  1  0
  6  8  1  0
  7  9  1  0
  8  9  1  0
  9 10  1  0
 10 11  1  1
 10 12  1  0
 11 13  1  0
 12 14  2  0
 12 15  1  0
 13 16  1  0
 14 17  1  0
 15 18  2  0
 16 19  2  0
 16 20  1  0
 17 21  2  0
 18 21  1  0
 18 22  1  0
 19 23  1  0
 20 24  2  0
 23 25  2  0
 24 25  1  0
M  END
