PAU-WEI-f734c343-1-chloroacetamide
     RDKit          3D

 31 34  0  0  0  0  0  0  0  0999 V2000
    7.2290   -2.9100   18.7480 C   0  0  0  0  0  0  0  0  0  0  0  0
    6.2260   -3.1620   19.8320 C   0  0  0  0  0  0  0  0  0  0  0  0
    5.3740   -4.0420   19.6960 O   0  0  0  0  0  0  0  0  0  0  0  0
    6.2990   -2.3760   21.0010 N   0  0  0  0  0  0  0  0  0  0  0  0
    7.1420   -1.1940   20.9890 C   0  0  0  0  0  0  0  0  0  0  0  0
    6.0950   -2.9090   22.3340 C   0  0  0  0  0  0  0  0  0  0  0  0
    8.4440   -1.3190   21.8150 C   0  0  0  0  0  0  0  0  0  0  0  0
    7.4420   -3.2170   22.9690 C   0  0  0  0  0  0  0  0  0  0  0  0
    8.3550   -2.0590   23.0980 N   0  0  0  0  0  0  0  0  0  0  0  0
    9.5990   -2.5230   23.6580 C   0  0  2  0  0  0  0  0  0  0  0  0
    9.3590   -3.4480   24.9040 C   0  0  0  0  0  0  0  0  0  0  0  0
   10.5960   -1.4870   23.4280 C   0  0  0  0  0  0  0  0  0  0  0  0
   10.2310   -4.4770   25.5390 C   0  0  0  0  0  0  0  0  0  0  0  0
    7.8830   -3.4800   25.8090 S   0  0  0  0  0  0  0  0  0  0  0  0
   11.7980   -2.0520   22.9790 C   0  0  0  0  0  0  0  0  0  0  0  0
   10.5890   -0.0080   23.5140 C   0  0  0  0  0  0  0  0  0  0  0  0
    9.6480   -5.1970   26.6640 C   0  0  0  0  0  0  0  0  0  0  0  0
    8.3610   -4.7440   26.9120 C   0  0  0  0  0  0  0  0  0  0  0  0
   12.9920   -1.2830   22.5950 C   0  0  0  0  0  0  0  0  0  0  0  0
   11.7140    0.7440   23.1310 C   0  0  0  0  0  0  0  0  0  0  0  0
    9.6550    0.9890   23.9020 N   0  0  0  0  0  0  0  0  0  0  0  0
    7.2490   -5.4350   28.2960 Br  0  0  0  0  0  0  0  0  0  0  0  0
   12.9870    0.0930   22.6570 C   0  0  0  0  0  0  0  0  0  0  0  0
   11.4170    2.1310   23.2550 C   0  0  0  0  0  0  0  0  0  0  0  0
   10.1610    2.2880   23.7450 C   0  0  0  0  0  0  0  0  0  0  0  0
   12.3790    3.2670   22.8580 C   0  0  0  0  0  0  0  0  0  0  0  0
   12.1160    4.6710   23.4340 C   0  0  0  0  0  0  0  0  0  0  0  0
   11.1450    5.4950   22.6870 N   0  0  0  0  0  0  0  0  0  0  0  0
   10.1710    6.1570   23.3790 C   0  0  0  0  0  0  0  0  0  0  0  0
    9.0160    6.6410   22.5170 C   0  0  0  0  0  0  0  0  0  0  0  0
   10.2110    6.3460   24.5950 O   0  0  0  0  0  0  0  0  0  0  0  0
  1  2  1  0
  2  3  2  0
  2  4  1  0
  4  5  1  0
  4  6  1  0
  5  7  1  0
  6  8  1  0
  7  9  1  0
  8  9  1  0
  9 10  1  0
 10 11  1  1
 10 12  1  0
 11 13  2  0
 11 14  1  0
 12 15  2  0
 12 16  1  0
 13 17  1  0
 14 18  1  0
 17 18  2  0
 15 19  1  0
 16 20  2  0
 16 21  1  0
 18 22  1  0
 19 23  2  0
 20 23  1  0
 20 24  1  0
 21 25  1  0
 24 25  2  0
 24 26  1  0
 26 27  1  0
 27 28  1  0
 28 29  1  0
 29 30  1  0
 29 31  2  0
M  END
