PAU-WEI-f734c343-2-chloroacetamide
     RDKit          3D

 34 37  0  0  0  0  0  0  0  0999 V2000
    7.2050   -2.9700   18.7440 C   0  0  0  0  0  0  0  0  0  0  0  0
    6.2630   -3.3060   19.8740 C   0  0  0  0  0  0  0  0  0  0  0  0
    5.3870   -4.1640   19.7490 O   0  0  0  0  0  0  0  0  0  0  0  0
    6.4350   -2.6070   21.0790 N   0  0  0  0  0  0  0  0  0  0  0  0
    7.3770   -1.5110   21.0700 C   0  0  0  0  0  0  0  0  0  0  0  0
    6.3100   -3.2770   22.3720 C   0  0  0  0  0  0  0  0  0  0  0  0
    8.7160   -1.9190   21.6850 C   0  0  0  0  0  0  0  0  0  0  0  0
    7.4900   -3.7130   22.8490 C   0  0  0  0  0  0  0  0  0  0  0  0
    8.5710   -2.6920   22.9080 N   0  0  0  0  0  0  0  0  0  0  0  0
    8.9990   -2.2370   24.1830 C   0  0  1  0  0  0  0  0  0  0  0  0
    8.9770   -3.4670   25.1140 C   0  0  0  0  0  0  0  0  0  0  0  0
   10.1590   -1.4620   23.8410 C   0  0  0  0  0  0  0  0  0  0  0  0
    9.8050   -4.6910   25.2750 C   0  0  0  0  0  0  0  0  0  0  0  0
    7.7320   -3.5800   26.2900 S   0  0  0  0  0  0  0  0  0  0  0  0
   11.1360   -2.0790   23.0820 C   0  0  0  0  0  0  0  0  0  0  0  0
   10.3530   -0.1040   24.2010 C   0  0  0  0  0  0  0  0  0  0  0  0
    9.3770   -5.6260   26.3090 C   0  0  0  0  0  0  0  0  0  0  0  0
    8.2290   -5.1110   26.9440 C   0  0  0  0  0  0  0  0  0  0  0  0
   12.3390   -1.3480   22.6700 C   0  0  0  0  0  0  0  0  0  0  0  0
   11.4340    0.6510   23.8740 C   0  0  0  0  0  0  0  0  0  0  0  0
    9.3110    0.6670   24.9970 C   0  0  0  0  0  0  0  0  0  0  0  0
    7.2580   -5.9210   28.3650 Br  0  0  0  0  0  0  0  0  0  0  0  0
   13.2740   -2.0140   21.9190 C   0  0  0  0  0  0  0  0  0  0  0  0
   12.5140   -0.0350   23.0400 C   0  0  0  0  0  0  0  0  0  0  0  0
    8.2830    1.1330   25.2560 N   0  0  0  0  0  0  0  0  0  0  0  0
   13.6400   -1.4610   20.7290 N   0  0  0  0  0  0  0  0  0  0  0  0
    7.5490    1.7240   24.2530 C   0  0  0  0  0  0  0  0  0  0  0  0
    8.0220    2.6180   23.5540 O   0  0  0  0  0  0  0  0  0  0  0  0
    6.2860    1.2730   24.0680 N   0  0  0  0  0  0  0  0  0  0  0  0
    5.6510    1.6770   22.8080 C   0  0  0  0  0  0  0  0  0  0  0  0
    5.3590    1.0320   25.1820 C   0  0  0  0  0  0  0  0  0  0  0  0
    4.2750    1.0860   22.5480 C   0  0  0  0  0  0  0  0  0  0  0  0
    4.1120    0.2510   24.7660 C   0  0  0  0  0  0  0  0  0  0  0  0
    3.4720    0.9800   23.7220 O   0  0  0  0  0  0  0  0  0  0  0  0
  1  2  1  0
  2  3  2  0
  2  4  1  0
  4  5  1  0
  4  6  1  0
  5  7  1  0
  6  8  1  0
  7  9  1  0
  8  9  1  0
  9 10  1  0
 10 11  1  1
 10 12  1  0
 11 13  2  0
 11 14  1  0
 12 15  2  0
 12 16  1  0
 13 17  1  0
 14 18  1  0
 17 18  2  0
 15 19  1  0
 16 20  2  0
 16 21  1  0
 18 22  1  0
 19 23  1  0
 19 24  2  0
 20 24  1  0
 21 25  1  0
 23 26  3  0
 25 27  1  0
 27 28  2  0
 27 29  1  0
 29 30  1  0
 29 31  1  0
 30 32  1  0
 31 33  1  0
 32 34  1  0
 33 34  1  0
M  END
