PAU-UNI-6d15a9f5-4
     RDKit          3D

 51 53  0  0  0  0  0  0  0  0999 V2000
   -2.8530    1.1730   -6.4790 C   0  0  0  0  0  0  0  0  0  0  0  0
   -2.3710    1.1060   -7.7810 C   0  0  0  0  0  0  0  0  0  0  0  0
   -2.6070    2.2010   -8.6170 C   0  0  0  0  0  0  0  0  0  0  0  0
   -0.8690    0.7650   -7.7220 C   0  0  0  0  0  0  0  0  0  0  0  0
   -0.0550    0.9450   -9.0280 C   0  0  1  0  0  0  0  0  0  0  0  0
   -0.9930    1.2580  -10.1310 N   0  0  0  0  0  0  0  0  0  0  0  0
    1.1070    2.0090   -8.8660 C   0  0  0  0  0  0  0  0  0  0  0  0
   -1.4300    0.0920  -10.8880 C   0  0  1  0  0  0  0  0  0  0  0  0
    0.8120    3.1770   -8.8270 O   0  0  0  0  0  0  0  0  0  0  0  0
    2.4750    1.6220   -8.8800 N   0  0  0  0  0  0  0  0  0  0  0  0
   -1.4160   -1.2050  -10.0230 C   0  0  0  0  0  0  0  0  0  0  0  0
   -2.8150    0.2800  -11.2960 O   0  0  0  0  0  0  0  0  0  0  0  0
    3.7840    1.9520   -8.1340 C   0  0  1  0  0  0  0  0  0  0  0  0
   -2.7610   -1.8130  -10.2080 C   0  0  0  0  0  0  0  0  0  0  0  0
   -3.5940   -0.9550  -11.1580 C   0  0  1  0  0  0  0  0  0  0  0  0
    4.8610    0.8670   -8.3650 C   0  0  0  0  0  0  0  0  0  0  0  0
    4.4290    3.2740   -8.2390 C   0  0  1  0  0  0  0  0  0  0  0  0
   -5.0350   -0.6430  -10.6560 C   0  0  0  0  0  0  0  0  0  0  0  0
    4.9130    0.1730   -9.3690 O   0  0  0  0  0  0  0  0  0  0  0  0
    5.7660    0.6810   -7.3570 N   0  0  0  0  0  0  0  0  0  0  0  0
    3.4210    4.1480   -8.7100 C   0  0  0  0  0  0  0  0  0  0  0  0
    4.7530    3.7130   -6.9290 O   0  0  0  0  0  0  0  0  0  0  0  0
   -6.0820   -1.4160  -11.3050 N   0  0  0  0  0  0  0  0  0  0  0  0
    6.5420   -0.5200   -7.3910 C   0  0  2  0  0  0  0  0  0  0  0  0
   -7.0490   -0.8780  -12.1200 C   0  0  0  0  0  0  0  0  0  0  0  0
    5.8000   -1.6470   -6.7200 C   0  0  0  0  0  0  0  0  0  0  0  0
    7.9170   -0.3750   -6.7540 C   0  0  0  0  0  0  0  0  0  0  0  0
   -7.2370   -1.2420  -13.2760 O   0  0  0  0  0  0  0  0  0  0  0  0
   -7.8410    0.1760  -11.4730 C   0  0  0  0  0  0  0  0  0  0  0  0
    6.2370   -2.7980   -7.5110 C   0  0  0  0  0  0  0  0  0  0  0  0
    8.9680   -0.5390   -7.3580 O   0  0  0  0  0  0  0  0  0  0  0  0
    7.9040   -0.0740   -5.4400 N   0  0  0  0  0  0  0  0  0  0  0  0
   -7.5080    1.5190  -11.2990 C   0  0  0  0  0  0  0  0  0  0  0  0
   -9.0910   -0.0350  -10.9240 N   0  0  0  0  0  0  0  0  0  0  0  0
    7.5780   -2.8640   -7.8170 C   0  0  0  0  0  0  0  0  0  0  0  0
    5.3540   -3.7740   -7.9540 C   0  0  0  0  0  0  0  0  0  0  0  0
    8.8980   -0.7520   -4.6150 C   0  0  1  0  0  0  0  0  0  0  0  0
   -8.5490    2.1220  -10.6480 C   0  0  0  0  0  0  0  0  0  0  0  0
   -9.4970    1.1780  -10.4260 N   0  0  0  0  0  0  0  0  0  0  0  0
    8.0630   -4.0140   -8.6420 C   0  0  0  0  0  0  0  0  0  0  0  0
    5.8010   -4.8490   -8.7200 C   0  0  0  0  0  0  0  0  0  0  0  0
   10.2520   -0.8290   -5.3440 C   0  0  0  0  0  0  0  0  0  0  0  0
    8.9090    0.1200   -3.3880 C   0  0  0  0  0  0  0  0  0  0  0  0
  -10.8010    1.3350   -9.7590 C   0  0  0  0  0  0  0  0  0  0  0  0
    7.1500   -4.9590   -9.0570 C   0  0  0  0  0  0  0  0  0  0  0  0
   11.4930   -0.8730   -4.4360 C   0  0  0  0  0  0  0  0  0  0  0  0
    8.8740   -0.2720   -2.2310 O   0  0  0  0  0  0  0  0  0  0  0  0
    8.9570    1.4420   -3.7410 O   0  0  0  0  0  0  0  0  0  0  0  0
   12.7190   -1.5070   -5.0670 C   0  0  0  0  0  0  0  0  0  0  0  0
   12.7010   -2.8730   -5.1670 N   0  0  0  0  0  0  0  0  0  0  0  0
   13.6930   -0.8750   -5.4730 O   0  0  0  0  0  0  0  0  0  0  0  0
  1  2  1  0
  2  3  1  0
  2  4  1  0
  5  4  1  1
  5  6  1  0
  5  7  1  0
  8  6  1  1
  7  9  2  0
  7 10  1  0
  8 11  1  0
  8 12  1  0
 13 10  1  6
 11 14  1  0
 12 15  1  0
 14 15  1  0
 13 16  1  0
 13 17  1  0
 15 18  1  1
 16 19  2  0
 16 20  1  0
 17 21  1  1
 17 22  1  0
 18 23  1  0
 20 24  1  0
 23 25  1  0
 24 26  1  1
 24 27  1  0
 25 28  2  0
 25 29  1  0
 26 30  1  0
 27 31  2  0
 27 32  1  0
 29 33  1  0
 29 34  2  0
 30 35  2  0
 30 36  1  0
 32 37  1  0
 33 38  2  0
 34 39  1  0
 38 39  1  0
 35 40  1  0
 36 41  2  0
 37 42  1  6
 37 43  1  0
 39 44  1  0
 40 45  2  0
 41 45  1  0
 42 46  1  0
 43 47  2  0
 43 48  1  0
 46 49  1  0
 49 50  1  0
 49 51  2  0
M  END
