PAU-WEI-3e86dfd8-1-acrylamide
     RDKit          3D

 28 31  0  0  0  0  0  0  0  0999 V2000
    7.4910   -2.9210   18.2540 C   0  0  0  0  0  0  0  0  0  0  0  0
    6.6570   -2.2040   19.2330 C   0  0  0  0  0  0  0  0  0  0  0  0
    5.7860   -3.0800   20.1130 C   0  0  0  0  0  0  0  0  0  0  0  0
    5.0840   -4.0470   19.7320 O   0  0  0  0  0  0  0  0  0  0  0  0
    5.8350   -2.7060   21.4310 N   0  0  0  0  0  0  0  0  0  0  0  0
    5.9030   -3.6740   22.5150 C   0  0  0  0  0  0  0  0  0  0  0  0
    6.4650   -1.4030   21.7040 C   0  0  0  0  0  0  0  0  0  0  0  0
    7.3520   -3.8600   22.9470 C   0  0  0  0  0  0  0  0  0  0  0  0
    7.8940   -1.5740   22.2410 C   0  0  0  0  0  0  0  0  0  0  0  0
    7.9420   -2.5730   23.3030 N   0  0  0  0  0  0  0  0  0  0  0  0
    8.9770   -2.4940   24.2800 C   0  0  1  0  0  0  0  0  0  0  0  0
    9.0090   -3.6060   25.1530 C   0  0  0  0  0  0  0  0  0  0  0  0
   10.1390   -1.5950   23.7610 C   0  0  0  0  0  0  0  0  0  0  0  0
    9.8310   -4.7330   25.2670 C   0  0  0  0  0  0  0  0  0  0  0  0
    7.7860   -3.7000   26.3580 S   0  0  0  0  0  0  0  0  0  0  0  0
   11.1580   -2.1500   22.9660 C   0  0  0  0  0  0  0  0  0  0  0  0
   10.2010   -0.1780   24.0110 C   0  0  0  0  0  0  0  0  0  0  0  0
    9.4430   -5.5990   26.2840 C   0  0  0  0  0  0  0  0  0  0  0  0
    8.3360   -5.1610   26.9650 C   0  0  0  0  0  0  0  0  0  0  0  0
   12.1620   -1.3360   22.4700 C   0  0  0  0  0  0  0  0  0  0  0  0
   11.2670    0.5980   23.4820 C   0  0  0  0  0  0  0  0  0  0  0  0
    9.2560    0.5460   24.7420 C   0  0  0  0  0  0  0  0  0  0  0  0
    7.4150   -5.9690   28.4100 Br  0  0  0  0  0  0  0  0  0  0  0  0
   13.3460   -1.9620   21.4760 Cl  0  0  0  0  0  0  0  0  0  0  0  0
   12.2220   -0.0090   22.7370 C   0  0  0  0  0  0  0  0  0  0  0  0
   11.3800    1.9650   23.6670 C   0  0  0  0  0  0  0  0  0  0  0  0
    9.3560    1.9270   24.9130 C   0  0  0  0  0  0  0  0  0  0  0  0
   10.4180    2.6340   24.3750 C   0  0  0  0  0  0  0  0  0  0  0  0
  1  2  1  0
  2  3  1  0
  3  4  2  0
  3  5  1  0
  5  6  1  0
  5  7  1  0
  6  8  1  0
  7  9  1  0
  8 10  1  0
  9 10  1  0
 10 11  1  0
 11 12  1  6
 11 13  1  0
 12 14  2  0
 12 15  1  0
 13 16  2  0
 13 17  1  0
 14 18  1  0
 15 19  1  0
 18 19  2  0
 16 20  1  0
 17 21  2  0
 17 22  1  0
 19 23  1  0
 20 24  1  0
 20 25  2  0
 21 25  1  0
 21 26  1  0
 22 27  2  0
 26 28  2  0
 27 28  1  0
M  END
