PAU-UNI-8cdd41c7-1-acrylamide
     RDKit          3D

 19 20  0  0  0  0  0  0  0  0999 V2000
    7.5540   -2.6460   18.6500 C   0  0  0  0  0  0  0  0  0  0  0  0
    6.2500   -2.7390   18.8740 C   0  0  0  0  0  0  0  0  0  0  0  0
    5.8920   -3.4430   20.1310 C   0  0  0  0  0  0  0  0  0  0  0  0
    5.2320   -4.4750   20.0430 O   0  0  0  0  0  0  0  0  0  0  0  0
    6.3260   -2.8810   21.3220 N   0  0  0  0  0  0  0  0  0  0  0  0
    7.1000   -1.6170   21.2920 C   0  0  0  0  0  0  0  0  0  0  0  0
    6.1050   -3.4880   22.6420 C   0  0  0  0  0  0  0  0  0  0  0  0
    8.1820   -1.7040   22.1850 C   0  0  0  0  0  0  0  0  0  0  0  0
    7.2990   -3.6050   23.3760 C   0  0  0  0  0  0  0  0  0  0  0  0
    7.9280   -2.2890   23.5130 N   0  0  0  0  0  0  0  0  0  0  0  0
    9.1000   -2.2650   24.3730 C   0  0  0  0  0  0  0  0  0  0  0  0
   10.1990   -1.4470   23.7770 C   0  0  0  0  0  0  0  0  0  0  0  0
   10.1190    0.0290   24.0790 C   0  0  0  0  0  0  0  0  0  0  0  0
   11.1990   -1.9760   22.9880 C   0  0  0  0  0  0  0  0  0  0  0  0
   11.1440    0.9980   23.5110 C   0  0  0  0  0  0  0  0  0  0  0  0
   12.2410   -1.0390   22.4130 C   0  0  0  0  0  0  0  0  0  0  0  0
   11.1170    2.6890   23.7300 Cl  0  0  0  0  0  0  0  0  0  0  0  0
   12.1980    0.3240   22.6780 C   0  0  0  0  0  0  0  0  0  0  0  0
   13.4190   -1.6980   21.4260 Cl  0  0  0  0  0  0  0  0  0  0  0  0
  1  2  1  0
  2  3  1  0
  3  4  2  0
  3  5  1  0
  5  6  1  0
  5  7  1  0
  6  8  1  0
  7  9  1  0
  8 10  1  0
  9 10  1  0
 10 11  1  0
 11 12  1  0
 12 13  2  0
 12 14  1  0
 13 15  1  0
 14 16  2  0
 15 17  1  0
 15 18  2  0
 16 18  1  0
 16 19  1  0
M  END
