PAU-UNI-52c0427f-1-bromoalkyne
     RDKit          3D

 20 21  0  0  0  0  0  0  0  0999 V2000
    6.9620   -3.5680   19.7990 C   0  0  0  0  0  0  0  0  0  0  0  0
    6.1920   -2.8490   18.7250 C   0  0  0  0  0  0  0  0  0  0  0  0
    6.8910   -2.9840   21.0350 N   0  0  0  0  0  0  0  0  0  0  0  0
    7.2700   -1.6000   21.2290 C   0  0  0  0  0  0  0  0  0  0  0  0
    6.5920   -3.6170   22.3250 C   0  0  0  0  0  0  0  0  0  0  0  0
    8.4740   -1.4920   21.8580 C   0  0  0  0  0  0  0  0  0  0  0  0
    7.7580   -3.5580   23.1160 C   0  0  0  0  0  0  0  0  0  0  0  0
    8.8750   -2.7520   22.5610 N   0  0  0  0  0  0  0  0  0  0  0  0
    9.9970   -2.7680   23.4000 C   0  0  0  0  0  0  0  0  0  0  0  0
   10.4450   -1.4980   23.6530 C   0  0  0  0  0  0  0  0  0  0  0  0
   11.7320   -0.9820   23.0590 C   0  0  0  0  0  0  0  0  0  0  0  0
    9.6730   -0.6470   24.4600 C   0  0  0  0  0  0  0  0  0  0  0  0
   12.0870    0.3170   23.3290 C   0  0  0  0  0  0  0  0  0  0  0  0
   10.0580    0.7270   24.7400 N   0  0  0  0  0  0  0  0  0  0  0  0
    8.3910   -1.1230   25.0650 N   0  0  0  0  0  0  0  0  0  0  0  0
   13.2860    0.9800   22.8220 C   0  0  0  0  0  0  0  0  0  0  0  0
   11.3000    1.1010   24.1070 C   0  0  0  0  0  0  0  0  0  0  0  0
    7.8640   -0.3000   26.1570 C   0  0  0  0  0  0  0  0  0  0  0  0
   13.2710    2.3340   22.8210 N   0  0  0  0  0  0  0  0  0  0  0  0
    7.4320    1.0580   25.5830 C   0  0  0  0  0  0  0  0  0  0  0  0
  1  2  2  3
  1  3  1  0
  3  4  1  0
  3  5  1  0
  4  6  1  0
  5  7  1  0
  6  8  1  0
  7  8  1  0
  8  9  1  0
  9 10  1  0
 10 11  2  0
 10 12  1  0
 11 13  1  0
 12 14  2  0
 12 15  1  0
 13 16  1  0
 13 17  2  0
 14 17  1  0
 15 18  1  0
 16 19  3  0
 18 20  1  0
M  END
