PAU-WEI-f734c343-1-bromoalkyne
     RDKit          3D

 30 33  0  0  0  0  0  0  0  0999 V2000
    7.2690   -3.1760   19.5850 C   0  0  0  0  0  0  0  0  0  0  0  0
    6.4670   -2.6780   18.4490 C   0  0  0  0  0  0  0  0  0  0  0  0
    6.9300   -2.7090   20.8320 N   0  0  0  0  0  0  0  0  0  0  0  0
    6.6130   -3.4970   21.9990 C   0  0  0  0  0  0  0  0  0  0  0  0
    7.3390   -1.3400   21.1310 C   0  0  0  0  0  0  0  0  0  0  0  0
    7.8050   -3.5190   22.9550 C   0  0  0  0  0  0  0  0  0  0  0  0
    8.5770   -1.3740   22.0080 C   0  0  0  0  0  0  0  0  0  0  0  0
    8.3350   -2.1690   23.2210 N   0  0  0  0  0  0  0  0  0  0  0  0
    9.2450   -1.9370   24.2910 C   0  0  1  0  0  0  0  0  0  0  0  0
    9.1730   -3.2840   25.0480 C   0  0  0  0  0  0  0  0  0  0  0  0
   10.4170   -1.3270   23.7130 C   0  0  0  0  0  0  0  0  0  0  0  0
    9.8470   -4.6200   24.9630 C   0  0  0  0  0  0  0  0  0  0  0  0
    8.0370   -3.3900   26.3410 S   0  0  0  0  0  0  0  0  0  0  0  0
   11.4420   -2.1050   23.1200 C   0  0  0  0  0  0  0  0  0  0  0  0
   10.6030    0.1110   23.6840 C   0  0  0  0  0  0  0  0  0  0  0  0
    9.3930   -5.6070   25.9530 C   0  0  0  0  0  0  0  0  0  0  0  0
    8.3910   -5.0340   26.7690 C   0  0  0  0  0  0  0  0  0  0  0  0
   12.6560   -1.4810   22.5090 C   0  0  0  0  0  0  0  0  0  0  0  0
   11.7080    0.7350   23.1120 C   0  0  0  0  0  0  0  0  0  0  0  0
    9.8060    1.1710   24.1630 N   0  0  0  0  0  0  0  0  0  0  0  0
    7.4640   -5.8770   28.2030 Br  0  0  0  0  0  0  0  0  0  0  0  0
   12.8160   -0.1000   22.4950 C   0  0  0  0  0  0  0  0  0  0  0  0
   11.5270    2.1590   23.2410 C   0  0  0  0  0  0  0  0  0  0  0  0
   10.3610    2.4160   23.8950 C   0  0  0  0  0  0  0  0  0  0  0  0
   12.4580    3.2690   22.7230 C   0  0  0  0  0  0  0  0  0  0  0  0
   12.2300    4.6850   23.3000 C   0  0  0  0  0  0  0  0  0  0  0  0
   11.2110    5.5030   22.6100 N   0  0  0  0  0  0  0  0  0  0  0  0
   10.2360    6.1300   23.3430 C   0  0  0  0  0  0  0  0  0  0  0  0
    9.0520    6.6090   22.5150 C   0  0  0  0  0  0  0  0  0  0  0  0
   10.2920    6.2970   24.5630 O   0  0  0  0  0  0  0  0  0  0  0  0
  1  2  2  3
  1  3  1  0
  3  4  1  0
  3  5  1  0
  4  6  1  0
  5  7  1  0
  6  8  1  0
  7  8  1  0
  8  9  1  0
  9 10  1  6
  9 11  1  0
 10 12  2  0
 10 13  1  0
 11 14  2  0
 11 15  1  0
 12 16  1  0
 13 17  1  0
 16 17  2  0
 14 18  1  0
 15 19  2  0
 15 20  1  0
 17 21  1  0
 18 22  2  0
 19 22  1  0
 19 23  1  0
 20 24  1  0
 23 24  2  0
 23 25  1  0
 25 26  1  0
 26 27  1  0
 27 28  1  0
 28 29  1  0
 28 30  2  0
M  END
