PAU-WEI-f734c343-1-vinylsulfonamide
     RDKit          3D

 33 36  0  0  0  0  0  0  0  0999 V2000
    8.4970   -3.7080   19.9670 C   0  0  0  0  0  0  0  0  0  0  0  0
    7.5560   -2.8950   19.0210 C   0  0  0  0  0  0  0  0  0  0  0  0
    5.8770   -2.7690   19.6770 S   0  0  0  0  0  0  0  0  0  0  0  0
    5.1690   -4.0570   19.8900 O   0  0  0  0  0  0  0  0  0  0  0  0
    5.2400   -1.7470   18.8780 O   0  0  0  0  0  0  0  0  0  0  0  0
    6.2190   -2.0550   21.1540 N   0  0  0  0  0  0  0  0  0  0  0  0
    6.1400   -2.9260   22.3040 C   0  0  0  0  0  0  0  0  0  0  0  0
    7.2040   -0.9480   21.1590 C   0  0  0  0  0  0  0  0  0  0  0  0
    7.5200   -3.2620   22.8600 C   0  0  0  0  0  0  0  0  0  0  0  0
    8.5070   -1.2580   21.9030 C   0  0  0  0  0  0  0  0  0  0  0  0
    8.2760   -2.0440   23.1220 N   0  0  0  0  0  0  0  0  0  0  0  0
    9.2650   -1.9660   24.1440 C   0  0  1  0  0  0  0  0  0  0  0  0
    9.1380   -3.2720   24.9640 C   0  0  0  0  0  0  0  0  0  0  0  0
   10.4380   -1.3340   23.6140 C   0  0  0  0  0  0  0  0  0  0  0  0
    9.7700   -4.6250   24.8260 C   0  0  0  0  0  0  0  0  0  0  0  0
    8.0630   -3.3800   26.3400 S   0  0  0  0  0  0  0  0  0  0  0  0
   11.4820   -2.0750   23.0250 C   0  0  0  0  0  0  0  0  0  0  0  0
   10.6440    0.1170   23.6160 C   0  0  0  0  0  0  0  0  0  0  0  0
    9.3240   -5.5700   25.8490 C   0  0  0  0  0  0  0  0  0  0  0  0
    8.3900   -5.0210   26.7400 C   0  0  0  0  0  0  0  0  0  0  0  0
   12.6970   -1.4560   22.4680 C   0  0  0  0  0  0  0  0  0  0  0  0
   11.7820    0.7480   23.0790 C   0  0  0  0  0  0  0  0  0  0  0  0
    9.8530    1.1780   24.0960 N   0  0  0  0  0  0  0  0  0  0  0  0
    7.5350   -5.8680   28.2130 Br  0  0  0  0  0  0  0  0  0  0  0  0
   12.9010   -0.0920   22.4740 C   0  0  0  0  0  0  0  0  0  0  0  0
   11.6070    2.1690   23.2310 C   0  0  0  0  0  0  0  0  0  0  0  0
   10.4290    2.4260   23.8610 C   0  0  0  0  0  0  0  0  0  0  0  0
   12.5670    3.2780   22.7520 C   0  0  0  0  0  0  0  0  0  0  0  0
   12.2680    4.6800   23.3330 C   0  0  0  0  0  0  0  0  0  0  0  0
   11.2060    5.4390   22.6350 N   0  0  0  0  0  0  0  0  0  0  0  0
   10.2300    6.0840   23.3560 C   0  0  0  0  0  0  0  0  0  0  0  0
    9.0710    6.5930   22.5130 C   0  0  0  0  0  0  0  0  0  0  0  0
   10.2720    6.2450   24.5750 O   0  0  0  0  0  0  0  0  0  0  0  0
  1  2  1  0
  3  2  1  0
  3  4  2  0
  3  5  2  0
  3  6  1  0
  6  7  1  0
  6  8  1  0
  7  9  1  0
  8 10  1  0
  9 11  1  0
 10 11  1  0
 11 12  1  0
 12 13  1  6
 12 14  1  0
 13 15  2  0
 13 16  1  0
 14 17  2  0
 14 18  1  0
 15 19  1  0
 16 20  1  0
 19 20  2  0
 17 21  1  0
 18 22  2  0
 18 23  1  0
 20 24  1  0
 21 25  2  0
 22 25  1  0
 22 26  1  0
 23 27  1  0
 26 27  2  0
 26 28  1  0
 28 29  1  0
 29 30  1  0
 30 31  1  0
 31 32  1  0
 31 33  2  0
M  END
