PAU-WEI-b9b69149-3-chloroacetamide
     RDKit          3D

 26 28  0  0  0  0  0  0  0  0999 V2000
    7.1550   -3.0300   18.8470 C   0  0  0  0  0  0  0  0  0  0  0  0
    6.1790   -3.3520   19.9440 C   0  0  0  0  0  0  0  0  0  0  0  0
    5.3530   -4.2560   19.7890 O   0  0  0  0  0  0  0  0  0  0  0  0
    6.2670   -2.6200   21.0960 N   0  0  0  0  0  0  0  0  0  0  0  0
    6.0150   -3.1300   22.4550 C   0  0  0  0  0  0  0  0  0  0  0  0
    6.9520   -1.3180   21.0840 C   0  0  0  0  0  0  0  0  0  0  0  0
    7.4550   -3.4300   23.0060 C   0  0  0  0  0  0  0  0  0  0  0  0
    8.3110   -1.4350   21.7560 C   0  0  0  0  0  0  0  0  0  0  0  0
    8.1320   -2.1000   23.0390 N   0  0  0  0  0  0  0  0  0  0  0  0
    9.0050   -1.6930   24.1530 C   0  0  2  0  0  0  0  0  0  0  0  0
    8.2390   -0.5180   24.7890 C   0  0  0  0  0  0  0  0  0  0  0  0
   10.2540   -1.2160   23.7430 C   0  0  0  0  0  0  0  0  0  0  0  0
    6.8360   -1.1460   24.9890 C   0  0  0  0  0  0  0  0  0  0  0  0
   10.7020    0.0510   24.4370 C   0  0  0  0  0  0  0  0  0  0  0  0
   11.0220   -1.8250   22.7720 C   0  0  0  0  0  0  0  0  0  0  0  0
    7.2520   -2.3530   25.8480 C   0  0  0  0  0  0  0  0  0  0  0  0
   11.9280    0.5730   24.0340 C   0  0  0  0  0  0  0  0  0  0  0  0
   12.3590   -1.2630   22.3350 C   0  0  0  0  0  0  0  0  0  0  0  0
    6.5400   -2.9440   27.0800 C   0  0  0  0  0  0  0  0  0  0  0  0
    8.4380   -3.0340   25.5010 C   0  0  0  0  0  0  0  0  0  0  0  0
   12.7310    0.0110   23.0750 C   0  0  0  0  0  0  0  0  0  0  0  0
   13.2890   -1.9990   21.1420 Cl  0  0  0  0  0  0  0  0  0  0  0  0
    7.1650   -4.1460   27.7620 C   0  0  0  0  0  0  0  0  0  0  0  0
    8.9420   -4.1360   26.1890 C   0  0  0  0  0  0  0  0  0  0  0  0
    8.3360   -4.6970   27.2980 C   0  0  0  0  0  0  0  0  0  0  0  0
    8.9570   -5.8500   27.9320 C   0  0  0  0  0  0  0  0  0  0  0  0
  1  2  1  0
  2  3  2  0
  2  4  1  0
  4  5  1  0
  4  6  1  0
  5  7  1  0
  6  8  1  0
  7  9  1  0
  8  9  1  0
  9 10  1  0
 10 11  1  6
 10 12  1  0
 11 13  1  0
 12 14  2  0
 12 15  1  0
 13 16  1  0
 14 17  1  0
 15 18  2  0
 16 19  2  0
 16 20  1  0
 17 21  2  0
 18 21  1  0
 18 22  1  0
 19 23  1  0
 20 24  2  0
 23 25  2  0
 24 25  1  0
 25 26  1  0
M  END
