PAU-WEI-3e86dfd8-1-chloroacetamide
     RDKit          3D

 27 30  0  0  0  0  0  0  0  0999 V2000
    6.9940   -3.0040   18.8690 C   0  0  0  0  0  0  0  0  0  0  0  0
    5.9770   -3.4010   19.9420 C   0  0  0  0  0  0  0  0  0  0  0  0
    5.1930   -4.3330   19.7880 O   0  0  0  0  0  0  0  0  0  0  0  0
    5.9850   -2.6610   21.1170 N   0  0  0  0  0  0  0  0  0  0  0  0
    5.7740   -3.4110   22.3580 C   0  0  0  0  0  0  0  0  0  0  0  0
    6.7620   -1.4230   21.2730 C   0  0  0  0  0  0  0  0  0  0  0  0
    7.0890   -3.6730   23.1050 C   0  0  0  0  0  0  0  0  0  0  0  0
    8.0370   -1.6230   22.1060 C   0  0  0  0  0  0  0  0  0  0  0  0
    7.8300   -2.4350   23.3060 N   0  0  0  0  0  0  0  0  0  0  0  0
    8.8720   -2.3850   24.3210 C   0  0  1  0  0  0  0  0  0  0  0  0
    8.8550   -3.6020   25.2740 C   0  0  0  0  0  0  0  0  0  0  0  0
   10.0910   -1.6090   23.7540 C   0  0  0  0  0  0  0  0  0  0  0  0
    9.7040   -4.6900   25.4350 C   0  0  0  0  0  0  0  0  0  0  0  0
    7.5770   -3.7350   26.3970 S   0  0  0  0  0  0  0  0  0  0  0  0
   11.0940   -2.1800   22.9620 C   0  0  0  0  0  0  0  0  0  0  0  0
   10.1880   -0.2070   24.0050 C   0  0  0  0  0  0  0  0  0  0  0  0
    9.2880   -5.6160   26.4530 C   0  0  0  0  0  0  0  0  0  0  0  0
    8.1360   -5.1740   27.0370 C   0  0  0  0  0  0  0  0  0  0  0  0
   12.1230   -1.3920   22.4660 C   0  0  0  0  0  0  0  0  0  0  0  0
   11.2660    0.5460   23.4740 C   0  0  0  0  0  0  0  0  0  0  0  0
    9.2430    0.5030   24.7530 C   0  0  0  0  0  0  0  0  0  0  0  0
    7.1700   -6.0090   28.4430 Br  0  0  0  0  0  0  0  0  0  0  0  0
   13.2890   -2.0730   21.4810 Cl  0  0  0  0  0  0  0  0  0  0  0  0
   12.2290   -0.0550   22.7210 C   0  0  0  0  0  0  0  0  0  0  0  0
   11.3750    1.9110   23.6720 C   0  0  0  0  0  0  0  0  0  0  0  0
    9.3480    1.8710   24.9350 C   0  0  0  0  0  0  0  0  0  0  0  0
   10.4130    2.5700   24.3870 C   0  0  0  0  0  0  0  0  0  0  0  0
  1  2  1  0
  2  3  2  0
  2  4  1  0
  4  5  1  0
  4  6  1  0
  5  7  1  0
  6  8  1  0
  7  9  1  0
  8  9  1  0
  9 10  1  0
 10 11  1  6
 10 12  1  0
 11 13  2  0
 11 14  1  0
 12 15  2  0
 12 16  1  0
 13 17  1  0
 14 18  1  0
 17 18  2  0
 15 19  1  0
 16 20  2  0
 16 21  1  0
 18 22  1  0
 19 23  1  0
 19 24  2  0
 20 24  1  0
 20 25  1  0
 21 26  2  0
 25 27  2  0
 26 27  1  0
M  END
