PAU-WEI-c6d65c11-1-acrylamide
     RDKit          3D

 26 28  0  0  0  0  0  0  0  0999 V2000
    7.3960   -2.9150   18.9230 C   0  0  0  0  0  0  0  0  0  0  0  0
    6.0270   -2.7180   19.5370 C   0  0  0  0  0  0  0  0  0  0  0  0
    5.6910   -3.9070   20.3980 C   0  0  0  0  0  0  0  0  0  0  0  0
    5.1130   -4.8560   19.9140 O   0  0  0  0  0  0  0  0  0  0  0  0
    6.1490   -3.9260   21.6940 N   0  0  0  0  0  0  0  0  0  0  0  0
    6.0380   -5.1730   22.4150 C   0  0  0  0  0  0  0  0  0  0  0  0
    7.2510   -3.1140   22.1650 C   0  0  0  0  0  0  0  0  0  0  0  0
    5.8210   -4.9320   23.7760 C   0  0  0  0  0  0  0  0  0  0  0  0
    6.9500   -2.6890   23.5860 C   0  0  1  0  0  0  0  0  0  0  0  0
    6.5200   -3.9130   24.4680 C   0  0  1  0  0  0  0  0  0  0  0  0
    8.0380   -1.9710   24.0930 C   0  0  0  0  0  0  0  0  0  0  0  0
    5.8460   -3.3720   25.5550 C   0  0  0  0  0  0  0  0  0  0  0  0
    8.3560   -0.7760   23.4730 C   0  0  0  0  0  0  0  0  0  0  0  0
    4.7330   -2.8710   25.3850 O   0  0  0  0  0  0  0  0  0  0  0  0
    6.4420   -3.4120   26.8060 N   0  0  0  0  0  0  0  0  0  0  0  0
    7.5370   -0.3110   22.4480 C   0  0  0  0  0  0  0  0  0  0  0  0
    7.7970   -3.7840   27.0690 C   0  0  0  0  0  0  0  0  0  0  0  0
    5.6090   -3.2270   27.9730 C   0  0  0  0  0  0  0  0  0  0  0  0
    7.9400   -0.4960   21.1160 C   0  0  0  0  0  0  0  0  0  0  0  0
    6.3200    0.3350   22.7080 C   0  0  0  0  0  0  0  0  0  0  0  0
    8.0460   -4.9730   27.9810 C   0  0  0  0  0  0  0  0  0  0  0  0
    5.5660   -4.4860   28.8360 C   0  0  0  0  0  0  0  0  0  0  0  0
    7.1390   -0.0410   20.0620 C   0  0  0  0  0  0  0  0  0  0  0  0
    5.5230    0.7880   21.6520 C   0  0  0  0  0  0  0  0  0  0  0  0
    6.7520   -5.4310   28.6420 C   0  0  0  0  0  0  0  0  0  0  0  0
    5.9320    0.6000   20.3300 C   0  0  0  0  0  0  0  0  0  0  0  0
  1  2  1  0
  2  3  1  0
  3  4  2  0
  3  5  1  0
  5  6  1  0
  5  7  1  0
  6  8  1  0
  7  9  1  0
  8 10  1  0
  9 10  1  0
  9 11  1  1
 10 12  1  1
 11 13  1  0
 12 14  2  0
 12 15  1  0
 13 16  1  0
 15 17  1  0
 15 18  1  0
 16 19  2  0
 16 20  1  0
 17 21  1  0
 18 22  1  0
 19 23  1  0
 20 24  2  0
 21 25  1  0
 22 25  1  0
 23 26  2  0
 24 26  1  0
M  END
