PAU-WEI-b9b69149-2-bromoalkyne
     RDKit          3D

 28 30  0  0  0  0  0  0  0  0999 V2000
    6.8770   -3.3660   19.6810 C   0  0  0  0  0  0  0  0  0  0  0  0
    5.8360   -2.8760   18.7470 C   0  0  0  0  0  0  0  0  0  0  0  0
    6.8430   -3.0090   21.0100 N   0  0  0  0  0  0  0  0  0  0  0  0
    7.0530   -1.6280   21.4450 C   0  0  0  0  0  0  0  0  0  0  0  0
    6.4810   -3.8980   22.1040 C   0  0  0  0  0  0  0  0  0  0  0  0
    8.4660   -1.7500   22.0800 C   0  0  0  0  0  0  0  0  0  0  0  0
    7.3800   -3.7060   23.3430 C   0  0  0  0  0  0  0  0  0  0  0  0
    8.2910   -2.5290   23.3440 N   0  0  0  0  0  0  0  0  0  0  0  0
    9.5870   -2.7280   24.0200 C   0  0  2  0  0  0  0  0  0  0  0  0
    9.3730   -2.8250   25.5090 C   0  0  0  0  0  0  0  0  0  0  0  0
   10.5750   -1.7790   23.7350 C   0  0  0  0  0  0  0  0  0  0  0  0
    9.7870   -4.2970   25.7740 C   0  0  0  0  0  0  0  0  0  0  0  0
   10.6620   -0.4820   24.5420 C   0  0  0  0  0  0  0  0  0  0  0  0
   11.4260   -2.0670   22.7210 C   0  0  0  0  0  0  0  0  0  0  0  0
    8.5570   -4.7350   26.5990 C   0  0  0  0  0  0  0  0  0  0  0  0
   11.6910    0.3870   24.1490 C   0  0  0  0  0  0  0  0  0  0  0  0
   12.5190   -1.1290   22.3190 C   0  0  0  0  0  0  0  0  0  0  0  0
    8.3700   -4.7170   28.1270 C   0  0  0  0  0  0  0  0  0  0  0  0
    7.4250   -5.2230   25.9080 C   0  0  0  0  0  0  0  0  0  0  0  0
   12.5860    0.1530   23.1350 C   0  0  0  0  0  0  0  0  0  0  0  0
   13.5130   -1.5710   21.0470 Cl  0  0  0  0  0  0  0  0  0  0  0  0
    7.0520   -5.1940   28.7120 C   0  0  0  0  0  0  0  0  0  0  0  0
    6.2470   -5.6420   26.5510 C   0  0  0  0  0  0  0  0  0  0  0  0
    6.0180   -5.6440   27.9290 C   0  0  0  0  0  0  0  0  0  0  0  0
    4.7380   -6.0990   28.5380 C   0  0  0  0  0  0  0  0  0  0  0  0
    4.7920   -6.9750   29.5490 F   0  0  0  0  0  0  0  0  0  0  0  0
    3.9000   -6.6590   27.6190 F   0  0  0  0  0  0  0  0  0  0  0  0
    4.0400   -5.0520   29.0690 F   0  0  0  0  0  0  0  0  0  0  0  0
  1  2  2  3
  1  3  1  0
  3  4  1  0
  3  5  1  0
  4  6  1  0
  5  7  1  0
  6  8  1  0
  7  8  1  0
  8  9  1  0
  9 10  1  1
  9 11  1  0
 10 12  1  0
 11 13  2  0
 11 14  1  0
 12 15  1  0
 13 16  1  0
 14 17  2  0
 15 18  2  0
 15 19  1  0
 16 20  2  0
 17 20  1  0
 17 21  1  0
 18 22  1  0
 19 23  2  0
 22 24  2  0
 23 24  1  0
 24 25  1  0
 25 26  1  0
 25 27  1  0
 25 28  1  0
M  END
