PAU-UNI-52c0427f-1-chloroacetamide
     RDKit          3D

 21 22  0  0  0  0  0  0  0  0999 V2000
    7.1180   -2.9640   18.7670 C   0  0  0  0  0  0  0  0  0  0  0  0
    6.1900   -3.3260   19.8800 C   0  0  0  0  0  0  0  0  0  0  0  0
    5.3210   -4.1770   19.7280 O   0  0  0  0  0  0  0  0  0  0  0  0
    6.3750   -2.6790   21.0730 N   0  0  0  0  0  0  0  0  0  0  0  0
    7.1280   -1.4320   21.1730 C   0  0  0  0  0  0  0  0  0  0  0  0
    6.2610   -3.3880   22.3450 C   0  0  0  0  0  0  0  0  0  0  0  0
    8.3970   -1.6190   21.6570 C   0  0  0  0  0  0  0  0  0  0  0  0
    7.5590   -3.6530   22.8000 C   0  0  0  0  0  0  0  0  0  0  0  0
    8.3930   -2.4550   22.8890 N   0  0  0  0  0  0  0  0  0  0  0  0
    9.5290   -2.6820   23.6420 C   0  0  0  0  0  0  0  0  0  0  0  0
   10.3480   -1.5940   23.6780 C   0  0  0  0  0  0  0  0  0  0  0  0
   11.5780   -1.5700   22.8610 C   0  0  0  0  0  0  0  0  0  0  0  0
   10.0220   -0.4970   24.4550 C   0  0  0  0  0  0  0  0  0  0  0  0
   12.3750   -0.4790   22.8740 C   0  0  0  0  0  0  0  0  0  0  0  0
   10.8710    0.7050   24.4840 N   0  0  0  0  0  0  0  0  0  0  0  0
    8.7610   -0.5730   25.2590 N   0  0  0  0  0  0  0  0  0  0  0  0
   13.5420   -0.6010   22.0050 C   0  0  0  0  0  0  0  0  0  0  0  0
   12.0640    0.6180   23.6390 C   0  0  0  0  0  0  0  0  0  0  0  0
    8.3900    0.6000   26.0250 C   0  0  0  0  0  0  0  0  0  0  0  0
   13.5550   -1.5110   21.0030 N   0  0  0  0  0  0  0  0  0  0  0  0
    8.3420    1.8030   25.0760 C   0  0  0  0  0  0  0  0  0  0  0  0
  1  2  1  0
  2  3  2  0
  2  4  1  0
  4  5  1  0
  4  6  1  0
  5  7  1  0
  6  8  1  0
  7  9  1  0
  8  9  1  0
  9 10  1  0
 10 11  1  0
 11 12  2  0
 11 13  1  0
 12 14  1  0
 13 15  2  0
 13 16  1  0
 14 17  1  0
 14 18  2  0
 15 18  1  0
 16 19  1  0
 17 20  3  0
 19 21  1  0
M  END
