PAU-WEI-b9b69149-4-vinylsulfonamide
     RDKit          3D

 28 30  0  0  0  0  0  0  0  0999 V2000
    7.7540   -3.5850   19.9880 C   0  0  0  0  0  0  0  0  0  0  0  0
    7.1330   -2.6190   18.9950 C   0  0  0  0  0  0  0  0  0  0  0  0
    5.4780   -2.3670   19.5370 S   0  0  0  0  0  0  0  0  0  0  0  0
    4.7730   -3.6370   19.4580 O   0  0  0  0  0  0  0  0  0  0  0  0
    5.0070   -1.1910   18.8430 O   0  0  0  0  0  0  0  0  0  0  0  0
    5.6620   -1.9360   21.1230 N   0  0  0  0  0  0  0  0  0  0  0  0
    6.3410   -0.6880   21.4820 C   0  0  0  0  0  0  0  0  0  0  0  0
    5.5180   -2.9880   22.1560 C   0  0  0  0  0  0  0  0  0  0  0  0
    7.7700   -1.1970   21.8250 C   0  0  0  0  0  0  0  0  0  0  0  0
    6.7850   -3.1800   23.0110 C   0  0  0  0  0  0  0  0  0  0  0  0
    7.5870   -1.9470   23.0820 N   0  0  0  0  0  0  0  0  0  0  0  0
    8.6370   -1.8100   24.0870 C   0  0  2  0  0  0  0  0  0  0  0  0
    8.0790   -0.9970   25.2480 C   0  0  0  0  0  0  0  0  0  0  0  0
    9.9390   -1.1740   23.5830 C   0  0  0  0  0  0  0  0  0  0  0  0
    9.2940   -0.0870   25.4960 C   0  0  0  0  0  0  0  0  0  0  0  0
   10.3530    0.2710   23.9330 C   0  0  0  0  0  0  0  0  0  0  0  0
   10.7940   -1.9210   22.7830 C   0  0  0  0  0  0  0  0  0  0  0  0
   10.4520   -1.1100   25.3670 C   0  0  0  0  0  0  0  0  0  0  0  0
   11.6560    0.8790   23.4370 C   0  0  0  0  0  0  0  0  0  0  0  0
   11.9920   -1.3860   22.3170 C   0  0  0  0  0  0  0  0  0  0  0  0
   10.4510   -2.6500   25.6040 C   0  0  0  0  0  0  0  0  0  0  0  0
   11.9490   -0.7670   24.9400 C   0  0  0  0  0  0  0  0  0  0  0  0
   12.4210    0.0410   22.6620 C   0  0  0  0  0  0  0  0  0  0  0  0
   12.8330   -2.2170   21.4890 C   0  0  0  0  0  0  0  0  0  0  0  0
   11.6880   -3.5110   25.4360 C   0  0  0  0  0  0  0  0  0  0  0  0
   12.9970   -1.6690   24.8150 C   0  0  0  0  0  0  0  0  0  0  0  0
   13.5720   -3.1420   20.6600 N   0  0  0  0  0  0  0  0  0  0  0  0
   12.9150   -3.0190   25.0530 C   0  0  0  0  0  0  0  0  0  0  0  0
  1  2  1  0
  3  2  1  0
  3  4  2  0
  3  5  2  0
  3  6  1  0
  6  7  1  0
  6  8  1  0
  7  9  1  0
  8 10  1  0
  9 11  1  0
 10 11  1  0
 11 12  1  0
 12 13  1  1
 12 14  1  0
 13 15  1  0
 14 16  2  0
 14 17  1  0
 15 18  1  0
 16 19  1  0
 17 20  2  0
 18 21  2  0
 18 22  1  0
 19 23  2  0
 20 23  1  0
 20 24  1  0
 21 25  1  0
 22 26  2  0
 24 27  3  0
 25 28  2  0
 26 28  1  0
M  END
