PAU-WEI-b9b69149-7-vinylsulfonamide
     RDKit          3D

 35 38  0  0  0  0  0  0  0  0999 V2000
    7.5790   -2.9750   18.6040 C   0  0  0  0  0  0  0  0  0  0  0  0
    7.3200   -2.3820   19.9510 C   0  0  0  0  0  0  0  0  0  0  0  0
    6.0900   -3.3660   20.7500 S   0  0  0  0  0  0  0  0  0  0  0  0
    4.9880   -3.5640   19.8550 O   0  0  0  0  0  0  0  0  0  0  0  0
    6.7280   -4.4970   21.3820 O   0  0  0  0  0  0  0  0  0  0  0  0
    5.5970   -2.3510   21.9460 N   0  0  0  0  0  0  0  0  0  0  0  0
    5.7740   -0.8930   21.8130 C   0  0  0  0  0  0  0  0  0  0  0  0
    5.8590   -2.9210   23.2670 C   0  0  0  0  0  0  0  0  0  0  0  0
    7.2960   -0.6580   22.1190 C   0  0  0  0  0  0  0  0  0  0  0  0
    7.2890   -2.5960   23.7240 C   0  0  0  0  0  0  0  0  0  0  0  0
    7.5200   -1.1570   23.4970 N   0  0  0  0  0  0  0  0  0  0  0  0
    8.3050   -0.3040   24.4210 C   0  0  1  0  0  0  0  0  0  0  0  0
    8.6200   -1.0490   25.7270 C   0  0  0  0  0  0  0  0  0  0  0  0
    9.6690    0.0930   23.8740 C   0  0  0  0  0  0  0  0  0  0  0  0
    7.2310   -1.4220   26.2870 C   0  0  0  0  0  0  0  0  0  0  0  0
   10.3440    1.4270   24.1790 C   0  0  0  0  0  0  0  0  0  0  0  0
   10.4020   -0.7490   23.0520 C   0  0  0  0  0  0  0  0  0  0  0  0
    7.5190   -2.8690   26.7630 C   0  0  0  0  0  0  0  0  0  0  0  0
   11.7280    1.7810   23.6390 C   0  0  0  0  0  0  0  0  0  0  0  0
   11.6640   -0.4590   22.5730 C   0  0  0  0  0  0  0  0  0  0  0  0
   10.0870   -1.9760   22.5480 N   0  0  0  0  0  0  0  0  0  0  0  0
    8.3310   -3.9990   26.0590 C   0  0  0  0  0  0  0  0  0  0  0  0
    7.0200   -3.5060   28.1310 C   0  0  0  0  0  0  0  0  0  0  0  0
   12.3560    0.8340   22.8790 C   0  0  0  0  0  0  0  0  0  0  0  0
   12.1160   -1.5680   21.7920 C   0  0  0  0  0  0  0  0  0  0  0  0
   11.1180   -2.4230   21.7890 C   0  0  0  0  0  0  0  0  0  0  0  0
    8.5370   -5.3810   26.6630 C   0  0  0  0  0  0  0  0  0  0  0  0
    7.2800   -4.8080   28.5710 C   0  0  0  0  0  0  0  0  0  0  0  0
   13.2860   -1.8720   21.1110 C   0  0  0  0  0  0  0  0  0  0  0  0
    8.0240   -5.7490   27.8740 C   0  0  0  0  0  0  0  0  0  0  0  0
   13.2260   -3.2770   20.9560 C   0  0  0  0  0  0  0  0  0  0  0  0
   14.2410   -4.0880   20.1670 N   0  0  0  0  0  0  0  0  0  0  0  0
   14.8180   -5.2790   20.6170 C   0  0  0  0  0  0  0  0  0  0  0  0
   15.9880   -5.2670   21.5760 C   0  0  0  0  0  0  0  0  0  0  0  0
   14.4320   -6.3730   20.3330 O   0  0  0  0  0  0  0  0  0  0  0  0
  1  2  1  0
  3  2  1  0
  3  4  2  0
  3  5  2  0
  3  6  1  0
  6  7  1  0
  6  8  1  0
  7  9  1  0
  8 10  1  0
  9 11  1  0
 10 11  1  0
 11 12  1  0
 12 13  1  1
 12 14  1  0
 13 15  1  0
 14 16  2  0
 14 17  1  0
 15 18  1  0
 16 19  1  0
 17 20  2  0
 17 21  1  0
 18 22  2  0
 18 23  1  0
 19 24  2  0
 20 24  1  0
 20 25  1  0
 21 26  1  0
 25 26  2  0
 22 27  1  0
 23 28  2  0
 25 29  1  0
 27 30  2  0
 28 30  1  0
 29 31  1  0
 31 32  1  0
 32 33  1  0
 33 34  1  0
 33 35  2  0
M  END
