PED-UNI-d0b586b3-1-acrylamide
     RDKit          3D

 32 35  0  0  0  0  0  0  0  0999 V2000
    7.3700   -2.9720   18.6570 C   0  0  0  0  0  0  0  0  0  0  0  0
    6.5550   -2.5840   19.6860 C   0  0  0  0  0  0  0  0  0  0  0  0
    5.7050   -3.5770   20.5290 C   0  0  0  0  0  0  0  0  0  0  0  0
    4.9610   -3.8310   19.5760 O   0  0  0  0  0  0  0  0  0  0  0  0
    6.6460   -3.1350   21.4190 N   0  0  0  0  0  0  0  0  0  0  0  0
    6.5050   -3.7010   22.7150 C   0  0  0  0  0  0  0  0  0  0  0  0
    7.3060   -1.8260   21.4200 C   0  0  0  0  0  0  0  0  0  0  0  0
    7.8800   -4.1190   23.1290 C   0  0  0  0  0  0  0  0  0  0  0  0
    8.4540   -1.8280   22.2500 C   0  0  0  0  0  0  0  0  0  0  0  0
    8.9010   -3.0670   22.9490 N   0  0  0  0  0  0  0  0  0  0  0  0
    9.6040   -2.8450   24.1890 C   0  0  2  0  0  0  0  0  0  0  0  0
   10.9890   -2.7780   24.0270 C   0  0  0  0  0  0  0  0  0  0  0  0
    9.2320   -3.9260   25.2140 C   0  0  0  0  0  0  0  0  0  0  0  0
   11.5820   -1.4990   23.9290 C   0  0  1  0  0  0  0  0  0  0  0  0
    9.7910   -5.1730   25.4240 C   0  0  0  0  0  0  0  0  0  0  0  0
    7.9430   -3.7370   26.3490 S   0  0  0  0  0  0  0  0  0  0  0  0
   12.3380   -1.3770   22.7830 C   0  0  0  0  0  0  0  0  0  0  0  0
   10.5720   -0.3920   23.8140 N   0  0  0  0  0  0  0  0  0  0  0  0
    9.2410   -5.9300   26.4290 C   0  0  0  0  0  0  0  0  0  0  0  0
    8.1870   -5.2570   27.0460 C   0  0  0  0  0  0  0  0  0  0  0  0
   13.2130   -0.3320   22.9090 C   0  0  0  0  0  0  0  0  0  0  0  0
   11.1060    0.8560   23.5380 C   0  0  0  0  0  0  0  0  0  0  0  0
    7.1140   -5.8990   28.4790 Br  0  0  0  0  0  0  0  0  0  0  0  0
   12.5560    0.8790   23.0440 C   0  0  0  0  0  0  0  0  0  0  0  0
   10.4050    2.0850   23.6790 C   0  0  0  0  0  0  0  0  0  0  0  0
   13.1820    2.2490   22.7320 C   0  0  0  0  0  0  0  0  0  0  0  0
   10.9320    3.3730   23.3930 C   0  0  0  0  0  0  0  0  0  0  0  0
   12.3730    3.5160   22.8990 C   0  0  0  0  0  0  0  0  0  0  0  0
    9.9510    4.7820   23.5940 S   0  0  0  0  0  0  0  0  0  0  0  0
   10.8650    5.9110   22.7460 N   0  0  0  0  0  0  0  0  0  0  0  0
    9.9380    5.2710   24.9460 O   0  0  0  0  0  0  0  0  0  0  0  0
    8.7380    4.6150   22.8420 O   0  0  0  0  0  0  0  0  0  0  0  0
  1  2  1  0
  2  3  1  0
  3  4  2  0
  3  5  1  0
  5  6  1  0
  5  7  1  0
  6  8  1  0
  7  9  1  0
  8 10  1  0
  9 10  1  0
 10 11  1  0
 11 12  1  6
 11 13  1  0
 14 12  1  6
 13 15  2  0
 13 16  1  0
 14 17  1  0
 14 18  1  0
 15 19  1  0
 16 20  1  0
 19 20  2  0
 17 21  1  0
 18 22  1  0
 20 23  1  0
 21 24  1  0
 22 24  2  0
 22 25  1  0
 24 26  1  0
 25 27  2  0
 26 28  2  0
 27 28  1  0
 27 29  1  0
 29 30  1  0
 29 31  2  0
 29 32  2  0
M  END
