PED-UNI-b79f0f51-2-bromoalkyne
     RDKit          3D

 37 40  0  0  0  0  0  0  0  0999 V2000
    6.7520   -4.5670   20.3030 C   0  0  0  0  0  0  0  0  0  0  0  0
    6.1340   -3.6150   19.5860 C   0  0  0  0  0  0  0  0  0  0  0  0
    6.4700   -4.8690   21.6490 N   0  0  0  0  0  0  0  0  0  0  0  0
    5.8300   -6.1600   22.0600 C   0  0  0  0  0  0  0  0  0  0  0  0
    7.3140   -4.3470   22.7520 C   0  0  0  0  0  0  0  0  0  0  0  0
    5.1090   -6.0670   23.4120 C   0  0  0  0  0  0  0  0  0  0  0  0
    6.4710   -4.1610   24.0230 C   0  0  0  0  0  0  0  0  0  0  0  0
    5.9430   -5.4740   24.4960 N   0  0  0  0  0  0  0  0  0  0  0  0
    5.2990   -5.5110   26.0740 S   0  0  0  0  0  0  0  0  0  0  0  0
    6.3070   -5.0820   27.0080 O   0  0  0  0  0  0  0  0  0  0  0  0
    4.6310   -6.7820   26.2440 O   0  0  0  0  0  0  0  0  0  0  0  0
    4.0600   -4.2520   26.0070 C   0  0  0  0  0  0  0  0  0  0  0  0
    2.7310   -4.5650   26.2670 C   0  0  0  0  0  0  0  0  0  0  0  0
    4.4410   -2.9520   25.6920 C   0  0  0  0  0  0  0  0  0  0  0  0
    1.7770   -3.5500   26.2140 C   0  0  0  0  0  0  0  0  0  0  0  0
    3.5010   -1.9150   25.6250 C   0  0  0  0  0  0  0  0  0  0  0  0
    2.1470   -2.2350   25.8990 C   0  0  0  0  0  0  0  0  0  0  0  0
    4.0460   -0.5320   25.2640 C   0  0  0  0  0  0  0  0  0  0  0  0
    0.8710   -1.0730   25.8680 Cl  0  0  0  0  0  0  0  0  0  0  0  0
    4.0520   -0.1030   23.7540 C   0  0  2  0  0  0  0  0  0  0  0  0
    5.4650    0.2650   23.2520 C   0  0  0  0  0  0  0  0  0  0  0  0
    3.2900    1.1020   23.6850 O   0  0  0  0  0  0  0  0  0  0  0  0
    6.0650    1.3110   24.0730 N   0  0  0  0  0  0  0  0  0  0  0  0
    3.7240    1.9400   24.7620 C   0  0  0  0  0  0  0  0  0  0  0  0
    7.4400    1.4480   24.0620 C   0  0  0  0  0  0  0  0  0  0  0  0
    5.2000    1.7410   25.1740 C   0  0  0  0  0  0  0  0  0  0  0  0
    8.0150    2.2890   23.3760 O   0  0  0  0  0  0  0  0  0  0  0  0
    8.1250    0.5930   24.8770 N   0  0  0  0  0  0  0  0  0  0  0  0
    9.4900    0.8800   25.2370 C   0  0  0  0  0  0  0  0  0  0  0  0
   10.4570    0.2520   24.2850 C   0  0  0  0  0  0  0  0  0  0  0  0
   10.2200   -1.0400   23.8210 C   0  0  0  0  0  0  0  0  0  0  0  0
   11.5980    0.9530   23.8460 C   0  0  0  0  0  0  0  0  0  0  0  0
   11.0880   -1.6290   22.9310 C   0  0  0  0  0  0  0  0  0  0  0  0
   12.4780    0.3610   22.9540 C   0  0  0  0  0  0  0  0  0  0  0  0
   12.2030   -0.9310   22.5010 C   0  0  0  0  0  0  0  0  0  0  0  0
   13.0330   -1.5670   21.5830 C   0  0  0  0  0  0  0  0  0  0  0  0
   13.6210   -2.0660   20.7710 N   0  0  0  0  0  0  0  0  0  0  0  0
  1  2  2  3
  1  3  1  0
  3  4  1  0
  3  5  1  0
  4  6  1  0
  5  7  1  0
  6  8  1  0
  7  8  1  0
  8  9  1  0
  9 10  2  0
  9 11  2  0
  9 12  1  0
 12 13  2  0
 12 14  1  0
 13 15  1  0
 14 16  2  0
 15 17  2  0
 16 17  1  0
 16 18  1  0
 17 19  1  0
 20 18  1  1
 20 21  1  0
 20 22  1  0
 21 23  1  0
 22 24  1  0
 23 25  1  0
 23 26  1  0
 24 26  1  0
 25 27  2  0
 25 28  1  0
 28 29  1  0
 29 30  1  0
 30 31  2  0
 30 32  1  0
 31 33  1  0
 32 34  2  0
 33 35  2  0
 34 35  1  0
 35 36  1  0
 36 37  3  0
M  END
