PED-UNI-b79f0f51-2-chloroacetamide
     RDKit          3D

 38 41  0  0  0  0  0  0  0  0999 V2000
    7.7190   -3.6430   20.3010 C   0  0  0  0  0  0  0  0  0  0  0  0
    6.5260   -4.5190   20.6840 C   0  0  0  0  0  0  0  0  0  0  0  0
    5.5130   -4.6690   19.9810 O   0  0  0  0  0  0  0  0  0  0  0  0
    6.6760   -5.1740   21.8980 N   0  0  0  0  0  0  0  0  0  0  0  0
    7.4420   -4.5210   22.9610 C   0  0  0  0  0  0  0  0  0  0  0  0
    5.8300   -6.3150   22.2600 C   0  0  0  0  0  0  0  0  0  0  0  0
    6.5100   -4.1210   24.0730 C   0  0  0  0  0  0  0  0  0  0  0  0
    5.0200   -6.0680   23.5390 C   0  0  0  0  0  0  0  0  0  0  0  0
    5.8430   -5.3480   24.5760 N   0  0  0  0  0  0  0  0  0  0  0  0
    5.2660   -5.3920   26.1400 S   0  0  0  0  0  0  0  0  0  0  0  0
    4.6340   -6.6810   26.3150 O   0  0  0  0  0  0  0  0  0  0  0  0
    6.3390   -4.9680   26.9950 O   0  0  0  0  0  0  0  0  0  0  0  0
    4.0190   -4.1340   26.2730 C   0  0  0  0  0  0  0  0  0  0  0  0
    2.9930   -4.3760   27.1500 C   0  0  0  0  0  0  0  0  0  0  0  0
    4.0330   -2.9380   25.5550 C   0  0  0  0  0  0  0  0  0  0  0  0
    1.9710   -3.4530   27.3200 C   0  0  0  0  0  0  0  0  0  0  0  0
    2.9870   -1.9920   25.7410 C   0  0  0  0  0  0  0  0  0  0  0  0
    1.9660   -2.2770   26.6200 C   0  0  0  0  0  0  0  0  0  0  0  0
    2.8900   -0.6550   25.0480 C   0  0  0  0  0  0  0  0  0  0  0  0
    0.6550   -1.1870   26.8820 Cl  0  0  0  0  0  0  0  0  0  0  0  0
    4.0100   -0.1520   24.1180 C   0  0  2  0  0  0  0  0  0  0  0  0
    5.2770    0.5010   24.7270 C   0  0  0  0  0  0  0  0  0  0  0  0
    3.4000    0.7770   23.2070 O   0  0  0  0  0  0  0  0  0  0  0  0
    6.1890    1.0530   23.7010 N   0  0  0  0  0  0  0  0  0  0  0  0
    4.2510    1.0830   22.1150 C   0  0  0  0  0  0  0  0  0  0  0  0
    7.4770    1.3910   24.0990 C   0  0  0  0  0  0  0  0  0  0  0  0
    5.5360    1.7480   22.5860 C   0  0  0  0  0  0  0  0  0  0  0  0
    8.0030    2.4460   23.7520 O   0  0  0  0  0  0  0  0  0  0  0  0
    8.1370    0.4970   24.8830 N   0  0  0  0  0  0  0  0  0  0  0  0
    9.4800    0.7920   25.2920 C   0  0  0  0  0  0  0  0  0  0  0  0
   10.4490    0.2020   24.3220 C   0  0  0  0  0  0  0  0  0  0  0  0
   11.5760    0.9210   23.8910 C   0  0  0  0  0  0  0  0  0  0  0  0
   10.2100   -1.0820   23.8470 C   0  0  0  0  0  0  0  0  0  0  0  0
   12.4520    0.3470   22.9850 C   0  0  0  0  0  0  0  0  0  0  0  0
   11.0780   -1.6540   22.9410 C   0  0  0  0  0  0  0  0  0  0  0  0
   12.1850   -0.9360   22.5180 C   0  0  0  0  0  0  0  0  0  0  0  0
   13.0290   -1.5410   21.5900 C   0  0  0  0  0  0  0  0  0  0  0  0
   13.6230   -2.0050   20.7650 N   0  0  0  0  0  0  0  0  0  0  0  0
  1  2  1  0
  2  3  2  0
  2  4  1  0
  4  5  1  0
  4  6  1  0
  5  7  1  0
  6  8  1  0
  7  9  1  0
  8  9  1  0
  9 10  1  0
 10 11  2  0
 10 12  2  0
 10 13  1  0
 13 14  2  0
 13 15  1  0
 14 16  1  0
 15 17  2  0
 16 18  2  0
 17 18  1  0
 17 19  1  0
 18 20  1  0
 21 19  1  1
 21 22  1  0
 21 23  1  0
 22 24  1  0
 23 25  1  0
 24 26  1  0
 24 27  1  0
 25 27  1  0
 26 28  2  0
 26 29  1  0
 29 30  1  0
 30 31  1  0
 31 32  2  0
 31 33  1  0
 32 34  1  0
 33 35  2  0
 34 36  2  0
 35 36  1  0
 36 37  1  0
 37 38  3  0
M  END
