PED-UNI-d0b586b3-1-vinylsulfonamide
     RDKit          3D

 33 36  0  0  0  0  0  0  0  0999 V2000
    7.6410   -3.0490   18.4990 C   0  0  0  0  0  0  0  0  0  0  0  0
    7.3180   -2.1610   19.3960 C   0  0  0  0  0  0  0  0  0  0  0  0
    5.7190   -2.5190   20.1070 S   0  0  0  0  0  0  0  0  0  0  0  0
    5.0950   -3.8410   19.8310 O   0  0  0  0  0  0  0  0  0  0  0  0
    4.9580   -1.3010   19.9540 O   0  0  0  0  0  0  0  0  0  0  0  0
    6.2370   -2.5370   21.6980 N   0  0  0  0  0  0  0  0  0  0  0  0
    6.3660   -3.8600   22.2930 C   0  0  0  0  0  0  0  0  0  0  0  0
    7.2620   -1.5260   22.0170 C   0  0  0  0  0  0  0  0  0  0  0  0
    7.4250   -3.8270   23.3810 C   0  0  0  0  0  0  0  0  0  0  0  0
    8.5580   -2.0350   22.2050 C   0  0  0  0  0  0  0  0  0  0  0  0
    8.6670   -3.1290   23.0290 N   0  0  0  0  0  0  0  0  0  0  0  0
    9.4580   -2.9010   24.2280 C   0  0  2  0  0  0  0  0  0  0  0  0
   10.9390   -2.7680   23.9240 C   0  0  0  0  0  0  0  0  0  0  0  0
    9.1550   -4.0050   25.2340 C   0  0  0  0  0  0  0  0  0  0  0  0
   11.5400   -1.4950   23.8130 C   0  0  1  0  0  0  0  0  0  0  0  0
    9.7070   -5.2610   25.4300 C   0  0  0  0  0  0  0  0  0  0  0  0
    7.8990   -3.7860   26.4050 S   0  0  0  0  0  0  0  0  0  0  0  0
   12.4790   -1.4440   22.8020 C   0  0  0  0  0  0  0  0  0  0  0  0
   10.6910   -0.4140   23.8620 N   0  0  0  0  0  0  0  0  0  0  0  0
    9.1570   -5.9780   26.4540 C   0  0  0  0  0  0  0  0  0  0  0  0
    8.1360   -5.3090   27.1020 C   0  0  0  0  0  0  0  0  0  0  0  0
   13.2500   -0.3260   22.7710 C   0  0  0  0  0  0  0  0  0  0  0  0
   11.2610    0.8410   23.5210 C   0  0  0  0  0  0  0  0  0  0  0  0
    7.0870   -5.9280   28.5630 Br  0  0  0  0  0  0  0  0  0  0  0  0
   12.5730    0.8630   22.9660 C   0  0  0  0  0  0  0  0  0  0  0  0
   10.5340    2.0520   23.7270 C   0  0  0  0  0  0  0  0  0  0  0  0
   13.1840    2.0760   22.6130 C   0  0  0  0  0  0  0  0  0  0  0  0
   11.1250    3.4610   23.3530 C   0  0  0  0  0  0  0  0  0  0  0  0
   12.5280    3.4310   22.7690 C   0  0  0  0  0  0  0  0  0  0  0  0
   10.2010    4.8990   23.6030 S   0  0  0  0  0  0  0  0  0  0  0  0
   11.0530    5.9930   22.6530 N   0  0  0  0  0  0  0  0  0  0  0  0
   10.3450    5.4120   24.9390 O   0  0  0  0  0  0  0  0  0  0  0  0
    8.9030    4.7340   23.0020 O   0  0  0  0  0  0  0  0  0  0  0  0
  1  2  1  0
  3  2  1  0
  3  4  2  0
  3  5  2  0
  3  6  1  0
  6  7  1  0
  6  8  1  0
  7  9  1  0
  8 10  1  0
  9 11  1  0
 10 11  1  0
 11 12  1  0
 12 13  1  6
 12 14  1  0
 15 13  1  6
 14 16  2  0
 14 17  1  0
 15 18  1  0
 15 19  1  0
 16 20  1  0
 17 21  1  0
 20 21  2  0
 18 22  1  0
 19 23  1  0
 21 24  1  0
 22 25  1  0
 23 25  2  0
 23 26  1  0
 25 27  1  0
 26 28  2  0
 27 29  2  0
 28 29  1  0
 28 30  1  0
 30 31  1  0
 30 32  2  0
 30 33  2  0
M  END
