PED-UNI-d0b586b3-1-bromoalkyne
     RDKit          3D

 30 33  0  0  0  0  0  0  0  0999 V2000
    6.9130   -3.3040   19.5640 C   0  0  0  0  0  0  0  0  0  0  0  0
    6.0380   -2.8590   18.6810 C   0  0  0  0  0  0  0  0  0  0  0  0
    6.8180   -2.9780   20.9120 N   0  0  0  0  0  0  0  0  0  0  0  0
    6.4920   -3.9260   21.9840 C   0  0  0  0  0  0  0  0  0  0  0  0
    7.4690   -1.7350   21.3560 C   0  0  0  0  0  0  0  0  0  0  0  0
    7.7120   -4.0390   22.9140 C   0  0  0  0  0  0  0  0  0  0  0  0
    8.6240   -1.9850   22.0950 C   0  0  0  0  0  0  0  0  0  0  0  0
    8.3520   -2.7430   23.2000 N   0  0  0  0  0  0  0  0  0  0  0  0
    9.3970   -2.8020   24.2260 C   0  0  2  0  0  0  0  0  0  0  0  0
   10.8190   -2.7570   23.6910 C   0  0  0  0  0  0  0  0  0  0  0  0
    9.1330   -3.9340   25.2140 C   0  0  0  0  0  0  0  0  0  0  0  0
   11.4980   -1.5140   23.7260 C   0  0  1  0  0  0  0  0  0  0  0  0
    9.7510   -5.1730   25.3900 C   0  0  0  0  0  0  0  0  0  0  0  0
    7.8660   -3.7910   26.3750 S   0  0  0  0  0  0  0  0  0  0  0  0
   12.4170   -1.4480   22.6790 C   0  0  0  0  0  0  0  0  0  0  0  0
   10.6650   -0.4210   23.8370 N   0  0  0  0  0  0  0  0  0  0  0  0
    9.2160   -5.9270   26.4090 C   0  0  0  0  0  0  0  0  0  0  0  0
    8.1620   -5.3020   27.0530 C   0  0  0  0  0  0  0  0  0  0  0  0
   13.2110   -0.3390   22.8210 C   0  0  0  0  0  0  0  0  0  0  0  0
   11.2370    0.8360   23.5180 C   0  0  0  0  0  0  0  0  0  0  0  0
    7.1200   -5.9580   28.5030 Br  0  0  0  0  0  0  0  0  0  0  0  0
   12.5500    0.8620   22.9940 C   0  0  0  0  0  0  0  0  0  0  0  0
   10.5310    2.0480   23.7070 C   0  0  0  0  0  0  0  0  0  0  0  0
   13.2150    2.0570   22.6380 C   0  0  0  0  0  0  0  0  0  0  0  0
   11.1290    3.4450   23.3560 C   0  0  0  0  0  0  0  0  0  0  0  0
   12.5440    3.4240   22.7940 C   0  0  0  0  0  0  0  0  0  0  0  0
   10.2100    4.8860   23.5980 S   0  0  0  0  0  0  0  0  0  0  0  0
   11.0370    5.9740   22.6290 N   0  0  0  0  0  0  0  0  0  0  0  0
    8.8980    4.7320   23.0250 O   0  0  0  0  0  0  0  0  0  0  0  0
   10.4050    5.3580   24.9390 O   0  0  0  0  0  0  0  0  0  0  0  0
  1  2  2  3
  1  3  1  0
  3  4  1  0
  3  5  1  0
  4  6  1  0
  5  7  1  0
  6  8  1  0
  7  8  1  0
  8  9  1  0
  9 10  1  6
  9 11  1  0
 12 10  1  6
 11 13  2  0
 11 14  1  0
 12 15  1  0
 12 16  1  0
 13 17  1  0
 14 18  1  0
 17 18  2  0
 15 19  1  0
 16 20  1  0
 18 21  1  0
 19 22  1  0
 20 22  2  0
 20 23  1  0
 22 24  1  0
 23 25  2  0
 24 26  2  0
 25 26  1  0
 25 27  1  0
 27 28  1  0
 27 29  2  0
 27 30  2  0
M  END
