PET-SGC-f818f65b-1
     RDKit          3D

 23 24  0  0  0  0  0  0  0  0999 V2000
    9.0540    6.6390   22.5910 C   0  0  0  0  0  0  0  0  0  0  0  0
   10.2120    6.2030   23.4370 C   0  0  0  0  0  0  0  0  0  0  0  0
   10.2600    6.3390   24.6570 O   0  0  0  0  0  0  0  0  0  0  0  0
   11.2430    5.6020   22.6230 N   0  0  0  0  0  0  0  0  0  0  0  0
   12.3640    4.9140   23.1930 C   0  0  0  0  0  0  0  0  0  0  0  0
   12.6210    3.6050   22.7970 C   0  0  0  0  0  0  0  0  0  0  0  0
   11.7210    2.5750   23.1280 C   0  0  0  0  0  0  0  0  0  0  0  0
   10.4750    2.7690   23.7120 C   0  0  0  0  0  0  0  0  0  0  0  0
   11.7820    1.1080   22.9610 C   0  0  0  0  0  0  0  0  0  0  0  0
    9.8150    1.5820   23.8750 N   0  0  0  0  0  0  0  0  0  0  0  0
   10.5550    0.5740   23.4230 C   0  0  0  0  0  0  0  0  0  0  0  0
   12.7380    0.1980   22.4590 C   0  0  0  0  0  0  0  0  0  0  0  0
   10.2110   -0.9070   23.3700 C   0  0  0  0  0  0  0  0  0  0  0  0
   12.4860   -1.1840   22.3680 C   0  0  0  0  0  0  0  0  0  0  0  0
    8.9020   -1.5990   23.8330 C   0  0  0  0  0  0  0  0  0  0  0  0
   11.2920   -1.7850   22.7770 C   0  0  0  0  0  0  0  0  0  0  0  0
   13.4520   -1.9380   21.8520 F   0  0  0  0  0  0  0  0  0  0  0  0
    9.1130   -3.1290   24.0340 C   0  0  0  0  0  0  0  0  0  0  0  0
    7.9890   -3.7720   24.5690 N   0  0  0  0  0  0  0  0  0  0  0  0
    8.1160   -4.4660   26.1090 S   0  0  0  0  0  0  0  0  0  0  0  0
    6.5400   -5.2730   26.3170 C   0  0  0  0  0  0  0  0  0  0  0  0
    9.1390   -5.4760   25.9550 O   0  0  0  0  0  0  0  0  0  0  0  0
    8.1870   -3.4010   27.0790 O   0  0  0  0  0  0  0  0  0  0  0  0
  1  2  1  0
  2  3  2  0
  2  4  1  0
  4  5  1  0
  5  6  1  0
  6  7  1  0
  7  8  2  0
  7  9  1  0
  8 10  1  0
  9 11  2  0
 10 11  1  0
  9 12  1  0
 11 13  1  0
 12 14  2  0
 13 15  1  0
 13 16  2  0
 14 16  1  0
 14 17  1  0
 15 18  1  0
 18 19  1  0
 20 19  1  0
 20 21  1  0
 20 22  2  0
 20 23  2  0
M  END
