PET-SGC-1c3a473d-1
     RDKit          3D

 27 29  0  0  0  0  0  0  0  0999 V2000
    8.9300    6.7150   22.5830 C   0  0  0  0  0  0  0  0  0  0  0  0
   10.1090    6.1890   23.3490 C   0  0  0  0  0  0  0  0  0  0  0  0
   10.2320    6.3320   24.5660 O   0  0  0  0  0  0  0  0  0  0  0  0
   11.0140    5.5430   22.5600 N   0  0  0  0  0  0  0  0  0  0  0  0
   12.4250    5.4950   22.9290 C   0  0  0  0  0  0  0  0  0  0  0  0
   13.0060    4.0770   22.8700 C   0  0  0  0  0  0  0  0  0  0  0  0
   11.9770    2.9150   22.9830 C   0  0  0  0  0  0  0  0  0  0  0  0
   10.5220    3.1150   23.2590 C   0  0  0  0  0  0  0  0  0  0  0  0
   12.0710    1.4460   22.8590 C   0  0  0  0  0  0  0  0  0  0  0  0
    9.8820    1.9050   23.2660 N   0  0  0  0  0  0  0  0  0  0  0  0
   10.7660    0.8930   23.0220 C   0  0  0  0  0  0  0  0  0  0  0  0
   13.1510    0.4020   22.5990 C   0  0  0  0  0  0  0  0  0  0  0  0
   10.3200   -0.4110   22.9690 C   0  0  0  0  0  0  0  0  0  0  0  0
   12.7330   -1.0690   22.5250 C   0  0  0  0  0  0  0  0  0  0  0  0
    8.9600   -0.7050   23.1410 C   0  0  0  0  0  0  0  0  0  0  0  0
   11.2680   -1.4120   22.7240 C   0  0  0  0  0  0  0  0  0  0  0  0
   13.5950   -2.0390   22.2900 F   0  0  0  0  0  0  0  0  0  0  0  0
    8.2930   -0.6430   21.8790 C   0  0  0  0  0  0  0  0  0  0  0  0
    8.8600    0.3390   21.3820 O   0  0  0  0  0  0  0  0  0  0  0  0
    7.5260   -1.0010   21.0930 N   0  0  0  0  0  0  0  0  0  0  0  0
    6.7780   -0.2530   20.2510 C   0  0  0  0  0  0  0  0  0  0  0  0
    7.1040   -0.3140   18.7720 C   0  0  0  0  0  0  0  0  0  0  0  0
    5.6720    0.5870   20.7490 C   0  0  0  0  0  0  0  0  0  0  0  0
    6.4020    0.4010   17.7990 N   0  0  0  0  0  0  0  0  0  0  0  0
    4.9210    1.3580   19.6390 C   0  0  0  0  0  0  0  0  0  0  0  0
    5.3390    0.6550   22.2030 C   0  0  0  0  0  0  0  0  0  0  0  0
    5.3040    1.2510   18.1700 C   0  0  0  0  0  0  0  0  0  0  0  0
  1  2  1  0
  2  3  2  0
  2  4  1  0
  4  5  1  0
  5  6  1  0
  6  7  1  0
  7  8  2  0
  7  9  1  0
  8 10  1  0
  9 11  2  0
 10 11  1  0
  9 12  1  0
 11 13  1  0
 12 14  2  0
 13 15  1  0
 13 16  2  0
 14 16  1  0
 14 17  1  0
 15 18  1  0
 18 19  2  0
 18 20  1  0
 20 21  1  0
 21 22  2  0
 21 23  1  0
 22 24  1  0
 23 25  2  0
 23 26  1  0
 24 27  2  0
 25 27  1  0
M  END
