PET-SGC-708ec5d8-1-vinylsulfonamide
     RDKit          3D

 22 23  0  0  0  0  0  0  0  0999 V2000
    7.2590   -4.8780   20.5850 C   0  0  0  0  0  0  0  0  0  0  0  0
    7.5240   -3.8160   21.5420 C   0  0  0  0  0  0  0  0  0  0  0  0
    6.6190   -2.4050   20.9910 S   0  0  0  0  0  0  0  0  0  0  0  0
    5.0350   -3.1610   21.1700 O   0  0  0  0  0  0  0  0  0  0  0  0
    6.8950   -1.9060   19.6610 O   0  0  0  0  0  0  0  0  0  0  0  0
    8.0840   -1.4650   21.9530 C   0  0  0  0  0  0  0  0  0  0  0  0
    8.6290   -2.5650   22.9580 C   0  0  0  0  0  0  0  0  0  0  0  0
    8.5940   -0.0040   21.7530 C   0  0  0  0  0  0  0  0  0  0  0  0
    9.7600   -1.8140   23.7160 C   0  0  0  0  0  0  0  0  0  0  0  0
    9.7480    0.4670   22.6690 C   0  0  0  0  0  0  0  0  0  0  0  0
   10.2140   -0.4100   23.5360 C   0  0  0  0  0  0  0  0  0  0  0  0
   10.4020    1.8520   22.7110 C   0  0  0  0  0  0  0  0  0  0  0  0
   10.4630    3.1570   22.2210 C   0  0  0  0  0  0  0  0  0  0  0  0
   11.2970    1.5020   23.7710 C   0  0  0  0  0  0  0  0  0  0  0  0
   11.0940    0.1860   24.1820 N   0  0  0  0  0  0  0  0  0  0  0  0
   11.5820    4.0490   22.5880 C   0  0  0  0  0  0  0  0  0  0  0  0
   11.6070   -0.4770   25.1290 C   0  0  0  0  0  0  0  0  0  0  0  0
   11.2050    5.4330   22.3580 N   0  0  0  0  0  0  0  0  0  0  0  0
   10.3310   -0.4320   25.9820 C   0  0  0  0  0  0  0  0  0  0  0  0
   10.3530    6.0430   23.2590 C   0  0  0  0  0  0  0  0  0  0  0  0
    9.1740    6.5740   22.7010 C   0  0  0  0  0  0  0  0  0  0  0  0
   10.5050    6.1800   24.4730 O   0  0  0  0  0  0  0  0  0  0  0  0
  1  2  1  0
  3  2  1  0
  3  4  2  0
  3  5  2  0
  3  6  1  0
  6  7  2  0
  6  8  1  0
  7  9  1  0
  8 10  2  0
  9 11  2  0
 10 11  1  0
 10 12  1  0
 12 13  1  0
 12 14  2  0
 11 15  1  0
 14 15  1  0
 13 16  1  0
 15 17  1  0
 16 18  1  0
 17 19  1  0
 18 20  1  0
 20 21  1  0
 20 22  2  0
M  END
