PET-SGC-708ec5d8-1-acrylamide
     RDKit          3D

 21 22  0  0  0  0  0  0  0  0999 V2000
    6.3320   -4.8430   20.1670 C   0  0  0  0  0  0  0  0  0  0  0  0
    6.8380   -3.7350   21.0440 C   0  0  0  0  0  0  0  0  0  0  0  0
    5.7080   -2.8520   21.4790 C   0  0  0  0  0  0  0  0  0  0  0  0
    4.6550   -3.3490   21.9030 O   0  0  0  0  0  0  0  0  0  0  0  0
    5.9120   -1.3610   21.3820 C   0  0  0  0  0  0  0  0  0  0  0  0
    7.1970   -1.3000   21.9010 C   0  0  0  0  0  0  0  0  0  0  0  0
    6.8570   -0.2200   21.6300 C   0  0  0  0  0  0  0  0  0  0  0  0
    8.2050   -2.1230   22.4150 C   0  0  0  0  0  0  0  0  0  0  0  0
    8.4430   -0.3660   22.2990 C   0  0  0  0  0  0  0  0  0  0  0  0
    9.4270   -1.5480   22.8420 C   0  0  0  0  0  0  0  0  0  0  0  0
    8.6520    1.1610   22.2070 C   0  0  0  0  0  0  0  0  0  0  0  0
    9.2420    2.4950   22.2940 C   0  0  0  0  0  0  0  0  0  0  0  0
    9.9530    0.7600   22.7810 C   0  0  0  0  0  0  0  0  0  0  0  0
    9.9980   -0.3820   22.9340 N   0  0  0  0  0  0  0  0  0  0  0  0
    8.4470    3.3950   23.0310 C   0  0  0  0  0  0  0  0  0  0  0  0
    8.6900   -0.0320   22.3930 C   0  0  0  0  0  0  0  0  0  0  0  0
    8.4490    4.6630   22.3360 N   0  0  0  0  0  0  0  0  0  0  0  0
    7.7610    0.5080   23.5360 C   0  0  0  0  0  0  0  0  0  0  0  0
    8.3330    5.8680   22.9860 C   0  0  0  0  0  0  0  0  0  0  0  0
    8.6680    6.9700   22.1710 C   0  0  0  0  0  0  0  0  0  0  0  0
    7.9370    6.0120   24.2880 O   0  0  0  0  0  0  0  0  0  0  0  0
  1  2  1  0
  2  3  1  0
  3  4  2  0
  3  5  1  0
  5  6  2  0
  5  7  1  0
  6  8  1  0
  7  9  2  0
  8 10  2  0
  9 10  1  0
  9 11  1  0
 11 12  1  0
 11 13  2  0
 10 14  1  0
 13 14  1  0
 12 15  1  0
 14 16  1  0
 15 17  1  0
 16 18  1  0
 17 19  1  0
 19 20  1  0
 19 21  2  0
M  END
