PET-SGC-f147f0b6-1-acrylamide
     RDKit          3D

 20 21  0  0  0  0  0  0  0  0999 V2000
    6.7100   -3.5420   19.4260 C   0  0  0  0  0  0  0  0  0  0  0  0
    6.8530   -2.5110   20.5080 C   0  0  0  0  0  0  0  0  0  0  0  0
    6.4410   -3.0720   21.8630 C   0  0  0  0  0  0  0  0  0  0  0  0
    5.1680   -3.5440   21.2970 O   0  0  0  0  0  0  0  0  0  0  0  0
    7.9380   -2.4030   22.0990 C   0  0  0  0  0  0  0  0  0  0  0  0
    9.1150   -1.4240   22.8310 C   0  0  0  0  0  0  0  0  0  0  0  0
    9.0090   -2.4220   21.6500 C   0  0  0  0  0  0  0  0  0  0  0  0
   10.4790   -0.7370   23.1170 N   0  0  0  0  0  0  0  0  0  0  0  0
    9.3620   -1.4740   22.6910 C   0  0  0  0  0  0  0  0  0  0  0  0
    9.6090   -0.5220   23.7850 C   0  0  0  0  0  0  0  0  0  0  0  0
    8.0490   -1.6270   23.1630 C   0  0  0  0  0  0  0  0  0  0  0  0
    9.2900    0.2140   24.8770 N   0  0  0  0  0  0  0  0  0  0  0  0
    7.9330   -1.6260   24.6260 C   0  0  0  0  0  0  0  0  0  0  0  0
    7.9120    0.5030   25.2880 C   0  0  0  0  0  0  0  0  0  0  0  0
    7.8740   -1.8770   25.9550 N   0  0  0  0  0  0  0  0  0  0  0  0
    8.2830   -3.4820   24.4140 S   0  0  0  0  0  0  0  0  0  0  0  0
    7.9220    0.3870   26.8140 C   0  0  0  0  0  0  0  0  0  0  0  0
    8.1100   -2.9710   25.5160 N   0  0  0  0  0  0  0  0  0  0  0  0
    8.2840   -4.1110   26.0500 C   0  0  0  0  0  0  0  0  0  0  0  0
    8.5560   -5.4520   25.7870 C   0  0  0  0  0  0  0  0  0  0  0  0
  1  2  1  0
  2  3  1  0
  3  4  2  0
  3  5  1  0
  5  6  2  0
  5  7  1  0
  6  8  1  0
  7  9  2  0
  8 10  2  0
  9 10  1  0
  9 11  1  0
 10 12  1  0
 11 13  1  0
 12 14  1  0
 13 15  2  0
 13 16  1  0
 14 17  1  0
 15 18  1  0
 16 19  1  0
 18 19  2  0
 19 20  1  0
M  END
