PET-SGC-abcbce68-1
     RDKit          3D

 22 23  0  0  0  0  0  0  0  0999 V2000
    6.4890   -5.2630   26.5040 C   0  0  0  0  0  0  0  0  0  0  0  0
    8.1450   -4.6780   26.2070 S   0  0  0  0  0  0  0  0  0  0  0  0
    8.5330   -3.9350   27.3670 O   0  0  0  0  0  0  0  0  0  0  0  0
    8.9530   -5.7670   25.7170 O   0  0  0  0  0  0  0  0  0  0  0  0
    7.9380   -3.5610   24.9710 N   0  0  0  0  0  0  0  0  0  0  0  0
    9.1130   -3.1590   24.1920 C   0  0  0  0  0  0  0  0  0  0  0  0
    8.8900   -1.8030   23.5220 C   0  0  0  0  0  0  0  0  0  0  0  0
    9.3160   -0.6220   24.3940 C   0  0  0  0  0  0  0  0  0  0  0  0
   10.7170   -0.3280   24.1650 N   0  0  0  0  0  0  0  0  0  0  0  0
   11.5900   -1.5030   24.0000 C   0  0  0  0  0  0  0  0  0  0  0  0
   11.1840    0.9320   23.7650 C   0  0  0  0  0  0  0  0  0  0  0  0
   12.4070   -1.3830   22.7290 C   0  0  0  0  0  0  0  0  0  0  0  0
   12.4440    1.0470   23.1820 C   0  0  0  0  0  0  0  0  0  0  0  0
   10.4210    2.2440   23.9110 C   0  0  0  0  0  0  0  0  0  0  0  0
   13.2670   -0.1810   22.9770 C   0  0  0  0  0  0  0  0  0  0  0  0
   12.9600    2.2920   22.7850 C   0  0  0  0  0  0  0  0  0  0  0  0
   10.9910    3.4540   23.4780 C   0  0  0  0  0  0  0  0  0  0  0  0
   12.2610    3.4800   22.9180 C   0  0  0  0  0  0  0  0  0  0  0  0
   10.0910    4.9800   23.6420 S   0  0  0  0  0  0  0  0  0  0  0  0
   11.2570    6.1140   23.1920 N   0  0  0  0  0  0  0  0  0  0  0  0
    9.0450    4.9940   22.6600 O   0  0  0  0  0  0  0  0  0  0  0  0
    9.7890    5.2790   25.0120 O   0  0  0  0  0  0  0  0  0  0  0  0
  1  2  1  0
  2  3  2  0
  2  4  2  0
  2  5  1  0
  5  6  1  0
  6  7  1  0
  7  8  1  0
  8  9  1  0
  9 10  1  0
  9 11  1  0
 10 12  1  0
 11 13  2  0
 11 14  1  0
 12 15  1  0
 13 15  1  0
 13 16  1  0
 14 17  2  0
 16 18  2  0
 17 18  1  0
 17 19  1  0
 19 20  1  0
 19 21  2  0
 19 22  2  0
M  END
