PET-SGC-05cff2e1-1
     RDKit          3D

 26 28  0  0  0  0  0  0  0  0999 V2000
    5.2510    0.8710   22.0070 C   0  0  0  0  0  0  0  0  0  0  0  0
    5.6170    0.6360   20.5730 C   0  0  0  0  0  0  0  0  0  0  0  0
    4.7990    1.0700   19.5290 C   0  0  0  0  0  0  0  0  0  0  0  0
    6.7890   -0.0150   20.1670 C   0  0  0  0  0  0  0  0  0  0  0  0
    5.0910    0.8910   18.1970 C   0  0  0  0  0  0  0  0  0  0  0  0
    7.0270   -0.1820   18.6950 C   0  0  0  0  0  0  0  0  0  0  0  0
    7.7000   -0.4730   21.0890 N   0  0  0  0  0  0  0  0  0  0  0  0
    6.1910    0.2700   17.7490 N   0  0  0  0  0  0  0  0  0  0  0  0
    8.4310    0.3810   21.8040 C   0  0  0  0  0  0  0  0  0  0  0  0
    9.1290    1.4650   21.3000 O   0  0  0  0  0  0  0  0  0  0  0  0
    8.4380    0.1530   23.3220 C   0  0  0  0  0  0  0  0  0  0  0  0
    9.3180   -1.0090   23.7020 C   0  0  0  0  0  0  0  0  0  0  0  0
   10.5530   -0.7020   23.2340 N   0  0  0  0  0  0  0  0  0  0  0  0
   11.3400   -1.8030   23.3040 C   0  0  0  0  0  0  0  0  0  0  0  0
   11.1320    0.6630   23.1150 C   0  0  0  0  0  0  0  0  0  0  0  0
   12.6210   -1.6820   22.5080 C   0  0  0  0  0  0  0  0  0  0  0  0
   12.5230    0.7700   22.8750 C   0  0  0  0  0  0  0  0  0  0  0  0
   10.4090    1.9330   23.2420 C   0  0  0  0  0  0  0  0  0  0  0  0
   13.3100   -0.3500   22.7320 C   0  0  0  0  0  0  0  0  0  0  0  0
   13.0680    2.1720   22.7880 C   0  0  0  0  0  0  0  0  0  0  0  0
   10.9700    3.2580   23.1780 C   0  0  0  0  0  0  0  0  0  0  0  0
   12.2880    3.4310   22.9420 C   0  0  0  0  0  0  0  0  0  0  0  0
    9.9600    4.6250   23.4390 S   0  0  0  0  0  0  0  0  0  0  0  0
   10.8660    5.8660   22.7390 N   0  0  0  0  0  0  0  0  0  0  0  0
    9.9460    4.8810   24.8640 O   0  0  0  0  0  0  0  0  0  0  0  0
    8.7530    4.5250   22.6680 O   0  0  0  0  0  0  0  0  0  0  0  0
  1  2  1  0
  2  3  2  0
  2  4  1  0
  3  5  1  0
  4  6  2  0
  4  7  1  0
  5  8  2  0
  6  8  1  0
  7  9  1  0
  9 10  2  0
  9 11  1  0
 11 12  1  0
 12 13  1  0
 13 14  1  0
 13 15  1  0
 14 16  1  0
 15 17  2  0
 15 18  1  0
 16 19  1  0
 17 19  1  0
 17 20  1  0
 18 21  2  0
 20 22  2  0
 21 22  1  0
 21 23  1  0
 23 24  1  0
 23 25  2  0
 23 26  2  0
M  END
