PET-SGC-39d74636-2-acrylamide
     RDKit          3D

 21 22  0  0  0  0  0  0  0  0999 V2000
    6.0230   -5.9210   21.3420 C   0  0  0  0  0  0  0  0  0  0  0  0
    6.2470   -4.8380   22.3850 C   0  0  0  0  0  0  0  0  0  0  0  0
    6.0950   -3.5080   21.6950 C   0  0  0  0  0  0  0  0  0  0  0  0
    4.9590   -3.2250   21.2150 O   0  0  0  0  0  0  0  0  0  0  0  0
    7.3930   -2.6590   21.5660 C   0  0  0  0  0  0  0  0  0  0  0  0
    8.1360   -2.2060   20.6700 C   0  0  0  0  0  0  0  0  0  0  0  0
    8.5330   -1.9120   22.3480 C   0  0  0  0  0  0  0  0  0  0  0  0
    7.7510   -2.4060   22.0220 N   0  0  0  0  0  0  0  0  0  0  0  0
    8.8930   -1.6550   23.7050 C   0  0  0  0  0  0  0  0  0  0  0  0
    7.8610   -2.2930   23.3580 C   0  0  0  0  0  0  0  0  0  0  0  0
    8.6710   -1.7600   25.0740 C   0  0  0  0  0  0  0  0  0  0  0  0
    6.9270   -2.8230   24.2340 N   0  0  0  0  0  0  0  0  0  0  0  0
    8.6320   -2.9760   25.6960 N   0  0  0  0  0  0  0  0  0  0  0  0
    5.7180   -2.1810   24.1130 C   0  0  0  0  0  0  0  0  0  0  0  0
    9.0300   -4.0700   24.9070 C   0  0  0  0  0  0  0  0  0  0  0  0
    7.6680   -3.2510   26.7820 C   0  0  0  0  0  0  0  0  0  0  0  0
    5.8740   -0.9020   23.5570 C   0  0  0  0  0  0  0  0  0  0  0  0
    9.2600   -5.3600   25.7170 C   0  0  0  0  0  0  0  0  0  0  0  0
    7.3270   -4.6090   26.9080 C   0  0  0  0  0  0  0  0  0  0  0  0
    8.3340   -5.5500   26.9100 C   0  0  0  0  0  0  0  0  0  0  0  0
    8.9750   -5.5640   27.9540 O   0  0  0  0  0  0  0  0  0  0  0  0
  1  2  1  0
  2  3  1  0
  3  4  2  0
  3  5  1  0
  5  6  2  0
  5  7  1  0
  6  8  1  0
  7  9  2  0
  8 10  2  0
  9 10  1  0
  9 11  1  0
 10 12  1  0
 11 13  1  0
 12 14  1  0
 13 15  1  0
 13 16  1  0
 14 17  1  0
 15 18  1  0
 16 19  1  0
 18 20  1  0
 19 20  1  0
 20 21  1  0
M  END
