PET-SGC-9a4d8c0f-1-bromoalkyne
     RDKit          3D

 16 16  0  0  0  0  0  0  0  0999 V2000
    8.0420   -3.1260   19.6070 C   0  0  0  0  0  0  0  0  0  0  0  0
    6.5240   -3.1010   19.2930 C   0  0  0  0  0  0  0  0  0  0  0  0
    8.5440   -2.5440   21.0920 C   0  0  0  0  0  0  0  0  0  0  0  0
    9.5260   -1.3510   21.4170 C   0  0  0  0  0  0  0  0  0  0  0  0
    8.1040   -3.0550   22.3280 C   0  0  0  0  0  0  0  0  0  0  0  0
    9.9090   -0.8680   22.6240 N   0  0  0  0  0  0  0  0  0  0  0  0
    8.5250   -2.5160   23.5950 C   0  0  0  0  0  0  0  0  0  0  0  0
    9.4200   -1.4270   23.7150 C   0  0  0  0  0  0  0  0  0  0  0  0
    7.9590   -3.1650   24.8440 C   0  0  0  0  0  0  0  0  0  0  0  0
    9.7340   -1.0020   24.9440 N   0  0  0  0  0  0  0  0  0  0  0  0
    7.8180   -4.5380   24.7620 C   0  0  0  0  0  0  0  0  0  0  0  0
    8.6790   -0.2890   25.7110 C   0  0  0  0  0  0  0  0  0  0  0  0
    8.5880   -5.2470   25.7590 C   0  0  0  0  0  0  0  0  0  0  0  0
    8.8280   -0.4610   27.2160 C   0  0  0  0  0  0  0  0  0  0  0  0
    9.6970   -5.9610   25.5000 N   0  0  0  0  0  0  0  0  0  0  0  0
    8.1140   -5.1560   27.0440 N   0  0  0  0  0  0  0  0  0  0  0  0
  1  2  2  3
  1  3  1  0
  3  4  2  0
  3  5  1  0
  4  6  1  0
  5  7  2  0
  6  8  2  0
  7  8  1  0
  7  9  1  0
  8 10  1  0
  9 11  1  0
 10 12  1  0
 11 13  1  0
 12 14  1  0
 13 15  2  3
 13 16  1  0
M  END
