PET-SGC-fc67af9f-1
     RDKit          3D

 29 32  0  0  0  0  0  0  0  0999 V2000
   15.1560    3.1790   19.4660 N   0  0  0  0  0  0  0  0  0  0  0  0
   15.1340    1.4920   19.2170 S   0  0  0  0  0  0  0  0  0  0  0  0
   16.5170    1.3220   19.1390 O   0  0  0  0  0  0  0  0  0  0  0  0
   14.5200    1.4000   17.9160 O   0  0  0  0  0  0  0  0  0  0  0  0
   14.2310    0.3320   20.4950 C   0  0  0  0  0  0  0  0  0  0  0  0
   13.8340   -0.8470   20.0780 C   0  0  0  0  0  0  0  0  0  0  0  0
   13.8770    0.3490   21.9690 C   0  0  0  0  0  0  0  0  0  0  0  0
   13.1620   -1.8950   20.7650 C   0  0  0  0  0  0  0  0  0  0  0  0
   13.2120   -0.5880   22.6600 C   0  0  0  0  0  0  0  0  0  0  0  0
   12.8420   -1.7200   22.0890 C   0  0  0  0  0  0  0  0  0  0  0  0
   12.8410   -0.4560   24.0400 N   0  0  0  0  0  0  0  0  0  0  0  0
   11.6600    0.2550   24.2680 C   0  0  0  0  0  0  0  0  0  0  0  0
   12.9330   -1.6340   24.7420 C   0  0  0  0  0  0  0  0  0  0  0  0
   12.1800   -2.6780   22.8170 C   0  0  0  0  0  0  0  0  0  0  0  0
   10.6460    0.0240   23.3180 C   0  0  0  0  0  0  0  0  0  0  0  0
   11.8890   -2.5480   24.1830 C   0  0  0  0  0  0  0  0  0  0  0  0
    9.4240    0.6040   23.5130 N   0  0  0  0  0  0  0  0  0  0  0  0
    8.5710    0.7800   22.4550 C   0  0  0  0  0  0  0  0  0  0  0  0
    8.6120    1.7150   21.4940 O   0  0  0  0  0  0  0  0  0  0  0  0
    7.4500   -0.0450   22.2350 C   0  0  0  0  0  0  0  0  0  0  0  0
    6.9510    0.1250   20.8250 C   0  0  0  0  0  0  0  0  0  0  0  0
    7.4250   -0.6220   19.6620 C   0  0  0  0  0  0  0  0  0  0  0  0
    5.9990    0.9810   20.3420 C   0  0  0  0  0  0  0  0  0  0  0  0
    6.7400   -0.1590   18.5600 N   0  0  0  0  0  0  0  0  0  0  0  0
    5.8510    0.8300   18.9570 C   0  0  0  0  0  0  0  0  0  0  0  0
    5.1500    1.9970   21.0430 C   0  0  0  0  0  0  0  0  0  0  0  0
    5.0220    1.4940   18.1210 N   0  0  0  0  0  0  0  0  0  0  0  0
    4.1660    2.8180   20.2140 C   0  0  0  0  0  0  0  0  0  0  0  0
    4.1430    2.5160   18.7100 C   0  0  0  0  0  0  0  0  0  0  0  0
  2  1  1  0
  2  3  2  0
  2  4  2  0
  2  5  1  0
  5  6  2  0
  5  7  1  0
  6  8  1  0
  7  9  2  0
  8 10  2  0
  9 10  1  0
  9 11  1  0
 11 12  1  0
 11 13  1  0
 10 14  1  0
 12 15  1  0
 13 16  1  0
 14 16  1  0
 15 17  1  0
 17 18  1  0
 18 19  2  0
 18 20  1  0
 20 21  1  0
 21 22  2  0
 21 23  1  0
 22 24  1  0
 23 25  2  0
 24 25  1  0
 23 26  1  0
 25 27  1  0
 26 28  2  0
 27 29  2  0
 28 29  1  0
M  END
