PET-SGC-0ecb2cfe-1-acrylamide
     RDKit          3D

 27 28  0  0  0  0  0  0  0  0999 V2000
    7.0600   -3.6140   19.0440 C   0  0  0  0  0  0  0  0  0  0  0  0
    7.6790   -2.7180   19.9590 C   0  0  0  0  0  0  0  0  0  0  0  0
    6.6380   -2.6890   21.0360 C   0  0  0  0  0  0  0  0  0  0  0  0
    5.1890   -3.3680   21.0480 O   0  0  0  0  0  0  0  0  0  0  0  0
    7.5650   -1.7550   21.9310 C   0  0  0  0  0  0  0  0  0  0  0  0
    7.6270   -0.2630   21.4040 C   0  0  0  0  0  0  0  0  0  0  0  0
    8.3110   -2.3280   23.1500 C   0  0  0  0  0  0  0  0  0  0  0  0
    8.4770    0.0630   22.5560 C   0  0  0  0  0  0  0  0  0  0  0  0
    9.1030   -1.5720   24.0080 C   0  0  0  0  0  0  0  0  0  0  0  0
    9.1870   -0.2670   23.7450 C   0  0  0  0  0  0  0  0  0  0  0  0
    9.7310   -2.2780   25.1220 C   0  0  0  0  0  0  0  0  0  0  0  0
    9.8110    0.7900   24.4630 C   0  0  0  0  0  0  0  0  0  0  0  0
    9.9710   -3.7120   24.7260 C   0  0  0  0  0  0  0  0  0  0  0  0
    8.6490    1.4460   24.8660 N   0  0  0  0  0  0  0  0  0  0  0  0
    8.7980   -4.5490   25.0360 N   0  0  0  0  0  0  0  0  0  0  0  0
    7.8700    2.2460   24.0050 C   0  0  0  0  0  0  0  0  0  0  0  0
    8.1580   -4.3830   26.5840 S   0  0  0  0  0  0  0  0  0  0  0  0
    8.8660    2.9530   24.1260 O   0  0  0  0  0  0  0  0  0  0  0  0
    6.8960    1.2640   24.0470 N   0  0  0  0  0  0  0  0  0  0  0  0
    7.3670   -5.9040   26.9730 C   0  0  0  0  0  0  0  0  0  0  0  0
    9.2880   -4.1940   27.4400 O   0  0  0  0  0  0  0  0  0  0  0  0
    7.1660   -3.4010   26.4260 O   0  0  0  0  0  0  0  0  0  0  0  0
    6.1720    1.0720   25.3330 C   0  0  0  0  0  0  0  0  0  0  0  0
    6.1480    1.0640   22.9540 C   0  0  0  0  0  0  0  0  0  0  0  0
    4.7970    0.7620   25.2130 C   0  0  0  0  0  0  0  0  0  0  0  0
    4.7500    1.6950   23.0040 C   0  0  0  0  0  0  0  0  0  0  0  0
    4.0870    1.5500   24.2090 C   0  0  0  0  0  0  0  0  0  0  0  0
  1  2  1  0
  2  3  1  0
  3  4  2  0
  3  5  1  0
  5  6  2  0
  5  7  1  0
  6  8  1  0
  7  9  2  0
  8 10  2  0
  9 10  1  0
  9 11  1  0
 10 12  1  0
 11 13  1  0
 12 14  1  0
 13 15  1  0
 14 16  1  0
 17 15  1  0
 16 18  2  0
 16 19  1  0
 17 20  1  0
 17 21  2  0
 17 22  2  0
 19 23  1  0
 19 24  1  0
 23 25  1  0
 24 26  1  0
 25 27  1  0
 26 27  1  0
M  END
