PET-SGC-cb62ec31-1-bromoalkyne
     RDKit          3D

 20 21  0  0  0  0  0  0  0  0999 V2000
    8.2300   -3.3150   19.9830 C   0  0  0  0  0  0  0  0  0  0  0  0
    7.6750   -2.5990   18.7290 C   0  0  0  0  0  0  0  0  0  0  0  0
    8.7410   -2.4270   21.3940 C   0  0  0  0  0  0  0  0  0  0  0  0
    9.6140   -1.7760   22.4370 C   0  0  0  0  0  0  0  0  0  0  0  0
   10.3520   -2.4710   21.3830 C   0  0  0  0  0  0  0  0  0  0  0  0
    8.3310   -1.3240   23.1170 C   0  0  0  0  0  0  0  0  0  0  0  0
   10.6770   -1.6200   22.6850 N   0  0  0  0  0  0  0  0  0  0  0  0
    9.6810   -0.9900   23.6470 C   0  0  0  0  0  0  0  0  0  0  0  0
    9.8130   -0.1930   24.9000 N   0  0  0  0  0  0  0  0  0  0  0  0
    9.0580   -0.7450   26.0460 C   0  0  0  0  0  0  0  0  0  0  0  0
    8.6920   -1.9150   26.1550 O   0  0  0  0  0  0  0  0  0  0  0  0
    8.7200    0.2670   27.1480 C   0  0  0  0  0  0  0  0  0  0  0  0
    9.6190    0.2790   27.9880 O   0  0  0  0  0  0  0  0  0  0  0  0
    9.2780    0.3540   29.3180 C   0  0  0  0  0  0  0  0  0  0  0  0
   10.2950    0.7200   30.1750 C   0  0  0  0  0  0  0  0  0  0  0  0
    8.0350    0.1030   29.9000 C   0  0  0  0  0  0  0  0  0  0  0  0
   10.1330    0.8470   31.5980 C   0  0  0  0  0  0  0  0  0  0  0  0
    7.8150    0.2120   31.2880 C   0  0  0  0  0  0  0  0  0  0  0  0
    8.8680    0.5850   32.1460 C   0  0  0  0  0  0  0  0  0  0  0  0
    8.6520    0.6860   33.5290 C   0  0  0  0  0  0  0  0  0  0  0  0
  1  2  2  3
  1  3  1  0
  3  4  2  0
  3  5  1  0
  4  6  1  0
  5  7  2  0
  6  8  2  0
  7  8  1  0
  8  9  1  0
  9 10  1  0
 10 11  2  0
 10 12  1  0
 12 13  1  0
 13 14  1  0
 14 15  2  0
 14 16  1  0
 15 17  1  0
 16 18  2  0
 17 19  2  0
 18 19  1  0
 19 20  1  0
M  END
