PET-SGC-616b7348-1
     RDKit          3D

 25 27  0  0  0  0  0  0  0  0999 V2000
    9.7910    5.0420   22.8380 N   0  0  0  0  0  0  0  0  0  0  0  0
   11.3800    4.8710   23.2860 S   0  0  0  0  0  0  0  0  0  0  0  0
   11.4670    5.2940   24.6570 O   0  0  0  0  0  0  0  0  0  0  0  0
   12.1280    5.5220   22.2420 O   0  0  0  0  0  0  0  0  0  0  0  0
   11.6840    3.1100   23.1370 C   0  0  0  0  0  0  0  0  0  0  0  0
   13.0570    2.6770   22.8200 C   0  0  0  0  0  0  0  0  0  0  0  0
   10.7680    2.0510   23.2850 C   0  0  0  0  0  0  0  0  0  0  0  0
   13.3370    1.2040   22.6640 C   0  0  0  0  0  0  0  0  0  0  0  0
   11.1130    0.6670   23.1130 C   0  0  0  0  0  0  0  0  0  0  0  0
   12.3630    0.1890   22.7770 C   0  0  0  0  0  0  0  0  0  0  0  0
   10.2480   -0.2560   23.2760 N   0  0  0  0  0  0  0  0  0  0  0  0
   10.0830   -0.5970   24.6650 C   0  0  0  0  0  0  0  0  0  0  0  0
   10.4290   -1.3720   22.5410 C   0  0  0  0  0  0  0  0  0  0  0  0
   12.8230   -1.2240   22.5010 C   0  0  0  0  0  0  0  0  0  0  0  0
    9.2650    0.5070   25.3210 C   0  0  0  0  0  0  0  0  0  0  0  0
   11.7590   -2.0810   22.6070 C   0  0  0  0  0  0  0  0  0  0  0  0
    7.9430    0.4700   24.9720 N   0  0  0  0  0  0  0  0  0  0  0  0
    7.3360    1.4380   24.1110 C   0  0  0  0  0  0  0  0  0  0  0  0
    8.0220    2.5920   23.6000 O   0  0  0  0  0  0  0  0  0  0  0  0
    6.0280    1.1170   23.8520 N   0  0  0  0  0  0  0  0  0  0  0  0
    5.3480    1.5500   22.6900 C   0  0  0  0  0  0  0  0  0  0  0  0
    5.2010    0.8750   25.0370 C   0  0  0  0  0  0  0  0  0  0  0  0
    4.1110    0.8390   22.4240 C   0  0  0  0  0  0  0  0  0  0  0  0
    4.0350    0.2040   24.6540 C   0  0  0  0  0  0  0  0  0  0  0  0
    3.3990    0.8650   23.6270 C   0  0  0  0  0  0  0  0  0  0  0  0
  2  1  1  0
  2  3  2  0
  2  4  2  0
  2  5  1  0
  5  6  2  0
  5  7  1  0
  6  8  1  0
  7  9  2  0
  8 10  2  0
  9 10  1  0
  9 11  1  0
 11 12  1  0
 11 13  1  0
 10 14  1  0
 12 15  1  0
 13 16  1  0
 14 16  1  0
 15 17  1  0
 17 18  1  0
 18 19  2  0
 18 20  1  0
 20 21  1  0
 20 22  1  0
 21 23  1  0
 22 24  1  0
 23 25  1  0
 24 25  1  0
M  END
