PET-SGC-0ecb2cfe-1-nitrile
     RDKit          3D

 25 26  0  0  0  0  0  0  0  0999 V2000
    7.6140   -3.2440   19.6840 C   0  0  0  0  0  0  0  0  0  0  0  0
    7.1210   -2.7110   18.6310 N   0  0  0  0  0  0  0  0  0  0  0  0
    8.0760   -2.3790   20.9090 C   0  0  0  0  0  0  0  0  0  0  0  0
    8.3420   -0.8980   20.6930 C   0  0  0  0  0  0  0  0  0  0  0  0
    8.2800   -2.7730   22.2580 C   0  0  0  0  0  0  0  0  0  0  0  0
    8.8060    0.0880   21.7670 C   0  0  0  0  0  0  0  0  0  0  0  0
    8.6880   -1.8920   23.3180 C   0  0  0  0  0  0  0  0  0  0  0  0
    9.0020   -0.3810   23.1650 C   0  0  0  0  0  0  0  0  0  0  0  0
    8.7720   -2.4670   24.5390 C   0  0  0  0  0  0  0  0  0  0  0  0
    9.4370    0.4460   24.3700 C   0  0  0  0  0  0  0  0  0  0  0  0
    8.8230   -3.8840   24.6110 C   0  0  0  0  0  0  0  0  0  0  0  0
    8.2700    0.7330   25.0030 N   0  0  0  0  0  0  0  0  0  0  0  0
    7.8460   -4.6170   25.1530 N   0  0  0  0  0  0  0  0  0  0  0  0
    7.6360    1.5250   24.1970 C   0  0  0  0  0  0  0  0  0  0  0  0
    8.0540   -4.9460   26.7780 S   0  0  0  0  0  0  0  0  0  0  0  0
    8.1520    2.4560   23.5740 O   0  0  0  0  0  0  0  0  0  0  0  0
    6.4940    1.2820   24.1080 N   0  0  0  0  0  0  0  0  0  0  0  0
    6.5800   -5.6990   27.1850 C   0  0  0  0  0  0  0  0  0  0  0  0
    8.0790   -3.6530   27.4090 O   0  0  0  0  0  0  0  0  0  0  0  0
    9.1410   -5.8880   26.8610 O   0  0  0  0  0  0  0  0  0  0  0  0
    5.6720    0.7030   25.1910 C   0  0  0  0  0  0  0  0  0  0  0  0
    5.9320    1.1290   22.8030 C   0  0  0  0  0  0  0  0  0  0  0  0
    4.3410    0.5810   24.7560 C   0  0  0  0  0  0  0  0  0  0  0  0
    4.7050    1.7920   22.8330 C   0  0  0  0  0  0  0  0  0  0  0  0
    3.9710    1.7000   24.0120 C   0  0  0  0  0  0  0  0  0  0  0  0
  1  2  2  3
  1  3  1  0
  3  4  2  0
  3  5  1  0
  4  6  1  0
  5  7  2  0
  6  8  2  0
  7  8  1  0
  7  9  1  0
  8 10  1  0
  9 11  1  0
 10 12  1  0
 11 13  1  0
 12 14  1  0
 15 13  1  0
 14 16  2  0
 14 17  1  0
 15 18  1  0
 15 19  2  0
 15 20  2  0
 17 21  1  0
 17 22  1  0
 21 23  1  0
 22 24  1  0
 23 25  1  0
 24 25  1  0
M  END
