PET-SGC-34dcf0dc-1-acrylamide
     RDKit          3D

 21 22  0  0  0  0  0  0  0  0999 V2000
    7.3520   -3.2050   19.0650 C   0  0  0  0  0  0  0  0  0  0  0  0
    6.1300   -2.4970   19.5930 C   0  0  0  0  0  0  0  0  0  0  0  0
    6.1490   -2.7460   21.0640 C   0  0  0  0  0  0  0  0  0  0  0  0
    5.0090   -3.4040   21.4910 O   0  0  0  0  0  0  0  0  0  0  0  0
    7.6160   -2.1910   21.6690 C   0  0  0  0  0  0  0  0  0  0  0  0
    8.8000   -2.6580   21.3680 C   0  0  0  0  0  0  0  0  0  0  0  0
    8.1010   -1.2010   22.5370 C   0  0  0  0  0  0  0  0  0  0  0  0
   10.0970   -2.6400   21.4820 N   0  0  0  0  0  0  0  0  0  0  0  0
    9.5450   -1.0320   22.7900 C   0  0  0  0  0  0  0  0  0  0  0  0
   10.7850   -1.7690   22.2620 C   0  0  0  0  0  0  0  0  0  0  0  0
    9.6540   -0.0010   23.7080 C   0  0  2  0  0  0  0  0  0  0  0  0
   11.3290   -0.8290   23.0910 N   0  0  0  0  0  0  0  0  0  0  0  0
    8.9960   -0.4770   24.8060 C   0  0  0  0  0  0  0  0  0  0  0  0
    9.0770    1.2910   23.4100 C   0  0  2  0  0  0  0  0  0  0  0  0
   12.6570   -1.1260   23.2360 C   0  0  0  0  0  0  0  0  0  0  0  0
    7.6160    0.1050   24.8040 C   0  0  0  0  0  0  0  0  0  0  0  0
    7.7050    1.1880   23.7440 C   0  0  0  0  0  0  0  0  0  0  0  0
    9.3630    1.9190   22.1900 C   0  0  0  0  0  0  0  0  0  0  0  0
   12.8620   -1.7620   24.4740 C   0  0  0  0  0  0  0  0  0  0  0  0
   10.2640    2.9640   22.3040 N   0  0  0  0  0  0  0  0  0  0  0  0
    8.8550    1.6150   21.1090 O   0  0  0  0  0  0  0  0  0  0  0  0
  1  2  1  0
  2  3  1  0
  3  4  2  0
  3  5  1  0
  5  6  2  0
  5  7  1  0
  6  8  1  0
  7  9  2  0
  8 10  2  0
  9 10  1  0
 11  9  1  6
 10 12  1  0
 11 13  1  0
 11 14  1  0
 12 15  1  0
 13 16  1  0
 14 17  1  0
 16 17  1  0
 14 18  1  6
 15 19  1  0
 18 20  1  0
 18 21  2  0
M  END
