PET-SGC-d0156db4-2
     RDKit          3D

 23 24  0  0  0  0  0  0  0  0999 V2000
    6.4910   -5.2050   26.3540 C   0  0  0  0  0  0  0  0  0  0  0  0
    8.2200   -4.6880   26.2350 S   0  0  0  0  0  0  0  0  0  0  0  0
    9.0610   -5.8460   26.0430 O   0  0  0  0  0  0  0  0  0  0  0  0
    8.4810   -3.7670   27.3150 O   0  0  0  0  0  0  0  0  0  0  0  0
    8.2790   -3.7760   24.8330 N   0  0  0  0  0  0  0  0  0  0  0  0
    9.4210   -2.9220   24.6890 C   0  0  0  0  0  0  0  0  0  0  0  0
    9.8960   -2.4410   23.4620 C   0  0  0  0  0  0  0  0  0  0  0  0
   10.2400   -1.0870   23.3710 C   0  0  0  0  0  0  0  0  0  0  0  0
    9.1520   -0.2140   23.1580 C   0  0  0  0  0  0  0  0  0  0  0  0
   10.9330   -0.7720   24.5700 C   0  0  0  0  0  0  0  0  0  0  0  0
   11.1950   -0.9520   22.1860 C   0  0  0  0  0  0  0  0  0  0  0  0
    8.7970    0.3440   21.9000 C   0  0  0  0  0  0  0  0  0  0  0  0
   12.2680   -0.3600   24.4170 C   0  0  0  0  0  0  0  0  0  0  0  0
   12.4250   -1.5460   22.3890 C   0  0  0  0  0  0  0  0  0  0  0  0
    9.3150    1.3540   21.4130 O   0  0  0  0  0  0  0  0  0  0  0  0
    7.7600   -0.3580   21.2950 N   0  0  0  0  0  0  0  0  0  0  0  0
   13.0630   -0.9880   23.4580 C   0  0  0  0  0  0  0  0  0  0  0  0
    6.9220    0.1370   20.2800 C   0  0  0  0  0  0  0  0  0  0  0  0
    5.8010    1.0510   20.5820 C   0  0  0  0  0  0  0  0  0  0  0  0
    7.1180   -0.2070   18.9620 C   0  0  0  0  0  0  0  0  0  0  0  0
    4.9590    1.5530   19.4800 C   0  0  0  0  0  0  0  0  0  0  0  0
    6.3250    0.2580   17.8340 N   0  0  0  0  0  0  0  0  0  0  0  0
    5.3060    1.0870   18.0560 C   0  0  0  0  0  0  0  0  0  0  0  0
  1  2  1  0
  2  3  2  0
  2  4  2  0
  2  5  1  0
  5  6  1  0
  6  7  1  0
  8  7  1  0
  8  9  1  0
  8 10  1  0
  8 11  1  0
  9 12  1  0
 10 13  1  0
 11 14  1  0
 12 15  2  0
 12 16  1  0
 13 17  1  0
 14 17  1  0
 16 18  1  0
 18 19  2  0
 18 20  1  0
 19 21  1  0
 20 22  2  0
 21 23  2  0
 22 23  1  0
M  END
