PET-SGC-59809fea-1
     RDKit          3D

 26 28  0  0  0  0  0  0  0  0999 V2000
    6.6390   -1.0350   25.6750 N   0  0  0  0  0  0  0  0  0  0  0  0
    7.2620    0.3930   26.2590 S   0  0  0  0  0  0  0  0  0  0  0  0
    7.6420    0.1230   27.6240 O   0  0  0  0  0  0  0  0  0  0  0  0
    6.3260    1.4210   25.8890 O   0  0  0  0  0  0  0  0  0  0  0  0
    8.7440    0.6220   25.2950 C   0  0  0  0  0  0  0  0  0  0  0  0
    9.0760    1.9480   24.6430 C   0  0  0  0  0  0  0  0  0  0  0  0
    9.6530   -0.4310   25.1070 C   0  0  0  0  0  0  0  0  0  0  0  0
   10.3710    2.0130   23.8720 C   0  0  0  0  0  0  0  0  0  0  0  0
   10.8570   -0.3600   24.3700 C   0  0  0  0  0  0  0  0  0  0  0  0
   11.2550    0.8020   23.7620 C   0  0  0  0  0  0  0  0  0  0  0  0
   11.6500   -1.4000   24.1830 N   0  0  0  0  0  0  0  0  0  0  0  0
   11.2030   -2.0040   22.9460 C   0  0  0  0  0  0  0  0  0  0  0  0
   12.9330   -1.1530   24.1400 C   0  0  0  0  0  0  0  0  0  0  0  0
   12.5130    0.8630   22.9900 C   0  0  0  0  0  0  0  0  0  0  0  0
    9.9080   -1.2170   22.7900 C   0  0  0  0  0  0  0  0  0  0  0  0
   13.2090   -0.2740   22.9870 C   0  0  0  0  0  0  0  0  0  0  0  0
    9.2800   -1.2450   21.5870 N   0  0  0  0  0  0  0  0  0  0  0  0
    8.4340   -0.1710   21.2100 C   0  0  0  0  0  0  0  0  0  0  0  0
    8.8630    1.2210   21.1730 O   0  0  0  0  0  0  0  0  0  0  0  0
    7.1910   -0.6130   20.8480 N   0  0  0  0  0  0  0  0  0  0  0  0
    6.4260    0.0930   19.9310 C   0  0  0  0  0  0  0  0  0  0  0  0
    5.1350    0.6220   20.3160 C   0  0  0  0  0  0  0  0  0  0  0  0
    6.8430    0.3400   18.6380 C   0  0  0  0  0  0  0  0  0  0  0  0
    4.4150    1.3480   19.3660 C   0  0  0  0  0  0  0  0  0  0  0  0
    6.1670    1.0400   17.7290 N   0  0  0  0  0  0  0  0  0  0  0  0
    4.9880    1.5200   18.1100 C   0  0  0  0  0  0  0  0  0  0  0  0
  2  1  1  0
  2  3  2  0
  2  4  2  0
  2  5  1  0
  5  6  2  0
  5  7  1  0
  6  8  1  0
  7  9  2  0
  8 10  2  0
  9 10  1  0
  9 11  1  0
 11 12  1  0
 11 13  1  0
 10 14  1  0
 12 15  1  0
 13 16  1  0
 14 16  1  0
 15 17  1  0
 17 18  1  0
 18 19  2  0
 18 20  1  0
 20 21  1  0
 21 22  2  0
 21 23  1  0
 22 24  1  0
 23 25  2  0
 24 26  2  0
 25 26  1  0
M  END
