PET-SGC-0ecb2cfe-1-vinylsulfonamide
     RDKit          3D

 28 29  0  0  0  0  0  0  0  0999 V2000
    7.5610   -3.0510   18.8860 C   0  0  0  0  0  0  0  0  0  0  0  0
    6.4140   -3.5240   19.7080 C   0  0  0  0  0  0  0  0  0  0  0  0
    6.6230   -3.3980   21.4410 S   0  0  0  0  0  0  0  0  0  0  0  0
    5.0270   -3.3790   21.4230 O   0  0  0  0  0  0  0  0  0  0  0  0
    7.2970   -4.6180   21.8500 O   0  0  0  0  0  0  0  0  0  0  0  0
    7.9950   -2.1430   21.1710 C   0  0  0  0  0  0  0  0  0  0  0  0
    9.1040   -1.0250   21.5050 C   0  0  0  0  0  0  0  0  0  0  0  0
    8.3180   -1.5860   22.4410 C   0  0  0  0  0  0  0  0  0  0  0  0
    9.5920   -0.2880   22.8120 C   0  0  0  0  0  0  0  0  0  0  0  0
    8.0360   -1.5940   23.7480 C   0  0  0  0  0  0  0  0  0  0  0  0
    8.8930   -0.6710   24.1180 C   0  0  0  0  0  0  0  0  0  0  0  0
    7.0860   -2.3750   24.4330 C   0  0  0  0  0  0  0  0  0  0  0  0
    9.1660   -0.0730   25.4630 C   0  0  0  0  0  0  0  0  0  0  0  0
    7.5170   -3.8010   24.5920 C   0  0  0  0  0  0  0  0  0  0  0  0
    8.1850    0.8910   25.7030 N   0  0  0  0  0  0  0  0  0  0  0  0
    8.5950   -4.0990   25.5210 N   0  0  0  0  0  0  0  0  0  0  0  0
    7.6410    1.5680   24.5190 C   0  0  0  0  0  0  0  0  0  0  0  0
    8.2670   -4.9860   26.8950 S   0  0  0  0  0  0  0  0  0  0  0  0
    8.3400    2.3530   23.8810 O   0  0  0  0  0  0  0  0  0  0  0  0
    6.3080    1.2790   24.1590 N   0  0  0  0  0  0  0  0  0  0  0  0
    6.6060   -5.5620   26.6290 C   0  0  0  0  0  0  0  0  0  0  0  0
    9.1860   -6.0910   26.7890 O   0  0  0  0  0  0  0  0  0  0  0  0
    8.2600   -4.0580   28.0020 O   0  0  0  0  0  0  0  0  0  0  0  0
    5.3690    0.8970   25.2250 C   0  0  0  0  0  0  0  0  0  0  0  0
    5.7480    1.7470   23.0150 C   0  0  0  0  0  0  0  0  0  0  0  0
    4.1270    0.3700   24.8480 C   0  0  0  0  0  0  0  0  0  0  0  0
    4.5640    1.1020   22.6300 C   0  0  0  0  0  0  0  0  0  0  0  0
    3.6390    0.8160   23.6240 C   0  0  0  0  0  0  0  0  0  0  0  0
  1  2  1  0
  3  2  1  0
  3  4  2  0
  3  5  2  0
  3  6  1  0
  6  7  2  0
  6  8  1  0
  7  9  1  0
  8 10  2  0
  9 11  2  0
 10 11  1  0
 10 12  1  0
 11 13  1  0
 12 14  1  0
 13 15  1  0
 14 16  1  0
 15 17  1  0
 18 16  1  0
 17 19  2  0
 17 20  1  0
 18 21  1  0
 18 22  2  0
 18 23  2  0
 20 24  1  0
 20 25  1  0
 24 26  1  0
 25 27  1  0
 26 28  1  0
 27 28  1  0
M  END
