PET-SGC-ae7b447e-1
     RDKit          3D

 29 32  0  0  0  0  0  0  0  0999 V2000
    5.1420    0.8520   17.9430 C   0  0  0  0  0  0  0  0  0  0  0  0
    5.6780    0.1760   19.2120 C   0  0  0  0  0  0  0  0  0  0  0  0
    4.7920   -0.0380   20.4100 C   0  0  0  0  0  0  0  0  0  0  0  0
    7.0020   -0.2690   19.3150 C   0  0  0  0  0  0  0  0  0  0  0  0
    5.3280   -0.6980   21.6390 C   0  0  0  0  0  0  0  0  0  0  0  0
    7.5350   -0.8980   20.4780 C   0  0  0  0  0  0  0  0  0  0  0  0
    6.7870   -1.1430   21.6460 C   0  0  0  0  0  0  0  0  0  0  0  0
    7.2310   -1.6870   22.6550 O   0  0  0  0  0  0  0  0  0  0  0  0
    7.0030   -1.0750   23.9130 C   0  0  0  0  0  0  0  0  0  0  0  0
    8.2260   -0.7330   24.7750 C   0  0  0  0  0  0  0  0  0  0  0  0
    7.9390   -0.5490   25.9570 O   0  0  0  0  0  0  0  0  0  0  0  0
    9.4820   -0.6200   24.3410 N   0  0  0  0  0  0  0  0  0  0  0  0
   10.4810    0.1390   24.9740 C   0  0  0  0  0  0  0  0  0  0  0  0
    9.7910   -1.1640   23.0970 C   0  0  0  0  0  0  0  0  0  0  0  0
   11.9320   -0.2420   24.7970 C   0  0  0  0  0  0  0  0  0  0  0  0
   11.0150   -0.7270   22.7480 C   0  0  2  0  0  0  0  0  0  0  0  0
   11.8770   -1.1410   23.7930 N   0  0  0  0  0  0  0  0  0  0  0  0
   11.2870    0.6420   22.8300 C   0  0  0  0  0  0  0  0  0  0  0  0
   13.1040   -1.2470   23.3000 C   0  0  0  0  0  0  0  0  0  0  0  0
   12.5920    0.8990   22.6730 C   0  0  0  0  0  0  0  0  0  0  0  0
   10.3710    1.7220   23.0570 C   0  0  0  0  0  0  0  0  0  0  0  0
   13.4370   -0.1220   22.4590 C   0  0  0  0  0  0  0  0  0  0  0  0
   13.0210    2.2140   22.7310 C   0  0  0  0  0  0  0  0  0  0  0  0
   10.8000    3.0880   23.1260 C   0  0  0  0  0  0  0  0  0  0  0  0
   12.1510    3.2440   22.9470 C   0  0  0  0  0  0  0  0  0  0  0  0
    9.8060    4.5600   23.3990 S   0  0  0  0  0  0  0  0  0  0  0  0
   10.9160    5.7930   23.0890 N   0  0  0  0  0  0  0  0  0  0  0  0
    8.7990    4.6400   22.3930 O   0  0  0  0  0  0  0  0  0  0  0  0
    9.4540    4.7120   24.7750 O   0  0  0  0  0  0  0  0  0  0  0  0
  1  2  1  0
  2  3  2  0
  2  4  1  0
  3  5  1  0
  4  6  2  0
  5  7  2  0
  6  7  1  0
  7  8  1  0
  8  9  1  0
  9 10  1  0
 10 11  2  0
 10 12  1  0
 12 13  1  0
 12 14  1  0
 13 15  1  0
 16 14  1  1
 15 17  1  0
 16 17  1  0
 16 18  1  0
 17 19  1  0
 18 20  2  0
 18 21  1  0
 19 22  1  0
 20 22  1  0
 20 23  1  0
 21 24  2  0
 23 25  2  0
 24 25  1  0
 24 26  1  0
 26 27  1  0
 26 28  2  0
 26 29  2  0
M  END
