PET-SGC-a8a902d9-1
     RDKit          3D

 24 26  0  0  0  0  0  0  0  0999 V2000
    4.5460    1.0430   21.4850 C   0  0  0  0  0  0  0  0  0  0  0  0
    5.5380    0.5470   20.4770 C   0  0  0  0  0  0  0  0  0  0  0  0
    4.7520    1.2650   19.4700 C   0  0  0  0  0  0  0  0  0  0  0  0
    6.6760   -0.1930   20.2560 C   0  0  0  0  0  0  0  0  0  0  0  0
    5.2900    1.1390   18.1250 C   0  0  0  0  0  0  0  0  0  0  0  0
    7.0760   -0.2320   18.9040 C   0  0  0  0  0  0  0  0  0  0  0  0
    7.2970   -0.8140   21.3390 N   0  0  0  0  0  0  0  0  0  0  0  0
    6.4060    0.4160   17.8690 N   0  0  0  0  0  0  0  0  0  0  0  0
    8.6110   -0.7680   21.7330 C   0  0  0  0  0  0  0  0  0  0  0  0
    9.3780    0.1970   21.6560 O   0  0  0  0  0  0  0  0  0  0  0  0
    8.9670   -2.0010   22.2430 C   0  0  0  0  0  0  0  0  0  0  0  0
    9.4590   -1.7580   23.5390 C   0  0  2  0  0  0  0  0  0  0  0  0
   10.9060   -1.3810   23.2410 C   0  0  0  0  0  0  0  0  0  0  0  0
    9.3730   -3.0020   24.3580 N   0  0  0  0  0  0  0  0  0  0  0  0
   11.3460   -0.2920   24.2060 C   0  0  0  0  0  0  0  0  0  0  0  0
   11.7460   -1.9670   22.1600 C   0  0  0  0  0  0  0  0  0  0  0  0
   10.4770   -3.2590   25.1400 C   0  0  0  0  0  0  0  0  0  0  0  0
    8.1990   -3.1590   25.0040 C   0  0  0  0  0  0  0  0  0  0  0  0
   12.7440   -0.1830   23.5830 C   0  0  0  0  0  0  0  0  0  0  0  0
   13.2940   -1.1680   22.2240 S   0  0  0  0  0  0  0  0  0  0  0  0
   10.4300   -4.5810   25.6700 C   0  0  0  0  0  0  0  0  0  0  0  0
    8.3890   -4.3710   25.6950 C   0  0  0  0  0  0  0  0  0  0  0  0
    9.3350   -4.2050   26.6820 C   0  0  0  0  0  0  0  0  0  0  0  0
    9.0730   -4.8420   27.6940 O   0  0  0  0  0  0  0  0  0  0  0  0
  1  2  1  0
  2  3  2  0
  2  4  1  0
  3  5  1  0
  4  6  2  0
  4  7  1  0
  5  8  2  0
  6  8  1  0
  7  9  1  0
  9 10  2  0
  9 11  1  0
 12 11  1  6
 12 13  1  0
 12 14  1  0
 13 15  1  0
 13 16  2  0
 14 17  1  0
 14 18  1  0
 15 19  2  0
 16 20  1  0
 19 20  1  0
 17 21  1  0
 18 22  1  0
 21 23  1  0
 22 23  1  0
 23 24  1  0
M  END
