PET-SGC-39d74636-2-vinylsulfonamide
     RDKit          3D

 22 23  0  0  0  0  0  0  0  0999 V2000
    7.3210   -3.1650   19.2660 C   0  0  0  0  0  0  0  0  0  0  0  0
    5.9200   -2.6020   19.4890 C   0  0  0  0  0  0  0  0  0  0  0  0
    5.7120   -2.3130   21.2150 S   0  0  0  0  0  0  0  0  0  0  0  0
    4.8100   -3.3690   21.7110 O   0  0  0  0  0  0  0  0  0  0  0  0
    5.3340   -0.9160   21.3430 O   0  0  0  0  0  0  0  0  0  0  0  0
    7.3650   -2.4880   21.9290 C   0  0  0  0  0  0  0  0  0  0  0  0
    7.6960   -3.3060   23.0570 C   0  0  0  0  0  0  0  0  0  0  0  0
    8.5110   -1.8570   21.4530 C   0  0  0  0  0  0  0  0  0  0  0  0
    8.9950   -3.4940   23.6610 N   0  0  0  0  0  0  0  0  0  0  0  0
    8.8300   -2.6440   22.5470 C   0  0  0  0  0  0  0  0  0  0  0  0
   10.0990   -2.7850   23.0490 C   0  0  0  0  0  0  0  0  0  0  0  0
    7.7140   -3.3210   23.1520 C   0  0  0  0  0  0  0  0  0  0  0  0
   10.6300   -1.9340   22.0870 N   0  0  0  0  0  0  0  0  0  0  0  0
    7.5420   -3.5040   24.5210 N   0  0  0  0  0  0  0  0  0  0  0  0
   12.0040   -1.6040   22.0930 C   0  0  0  0  0  0  0  0  0  0  0  0
    6.9860   -4.6750   24.9710 C   0  0  0  0  0  0  0  0  0  0  0  0
    8.3510   -2.8870   25.4180 C   0  0  0  0  0  0  0  0  0  0  0  0
   12.9230   -2.0960   23.1920 C   0  0  0  0  0  0  0  0  0  0  0  0
    7.0710   -5.0710   26.3060 C   0  0  0  0  0  0  0  0  0  0  0  0
    9.0670   -3.8900   26.0890 C   0  0  0  0  0  0  0  0  0  0  0  0
    8.3350   -4.6300   27.0170 C   0  0  0  0  0  0  0  0  0  0  0  0
    9.0920   -5.5670   27.6870 O   0  0  0  0  0  0  0  0  0  0  0  0
  1  2  1  0
  3  2  1  0
  3  4  2  0
  3  5  2  0
  3  6  1  0
  6  7  2  0
  6  8  1  0
  7  9  1  0
  8 10  2  0
  9 11  2  0
 10 11  1  0
 10 12  1  0
 11 13  1  0
 12 14  1  0
 13 15  1  0
 14 16  1  0
 14 17  1  0
 15 18  1  0
 16 19  1  0
 17 20  1  0
 19 21  1  0
 20 21  1  0
 21 22  1  0
M  END
