PET-SGC-6062269a-1-bromoalkyne
     RDKit          3D

 19 20  0  0  0  0  0  0  0  0999 V2000
    6.2190   -3.7140   20.0000 C   0  0  0  0  0  0  0  0  0  0  0  0
    6.0160   -2.8640   18.6980 C   0  0  0  0  0  0  0  0  0  0  0  0
    6.7430   -3.1000   21.2860 C   0  0  0  0  0  0  0  0  0  0  0  0
    6.9500   -2.9020   22.6980 C   0  0  0  0  0  0  0  0  0  0  0  0
    6.1550   -3.8680   22.5840 C   0  0  0  0  0  0  0  0  0  0  0  0
    6.1960   -3.8460   23.4830 C   0  0  0  0  0  0  0  0  0  0  0  0
    5.5780   -4.6220   23.8580 C   0  0  0  0  0  0  0  0  0  0  0  0
    5.3820   -4.8540   22.2480 C   0  0  0  0  0  0  0  0  0  0  0  0
    6.3650   -3.7930   24.8650 C   0  0  0  0  0  0  0  0  0  0  0  0
    4.5640   -5.7590   23.5500 C   0  0  0  0  0  0  0  0  0  0  0  0
    4.8680   -5.3590   21.0860 C   0  0  0  0  0  0  0  0  0  0  0  0
    7.4590   -2.6970   24.7330 N   0  0  0  0  0  0  0  0  0  0  0  0
    4.2830   -6.1030   22.1240 C   0  0  0  0  0  0  0  0  0  0  0  0
    8.8090   -2.7620   25.3230 C   0  0  0  0  0  0  0  0  0  0  0  0
    5.2180   -4.8820   22.7070 S   0  0  0  0  0  0  0  0  0  0  0  0
    9.4980   -4.0250   24.8800 C   0  0  0  0  0  0  0  0  0  0  0  0
    4.6560   -4.6930   24.3210 N   0  0  0  0  0  0  0  0  0  0  0  0
    4.6550   -3.8040   21.9320 O   0  0  0  0  0  0  0  0  0  0  0  0
    6.5980   -5.3810   22.6400 O   0  0  0  0  0  0  0  0  0  0  0  0
  1  2  2  3
  1  3  1  0
  3  4  2  0
  3  5  1  0
  4  6  1  0
  5  7  2  0
  5  8  1  0
  6  9  2  0
  7  9  1  0
  7 10  1  0
  8 11  2  0
  9 12  1  0
 10 13  2  0
 11 13  1  0
 12 14  1  0
 13 15  1  0
 14 16  1  0
 15 17  1  0
 15 18  2  0
 15 19  2  0
M  END
