PET-SGC-34dcf0dc-1-vinylsulfonamide
     RDKit          3D

 22 23  0  0  0  0  0  0  0  0999 V2000
    8.8610   -3.9080   20.3060 C   0  0  0  0  0  0  0  0  0  0  0  0
    7.8540   -4.4650   21.3130 C   0  0  0  0  0  0  0  0  0  0  0  0
    6.3280   -3.5500   21.1020 S   0  0  0  0  0  0  0  0  0  0  0  0
    5.1290   -4.2310   21.6360 O   0  0  0  0  0  0  0  0  0  0  0  0
    6.2800   -3.1470   19.7060 O   0  0  0  0  0  0  0  0  0  0  0  0
    6.6680   -2.0110   21.9810 C   0  0  0  0  0  0  0  0  0  0  0  0
    7.2450   -1.5610   23.3600 C   0  0  0  0  0  0  0  0  0  0  0  0
    6.4030   -0.8910   21.3850 C   0  0  0  0  0  0  0  0  0  0  0  0
    7.6380   -2.4820   24.2640 N   0  0  0  0  0  0  0  0  0  0  0  0
    6.9400   -1.0970   22.6280 C   0  0  0  0  0  0  0  0  0  0  0  0
    7.1270   -2.6040   23.0600 C   0  0  0  0  0  0  0  0  0  0  0  0
    7.2340    0.1360   23.2950 C   0  0  1  0  0  0  0  0  0  0  0  0
    6.9130   -3.8680   22.5460 N   0  0  0  0  0  0  0  0  0  0  0  0
    6.7190    0.3290   24.5970 C   0  0  0  0  0  0  0  0  0  0  0  0
    8.6120    0.5620   23.2050 C   0  0  2  0  0  0  0  0  0  0  0  0
    6.9660   -5.0790   23.2950 C   0  0  0  0  0  0  0  0  0  0  0  0
    7.7030    0.8080   25.4200 C   0  0  0  0  0  0  0  0  0  0  0  0
    8.9060    0.9570   24.5280 C   0  0  0  0  0  0  0  0  0  0  0  0
    8.9630    1.6670   22.1800 C   0  0  0  0  0  0  0  0  0  0  0  0
    8.1720   -6.0080   23.2390 C   0  0  0  0  0  0  0  0  0  0  0  0
    9.8270    2.6240   22.6600 N   0  0  0  0  0  0  0  0  0  0  0  0
    8.5330    1.7260   21.0240 O   0  0  0  0  0  0  0  0  0  0  0  0
  1  2  1  0
  3  2  1  0
  3  4  2  0
  3  5  2  0
  3  6  1  0
  6  7  2  0
  6  8  1  0
  7  9  1  0
  8 10  2  0
  9 11  2  0
 10 11  1  0
 12 10  1  1
 11 13  1  0
 12 14  1  0
 12 15  1  0
 13 16  1  0
 14 17  1  0
 15 18  1  0
 17 18  1  0
 15 19  1  6
 16 20  1  0
 19 21  1  0
 19 22  2  0
M  END
