PET-SGC-cb83a00c-1-acrylamide
     RDKit          3D

 20 21  0  0  0  0  0  0  0  0999 V2000
    6.4870   -3.7480   19.6090 C   0  0  0  0  0  0  0  0  0  0  0  0
    6.8750   -2.8990   20.7830 C   0  0  0  0  0  0  0  0  0  0  0  0
    6.0700   -3.2870   22.0120 C   0  0  0  0  0  0  0  0  0  0  0  0
    4.9030   -3.7680   21.8650 O   0  0  0  0  0  0  0  0  0  0  0  0
    6.6950   -3.1290   23.4310 C   0  0  0  0  0  0  0  0  0  0  0  0
    8.1440   -2.5200   22.7570 C   0  0  0  0  0  0  0  0  0  0  0  0
    7.5520   -2.8610   24.3990 C   0  0  0  0  0  0  0  0  0  0  0  0
    7.9930   -2.4500   21.2500 C   0  0  0  0  0  0  0  0  0  0  0  0
    8.4600   -2.4830   23.6430 N   0  0  0  0  0  0  0  0  0  0  0  0
    7.5270   -2.7120   22.6010 C   0  0  0  0  0  0  0  0  0  0  0  0
    6.0900   -3.1750   22.8940 C   0  0  0  0  0  0  0  0  0  0  0  0
    5.5190   -2.4150   24.0490 N   0  0  0  0  0  0  0  0  0  0  0  0
    5.6700   -0.9810   23.9940 C   0  0  0  0  0  0  0  0  0  0  0  0
    6.9280   -0.5180   24.1910 O   0  0  0  0  0  0  0  0  0  0  0  0
    4.5540   -0.2220   23.7580 N   0  0  0  0  0  0  0  0  0  0  0  0
    4.5590    0.3390   22.5190 C   0  0  0  0  0  0  0  0  0  0  0  0
    4.0280    0.6100   24.7840 C   0  0  0  0  0  0  0  0  0  0  0  0
    3.2880    0.9480   22.2120 C   0  0  0  0  0  0  0  0  0  0  0  0
    2.7920    1.0790   24.3780 C   0  0  0  0  0  0  0  0  0  0  0  0
    2.4250    0.5900   23.3020 O   0  0  0  0  0  0  0  0  0  0  0  0
  1  2  1  0
  2  3  1  0
  3  4  2  0
  3  5  1  0
  5  6  2  0
  5  7  1  0
  6  8  1  0
  7  9  2  0
  8 10  2  0
  9 10  1  0
 10 11  1  0
 11 12  1  0
 12 13  1  0
 13 14  2  0
 13 15  1  0
 15 16  1  0
 15 17  1  0
 16 18  1  0
 17 19  1  0
 18 20  1  0
 19 20  1  0
M  END
