PET-SGC-175e168c-1-nitrile
     RDKit          3D

 22 23  0  0  0  0  0  0  0  0999 V2000
    7.5240   -7.3930   19.5270 C   0  0  0  0  0  0  0  0  0  0  0  0
    7.0250   -8.2600   18.7430 N   0  0  0  0  0  0  0  0  0  0  0  0
    7.6220   -7.5500   21.0840 C   0  0  0  0  0  0  0  0  0  0  0  0
    8.2090   -8.8940   21.3390 C   0  0  0  0  0  0  0  0  0  0  0  0
    7.7550   -7.7920   22.5440 C   0  0  0  0  0  0  0  0  0  0  0  0
    8.1640   -8.7880   22.9070 N   0  0  0  0  0  0  0  0  0  0  0  0
    7.3750   -6.9170   24.0680 C   0  0  0  0  0  0  0  0  0  0  0  0
    7.5930   -7.4190   23.1910 C   0  0  0  0  0  0  0  0  0  0  0  0
    6.9530   -5.6550   23.7130 C   0  0  0  0  0  0  0  0  0  0  0  0
    7.3530   -6.6400   21.9680 N   0  0  0  0  0  0  0  0  0  0  0  0
    6.2870   -4.7020   24.6930 C   0  0  0  0  0  0  0  0  0  0  0  0
    6.3970   -6.8560   21.0460 C   0  0  0  0  0  0  0  0  0  0  0  0
    6.5620   -4.4470   25.8920 O   0  0  0  0  0  0  0  0  0  0  0  0
    5.3130   -3.9570   24.0590 N   0  0  0  0  0  0  0  0  0  0  0  0
    6.8370   -7.7540   19.8150 C   0  0  0  0  0  0  0  0  0  0  0  0
    5.5850   -3.0870   22.8970 C   0  0  0  0  0  0  0  0  0  0  0  0
    5.0180   -3.6300   21.7260 C   0  0  0  0  0  0  0  0  0  0  0  0
    6.3070   -1.8100   23.0140 C   0  0  0  0  0  0  0  0  0  0  0  0
    5.2820   -2.6600   20.7290 N   0  0  0  0  0  0  0  0  0  0  0  0
    6.5560   -0.8270   21.7690 C   0  0  0  0  0  0  0  0  0  0  0  0
    6.9200   -1.3120   24.3130 C   0  0  0  0  0  0  0  0  0  0  0  0
    5.9990   -1.2780   20.6700 C   0  0  0  0  0  0  0  0  0  0  0  0
  1  2  2  3
  1  3  1  0
  3  4  2  0
  3  5  1  0
  4  6  1  0
  5  7  2  0
  6  8  2  0
  7  8  1  0
  7  9  1  0
  8 10  1  0
  9 11  1  0
 10 12  1  0
 11 13  2  0
 11 14  1  0
 12 15  1  0
 14 16  1  0
 16 17  2  0
 16 18  1  0
 17 19  1  0
 18 20  2  0
 18 21  1  0
 19 22  2  0
 20 22  1  0
M  END
