PET-SGC-175e168c-1-chloroacetamide
     RDKit          3D

 23 24  0  0  0  0  0  0  0  0999 V2000
    8.3300   -4.2260   20.3830 C   0  0  0  0  0  0  0  0  0  0  0  0
    7.7420   -3.1490   20.3240 C   0  0  0  0  0  0  0  0  0  0  0  0
    6.7820   -3.0470   19.3640 O   0  0  0  0  0  0  0  0  0  0  0  0
    8.4010   -2.3100   21.4990 C   0  0  0  0  0  0  0  0  0  0  0  0
    9.2330   -3.0140   22.6240 C   0  0  0  0  0  0  0  0  0  0  0  0
    8.3570   -0.9530   21.7110 C   0  0  0  0  0  0  0  0  0  0  0  0
    9.8260   -2.4430   23.6950 N   0  0  0  0  0  0  0  0  0  0  0  0
    8.9760   -0.3200   22.8410 C   0  0  0  0  0  0  0  0  0  0  0  0
    9.6640   -1.0270   23.8060 C   0  0  0  0  0  0  0  0  0  0  0  0
    8.8190    1.0340   22.8810 C   0  0  0  0  0  0  0  0  0  0  0  0
   10.1780   -0.2700   24.9370 N   0  0  0  0  0  0  0  0  0  0  0  0
    8.6420    1.3630   21.5830 C   0  0  0  0  0  0  0  0  0  0  0  0
    9.2050    0.4750   25.6250 C   0  0  0  0  0  0  0  0  0  0  0  0
    8.9970    2.4380   21.1510 O   0  0  0  0  0  0  0  0  0  0  0  0
    8.0150    0.2830   20.8400 N   0  0  0  0  0  0  0  0  0  0  0  0
    8.7280   -0.0210   26.9690 C   0  0  0  0  0  0  0  0  0  0  0  0
    6.9050    0.4380   20.0900 C   0  0  0  0  0  0  0  0  0  0  0  0
    6.9430    0.2800   18.7080 C   0  0  0  0  0  0  0  0  0  0  0  0
    5.7060    0.7620   20.7370 C   0  0  0  0  0  0  0  0  0  0  0  0
    5.8310    0.4220   17.7820 N   0  0  0  0  0  0  0  0  0  0  0  0
    4.5610    0.9300   19.9790 C   0  0  0  0  0  0  0  0  0  0  0  0
    5.5350    0.9560   22.2560 C   0  0  0  0  0  0  0  0  0  0  0  0
    4.5680    0.7710   18.4770 C   0  0  0  0  0  0  0  0  0  0  0  0
  1  2  1  0
  2  3  2  0
  2  4  1  0
  4  5  2  0
  4  6  1  0
  5  7  1  0
  6  8  2  0
  7  9  2  0
  8  9  1  0
  8 10  1  0
  9 11  1  0
 10 12  1  0
 11 13  1  0
 12 14  2  0
 12 15  1  0
 13 16  1  0
 15 17  1  0
 17 18  2  0
 17 19  1  0
 18 20  1  0
 19 21  2  0
 19 22  1  0
 20 23  2  0
 21 23  1  0
M  END
