PHI-UNK-c3ab17cb-2
     RDKit          3D

 25 27  0  0  0  0  0  0  0  0999 V2000
    9.3120   -2.9730   23.1170 N   0  0  0  0  0  0  0  0  0  0  0  0
    9.5670   -2.1150   24.1430 C   0  0  0  0  0  0  0  0  0  0  0  0
    9.1230   -2.3050   25.2690 O   0  0  0  0  0  0  0  0  0  0  0  0
   10.4260   -0.9380   23.7810 C   0  0  0  0  0  0  0  0  0  0  0  0
   11.4690   -1.0450   22.8390 C   0  0  0  0  0  0  0  0  0  0  0  0
   10.2880    0.3390   24.3330 C   0  0  0  0  0  0  0  0  0  0  0  0
   12.2830    0.0000   22.4530 C   0  0  0  0  0  0  0  0  0  0  0  0
   11.1060    1.3680   23.9020 C   0  0  0  0  0  0  0  0  0  0  0  0
    9.2490    0.6710   25.4160 C   0  0  0  0  0  0  0  0  0  0  0  0
   12.1010    1.3070   22.9740 C   0  0  0  0  0  0  0  0  0  0  0  0
    7.9730    0.5020   24.9900 N   0  0  0  0  0  0  0  0  0  0  0  0
   12.7830    2.5000   22.6490 C   0  0  0  0  0  0  0  0  0  0  0  0
    7.3330    1.2850   24.0270 C   0  0  0  0  0  0  0  0  0  0  0  0
   12.1250    3.8410   23.0730 C   0  0  2  0  0  0  0  0  0  0  0  0
    7.8370    2.3270   23.5910 O   0  0  0  0  0  0  0  0  0  0  0  0
    5.9710    0.7670   23.5450 C   0  0  0  0  0  0  0  0  0  0  0  0
   12.8850    4.7540   22.1370 C   0  0  0  0  0  0  0  0  0  0  0  0
   11.6910    4.7450   23.7620 N   0  0  0  0  0  0  0  0  0  0  0  0
    5.1770    1.5550   22.4840 C   0  0  0  0  0  0  0  0  0  0  0  0
    5.1820    0.6470   24.7100 C   0  0  0  0  0  0  0  0  0  0  0  0
   13.1020    5.8160   21.9580 N   0  0  0  0  0  0  0  0  0  0  0  0
   12.2540    6.0140   23.1390 C   0  0  0  0  0  0  0  0  0  0  0  0
    3.7890    1.2780   22.4610 C   0  0  0  0  0  0  0  0  0  0  0  0
    3.8470    0.3220   24.4950 C   0  0  0  0  0  0  0  0  0  0  0  0
    3.1890    1.1700   23.5420 O   0  0  0  0  0  0  0  0  0  0  0  0
  1  2  1  0
  2  3  2  0
  2  4  1  0
  4  5  2  0
  4  6  1  0
  5  7  1  0
  6  8  2  0
  6  9  1  0
  7 10  2  0
  8 10  1  0
  9 11  1  0
 10 12  1  0
 11 13  1  0
 14 12  1  1
 13 15  2  0
 13 16  1  0
 14 17  1  0
 14 18  1  0
 16 19  1  0
 16 20  1  0
 17 21  2  0
 18 22  2  0
 21 22  1  0
 19 23  1  0
 20 24  1  0
 23 25  1  0
 24 25  1  0
M  END
