PHI-UNK-c3ab17cb-1-chloroacetamide
     RDKit          3D

 22 23  0  0  0  0  0  0  0  0999 V2000
    8.5660   -3.7740   20.4690 C   0  0  0  0  0  0  0  0  0  0  0  0
    7.6360   -2.5380   20.2860 C   0  0  0  0  0  0  0  0  0  0  0  0
    6.8540   -3.2120   19.4150 O   0  0  0  0  0  0  0  0  0  0  0  0
    8.7570   -1.9940   21.3580 C   0  0  0  0  0  0  0  0  0  0  0  0
   10.1440   -2.2770   21.4890 C   0  0  0  0  0  0  0  0  0  0  0  0
    8.4570   -1.0470   22.4240 C   0  0  0  0  0  0  0  0  0  0  0  0
   11.0530   -1.7780   22.4060 C   0  0  0  0  0  0  0  0  0  0  0  0
    9.4020   -0.5410   23.3680 C   0  0  0  0  0  0  0  0  0  0  0  0
   10.7450   -0.8850   23.3890 C   0  0  0  0  0  0  0  0  0  0  0  0
    9.0270    0.4520   24.4750 C   0  0  0  0  0  0  0  0  0  0  0  0
   11.8270   -0.3800   24.3410 C   0  0  0  0  0  0  0  0  0  0  0  0
    8.3670    1.1980   25.0450 N   0  0  0  0  0  0  0  0  0  0  0  0
   12.5110   -1.3460   25.0200 N   0  0  0  0  0  0  0  0  0  0  0  0
   12.0720    0.8050   24.4290 O   0  0  0  0  0  0  0  0  0  0  0  0
    7.5240    2.1110   24.2710 C   0  0  0  0  0  0  0  0  0  0  0  0
    8.0030    3.0650   23.6610 O   0  0  0  0  0  0  0  0  0  0  0  0
    6.0040    1.7890   24.2670 C   0  0  0  0  0  0  0  0  0  0  0  0
    5.4760    0.5570   25.0490 C   0  0  0  0  0  0  0  0  0  0  0  0
    5.5420    1.8260   22.9210 C   0  0  0  0  0  0  0  0  0  0  0  0
    4.0210    0.1750   24.6980 C   0  0  0  0  0  0  0  0  0  0  0  0
    4.4940    0.9540   22.5530 C   0  0  0  0  0  0  0  0  0  0  0  0
    3.5260    0.8090   23.6030 O   0  0  0  0  0  0  0  0  0  0  0  0
  1  2  1  0
  2  3  2  0
  2  4  1  0
  4  5  2  0
  4  6  1  0
  5  7  1  0
  6  8  2  0
  7  9  2  0
  8  9  1  0
  8 10  1  0
  9 11  1  0
 10 12  1  0
 11 13  1  0
 11 14  2  0
 12 15  1  0
 15 16  2  0
 15 17  1  0
 17 18  1  0
 17 19  1  0
 18 20  1  0
 19 21  1  0
 20 22  1  0
 21 22  1  0
M  END
