PHI-UNK-c3ab17cb-1-bromoalkyne
     RDKit          3D

 21 22  0  0  0  0  0  0  0  0999 V2000
    7.9730   -3.4500   20.0500 C   0  0  0  0  0  0  0  0  0  0  0  0
    6.3720   -3.6220   19.9360 C   0  0  0  0  0  0  0  0  0  0  0  0
    8.9420   -2.5110   21.2190 C   0  0  0  0  0  0  0  0  0  0  0  0
   10.4160   -2.4620   21.3890 C   0  0  0  0  0  0  0  0  0  0  0  0
    8.5480   -1.5540   22.3200 C   0  0  0  0  0  0  0  0  0  0  0  0
   11.2240   -1.7770   22.2760 C   0  0  0  0  0  0  0  0  0  0  0  0
    9.4420   -0.8430   23.2430 C   0  0  0  0  0  0  0  0  0  0  0  0
   10.8060   -0.9390   23.2460 C   0  0  0  0  0  0  0  0  0  0  0  0
    9.0420    0.1320   24.3720 C   0  0  0  0  0  0  0  0  0  0  0  0
   11.7940   -0.2320   24.1750 C   0  0  0  0  0  0  0  0  0  0  0  0
    8.4590    0.9510   24.9030 N   0  0  0  0  0  0  0  0  0  0  0  0
   12.4500   -1.0410   25.0520 N   0  0  0  0  0  0  0  0  0  0  0  0
   11.9960    1.1220   24.0760 O   0  0  0  0  0  0  0  0  0  0  0  0
    7.4980    1.7090   24.1170 C   0  0  0  0  0  0  0  0  0  0  0  0
    7.7320    2.8280   23.6690 O   0  0  0  0  0  0  0  0  0  0  0  0
    6.1830    0.9320   23.8910 C   0  0  0  0  0  0  0  0  0  0  0  0
    5.2110    0.7900   25.0840 C   0  0  0  0  0  0  0  0  0  0  0  0
    5.5360    1.4220   22.7310 C   0  0  0  0  0  0  0  0  0  0  0  0
    3.7350    0.5110   24.7140 C   0  0  0  0  0  0  0  0  0  0  0  0
    4.1560    1.6570   22.8480 C   0  0  0  0  0  0  0  0  0  0  0  0
    3.5860    0.6620   23.3050 O   0  0  0  0  0  0  0  0  0  0  0  0
  1  2  2  3
  1  3  1  0
  3  4  2  0
  3  5  1  0
  4  6  1  0
  5  7  2  0
  6  8  2  0
  7  8  1  0
  7  9  1  0
  8 10  1  0
  9 11  1  0
 10 12  1  0
 10 13  2  0
 11 14  1  0
 14 15  2  0
 14 16  1  0
 16 17  1  0
 16 18  1  0
 17 19  1  0
 18 20  1  0
 19 21  1  0
 20 21  1  0
M  END
