RAF-SAT-b3ff87a1-4-vinylsulfonamide
     RDKit          3D

 17 17  0  0  0  0  0  0  0  0999 V2000
    8.2770   -3.3940   20.0860 C   0  0  0  0  0  0  0  0  0  0  0  0
    7.1240   -4.0340   20.8260 C   0  0  0  0  0  0  0  0  0  0  0  0
    5.7190   -3.2720   20.1110 S   0  0  0  0  0  0  0  0  0  0  0  0
    4.9590   -4.3080   19.4960 O   0  0  0  0  0  0  0  0  0  0  0  0
    5.1430   -2.4590   21.1580 O   0  0  0  0  0  0  0  0  0  0  0  0
    6.3520   -2.2560   18.9320 N   0  0  0  0  0  0  0  0  0  0  0  0
    6.1550   -0.8330   19.1240 C   0  0  0  0  0  0  0  0  0  0  0  0
    5.3960   -0.2610   18.1600 N   0  0  0  0  0  0  0  0  0  0  0  0
    6.6940   -0.1370   20.2370 C   0  0  0  0  0  0  0  0  0  0  0  0
    5.0750    1.0260   18.2380 C   0  0  0  0  0  0  0  0  0  0  0  0
    6.3440    1.2110   20.3440 C   0  0  0  0  0  0  0  0  0  0  0  0
    7.5160   -0.5640   21.2680 N   0  0  0  0  0  0  0  0  0  0  0  0
    5.4850    1.9790   19.3670 C   0  0  0  0  0  0  0  0  0  0  0  0
    6.7380    2.1940   21.4560 C   0  0  0  0  0  0  0  0  0  0  0  0
    8.7650    0.0530   21.5820 C   0  0  0  0  0  0  0  0  0  0  0  0
    9.7680   -0.7880   22.3720 C   0  0  0  0  0  0  0  0  0  0  0  0
    9.0780    1.2100   21.2370 O   0  0  0  0  0  0  0  0  0  0  0  0
  1  2  1  0
  2  3  1  0
  3  4  2  0
  3  5  2  0
  3  6  1  0
  6  7  1  0
  7  8  2  0
  7  9  1  0
  8 10  1  0
  9 11  2  0
  9 12  1  0
 10 13  2  0
 11 13  1  0
 11 14  1  0
 12 15  1  0
 15 16  1  0
 15 17  2  0
M  END
