RAF-SAT-b3ff87a1-3
     RDKit          3D

 15 16  0  0  0  0  0  0  0  0999 V2000
    7.5200    0.3370   21.8750 N   0  0  0  0  0  0  0  0  0  0  0  0
    6.0560    0.1180   21.8200 C   0  0  2  0  0  0  0  0  0  0  0  0
    5.6350   -1.1150   21.0200 C   0  0  0  0  0  0  0  0  0  0  0  0
    5.2920    1.3140   21.2350 C   0  0  1  0  0  0  0  0  0  0  0  0
    5.8490   -0.9350   19.5960 N   0  0  0  0  0  0  0  0  0  0  0  0
    4.5480    0.9900   20.0870 C   0  0  0  0  0  0  0  0  0  0  0  0
    4.3810    1.8190   22.2260 O   0  0  0  0  0  0  0  0  0  0  0  0
    7.2220   -0.6180   19.4820 C   0  0  1  0  0  0  0  0  0  0  0  0
    5.0620    0.1900   19.0720 C   0  0  0  0  0  0  0  0  0  0  0  0
    8.0020   -1.4650   20.3740 N   0  0  0  0  0  0  0  0  0  0  0  0
    7.4550   -0.5320   17.9930 C   0  0  0  0  0  0  0  0  0  0  0  0
    7.0950    0.8950   17.6740 C   0  0  0  0  0  0  0  0  0  0  0  0
    7.8690   -1.3220   16.9570 C   0  0  0  0  0  0  0  0  0  0  0  0
    7.3440    1.0210   16.2170 C   0  0  0  0  0  0  0  0  0  0  0  0
    7.8940   -0.4190   15.5080 S   0  0  0  0  0  0  0  0  0  0  0  0
  2  1  1  6
  2  3  1  0
  2  4  1  0
  3  5  1  0
  4  6  1  0
  4  7  1  1
  5  8  1  0
  5  9  1  0
  6  9  1  0
  8 10  1  6
  8 11  1  0
 11 12  1  0
 11 13  2  0
 12 14  2  0
 13 15  1  0
 14 15  1  0
M  END
