RAF-POL-8f876833-1
     RDKit          3D

 17 18  0  0  0  0  0  0  0  0999 V2000
    5.1900    4.4640   25.6050 C   0  0  0  0  0  0  0  0  0  0  0  0
    4.9360    4.9230   24.2790 C   0  0  0  0  0  0  0  0  0  0  0  0
    3.7390    4.4820   23.7550 N   0  0  0  0  0  0  0  0  0  0  0  0
    2.6020    4.6810   24.5440 N   0  0  0  0  0  0  0  0  0  0  0  0
    3.4100    3.8440   22.5210 C   0  0  0  0  0  0  0  0  0  0  0  0
    1.6270    4.1620   23.7810 C   0  0  0  0  0  0  0  0  0  0  0  0
    2.0460    3.6410   22.5560 C   0  0  0  0  0  0  0  0  0  0  0  0
    4.1820    3.4090   21.3550 N   0  0  0  0  0  0  0  0  0  0  0  0
    5.4420    2.7670   21.3570 C   0  0  0  0  0  0  0  0  0  0  0  0
    6.5260    3.3120   21.5400 O   0  0  0  0  0  0  0  0  0  0  0  0
    5.3960    1.4320   21.1430 N   0  0  0  0  0  0  0  0  0  0  0  0
    6.4960    0.6530   21.0550 C   0  0  0  0  0  0  0  0  0  0  0  0
    4.5020    1.0770   20.1530 O   0  0  0  0  0  0  0  0  0  0  0  0
    6.4470   -0.4480   20.1940 C   0  0  0  0  0  0  0  0  0  0  0  0
    4.9550    1.5630   18.8990 C   0  0  0  0  0  0  0  0  0  0  0  0
    6.7140   -0.0980   18.8660 C   0  0  0  0  0  0  0  0  0  0  0  0
    5.7720    0.6800   18.1710 C   0  0  0  0  0  0  0  0  0  0  0  0
  1  2  1  0
  2  3  1  0
  3  4  1  0
  3  5  1  0
  4  6  2  0
  5  7  2  0
  6  7  1  0
  5  8  1  0
  8  9  1  0
  9 10  2  0
  9 11  1  0
 11 12  1  0
 11 13  1  0
 12 14  1  0
 13 15  1  0
 14 16  1  0
 15 17  1  0
 16 17  1  0
M  END
