RAF-POL-950dada1-13
     RDKit          3D

 18 20  0  0  0  0  0  0  0  0999 V2000
    6.4360   -0.3280   25.9230 O   0  0  0  0  0  0  0  0  0  0  0  0
    6.3510   -0.5830   24.6310 C   0  0  0  0  0  0  0  0  0  0  0  0
    6.2310   -1.7580   24.0690 N   0  0  0  0  0  0  0  0  0  0  0  0
    6.3850    0.4640   23.7680 O   0  0  0  0  0  0  0  0  0  0  0  0
    6.1760   -1.5070   22.7100 N   0  0  0  0  0  0  0  0  0  0  0  0
    6.2700   -0.1970   22.5660 C   0  0  0  0  0  0  0  0  0  0  0  0
    6.2690    0.6330   21.3200 C   0  0  2  0  0  0  0  0  0  0  0  0
    4.8650    1.1410   20.9840 C   0  0  0  0  0  0  0  0  0  0  0  0
    6.7910   -0.1750   20.1310 C   0  0  0  0  0  0  0  0  0  0  0  0
    4.8530    1.9900   19.7180 C   0  0  0  0  0  0  0  0  0  0  0  0
    6.7630    0.6450   18.8900 N   0  0  0  0  0  0  0  0  0  0  0  0
    5.4700    1.2520   18.5420 C   0  0  0  0  0  0  0  0  0  0  0  0
    6.9060   -0.2070   17.8220 C   0  0  0  0  0  0  0  0  0  0  0  0
    7.4810    0.2500   16.6600 C   0  0  0  0  0  0  0  0  0  0  0  0
    6.4640   -1.4560   17.9300 N   0  0  0  0  0  0  0  0  0  0  0  0
    7.5940   -0.6020   15.6010 C   0  0  0  0  0  0  0  0  0  0  0  0
    6.5650   -2.2990   16.8860 N   0  0  0  0  0  0  0  0  0  0  0  0
    7.1100   -1.8730   15.7630 C   0  0  0  0  0  0  0  0  0  0  0  0
  1  2  1  0
  2  3  2  0
  2  4  1  0
  3  5  1  0
  4  6  1  0
  5  6  2  0
  7  6  1  1
  7  8  1  0
  7  9  1  0
  8 10  1  0
  9 11  1  0
 10 12  1  0
 11 12  1  0
 11 13  1  0
 13 14  2  0
 13 15  1  0
 14 16  1  0
 15 17  2  0
 16 18  2  0
 17 18  1  0
M  END
