RAF-POL-f691468c-2
     RDKit          3D

 17 18  0  0  0  0  0  0  0  0999 V2000
    3.9930    6.0470   20.7900 C   0  0  0  0  0  0  0  0  0  0  0  0
    2.7840    5.3310   21.0150 O   0  0  0  0  0  0  0  0  0  0  0  0
    2.4710    4.3940   20.0730 C   0  0  2  0  0  0  0  0  0  0  0  0
    1.0500    3.9210   19.8500 C   0  0  0  0  0  0  0  0  0  0  0  0
    3.0850    3.0410   20.4730 C   0  0  1  0  0  0  0  0  0  0  0  0
    0.7780    2.6380   20.2160 O   0  0  0  0  0  0  0  0  0  0  0  0
    2.0080    2.1810   20.8380 C   0  0  0  0  0  0  0  0  0  0  0  0
    3.7230    2.3760   19.3310 N   0  0  0  0  0  0  0  0  0  0  0  0
    4.3440    1.1950   19.6910 C   0  0  0  0  0  0  0  0  0  0  0  0
    3.6950    0.1780   19.8040 O   0  0  0  0  0  0  0  0  0  0  0  0
    5.6830    1.2090   19.9320 N   0  0  0  0  0  0  0  0  0  0  0  0
    6.2090    0.8230   18.7940 C   0  0  0  0  0  0  0  0  0  0  0  0
    6.1260    0.2290   20.9670 C   0  0  1  0  0  0  0  0  0  0  0  0
    6.6620   -0.5630   18.9580 C   0  0  0  0  0  0  0  0  0  0  0  0
    6.9100   -0.7360   20.3230 C   0  0  0  0  0  0  0  0  0  0  0  0
    6.6150    0.6920   22.2000 C   0  0  0  0  0  0  0  0  0  0  0  0
    7.6280   -0.0550   22.8470 N   0  0  0  0  0  0  0  0  0  0  0  0
  1  2  1  0
  3  2  1  1
  3  4  1  0
  3  5  1  0
  4  6  1  0
  5  7  1  0
  6  7  1  0
  5  8  1  6
  8  9  1  0
  9 10  2  0
  9 11  1  0
 11 12  1  0
 11 13  1  0
 12 14  1  0
 13 15  1  0
 14 15  1  0
 13 16  1  1
 16 17  1  0
M  END
