RAF-POL-f691468c-1
     RDKit          3D

 18 20  0  0  0  0  0  0  0  0999 V2000
   10.2770   -0.8190   22.4700 C   0  0  0  0  0  0  0  0  0  0  0  0
    9.3590    0.2660   22.5570 C   0  0  0  0  0  0  0  0  0  0  0  0
    9.8310    1.6640   22.5940 N   0  0  0  0  0  0  0  0  0  0  0  0
    8.0740   -0.0510   22.5970 N   0  0  0  0  0  0  0  0  0  0  0  0
    8.8230    2.6770   22.6490 C   0  0  0  0  0  0  0  0  0  0  0  0
    7.1560    0.9370   22.6450 C   0  0  0  0  0  0  0  0  0  0  0  0
    7.3950    2.3070   22.6600 C   0  0  0  0  0  0  0  0  0  0  0  0
    5.8450    0.6680   22.6840 N   0  0  0  0  0  0  0  0  0  0  0  0
    6.3900    3.3860   22.6810 C   0  0  0  0  0  0  0  0  0  0  0  0
    5.4880    0.3930   21.4790 C   0  0  1  0  0  0  0  0  0  0  0  0
    4.7880    1.5090   20.7860 C   0  0  0  0  0  0  0  0  0  0  0  0
    6.6870    0.1080   20.5470 C   0  0  0  0  0  0  0  0  0  0  0  0
    5.4450    1.9420   19.6310 C   0  0  0  0  0  0  0  0  0  0  0  0
    6.2300    0.0230   19.2610 C   0  0  0  0  0  0  0  0  0  0  0  0
    5.4770    1.0340   18.5900 C   0  0  0  0  0  0  0  0  0  0  0  0
    6.4000   -1.0020   18.4550 C   0  0  0  0  0  0  0  0  0  0  0  0
    5.2620    0.5930   17.4990 N   0  0  0  0  0  0  0  0  0  0  0  0
    5.7830   -0.6200   17.3720 N   0  0  0  0  0  0  0  0  0  0  0  0
  1  2  1  0
  2  3  2  0
  2  4  1  0
  3  5  1  0
  4  6  2  0
  5  7  2  0
  6  7  1  0
  6  8  1  0
  7  9  1  0
 10  8  1  1
 10 11  1  0
 10 12  1  0
 11 13  1  0
 12 14  1  0
 13 15  1  0
 14 15  1  0
 14 16  2  0
 15 17  2  0
 16 18  1  0
 17 18  1  0
M  END
