RAF-UNK-9885c2f5-1-chloroacetamide
     RDKit          3D

 33 36  0  0  0  0  0  0  0  0999 V2000
    7.5870   -2.9860   18.8920 C   0  0  0  0  0  0  0  0  0  0  0  0
    6.8160   -3.4420   20.0740 C   0  0  0  0  0  0  0  0  0  0  0  0
    5.7510   -4.0840   19.8430 O   0  0  0  0  0  0  0  0  0  0  0  0
    7.3770   -3.2340   21.4070 N   0  0  0  0  0  0  0  0  0  0  0  0
    6.9290   -4.1690   22.4330 C   0  0  0  0  0  0  0  0  0  0  0  0
    7.9290   -1.9130   21.9990 C   0  0  1  0  0  0  0  0  0  0  0  0
    7.6420   -4.0170   23.7650 C   0  0  0  0  0  0  0  0  0  0  0  0
    7.2300   -1.6740   23.1600 C   0  0  0  0  0  0  0  0  0  0  0  0
    9.3680   -1.6730   22.1120 C   0  0  0  0  0  0  0  0  0  0  0  0
    7.6100   -2.6450   24.2200 N   0  0  0  0  0  0  0  0  0  0  0  0
   10.2320   -2.4960   21.4190 C   0  0  0  0  0  0  0  0  0  0  0  0
   10.0140   -0.5480   22.9360 C   0  0  0  0  0  0  0  0  0  0  0  0
    7.0520   -2.2540   25.3890 C   0  0  0  0  0  0  0  0  0  0  0  0
   11.6690   -2.3080   21.4310 C   0  0  0  0  0  0  0  0  0  0  0  0
   11.5900   -0.4030   22.9090 C   0  0  0  0  0  0  0  0  0  0  0  0
    5.9990   -2.6300   25.8830 O   0  0  0  0  0  0  0  0  0  0  0  0
    7.8540   -1.2530   26.0730 C   0  0  0  0  0  0  0  0  0  0  0  0
   12.3570   -1.3010   22.1300 C   0  0  0  0  0  0  0  0  0  0  0  0
    8.3740   -1.4270   27.4840 C   0  0  0  0  0  0  0  0  0  0  0  0
    8.2200   -0.1550   25.6250 O   0  0  0  0  0  0  0  0  0  0  0  0
   13.8180   -1.3620   21.8720 O   0  0  0  0  0  0  0  0  0  0  0  0
    9.0650   -0.3050   27.7640 C   0  0  0  0  0  0  0  0  0  0  0  0
    8.9670    0.4780   26.6150 C   0  0  0  0  0  0  0  0  0  0  0  0
   13.8150   -0.8760   20.5200 C   0  0  0  0  0  0  0  0  0  0  0  0
   14.7520   -0.0360   19.4830 C   0  0  0  0  0  0  0  0  0  0  0  0
   14.9050    1.1570   19.7350 O   0  0  0  0  0  0  0  0  0  0  0  0
   15.4490   -0.4320   18.3200 N   0  0  0  0  0  0  0  0  0  0  0  0
   15.1580    0.5910   17.3240 C   0  0  0  0  0  0  0  0  0  0  0  0
   16.9110   -0.7360   18.3180 C   0  0  0  0  0  0  0  0  0  0  0  0
   16.2290    0.8590   16.3640 C   0  0  0  0  0  0  0  0  0  0  0  0
   17.7030    0.1440   17.6720 C   0  0  0  0  0  0  0  0  0  0  0  0
   17.3360   -0.0180   16.3470 N   0  0  0  0  0  0  0  0  0  0  0  0
   17.0110   -1.4310   16.1700 C   0  0  0  0  0  0  0  0  0  0  0  0
  1  2  1  0
  2  3  2  0
  2  4  1  0
  4  5  1  0
  4  6  1  0
  5  7  1  0
  6  8  1  0
  6  9  1  1
  7 10  1  0
  8 10  1  0
  9 11  2  0
  9 12  1  0
 10 13  1  0
 11 14  1  0
 12 15  2  0
 13 16  2  0
 13 17  1  0
 14 18  2  0
 15 18  1  0
 17 19  2  0
 17 20  1  0
 18 21  1  0
 19 22  1  0
 20 23  1  0
 22 23  2  0
 21 24  1  0
 24 25  1  0
 25 26  2  0
 25 27  1  0
 27 28  1  0
 27 29  1  0
 28 30  1  0
 29 31  1  0
 30 32  1  0
 31 32  1  0
 32 33  1  0
M  END
