RAF-POL-950dada1-12
     RDKit          3D

 17 18  0  0  0  0  0  0  0  0999 V2000
    6.0130   -6.6170   22.2310 C   0  0  0  0  0  0  0  0  0  0  0  0
    6.4700   -5.1950   22.1680 C   0  0  0  0  0  0  0  0  0  0  0  0
    7.6340   -4.8890   21.9490 O   0  0  0  0  0  0  0  0  0  0  0  0
    5.4620   -4.2740   22.3600 N   0  0  0  0  0  0  0  0  0  0  0  0
    5.5760   -2.9430   21.7840 C   0  0  0  0  0  0  0  0  0  0  0  0
    5.3660   -3.0170   20.2630 C   0  0  0  0  0  0  0  0  0  0  0  0
    5.1960   -4.1240   19.7200 O   0  0  0  0  0  0  0  0  0  0  0  0
    5.3750   -1.8220   19.5620 N   0  0  0  0  0  0  0  0  0  0  0  0
    6.3230   -1.4130   18.5420 C   0  0  0  0  0  0  0  0  0  0  0  0
    4.8830   -0.6050   20.1730 C   0  0  0  0  0  0  0  0  0  0  0  0
    5.8250   -0.0400   18.1380 C   0  0  0  0  0  0  0  0  0  0  0  0
    5.7200    0.4970   19.5190 C   0  0  1  0  0  0  0  0  0  0  0  0
    5.0590    1.8320   19.7170 C   0  0  0  0  0  0  0  0  0  0  0  0
    7.0960    0.5160   20.1650 C   0  0  0  0  0  0  0  0  0  0  0  0
    5.4450    2.3050   21.1180 C   0  0  0  0  0  0  0  0  0  0  0  0
    6.9770    0.3390   21.5800 N   0  0  0  0  0  0  0  0  0  0  0  0
    5.9150    1.1870   22.0810 C   0  0  0  0  0  0  0  0  0  0  0  0
  1  2  1  0
  2  3  2  0
  2  4  1  0
  4  5  1  0
  5  6  1  0
  6  7  2  0
  6  8  1  0
  8  9  1  0
  8 10  1  0
  9 11  1  0
 12 10  1  1
 11 12  1  0
 12 13  1  0
 12 14  1  0
 13 15  1  0
 14 16  1  0
 15 17  1  0
 16 17  1  0
M  END
