RAF-POL-b61b4b25-1
     RDKit          3D

 17 19  0  0  0  0  0  0  0  0999 V2000
    6.0580   -2.4460   17.9750 O   0  0  0  0  0  0  0  0  0  0  0  0
    6.4450   -2.0200   19.0480 C   0  0  0  0  0  0  0  0  0  0  0  0
    6.7530   -2.8750   20.2050 N   0  0  0  0  0  0  0  0  0  0  0  0
    6.5960   -0.6470   19.2160 N   0  0  0  0  0  0  0  0  0  0  0  0
    5.5440   -3.3820   20.8520 C   0  0  0  0  0  0  0  0  0  0  0  0
    7.9420   -2.8160   21.0770 C   0  0  0  0  0  0  0  0  0  0  0  0
    5.5100    0.1820   18.6720 C   0  0  0  0  0  0  0  0  0  0  0  0
    7.0830   -0.1590   20.5190 C   0  0  0  0  0  0  0  0  0  0  0  0
    5.5170   -2.9430   22.3240 C   0  0  0  0  0  0  0  0  0  0  0  0
    7.6420   -3.6650   22.3240 C   0  0  0  0  0  0  0  0  0  0  0  0
    5.1150    1.1140   19.6480 C   0  0  1  0  0  0  0  0  0  0  0  0
    6.1180    0.9240   20.8980 C   0  0  2  0  0  0  0  0  0  0  0  0
    6.7380   -3.2140   23.0370 O   0  0  0  0  0  0  0  0  0  0  0  0
    6.0030    1.9110   20.0980 C   0  0  0  0  0  0  0  0  0  0  0  0
    6.0690    1.2680   22.2510 C   0  0  0  0  0  0  0  0  0  0  0  0
    4.9770    1.4500   22.7950 O   0  0  0  0  0  0  0  0  0  0  0  0
    7.3020    1.4010   22.8550 O   0  0  0  0  0  0  0  0  0  0  0  0
  1  2  2  0
  2  3  1  0
  2  4  1  0
  3  5  1  0
  3  6  1  0
  4  7  1  0
  4  8  1  0
  5  9  1  0
  6 10  1  0
 11  7  1  6
  8 12  1  0
 11 12  1  0
  9 13  1  0
 10 13  1  0
 11 14  1  0
 12 14  1  0
 12 15  1  1
 15 16  2  0
 15 17  1  0
M  END
