RAF-UNK-9885c2f5-2-nitrile
     RDKit          3D

 32 35  0  0  0  0  0  0  0  0999 V2000
    6.4430   -3.9270   19.7470 C   0  0  0  0  0  0  0  0  0  0  0  0
    6.3940   -3.0890   18.7380 N   0  0  0  0  0  0  0  0  0  0  0  0
    5.8020   -3.6770   20.9530 N   0  0  0  0  0  0  0  0  0  0  0  0
    6.3070   -2.5310   21.6940 C   0  0  0  0  0  0  0  0  0  0  0  0
    5.4160   -4.7490   21.9270 C   0  0  0  0  0  0  0  0  0  0  0  0
    7.5520   -2.9450   22.4680 C   0  0  0  0  0  0  0  0  0  0  0  0
    6.6000   -5.1480   22.8560 C   0  0  0  0  0  0  0  0  0  0  0  0
    7.2560   -3.9750   23.4780 N   0  0  0  0  0  0  0  0  0  0  0  0
    6.3940   -3.3710   24.5140 C   0  0  0  0  0  0  0  0  0  0  0  0
    5.2260   -3.6930   24.7000 O   0  0  0  0  0  0  0  0  0  0  0  0
    7.0750   -2.2950   25.3630 C   0  0  0  0  0  0  0  0  0  0  0  0
    7.3660   -1.1560   24.8580 O   0  0  0  0  0  0  0  0  0  0  0  0
    7.4430   -2.4770   26.7740 C   0  0  0  0  0  0  0  0  0  0  0  0
    7.9540   -0.4310   25.8390 C   0  0  0  0  0  0  0  0  0  0  0  0
    8.0780   -1.1580   27.1370 C   0  0  0  0  0  0  0  0  0  0  0  0
    7.2510   -3.5950   27.5740 C   0  0  0  0  0  0  0  0  0  0  0  0
    8.0630   -4.7300   27.4470 C   0  0  0  0  0  0  0  0  0  0  0  0
    6.2440   -3.6210   28.5190 C   0  0  0  0  0  0  0  0  0  0  0  0
    7.8920   -5.8580   28.2540 C   0  0  0  0  0  0  0  0  0  0  0  0
    6.0410   -4.8510   29.4080 C   0  0  0  0  0  0  0  0  0  0  0  0
    6.8980   -5.9280   29.2390 C   0  0  0  0  0  0  0  0  0  0  0  0
    6.6610   -6.9550   30.1210 O   0  0  0  0  0  0  0  0  0  0  0  0
    6.3500   -8.2980   29.7950 C   0  0  0  0  0  0  0  0  0  0  0  0
    7.2670   -9.4500   30.2770 C   0  0  0  0  0  0  0  0  0  0  0  0
    6.8360   -9.4030   31.5670 O   0  0  0  0  0  0  0  0  0  0  0  0
    7.9990  -10.4400   30.4530 N   0  0  0  0  0  0  0  0  0  0  0  0
    7.7410  -11.2420   31.7330 C   0  0  0  0  0  0  0  0  0  0  0  0
    8.7430  -11.2270   29.4730 C   0  0  0  0  0  0  0  0  0  0  0  0
    8.6120  -12.2600   32.1280 C   0  0  0  0  0  0  0  0  0  0  0  0
    9.8130  -11.9670   29.9740 C   0  0  0  0  0  0  0  0  0  0  0  0
    9.7210  -12.4890   31.3770 N   0  0  0  0  0  0  0  0  0  0  0  0
   10.1250  -13.8740   31.5610 C   0  0  0  0  0  0  0  0  0  0  0  0
  1  2  2  3
  1  3  1  0
  3  4  1  0
  3  5  1  0
  4  6  1  0
  5  7  1  0
  6  8  1  0
  7  8  1  0
  8  9  1  0
  9 10  2  0
  9 11  1  0
 11 12  1  0
 11 13  2  0
 12 14  1  0
 13 15  1  0
 14 15  2  0
 13 16  1  0
 16 17  2  0
 16 18  1  0
 17 19  1  0
 18 20  2  0
 19 21  2  0
 20 21  1  0
 21 22  1  0
 22 23  1  0
 23 24  1  0
 24 25  2  0
 24 26  1  0
 26 27  1  0
 26 28  1  0
 27 29  1  0
 28 30  1  0
 29 31  1  0
 30 31  1  0
 31 32  1  0
M  END
