RAF-POL-b61b4b25-8
     RDKit          3D

 18 20  0  0  0  0  0  0  0  0999 V2000
   11.2410   -1.8130   22.2130 C   0  0  0  0  0  0  0  0  0  0  0  0
    9.8320   -1.9780   22.7250 C   0  0  0  0  0  0  0  0  0  0  0  0
    9.5420   -3.2190   23.2690 N   0  0  0  0  0  0  0  0  0  0  0  0
    8.8400   -0.9690   22.6790 C   0  0  0  0  0  0  0  0  0  0  0  0
    8.3070   -3.4940   23.7660 N   0  0  0  0  0  0  0  0  0  0  0  0
    7.4370   -1.2470   23.2360 C   0  0  0  0  0  0  0  0  0  0  0  0
    9.1460    0.4070   22.0850 C   0  0  0  0  0  0  0  0  0  0  0  0
    7.3600   -2.5300   23.7240 C   0  0  0  0  0  0  0  0  0  0  0  0
   10.0930    1.0760   22.4930 O   0  0  0  0  0  0  0  0  0  0  0  0
    8.1480    0.7700   21.0150 N   0  0  0  0  0  0  0  0  0  0  0  0
    7.5880   -0.3310   20.2030 C   0  0  0  0  0  0  0  0  0  0  0  0
    7.2280    1.8910   21.2130 C   0  0  0  0  0  0  0  0  0  0  0  0
    6.4100   -0.7920   20.7430 C   0  0  0  0  0  0  0  0  0  0  0  0
    5.9030    1.5010   20.5120 C   0  0  2  0  0  0  0  0  0  0  0  0
    5.4600    0.1990   20.7440 C   0  0  1  0  0  0  0  0  0  0  0  0
    5.8800    1.5590   19.1000 C   0  0  0  0  0  0  0  0  0  0  0  0
    4.6070   -0.0750   19.6420 O   0  0  0  0  0  0  0  0  0  0  0  0
    5.2940    0.4600   18.5330 C   0  0  0  0  0  0  0  0  0  0  0  0
  1  2  1  0
  2  3  2  0
  2  4  1  0
  3  5  1  0
  4  6  2  0
  4  7  1  0
  5  8  2  0
  6  8  1  0
  7  9  2  0
  7 10  1  0
 10 11  1  0
 10 12  1  0
 11 13  1  0
 14 12  1  6
 15 13  1  6
 14 15  1  0
 14 16  1  0
 15 17  1  0
 16 18  1  0
 17 18  1  0
M  END
