RAF-SAT-b3ff87a1-4-acrylamide
     RDKit          3D

 16 16  0  0  0  0  0  0  0  0999 V2000
    7.4920   -3.9720   20.3590 C   0  0  0  0  0  0  0  0  0  0  0  0
    6.2300   -3.1250   20.3430 C   0  0  0  0  0  0  0  0  0  0  0  0
    5.6780   -3.0300   18.9470 C   0  0  0  0  0  0  0  0  0  0  0  0
    4.8260   -3.7760   19.4470 O   0  0  0  0  0  0  0  0  0  0  0  0
    6.7890   -2.2060   18.8260 N   0  0  0  0  0  0  0  0  0  0  0  0
    6.4940   -0.8150   19.0820 C   0  0  0  0  0  0  0  0  0  0  0  0
    5.7270   -0.1520   18.0190 N   0  0  0  0  0  0  0  0  0  0  0  0
    6.8670   -0.1740   20.2530 C   0  0  0  0  0  0  0  0  0  0  0  0
    5.2560    1.2290   18.1590 C   0  0  0  0  0  0  0  0  0  0  0  0
    6.4090    1.1410   20.4150 C   0  0  0  0  0  0  0  0  0  0  0  0
    7.6510   -0.6640   21.3470 N   0  0  0  0  0  0  0  0  0  0  0  0
    5.5750    1.9880   19.4520 C   0  0  0  0  0  0  0  0  0  0  0  0
    6.6500    2.0360   21.6400 C   0  0  0  0  0  0  0  0  0  0  0  0
    8.8820   -0.1670   21.7500 C   0  0  0  0  0  0  0  0  0  0  0  0
    9.7510   -1.1230   22.3020 C   0  0  0  0  0  0  0  0  0  0  0  0
    9.2360    1.0050   21.6540 O   0  0  0  0  0  0  0  0  0  0  0  0
  1  2  1  0
  2  3  1  0
  3  4  2  0
  3  5  1  0
  5  6  1  0
  6  7  2  0
  6  8  1  0
  7  9  1  0
  8 10  2  0
  8 11  1  0
  9 12  2  0
 10 12  1  0
 10 13  1  0
 11 14  1  0
 14 15  1  0
 14 16  2  0
M  END
