RAF-SAT-b3ff87a1-2
     RDKit          3D

 30 32  0  0  0  0  0  0  0  0999 V2000
    8.4350   -0.0410   15.3550 C   0  0  0  0  0  0  0  0  0  0  0  0
    7.3960   -0.5680   16.1560 O   0  0  0  0  0  0  0  0  0  0  0  0
    6.8630    0.4860   16.7760 C   0  0  0  0  0  0  0  0  0  0  0  0
    6.6910    1.5450   16.2720 O   0  0  0  0  0  0  0  0  0  0  0  0
    6.5500    0.2790   18.2480 C   0  0  0  0  0  0  0  0  0  0  0  0
    5.2380    1.0370   18.5940 C   0  0  0  0  0  0  0  0  0  0  0  0
    7.3560   -0.4400   19.0410 C   0  0  0  0  0  0  0  0  0  0  0  0
    4.8860    0.8920   20.1300 C   0  0  0  0  0  0  0  0  0  0  0  0
    7.0840   -0.5530   20.3550 C   0  0  0  0  0  0  0  0  0  0  0  0
    5.9500    0.0460   20.8930 C   0  0  0  0  0  0  0  0  0  0  0  0
    8.0210   -1.3070   21.1360 N   0  0  0  0  0  0  0  0  0  0  0  0
    5.6240   -0.0930   22.4010 C   0  0  2  0  0  0  0  0  0  0  0  0
    9.3920   -0.5310   21.7610 S   0  0  0  0  0  0  0  0  0  0  0  0
    5.2040   -1.6010   22.3340 C   0  0  0  0  0  0  0  0  0  0  0  0
    4.6120    0.9370   22.7370 N   0  0  0  0  0  0  0  0  0  0  0  0
    9.2050   -0.8840   23.4730 C   0  0  0  0  0  0  0  0  0  0  0  0
    9.3240    0.8970   21.5320 O   0  0  0  0  0  0  0  0  0  0  0  0
   10.5580   -1.2960   21.4060 O   0  0  0  0  0  0  0  0  0  0  0  0
    5.9820   -2.6040   21.5320 C   0  0  0  0  0  0  0  0  0  0  0  0
    4.1800   -2.2900   22.9090 N   0  0  0  0  0  0  0  0  0  0  0  0
    3.8460    0.6860   23.9540 C   0  0  0  0  0  0  0  0  0  0  0  0
    5.0190    2.2500   22.4890 C   0  0  0  0  0  0  0  0  0  0  0  0
    5.3060   -3.9130   21.6970 C   0  0  0  0  0  0  0  0  0  0  0  0
    4.2380   -3.6690   22.4990 O   0  0  0  0  0  0  0  0  0  0  0  0
    5.6690    2.5850   21.4990 O   0  0  0  0  0  0  0  0  0  0  0  0
    4.6440    3.1690   23.4450 N   0  0  0  0  0  0  0  0  0  0  0  0
    5.6220   -5.1860   21.1750 C   0  0  0  0  0  0  0  0  0  0  0  0
    5.4600    3.5040   24.4680 C   0  0  0  0  0  0  0  0  0  0  0  0
    5.7320    4.8560   24.7410 C   0  0  0  0  0  0  0  0  0  0  0  0
    6.9490    4.0040   24.1740 C   0  0  0  0  0  0  0  0  0  0  0  0
  1  2  1  0
  2  3  1  0
  3  4  2  0
  3  5  1  0
  5  6  2  0
  5  7  1  0
  6  8  1  0
  7  9  2  0
  8 10  2  0
  9 10  1  0
  9 11  1  0
 10 12  1  0
 13 11  1  0
 12 14  1  0
 12 15  1  6
 13 16  1  0
 13 17  2  0
 13 18  2  0
 14 19  1  0
 14 20  2  0
 15 21  1  0
 15 22  1  0
 19 23  2  0
 20 24  1  0
 23 24  1  0
 22 25  2  0
 22 26  1  0
 23 27  1  0
 26 28  1  0
 28 29  1  0
 28 30  1  0
 29 30  1  0
M  END
