RAF-UNK-26121f85-5
     RDKit          3D

 30 34  0  0  0  0  0  0  0  0999 V2000
   10.8200  -20.3490   -4.7520 F   0  0  0  0  0  0  0  0  0  0  0  0
   10.4830  -21.1640   -3.7500 C   0  0  0  0  0  0  0  0  0  0  0  0
   11.3480  -22.1820   -3.3800 C   0  0  0  0  0  0  0  0  0  0  0  0
    9.2660  -20.9700   -3.0990 C   0  0  0  0  0  0  0  0  0  0  0  0
   10.9870  -23.0300   -2.3350 C   0  0  0  0  0  0  0  0  0  0  0  0
    8.8810  -21.8090   -2.0420 C   0  0  0  0  0  0  0  0  0  0  0  0
    9.7650  -22.8400   -1.6780 C   0  0  0  0  0  0  0  0  0  0  0  0
    7.5650  -21.6510   -1.2760 C   0  0  1  0  0  0  0  0  0  0  0  0
    7.3500  -20.2590   -0.8060 N   0  0  0  0  0  0  0  0  0  0  0  0
    6.3310  -22.2930   -2.0240 C   0  0  2  0  0  0  0  0  0  0  0  0
    6.1920  -19.5250   -1.2980 C   0  0  0  0  0  0  0  0  0  0  0  0
    6.2640  -21.9310   -3.5180 C   0  0  0  0  0  0  0  0  0  0  0  0
    4.9830  -21.9840   -1.5080 N   0  0  0  0  0  0  0  0  0  0  0  0
    5.2980  -19.0660   -0.1990 C   0  0  0  0  0  0  0  0  0  0  0  0
    5.2140  -20.8100   -3.6130 C   0  0  2  0  0  0  0  0  0  0  0  0
    4.2590  -21.1030   -2.4380 C   0  0  0  0  0  0  0  0  0  0  0  0
    4.2180  -22.8770   -0.7640 C   0  0  0  0  0  0  0  0  0  0  0  0
    3.8290  -19.1690    0.0740 C   0  0  0  0  0  0  0  0  0  0  0  0
    5.8540  -18.3810    0.8430 O   0  0  0  0  0  0  0  0  0  0  0  0
    4.5140  -20.8350   -4.9640 C   0  0  0  0  0  0  0  0  0  0  0  0
    5.8280  -19.4080   -3.6240 C   0  0  0  0  0  0  0  0  0  0  0  0
    4.6960  -24.0840   -0.2340 C   0  0  0  0  0  0  0  0  0  0  0  0
    2.9150  -22.5620   -0.5320 N   0  0  0  0  0  0  0  0  0  0  0  0
    3.6240  -18.4610    1.3930 C   0  0  0  0  0  0  0  0  0  0  0  0
    4.8880  -18.0380    1.7610 C   0  0  0  0  0  0  0  0  0  0  0  0
    5.4340  -20.0000   -5.8220 C   0  0  0  0  0  0  0  0  0  0  0  0
    5.8800  -18.9370   -4.9810 O   0  0  0  0  0  0  0  0  0  0  0  0
    3.9530  -24.9700    0.4920 N   0  0  0  0  0  0  0  0  0  0  0  0
    2.1680  -23.4310    0.1910 C   0  0  0  0  0  0  0  0  0  0  0  0
    2.6740  -24.6080    0.6920 C   0  0  0  0  0  0  0  0  0  0  0  0
  1  2  1  0
  2  3  2  0
  2  4  1  0
  3  5  1  0
  4  6  2  0
  5  7  2  0
  6  7  1  0
  6  8  1  0
  8  9  1  6
  8 10  1  0
  9 11  1  0
 10 12  1  6
 10 13  1  0
 11 14  1  0
 15 12  1  6
 13 16  1  0
 15 16  1  0
 13 17  1  0
 14 18  2  0
 14 19  1  0
 15 20  1  0
 15 21  1  0
 17 22  2  0
 17 23  1  0
 18 24  1  0
 19 25  1  0
 24 25  2  0
 20 26  1  0
 21 27  1  0
 26 27  1  0
 22 28  1  0
 23 29  2  0
 28 30  2  0
 29 30  1  0
M  END
