RAF-SAT-b3ff87a1-4-chloroacetamide
     RDKit          3D

 15 15  0  0  0  0  0  0  0  0999 V2000
    7.4380   -3.7940   20.1950 C   0  0  0  0  0  0  0  0  0  0  0  0
    6.7740   -2.9110   19.1780 C   0  0  0  0  0  0  0  0  0  0  0  0
    5.6490   -3.1990   18.7550 O   0  0  0  0  0  0  0  0  0  0  0  0
    7.3990   -1.7630   18.7660 N   0  0  0  0  0  0  0  0  0  0  0  0
    6.7290   -0.5220   19.0520 C   0  0  0  0  0  0  0  0  0  0  0  0
    5.9910   -0.0150   18.0480 N   0  0  0  0  0  0  0  0  0  0  0  0
    6.8440    0.0530   20.3090 C   0  0  0  0  0  0  0  0  0  0  0  0
    5.2710    1.1030   18.2040 C   0  0  0  0  0  0  0  0  0  0  0  0
    6.0940    1.2160   20.5360 C   0  0  0  0  0  0  0  0  0  0  0  0
    7.6050   -0.3850   21.3670 N   0  0  0  0  0  0  0  0  0  0  0  0
    5.1960    1.9190   19.5240 C   0  0  0  0  0  0  0  0  0  0  0  0
    6.0080    2.0310   21.8380 C   0  0  0  0  0  0  0  0  0  0  0  0
    8.8630    0.1920   21.6680 C   0  0  0  0  0  0  0  0  0  0  0  0
    9.8430   -0.6800   22.4520 C   0  0  0  0  0  0  0  0  0  0  0  0
    9.2080    1.3320   21.3200 O   0  0  0  0  0  0  0  0  0  0  0  0
  1  2  1  0
  2  3  2  0
  2  4  1  0
  4  5  1  0
  5  6  2  0
  5  7  1  0
  6  8  1  0
  7  9  2  0
  7 10  1  0
  8 11  2  0
  9 11  1  0
  9 12  1  0
 10 13  1  0
 13 14  1  0
 13 15  2  0
M  END
