RAF-POL-b61b4b25-5
     RDKit          3D

 18 20  0  0  0  0  0  0  0  0999 V2000
    7.4840   -1.8270   18.2110 C   0  0  0  0  0  0  0  0  0  0  0  0
    6.3480   -0.9620   18.5820 C   0  0  0  0  0  0  0  0  0  0  0  0
    6.2530    0.3100   18.1060 N   0  0  0  0  0  0  0  0  0  0  0  0
    5.3290   -1.3720   19.4340 O   0  0  0  0  0  0  0  0  0  0  0  0
    5.0690    0.7060   18.7590 C   0  0  0  0  0  0  0  0  0  0  0  0
    4.5060   -0.2570   19.5380 C   0  0  0  0  0  0  0  0  0  0  0  0
    4.6730    2.1310   18.4780 C   0  0  0  0  0  0  0  0  0  0  0  0
    5.0390    2.7390   19.7540 N   0  0  0  0  0  0  0  0  0  0  0  0
    3.8540    2.6590   20.6060 C   0  0  0  0  0  0  0  0  0  0  0  0
    6.1520    2.1680   20.6140 C   0  0  0  0  0  0  0  0  0  0  0  0
    2.6870    3.3460   20.4340 O   0  0  0  0  0  0  0  0  0  0  0  0
    4.1650    1.7710   21.5690 N   0  0  0  0  0  0  0  0  0  0  0  0
    5.5170    1.4460   21.8270 C   0  0  0  0  0  0  0  0  0  0  0  0
    7.5190    2.2100   20.4480 O   0  0  0  0  0  0  0  0  0  0  0  0
    5.9980    1.8230   23.0760 C   0  0  0  0  0  0  0  0  0  0  0  0
    5.7870   -0.0490   21.6620 C   0  0  0  0  0  0  0  0  0  0  0  0
    6.5120    0.6960   23.6920 C   0  0  0  0  0  0  0  0  0  0  0  0
    6.6020   -0.3170   22.7610 C   0  0  0  0  0  0  0  0  0  0  0  0
  1  2  1  0
  2  3  2  0
  2  4  1  0
  3  5  1  0
  4  6  1  0
  5  6  2  0
  5  7  1  0
  7  8  1  0
  8  9  1  0
  8 10  1  0
  9 11  2  0
  9 12  1  0
 13 10  1  0
 12 13  1  0
 10 14  2  0
 13 15  1  0
 13 16  1  0
 15 17  1  0
 16 18  1  0
 17 18  1  0
M  END
