RAF-POL-b61b4b25-2
     RDKit          3D

 18 20  0  0  0  0  0  0  0  0999 V2000
    6.1100   -0.9570   22.9110 C   0  0  0  0  0  0  0  0  0  0  0  0
    6.3510    0.4520   22.4200 C   0  0  1  0  0  0  0  0  0  0  0  0
    7.6040    0.9920   22.7080 N   0  0  0  0  0  0  0  0  0  0  0  0
    6.1380    0.5470   21.0320 C   0  0  0  0  0  0  0  0  0  0  0  0
    8.8130    0.2940   22.2310 C   0  0  0  0  0  0  0  0  0  0  0  0
    6.8930   -0.2560   20.1830 C   0  0  0  0  0  0  0  0  0  0  0  0
    5.1900    1.4160   20.5230 C   0  0  0  0  0  0  0  0  0  0  0  0
    9.7560    0.9810   21.8270 O   0  0  0  0  0  0  0  0  0  0  0  0
    8.9320   -1.0570   22.2300 N   0  0  0  0  0  0  0  0  0  0  0  0
    6.7080   -0.1950   18.8060 C   0  0  0  0  0  0  0  0  0  0  0  0
    4.9970    1.4690   18.9810 C   0  0  0  0  0  0  0  0  0  0  0  0
    8.8570   -1.7110   23.4110 C   0  0  1  0  0  0  0  0  0  0  0  0
    5.7190    0.6990   18.1400 N   0  0  0  0  0  0  0  0  0  0  0  0
    4.1350    2.2680   18.6520 O   0  0  0  0  0  0  0  0  0  0  0  0
    8.9480   -3.1610   23.5970 C   0  0  0  0  0  0  0  0  0  0  0  0
   10.1140   -2.5190   24.0420 C   0  0  0  0  0  0  0  0  0  0  0  0
   10.7330   -2.7360   25.1420 C   0  0  0  0  0  0  0  0  0  0  0  0
   11.7010   -2.6100   24.2400 C   0  0  0  0  0  0  0  0  0  0  0  0
  2  1  1  6
  2  3  1  0
  2  4  1  0
  3  5  1  0
  4  6  2  0
  4  7  1  0
  5  8  2  0
  5  9  1  0
  6 10  1  0
  7 11  2  0
 12  9  1  6
 10 13  2  0
 11 13  1  0
 11 14  1  0
 12 15  1  0
 12 16  1  0
 16 15  1  0
 16 17  1  0
 16 18  1  0
 17 18  1  0
M  END
