RAF-POL-b61b4b25-9
     RDKit          3D

 18 19  0  0  0  0  0  0  0  0999 V2000
    4.1120    2.5090   18.6890 C   0  0  0  0  0  0  0  0  0  0  0  0
    5.1240    1.5290   19.2100 C   0  0  0  0  0  0  0  0  0  0  0  0
    5.7780    0.5680   18.1960 C   0  0  0  0  0  0  0  0  0  0  0  0
    5.4270    1.5310   20.5820 C   0  0  0  0  0  0  0  0  0  0  0  0
    6.8100   -0.4340   18.7460 C   0  0  0  0  0  0  0  0  0  0  0  0
    6.3540    0.6530   21.1410 C   0  0  0  0  0  0  0  0  0  0  0  0
    7.0560   -0.3380   20.2410 C   0  0  0  0  0  0  0  0  0  0  0  0
    6.6320    0.6900   22.5130 C   0  0  0  0  0  0  0  0  0  0  0  0
    7.8980    1.2560   22.7470 C   0  0  0  0  0  0  0  0  0  0  0  0
    8.8620    0.3700   23.3300 O   0  0  0  0  0  0  0  0  0  0  0  0
    8.1290    2.6600   22.3680 N   0  0  0  0  0  0  0  0  0  0  0  0
    7.4430    3.6440   23.2150 C   0  0  0  0  0  0  0  0  0  0  0  0
    8.1620    3.9810   24.3630 C   0  0  0  0  0  0  0  0  0  0  0  0
    9.3930    4.5240   24.3890 N   0  0  0  0  0  0  0  0  0  0  0  0
    7.6490    3.7800   25.6310 N   0  0  0  0  0  0  0  0  0  0  0  0
    9.6990    4.6900   25.6660 N   0  0  0  0  0  0  0  0  0  0  0  0
    8.6470    4.2390   26.3940 N   0  0  0  0  0  0  0  0  0  0  0  0
    8.6120    4.2550   27.7710 C   0  0  0  0  0  0  0  0  0  0  0  0
  1  2  1  0
  2  3  2  0
  2  4  1  0
  3  5  1  0
  4  6  2  0
  5  7  2  0
  6  7  1  0
  6  8  1  0
  8  9  1  0
  9 10  2  0
  9 11  1  0
 11 12  1  0
 12 13  1  0
 13 14  1  0
 13 15  2  0
 14 16  2  0
 15 17  1  0
 16 17  1  0
 17 18  1  0
M  END
