RAF-POL-b61b4b25-7
     RDKit          3D

 18 21  0  0  0  0  0  0  0  0999 V2000
    6.0550   -0.4010   23.2800 O   0  0  0  0  0  0  0  0  0  0  0  0
    6.6410    0.4350   22.5930 C   0  0  0  0  0  0  0  0  0  0  0  0
    7.8820    1.1250   22.9450 N   0  0  0  0  0  0  0  0  0  0  0  0
    6.0870    0.8110   21.2830 C   0  0  0  0  0  0  0  0  0  0  0  0
    9.0830    0.3720   22.5230 C   0  0  0  0  0  0  0  0  0  0  0  0
    5.1410    1.8380   21.1740 C   0  0  0  0  0  0  0  0  0  0  0  0
    6.5100    0.1240   20.0070 C   0  0  0  0  0  0  0  0  0  0  0  0
   10.3180    0.8590   23.2960 C   0  0  2  0  0  0  0  0  0  0  0  0
    4.6120    2.2160   19.9450 C   0  0  0  0  0  0  0  0  0  0  0  0
    5.9030    0.6120   18.8870 C   0  0  0  0  0  0  0  0  0  0  0  0
    7.3620   -0.8720   19.7020 N   0  0  0  0  0  0  0  0  0  0  0  0
    9.6840    1.8880   24.1960 C   0  0  0  0  0  0  0  0  0  0  0  0
   10.7500    2.3670   23.3530 C   0  0  0  0  0  0  0  0  0  0  0  0
    4.9510    1.6530   18.8130 N   0  0  0  0  0  0  0  0  0  0  0  0
    6.4500   -0.1590   17.8240 N   0  0  0  0  0  0  0  0  0  0  0  0
    7.3230   -1.0440   18.3650 N   0  0  0  0  0  0  0  0  0  0  0  0
   10.6390    3.4920   22.5510 C   0  0  0  0  0  0  0  0  0  0  0  0
   11.8640    3.5210   23.0590 C   0  0  0  0  0  0  0  0  0  0  0  0
  1  2  2  0
  2  3  1  0
  2  4  1  0
  3  5  1  0
  4  6  2  0
  4  7  1  0
  8  5  1  6
  6  9  1  0
  7 10  2  0
  7 11  1  0
  8 12  1  0
  8 13  1  0
 13 12  1  0
  9 14  2  0
 10 14  1  0
 10 15  1  0
 11 16  2  0
 15 16  1  0
 13 17  1  0
 13 18  1  0
 17 18  1  0
M  END
