RAF-SAT-b3ff87a1-4-nitrile
     RDKit          3D

 14 14  0  0  0  0  0  0  0  0999 V2000
    6.9010   -3.0250   18.6950 C   0  0  0  0  0  0  0  0  0  0  0  0
    5.6270   -3.0930   18.6420 N   0  0  0  0  0  0  0  0  0  0  0  0
    7.5560   -1.8420   18.5040 N   0  0  0  0  0  0  0  0  0  0  0  0
    6.8270   -0.6270   18.8670 C   0  0  0  0  0  0  0  0  0  0  0  0
    6.0390   -0.0710   17.9220 N   0  0  0  0  0  0  0  0  0  0  0  0
    6.9350   -0.0930   20.1640 C   0  0  0  0  0  0  0  0  0  0  0  0
    5.2940    1.0120   18.1800 C   0  0  0  0  0  0  0  0  0  0  0  0
    6.1560    1.0320   20.4800 C   0  0  0  0  0  0  0  0  0  0  0  0
    7.7670   -0.5930   21.1960 N   0  0  0  0  0  0  0  0  0  0  0  0
    5.2090    1.7620   19.5290 C   0  0  0  0  0  0  0  0  0  0  0  0
    6.0680    1.7750   21.8130 C   0  0  0  0  0  0  0  0  0  0  0  0
    8.8910    0.0810   21.6460 C   0  0  0  0  0  0  0  0  0  0  0  0
    9.7960   -0.7660   22.5510 C   0  0  0  0  0  0  0  0  0  0  0  0
    9.1930    1.2480   21.3450 O   0  0  0  0  0  0  0  0  0  0  0  0
  1  2  2  3
  1  3  1  0
  3  4  1  0
  4  5  2  0
  4  6  1  0
  5  7  1  0
  6  8  2  0
  6  9  1  0
  7 10  2  0
  8 10  1  0
  8 11  1  0
  9 12  1  0
 12 13  1  0
 12 14  2  0
M  END
