RAF-POL-950dada1-16
     RDKit          3D

 17 19  0  0  0  0  0  0  0  0999 V2000
    7.1990   -2.0630   16.0460 C   0  0  0  0  0  0  0  0  0  0  0  0
    6.7410   -0.7720   16.6670 C   0  0  2  0  0  0  0  0  0  0  0  0
    7.5810   -0.4330   17.7990 C   0  0  0  0  0  0  0  0  0  0  0  0
    5.4560   -0.8790   17.2540 O   0  0  0  0  0  0  0  0  0  0  0  0
    6.7840    0.5940   18.5550 C   0  0  1  0  0  0  0  0  0  0  0  0
    5.3620    0.1350   18.2580 C   0  0  0  0  0  0  0  0  0  0  0  0
    7.1720    0.7450   20.0340 C   0  0  0  0  0  0  0  0  0  0  0  0
    8.0900    1.4880   20.4130 O   0  0  0  0  0  0  0  0  0  0  0  0
    6.4540    0.0670   20.9780 N   0  0  0  0  0  0  0  0  0  0  0  0
    6.1240    0.9030   22.1240 C   0  0  0  0  0  0  0  0  0  0  0  0
    5.1720   -0.5260   20.6570 C   0  0  0  0  0  0  0  0  0  0  0  0
    5.0300    1.6530   21.4550 C   0  0  0  0  0  0  0  0  0  0  0  0
    4.4370    0.7870   20.5500 C   0  0  0  0  0  0  0  0  0  0  0  0
    4.5670    2.9420   21.5770 C   0  0  0  0  0  0  0  0  0  0  0  0
    3.4150    1.1000   19.7460 N   0  0  0  0  0  0  0  0  0  0  0  0
    3.5000    3.3070   20.7570 C   0  0  0  0  0  0  0  0  0  0  0  0
    2.9690    2.3670   19.8710 C   0  0  0  0  0  0  0  0  0  0  0  0
  2  1  1  1
  2  3  1  0
  2  4  1  0
  3  5  1  0
  4  6  1  0
  5  6  1  0
  5  7  1  1
  7  8  2  0
  7  9  1  0
  9 10  1  0
  9 11  1  0
 10 12  1  0
 11 13  1  0
 12 13  2  0
 12 14  1  0
 13 15  1  0
 14 16  2  0
 15 17  2  0
 16 17  1  0
M  END
