RAI-NOV-2f6a9876-4
     RDKit          3D

 23 26  0  0  0  0  0  0  0  0999 V2000
    8.9490   -1.7280   24.7170 C   0  0  0  0  0  0  0  0  0  0  0  0
    9.5680   -1.9560   23.4660 N   0  0  0  0  0  0  0  0  0  0  0  0
   10.8640   -2.2940   23.1420 C   0  0  0  0  0  0  0  0  0  0  0  0
    8.7700   -1.8270   22.4490 N   0  0  0  0  0  0  0  0  0  0  0  0
   10.9270   -2.4040   21.7440 C   0  0  0  0  0  0  0  0  0  0  0  0
    9.5490   -2.0840   21.4430 C   0  0  0  0  0  0  0  0  0  0  0  0
   12.1500   -2.7770   20.8910 C   0  0  0  0  0  0  0  0  0  0  0  0
   12.0590   -3.5320   19.9530 O   0  0  0  0  0  0  0  0  0  0  0  0
   13.4170   -2.2880   21.1810 N   0  0  0  0  0  0  0  0  0  0  0  0
   13.3140   -1.8590   22.5530 C   0  0  0  0  0  0  0  0  0  0  0  0
   13.9000   -1.1140   20.3260 C   0  0  1  0  0  0  0  0  0  0  0  0
   12.5010   -0.7050   22.0870 C   0  0  2  0  0  0  0  0  0  0  0  0
   13.7890    0.0030   21.3060 C   0  0  2  0  0  0  0  0  0  0  0  0
   15.0360   -0.8710   19.1090 C   0  0  0  0  0  0  0  0  0  0  0  0
   11.4070   -0.2780   23.0880 C   0  0  0  0  0  0  0  0  0  0  0  0
   14.5640    1.3290   20.4530 C   0  0  0  0  0  0  0  0  0  0  0  0
   14.9500    0.2630   18.1500 C   0  0  0  0  0  0  0  0  0  0  0  0
   11.5560   -0.4870   24.4640 C   0  0  0  0  0  0  0  0  0  0  0  0
   10.1860    0.3130   22.6600 C   0  0  0  0  0  0  0  0  0  0  0  0
   15.3500    1.3290   19.0910 C   0  0  0  0  0  0  0  0  0  0  0  0
   10.5310   -0.1190   25.3430 C   0  0  0  0  0  0  0  0  0  0  0  0
    9.1890    0.6900   23.5470 C   0  0  0  0  0  0  0  0  0  0  0  0
    9.3620    0.4740   24.8950 C   0  0  0  0  0  0  0  0  0  0  0  0
  1  2  1  0
  2  3  1  0
  2  4  1  0
  3  5  2  0
  4  6  2  0
  5  6  1  0
  5  7  1  0
  7  8  2  0
  7  9  1  0
  9 10  1  0
  9 11  1  0
 10 12  1  0
 11 13  1  0
 12 13  1  0
 11 14  1  1
 12 15  1  1
 13 16  1  6
 14 17  1  0
 15 18  2  0
 15 19  1  0
 16 20  1  0
 17 20  1  0
 18 21  1  0
 19 22  2  0
 21 23  2  0
 22 23  1  0
M  END
