RAI-NOV-a7d52b4a-4-vinylsulfonamide
     RDKit          3D

 30 33  0  0  0  0  0  0  0  0999 V2000
    7.4660   -4.5700   20.7740 C   0  0  0  0  0  0  0  0  0  0  0  0
    6.6120   -4.8650   21.9750 C   0  0  0  0  0  0  0  0  0  0  0  0
    5.1160   -3.9590   21.7780 S   0  0  0  0  0  0  0  0  0  0  0  0
    5.1250   -3.4740   20.4090 O   0  0  0  0  0  0  0  0  0  0  0  0
    4.1050   -4.9310   22.1360 O   0  0  0  0  0  0  0  0  0  0  0  0
    5.0230   -2.5680   22.8660 C   0  0  0  0  0  0  0  0  0  0  0  0
    5.7470   -1.8520   21.9460 C   0  0  0  0  0  0  0  0  0  0  0  0
    4.3010   -3.5650   23.5990 C   0  0  0  0  0  0  0  0  0  0  0  0
    6.2900   -2.2580   20.6600 C   0  0  0  0  0  0  0  0  0  0  0  0
    3.2060   -4.0170   24.1120 C   0  0  0  0  0  0  0  0  0  0  0  0
    4.3570   -4.7220   24.2480 N   0  0  0  0  0  0  0  0  0  0  0  0
    7.0790   -2.6570   19.8210 O   0  0  0  0  0  0  0  0  0  0  0  0
    7.3210   -2.4210   21.5950 N   0  0  0  0  0  0  0  0  0  0  0  0
    3.1120   -5.5330   24.9990 S   0  0  0  0  0  0  0  0  0  0  0  0
    4.9140   -5.7110   24.6840 C   0  0  0  0  0  0  0  0  0  0  0  0
    7.0470   -2.4280   23.0390 C   0  0  0  0  0  0  0  0  0  0  0  0
    8.7220   -2.1400   21.4280 C   0  0  0  0  0  0  0  0  0  0  0  0
    8.0790   -3.2600   23.7820 C   0  0  0  0  0  0  0  0  0  0  0  0
    9.2560   -1.9050   22.8460 C   0  0  1  0  0  0  0  0  0  0  0  0
    7.7330   -4.3330   24.5940 C   0  0  0  0  0  0  0  0  0  0  0  0
    9.4400   -3.0970   23.7680 C   0  0  0  0  0  0  0  0  0  0  0  0
   10.4760   -1.0200   22.8930 C   0  0  0  0  0  0  0  0  0  0  0  0
    7.8590   -5.4260   25.4580 C   0  0  0  0  0  0  0  0  0  0  0  0
    9.1100   -4.1950   24.5900 C   0  0  0  0  0  0  0  0  0  0  0  0
   10.3930    0.2100   23.5570 C   0  0  0  0  0  0  0  0  0  0  0  0
   11.6870   -1.4100   22.3030 C   0  0  0  0  0  0  0  0  0  0  0  0
    9.2830   -5.2760   25.4360 C   0  0  0  0  0  0  0  0  0  0  0  0
   11.5000    1.0470   23.6350 C   0  0  0  0  0  0  0  0  0  0  0  0
   12.7970   -0.5700   22.3850 C   0  0  0  0  0  0  0  0  0  0  0  0
   12.7000    0.6570   23.0480 C   0  0  0  0  0  0  0  0  0  0  0  0
  1  2  1  0
  2  3  1  0
  3  4  2  0
  3  5  2  0
  3  6  1  0
  6  7  2  3
  6  8  1  0
  7  9  1  0
  8 10  2  0
  8 11  1  0
  9 12  2  0
  9 13  1  0
 10 14  1  0
 11 15  2  0
 14 15  1  0
 13 16  1  0
 13 17  1  0
 16 18  1  0
 17 19  1  0
 18 20  2  0
 18 21  1  0
 19 21  1  0
 19 22  1  6
 20 23  1  0
 21 24  2  0
 22 25  2  0
 22 26  1  0
 23 27  2  0
 24 27  1  0
 25 28  1  0
 26 29  2  0
 28 30  2  0
 29 30  1  0
M  END
