RAI-NOV-c18e0037-5
     RDKit          3D

 25 28  0  0  0  0  0  0  0  0999 V2000
    8.0740   -1.4680   20.1650 O   0  0  0  0  0  0  0  0  0  0  0  0
    8.2710   -0.8850   21.1600 C   0  0  0  0  0  0  0  0  0  0  0  0
    8.0300    0.5560   21.2100 C   0  0  0  0  0  0  0  0  0  0  0  0
    8.7290   -1.4010   22.3090 N   0  0  0  0  0  0  0  0  0  0  0  0
    6.8140    0.8270   20.3030 C   0  0  0  0  0  0  0  0  0  0  0  0
    8.8600    1.3680   21.9440 C   0  0  0  0  0  0  0  0  0  0  0  0
    9.9530   -0.8120   22.6470 C   0  0  0  0  0  0  0  0  0  0  0  0
    8.3350   -2.6290   23.0070 C   0  0  0  0  0  0  0  0  0  0  0  0
    5.5640    1.5790   20.8010 C   0  0  0  0  0  0  0  0  0  0  0  0
    6.9360    0.2950   18.8580 C   0  0  0  0  0  0  0  0  0  0  0  0
   10.0670    0.5480   22.5060 C   0  0  0  0  0  0  0  0  0  0  0  0
   10.9610   -1.6380   23.0680 C   0  0  0  0  0  0  0  0  0  0  0  0
    7.1700   -3.3650   22.4550 C   0  0  0  0  0  0  0  0  0  0  0  0
    8.9860   -3.1330   24.1510 C   0  0  0  0  0  0  0  0  0  0  0  0
    4.4700    1.7490   19.7170 C   0  0  0  0  0  0  0  0  0  0  0  0
    6.0150    0.4350   17.9160 N   0  0  0  0  0  0  0  0  0  0  0  0
   11.2900    1.0870   22.8240 C   0  0  0  0  0  0  0  0  0  0  0  0
   12.1700   -1.0730   23.3640 C   0  0  0  0  0  0  0  0  0  0  0  0
    6.7430   -4.6380   23.1620 C   0  0  0  0  0  0  0  0  0  0  0  0
    8.5580   -4.3100   24.7740 C   0  0  0  0  0  0  0  0  0  0  0  0
    4.8230    1.1380   18.3320 C   0  0  0  0  0  0  0  0  0  0  0  0
   12.3350    0.2970   23.2340 C   0  0  0  0  0  0  0  0  0  0  0  0
   13.4070   -2.1300   23.8820 Cl  0  0  0  0  0  0  0  0  0  0  0  0
    7.4660   -5.0480   24.2940 C   0  0  0  0  0  0  0  0  0  0  0  0
   13.4540    0.8520   23.4710 F   0  0  0  0  0  0  0  0  0  0  0  0
  1  2  2  0
  2  3  1  0
  2  4  1  0
  3  5  1  0
  3  6  2  0
  4  7  1  0
  4  8  1  0
  5  9  2  0
  5 10  1  0
  6 11  1  0
  7 11  2  0
  7 12  1  0
  8 13  2  0
  8 14  1  0
  9 15  1  0
 10 16  2  0
 11 17  1  0
 12 18  2  0
 13 19  1  0
 14 20  2  0
 15 21  2  0
 16 21  1  0
 17 22  2  0
 18 22  1  0
 18 23  1  0
 19 24  2  0
 20 24  1  0
 22 25  1  0
M  END
