RAI-NOV-c18e0037-4
     RDKit          3D

 24 27  0  0  0  0  0  0  0  0999 V2000
    9.1970   -2.7450   21.0800 O   0  0  0  0  0  0  0  0  0  0  0  0
    9.1440   -1.6220   21.4590 C   0  0  0  0  0  0  0  0  0  0  0  0
   10.3290   -1.0220   22.2670 C   0  0  0  0  0  0  0  0  0  0  0  0
    7.9960   -0.7730   21.3040 N   0  0  0  0  0  0  0  0  0  0  0  0
   11.8150   -1.3450   21.9710 C   0  0  0  0  0  0  0  0  0  0  0  0
    9.9080   -0.1920   23.2590 C   0  0  0  0  0  0  0  0  0  0  0  0
    8.1550    0.3580   22.1300 C   0  0  0  0  0  0  0  0  0  0  0  0
    7.1270   -0.2930   20.1770 C   0  0  0  0  0  0  0  0  0  0  0  0
   12.7420   -0.5720   22.9560 C   0  0  0  0  0  0  0  0  0  0  0  0
   10.6840    0.5870   24.2540 C   0  0  0  0  0  0  0  0  0  0  0  0
    8.5830   -0.0710   23.3230 N   0  0  0  0  0  0  0  0  0  0  0  0
    7.9590    1.4880   21.7150 O   0  0  0  0  0  0  0  0  0  0  0  0
    5.9780    0.5800   20.6130 C   0  0  0  0  0  0  0  0  0  0  0  0
    7.2140   -0.5040   18.8140 C   0  0  0  0  0  0  0  0  0  0  0  0
   12.1610    0.3420   24.0360 C   0  0  0  0  0  0  0  0  0  0  0  0
    7.8720   -1.2320   23.8440 C   0  0  0  0  0  0  0  0  0  0  0  0
    5.0160    1.1710   19.5810 C   0  0  0  0  0  0  0  0  0  0  0  0
    6.2980    0.0570   17.7970 N   0  0  0  0  0  0  0  0  0  0  0  0
    6.5680   -0.9960   24.6360 C   0  0  0  0  0  0  0  0  0  0  0  0
    8.2920   -2.5750   23.6720 C   0  0  0  0  0  0  0  0  0  0  0  0
    5.1940    0.9060   18.2190 C   0  0  0  0  0  0  0  0  0  0  0  0
    5.8990   -2.1360   25.1250 C   0  0  0  0  0  0  0  0  0  0  0  0
    7.5460   -3.6280   24.2000 C   0  0  0  0  0  0  0  0  0  0  0  0
    6.3770   -3.4270   24.9120 C   0  0  0  0  0  0  0  0  0  0  0  0
  1  2  2  0
  2  3  1  0
  2  4  1  0
  3  5  2  0
  3  6  1  0
  4  7  1  0
  4  8  1  0
  5  9  1  0
  6 10  2  0
  6 11  1  0
  7 11  1  0
  7 12  2  0
  8 13  2  0
  8 14  1  0
  9 15  2  0
 10 15  1  0
 11 16  1  0
 13 17  1  0
 14 18  2  0
 16 19  2  0
 16 20  1  0
 17 21  2  0
 18 21  1  0
 19 22  1  0
 20 23  2  0
 22 24  2  0
 23 24  1  0
M  END
