RAI-NOV-c18e0037-6
     RDKit          3D

 25 28  0  0  0  0  0  0  0  0999 V2000
    8.0580   -1.3100   20.1590 O   0  0  0  0  0  0  0  0  0  0  0  0
    8.0570   -0.8840   21.2580 C   0  0  0  0  0  0  0  0  0  0  0  0
    7.5450    0.3100   21.5170 N   0  0  0  0  0  0  0  0  0  0  0  0
    8.6050   -1.5280   22.3080 N   0  0  0  0  0  0  0  0  0  0  0  0
    6.7830    0.6210   20.4030 C   0  0  0  0  0  0  0  0  0  0  0  0
    8.4850    1.3210   22.1560 C   0  0  0  0  0  0  0  0  0  0  0  0
    9.8420   -0.9010   22.5900 C   0  0  0  0  0  0  0  0  0  0  0  0
    8.1680   -2.8250   22.5780 C   0  0  0  0  0  0  0  0  0  0  0  0
    5.5840    1.5590   20.6990 C   0  0  0  0  0  0  0  0  0  0  0  0
    7.0490    0.1400   19.1240 C   0  0  0  0  0  0  0  0  0  0  0  0
    9.8240    0.5980   22.5220 C   0  0  0  0  0  0  0  0  0  0  0  0
   10.9540   -1.6220   22.8780 C   0  0  0  0  0  0  0  0  0  0  0  0
    9.0980   -3.7440   23.3000 C   0  0  0  0  0  0  0  0  0  0  0  0
    6.8920   -3.2840   22.1910 C   0  0  0  0  0  0  0  0  0  0  0  0
    4.7460    1.8990   19.4170 C   0  0  0  0  0  0  0  0  0  0  0  0
    6.2810    0.4500   17.9070 N   0  0  0  0  0  0  0  0  0  0  0  0
   11.2140    1.1750   22.8250 C   0  0  0  0  0  0  0  0  0  0  0  0
   12.1680   -1.0760   23.1360 C   0  0  0  0  0  0  0  0  0  0  0  0
    8.6340   -5.1290   23.5810 C   0  0  0  0  0  0  0  0  0  0  0  0
    6.4450   -4.5940   22.4520 C   0  0  0  0  0  0  0  0  0  0  0  0
    5.1350    1.3290   18.0510 C   0  0  0  0  0  0  0  0  0  0  0  0
   12.2970    0.3080   23.1010 C   0  0  0  0  0  0  0  0  0  0  0  0
   13.4390   -2.1510   23.4860 Cl  0  0  0  0  0  0  0  0  0  0  0  0
    7.2440   -5.5260   23.1170 C   0  0  0  0  0  0  0  0  0  0  0  0
   13.4600    0.8260   23.3240 F   0  0  0  0  0  0  0  0  0  0  0  0
  1  2  2  0
  2  3  1  0
  2  4  1  0
  3  5  1  0
  3  6  1  0
  4  7  1  0
  4  8  1  0
  5  9  2  0
  5 10  1  0
  6 11  1  0
  7 11  2  0
  7 12  1  0
  8 13  2  0
  8 14  1  0
  9 15  1  0
 10 16  2  0
 11 17  1  0
 12 18  2  0
 13 19  1  0
 14 20  2  0
 15 21  2  0
 16 21  1  0
 17 22  2  0
 18 22  1  0
 18 23  1  0
 19 24  2  0
 20 24  1  0
 22 25  1  0
M  END
