RAI-NOV-a7d52b4a-5-nitrile
     RDKit          3D

 27 30  0  0  0  0  0  0  0  0999 V2000
    6.9100   -3.2340   18.6770 C   0  0  0  0  0  0  0  0  0  0  0  0
    5.8670   -3.7860   19.2060 N   0  0  0  0  0  0  0  0  0  0  0  0
    6.8480   -1.7770   18.6600 C   0  0  0  0  0  0  0  0  0  0  0  0
    6.3910   -1.3410   19.8530 C   0  0  0  0  0  0  0  0  0  0  0  0
    7.2010   -0.9460   17.5600 C   0  0  0  0  0  0  0  0  0  0  0  0
    6.1270   -2.3480   20.7820 C   0  0  0  0  0  0  0  0  0  0  0  0
    7.8940   -1.3510   16.3960 C   0  0  0  0  0  0  0  0  0  0  0  0
    6.9030    0.3670   17.5140 N   0  0  0  0  0  0  0  0  0  0  0  0
    5.1740   -3.1130   20.6310 O   0  0  0  0  0  0  0  0  0  0  0  0
    7.0060   -2.4120   21.8010 N   0  0  0  0  0  0  0  0  0  0  0  0
    8.0090   -0.2110   15.6400 C   0  0  0  0  0  0  0  0  0  0  0  0
    7.4030    0.7770   16.3470 N   0  0  0  0  0  0  0  0  0  0  0  0
    6.5110   -2.8720   23.0620 C   0  0  0  0  0  0  0  0  0  0  0  0
    8.2520   -1.6720   21.8530 C   0  0  0  0  0  0  0  0  0  0  0  0
    7.5170   -3.5190   23.7330 C   0  0  0  0  0  0  0  0  0  0  0  0
    9.4050   -2.5130   22.4260 C   0  0  2  0  0  0  0  0  0  0  0  0
    7.0400   -4.3860   24.7660 C   0  0  0  0  0  0  0  0  0  0  0  0
    8.9020   -3.3620   23.4470 C   0  0  0  0  0  0  0  0  0  0  0  0
   10.3080   -1.5130   22.8120 C   0  0  0  0  0  0  0  0  0  0  0  0
    8.0220   -5.0500   25.4440 C   0  0  0  0  0  0  0  0  0  0  0  0
    9.8100   -4.0950   24.2070 C   0  0  0  0  0  0  0  0  0  0  0  0
    9.9040   -0.5350   23.7460 C   0  0  0  0  0  0  0  0  0  0  0  0
   11.6180   -1.4800   22.2640 C   0  0  0  0  0  0  0  0  0  0  0  0
    9.3830   -4.9430   25.2080 C   0  0  0  0  0  0  0  0  0  0  0  0
   10.7690    0.4740   24.1460 C   0  0  0  0  0  0  0  0  0  0  0  0
   12.5260   -0.4850   22.6370 C   0  0  0  0  0  0  0  0  0  0  0  0
   12.0590    0.5450   23.6350 C   0  0  0  0  0  0  0  0  0  0  0  0
  1  2  2  3
  1  3  1  0
  3  4  2  3
  3  5  1  0
  4  6  1  0
  5  7  1  0
  5  8  2  0
  6  9  2  0
  6 10  1  0
  7 11  2  0
  8 12  1  0
 11 12  1  0
 10 13  1  0
 10 14  1  0
 13 15  1  0
 14 16  1  0
 15 17  2  0
 15 18  1  0
 16 18  1  0
 16 19  1  1
 17 20  1  0
 18 21  2  0
 19 22  2  0
 19 23  1  0
 20 24  2  0
 21 24  1  0
 22 25  1  0
 23 26  2  0
 25 27  2  0
 26 27  1  0
M  END
