RAJ-NOV-842d5654-2-acrylamide
     RDKit          3D

 23 25  0  0  0  0  0  0  0  0999 V2000
    7.6860   -3.2850   19.5270 C   0  0  0  0  0  0  0  0  0  0  0  0
    6.5460   -2.6700   18.7210 C   0  0  0  0  0  0  0  0  0  0  0  0
    5.3910   -2.9500   19.6220 C   0  0  0  0  0  0  0  0  0  0  0  0
    4.7310   -2.8690   20.6390 O   0  0  0  0  0  0  0  0  0  0  0  0
    6.2290   -1.9640   20.2450 C   0  0  0  0  0  0  0  0  0  0  0  0
    6.1080   -0.7520   19.7530 C   0  0  0  0  0  0  0  0  0  0  0  0
    7.1000   -2.3260   21.2540 N   0  0  0  0  0  0  0  0  0  0  0  0
    6.9860    0.2290   20.3230 C   0  0  0  0  0  0  0  0  0  0  0  0
    7.9300   -1.3700   21.7820 C   0  0  0  0  0  0  0  0  0  0  0  0
    6.7880    1.4940   19.7230 C   0  0  2  0  0  0  0  0  0  0  0  0
    7.9010   -0.0700   21.3330 C   0  0  0  0  0  0  0  0  0  0  0  0
    8.9200   -1.7700   22.9130 C   0  0  0  0  0  0  0  0  0  0  0  0
    6.9930    2.3510   20.7910 C   0  0  0  0  0  0  0  0  0  0  0  0
    5.3610    1.7490   19.2490 C   0  0  0  0  0  0  0  0  0  0  0  0
   10.2720   -1.0160   22.9250 C   0  0  0  0  0  0  0  0  0  0  0  0
    5.8660    3.1580   21.0290 C   0  0  0  0  0  0  0  0  0  0  0  0
    4.8800    2.8060   19.9980 N   0  0  0  0  0  0  0  0  0  0  0  0
    4.7290    1.1580   18.3820 O   0  0  0  0  0  0  0  0  0  0  0  0
   10.4080    0.2050   23.6030 C   0  0  0  0  0  0  0  0  0  0  0  0
   11.4200   -1.5180   22.2840 C   0  0  0  0  0  0  0  0  0  0  0  0
   11.7020    0.9960   23.6780 C   0  0  0  0  0  0  0  0  0  0  0  0
   12.7280   -0.7280   22.3580 C   0  0  0  0  0  0  0  0  0  0  0  0
   12.8320    0.4800   23.0350 C   0  0  0  0  0  0  0  0  0  0  0  0
  1  2  1  0
  2  3  1  0
  3  4  2  0
  3  5  1  0
  5  6  2  0
  5  7  1  0
  6  8  1  0
  7  9  2  0
 10  8  1  1
  8 11  2  0
  9 11  1  0
  9 12  1  0
 10 13  1  0
 10 14  1  0
 12 15  1  0
 13 16  1  0
 14 17  1  0
 16 17  1  0
 14 18  2  0
 15 19  2  0
 15 20  1  0
 19 21  1  0
 20 22  2  0
 21 23  2  0
 22 23  1  0
M  END
