RAJ-NOV-842d5654-3-acrylamide
     RDKit          3D

 23 25  0  0  0  0  0  0  0  0999 V2000
    7.2260   -4.1300   20.4200 C   0  0  0  0  0  0  0  0  0  0  0  0
    5.8260   -3.6410   20.6940 C   0  0  0  0  0  0  0  0  0  0  0  0
    5.3530   -2.8570   19.5000 C   0  0  0  0  0  0  0  0  0  0  0  0
    4.7400   -3.8840   19.3180 O   0  0  0  0  0  0  0  0  0  0  0  0
    6.2760   -1.9530   20.1420 C   0  0  0  0  0  0  0  0  0  0  0  0
    6.3260   -0.7870   19.7860 C   0  0  0  0  0  0  0  0  0  0  0  0
    7.1940   -2.2370   21.1530 N   0  0  0  0  0  0  0  0  0  0  0  0
    7.0240    0.3310   20.0820 C   0  0  0  0  0  0  0  0  0  0  0  0
    8.0340   -1.1730   21.6020 C   0  0  0  0  0  0  0  0  0  0  0  0
    6.6000    1.3970   19.2960 C   0  0  2  0  0  0  0  0  0  0  0  0
    7.9680    0.1460   21.0760 C   0  0  0  0  0  0  0  0  0  0  0  0
    8.9390   -1.5040   22.6090 O   0  0  0  0  0  0  0  0  0  0  0  0
    6.0270    2.2170   20.2200 C   0  0  0  0  0  0  0  0  0  0  0  0
    5.4800    1.0580   18.3280 C   0  0  0  0  0  0  0  0  0  0  0  0
   10.1880   -0.8890   22.7500 C   0  0  0  0  0  0  0  0  0  0  0  0
    4.8300    2.7730   19.7370 C   0  0  0  0  0  0  0  0  0  0  0  0
    4.4240    1.8900   18.6280 N   0  0  0  0  0  0  0  0  0  0  0  0
    5.4880    0.2280   17.4380 O   0  0  0  0  0  0  0  0  0  0  0  0
   10.2750    0.4000   23.5580 C   0  0  0  0  0  0  0  0  0  0  0  0
   11.4100   -1.3770   22.2090 C   0  0  0  0  0  0  0  0  0  0  0  0
   11.4830    1.0410   23.7360 C   0  0  0  0  0  0  0  0  0  0  0  0
   12.6440   -0.7080   22.4030 C   0  0  0  0  0  0  0  0  0  0  0  0
   12.7390    0.4720   23.1340 C   0  0  0  0  0  0  0  0  0  0  0  0
  1  2  1  0
  2  3  1  0
  3  4  2  0
  3  5  1  0
  5  6  2  0
  5  7  1  0
  6  8  1  0
  7  9  2  0
 10  8  1  1
  8 11  2  0
  9 11  1  0
  9 12  1  0
 10 13  1  0
 10 14  1  0
 12 15  1  0
 13 16  1  0
 14 17  1  0
 16 17  1  0
 14 18  2  0
 15 19  2  0
 15 20  1  0
 19 21  1  0
 20 22  2  0
 21 23  2  0
 22 23  1  0
M  END
