RAJ-NOV-842d5654-3-vinylsulfonamide
     RDKit          3D

 24 26  0  0  0  0  0  0  0  0999 V2000
    6.5910   -4.5620   20.3810 C   0  0  0  0  0  0  0  0  0  0  0  0
    6.2170   -4.9250   21.8120 C   0  0  0  0  0  0  0  0  0  0  0  0
    5.6710   -3.4690   22.6100 S   0  0  0  0  0  0  0  0  0  0  0  0
    4.3530   -3.2090   22.0810 O   0  0  0  0  0  0  0  0  0  0  0  0
    5.8530   -3.6600   24.0420 O   0  0  0  0  0  0  0  0  0  0  0  0
    6.8140   -2.2130   22.0370 C   0  0  0  0  0  0  0  0  0  0  0  0
    7.5450   -2.5750   23.0850 C   0  0  0  0  0  0  0  0  0  0  0  0
    8.1290   -1.4940   22.2470 N   0  0  0  0  0  0  0  0  0  0  0  0
    8.3640   -1.6950   22.6970 C   0  0  0  0  0  0  0  0  0  0  0  0
    9.1740   -0.4740   21.8620 C   0  0  0  0  0  0  0  0  0  0  0  0
    7.7540   -1.0110   21.3730 C   0  0  1  0  0  0  0  0  0  0  0  0
    9.4850   -1.1570   22.9680 C   0  0  0  0  0  0  0  0  0  0  0  0
   10.3940    0.1630   22.0930 O   0  0  0  0  0  0  0  0  0  0  0  0
    6.2350   -1.1700   21.2000 C   0  0  0  0  0  0  0  0  0  0  0  0
    7.8230    0.5520   21.1770 C   0  0  0  0  0  0  0  0  0  0  0  0
   11.3550   -0.6070   22.7210 C   0  0  0  0  0  0  0  0  0  0  0  0
    5.6380   -0.0880   20.5290 C   0  0  0  0  0  0  0  0  0  0  0  0
    6.4550    1.0220   20.8890 N   0  0  0  0  0  0  0  0  0  0  0  0
    8.7840    1.3260   21.2150 O   0  0  0  0  0  0  0  0  0  0  0  0
   11.7190   -0.2890   24.1720 C   0  0  0  0  0  0  0  0  0  0  0  0
   11.9920   -1.6660   22.0430 C   0  0  0  0  0  0  0  0  0  0  0  0
   12.7840   -1.1860   24.7960 C   0  0  0  0  0  0  0  0  0  0  0  0
   12.9560   -2.4430   22.6680 C   0  0  0  0  0  0  0  0  0  0  0  0
   13.3210   -2.1930   24.0050 C   0  0  0  0  0  0  0  0  0  0  0  0
  1  2  1  0
  3  2  1  0
  3  4  2  0
  3  5  2  0
  3  6  1  0
  6  7  2  0
  6  8  1  0
  7  9  1  0
  8 10  2  0
 11  9  1  1
  9 12  2  0
 10 12  1  0
 10 13  1  0
 11 14  1  0
 11 15  1  0
 13 16  1  0
 14 17  1  0
 15 18  1  0
 17 18  1  0
 15 19  2  0
 16 20  2  0
 16 21  1  0
 20 22  1  0
 21 23  2  0
 22 24  2  0
 23 24  1  0
M  END
