RAJ-NOV-842d5654-2-vinylsulfonamide
     RDKit          3D

 24 26  0  0  0  0  0  0  0  0999 V2000
    6.4910   -5.1280   20.4370 C   0  0  0  0  0  0  0  0  0  0  0  0
    6.2070   -4.2510   21.6360 C   0  0  0  0  0  0  0  0  0  0  0  0
    5.1920   -2.9140   21.0990 S   0  0  0  0  0  0  0  0  0  0  0  0
    4.7370   -3.2280   19.7590 O   0  0  0  0  0  0  0  0  0  0  0  0
    4.3100   -2.6960   22.2310 O   0  0  0  0  0  0  0  0  0  0  0  0
    6.2490   -1.5840   20.9960 C   0  0  0  0  0  0  0  0  0  0  0  0
    6.2630   -0.8410   19.9130 C   0  0  0  0  0  0  0  0  0  0  0  0
    7.0250   -1.4230   22.0610 N   0  0  0  0  0  0  0  0  0  0  0  0
    7.0910    0.1710   19.7710 C   0  0  0  0  0  0  0  0  0  0  0  0
    7.9060   -0.4220   22.0410 C   0  0  0  0  0  0  0  0  0  0  0  0
    6.9290    0.8360   18.4450 C   0  0  2  0  0  0  0  0  0  0  0  0
    7.9570    0.3990   20.8990 C   0  0  0  0  0  0  0  0  0  0  0  0
    8.7850   -0.2460   23.2780 C   0  0  0  0  0  0  0  0  0  0  0  0
    5.4990    1.0390   18.1570 C   0  0  0  0  0  0  0  0  0  0  0  0
    7.1960   -0.0700   17.2460 C   0  0  0  0  0  0  0  0  0  0  0  0
   10.2930   -0.1880   23.0520 C   0  0  0  0  0  0  0  0  0  0  0  0
    4.9590   -0.2050   17.8990 C   0  0  0  0  0  0  0  0  0  0  0  0
    6.0060   -0.9010   17.2070 N   0  0  0  0  0  0  0  0  0  0  0  0
    8.1320   -0.1250   16.4700 O   0  0  0  0  0  0  0  0  0  0  0  0
   10.8560    1.1220   23.5480 C   0  0  0  0  0  0  0  0  0  0  0  0
   11.1410   -1.1660   22.4810 C   0  0  0  0  0  0  0  0  0  0  0  0
   12.2060    1.3150   23.4180 C   0  0  0  0  0  0  0  0  0  0  0  0
   12.5170   -0.9360   22.3710 C   0  0  0  0  0  0  0  0  0  0  0  0
   13.0740    0.2510   22.8110 C   0  0  0  0  0  0  0  0  0  0  0  0
  1  2  1  0
  3  2  1  0
  3  4  2  0
  3  5  2  0
  3  6  1  0
  6  7  2  0
  6  8  1  0
  7  9  1  0
  8 10  2  0
 11  9  1  1
  9 12  2  0
 10 12  1  0
 10 13  1  0
 11 14  1  0
 11 15  1  0
 13 16  1  0
 14 17  1  0
 15 18  1  0
 17 18  1  0
 15 19  2  0
 16 20  2  0
 16 21  1  0
 20 22  1  0
 21 23  2  0
 22 24  2  0
 23 24  1  0
M  END
