RAL-MED-9a5eb9cb-2-nitrile
     RDKit          3D

 32 34  0  0  0  0  0  0  0  0999 V2000
    7.1510   -3.9070   20.1700 C   0  0  0  0  0  0  0  0  0  0  0  0
    5.9970   -3.8270   19.5970 N   0  0  0  0  0  0  0  0  0  0  0  0
    7.4500   -3.6440   21.5030 N   0  0  0  0  0  0  0  0  0  0  0  0
    7.9510   -2.2820   21.7720 C   0  0  0  0  0  0  0  0  0  0  0  0
    6.7330   -4.2310   22.6530 C   0  0  2  0  0  0  0  0  0  0  0  0
    9.4610   -2.1570   22.0430 C   0  0  0  0  0  0  0  0  0  0  0  0
    7.1020   -1.1750   21.7810 C   0  0  0  0  0  0  0  0  0  0  0  0
    6.4730   -3.3960   23.7720 C   0  0  0  0  0  0  0  0  0  0  0  0
    7.2850   -5.5100   23.0750 C   0  0  0  0  0  0  0  0  0  0  0  0
    5.2680   -4.4150   22.1930 C   0  0  0  0  0  0  0  0  0  0  0  0
   10.0020   -0.7390   22.3380 C   0  0  0  0  0  0  0  0  0  0  0  0
    7.6440    0.2200   22.0730 C   0  0  0  0  0  0  0  0  0  0  0  0
    6.9690   -6.5820   22.5500 O   0  0  0  0  0  0  0  0  0  0  0  0
    8.1720   -5.4430   24.1190 N   0  0  0  0  0  0  0  0  0  0  0  0
    5.4110   -3.1810   22.8850 C   0  0  0  0  0  0  0  0  0  0  0  0
    5.9690   -5.4850   21.7830 C   0  0  0  0  0  0  0  0  0  0  0  0
    8.9960    0.4410   22.3380 C   0  0  0  0  0  0  0  0  0  0  0  0
    7.7400   -5.5050   25.4040 C   0  0  0  0  0  0  0  0  0  0  0  0
    6.8440   -3.0910   23.2580 C   0  0  0  0  0  0  0  0  0  0  0  0
    7.2850   -5.4020   22.1250 N   0  0  0  0  0  0  0  0  0  0  0  0
    9.5600    1.7670   22.6320 C   0  0  0  0  0  0  0  0  0  0  0  0
    8.5590   -6.0270   26.4840 C   0  0  0  0  0  0  0  0  0  0  0  0
    6.3280   -5.0020   25.7890 C   0  0  0  0  0  0  0  0  0  0  0  0
    7.6960   -4.1310   22.8930 C   0  0  0  0  0  0  0  0  0  0  0  0
    9.4020    2.7620   21.7640 F   0  0  0  0  0  0  0  0  0  0  0  0
   10.8950    1.6740   22.8570 F   0  0  0  0  0  0  0  0  0  0  0  0
    9.0270    2.2460   23.7840 F   0  0  0  0  0  0  0  0  0  0  0  0
    8.0810   -6.0600   27.8360 C   0  0  0  0  0  0  0  0  0  0  0  0
    5.8800   -5.0460   27.1150 C   0  0  0  0  0  0  0  0  0  0  0  0
    6.7980   -5.5960   28.1810 C   0  0  0  0  0  0  0  0  0  0  0  0
    6.3480   -5.6460   29.5440 O   0  0  0  0  0  0  0  0  0  0  0  0
    5.8830   -6.9410   29.9100 C   0  0  0  0  0  0  0  0  0  0  0  0
  1  2  2  3
  1  3  1  0
  3  4  1  0
  3  5  1  0
  4  6  2  0
  4  7  1  0
  5  8  1  1
  5  9  1  0
  5 10  1  0
  6 11  1  0
  7 12  2  0
  9 13  2  0
  9 14  1  0
 10 15  2  0
 10 16  1  0
 11 17  2  0
 12 17  1  0
 14 18  1  0
 15 19  1  0
 16 20  2  0
 17 21  1  0
 18 22  2  0
 18 23  1  0
 19 24  2  0
 20 24  1  0
 21 25  1  0
 21 26  1  0
 21 27  1  0
 22 28  1  0
 23 29  2  0
 28 30  2  0
 29 30  1  0
 30 31  1  0
 31 32  1  0
M  END
