RAL-THA-5ed3c24e-2
     RDKit          3D

 24 27  0  0  0  0  0  0  0  0999 V2000
   12.2310   -0.3670   25.0740 C   0  0  0  0  0  0  0  0  0  0  0  0
   12.3960    0.8190   24.3400 N   0  0  0  0  0  0  0  0  0  0  0  0
   11.3020    1.6870   24.2190 C   0  0  0  0  0  0  0  0  0  0  0  0
   12.9600    0.4240   23.1520 C   0  0  0  0  0  0  0  0  0  0  0  0
   11.2210    1.9300   22.8260 C   0  0  2  0  0  0  0  0  0  0  0  0
   11.9870   -0.2900   22.6640 C   0  0  0  0  0  0  0  0  0  0  0  0
   14.1640    0.6230   22.5130 O   0  0  0  0  0  0  0  0  0  0  0  0
   10.3090    3.0220   22.3590 C   0  0  0  0  0  0  0  0  0  0  0  0
   10.9260    0.5250   22.5170 C   0  0  0  0  0  0  0  0  0  0  0  0
   11.9660   -1.6320   22.3950 C   0  0  0  0  0  0  0  0  0  0  0  0
    9.1960    2.6260   21.5160 O   0  0  0  0  0  0  0  0  0  0  0  0
   10.6140    4.4010   22.8100 N   0  0  0  0  0  0  0  0  0  0  0  0
    9.7590    0.0180   22.1490 C   0  0  0  0  0  0  0  0  0  0  0  0
   10.7350   -2.1430   22.0150 C   0  0  0  0  0  0  0  0  0  0  0  0
   11.7650    5.0150   22.5520 C   0  0  0  0  0  0  0  0  0  0  0  0
    9.6170   -1.3040   21.9090 C   0  0  0  0  0  0  0  0  0  0  0  0
   12.6650    4.5240   21.7390 N   0  0  0  0  0  0  0  0  0  0  0  0
   12.1930    6.1950   23.0460 N   0  0  0  0  0  0  0  0  0  0  0  0
    8.0550   -1.8570   21.4850 Cl  0  0  0  0  0  0  0  0  0  0  0  0
   13.7020    5.4120   21.7080 N   0  0  0  0  0  0  0  0  0  0  0  0
   13.3870    6.4030   22.5030 C   0  0  0  0  0  0  0  0  0  0  0  0
   11.5670    7.1390   23.9770 C   0  0  0  0  0  0  0  0  0  0  0  0
   10.1810    6.9290   24.4000 C   0  0  0  0  0  0  0  0  0  0  0  0
   11.0230    6.8560   25.5400 C   0  0  0  0  0  0  0  0  0  0  0  0
  1  2  1  0
  2  3  1  0
  2  4  1  0
  3  5  1  0
  4  6  1  0
  4  7  2  0
  5  8  1  1
  5  9  1  0
  6  9  2  0
  6 10  1  0
  8 11  2  0
  8 12  1  0
  9 13  1  0
 10 14  2  0
 12 15  1  0
 13 16  2  0
 14 16  1  0
 15 17  2  0
 15 18  1  0
 16 19  1  0
 17 20  1  0
 18 21  1  0
 20 21  2  0
 18 22  1  0
 22 23  1  0
 22 24  1  0
 23 24  1  0
M  END
