RAL-MED-9a5eb9cb-13-vinylsulfonamide
     RDKit          3D

 28 29  0  0  0  0  0  0  0  0999 V2000
    7.5800   -4.7250   20.8410 C   0  0  0  0  0  0  0  0  0  0  0  0
    6.0440   -4.7320   20.6910 C   0  0  0  0  0  0  0  0  0  0  0  0
    5.3830   -5.4710   22.1760 S   0  0  0  0  0  0  0  0  0  0  0  0
    4.0470   -5.8290   21.9680 O   0  0  0  0  0  0  0  0  0  0  0  0
    6.2700   -6.5170   22.5910 O   0  0  0  0  0  0  0  0  0  0  0  0
    5.2730   -4.2630   23.3990 N   0  0  0  0  0  0  0  0  0  0  0  0
    4.7500   -4.7390   24.7110 C   0  0  0  0  0  0  0  0  0  0  0  0
    5.0450   -2.8660   23.0010 C   0  0  0  0  0  0  0  0  0  0  0  0
    5.9250   -5.3670   25.3840 C   0  0  0  0  0  0  0  0  0  0  0  0
    4.3500   -2.0100   23.9410 C   0  0  0  0  0  0  0  0  0  0  0  0
    5.4660   -2.2100   21.6860 C   0  0  0  0  0  0  0  0  0  0  0  0
    6.0400   -5.6460   26.5780 O   0  0  0  0  0  0  0  0  0  0  0  0
    6.8320   -5.5340   24.2890 N   0  0  0  0  0  0  0  0  0  0  0  0
    4.0660   -0.6260   23.6580 C   0  0  0  0  0  0  0  0  0  0  0  0
    5.1890   -0.8800   21.4220 C   0  0  0  0  0  0  0  0  0  0  0  0
    7.6700   -4.5380   23.8670 C   0  0  0  0  0  0  0  0  0  0  0  0
    4.4540   -0.0060   22.4300 C   0  0  0  0  0  0  0  0  0  0  0  0
    7.4960   -3.2260   24.4960 C   0  0  0  0  0  0  0  0  0  0  0  0
    8.6610   -4.6830   22.8980 C   0  0  0  0  0  0  0  0  0  0  0  0
    4.1600    1.3350   22.1950 C   0  0  0  0  0  0  0  0  0  0  0  0
    8.4230   -2.0870   24.0660 C   0  0  0  0  0  0  0  0  0  0  0  0
    9.4980   -3.6040   22.5330 C   0  0  0  0  0  0  0  0  0  0  0  0
    5.0970    1.9590   21.4290 F   0  0  0  0  0  0  0  0  0  0  0  0
    4.0770    2.0570   23.3460 F   0  0  0  0  0  0  0  0  0  0  0  0
    2.9710    1.5180   21.5550 F   0  0  0  0  0  0  0  0  0  0  0  0
    9.3960   -2.3250   23.0990 C   0  0  0  0  0  0  0  0  0  0  0  0
   10.1920   -1.4790   22.6910 O   0  0  0  0  0  0  0  0  0  0  0  0
   11.3550   -1.9490   22.1600 C   0  0  0  0  0  0  0  0  0  0  0  0
  1  2  1  0
  2  3  1  0
  3  4  2  0
  3  5  2  0
  3  6  1  0
  6  7  1  0
  6  8  1  0
  7  9  1  0
  8 10  2  0
  8 11  1  0
  9 12  2  0
  9 13  1  0
 10 14  1  0
 11 15  2  0
 13 16  1  0
 14 17  2  0
 15 17  1  0
 16 18  2  0
 16 19  1  0
 17 20  1  0
 18 21  1  0
 19 22  2  0
 20 23  1  0
 20 24  1  0
 20 25  1  0
 21 26  2  0
 22 26  1  0
 26 27  1  0
 27 28  1  0
M  END
