RAL-MED-9a5eb9cb-7-bromoalkyne
     RDKit          3D

 21 22  0  0  0  0  0  0  0  0999 V2000
    7.6390   -3.8020   19.8560 C   0  0  0  0  0  0  0  0  0  0  0  0
    6.1750   -3.7180   19.4390 C   0  0  0  0  0  0  0  0  0  0  0  0
    8.0630   -4.5620   20.9010 N   0  0  0  0  0  0  0  0  0  0  0  0
    8.2540   -4.1230   22.2360 C   0  0  1  0  0  0  0  0  0  0  0  0
    8.6000   -2.6390   22.1970 C   0  0  0  0  0  0  0  0  0  0  0  0
    7.1720   -4.6050   22.8870 C   0  0  0  0  0  0  0  0  0  0  0  0
    8.2410   -1.9050   21.2850 O   0  0  0  0  0  0  0  0  0  0  0  0
    9.4250   -2.2400   23.3230 N   0  0  0  0  0  0  0  0  0  0  0  0
    6.4240   -5.5840   22.1440 C   0  0  0  0  0  0  0  0  0  0  0  0
    6.7380   -4.2520   24.1530 C   0  0  0  0  0  0  0  0  0  0  0  0
   10.2900   -1.1830   23.2280 C   0  0  0  0  0  0  0  0  0  0  0  0
    5.2810   -6.1320   22.7480 C   0  0  0  0  0  0  0  0  0  0  0  0
    5.6300   -4.7450   24.8260 N   0  0  0  0  0  0  0  0  0  0  0  0
   11.7100   -1.4630   23.4640 C   0  0  0  0  0  0  0  0  0  0  0  0
    9.9240    0.1450   22.9160 C   0  0  0  0  0  0  0  0  0  0  0  0
    4.8880   -5.7340   24.0480 C   0  0  0  0  0  0  0  0  0  0  0  0
   12.6830   -0.2780   23.3560 C   0  0  0  0  0  0  0  0  0  0  0  0
   10.8340    1.2030   22.8290 C   0  0  0  0  0  0  0  0  0  0  0  0
   12.2010    1.0020   23.0450 C   0  0  0  0  0  0  0  0  0  0  0  0
   12.9090    1.9890   22.9450 O   0  0  0  0  0  0  0  0  0  0  0  0
   12.3540    3.2150   22.7590 C   0  0  0  0  0  0  0  0  0  0  0  0
  1  2  2  3
  1  3  1  0
  4  3  1  6
  4  5  1  0
  4  6  1  0
  5  7  2  0
  5  8  1  0
  6  9  2  0
  6 10  1  0
  8 11  1  0
  9 12  1  0
 10 13  2  0
 11 14  2  0
 11 15  1  0
 12 16  2  0
 13 16  1  0
 14 17  1  0
 15 18  2  0
 17 19  2  0
 18 19  1  0
 19 20  1  0
 20 21  1  0
M  END
