RAL-MED-9a5eb9cb-14-acrylamide
     RDKit          3D

 27 28  0  0  0  0  0  0  0  0999 V2000
    8.3100   -3.8900   20.1920 C   0  0  0  0  0  0  0  0  0  0  0  0
    6.9110   -3.7640   19.5500 C   0  0  0  0  0  0  0  0  0  0  0  0
    5.6690   -3.2710   20.2440 C   0  0  0  0  0  0  0  0  0  0  0  0
    4.8480   -3.0500   21.1340 O   0  0  0  0  0  0  0  0  0  0  0  0
    6.3980   -3.7660   21.2810 N   0  0  0  0  0  0  0  0  0  0  0  0
    6.7550   -2.9370   22.3990 C   0  0  2  0  0  0  0  0  0  0  0  0
    6.0390   -4.9960   21.8670 C   0  0  0  0  0  0  0  0  0  0  0  0
    7.9900   -2.0740   22.0690 C   0  0  0  0  0  0  0  0  0  0  0  0
    6.4450   -3.6900   23.5100 C   0  0  0  0  0  0  0  0  0  0  0  0
    4.7720   -4.9270   22.6300 C   0  0  0  0  0  0  0  0  0  0  0  0
    5.7280   -5.9850   20.8170 C   0  0  0  0  0  0  0  0  0  0  0  0
    7.1940   -5.7250   22.6480 C   0  0  0  0  0  0  0  0  0  0  0  0
    8.8070   -2.4730   22.8950 O   0  0  0  0  0  0  0  0  0  0  0  0
    8.4760   -1.2420   21.4200 N   0  0  0  0  0  0  0  0  0  0  0  0
    6.0290   -5.0370   23.2060 C   0  0  0  0  0  0  0  0  0  0  0  0
    6.4430   -3.3400   24.8550 C   0  0  0  0  0  0  0  0  0  0  0  0
    7.3360   -0.5840   20.7160 C   0  0  0  0  0  0  0  0  0  0  0  0
    5.6230   -5.9700   24.1900 C   0  0  0  0  0  0  0  0  0  0  0  0
    6.0370   -4.2780   25.8210 N   0  0  0  0  0  0  0  0  0  0  0  0
    6.2750    0.0600   21.6290 C   0  0  0  0  0  0  0  0  0  0  0  0
    7.0950   -0.4860   19.3380 C   0  0  0  0  0  0  0  0  0  0  0  0
    5.6290   -5.5760   25.5050 C   0  0  0  0  0  0  0  0  0  0  0  0
    5.1470    0.6950   21.1000 C   0  0  0  0  0  0  0  0  0  0  0  0
    5.9530    0.1600   18.8620 C   0  0  0  0  0  0  0  0  0  0  0  0
    4.9740    0.7500   19.7000 C   0  0  0  0  0  0  0  0  0  0  0  0
    3.9730    1.3110   19.2640 O   0  0  0  0  0  0  0  0  0  0  0  0
    4.1790    2.4820   18.6080 C   0  0  0  0  0  0  0  0  0  0  0  0
  1  2  1  0
  2  3  1  0
  3  4  2  0
  3  5  1  0
  5  6  1  0
  7  5  1  0
  6  8  1  6
  6  9  1  0
  7 10  1  0
  7 11  1  0
  7 12  1  0
  8 13  2  0
  8 14  1  0
  9 15  2  0
  9 16  1  0
 14 17  1  0
 15 18  1  0
 16 19  2  0
 17 20  2  0
 17 21  1  0
 18 22  2  0
 19 22  1  0
 20 23  1  0
 21 24  2  0
 23 25  2  0
 24 25  1  0
 25 26  1  0
 26 27  1  0
M  END
