RAL-MED-9a5eb9cb-3-nitrile
     RDKit          3D

 31 33  0  0  0  0  0  0  0  0999 V2000
    6.4300   -5.3420   19.7800 C   0  0  0  0  0  0  0  0  0  0  0  0
    5.4310   -6.0220   19.7810 N   0  0  0  0  0  0  0  0  0  0  0  0
    6.3040   -4.0210   20.1340 N   0  0  0  0  0  0  0  0  0  0  0  0
    5.4580   -3.7570   21.3420 C   0  0  0  0  0  0  0  0  0  0  0  0
    7.3990   -3.2610   20.4870 C   0  0  2  0  0  0  0  0  0  0  0  0
    4.8170   -4.9760   22.0330 C   0  0  0  0  0  0  0  0  0  0  0  0
    5.2610   -2.4670   21.8580 C   0  0  0  0  0  0  0  0  0  0  0  0
    7.4560   -3.5110   21.8070 C   0  0  0  0  0  0  0  0  0  0  0  0
    7.0860   -1.7840   20.1080 C   0  0  0  0  0  0  0  0  0  0  0  0
    3.9560   -4.7160   23.3040 C   0  0  0  0  0  0  0  0  0  0  0  0
    4.4160   -2.2250   23.1240 C   0  0  0  0  0  0  0  0  0  0  0  0
    7.4210   -2.6150   22.5900 O   0  0  0  0  0  0  0  0  0  0  0  0
    7.4880   -4.8200   22.1890 N   0  0  0  0  0  0  0  0  0  0  0  0
    6.1680   -1.6720   18.9600 C   0  0  0  0  0  0  0  0  0  0  0  0
    7.5750   -0.6220   20.7350 C   0  0  0  0  0  0  0  0  0  0  0  0
    3.7980   -3.2710   23.8180 C   0  0  0  0  0  0  0  0  0  0  0  0
    6.6010   -5.3440   23.0570 C   0  0  0  0  0  0  0  0  0  0  0  0
    5.7590   -0.3480   18.4720 C   0  0  0  0  0  0  0  0  0  0  0  0
    7.1650    0.7930   20.2460 C   0  0  0  0  0  0  0  0  0  0  0  0
    2.9800   -3.1150   25.0480 C   0  0  0  0  0  0  0  0  0  0  0  0
    5.7860   -6.4770   22.8420 C   0  0  0  0  0  0  0  0  0  0  0  0
    6.4500   -4.6500   24.4260 C   0  0  0  0  0  0  0  0  0  0  0  0
    6.2800    0.8520   19.1440 C   0  0  0  0  0  0  0  0  0  0  0  0
    3.4360   -3.5820   26.2170 F   0  0  0  0  0  0  0  0  0  0  0  0
    2.7370   -1.8000   25.2900 F   0  0  0  0  0  0  0  0  0  0  0  0
    1.7550   -3.6900   24.9110 F   0  0  0  0  0  0  0  0  0  0  0  0
    4.8460   -6.9950   23.8140 C   0  0  0  0  0  0  0  0  0  0  0  0
    5.4730   -5.1860   25.4540 C   0  0  0  0  0  0  0  0  0  0  0  0
    4.6470   -6.4150   25.1090 C   0  0  0  0  0  0  0  0  0  0  0  0
    3.8750   -6.8090   25.9770 O   0  0  0  0  0  0  0  0  0  0  0  0
    2.9650   -7.8120   25.5390 C   0  0  0  0  0  0  0  0  0  0  0  0
  1  2  2  3
  1  3  1  0
  3  4  1  0
  3  5  1  0
  4  6  2  0
  4  7  1  0
  5  8  1  1
  5  9  1  0
  6 10  1  0
  7 11  2  0
  8 12  2  0
  8 13  1  0
  9 14  2  0
  9 15  1  0
 10 16  2  0
 11 16  1  0
 13 17  1  0
 14 18  1  0
 15 19  2  0
 16 20  1  0
 17 21  2  0
 17 22  1  0
 18 23  2  0
 19 23  1  0
 20 24  1  0
 20 25  1  0
 20 26  1  0
 21 27  1  0
 22 28  2  0
 27 29  2  0
 28 29  1  0
 29 30  1  0
 30 31  1  0
M  END
