RAL-MED-9a5eb9cb-13-nitrile
     RDKit          3D

 25 26  0  0  0  0  0  0  0  0999 V2000
    6.1890   -5.0440   20.6500 C   0  0  0  0  0  0  0  0  0  0  0  0
    5.3050   -4.5760   19.9260 N   0  0  0  0  0  0  0  0  0  0  0  0
    6.0740   -4.8720   22.0470 N   0  0  0  0  0  0  0  0  0  0  0  0
    5.9910   -5.9460   23.1420 C   0  0  0  0  0  0  0  0  0  0  0  0
    5.6760   -3.4740   22.3090 C   0  0  0  0  0  0  0  0  0  0  0  0
    6.0950   -5.3940   24.5820 C   0  0  0  0  0  0  0  0  0  0  0  0
    6.0650   -2.5740   21.3170 C   0  0  0  0  0  0  0  0  0  0  0  0
    4.9110   -2.8380   23.4800 C   0  0  0  0  0  0  0  0  0  0  0  0
    6.2610   -6.0280   25.6150 O   0  0  0  0  0  0  0  0  0  0  0  0
    5.9550   -3.9840   24.5670 N   0  0  0  0  0  0  0  0  0  0  0  0
    5.8480   -1.1440   21.2900 C   0  0  0  0  0  0  0  0  0  0  0  0
    4.6650   -1.3430   23.4900 C   0  0  0  0  0  0  0  0  0  0  0  0
    7.2270   -3.2830   24.2490 C   0  0  0  0  0  0  0  0  0  0  0  0
    5.1610   -0.4520   22.3490 C   0  0  0  0  0  0  0  0  0  0  0  0
    8.2620   -4.0460   23.4010 C   0  0  0  0  0  0  0  0  0  0  0  0
    7.4950   -1.9730   24.6910 C   0  0  0  0  0  0  0  0  0  0  0  0
    4.9750    0.9740   22.2990 C   0  0  0  0  0  0  0  0  0  0  0  0
    9.4880   -3.2860   23.1270 C   0  0  0  0  0  0  0  0  0  0  0  0
    8.6880   -1.2910   24.4000 C   0  0  0  0  0  0  0  0  0  0  0  0
    4.2440    1.4530   23.3430 F   0  0  0  0  0  0  0  0  0  0  0  0
    4.3680    1.4110   21.1620 F   0  0  0  0  0  0  0  0  0  0  0  0
    6.1550    1.6510   22.3450 F   0  0  0  0  0  0  0  0  0  0  0  0
    9.7220   -1.8570   23.6410 C   0  0  0  0  0  0  0  0  0  0  0  0
   10.7410   -1.1990   23.4270 O   0  0  0  0  0  0  0  0  0  0  0  0
   11.6220   -1.7240   22.5310 C   0  0  0  0  0  0  0  0  0  0  0  0
  1  2  2  3
  1  3  1  0
  3  4  1  0
  3  5  1  0
  4  6  1  0
  5  7  2  0
  5  8  1  0
  6  9  2  0
  6 10  1  0
  7 11  1  0
  8 12  2  0
 10 13  1  0
 11 14  2  0
 12 14  1  0
 13 15  2  0
 13 16  1  0
 14 17  1  0
 15 18  1  0
 16 19  2  0
 17 20  1  0
 17 21  1  0
 17 22  1  0
 18 23  2  0
 19 23  1  0
 23 24  1  0
 24 25  1  0
M  END
