RAL-MED-9a5eb9cb-2-bromoalkyne
     RDKit          3D

 32 34  0  0  0  0  0  0  0  0999 V2000
    6.7490   -3.1270   19.5940 C   0  0  0  0  0  0  0  0  0  0  0  0
    5.9510   -2.6990   18.4490 C   0  0  0  0  0  0  0  0  0  0  0  0
    6.4880   -2.3140   20.7390 N   0  0  0  0  0  0  0  0  0  0  0  0
    5.8850   -0.9680   20.6270 C   0  0  0  0  0  0  0  0  0  0  0  0
    6.5670   -2.6430   22.1580 C   0  0  1  0  0  0  0  0  0  0  0  0
    4.9910   -0.6540   19.4180 C   0  0  0  0  0  0  0  0  0  0  0  0
    6.1180   -0.0090   21.6160 C   0  0  0  0  0  0  0  0  0  0  0  0
    7.7970   -2.2630   22.6970 C   0  0  0  0  0  0  0  0  0  0  0  0
    5.4080   -1.9670   22.9140 C   0  0  0  0  0  0  0  0  0  0  0  0
    6.5290   -4.1230   22.3180 C   0  0  0  0  0  0  0  0  0  0  0  0
    4.3720    0.7610   19.3890 C   0  0  0  0  0  0  0  0  0  0  0  0
    5.5270    1.2510   21.5290 C   0  0  0  0  0  0  0  0  0  0  0  0
    4.5320   -1.3240   22.3450 O   0  0  0  0  0  0  0  0  0  0  0  0
    5.2460   -2.0440   24.3850 N   0  0  0  0  0  0  0  0  0  0  0  0
    7.2950   -4.7170   23.3850 C   0  0  0  0  0  0  0  0  0  0  0  0
    5.7870   -4.8900   21.4600 C   0  0  0  0  0  0  0  0  0  0  0  0
    4.6810    1.6830   20.5000 C   0  0  0  0  0  0  0  0  0  0  0  0
    3.9460   -1.7880   25.0130 C   0  0  0  0  0  0  0  0  0  0  0  0
    7.3590   -5.9960   23.6110 C   0  0  0  0  0  0  0  0  0  0  0  0
    5.7190   -6.3130   21.5520 N   0  0  0  0  0  0  0  0  0  0  0  0
    4.0300    3.0910   20.4580 C   0  0  0  0  0  0  0  0  0  0  0  0
    3.0370   -0.7230   24.6830 C   0  0  0  0  0  0  0  0  0  0  0  0
    3.5740   -2.6900   26.0300 C   0  0  0  0  0  0  0  0  0  0  0  0
    6.5210   -6.8570   22.6320 C   0  0  0  0  0  0  0  0  0  0  0  0
    3.0080    3.1780   21.3540 F   0  0  0  0  0  0  0  0  0  0  0  0
    3.4970    3.3820   19.2520 F   0  0  0  0  0  0  0  0  0  0  0  0
    4.9030    4.0700   20.7960 F   0  0  0  0  0  0  0  0  0  0  0  0
    1.7880   -0.5630   25.3480 C   0  0  0  0  0  0  0  0  0  0  0  0
    2.3650   -2.5630   26.7000 C   0  0  0  0  0  0  0  0  0  0  0  0
    1.3950   -1.4310   26.3460 C   0  0  0  0  0  0  0  0  0  0  0  0
    0.1150   -1.1070   26.8860 O   0  0  0  0  0  0  0  0  0  0  0  0
   -0.8740   -0.8470   25.8890 C   0  0  0  0  0  0  0  0  0  0  0  0
  1  2  2  3
  1  3  1  0
  3  4  1  0
  3  5  1  0
  4  6  2  0
  4  7  1  0
  5  8  1  1
  5  9  1  0
  5 10  1  0
  6 11  1  0
  7 12  2  0
  9 13  2  0
  9 14  1  0
 10 15  2  0
 10 16  1  0
 11 17  2  0
 12 17  1  0
 14 18  1  0
 15 19  1  0
 16 20  2  0
 17 21  1  0
 18 22  2  0
 18 23  1  0
 19 24  2  0
 20 24  1  0
 21 25  1  0
 21 26  1  0
 21 27  1  0
 22 28  1  0
 23 29  2  0
 28 30  2  0
 29 30  1  0
 30 31  1  0
 31 32  1  0
M  END
