RAL-MED-9a5eb9cb-18-nitrile
     RDKit          3D

 26 27  0  0  0  0  0  0  0  0999 V2000
    7.4740   -2.9660   18.8270 C   0  0  0  0  0  0  0  0  0  0  0  0
    6.7420   -2.8160   17.7910 N   0  0  0  0  0  0  0  0  0  0  0  0
    7.1420   -2.3550   20.0230 N   0  0  0  0  0  0  0  0  0  0  0  0
    6.2320   -1.1910   19.9550 C   0  0  0  0  0  0  0  0  0  0  0  0
    7.0380   -3.0700   21.2450 C   0  0  2  0  0  0  0  0  0  0  0  0
    5.4700   -0.8860   21.2530 C   0  0  0  0  0  0  0  0  0  0  0  0
    6.0590   -0.4060   18.8050 C   0  0  0  0  0  0  0  0  0  0  0  0
    8.1880   -3.3350   22.0150 C   0  0  0  0  0  0  0  0  0  0  0  0
    6.2530   -4.1700   20.8970 C   0  0  0  0  0  0  0  0  0  0  0  0
    4.5040    0.3160   21.2470 C   0  0  0  0  0  0  0  0  0  0  0  0
    5.0900    0.7930   18.8030 C   0  0  0  0  0  0  0  0  0  0  0  0
    5.4560   -4.1090   19.9740 O   0  0  0  0  0  0  0  0  0  0  0  0
    6.4630   -5.2570   21.6510 N   0  0  0  0  0  0  0  0  0  0  0  0
    4.3560    1.1400   19.9500 C   0  0  0  0  0  0  0  0  0  0  0  0
    5.4770   -5.5690   22.4790 C   0  0  0  0  0  0  0  0  0  0  0  0
    3.4070    2.2640   20.0680 C   0  0  0  0  0  0  0  0  0  0  0  0
    5.3610   -6.8240   23.1550 C   0  0  0  0  0  0  0  0  0  0  0  0
    4.3700   -4.5430   22.7720 C   0  0  0  0  0  0  0  0  0  0  0  0
    3.2370    3.1260   19.0630 F   0  0  0  0  0  0  0  0  0  0  0  0
    3.7370    3.0310   21.1380 F   0  0  0  0  0  0  0  0  0  0  0  0
    2.1600    1.8100   20.3460 F   0  0  0  0  0  0  0  0  0  0  0  0
    4.2800   -7.0950   24.0490 C   0  0  0  0  0  0  0  0  0  0  0  0
    3.3050   -4.7940   23.6450 C   0  0  0  0  0  0  0  0  0  0  0  0
    3.2730   -6.1530   24.3120 C   0  0  0  0  0  0  0  0  0  0  0  0
    2.2140   -6.4740   25.2090 O   0  0  0  0  0  0  0  0  0  0  0  0
    2.1820   -7.8680   25.5200 C   0  0  0  0  0  0  0  0  0  0  0  0
  1  2  2  3
  1  3  1  0
  3  4  1  0
  3  5  1  0
  4  6  2  0
  4  7  1  0
  5  8  1  6
  5  9  1  0
  6 10  1  0
  7 11  2  0
  9 12  2  0
  9 13  1  0
 10 14  2  0
 11 14  1  0
 13 15  1  0
 14 16  1  0
 15 17  2  0
 15 18  1  0
 16 19  1  0
 16 20  1  0
 16 21  1  0
 17 22  1  0
 18 23  2  0
 22 24  2  0
 23 24  1  0
 24 25  1  0
 25 26  1  0
M  END
