RAL-THA-3d7a794f-2
     RDKit          3D

 22 24  0  0  0  0  0  0  0  0999 V2000
    8.9490    5.5870   23.4210 C   0  0  0  0  0  0  0  0  0  0  0  0
    9.6190    6.9090   23.1840 C   0  0  0  0  0  0  0  0  0  0  0  0
    8.5330    7.9780   23.1110 C   0  0  0  0  0  0  0  0  0  0  0  0
   10.4580    7.0170   24.2290 N   0  0  0  0  0  0  0  0  0  0  0  0
   10.4880    8.1190   25.1960 C   0  0  0  0  0  0  0  0  0  0  0  0
   11.4380    6.0780   24.5720 C   0  0  0  0  0  0  0  0  0  0  0  0
   11.5330    7.7800   26.1340 N   0  0  0  0  0  0  0  0  0  0  0  0
   12.0450    6.5960   25.7330 C   0  0  0  0  0  0  0  0  0  0  0  0
   11.7500    4.8860   23.9120 N   0  0  0  0  0  0  0  0  0  0  0  0
   11.0600    3.6120   23.9730 C   0  0  0  0  0  0  0  0  0  0  0  0
   10.1980    3.3750   24.7880 O   0  0  0  0  0  0  0  0  0  0  0  0
   11.2010    2.4790   22.9130 C   0  0  2  0  0  0  0  0  0  0  0  0
    9.8150    2.5560   22.3510 C   0  0  0  0  0  0  0  0  0  0  0  0
   11.4690    0.9290   23.1680 C   0  0  0  0  0  0  0  0  0  0  0  0
    9.1380    1.3560   22.2340 C   0  0  0  0  0  0  0  0  0  0  0  0
   10.8090    0.0400   22.3220 C   0  0  0  0  0  0  0  0  0  0  0  0
   12.2940    0.2780   24.1150 C   0  0  0  0  0  0  0  0  0  0  0  0
    9.9300    0.4930   21.4480 O   0  0  0  0  0  0  0  0  0  0  0  0
   10.9830   -1.3150   22.3290 C   0  0  0  0  0  0  0  0  0  0  0  0
   12.4620   -1.1600   24.1750 C   0  0  0  0  0  0  0  0  0  0  0  0
   11.8530   -1.9720   23.3060 C   0  0  0  0  0  0  0  0  0  0  0  0
   13.4230   -2.0150   25.2900 Cl  0  0  0  0  0  0  0  0  0  0  0  0
  1  2  1  0
  2  3  1  0
  2  4  1  0
  4  5  1  0
  4  6  1  0
  5  7  2  0
  6  8  2  0
  7  8  1  0
  6  9  1  0
  9 10  1  0
 10 11  2  0
 12 10  1  1
 12 13  1  0
 12 14  1  0
 13 15  1  0
 14 16  2  0
 14 17  1  0
 15 18  1  0
 16 18  1  0
 16 19  1  0
 17 20  2  0
 19 21  2  0
 20 21  1  0
 20 22  1  0
M  END
