RAL-MED-9a5eb9cb-18-chloroacetamide
     RDKit          3D

 27 28  0  0  0  0  0  0  0  0999 V2000
    7.4230   -3.2790   19.6340 C   0  0  0  0  0  0  0  0  0  0  0  0
    6.4790   -4.1920   20.3970 C   0  0  0  0  0  0  0  0  0  0  0  0
    5.4110   -4.5100   19.8940 O   0  0  0  0  0  0  0  0  0  0  0  0
    6.7720   -4.7360   21.6760 N   0  0  0  0  0  0  0  0  0  0  0  0
    5.6760   -5.3040   22.4580 C   0  0  0  0  0  0  0  0  0  0  0  0
    7.8510   -4.2370   22.5550 C   0  0  1  0  0  0  0  0  0  0  0  0
    4.5480   -4.3270   22.7880 C   0  0  0  0  0  0  0  0  0  0  0  0
    5.6360   -6.6210   22.8920 C   0  0  0  0  0  0  0  0  0  0  0  0
    8.3880   -2.9970   22.1870 C   0  0  0  0  0  0  0  0  0  0  0  0
    7.2440   -4.0720   23.9570 C   0  0  0  0  0  0  0  0  0  0  0  0
    3.3720   -4.8790   23.6170 C   0  0  0  0  0  0  0  0  0  0  0  0
    4.5340   -7.0470   23.6470 C   0  0  0  0  0  0  0  0  0  0  0  0
    7.4240   -3.0620   24.6230 O   0  0  0  0  0  0  0  0  0  0  0  0
    6.3970   -5.1360   24.5550 N   0  0  0  0  0  0  0  0  0  0  0  0
    3.4270   -6.2890   24.0260 C   0  0  0  0  0  0  0  0  0  0  0  0
    6.2580   -5.4460   25.9830 C   0  0  0  0  0  0  0  0  0  0  0  0
    2.2310   -6.8360   24.8580 C   0  0  0  0  0  0  0  0  0  0  0  0
    5.0420   -5.5150   26.7470 C   0  0  0  0  0  0  0  0  0  0  0  0
    7.4620   -5.7010   26.6700 C   0  0  0  0  0  0  0  0  0  0  0  0
    1.0680   -6.8030   24.1510 F   0  0  0  0  0  0  0  0  0  0  0  0
    2.4150   -8.1280   25.2320 F   0  0  0  0  0  0  0  0  0  0  0  0
    2.0090   -6.1160   25.9870 F   0  0  0  0  0  0  0  0  0  0  0  0
    5.0270   -5.8150   28.1470 C   0  0  0  0  0  0  0  0  0  0  0  0
    7.5190   -6.0010   28.0260 C   0  0  0  0  0  0  0  0  0  0  0  0
    6.2110   -6.0550   28.8090 C   0  0  0  0  0  0  0  0  0  0  0  0
    6.1990   -6.3510   30.2150 O   0  0  0  0  0  0  0  0  0  0  0  0
    5.8670   -7.7140   30.4580 C   0  0  0  0  0  0  0  0  0  0  0  0
  1  2  1  0
  2  3  2  0
  2  4  1  0
  4  5  1  0
  4  6  1  0
  5  7  2  0
  5  8  1  0
  6  9  1  6
  6 10  1  0
  7 11  1  0
  8 12  2  0
 10 13  2  0
 10 14  1  0
 11 15  2  0
 12 15  1  0
 14 16  1  0
 15 17  1  0
 16 18  2  0
 16 19  1  0
 17 20  1  0
 17 21  1  0
 17 22  1  0
 18 23  1  0
 19 24  2  0
 23 25  2  0
 24 25  1  0
 25 26  1  0
 26 27  1  0
M  END
