RAL-THA-b74298ba-1
     RDKit          3D

 20 22  0  0  0  0  0  0  0  0999 V2000
   13.2220   -3.3330   25.6170 C   0  0  0  0  0  0  0  0  0  0  0  0
   11.9560   -2.9380   25.1860 N   0  0  0  0  0  0  0  0  0  0  0  0
   10.8470   -3.6950   25.1260 C   0  0  0  0  0  0  0  0  0  0  0  0
   11.5840   -1.6570   24.7270 C   0  0  0  0  0  0  0  0  0  0  0  0
    9.7390   -3.1400   24.6880 N   0  0  0  0  0  0  0  0  0  0  0  0
   10.1190   -1.8030   24.4020 N   0  0  0  0  0  0  0  0  0  0  0  0
   12.4970   -0.6530   24.6700 N   0  0  0  0  0  0  0  0  0  0  0  0
   12.5800    0.2970   23.5450 C   0  0  0  0  0  0  0  0  0  0  0  0
   13.7450    0.2710   22.7080 O   0  0  0  0  0  0  0  0  0  0  0  0
   11.4150    1.2410   23.1690 C   0  0  2  0  0  0  0  0  0  0  0  0
   12.8220    1.3390   22.7320 C   0  0  0  0  0  0  0  0  0  0  0  0
   11.1180    2.7060   23.4770 C   0  0  0  0  0  0  0  0  0  0  0  0
   13.3850    2.5670   22.3200 C   0  0  0  0  0  0  0  0  0  0  0  0
   12.0730    3.7290   23.3480 C   0  0  0  0  0  0  0  0  0  0  0  0
    9.8570    3.0990   23.8780 C   0  0  0  0  0  0  0  0  0  0  0  0
   13.3650    3.5240   22.9740 O   0  0  0  0  0  0  0  0  0  0  0  0
   11.7750    5.1410   23.6120 C   0  0  0  0  0  0  0  0  0  0  0  0
    9.5790    4.4740   24.1260 C   0  0  0  0  0  0  0  0  0  0  0  0
   10.5370    5.4590   23.9890 C   0  0  0  0  0  0  0  0  0  0  0  0
    8.0370    4.9780   24.6050 Cl  0  0  0  0  0  0  0  0  0  0  0  0
  1  2  1  0
  2  3  1  0
  2  4  1  0
  3  5  2  0
  4  6  2  0
  5  6  1  0
  4  7  1  0
  7  8  1  0
  8  9  2  0
 10  8  1  1
 10 11  1  0
 10 12  1  0
 11 13  1  0
 12 14  2  0
 12 15  1  0
 13 16  1  0
 14 16  1  0
 14 17  1  0
 15 18  2  0
 17 19  2  0
 18 19  1  0
 18 20  1  0
M  END
