RAL-MED-9a5eb9cb-12-vinylsulfonamide
     RDKit          3D

 30 31  0  0  0  0  0  0  0  0999 V2000
    8.1880   -3.9190   19.7640 C   0  0  0  0  0  0  0  0  0  0  0  0
    7.3170   -4.3940   20.9470 C   0  0  0  0  0  0  0  0  0  0  0  0
    5.5290   -4.3560   20.7370 S   0  0  0  0  0  0  0  0  0  0  0  0
    4.9150   -3.1170   21.1060 O   0  0  0  0  0  0  0  0  0  0  0  0
    5.2410   -4.8160   19.4370 O   0  0  0  0  0  0  0  0  0  0  0  0
    4.7780   -5.4700   21.8490 N   0  0  0  0  0  0  0  0  0  0  0  0
    3.9240   -4.8600   22.8820 C   0  0  0  0  0  0  0  0  0  0  0  0
    5.7620   -6.1940   22.5670 C   0  0  2  0  0  0  0  0  0  0  0  0
    2.7620   -5.7040   23.3870 C   0  0  0  0  0  0  0  0  0  0  0  0
    4.1300   -3.5840   23.4160 C   0  0  0  0  0  0  0  0  0  0  0  0
    5.3620   -6.8950   23.7060 C   0  0  0  0  0  0  0  0  0  0  0  0
    6.5890   -5.0570   23.1250 C   0  0  0  0  0  0  0  0  0  0  0  0
    1.8560   -5.1350   24.4780 C   0  0  0  0  0  0  0  0  0  0  0  0
    3.2850   -3.0730   24.4250 C   0  0  0  0  0  0  0  0  0  0  0  0
    4.3010   -7.4910   23.9550 O   0  0  0  0  0  0  0  0  0  0  0  0
    6.5390   -6.7680   24.5690 N   0  0  0  0  0  0  0  0  0  0  0  0
    6.2060   -4.2530   24.3730 C   0  0  0  0  0  0  0  0  0  0  0  0
    7.7610   -4.7270   22.4450 C   0  0  0  0  0  0  0  0  0  0  0  0
    2.1820   -3.7790   24.9710 C   0  0  0  0  0  0  0  0  0  0  0  0
    7.8240   -7.0080   23.9630 C   0  0  0  0  0  0  0  0  0  0  0  0
    7.1510   -3.1430   24.7590 C   0  0  0  0  0  0  0  0  0  0  0  0
    8.6540   -3.7450   22.7370 N   0  0  0  0  0  0  0  0  0  0  0  0
    1.2540   -3.2180   26.0880 C   0  0  0  0  0  0  0  0  0  0  0  0
    8.9530   -7.2050   24.7010 C   0  0  0  0  0  0  0  0  0  0  0  0
    8.3080   -5.8980   23.0630 C   0  0  0  0  0  0  0  0  0  0  0  0
    7.5860   -8.1710   23.0450 C   0  0  0  0  0  0  0  0  0  0  0  0
    8.3170   -2.9680   23.9010 C   0  0  0  0  0  0  0  0  0  0  0  0
    1.5390   -1.9220   26.3810 F   0  0  0  0  0  0  0  0  0  0  0  0
    1.3800   -3.9090   27.2510 F   0  0  0  0  0  0  0  0  0  0  0  0
   -0.0570   -3.2670   25.7420 F   0  0  0  0  0  0  0  0  0  0  0  0
  1  2  1  0
  2  3  1  0
  3  4  2  0
  3  5  2  0
  3  6  1  0
  6  7  1  0
  6  8  1  0
  7  9  2  0
  7 10  1  0
  8 11  1  1
  8 12  1  0
  9 13  1  0
 10 14  2  0
 11 15  2  0
 11 16  1  0
 12 17  2  0
 12 18  1  0
 13 19  2  0
 14 19  1  0
 20 16  1  0
 17 21  1  0
 18 22  2  0
 19 23  1  0
 20 24  1  0
 20 25  1  0
 20 26  1  0
 21 27  2  0
 22 27  1  0
 23 28  1  0
 23 29  1  0
 23 30  1  0
M  END
