RAL-MED-9a5eb9cb-15-acrylamide
     RDKit          3D

 30 32  0  0  0  0  0  0  0  0999 V2000
    7.4950   -3.1000   19.1400 C   0  0  0  0  0  0  0  0  0  0  0  0
    7.2760   -3.1900   20.6330 C   0  0  0  0  0  0  0  0  0  0  0  0
    5.8240   -3.5280   20.8450 C   0  0  0  0  0  0  0  0  0  0  0  0
    5.2180   -4.2380   20.0330 O   0  0  0  0  0  0  0  0  0  0  0  0
    5.1130   -3.0480   21.9820 N   0  0  0  0  0  0  0  0  0  0  0  0
    5.1370   -1.6290   22.3690 C   0  0  0  0  0  0  0  0  0  0  0  0
    4.7250   -4.0320   23.0210 C   0  0  2  0  0  0  0  0  0  0  0  0
    4.8390   -0.6500   21.2220 C   0  0  0  0  0  0  0  0  0  0  0  0
    5.4070   -1.1780   23.6660 C   0  0  0  0  0  0  0  0  0  0  0  0
    4.5160   -3.6520   24.3520 C   0  0  0  0  0  0  0  0  0  0  0  0
    5.8580   -4.7520   23.0010 C   0  0  0  0  0  0  0  0  0  0  0  0
    4.8510    0.7700   21.5830 C   0  0  0  0  0  0  0  0  0  0  0  0
    5.4150    0.1940   23.9860 C   0  0  0  0  0  0  0  0  0  0  0  0
    3.5790   -2.9640   24.7390 O   0  0  0  0  0  0  0  0  0  0  0  0
    5.4790   -4.1370   25.4110 N   0  0  0  0  0  0  0  0  0  0  0  0
    6.9320   -4.2630   23.8590 C   0  0  0  0  0  0  0  0  0  0  0  0
    6.1030   -5.8790   22.2390 C   0  0  0  0  0  0  0  0  0  0  0  0
    5.1550    1.2040   23.0400 C   0  0  0  0  0  0  0  0  0  0  0  0
    5.4160   -3.8370   26.8440 C   0  0  0  0  0  0  0  0  0  0  0  0
    8.2000   -4.9040   23.9320 C   0  0  0  0  0  0  0  0  0  0  0  0
    7.3640   -6.6080   22.2350 N   0  0  0  0  0  0  0  0  0  0  0  0
    5.1540    2.5750   23.3290 C   0  0  0  0  0  0  0  0  0  0  0  0
    6.1320   -2.7050   27.3720 C   0  0  0  0  0  0  0  0  0  0  0  0
    5.7010   -4.9650   27.6560 C   0  0  0  0  0  0  0  0  0  0  0  0
    8.4030   -6.0720   23.1170 C   0  0  0  0  0  0  0  0  0  0  0  0
    6.1890    3.3100   22.9020 F   0  0  0  0  0  0  0  0  0  0  0  0
    4.0540    3.1870   22.8120 F   0  0  0  0  0  0  0  0  0  0  0  0
    5.0920    2.8170   24.6680 F   0  0  0  0  0  0  0  0  0  0  0  0
    7.0890   -3.1270   28.3220 C   0  0  0  0  0  0  0  0  0  0  0  0
    6.9130   -4.4840   28.4490 C   0  0  0  0  0  0  0  0  0  0  0  0
  1  2  1  0
  2  3  1  0
  3  4  2  0
  3  5  1  0
  5  6  1  0
  5  7  1  0
  6  8  2  0
  6  9  1  0
  7 10  1  1
  7 11  1  0
  8 12  1  0
  9 13  2  0
 10 14  2  0
 10 15  1  0
 11 16  2  0
 11 17  1  0
 12 18  2  0
 13 18  1  0
 15 19  1  0
 16 20  1  0
 17 21  2  0
 18 22  1  0
 19 23  1  0
 19 24  1  0
 20 25  2  0
 21 25  1  0
 22 26  1  0
 22 27  1  0
 22 28  1  0
 23 29  1  0
 24 30  1  0
 29 30  1  0
M  END
