RAL-MED-9a5eb9cb-17-acrylamide
     RDKit          3D

 32 34  0  0  0  0  0  0  0  0999 V2000
    7.7180   -5.6330   21.5010 C   0  0  0  0  0  0  0  0  0  0  0  0
    6.4430   -6.1470   22.2440 C   0  0  0  0  0  0  0  0  0  0  0  0
    5.2660   -5.2510   22.1490 C   0  0  0  0  0  0  0  0  0  0  0  0
    4.4680   -4.3800   22.4110 O   0  0  0  0  0  0  0  0  0  0  0  0
    5.8060   -4.7930   23.3180 N   0  0  0  0  0  0  0  0  0  0  0  0
    6.8540   -3.8710   23.0730 C   0  0  0  0  0  0  0  0  0  0  0  0
    4.9910   -4.6710   24.5220 C   0  0  2  0  0  0  0  0  0  0  0  0
    8.2230   -4.4030   23.4410 C   0  0  0  0  0  0  0  0  0  0  0  0
    6.6240   -2.6170   22.5090 C   0  0  0  0  0  0  0  0  0  0  0  0
    3.6850   -4.9570   24.1500 C   0  0  0  0  0  0  0  0  0  0  0  0
    4.9980   -3.2960   25.2380 C   0  0  0  0  0  0  0  0  0  0  0  0
    9.2910   -3.4910   23.1430 C   0  0  0  0  0  0  0  0  0  0  0  0
    7.6780   -1.7600   22.2320 C   0  0  0  0  0  0  0  0  0  0  0  0
    2.7290   -4.3500   24.6210 O   0  0  0  0  0  0  0  0  0  0  0  0
    3.3410   -6.0030   23.1620 N   0  0  0  0  0  0  0  0  0  0  0  0
    4.3890   -2.2520   24.3830 C   0  0  0  0  0  0  0  0  0  0  0  0
    6.2800   -2.9480   25.6560 C   0  0  0  0  0  0  0  0  0  0  0  0
    8.9980   -2.1230   22.5090 C   0  0  0  0  0  0  0  0  0  0  0  0
    2.5130   -7.1470   23.5740 C   0  0  0  0  0  0  0  0  0  0  0  0
    5.0680   -1.0950   24.4430 C   0  0  0  0  0  0  0  0  0  0  0  0
    6.3120   -1.4560   25.2830 C   0  0  0  0  0  0  0  0  0  0  0  0
   10.0930   -1.3240   22.2560 C   0  0  0  0  0  0  0  0  0  0  0  0
    1.3890   -7.7390   22.8780 C   0  0  0  0  0  0  0  0  0  0  0  0
    2.9100   -7.6910   24.8220 C   0  0  0  0  0  0  0  0  0  0  0  0
   11.1560   -1.8420   21.6340 F   0  0  0  0  0  0  0  0  0  0  0  0
    9.7280   -0.2170   21.5610 F   0  0  0  0  0  0  0  0  0  0  0  0
   10.6110   -0.8260   23.4130 F   0  0  0  0  0  0  0  0  0  0  0  0
    0.6730   -8.8520   23.4220 C   0  0  0  0  0  0  0  0  0  0  0  0
    2.2430   -8.7650   25.3780 C   0  0  0  0  0  0  0  0  0  0  0  0
    1.0650   -9.3720   24.6380 C   0  0  0  0  0  0  0  0  0  0  0  0
    0.3840  -10.4790   25.2170 O   0  0  0  0  0  0  0  0  0  0  0  0
    1.2630  -11.2730   26.0140 C   0  0  0  0  0  0  0  0  0  0  0  0
  1  2  1  0
  2  3  1  0
  3  4  2  0
  3  5  1  0
  5  6  1  0
  5  7  1  0
  6  8  2  0
  6  9  1  0
  7 10  1  6
  7 11  1  0
  8 12  1  0
  9 13  2  0
 10 14  2  0
 10 15  1  0
 11 16  1  0
 11 17  1  0
 12 18  2  0
 13 18  1  0
 15 19  1  0
 16 20  1  0
 17 21  1  0
 20 21  1  0
 18 22  1  0
 19 23  2  0
 19 24  1  0
 22 25  1  0
 22 26  1  0
 22 27  1  0
 23 28  1  0
 24 29  2  0
 28 30  2  0
 29 30  1  0
 30 31  1  0
 31 32  1  0
M  END
