RAL-MED-9a5eb9cb-15-chloroacetamide
     RDKit          3D

 29 31  0  0  0  0  0  0  0  0999 V2000
    7.9120   -3.5780   19.5260 C   0  0  0  0  0  0  0  0  0  0  0  0
    6.6930   -2.9710   20.0720 C   0  0  0  0  0  0  0  0  0  0  0  0
    5.6190   -3.4090   19.5190 O   0  0  0  0  0  0  0  0  0  0  0  0
    6.8870   -1.9580   21.1360 N   0  0  0  0  0  0  0  0  0  0  0  0
    8.2350   -1.5080   21.5510 C   0  0  0  0  0  0  0  0  0  0  0  0
    6.4030   -2.1550   22.5170 C   0  0  1  0  0  0  0  0  0  0  0  0
    8.3800   -0.1250   22.2060 C   0  0  0  0  0  0  0  0  0  0  0  0
    9.3300   -2.3110   21.3840 C   0  0  0  0  0  0  0  0  0  0  0  0
    5.3410   -1.3370   22.9150 C   0  0  0  0  0  0  0  0  0  0  0  0
    6.1780   -3.5910   22.8960 C   0  0  0  0  0  0  0  0  0  0  0  0
    9.8140    0.2590   22.6560 C   0  0  0  0  0  0  0  0  0  0  0  0
   10.5940   -1.9160   21.8070 C   0  0  0  0  0  0  0  0  0  0  0  0
    4.2950   -1.8420   23.2750 O   0  0  0  0  0  0  0  0  0  0  0  0
    5.6340    0.1530   22.9170 N   0  0  0  0  0  0  0  0  0  0  0  0
    5.8300   -4.5770   21.8520 C   0  0  0  0  0  0  0  0  0  0  0  0
    6.2620   -4.0890   24.1980 C   0  0  0  0  0  0  0  0  0  0  0  0
   10.9020   -0.7140   22.4230 C   0  0  0  0  0  0  0  0  0  0  0  0
    5.5520    1.1650   21.8470 C   0  0  0  0  0  0  0  0  0  0  0  0
    5.5860   -5.9410   22.1240 C   0  0  0  0  0  0  0  0  0  0  0  0
    6.0090   -5.5060   24.5690 N   0  0  0  0  0  0  0  0  0  0  0  0
   12.3350   -0.3450   22.8810 C   0  0  0  0  0  0  0  0  0  0  0  0
    6.5960    2.1910   21.8950 C   0  0  0  0  0  0  0  0  0  0  0  0
    4.3330    1.8640   21.7950 C   0  0  0  0  0  0  0  0  0  0  0  0
    5.6590   -6.4150   23.4650 C   0  0  0  0  0  0  0  0  0  0  0  0
   12.5090    0.9990   22.9660 F   0  0  0  0  0  0  0  0  0  0  0  0
   13.2720   -0.8250   22.0310 F   0  0  0  0  0  0  0  0  0  0  0  0
   12.6250   -0.8690   24.0940 F   0  0  0  0  0  0  0  0  0  0  0  0
    5.9890    3.4920   21.9870 C   0  0  0  0  0  0  0  0  0  0  0  0
    4.6020    3.3510   21.7980 C   0  0  0  0  0  0  0  0  0  0  0  0
  1  2  1  0
  2  3  2  0
  2  4  1  0
  4  5  1  0
  4  6  1  0
  5  7  2  0
  5  8  1  0
  6  9  1  6
  6 10  1  0
  7 11  1  0
  8 12  2  0
  9 13  2  0
  9 14  1  0
 10 15  2  0
 10 16  1  0
 11 17  2  0
 12 17  1  0
 14 18  1  0
 15 19  1  0
 16 20  2  0
 17 21  1  0
 18 22  1  0
 18 23  1  0
 19 24  2  0
 20 24  1  0
 21 25  1  0
 21 26  1  0
 21 27  1  0
 22 28  1  0
 23 29  1  0
 28 29  1  0
M  END
