RAL-MED-9a5eb9cb-8-vinylsulfonamide
     RDKit          3D

 29 31  0  0  0  0  0  0  0  0999 V2000
    7.4540   -3.1110   18.9360 C   0  0  0  0  0  0  0  0  0  0  0  0
    6.0280   -2.7490   19.2980 C   0  0  0  0  0  0  0  0  0  0  0  0
    5.8290   -3.0270   21.0340 S   0  0  0  0  0  0  0  0  0  0  0  0
    5.2990   -4.3870   21.1590 O   0  0  0  0  0  0  0  0  0  0  0  0
    5.0420   -1.9320   21.5500 O   0  0  0  0  0  0  0  0  0  0  0  0
    7.4490   -2.7090   21.6110 N   0  0  0  0  0  0  0  0  0  0  0  0
    7.7060   -1.2530   21.6330 C   0  0  0  0  0  0  0  0  0  0  0  0
    8.1980   -3.5780   22.4760 C   0  0  1  0  0  0  0  0  0  0  0  0
    7.0190   -0.4700   22.7790 C   0  0  0  0  0  0  0  0  0  0  0  0
    7.2760   -0.5030   20.5470 C   0  0  0  0  0  0  0  0  0  0  0  0
    9.1910   -3.1410   23.3620 C   0  0  0  0  0  0  0  0  0  0  0  0
    7.2550   -4.4380   22.9680 C   0  0  0  0  0  0  0  0  0  0  0  0
    6.6860    0.9500   22.2750 C   0  0  0  0  0  0  0  0  0  0  0  0
    7.1050    0.9980   20.8690 C   0  0  0  0  0  0  0  0  0  0  0  0
   10.0600   -3.9250   23.7390 O   0  0  0  0  0  0  0  0  0  0  0  0
    9.1580   -1.8420   23.7910 N   0  0  0  0  0  0  0  0  0  0  0  0
    7.1350   -5.8220   22.3800 C   0  0  0  0  0  0  0  0  0  0  0  0
    6.3790   -4.0700   23.9960 C   0  0  0  0  0  0  0  0  0  0  0  0
   10.1020   -0.8220   23.5050 C   0  0  0  0  0  0  0  0  0  0  0  0
    6.1190   -6.6890   22.8780 C   0  0  0  0  0  0  0  0  0  0  0  0
    5.3120   -4.9360   24.5580 N   0  0  0  0  0  0  0  0  0  0  0  0
    9.7890    0.4970   23.0870 C   0  0  0  0  0  0  0  0  0  0  0  0
   11.5980   -1.0880   23.6370 C   0  0  0  0  0  0  0  0  0  0  0  0
    5.2340   -6.2450   23.9350 C   0  0  0  0  0  0  0  0  0  0  0  0
   10.7640    1.4810   22.8270 C   0  0  0  0  0  0  0  0  0  0  0  0
   12.6270   -0.0270   23.3540 C   0  0  0  0  0  0  0  0  0  0  0  0
   12.1650    1.2200   22.9640 C   0  0  0  0  0  0  0  0  0  0  0  0
   13.0390    2.2190   22.7060 O   0  0  0  0  0  0  0  0  0  0  0  0
   12.5490    3.5470   22.5460 C   0  0  0  0  0  0  0  0  0  0  0  0
  1  2  1  0
  2  3  1  0
  3  4  2  0
  3  5  2  0
  3  6  1  0
  6  7  1  0
  6  8  1  0
  7  9  1  0
  7 10  1  0
  8 11  1  1
  8 12  1  0
  9 13  1  0
 10 14  1  0
 13 14  1  0
 11 15  2  0
 11 16  1  0
 12 17  2  0
 12 18  1  0
 16 19  1  0
 17 20  1  0
 18 21  2  0
 19 22  2  0
 19 23  1  0
 20 24  2  0
 21 24  1  0
 22 25  1  0
 23 26  2  0
 25 27  2  0
 26 27  1  0
 27 28  1  0
 28 29  1  0
M  END
