RAL-MED-9a5eb9cb-9-nitrile
     RDKit          3D

 29 31  0  0  0  0  0  0  0  0999 V2000
    8.3200   -5.3850   20.0910 C   0  0  0  0  0  0  0  0  0  0  0  0
    7.1200   -5.7280   19.6600 N   0  0  0  0  0  0  0  0  0  0  0  0
    8.3890   -4.3090   20.9460 N   0  0  0  0  0  0  0  0  0  0  0  0
    7.6560   -3.0790   20.5740 C   0  0  0  0  0  0  0  0  0  0  0  0
    8.7530   -4.4380   22.3310 C   0  0  1  0  0  0  0  0  0  0  0  0
    6.2540   -3.2850   19.9410 C   0  0  0  0  0  0  0  0  0  0  0  0
    8.1830   -1.8030   20.7610 C   0  0  0  0  0  0  0  0  0  0  0  0
    9.3840   -3.4010   23.0620 C   0  0  0  0  0  0  0  0  0  0  0  0
    7.4690   -4.8560   22.9020 C   0  0  0  0  0  0  0  0  0  0  0  0
    5.4870   -2.0100   19.5420 C   0  0  0  0  0  0  0  0  0  0  0  0
    7.4040   -0.5500   20.3560 C   0  0  0  0  0  0  0  0  0  0  0  0
   10.2950   -3.6630   23.8440 O   0  0  0  0  0  0  0  0  0  0  0  0
    9.0000   -2.0950   22.9380 N   0  0  0  0  0  0  0  0  0  0  0  0
    6.6900   -5.7260   21.9990 C   0  0  0  0  0  0  0  0  0  0  0  0
    6.9400   -4.5360   24.1300 C   0  0  0  0  0  0  0  0  0  0  0  0
    6.1390   -0.6320   19.7840 C   0  0  0  0  0  0  0  0  0  0  0  0
    7.8290   -1.6790   23.4690 C   0  0  0  0  0  0  0  0  0  0  0  0
    5.4210   -6.2010   22.4120 C   0  0  0  0  0  0  0  0  0  0  0  0
    5.6340   -4.9960   24.6380 N   0  0  0  0  0  0  0  0  0  0  0  0
    5.3490    0.5460   19.3760 C   0  0  0  0  0  0  0  0  0  0  0  0
    7.0720   -0.6080   22.9190 C   0  0  0  0  0  0  0  0  0  0  0  0
    7.3680   -2.3570   24.6160 C   0  0  0  0  0  0  0  0  0  0  0  0
    4.8650   -5.8550   23.7270 C   0  0  0  0  0  0  0  0  0  0  0  0
    5.7890    1.7680   19.6940 F   0  0  0  0  0  0  0  0  0  0  0  0
    5.1820    0.5580   18.0310 F   0  0  0  0  0  0  0  0  0  0  0  0
    4.1000    0.4870   19.8960 F   0  0  0  0  0  0  0  0  0  0  0  0
    5.8150   -0.1570   23.4720 C   0  0  0  0  0  0  0  0  0  0  0  0
    6.0560   -1.9290   25.2400 C   0  0  0  0  0  0  0  0  0  0  0  0
    5.2840   -0.7920   24.6220 C   0  0  0  0  0  0  0  0  0  0  0  0
  1  2  2  3
  1  3  1  0
  3  4  1  0
  3  5  1  0
  4  6  2  0
  4  7  1  0
  5  8  1  1
  5  9  1  0
  6 10  1  0
  7 11  2  0
  8 12  2  0
  8 13  1  0
  9 14  2  0
  9 15  1  0
 10 16  2  0
 11 16  1  0
 13 17  1  0
 14 18  1  0
 15 19  2  0
 16 20  1  0
 17 21  2  0
 17 22  1  0
 18 23  2  0
 19 23  1  0
 20 24  1  0
 20 25  1  0
 20 26  1  0
 21 27  1  0
 22 28  2  0
 27 29  2  0
 28 29  1  0
M  END
