RAL-MED-9a5eb9cb-8-acrylamide
     RDKit          3D

 28 30  0  0  0  0  0  0  0  0999 V2000
    7.4130   -3.2200   19.4040 C   0  0  0  0  0  0  0  0  0  0  0  0
    6.9720   -3.6760   20.7790 C   0  0  0  0  0  0  0  0  0  0  0  0
    5.4990   -3.9040   20.7170 C   0  0  0  0  0  0  0  0  0  0  0  0
    5.0790   -4.5000   19.7240 O   0  0  0  0  0  0  0  0  0  0  0  0
    4.6790   -3.3970   21.7700 N   0  0  0  0  0  0  0  0  0  0  0  0
    4.9030   -1.9670   22.1100 C   0  0  0  0  0  0  0  0  0  0  0  0
    4.5970   -4.2360   23.0250 C   0  0  1  0  0  0  0  0  0  0  0  0
    5.2240   -1.1430   20.8370 C   0  0  0  0  0  0  0  0  0  0  0  0
    5.8090   -1.5740   23.1160 C   0  0  0  0  0  0  0  0  0  0  0  0
    4.0050   -5.5010   23.1900 C   0  0  0  0  0  0  0  0  0  0  0  0
    6.0140   -4.4560   23.1650 C   0  0  0  0  0  0  0  0  0  0  0  0
    6.2930   -0.1890   21.2000 C   0  0  0  0  0  0  0  0  0  0  0  0
    6.6350   -0.3410   22.7060 C   0  0  0  0  0  0  0  0  0  0  0  0
    2.7940   -5.8630   22.6750 O   0  0  0  0  0  0  0  0  0  0  0  0
    4.8550   -6.4420   24.0580 N   0  0  0  0  0  0  0  0  0  0  0  0
    6.6710   -3.7290   24.2040 C   0  0  0  0  0  0  0  0  0  0  0  0
    6.6580   -5.3240   22.2950 C   0  0  0  0  0  0  0  0  0  0  0  0
    6.1540   -6.1880   24.6510 C   0  0  0  0  0  0  0  0  0  0  0  0
    8.0490   -3.9020   24.3370 C   0  0  0  0  0  0  0  0  0  0  0  0
    8.0930   -5.5450   22.3760 N   0  0  0  0  0  0  0  0  0  0  0  0
    6.1980   -5.3150   25.7580 C   0  0  0  0  0  0  0  0  0  0  0  0
    7.4780   -6.7900   24.1810 C   0  0  0  0  0  0  0  0  0  0  0  0
    8.7600   -4.7820   23.4450 C   0  0  0  0  0  0  0  0  0  0  0  0
    7.4180   -4.9590   26.4580 C   0  0  0  0  0  0  0  0  0  0  0  0
    8.7490   -6.4340   24.8870 C   0  0  0  0  0  0  0  0  0  0  0  0
    8.7050   -5.4800   26.0680 C   0  0  0  0  0  0  0  0  0  0  0  0
    9.7120   -5.1610   26.6680 O   0  0  0  0  0  0  0  0  0  0  0  0
    9.4780   -5.0920   28.0530 C   0  0  0  0  0  0  0  0  0  0  0  0
  1  2  1  0
  2  3  1  0
  3  4  2  0
  3  5  1  0
  5  6  1  0
  5  7  1  0
  6  8  1  0
  6  9  1  0
  7 10  1  6
  7 11  1  0
  8 12  1  0
  9 13  1  0
 12 13  1  0
 10 14  2  0
 10 15  1  0
 11 16  2  0
 11 17  1  0
 15 18  1  0
 16 19  1  0
 17 20  2  0
 18 21  2  0
 18 22  1  0
 19 23  2  0
 20 23  1  0
 21 24  1  0
 22 25  2  0
 24 26  2  0
 25 26  1  0
 26 27  1  0
 27 28  1  0
M  END
