RAL-MED-9a5eb9cb-6-acrylamide
     RDKit          3D

 24 25  0  0  0  0  0  0  0  0999 V2000
    8.2790   -3.6080   20.2960 C   0  0  0  0  0  0  0  0  0  0  0  0
    7.0240   -3.0570   19.5960 C   0  0  0  0  0  0  0  0  0  0  0  0
    5.8250   -3.1640   20.5690 C   0  0  0  0  0  0  0  0  0  0  0  0
    5.1510   -3.9750   19.8650 O   0  0  0  0  0  0  0  0  0  0  0  0
    6.7340   -2.2950   21.1450 N   0  0  0  0  0  0  0  0  0  0  0  0
    7.4530   -1.2550   20.3830 C   0  0  0  0  0  0  0  0  0  0  0  0
    6.6870   -2.2830   22.4590 C   0  0  2  0  0  0  0  0  0  0  0  0
    7.8290   -1.6710   23.1730 C   0  0  0  0  0  0  0  0  0  0  0  0
    6.3760   -3.6020   22.8170 C   0  0  0  0  0  0  0  0  0  0  0  0
    7.5250   -0.4800   23.0480 O   0  0  0  0  0  0  0  0  0  0  0  0
    8.8210   -1.6720   23.7640 N   0  0  0  0  0  0  0  0  0  0  0  0
    6.4070   -4.7380   21.9200 C   0  0  0  0  0  0  0  0  0  0  0  0
    5.9780   -3.8850   24.1340 C   0  0  0  0  0  0  0  0  0  0  0  0
    9.6950   -2.7260   23.5750 C   0  0  0  0  0  0  0  0  0  0  0  0
    6.0580   -6.0040   22.3230 C   0  0  0  0  0  0  0  0  0  0  0  0
    5.5830   -5.2170   24.6810 N   0  0  0  0  0  0  0  0  0  0  0  0
    8.3930   -3.1530   23.9360 C   0  0  0  0  0  0  0  0  0  0  0  0
   10.3070   -4.0220   23.4600 C   0  0  0  0  0  0  0  0  0  0  0  0
    5.6200   -6.3280   23.7300 C   0  0  0  0  0  0  0  0  0  0  0  0
    7.7750   -4.3700   24.1370 C   0  0  0  0  0  0  0  0  0  0  0  0
    9.7170   -5.2950   23.6530 C   0  0  0  0  0  0  0  0  0  0  0  0
    8.4280   -5.5210   23.9980 C   0  0  0  0  0  0  0  0  0  0  0  0
    7.8760   -6.7570   24.1840 O   0  0  0  0  0  0  0  0  0  0  0  0
    7.9430   -7.6810   23.1010 C   0  0  0  0  0  0  0  0  0  0  0  0
  1  2  1  0
  2  3  1  0
  3  4  2  0
  3  5  1  0
  5  6  1  0
  5  7  1  0
  7  8  1  1
  7  9  1  0
  8 10  2  0
  8 11  1  0
  9 12  2  0
  9 13  1  0
 11 14  1  0
 12 15  1  0
 13 16  2  0
 14 17  2  0
 14 18  1  0
 15 19  2  0
 16 19  1  0
 17 20  1  0
 18 21  2  0
 20 22  2  0
 21 22  1  0
 22 23  1  0
 23 24  1  0
M  END
