RAL-MED-9a5eb9cb-16-bromoalkyne
     RDKit          3D

 29 30  0  0  0  0  0  0  0  0999 V2000
    6.9660   -4.2560   19.4630 C   0  0  0  0  0  0  0  0  0  0  0  0
    5.6600   -4.7340   19.9890 C   0  0  0  0  0  0  0  0  0  0  0  0
    7.4880   -3.0350   19.8580 N   0  0  0  0  0  0  0  0  0  0  0  0
    6.7640   -1.7710   19.6610 C   0  0  0  0  0  0  0  0  0  0  0  0
    7.6820   -3.2170   21.2510 C   0  0  2  0  0  0  0  0  0  0  0  0
    5.5400   -1.5360   20.5560 C   0  0  0  0  0  0  0  0  0  0  0  0
    7.1590   -0.8240   18.7270 C   0  0  0  0  0  0  0  0  0  0  0  0
    6.5110   -3.9260   21.4830 C   0  0  0  0  0  0  0  0  0  0  0  0
    7.9550   -2.1060   22.0740 C   0  0  0  0  0  0  0  0  0  0  0  0
    4.8140   -0.2050   20.3450 C   0  0  0  0  0  0  0  0  0  0  0  0
    6.4430    0.3740   18.5890 C   0  0  0  0  0  0  0  0  0  0  0  0
    5.4630   -3.7140   20.8510 O   0  0  0  0  0  0  0  0  0  0  0  0
    6.6070   -4.9670   22.5120 N   0  0  0  0  0  0  0  0  0  0  0  0
    8.7090   -1.0390   21.4050 C   0  0  0  0  0  0  0  0  0  0  0  0
    6.7670   -1.4590   22.8160 C   0  0  0  0  0  0  0  0  0  0  0  0
    8.9000   -2.6380   23.1850 C   0  0  0  0  0  0  0  0  0  0  0  0
    5.3150    0.7200   19.3410 C   0  0  0  0  0  0  0  0  0  0  0  0
    5.3670   -5.4080   23.0890 C   0  0  0  0  0  0  0  0  0  0  0  0
    4.5000    2.0240   19.2370 C   0  0  0  0  0  0  0  0  0  0  0  0
    4.3930   -4.4110   23.4030 C   0  0  0  0  0  0  0  0  0  0  0  0
    4.9710   -6.8540   23.4010 C   0  0  0  0  0  0  0  0  0  0  0  0
    4.5560    2.5320   17.9950 F   0  0  0  0  0  0  0  0  0  0  0  0
    3.1910    1.8300   19.5390 F   0  0  0  0  0  0  0  0  0  0  0  0
    4.9530    2.9690   20.0960 F   0  0  0  0  0  0  0  0  0  0  0  0
    3.1260   -4.7210   23.9650 C   0  0  0  0  0  0  0  0  0  0  0  0
    3.7190   -7.1880   23.9570 C   0  0  0  0  0  0  0  0  0  0  0  0
    2.7640   -6.0440   24.2430 C   0  0  0  0  0  0  0  0  0  0  0  0
    1.4860   -6.3370   24.7960 O   0  0  0  0  0  0  0  0  0  0  0  0
    0.4310   -5.9520   23.9170 C   0  0  0  0  0  0  0  0  0  0  0  0
  1  2  2  3
  1  3  1  0
  3  4  1  0
  3  5  1  0
  4  6  2  0
  4  7  1  0
  5  8  1  1
  5  9  1  0
  6 10  1  0
  7 11  2  0
  8 12  2  0
  8 13  1  0
  9 14  1  0
  9 15  1  0
  9 16  1  0
 10 17  2  0
 11 17  1  0
 13 18  1  0
 17 19  1  0
 18 20  2  0
 18 21  1  0
 19 22  1  0
 19 23  1  0
 19 24  1  0
 20 25  1  0
 21 26  2  0
 25 27  2  0
 26 27  1  0
 27 28  1  0
 28 29  1  0
M  END
