RAL-MED-9a5eb9cb-16-nitrile
     RDKit          3D

 29 30  0  0  0  0  0  0  0  0999 V2000
    6.4890   -3.9500   20.4320 C   0  0  0  0  0  0  0  0  0  0  0  0
    5.3360   -3.9570   19.8580 N   0  0  0  0  0  0  0  0  0  0  0  0
    7.0280   -4.5710   21.5200 N   0  0  0  0  0  0  0  0  0  0  0  0
    8.3720   -5.6690   21.2370 C   0  0  0  0  0  0  0  0  0  0  0  0
    6.0670   -4.4970   22.6580 C   0  0  1  0  0  0  0  0  0  0  0  0
    7.9950   -7.2930   21.9050 C   0  0  0  0  0  0  0  0  0  0  0  0
    9.9830   -5.1580   20.5110 C   0  0  0  0  0  0  0  0  0  0  0  0
    5.0850   -5.4680   22.8400 C   0  0  0  0  0  0  0  0  0  0  0  0
    6.4710   -3.9810   24.0770 C   0  0  0  0  0  0  0  0  0  0  0  0
    9.1790   -8.0040   21.7300 C   0  0  0  0  0  0  0  0  0  0  0  0
   10.8900   -6.1010   20.5050 C   0  0  0  0  0  0  0  0  0  0  0  0
    4.0480   -5.4260   22.1920 O   0  0  0  0  0  0  0  0  0  0  0  0
    5.2640   -6.4360   23.7560 N   0  0  0  0  0  0  0  0  0  0  0  0
    7.2340   -2.7170   24.0920 C   0  0  0  0  0  0  0  0  0  0  0  0
    7.0970   -4.9600   25.0720 C   0  0  0  0  0  0  0  0  0  0  0  0
    5.1390   -3.5780   24.7480 C   0  0  0  0  0  0  0  0  0  0  0  0
   10.4400   -7.2740   21.0460 C   0  0  0  0  0  0  0  0  0  0  0  0
    4.1810   -7.0000   24.3110 C   0  0  0  0  0  0  0  0  0  0  0  0
   11.0190   -8.2700   21.1620 C   0  0  0  0  0  0  0  0  0  0  0  0
    4.0340   -7.2670   25.6830 C   0  0  0  0  0  0  0  0  0  0  0  0
    3.0040   -7.4030   23.4060 C   0  0  0  0  0  0  0  0  0  0  0  0
   12.1060   -7.7330   21.3850 F   0  0  0  0  0  0  0  0  0  0  0  0
   11.0570   -9.1690   20.2880 F   0  0  0  0  0  0  0  0  0  0  0  0
    9.9640   -8.5520   21.9150 F   0  0  0  0  0  0  0  0  0  0  0  0
    2.8720   -7.8930   26.2650 C   0  0  0  0  0  0  0  0  0  0  0  0
    1.7810   -8.0600   23.9980 C   0  0  0  0  0  0  0  0  0  0  0  0
    1.7440   -8.3050   25.4910 C   0  0  0  0  0  0  0  0  0  0  0  0
    0.7330   -8.8520   25.9210 O   0  0  0  0  0  0  0  0  0  0  0  0
    0.9100  -10.2630   26.0350 C   0  0  0  0  0  0  0  0  0  0  0  0
  1  2  2  3
  1  3  1  0
  3  4  1  0
  3  5  1  0
  4  6  2  0
  4  7  1  0
  5  8  1  1
  5  9  1  0
  6 10  1  0
  7 11  2  0
  8 12  2  0
  8 13  1  0
  9 14  1  0
  9 15  1  0
  9 16  1  0
 10 17  2  0
 11 17  1  0
 13 18  1  0
 17 19  1  0
 18 20  2  0
 18 21  1  0
 19 22  1  0
 19 23  1  0
 19 24  1  0
 20 25  1  0
 21 26  2  0
 25 27  2  0
 26 27  1  0
 27 28  1  0
 28 29  1  0
M  END
