RAL-MED-9a5eb9cb-10-acrylamide
     RDKit          3D

 26 27  0  0  0  0  0  0  0  0999 V2000
    8.8560   -5.3270   20.3450 C   0  0  0  0  0  0  0  0  0  0  0  0
    7.4390   -5.9150   20.1940 C   0  0  0  0  0  0  0  0  0  0  0  0
    6.2240   -5.0290   20.2940 C   0  0  0  0  0  0  0  0  0  0  0  0
    5.3450   -4.3290   20.8510 O   0  0  0  0  0  0  0  0  0  0  0  0
    6.7480   -5.2010   21.5340 N   0  0  0  0  0  0  0  0  0  0  0  0
    7.8160   -4.2800   21.9890 C   0  0  0  0  0  0  0  0  0  0  0  0
    6.2730   -6.2150   22.4810 C   0  0  1  0  0  0  0  0  0  0  0  0
    7.8840   -2.9700   21.1900 C   0  0  0  0  0  0  0  0  0  0  0  0
    8.7120   -4.5300   23.0430 C   0  0  0  0  0  0  0  0  0  0  0  0
    7.1670   -7.2320   22.8430 C   0  0  0  0  0  0  0  0  0  0  0  0
    6.0730   -5.4010   23.6970 C   0  0  0  0  0  0  0  0  0  0  0  0
    8.9320   -2.0280   21.6000 C   0  0  0  0  0  0  0  0  0  0  0  0
    9.7100   -3.6050   23.4170 C   0  0  0  0  0  0  0  0  0  0  0  0
    6.8140   -8.3760   23.0330 O   0  0  0  0  0  0  0  0  0  0  0  0
    8.6000   -7.0080   23.0650 N   0  0  0  0  0  0  0  0  0  0  0  0
    6.8560   -4.2150   23.7000 C   0  0  0  0  0  0  0  0  0  0  0  0
    5.2420   -5.6540   24.7800 C   0  0  0  0  0  0  0  0  0  0  0  0
    9.8890   -2.3680   22.7700 C   0  0  0  0  0  0  0  0  0  0  0  0
    9.0920   -6.6860   24.3950 C   0  0  0  0  0  0  0  0  0  0  0  0
    6.8300   -3.3190   24.7170 C   0  0  0  0  0  0  0  0  0  0  0  0
    5.1100   -4.7700   25.9580 N   0  0  0  0  0  0  0  0  0  0  0  0
   10.8700   -1.4220   23.1080 C   0  0  0  0  0  0  0  0  0  0  0  0
    5.9410   -3.5690   25.9000 C   0  0  0  0  0  0  0  0  0  0  0  0
   11.9140   -1.2650   22.2910 F   0  0  0  0  0  0  0  0  0  0  0  0
   11.4270   -1.7000   24.3160 F   0  0  0  0  0  0  0  0  0  0  0  0
   10.3430   -0.1710   23.2340 F   0  0  0  0  0  0  0  0  0  0  0  0
  1  2  1  0
  2  3  1  0
  3  4  2  0
  3  5  1  0
  5  6  1  0
  5  7  1  0
  6  8  2  0
  6  9  1  0
  7 10  1  1
  7 11  1  0
  8 12  1  0
  9 13  2  0
 10 14  2  0
 10 15  1  0
 11 16  2  0
 11 17  1  0
 12 18  2  0
 13 18  1  0
 15 19  1  0
 16 20  1  0
 17 21  2  0
 18 22  1  0
 20 23  2  0
 21 23  1  0
 22 24  1  0
 22 25  1  0
 22 26  1  0
M  END
