RAL-MED-9a5eb9cb-5
     RDKit          3D

 37 39  0  0  0  0  0  0  0  0999 V2000
    9.0740    3.1650   22.0080 C   0  0  0  0  0  0  0  0  0  0  0  0
    8.8140    2.1070   21.0970 O   0  0  0  0  0  0  0  0  0  0  0  0
    8.2720    1.0070   21.7020 C   0  0  0  0  0  0  0  0  0  0  0  0
    7.2220    0.1580   20.9640 C   0  0  0  0  0  0  0  0  0  0  0  0
    8.6440    0.6260   23.0020 C   0  0  0  0  0  0  0  0  0  0  0  0
    6.6160   -1.0640   21.6660 C   0  0  0  0  0  0  0  0  0  0  0  0
    8.0340   -0.6110   23.7170 C   0  0  0  0  0  0  0  0  0  0  0  0
    7.0740   -1.4090   23.0880 C   0  0  0  0  0  0  0  0  0  0  0  0
    6.5220   -2.5190   23.7420 N   0  0  0  0  0  0  0  0  0  0  0  0
    6.7740   -3.9420   23.5650 C   0  0  0  0  0  0  0  0  0  0  0  0
    7.3810   -4.4690   22.6310 O   0  0  0  0  0  0  0  0  0  0  0  0
    6.1260   -4.7090   24.7640 C   0  0  1  0  0  0  0  0  0  0  0  0
    4.8300   -5.1150   24.3940 C   0  0  0  0  0  0  0  0  0  0  0  0
    7.1270   -5.6490   25.3110 N   0  0  0  0  0  0  0  0  0  0  0  0
    4.6030   -6.1150   23.4340 C   0  0  0  0  0  0  0  0  0  0  0  0
    3.6840   -4.5430   24.9610 C   0  0  0  0  0  0  0  0  0  0  0  0
    8.1420   -5.0450   26.2140 C   0  0  0  0  0  0  0  0  0  0  0  0
    7.4740   -6.7570   24.4080 C   0  0  0  0  0  0  0  0  0  0  0  0
    3.3030   -6.5190   23.0650 C   0  0  0  0  0  0  0  0  0  0  0  0
    2.2930   -4.9170   24.6210 N   0  0  0  0  0  0  0  0  0  0  0  0
    8.4770   -5.4230   27.3320 O   0  0  0  0  0  0  0  0  0  0  0  0
    8.7410   -3.8560   25.6350 C   0  0  0  0  0  0  0  0  0  0  0  0
    8.7830   -6.7010   23.9350 C   0  0  0  0  0  0  0  0  0  0  0  0
    6.7570   -7.8640   23.9270 C   0  0  0  0  0  0  0  0  0  0  0  0
    2.1390   -5.9610   23.6170 C   0  0  0  0  0  0  0  0  0  0  0  0
   10.1280   -3.4320   25.7090 C   0  0  0  0  0  0  0  0  0  0  0  0
    9.2910   -7.6460   22.9900 C   0  0  0  0  0  0  0  0  0  0  0  0
    7.4480   -8.8950   22.9070 C   0  0  0  0  0  0  0  0  0  0  0  0
   10.6480   -2.2510   25.1190 C   0  0  0  0  0  0  0  0  0  0  0  0
    8.7040   -8.6940   22.4120 C   0  0  0  0  0  0  0  0  0  0  0  0
   12.0130   -2.1460   24.7640 N   0  0  0  0  0  0  0  0  0  0  0  0
    9.7520   -9.3960   21.0670 C   0  0  0  0  0  0  0  0  0  0  0  0
   13.0900   -2.9700   25.3140 C   0  0  0  0  0  0  0  0  0  0  0  0
   12.3640   -0.7470   24.4940 C   0  0  0  0  0  0  0  0  0  0  0  0
   10.9740   -8.9750   21.0010 F   0  0  0  0  0  0  0  0  0  0  0  0
    9.5370  -10.6000   20.3210 F   0  0  0  0  0  0  0  0  0  0  0  0
    9.8400   -8.9680   19.7630 F   0  0  0  0  0  0  0  0  0  0  0  0
  1  2  1  0
  2  3  1  0
  3  4  2  0
  3  5  1  0
  4  6  1  0
  5  7  2  0
  6  8  2  0
  7  8  1  0
  8  9  1  0
  9 10  1  0
 10 11  2  0
 12 10  1  6
 12 13  1  0
 12 14  1  0
 13 15  2  0
 13 16  1  0
 14 17  1  0
 14 18  1  0
 15 19  1  0
 16 20  2  0
 17 21  2  0
 17 22  1  0
 18 23  2  0
 18 24  1  0
 19 25  2  0
 20 25  1  0
 22 26  2  3
 23 27  1  0
 24 28  2  0
 26 29  1  0
 27 30  2  0
 28 30  1  0
 29 31  1  0
 30 32  1  0
 31 33  1  0
 31 34  1  0
 32 35  1  0
 32 36  1  0
 32 37  1  0
M  END
