RAL-THA-b74298ba-4
     RDKit          3D

 22 24  0  0  0  0  0  0  0  0999 V2000
   13.3880    0.6240   23.0300 O   0  0  0  0  0  0  0  0  0  0  0  0
   12.5320    0.4090   23.8830 C   0  0  0  0  0  0  0  0  0  0  0  0
   12.6790   -0.4210   24.9620 N   0  0  0  0  0  0  0  0  0  0  0  0
   11.1600    0.9880   23.8520 C   0  0  2  0  0  0  0  0  0  0  0  0
   13.2220   -1.5510   24.7150 C   0  0  0  0  0  0  0  0  0  0  0  0
   10.2930    0.2770   23.1020 C   0  0  0  0  0  0  0  0  0  0  0  0
   10.8300    2.4270   23.7090 C   0  0  0  0  0  0  0  0  0  0  0  0
   13.8220   -2.3880   25.4970 N   0  0  0  0  0  0  0  0  0  0  0  0
   13.1980   -1.9860   23.4660 N   0  0  0  0  0  0  0  0  0  0  0  0
    8.8610    0.6320   23.6060 C   0  0  0  0  0  0  0  0  0  0  0  0
    9.4820    2.6590   24.0010 C   0  0  0  0  0  0  0  0  0  0  0  0
   11.6660    3.4780   23.3510 C   0  0  0  0  0  0  0  0  0  0  0  0
   14.2110   -3.3890   24.6860 N   0  0  0  0  0  0  0  0  0  0  0  0
   13.8160   -3.0950   23.4710 C   0  0  0  0  0  0  0  0  0  0  0  0
   12.6280   -1.4090   22.2680 C   0  0  0  0  0  0  0  0  0  0  0  0
    8.7030    1.7740   24.3140 O   0  0  0  0  0  0  0  0  0  0  0  0
    8.9370    3.9140   23.9560 C   0  0  0  0  0  0  0  0  0  0  0  0
   11.0970    4.7520   23.3180 C   0  0  0  0  0  0  0  0  0  0  0  0
   12.9090   -2.2010   21.0490 C   0  0  0  0  0  0  0  0  0  0  0  0
    9.7480    4.9420   23.6220 C   0  0  0  0  0  0  0  0  0  0  0  0
   11.9970    6.1290   22.9170 Cl  0  0  0  0  0  0  0  0  0  0  0  0
   13.8450   -1.3500   20.3680 O   0  0  0  0  0  0  0  0  0  0  0  0
  1  2  2  0
  2  3  1  0
  4  2  1  6
  3  5  1  0
  4  6  1  0
  4  7  1  0
  5  8  2  0
  5  9  1  0
  6 10  1  0
  7 11  2  0
  7 12  1  0
  8 13  1  0
  9 14  1  0
 13 14  2  0
  9 15  1  0
 10 16  1  0
 11 16  1  0
 11 17  1  0
 12 18  2  0
 15 19  1  0
 17 20  2  0
 18 20  1  0
 18 21  1  0
 19 22  1  0
M  END
