RAL-MED-9a5eb9cb-12-chloroacetamide
     RDKit          3D

 28 29  0  0  0  0  0  0  0  0999 V2000
    7.7010   -3.9150   20.3960 C   0  0  0  0  0  0  0  0  0  0  0  0
    6.3140   -3.2990   20.3380 C   0  0  0  0  0  0  0  0  0  0  0  0
    5.5040   -3.4840   19.3980 O   0  0  0  0  0  0  0  0  0  0  0  0
    6.0620   -2.5610   21.5260 N   0  0  0  0  0  0  0  0  0  0  0  0
    7.3060   -2.5500   22.3480 C   0  0  0  0  0  0  0  0  0  0  0  0
    5.0290   -3.2420   22.2810 C   0  0  2  0  0  0  0  0  0  0  0  0
    8.3060   -1.4350   22.0280 C   0  0  0  0  0  0  0  0  0  0  0  0
    7.5770   -3.5230   23.3600 C   0  0  0  0  0  0  0  0  0  0  0  0
    4.3690   -2.5920   23.3350 C   0  0  0  0  0  0  0  0  0  0  0  0
    5.8770   -4.3280   22.7610 C   0  0  0  0  0  0  0  0  0  0  0  0
    9.5950   -1.4600   22.8700 C   0  0  0  0  0  0  0  0  0  0  0  0
    8.7710   -3.4810   24.0920 C   0  0  0  0  0  0  0  0  0  0  0  0
    3.5630   -3.1780   24.0460 O   0  0  0  0  0  0  0  0  0  0  0  0
    4.7220   -1.1410   23.4960 N   0  0  0  0  0  0  0  0  0  0  0  0
    6.4060   -4.4550   24.1670 C   0  0  0  0  0  0  0  0  0  0  0  0
    6.2090   -5.2450   21.7560 C   0  0  0  0  0  0  0  0  0  0  0  0
    9.7710   -2.5150   23.8920 C   0  0  0  0  0  0  0  0  0  0  0  0
    5.5560   -0.5380   24.5550 C   0  0  0  0  0  0  0  0  0  0  0  0
    7.3140   -5.5970   24.3220 C   0  0  0  0  0  0  0  0  0  0  0  0
    7.0130   -6.2810   21.8650 N   0  0  0  0  0  0  0  0  0  0  0  0
   11.1020   -2.4360   24.6640 C   0  0  0  0  0  0  0  0  0  0  0  0
    5.0400    0.4730   25.4210 C   0  0  0  0  0  0  0  0  0  0  0  0
    6.0310   -1.6510   25.5010 C   0  0  0  0  0  0  0  0  0  0  0  0
    6.8090    0.0790   23.9200 C   0  0  0  0  0  0  0  0  0  0  0  0
    7.5710   -6.4340   23.1630 C   0  0  0  0  0  0  0  0  0  0  0  0
   11.1330   -3.3300   25.6800 F   0  0  0  0  0  0  0  0  0  0  0  0
   11.3070   -1.1960   25.1670 F   0  0  0  0  0  0  0  0  0  0  0  0
   12.1680   -2.7080   23.8770 F   0  0  0  0  0  0  0  0  0  0  0  0
  1  2  1  0
  2  3  2  0
  2  4  1  0
  4  5  1  0
  4  6  1  0
  5  7  2  0
  5  8  1  0
  6  9  1  1
  6 10  1  0
  7 11  1  0
  8 12  2  0
  9 13  2  0
  9 14  1  0
 10 15  2  0
 10 16  1  0
 11 17  2  0
 12 17  1  0
 18 14  1  0
 15 19  1  0
 16 20  2  0
 17 21  1  0
 18 22  1  0
 18 23  1  0
 18 24  1  0
 19 25  2  0
 20 25  1  0
 21 26  1  0
 21 27  1  0
 21 28  1  0
M  END
