RAL-MED-9a5eb9cb-17-vinylsulfonamide
     RDKit          3D

 33 35  0  0  0  0  0  0  0  0999 V2000
    8.6470   -3.6690   19.6930 C   0  0  0  0  0  0  0  0  0  0  0  0
    7.2460   -4.0840   20.1180 C   0  0  0  0  0  0  0  0  0  0  0  0
    6.3600   -2.7950   20.9890 S   0  0  0  0  0  0  0  0  0  0  0  0
    4.9390   -3.1510   21.0380 O   0  0  0  0  0  0  0  0  0  0  0  0
    6.8290   -1.4820   20.5950 O   0  0  0  0  0  0  0  0  0  0  0  0
    7.0020   -3.1530   22.4990 N   0  0  0  0  0  0  0  0  0  0  0  0
    6.2180   -2.7270   23.6760 C   0  0  0  0  0  0  0  0  0  0  0  0
    7.3060   -4.5710   22.3830 C   0  0  1  0  0  0  0  0  0  0  0  0
    5.0410   -1.7840   23.4660 C   0  0  0  0  0  0  0  0  0  0  0  0
    6.5290   -3.1620   24.9670 C   0  0  0  0  0  0  0  0  0  0  0  0
    6.6200   -4.9980   21.1900 C   0  0  0  0  0  0  0  0  0  0  0  0
    8.7100   -4.7400   22.4020 C   0  0  0  0  0  0  0  0  0  0  0  0
    4.2330   -1.3390   24.6890 C   0  0  0  0  0  0  0  0  0  0  0  0
    5.7720   -2.7430   26.0850 C   0  0  0  0  0  0  0  0  0  0  0  0
    5.7060   -5.3470   20.4000 O   0  0  0  0  0  0  0  0  0  0  0  0
    5.5400   -4.8680   22.2060 N   0  0  0  0  0  0  0  0  0  0  0  0
    9.3920   -3.4350   22.2010 C   0  0  0  0  0  0  0  0  0  0  0  0
    9.1960   -5.3010   23.5960 C   0  0  0  0  0  0  0  0  0  0  0  0
    4.6600   -1.8670   26.0030 C   0  0  0  0  0  0  0  0  0  0  0  0
    5.1220   -5.9760   23.0240 C   0  0  0  0  0  0  0  0  0  0  0  0
   10.2260   -3.2300   23.3410 C   0  0  0  0  0  0  0  0  0  0  0  0
    9.9630   -4.1180   24.2630 C   0  0  0  0  0  0  0  0  0  0  0  0
    3.8270   -1.4010   27.2300 C   0  0  0  0  0  0  0  0  0  0  0  0
    4.6130   -7.0240   23.9020 C   0  0  0  0  0  0  0  0  0  0  0  0
    4.1090   -4.8560   23.5040 C   0  0  0  0  0  0  0  0  0  0  0  0
    3.9090   -0.0550   27.4040 F   0  0  0  0  0  0  0  0  0  0  0  0
    2.5080   -1.6940   27.1100 F   0  0  0  0  0  0  0  0  0  0  0  0
    4.2590   -1.9640   28.3860 F   0  0  0  0  0  0  0  0  0  0  0  0
    3.5830   -7.1100   24.8820 C   0  0  0  0  0  0  0  0  0  0  0  0
    3.0630   -4.8150   24.4440 C   0  0  0  0  0  0  0  0  0  0  0  0
    2.7800   -6.0510   25.1990 C   0  0  0  0  0  0  0  0  0  0  0  0
    1.7750   -6.2280   26.1970 O   0  0  0  0  0  0  0  0  0  0  0  0
    2.0640   -7.3090   27.0830 C   0  0  0  0  0  0  0  0  0  0  0  0
  1  2  1  0
  2  3  1  0
  3  4  2  0
  3  5  2  0
  3  6  1  0
  6  7  1  0
  6  8  1  0
  7  9  2  0
  7 10  1  0
  8 11  1  6
  8 12  1  0
  9 13  1  0
 10 14  2  0
 11 15  2  0
 11 16  1  0
 12 17  1  0
 12 18  1  0
 13 19  2  0
 14 19  1  0
 16 20  1  0
 17 21  1  0
 18 22  1  0
 21 22  1  0
 19 23  1  0
 20 24  2  0
 20 25  1  0
 23 26  1  0
 23 27  1  0
 23 28  1  0
 24 29  1  0
 25 30  2  0
 29 31  2  0
 30 31  1  0
 31 32  1  0
 32 33  1  0
M  END
