RAL-MED-9a5eb9cb-14-vinylsulfonamide
     RDKit          3D

 28 29  0  0  0  0  0  0  0  0999 V2000
    9.2070   -4.8280   20.6570 C   0  0  0  0  0  0  0  0  0  0  0  0
    7.9990   -3.8630   20.7800 C   0  0  0  0  0  0  0  0  0  0  0  0
    6.5030   -4.7810   21.1490 S   0  0  0  0  0  0  0  0  0  0  0  0
    5.3000   -3.9580   20.9380 O   0  0  0  0  0  0  0  0  0  0  0  0
    6.6220   -6.0450   20.4840 O   0  0  0  0  0  0  0  0  0  0  0  0
    6.6960   -5.0430   22.8620 N   0  0  0  0  0  0  0  0  0  0  0  0
    5.9020   -4.1250   23.7770 C   0  0  1  0  0  0  0  0  0  0  0  0
    7.6260   -6.1190   23.3740 C   0  0  0  0  0  0  0  0  0  0  0  0
    5.7060   -4.6280   25.2750 C   0  0  0  0  0  0  0  0  0  0  0  0
    6.1280   -2.7250   23.7110 C   0  0  0  0  0  0  0  0  0  0  0  0
    7.0520   -7.5060   23.1190 C   0  0  0  0  0  0  0  0  0  0  0  0
    9.0430   -6.0090   22.7880 C   0  0  0  0  0  0  0  0  0  0  0  0
    7.9530   -6.1750   24.8800 C   0  0  0  0  0  0  0  0  0  0  0  0
    6.6400   -4.7320   26.0790 O   0  0  0  0  0  0  0  0  0  0  0  0
    4.3120   -4.9320   25.6220 N   0  0  0  0  0  0  0  0  0  0  0  0
    4.7960   -2.9100   23.3450 C   0  0  0  0  0  0  0  0  0  0  0  0
    7.2410   -3.3630   24.0810 C   0  0  0  0  0  0  0  0  0  0  0  0
    3.6360   -6.1210   25.4100 C   0  0  0  0  0  0  0  0  0  0  0  0
    4.5660   -4.3180   23.3890 C   0  0  0  0  0  0  0  0  0  0  0  0
    7.1070   -4.7350   24.1490 N   0  0  0  0  0  0  0  0  0  0  0  0
    3.2060   -6.8260   26.6190 C   0  0  0  0  0  0  0  0  0  0  0  0
    3.3170   -6.7060   24.1570 C   0  0  0  0  0  0  0  0  0  0  0  0
    5.6930   -5.1990   23.7810 C   0  0  0  0  0  0  0  0  0  0  0  0
    2.4330   -8.1450   26.4590 C   0  0  0  0  0  0  0  0  0  0  0  0
    2.6080   -7.9130   24.0620 C   0  0  0  0  0  0  0  0  0  0  0  0
    2.1640   -8.6300   25.1770 C   0  0  0  0  0  0  0  0  0  0  0  0
    1.5510   -9.6650   24.9320 O   0  0  0  0  0  0  0  0  0  0  0  0
    1.6170  -10.6670   25.8440 C   0  0  0  0  0  0  0  0  0  0  0  0
  1  2  1  0
  2  3  1  0
  3  4  2  0
  3  5  2  0
  3  6  1  0
  6  7  1  0
  8  6  1  0
  7  9  1  1
  7 10  1  0
  8 11  1  0
  8 12  1  0
  8 13  1  0
  9 14  2  0
  9 15  1  0
 10 16  2  0
 10 17  1  0
 15 18  1  0
 16 19  1  0
 17 20  2  0
 18 21  2  0
 18 22  1  0
 19 23  2  0
 20 23  1  0
 21 24  1  0
 22 25  2  0
 24 26  2  0
 25 26  1  0
 26 27  1  0
 27 28  1  0
M  END
