RAL-MED-9a5eb9cb-8-nitrile
     RDKit          3D

 26 28  0  0  0  0  0  0  0  0999 V2000
    6.8270   -3.8500   20.0960 C   0  0  0  0  0  0  0  0  0  0  0  0
    5.6870   -3.6510   19.5360 N   0  0  0  0  0  0  0  0  0  0  0  0
    6.9970   -4.2790   21.4160 N   0  0  0  0  0  0  0  0  0  0  0  0
    6.7110   -5.6910   21.6710 C   0  0  0  0  0  0  0  0  0  0  0  0
    6.6100   -3.4630   22.5040 C   0  0  2  0  0  0  0  0  0  0  0  0
    5.3240   -5.9010   21.1830 C   0  0  0  0  0  0  0  0  0  0  0  0
    6.8340   -6.1520   22.9810 C   0  0  0  0  0  0  0  0  0  0  0  0
    6.9110   -2.0890   22.4820 C   0  0  0  0  0  0  0  0  0  0  0  0
    6.9590   -4.1300   23.6660 C   0  0  0  0  0  0  0  0  0  0  0  0
    4.4800   -5.9850   22.4600 C   0  0  0  0  0  0  0  0  0  0  0  0
    5.4280   -6.4460   23.5650 C   0  0  0  0  0  0  0  0  0  0  0  0
    7.3320   -1.5170   21.4820 O   0  0  0  0  0  0  0  0  0  0  0  0
    6.6400   -1.4550   23.7770 N   0  0  0  0  0  0  0  0  0  0  0  0
    8.3460   -4.7390   23.7340 C   0  0  0  0  0  0  0  0  0  0  0  0
    6.1270   -4.3000   24.7840 C   0  0  0  0  0  0  0  0  0  0  0  0
    5.3910   -1.4350   24.4000 C   0  0  0  0  0  0  0  0  0  0  0  0
    8.7430   -5.4980   24.9880 C   0  0  0  0  0  0  0  0  0  0  0  0
    6.4330   -5.0170   26.0450 N   0  0  0  0  0  0  0  0  0  0  0  0
    4.4080   -2.4230   24.2190 C   0  0  0  0  0  0  0  0  0  0  0  0
    5.1430   -0.3500   25.2490 C   0  0  0  0  0  0  0  0  0  0  0  0
    7.7690   -5.6040   26.0820 C   0  0  0  0  0  0  0  0  0  0  0  0
    3.1590   -2.3920   24.8580 C   0  0  0  0  0  0  0  0  0  0  0  0
    3.7690   -0.3550   25.9220 C   0  0  0  0  0  0  0  0  0  0  0  0
    2.8180   -1.3540   25.7230 C   0  0  0  0  0  0  0  0  0  0  0  0
    1.7170   -1.3500   26.2660 O   0  0  0  0  0  0  0  0  0  0  0  0
    0.9440   -2.5390   26.1720 C   0  0  0  0  0  0  0  0  0  0  0  0
  1  2  2  3
  1  3  1  0
  3  4  1  0
  3  5  1  0
  4  6  1  0
  4  7  1  0
  5  8  1  6
  5  9  1  0
  6 10  1  0
  7 11  1  0
 10 11  1  0
  8 12  2  0
  8 13  1  0
  9 14  2  0
  9 15  1  0
 13 16  1  0
 14 17  1  0
 15 18  2  0
 16 19  2  0
 16 20  1  0
 17 21  2  0
 18 21  1  0
 19 22  1  0
 20 23  2  0
 22 24  2  0
 23 24  1  0
 24 25  1  0
 25 26  1  0
M  END
