RAL-MED-9a5eb9cb-10-vinylsulfonamide
     RDKit          3D

 27 28  0  0  0  0  0  0  0  0999 V2000
    7.7140   -2.9280   18.6910 C   0  0  0  0  0  0  0  0  0  0  0  0
    6.3140   -2.9580   19.3440 C   0  0  0  0  0  0  0  0  0  0  0  0
    5.8880   -4.1410   20.5870 S   0  0  0  0  0  0  0  0  0  0  0  0
    5.0620   -5.0740   19.9330 O   0  0  0  0  0  0  0  0  0  0  0  0
    7.0230   -4.5670   21.3500 O   0  0  0  0  0  0  0  0  0  0  0  0
    4.8800   -3.2630   21.6680 N   0  0  0  0  0  0  0  0  0  0  0  0
    4.2310   -4.1800   22.6310 C   0  0  0  0  0  0  0  0  0  0  0  0
    5.8050   -2.4600   22.4040 C   0  0  1  0  0  0  0  0  0  0  0  0
    4.4630   -5.6830   22.4790 C   0  0  0  0  0  0  0  0  0  0  0  0
    3.4200   -3.7260   23.6680 C   0  0  0  0  0  0  0  0  0  0  0  0
    5.2920   -1.6190   23.4170 C   0  0  0  0  0  0  0  0  0  0  0  0
    6.6160   -3.6130   22.9240 C   0  0  0  0  0  0  0  0  0  0  0  0
    3.7890   -6.6330   23.4690 C   0  0  0  0  0  0  0  0  0  0  0  0
    2.8050   -4.6130   24.5690 C   0  0  0  0  0  0  0  0  0  0  0  0
    5.1160   -0.4230   23.2070 O   0  0  0  0  0  0  0  0  0  0  0  0
    5.0090   -2.2730   24.7370 N   0  0  0  0  0  0  0  0  0  0  0  0
    7.9810   -3.7210   22.5820 C   0  0  0  0  0  0  0  0  0  0  0  0
    6.0720   -4.6220   23.7320 C   0  0  0  0  0  0  0  0  0  0  0  0
    2.9490   -6.0170   24.5160 C   0  0  0  0  0  0  0  0  0  0  0  0
    3.9260   -1.9080   25.6540 C   0  0  0  0  0  0  0  0  0  0  0  0
    8.7550   -4.7760   23.0190 C   0  0  0  0  0  0  0  0  0  0  0  0
    6.8590   -5.6650   24.1490 N   0  0  0  0  0  0  0  0  0  0  0  0
    2.2700   -7.0050   25.5070 C   0  0  0  0  0  0  0  0  0  0  0  0
    8.1970   -5.7390   23.7870 C   0  0  0  0  0  0  0  0  0  0  0  0
    0.9200   -7.0160   25.3490 F   0  0  0  0  0  0  0  0  0  0  0  0
    2.6930   -8.2780   25.3270 F   0  0  0  0  0  0  0  0  0  0  0  0
    2.5070   -6.6760   26.8000 F   0  0  0  0  0  0  0  0  0  0  0  0
  1  2  1  0
  2  3  1  0
  3  4  2  0
  3  5  2  0
  3  6  1  0
  6  7  1  0
  6  8  1  0
  7  9  2  0
  7 10  1  0
  8 11  1  1
  8 12  1  0
  9 13  1  0
 10 14  2  0
 11 15  2  0
 11 16  1  0
 12 17  2  0
 12 18  1  0
 13 19  2  0
 14 19  1  0
 16 20  1  0
 17 21  1  0
 18 22  2  0
 19 23  1  0
 21 24  2  0
 22 24  1  0
 23 25  1  0
 23 26  1  0
 23 27  1  0
M  END
