RAL-THA-f8a0f917-1
     RDKit          3D

 23 26  0  0  0  0  0  0  0  0999 V2000
   12.8800    4.1170   23.5090 O   0  0  0  0  0  0  0  0  0  0  0  0
   11.6750    4.2180   23.7170 C   0  0  0  0  0  0  0  0  0  0  0  0
   11.0830    5.4470   23.8560 N   0  0  0  0  0  0  0  0  0  0  0  0
   10.6370    3.0060   23.7230 C   0  0  1  0  0  0  0  0  0  0  0  0
   11.3260    6.3610   24.8610 C   0  0  0  0  0  0  0  0  0  0  0  0
   10.3820    3.2080   22.2760 C   0  0  0  0  0  0  0  0  0  0  0  0
   11.1880    1.5430   23.6380 C   0  0  0  0  0  0  0  0  0  0  0  0
   12.1460    6.4000   25.8810 N   0  0  0  0  0  0  0  0  0  0  0  0
   10.6030    7.4980   24.8750 N   0  0  0  0  0  0  0  0  0  0  0  0
   11.7630    3.6030   21.7900 C   0  0  0  0  0  0  0  0  0  0  0  0
   12.2850    1.4160   22.8450 C   0  0  0  0  0  0  0  0  0  0  0  0
   10.6460    0.3880   24.2730 C   0  0  0  0  0  0  0  0  0  0  0  0
   11.9460    7.5910   26.5620 N   0  0  0  0  0  0  0  0  0  0  0  0
   11.0000    8.2480   25.9320 C   0  0  0  0  0  0  0  0  0  0  0  0
    9.5790    7.7860   23.8730 C   0  0  0  0  0  0  0  0  0  0  0  0
   12.7730    2.6140   22.2050 O   0  0  0  0  0  0  0  0  0  0  0  0
   12.8620    0.1360   22.6890 C   0  0  0  0  0  0  0  0  0  0  0  0
   11.2460   -0.8680   24.0940 C   0  0  0  0  0  0  0  0  0  0  0  0
    9.2350    0.4760   25.2740 Cl  0  0  0  0  0  0  0  0  0  0  0  0
    8.3460    6.9610   23.8760 C   0  0  0  0  0  0  0  0  0  0  0  0
    8.2460    8.4310   24.1540 C   0  0  0  0  0  0  0  0  0  0  0  0
   12.3720   -1.0080   23.2950 C   0  0  0  0  0  0  0  0  0  0  0  0
   10.5820   -2.2570   24.8640 Cl  0  0  0  0  0  0  0  0  0  0  0  0
  1  2  2  0
  2  3  1  0
  4  2  1  6
  3  5  1  0
  4  6  1  0
  4  7  1  0
  5  8  2  0
  5  9  1  0
  6 10  1  0
  7 11  2  0
  7 12  1  0
  8 13  1  0
  9 14  1  0
 13 14  2  0
  9 15  1  0
 10 16  1  0
 11 16  1  0
 11 17  1  0
 12 18  2  0
 12 19  1  0
 15 20  1  0
 15 21  1  0
 20 21  1  0
 17 22  2  0
 18 22  1  0
 18 23  1  0
M  END
