RAL-MED-9a5eb9cb-10-chloroacetamide
     RDKit          3D

 25 26  0  0  0  0  0  0  0  0999 V2000
    7.4380   -3.0970   19.0650 C   0  0  0  0  0  0  0  0  0  0  0  0
    6.4980   -3.6130   20.1550 C   0  0  0  0  0  0  0  0  0  0  0  0
    5.5560   -4.3840   19.8940 O   0  0  0  0  0  0  0  0  0  0  0  0
    6.7410   -3.1420   21.4900 N   0  0  0  0  0  0  0  0  0  0  0  0
    7.0150   -1.7260   21.7770 C   0  0  0  0  0  0  0  0  0  0  0  0
    7.0640   -4.0540   22.6670 C   0  0  2  0  0  0  0  0  0  0  0  0
    8.4640   -1.2530   21.5700 C   0  0  0  0  0  0  0  0  0  0  0  0
    6.0130   -0.8650   22.2190 C   0  0  0  0  0  0  0  0  0  0  0  0
    7.3730   -5.4280   22.3520 C   0  0  0  0  0  0  0  0  0  0  0  0
    5.9190   -4.0460   23.7170 C   0  0  0  0  0  0  0  0  0  0  0  0
    8.7230    0.2330   21.8890 C   0  0  0  0  0  0  0  0  0  0  0  0
    6.3180    0.4690   22.4890 C   0  0  0  0  0  0  0  0  0  0  0  0
    6.8210   -6.0890   21.4760 O   0  0  0  0  0  0  0  0  0  0  0  0
    8.4550   -6.0070   23.2260 N   0  0  0  0  0  0  0  0  0  0  0  0
    6.9490   -3.3580   24.3710 C   0  0  0  0  0  0  0  0  0  0  0  0
    5.6660   -4.6570   22.5650 C   0  0  0  0  0  0  0  0  0  0  0  0
    7.5880    1.0580   22.3540 C   0  0  0  0  0  0  0  0  0  0  0  0
    8.3150   -7.2100   24.0180 C   0  0  0  0  0  0  0  0  0  0  0  0
    8.1140   -3.2830   23.5510 C   0  0  0  0  0  0  0  0  0  0  0  0
    6.8350   -4.5650   21.7820 N   0  0  0  0  0  0  0  0  0  0  0  0
    7.8960    2.5470   22.6660 C   0  0  0  0  0  0  0  0  0  0  0  0
    8.0420   -3.8900   22.2650 C   0  0  0  0  0  0  0  0  0  0  0  0
    7.3170    3.3690   21.7580 F   0  0  0  0  0  0  0  0  0  0  0  0
    7.4280    2.9290   23.8810 F   0  0  0  0  0  0  0  0  0  0  0  0
    9.2280    2.8090   22.6450 F   0  0  0  0  0  0  0  0  0  0  0  0
  1  2  1  0
  2  3  2  0
  2  4  1  0
  4  5  1  0
  4  6  1  0
  5  7  2  0
  5  8  1  0
  6  9  1  6
  6 10  1  0
  7 11  1  0
  8 12  2  0
  9 13  2  0
  9 14  1  0
 10 15  2  0
 10 16  1  0
 11 17  2  0
 12 17  1  0
 14 18  1  0
 15 19  1  0
 16 20  2  0
 17 21  1  0
 19 22  2  0
 20 22  1  0
 21 23  1  0
 21 24  1  0
 21 25  1  0
M  END
