RAL-THA-f8a0f917-3
     RDKit          3D

 23 26  0  0  0  0  0  0  0  0999 V2000
    8.4590   -0.0980   23.2440 C   0  0  0  0  0  0  0  0  0  0  0  0
    9.1740    1.0050   22.4570 C   0  0  1  0  0  0  0  0  0  0  0  0
    9.6860    2.0660   23.4190 C   0  0  0  0  0  0  0  0  0  0  0  0
   10.2450    0.4480   21.6800 O   0  0  0  0  0  0  0  0  0  0  0  0
   11.1410    1.9570   23.7500 C   0  0  2  0  0  0  0  0  0  0  0  0
   11.1010   -0.1440   22.5110 C   0  0  0  0  0  0  0  0  0  0  0  0
   11.9890    2.8980   22.9540 C   0  0  0  0  0  0  0  0  0  0  0  0
   11.5580    0.5240   23.5930 C   0  0  0  0  0  0  0  0  0  0  0  0
   11.4610   -1.4730   22.2080 C   0  0  0  0  0  0  0  0  0  0  0  0
   13.1330    2.5820   22.7240 O   0  0  0  0  0  0  0  0  0  0  0  0
   11.4250    4.1370   22.4840 N   0  0  0  0  0  0  0  0  0  0  0  0
   12.3460   -0.1780   24.4430 C   0  0  0  0  0  0  0  0  0  0  0  0
   12.2670   -2.1940   23.0580 C   0  0  0  0  0  0  0  0  0  0  0  0
   12.1510    5.1960   22.6540 C   0  0  0  0  0  0  0  0  0  0  0  0
   12.7370   -1.6380   24.2080 C   0  0  0  0  0  0  0  0  0  0  0  0
   13.4740    5.0650   22.5700 N   0  0  0  0  0  0  0  0  0  0  0  0
   11.7490    6.4600   22.9150 N   0  0  0  0  0  0  0  0  0  0  0  0
   13.7030   -2.5470   25.2840 Cl  0  0  0  0  0  0  0  0  0  0  0  0
   13.9390    6.3100   22.7970 N   0  0  0  0  0  0  0  0  0  0  0  0
   12.8710    7.1670   23.0220 C   0  0  0  0  0  0  0  0  0  0  0  0
   10.4410    6.9290   23.0440 C   0  0  0  0  0  0  0  0  0  0  0  0
   10.1080    7.6680   24.1830 C   0  0  0  0  0  0  0  0  0  0  0  0
    9.3960    6.5840   24.2780 C   0  0  0  0  0  0  0  0  0  0  0  0
  2  1  1  1
  2  3  1  0
  2  4  1  0
  3  5  1  0
  4  6  1  0
  5  7  1  6
  5  8  1  0
  6  8  2  0
  6  9  1  0
  7 10  2  0
  7 11  1  0
  8 12  1  0
  9 13  2  0
 11 14  1  0
 12 15  2  0
 13 15  1  0
 14 16  2  0
 14 17  1  0
 15 18  1  0
 16 19  1  0
 17 20  1  0
 19 20  2  0
 17 21  1  0
 21 22  1  0
 21 23  1  0
 22 23  1  0
M  END
