RAL-MED-9a5eb9cb-18-acrylamide
     RDKit          3D

 28 29  0  0  0  0  0  0  0  0999 V2000
    7.0520   -5.6120   21.3430 C   0  0  0  0  0  0  0  0  0  0  0  0
    5.5090   -5.8030   21.6590 C   0  0  0  0  0  0  0  0  0  0  0  0
    4.8530   -5.0530   22.8350 C   0  0  0  0  0  0  0  0  0  0  0  0
    3.7410   -4.6430   22.7390 O   0  0  0  0  0  0  0  0  0  0  0  0
    5.5910   -4.8200   23.8970 N   0  0  0  0  0  0  0  0  0  0  0  0
    6.4210   -3.9220   23.2800 C   0  0  0  0  0  0  0  0  0  0  0  0
    6.1050   -6.0280   24.2870 C   0  0  2  0  0  0  0  0  0  0  0  0
    7.9080   -4.1540   23.2710 C   0  0  0  0  0  0  0  0  0  0  0  0
    5.7330   -2.8850   22.6740 C   0  0  0  0  0  0  0  0  0  0  0  0
    6.3150   -6.6930   23.0660 C   0  0  0  0  0  0  0  0  0  0  0  0
    5.0050   -6.6780   25.1760 C   0  0  0  0  0  0  0  0  0  0  0  0
    8.5750   -3.1380   22.5020 C   0  0  0  0  0  0  0  0  0  0  0  0
    6.3820   -1.9430   21.9620 C   0  0  0  0  0  0  0  0  0  0  0  0
    4.4460   -7.7430   24.8710 O   0  0  0  0  0  0  0  0  0  0  0  0
    4.7450   -5.9270   26.2840 N   0  0  0  0  0  0  0  0  0  0  0  0
    7.7450   -2.0090   21.8310 C   0  0  0  0  0  0  0  0  0  0  0  0
    4.8790   -4.5260   26.2570 C   0  0  0  0  0  0  0  0  0  0  0  0
    8.3920   -1.0700   21.1080 C   0  0  0  0  0  0  0  0  0  0  0  0
    4.1460   -3.6180   25.4050 C   0  0  0  0  0  0  0  0  0  0  0  0
    5.8300   -3.9690   27.1480 C   0  0  0  0  0  0  0  0  0  0  0  0
    9.7180   -0.9850   21.2370 F   0  0  0  0  0  0  0  0  0  0  0  0
    7.9700    0.1670   21.4950 F   0  0  0  0  0  0  0  0  0  0  0  0
    8.0150   -1.1310   19.8050 F   0  0  0  0  0  0  0  0  0  0  0  0
    4.3350   -2.2450   25.4150 C   0  0  0  0  0  0  0  0  0  0  0  0
    6.0650   -2.4390   27.1850 C   0  0  0  0  0  0  0  0  0  0  0  0
    5.3410   -1.6120   26.3430 C   0  0  0  0  0  0  0  0  0  0  0  0
    5.4790   -0.1920   26.2900 O   0  0  0  0  0  0  0  0  0  0  0  0
    5.0250    0.3640   25.0490 C   0  0  0  0  0  0  0  0  0  0  0  0
  1  2  1  0
  2  3  1  0
  3  4  2  0
  3  5  1  0
  5  6  1  0
  5  7  1  0
  6  8  2  0
  6  9  1  0
  7 10  1  6
  7 11  1  0
  8 12  1  0
  9 13  2  0
 11 14  2  0
 11 15  1  0
 12 16  2  0
 13 16  1  0
 15 17  1  0
 16 18  1  0
 17 19  2  0
 17 20  1  0
 18 21  1  0
 18 22  1  0
 18 23  1  0
 19 24  1  0
 20 25  2  0
 24 26  2  0
 25 26  1  0
 26 27  1  0
 27 28  1  0
M  END
