RAL-MED-9a5eb9cb-7-vinylsulfonamide
     RDKit          3D

 24 25  0  0  0  0  0  0  0  0999 V2000
    7.2530   -2.7900   18.4520 C   0  0  0  0  0  0  0  0  0  0  0  0
    6.3570   -2.1930   19.5410 C   0  0  0  0  0  0  0  0  0  0  0  0
    5.8110   -3.3570   20.7540 S   0  0  0  0  0  0  0  0  0  0  0  0
    4.6250   -2.9190   21.3890 O   0  0  0  0  0  0  0  0  0  0  0  0
    5.7680   -4.7050   20.2100 O   0  0  0  0  0  0  0  0  0  0  0  0
    7.0140   -3.0720   21.9450 N   0  0  0  0  0  0  0  0  0  0  0  0
    6.5960   -2.1250   23.0300 C   0  0  2  0  0  0  0  0  0  0  0  0
    7.6940   -1.0370   23.3440 C   0  0  0  0  0  0  0  0  0  0  0  0
    6.0310   -2.6990   24.1970 C   0  0  0  0  0  0  0  0  0  0  0  0
    7.5970    0.1410   23.0060 O   0  0  0  0  0  0  0  0  0  0  0  0
    8.7990   -1.6430   24.0720 N   0  0  0  0  0  0  0  0  0  0  0  0
    5.8590   -3.7200   23.1410 C   0  0  0  0  0  0  0  0  0  0  0  0
    5.4110   -3.4630   25.2530 C   0  0  0  0  0  0  0  0  0  0  0  0
    8.7110   -2.9830   23.9630 C   0  0  0  0  0  0  0  0  0  0  0  0
    5.2690   -5.0280   23.1530 C   0  0  0  0  0  0  0  0  0  0  0  0
    4.7980   -4.7050   25.4680 N   0  0  0  0  0  0  0  0  0  0  0  0
    8.6250   -3.8270   25.1520 C   0  0  0  0  0  0  0  0  0  0  0  0
    8.6680   -3.5690   22.7020 C   0  0  0  0  0  0  0  0  0  0  0  0
    4.7360   -5.5250   24.3190 C   0  0  0  0  0  0  0  0  0  0  0  0
    8.4700   -5.3350   24.9180 C   0  0  0  0  0  0  0  0  0  0  0  0
    8.5150   -4.9250   22.5380 C   0  0  0  0  0  0  0  0  0  0  0  0
    8.4120   -5.7910   23.5960 C   0  0  0  0  0  0  0  0  0  0  0  0
    8.2650   -6.9250   23.2120 O   0  0  0  0  0  0  0  0  0  0  0  0
    7.0730   -7.0920   22.5710 C   0  0  0  0  0  0  0  0  0  0  0  0
  1  2  1  0
  2  3  1  0
  3  4  2  0
  3  5  2  0
  3  6  1  0
  7  6  1  6
  7  8  1  0
  7  9  1  0
  8 10  2  0
  8 11  1  0
  9 12  2  0
  9 13  1  0
 11 14  1  0
 12 15  1  0
 13 16  2  0
 14 17  2  0
 14 18  1  0
 15 19  2  0
 16 19  1  0
 17 20  1  0
 18 21  2  0
 20 22  2  0
 21 22  1  0
 22 23  1  0
 23 24  1  0
M  END
