RAL-THA-6ca1b233-1
     RDKit          3D

 23 26  0  0  0  0  0  0  0  0999 V2000
   13.0700   -2.6840   21.0930 C   0  0  0  0  0  0  0  0  0  0  0  0
   13.5860   -1.3970   21.7380 C   0  0  0  0  0  0  0  0  0  0  0  0
   12.4470   -0.8170   22.4950 C   0  0  0  0  0  0  0  0  0  0  0  0
   11.5650   -1.8180   23.2610 C   0  0  0  0  0  0  0  0  0  0  0  0
   12.1800    0.5220   22.4930 C   0  0  0  0  0  0  0  0  0  0  0  0
   10.2970   -1.6430   24.1210 C   0  0  0  0  0  0  0  0  0  0  0  0
   11.0950    0.7120   23.1860 C   0  0  0  0  0  0  0  0  0  0  0  0
   10.2090   -0.1580   23.9390 C   0  0  0  0  0  0  0  0  0  0  0  0
   11.0220    2.1780   22.9170 C   0  0  2  0  0  0  0  0  0  0  0  0
   12.0340    3.1360   22.8160 C   0  0  0  0  0  0  0  0  0  0  0  0
   10.1710    2.5170   24.0850 C   0  0  0  0  0  0  0  0  0  0  0  0
    9.2470    0.3190   24.5070 O   0  0  0  0  0  0  0  0  0  0  0  0
   13.2230    2.9060   22.7860 O   0  0  0  0  0  0  0  0  0  0  0  0
   11.5900    4.4300   22.7050 N   0  0  0  0  0  0  0  0  0  0  0  0
    8.9470    1.6460   24.0340 C   0  0  0  0  0  0  0  0  0  0  0  0
   12.2210    5.5840   22.9120 C   0  0  0  0  0  0  0  0  0  0  0  0
   13.4490    5.9110   22.6260 N   0  0  0  0  0  0  0  0  0  0  0  0
   11.6150    6.6730   23.4840 N   0  0  0  0  0  0  0  0  0  0  0  0
   13.6720    7.2150   23.0070 N   0  0  0  0  0  0  0  0  0  0  0  0
   12.5080    7.7520   23.6010 C   0  0  0  0  0  0  0  0  0  0  0  0
   10.3300    6.7210   23.8700 C   0  0  0  0  0  0  0  0  0  0  0  0
    9.8050    8.0820   23.7900 C   0  0  0  0  0  0  0  0  0  0  0  0
    9.2150    7.3040   22.7710 C   0  0  0  0  0  0  0  0  0  0  0  0
  1  2  3  0
  2  3  1  0
  3  4  2  0
  3  5  1  0
  4  6  1  0
  5  7  2  0
  6  8  2  0
  7  8  1  0
  7  9  1  0
  9 10  1  1
  9 11  1  0
  8 12  1  0
 10 13  2  0
 10 14  1  0
 11 15  1  0
 12 15  1  0
 14 16  1  0
 16 17  2  0
 16 18  1  0
 17 19  1  0
 18 20  1  0
 19 20  2  0
 18 21  1  0
 21 22  1  0
 21 23  1  0
 22 23  1  0
M  END
