RAM-SYN-2a37ce6c-1
     RDKit          3D

 40 44  0  0  0  0  0  0  0  0999 V2000
    5.3820    0.1430   23.5180 C   0  0  0  0  0  0  0  0  0  0  0  0
    4.8800    1.3840   23.0140 C   0  0  0  0  0  0  0  0  0  0  0  0
    5.5290    2.6820   23.5550 C   0  0  0  0  0  0  0  0  0  0  0  0
    3.6890    1.6170   23.2260 O   0  0  0  0  0  0  0  0  0  0  0  0
    5.1190    1.3620   21.4850 C   0  0  0  0  0  0  0  0  0  0  0  0
    3.8490    1.6750   20.6470 C   0  0  0  0  0  0  0  0  0  0  0  0
    6.3570    1.0850   20.8320 C   0  0  0  0  0  0  0  0  0  0  0  0
    4.0020    1.6670   19.1260 C   0  0  0  0  0  0  0  0  0  0  0  0
    6.4070    1.0940   19.4380 C   0  0  0  0  0  0  0  0  0  0  0  0
    7.6320    0.7740   21.6430 C   0  0  0  0  0  0  0  0  0  0  0  0
    5.3910    1.3480   18.5220 C   0  0  0  0  0  0  0  0  0  0  0  0
    8.1520    1.7160   22.5250 C   0  0  0  0  0  0  0  0  0  0  0  0
    8.3540    3.1010   21.9980 C   0  0  2  0  0  0  0  0  0  0  0  0
    9.6100    4.0780   22.6330 S   0  0  0  0  0  0  0  0  0  0  0  0
    7.0230    3.9050   21.9130 C   0  0  0  0  0  0  0  0  0  0  0  0
   11.2230    3.4530   22.1630 C   0  0  0  0  0  0  0  0  0  0  0  0
    6.0840    3.5210   21.2060 O   0  0  0  0  0  0  0  0  0  0  0  0
    6.8570    5.0920   22.6510 N   0  0  0  0  0  0  0  0  0  0  0  0
   12.1390    4.5180   21.5140 C   0  0  0  0  0  0  0  0  0  0  0  0
   11.9340    3.1090   23.2890 C   0  0  0  0  0  0  0  0  0  0  0  0
   11.7480    2.1240   22.6660 C   0  0  0  0  0  0  0  0  0  0  0  0
    5.7910    5.3100   23.6470 C   0  0  0  0  0  0  0  0  0  0  0  0
    7.3420    6.3320   22.0340 C   0  0  0  0  0  0  0  0  0  0  0  0
   13.6540    4.4030   21.7070 C   0  0  0  0  0  0  0  0  0  0  0  0
    5.8540    6.6050   24.2620 C   0  0  0  0  0  0  0  0  0  0  0  0
    7.8280    7.3430   23.0830 C   0  0  0  0  0  0  0  0  0  0  0  0
   14.5090    4.1810   20.5950 O   0  0  0  0  0  0  0  0  0  0  0  0
   14.1840    4.5630   23.0190 O   0  0  0  0  0  0  0  0  0  0  0  0
    7.2130    7.1380   24.4100 N   0  0  0  0  0  0  0  0  0  0  0  0
    8.0150    6.2780   25.3100 C   0  0  0  0  0  0  0  0  0  0  0  0
    7.4780    4.8790   25.5940 C   0  0  0  0  0  0  0  0  0  0  0  0
    8.7810    4.3610   24.8500 C   0  0  0  0  0  0  0  0  0  0  0  0
    7.6300    3.5740   25.4940 C   0  0  0  0  0  0  0  0  0  0  0  0
    9.0520    2.7530   24.6850 C   0  0  0  0  0  0  0  0  0  0  0  0
    7.0510    2.4040   25.8170 C   0  0  0  0  0  0  0  0  0  0  0  0
    8.0400    1.7220   25.2560 C   0  0  0  0  0  0  0  0  0  0  0  0
    5.9350    1.8500   26.4480 C   0  0  0  0  0  0  0  0  0  0  0  0
    8.1140    0.3090   25.2170 C   0  0  0  0  0  0  0  0  0  0  0  0
    5.9010    0.3110   26.4700 C   0  0  0  0  0  0  0  0  0  0  0  0
    7.0830   -0.4390   25.8030 C   0  0  0  0  0  0  0  0  0  0  0  0
  1  2  1  0
  2  3  1  0
  2  4  1  0
  2  5  1  0
  5  6  2  0
  5  7  1  0
  6  8  1  0
  7  9  2  0
  7 10  1  0
  8 11  2  0
  9 11  1  0
 10 12  1  0
 13 12  1  1
 13 14  1  0
 13 15  1  0
 16 14  1  0
 15 17  2  0
 15 18  1  0
 16 19  1  0
 16 20  1  0
 16 21  1  0
 20 21  1  0
 18 22  1  0
 18 23  1  0
 19 24  1  0
 22 25  1  0
 23 26  1  0
 24 27  2  0
 24 28  1  0
 25 29  1  0
 26 29  1  0
 29 30  1  0
 30 31  1  0
 31 32  2  0
 31 33  1  0
 32 34  1  0
 33 35  2  0
 34 36  2  0
 35 36  1  0
 35 37  1  0
 36 38  1  0
 37 39  2  0
 38 40  2  0
 39 40  1  0
M  END
