RED-SAT-26a928c9-1
     RDKit          3D

 26 28  0  0  0  0  0  0  0  0999 V2000
   26.4300  -18.7620   25.5970 C   0  0  0  0  0  0  0  0  0  0  0  0
   26.7780  -17.6120   26.1960 C   0  0  0  0  0  0  0  0  0  0  0  0
   27.9400  -17.6240   27.2080 C   0  0  0  0  0  0  0  0  0  0  0  0
   26.0280  -16.4310   25.8490 C   0  0  0  0  0  0  0  0  0  0  0  0
   28.3240  -16.3280   27.8800 C   0  0  0  0  0  0  0  0  0  0  0  0
   26.6230  -15.2510   26.6760 C   0  0  0  0  0  0  0  0  0  0  0  0
   25.2960  -16.9140   25.0860 N   0  0  0  0  0  0  0  0  0  0  0  0
   27.6690  -15.1970   27.6020 N   0  0  0  0  0  0  0  0  0  0  0  0
   23.9040  -16.8310   25.1670 C   0  0  0  0  0  0  0  0  0  0  0  0
   23.3080  -16.1720   26.0150 O   0  0  0  0  0  0  0  0  0  0  0  0
   23.1150  -17.5090   24.2250 C   0  0  0  0  0  0  0  0  0  0  0  0
   23.5510  -18.9080   24.2180 N   0  0  0  0  0  0  0  0  0  0  0  0
   22.7250  -19.9010   24.6990 C   0  0  0  0  0  0  0  0  0  0  0  0
   24.0200  -19.2780   22.8570 C   0  0  0  0  0  0  0  0  0  0  0  0
   22.6290  -20.9620   23.8180 C   0  0  0  0  0  0  0  0  0  0  0  0
   24.2420  -20.6550   22.5880 C   0  0  0  0  0  0  0  0  0  0  0  0
   23.0540  -21.4790   22.8990 N   0  0  0  0  0  0  0  0  0  0  0  0
   22.4210  -22.3320   21.8740 C   0  0  0  0  0  0  0  0  0  0  0  0
   21.4020  -22.9710   22.0850 O   0  0  0  0  0  0  0  0  0  0  0  0
   23.1220  -22.2690   20.5710 N   0  0  0  0  0  0  0  0  0  0  0  0
   22.6300  -23.1450   19.5030 C   0  0  0  0  0  0  0  0  0  0  0  0
   22.3750  -24.5140   19.9050 C   0  0  0  0  0  0  0  0  0  0  0  0
   22.4390  -22.6710   18.1860 C   0  0  0  0  0  0  0  0  0  0  0  0
   21.9160  -25.4910   18.9560 C   0  0  0  0  0  0  0  0  0  0  0  0
   21.9600  -23.6850   17.1810 C   0  0  0  0  0  0  0  0  0  0  0  0
   21.7110  -25.1140   17.6070 C   0  0  0  0  0  0  0  0  0  0  0  0
  1  2  1  0
  2  3  2  0
  2  4  1  0
  3  5  1  0
  4  6  2  0
  4  7  1  0
  5  8  2  0
  6  8  1  0
  7  9  1  0
  9 10  2  0
  9 11  1  0
 11 12  1  0
 12 13  1  0
 12 14  1  0
 13 15  1  0
 14 16  1  0
 15 17  1  0
 16 17  1  0
 17 18  1  0
 18 19  2  0
 18 20  1  0
 20 21  1  0
 21 22  2  0
 21 23  1  0
 22 24  1  0
 23 25  2  0
 24 26  2  0
 25 26  1  0
M  END
