RIC-ARG-a8e88843-8
     RDKit          3D

 24 26  0  0  0  0  0  0  0  0999 V2000
   12.3950    2.7050   22.5620 O   0  0  0  0  0  0  0  0  0  0  0  0
   11.4710    2.3470   23.2800 C   0  0  0  0  0  0  0  0  0  0  0  0
   10.3820    3.1640   23.5230 N   0  0  0  0  0  0  0  0  0  0  0  0
   11.5260    1.0650   23.8960 N   0  0  0  0  0  0  0  0  0  0  0  0
   10.4100    4.5660   23.6540 C   0  0  0  0  0  0  0  0  0  0  0  0
   10.3770    0.1850   24.3680 C   0  0  0  0  0  0  0  0  0  0  0  0
   12.6900    0.2330   23.3980 C   0  0  0  0  0  0  0  0  0  0  0  0
    9.5250    5.5040   23.0630 C   0  0  0  0  0  0  0  0  0  0  0  0
   11.2750    5.3670   24.3740 C   0  0  0  0  0  0  0  0  0  0  0  0
   10.0660   -1.1760   23.5640 C   0  0  0  0  0  0  0  0  0  0  0  0
   12.6970   -0.9940   24.2580 C   0  0  0  0  0  0  0  0  0  0  0  0
    9.8040    6.7730   23.3950 N   0  0  0  0  0  0  0  0  0  0  0  0
   10.8760    6.6540   24.2050 N   0  0  0  0  0  0  0  0  0  0  0  0
   10.8350   -1.6640   22.2240 C   0  0  0  0  0  0  0  0  0  0  0  0
   13.3480   -2.3150   24.2220 C   0  0  0  0  0  0  0  0  0  0  0  0
   11.3910   -1.3930   24.1800 F   0  0  0  0  0  0  0  0  0  0  0  0
   12.9570   -0.5340   25.5100 F   0  0  0  0  0  0  0  0  0  0  0  0
   11.5500    7.7850   24.8500 C   0  0  0  0  0  0  0  0  0  0  0  0
   12.4220   -1.6950   21.9980 C   0  0  0  0  0  0  0  0  0  0  0  0
   13.3300   -2.5320   22.8410 N   0  0  0  0  0  0  0  0  0  0  0  0
   13.7790   -3.0270   25.1140 O   0  0  0  0  0  0  0  0  0  0  0  0
   11.8030    7.5650   26.3460 C   0  0  0  0  0  0  0  0  0  0  0  0
   10.6040    8.8790   25.3650 C   0  0  0  0  0  0  0  0  0  0  0  0
   10.5590    8.2470   26.6720 O   0  0  0  0  0  0  0  0  0  0  0  0
  1  2  2  0
  2  3  1  0
  2  4  1  0
  3  5  1  0
  4  6  1  0
  4  7  1  0
  5  8  1  0
  5  9  2  0
  6 10  1  0
  7 11  1  0
  8 12  2  0
  9 13  1  0
 12 13  1  0
 10 14  1  0
 11 15  1  0
 11 16  1  0
 11 17  1  0
 13 18  1  0
 14 19  1  0
 15 20  1  0
 19 20  1  0
 15 21  2  0
 18 22  1  0
 18 23  1  0
 22 24  1  0
 23 24  1  0
M  END
