RUT-UNI-630c5802-14
     RDKit          3D

 32 35  0  0  0  0  0  0  0  0999 V2000
   12.2020    4.4520   20.6080 O   0  0  0  0  0  0  0  0  0  0  0  0
   12.7640    4.2730   21.6440 C   0  0  0  0  0  0  0  0  0  0  0  0
   12.1760    3.9090   22.9030 N   0  0  0  0  0  0  0  0  0  0  0  0
   14.2340    4.3620   21.6780 C   0  0  0  0  0  0  0  0  0  0  0  0
   11.4240    2.7950   23.0040 C   0  0  0  0  0  0  0  0  0  0  0  0
   15.0590    4.1420   20.4450 C   0  0  0  0  0  0  0  0  0  0  0  0
   14.8400    4.6320   22.8730 C   0  0  0  0  0  0  0  0  0  0  0  0
   11.8730    1.4920   23.3100 C   0  0  0  0  0  0  0  0  0  0  0  0
   10.0640    2.9700   22.7710 C   0  0  0  0  0  0  0  0  0  0  0  0
   16.5170    4.2000   20.6140 C   0  0  0  0  0  0  0  0  0  0  0  0
   16.2190    4.6790   23.0290 C   0  0  0  0  0  0  0  0  0  0  0  0
   10.9950    0.4170   23.3800 C   0  0  0  0  0  0  0  0  0  0  0  0
    9.1760    1.9050   22.8390 C   0  0  0  0  0  0  0  0  0  0  0  0
   17.0700    4.4710   21.9920 C   0  0  0  0  0  0  0  0  0  0  0  0
    9.6240    0.6140   23.1440 C   0  0  0  0  0  0  0  0  0  0  0  0
    8.8250   -0.4600   23.2230 N   0  0  0  0  0  0  0  0  0  0  0  0
    9.0420   -1.3700   24.2010 C   0  0  0  0  0  0  0  0  0  0  0  0
    7.4800   -0.0830   22.7530 C   0  0  0  0  0  0  0  0  0  0  0  0
    8.1150   -2.6020   24.1160 C   0  0  0  0  0  0  0  0  0  0  0  0
    6.8260    0.8280   23.2600 O   0  0  0  0  0  0  0  0  0  0  0  0
    6.9630   -0.9370   21.5580 C   0  0  0  0  0  0  0  0  0  0  0  0
    8.3460   -3.6680   23.0490 C   0  0  0  0  0  0  0  0  0  0  0  0
    7.1250   -2.8990   24.8340 O   0  0  0  0  0  0  0  0  0  0  0  0
    6.2790   -0.1690   20.3910 C   0  0  0  0  0  0  0  0  0  0  0  0
    7.3140   -4.7490   23.1940 C   0  0  0  0  0  0  0  0  0  0  0  0
    6.5790   -4.1150   24.4000 C   0  0  0  0  0  0  0  0  0  0  0  0
    4.9930    0.6740   20.5040 C   0  0  0  0  0  0  0  0  0  0  0  0
    6.8800   -0.2340   19.0990 C   0  0  0  0  0  0  0  0  0  0  0  0
    7.1600   -5.8650   22.4650 F   0  0  0  0  0  0  0  0  0  0  0  0
    4.4460    1.3790   19.2670 C   0  0  0  0  0  0  0  0  0  0  0  0
    6.3470    0.4350   17.9780 N   0  0  0  0  0  0  0  0  0  0  0  0
    5.1400    1.2350   18.0610 C   0  0  0  0  0  0  0  0  0  0  0  0
  1  2  2  0
  2  3  1  0
  2  4  1  0
  3  5  1  0
  4  6  2  0
  4  7  1  0
  5  8  2  0
  5  9  1  0
  6 10  1  0
  7 11  2  0
  8 12  1  0
  9 13  2  0
 10 14  2  0
 11 14  1  0
 12 15  2  0
 13 15  1  0
 15 16  1  0
 16 17  1  0
 16 18  1  0
 17 19  1  0
 18 20  2  0
 18 21  1  0
 19 22  2  0
 19 23  1  0
 21 24  1  0
 22 25  1  0
 23 26  1  0
 25 26  2  0
 24 27  2  0
 24 28  1  0
 25 29  1  0
 27 30  1  0
 28 31  2  0
 30 32  2  0
 31 32  1  0
M  END
