RUT-UNI-630c5802-5
     RDKit          3D

 35 39  0  0  0  0  0  0  0  0999 V2000
    6.9260   -6.0980   22.6890 C   0  0  0  0  0  0  0  0  0  0  0  0
    6.7150   -4.6910   22.4270 N   0  0  0  0  0  0  0  0  0  0  0  0
    5.7310   -4.1620   21.7330 C   0  0  0  0  0  0  0  0  0  0  0  0
    7.4730   -3.5710   22.8280 C   0  0  0  0  0  0  0  0  0  0  0  0
    5.7530   -2.8120   21.6290 C   0  0  0  0  0  0  0  0  0  0  0  0
    6.8640   -2.3690   22.3200 C   0  0  0  0  0  0  0  0  0  0  0  0
    7.2370   -1.0240   22.4510 C   0  0  0  0  0  0  0  0  0  0  0  0
    7.7460   -0.4800   21.3320 N   0  0  0  0  0  0  0  0  0  0  0  0
    8.7150    0.4300   21.5850 C   0  0  0  0  0  0  0  0  0  0  0  0
    6.7640    0.1870   20.4540 C   0  0  0  0  0  0  0  0  0  0  0  0
    8.6950    1.6980   21.0540 O   0  0  0  0  0  0  0  0  0  0  0  0
    9.8860    0.0990   22.4730 C   0  0  0  0  0  0  0  0  0  0  0  0
    6.9140    0.1380   18.9110 C   0  0  0  0  0  0  0  0  0  0  0  0
    5.6970    0.8980   20.9580 C   0  0  0  0  0  0  0  0  0  0  0  0
   10.5650   -0.2570   23.3030 N   0  0  0  0  0  0  0  0  0  0  0  0
    5.9660    0.8370   18.1240 C   0  0  0  0  0  0  0  0  0  0  0  0
    4.7890    1.5660   20.1890 C   0  0  0  0  0  0  0  0  0  0  0  0
   10.4560    0.1260   24.5870 N   0  0  0  0  0  0  0  0  0  0  0  0
   11.6080   -1.1240   23.1680 C   0  0  0  0  0  0  0  0  0  0  0  0
    4.8500    1.5960   18.8150 C   0  0  0  0  0  0  0  0  0  0  0  0
   11.4200   -0.4900   25.2780 N   0  0  0  0  0  0  0  0  0  0  0  0
   12.1470   -1.2670   24.4580 C   0  0  0  0  0  0  0  0  0  0  0  0
   12.1300   -1.7900   22.0770 C   0  0  0  0  0  0  0  0  0  0  0  0
    3.8490    2.3520   18.3330 N   0  0  0  0  0  0  0  0  0  0  0  0
   13.3210   -2.1640   24.7060 C   0  0  0  0  0  0  0  0  0  0  0  0
   13.2000   -2.6140   22.2310 C   0  0  0  0  0  0  0  0  0  0  0  0
    3.2680    3.1400   19.2610 C   0  0  0  0  0  0  0  0  0  0  0  0
   13.8110   -2.8370   23.4510 C   0  0  0  0  0  0  0  0  0  0  0  0
    3.8710    3.9900   19.9040 O   0  0  0  0  0  0  0  0  0  0  0  0
    1.9250    3.0430   19.6040 C   0  0  0  0  0  0  0  0  0  0  0  0
    1.4660    1.9670   20.3300 C   0  0  0  0  0  0  0  0  0  0  0  0
    0.9890    4.0160   19.2440 C   0  0  0  0  0  0  0  0  0  0  0  0
    0.0300    1.7920   20.7490 C   0  0  0  0  0  0  0  0  0  0  0  0
   -0.3640    3.9730   19.5700 C   0  0  0  0  0  0  0  0  0  0  0  0
   -0.8990    2.8950   20.3170 C   0  0  0  0  0  0  0  0  0  0  0  0
  1  2  1  0
  2  3  1  0
  2  4  1  0
  3  5  2  0
  4  6  2  0
  5  6  1  0
  6  7  1  0
  7  8  1  0
  8  9  1  0
  8 10  1  0
  9 11  2  0
  9 12  1  0
 10 13  2  0
 10 14  1  0
 12 15  1  0
 13 16  1  0
 14 17  2  0
 15 18  1  0
 15 19  1  0
 16 20  2  0
 17 20  1  0
 18 21  2  0
 19 22  2  0
 21 22  1  0
 19 23  1  0
 20 24  1  0
 22 25  1  0
 23 26  2  0
 24 27  1  0
 25 28  2  0
 26 28  1  0
 27 29  2  0
 27 30  1  0
 30 31  2  0
 30 32  1  0
 31 33  1  0
 32 34  2  0
 33 35  2  0
 34 35  1  0
M  END
