RUT-UNI-630c5802-23
     RDKit          3D

 30 33  0  0  0  0  0  0  0  0999 V2000
   14.1060   -2.9750   23.4690 N   0  0  0  0  0  0  0  0  0  0  0  0
   12.9800   -2.3180   23.3580 C   0  0  0  0  0  0  0  0  0  0  0  0
   12.2920   -1.9120   24.5720 C   0  0  0  0  0  0  0  0  0  0  0  0
   12.3900   -2.0030   22.1480 C   0  0  0  0  0  0  0  0  0  0  0  0
   11.1000   -1.2660   24.4660 C   0  0  0  0  0  0  0  0  0  0  0  0
   11.1590   -1.3260   22.1140 C   0  0  0  0  0  0  0  0  0  0  0  0
   10.5050   -0.9550   23.2850 C   0  0  0  0  0  0  0  0  0  0  0  0
    9.3010   -0.3030   23.3270 C   0  0  0  0  0  0  0  0  0  0  0  0
    8.8070    0.1010   22.1160 C   0  0  0  0  0  0  0  0  0  0  0  0
    9.0030    1.5740   21.8040 C   0  0  0  0  0  0  0  0  0  0  0  0
   10.1220    2.2800   22.1810 O   0  0  0  0  0  0  0  0  0  0  0  0
    7.9890    2.0990   21.1700 N   0  0  0  0  0  0  0  0  0  0  0  0
    7.2130    0.9090   20.7720 C   0  0  0  0  0  0  0  0  0  0  0  0
    7.2060    3.2470   21.7260 C   0  0  0  0  0  0  0  0  0  0  0  0
    5.8570    1.1830   20.1950 C   0  0  0  0  0  0  0  0  0  0  0  0
    6.0110    3.4030   21.4810 O   0  0  0  0  0  0  0  0  0  0  0  0
    8.0240    4.2170   22.6350 C   0  0  0  0  0  0  0  0  0  0  0  0
    5.8110    0.5440   18.8290 C   0  0  0  0  0  0  0  0  0  0  0  0
    4.5610    1.9040   20.6150 C   0  0  0  0  0  0  0  0  0  0  0  0
    7.2880    4.7140   23.6750 N   0  0  0  0  0  0  0  0  0  0  0  0
    4.4720    0.8030   18.2600 C   0  0  0  0  0  0  0  0  0  0  0  0
    3.3740    1.7350   19.2700 S   0  0  0  0  0  0  0  0  0  0  0  0
    6.1010    5.3290   23.4290 N   0  0  0  0  0  0  0  0  0  0  0  0
    7.5580    4.6970   24.9960 C   0  0  0  0  0  0  0  0  0  0  0  0
    5.5930    5.7150   24.5970 N   0  0  0  0  0  0  0  0  0  0  0  0
    6.4620    5.3380   25.5380 C   0  0  0  0  0  0  0  0  0  0  0  0
    8.5560    4.2440   25.8390 C   0  0  0  0  0  0  0  0  0  0  0  0
    6.3630    5.5260   26.9500 C   0  0  0  0  0  0  0  0  0  0  0  0
    8.5100    4.4000   27.2150 C   0  0  0  0  0  0  0  0  0  0  0  0
    7.4630    5.0240   27.8810 C   0  0  0  0  0  0  0  0  0  0  0  0
  1  2  1  0
  2  3  2  0
  2  4  1  0
  3  5  1  0
  4  6  2  0
  5  7  2  0
  6  7  1  0
  7  8  1  0
  8  9  1  0
  9 10  1  0
 10 11  2  0
 10 12  1  0
 12 13  1  0
 12 14  1  0
 13 15  1  0
 14 16  2  0
 14 17  1  0
 15 18  1  0
 15 19  2  0
 17 20  1  0
 18 21  2  0
 19 22  1  0
 21 22  1  0
 20 23  1  0
 20 24  1  0
 23 25  2  0
 24 26  2  0
 25 26  1  0
 24 27  1  0
 26 28  1  0
 27 29  2  0
 28 30  2  0
 29 30  1  0
M  END
