RUT-UNI-630c5802-8
     RDKit          3D

 33 36  0  0  0  0  0  0  0  0999 V2000
    6.2780   -6.3870   22.4010 C   0  0  0  0  0  0  0  0  0  0  0  0
    7.2200   -5.3850   22.8400 N   0  0  0  0  0  0  0  0  0  0  0  0
    8.4490   -5.5920   23.2530 C   0  0  0  0  0  0  0  0  0  0  0  0
    7.0760   -3.9890   22.9380 C   0  0  0  0  0  0  0  0  0  0  0  0
    9.1320   -4.4830   23.6070 C   0  0  0  0  0  0  0  0  0  0  0  0
    8.2950   -3.4090   23.4290 C   0  0  0  0  0  0  0  0  0  0  0  0
    8.6510   -2.0790   23.6970 C   0  0  0  0  0  0  0  0  0  0  0  0
    9.1330   -1.4900   22.6070 N   0  0  0  0  0  0  0  0  0  0  0  0
    8.2640   -0.8320   21.7920 C   0  0  0  0  0  0  0  0  0  0  0  0
   10.3370   -0.6800   22.7130 C   0  0  0  0  0  0  0  0  0  0  0  0
    8.6130    0.3850   21.2400 O   0  0  0  0  0  0  0  0  0  0  0  0
    6.8730   -1.3420   21.4240 C   0  0  0  0  0  0  0  0  0  0  0  0
   10.0590    0.6880   23.3120 C   0  0  0  0  0  0  0  0  0  0  0  0
   11.6470   -0.9700   22.3130 C   0  0  0  0  0  0  0  0  0  0  0  0
    6.3220   -0.4050   20.3340 C   0  0  0  0  0  0  0  0  0  0  0  0
   11.1930    1.6750   23.3900 C   0  0  0  0  0  0  0  0  0  0  0  0
   12.6580   -0.0020   22.4140 C   0  0  0  0  0  0  0  0  0  0  0  0
    5.1020    0.5200   20.5220 C   0  0  0  0  0  0  0  0  0  0  0  0
    6.9250   -0.2720   18.9300 C   0  0  0  0  0  0  0  0  0  0  0  0
   12.4560    1.3120   22.9090 C   0  0  0  0  0  0  0  0  0  0  0  0
    4.6540    1.4280   19.3600 C   0  0  0  0  0  0  0  0  0  0  0  0
    6.5350    0.5360   17.8800 N   0  0  0  0  0  0  0  0  0  0  0  0
   13.4490    2.1760   22.8840 N   0  0  0  0  0  0  0  0  0  0  0  0
    5.4330    1.3900   18.0430 C   0  0  0  0  0  0  0  0  0  0  0  0
   13.1510    3.3910   22.3370 C   0  0  0  0  0  0  0  0  0  0  0  0
    5.0270    2.2170   17.0300 N   0  0  0  0  0  0  0  0  0  0  0  0
   12.1350    4.0520   22.5610 O   0  0  0  0  0  0  0  0  0  0  0  0
   14.1510    3.9850   21.3600 C   0  0  0  0  0  0  0  0  0  0  0  0
   15.4420    3.6720   21.5590 C   0  0  0  0  0  0  0  0  0  0  0  0
   13.9410    4.8190   20.2580 C   0  0  0  0  0  0  0  0  0  0  0  0
   16.4810    4.0910   20.7830 C   0  0  0  0  0  0  0  0  0  0  0  0
   15.0800    5.2140   19.4920 C   0  0  0  0  0  0  0  0  0  0  0  0
   16.3060    4.9000   19.6810 C   0  0  0  0  0  0  0  0  0  0  0  0
  1  2  1  0
  2  3  1  0
  2  4  1  0
  3  5  2  0
  4  6  2  0
  5  6  1  0
  6  7  1  0
  7  8  1  0
  8  9  1  0
  8 10  1  0
  9 11  2  0
  9 12  1  0
 10 13  2  0
 10 14  1  0
 12 15  1  0
 13 16  1  0
 14 17  2  0
 15 18  2  0
 15 19  1  0
 16 20  2  0
 17 20  1  0
 18 21  1  0
 19 22  2  0
 20 23  1  0
 21 24  2  0
 22 24  1  0
 23 25  1  0
 24 26  1  0
 25 27  2  0
 25 28  1  0
 28 29  2  0
 28 30  1  0
 29 31  1  0
 30 32  2  0
 31 33  2  0
 32 33  1  0
M  END
