RUT-UNI-630c5802-20
     RDKit          3D

 26 28  0  0  0  0  0  0  0  0999 V2000
    3.2080    2.9370   19.1170 C   0  0  0  0  0  0  0  0  0  0  0  0
    3.3240    1.4540   19.2540 C   0  0  0  0  0  0  0  0  0  0  0  0
    4.4790    0.8880   19.7130 C   0  0  0  0  0  0  0  0  0  0  0  0
    4.7180   -0.4530   19.7640 C   0  0  0  0  0  0  0  0  0  0  0  0
    4.6820    1.3650   21.1230 C   0  0  0  0  0  0  0  0  0  0  0  0
    5.6000    1.2990   18.7730 C   0  0  0  0  0  0  0  0  0  0  0  0
    6.9330    1.0410   19.4170 C   0  0  0  0  0  0  0  0  0  0  0  0
    6.9300   -0.0850   20.1610 N   0  0  0  0  0  0  0  0  0  0  0  0
    6.9900   -1.2830   19.4000 C   0  0  0  0  0  0  0  0  0  0  0  0
    7.2400   -0.1250   21.5940 C   0  0  0  0  0  0  0  0  0  0  0  0
    7.2060   -0.9610   17.9430 C   0  0  0  0  0  0  0  0  0  0  0  0
    6.4950   -0.5020   22.4990 O   0  0  0  0  0  0  0  0  0  0  0  0
    8.6520    0.3730   21.8210 C   0  0  0  0  0  0  0  0  0  0  0  0
    6.9780   -2.2100   17.1520 C   0  0  0  0  0  0  0  0  0  0  0  0
    7.5740    0.2770   17.1650 C   0  0  0  0  0  0  0  0  0  0  0  0
    9.5220   -0.6660   21.9270 N   0  0  0  0  0  0  0  0  0  0  0  0
    7.2330   -1.7990   15.7440 C   0  0  0  0  0  0  0  0  0  0  0  0
    7.7090   -0.1550   15.4690 S   0  0  0  0  0  0  0  0  0  0  0  0
    9.2310   -1.8520   21.3860 N   0  0  0  0  0  0  0  0  0  0  0  0
   10.7150   -0.6640   22.5460 C   0  0  0  0  0  0  0  0  0  0  0  0
   10.2770   -2.6440   21.6630 N   0  0  0  0  0  0  0  0  0  0  0  0
   11.1520   -1.9290   22.3560 C   0  0  0  0  0  0  0  0  0  0  0  0
   11.4560    0.2340   23.2280 C   0  0  0  0  0  0  0  0  0  0  0  0
   12.3940   -2.3270   22.8780 C   0  0  0  0  0  0  0  0  0  0  0  0
   12.6660   -0.1070   23.7670 C   0  0  0  0  0  0  0  0  0  0  0  0
   13.2260   -1.3590   23.6550 C   0  0  0  0  0  0  0  0  0  0  0  0
  1  2  1  0
  3  2  1  0
  3  4  1  0
  3  5  1  0
  3  6  1  0
  6  7  1  0
  7  8  1  0
  8  9  1  0
  8 10  1  0
  9 11  1  0
 10 12  2  0
 10 13  1  0
 11 14  1  0
 11 15  2  0
 13 16  1  0
 14 17  2  0
 15 18  1  0
 17 18  1  0
 16 19  1  0
 16 20  1  0
 19 21  2  0
 20 22  2  0
 21 22  1  0
 20 23  1  0
 22 24  1  0
 23 25  2  0
 24 26  2  0
 25 26  1  0
M  END
