RUT-UNI-630c5802-15
     RDKit          3D

 33 36  0  0  0  0  0  0  0  0999 V2000
   10.1210   -0.0530   25.6160 C   0  0  0  0  0  0  0  0  0  0  0  0
   11.0300   -0.5940   24.5610 C   0  0  0  0  0  0  0  0  0  0  0  0
   12.3200   -1.1180   24.7440 C   0  0  0  0  0  0  0  0  0  0  0  0
   10.5420   -0.5830   23.2740 C   0  0  0  0  0  0  0  0  0  0  0  0
   13.0900   -1.6330   23.7230 C   0  0  0  0  0  0  0  0  0  0  0  0
   11.4460   -1.1840   22.2000 C   0  0  0  0  0  0  0  0  0  0  0  0
    9.1460    0.0460   23.1290 C   0  0  0  0  0  0  0  0  0  0  0  0
   12.6860   -1.6920   22.4380 N   0  0  0  0  0  0  0  0  0  0  0  0
    8.2710   -0.2650   21.9200 C   0  0  0  0  0  0  0  0  0  0  0  0
    8.6320    0.6310   21.1530 O   0  0  0  0  0  0  0  0  0  0  0  0
    7.4300   -0.7900   21.3280 N   0  0  0  0  0  0  0  0  0  0  0  0
    6.5600   -1.5010   22.2970 C   0  0  0  0  0  0  0  0  0  0  0  0
    6.6330    0.0660   20.3890 C   0  0  0  0  0  0  0  0  0  0  0  0
    6.7650   -3.0300   22.4970 C   0  0  0  0  0  0  0  0  0  0  0  0
    7.0510    0.1240   18.9120 C   0  0  0  0  0  0  0  0  0  0  0  0
    5.5160    0.8430   20.7340 C   0  0  0  0  0  0  0  0  0  0  0  0
    5.6840   -3.9010   21.8810 C   0  0  0  0  0  0  0  0  0  0  0  0
    7.6560   -3.7460   23.0850 O   0  0  0  0  0  0  0  0  0  0  0  0
    6.3300    0.9370   18.0210 C   0  0  0  0  0  0  0  0  0  0  0  0
    4.8220    1.6260   19.8220 C   0  0  0  0  0  0  0  0  0  0  0  0
    6.0070   -5.3260   22.1610 C   0  0  0  0  0  0  0  0  0  0  0  0
    7.3190   -5.1170   22.9560 C   0  0  0  0  0  0  0  0  0  0  0  0
    5.1640    1.7230   18.4830 C   0  0  0  0  0  0  0  0  0  0  0  0
    5.3560   -6.4310   21.8280 F   0  0  0  0  0  0  0  0  0  0  0  0
    4.5530    2.4670   17.5040 N   0  0  0  0  0  0  0  0  0  0  0  0
    3.8470    3.7030   17.6980 C   0  0  0  0  0  0  0  0  0  0  0  0
    3.8380    4.5940   16.8470 O   0  0  0  0  0  0  0  0  0  0  0  0
    3.0920    3.8690   18.8500 C   0  0  0  0  0  0  0  0  0  0  0  0
    2.8990    5.1370   19.3740 C   0  0  0  0  0  0  0  0  0  0  0  0
    2.5300    2.7440   19.4670 C   0  0  0  0  0  0  0  0  0  0  0  0
    2.0700    5.3150   20.6270 C   0  0  0  0  0  0  0  0  0  0  0  0
    1.7590    2.8250   20.6160 C   0  0  0  0  0  0  0  0  0  0  0  0
    1.4960    4.0610   21.2350 C   0  0  0  0  0  0  0  0  0  0  0  0
  1  2  1  0
  2  3  2  0
  2  4  1  0
  3  5  1  0
  4  6  2  0
  4  7  1  0
  5  8  2  0
  6  8  1  0
  7  9  1  0
  9 10  2  0
  9 11  1  0
 11 12  1  0
 11 13  1  0
 12 14  1  0
 13 15  2  0
 13 16  1  0
 14 17  2  0
 14 18  1  0
 15 19  1  0
 16 20  2  0
 17 21  1  0
 18 22  1  0
 21 22  2  0
 19 23  2  0
 20 23  1  0
 21 24  1  0
 23 25  1  0
 25 26  1  0
 26 27  2  0
 26 28  1  0
 28 29  2  0
 28 30  1  0
 29 31  1  0
 30 32  2  0
 31 33  2  0
 32 33  1  0
M  END
