RUT-UNI-630c5802-16
     RDKit          3D

 33 36  0  0  0  0  0  0  0  0999 V2000
   13.9230   -2.6650   23.7900 N   0  0  0  0  0  0  0  0  0  0  0  0
   12.8140   -1.9360   23.6150 C   0  0  0  0  0  0  0  0  0  0  0  0
   12.2870   -1.0750   24.6880 C   0  0  0  0  0  0  0  0  0  0  0  0
   12.1260   -2.0020   22.4100 N   0  0  0  0  0  0  0  0  0  0  0  0
   11.1130   -0.3970   24.4660 C   0  0  0  0  0  0  0  0  0  0  0  0
   10.9700   -1.2940   22.2790 C   0  0  0  0  0  0  0  0  0  0  0  0
   10.4060   -0.4790   23.2790 C   0  0  0  0  0  0  0  0  0  0  0  0
    9.1980    0.2220   23.1550 C   0  0  0  0  0  0  0  0  0  0  0  0
    8.6810    0.4480   21.8630 C   0  0  0  0  0  0  0  0  0  0  0  0
    9.1830    1.5130   21.1510 O   0  0  0  0  0  0  0  0  0  0  0  0
    7.6110   -0.3280   21.3440 N   0  0  0  0  0  0  0  0  0  0  0  0
    6.7030   -0.9230   22.1690 C   0  0  0  0  0  0  0  0  0  0  0  0
    6.8900    0.2930   20.2020 C   0  0  0  0  0  0  0  0  0  0  0  0
    6.8150   -2.4460   22.4290 C   0  0  0  0  0  0  0  0  0  0  0  0
    7.1280   -0.0840   18.7150 C   0  0  0  0  0  0  0  0  0  0  0  0
    5.8390    1.3850   20.4230 C   0  0  0  0  0  0  0  0  0  0  0  0
    5.6110   -3.3310   22.0770 C   0  0  0  0  0  0  0  0  0  0  0  0
    7.7670   -3.1240   22.9100 O   0  0  0  0  0  0  0  0  0  0  0  0
    6.3370    0.6520   17.6180 C   0  0  0  0  0  0  0  0  0  0  0  0
    5.1460    2.0230   19.3920 C   0  0  0  0  0  0  0  0  0  0  0  0
    5.9910   -4.7380   22.4350 C   0  0  0  0  0  0  0  0  0  0  0  0
    7.4070   -4.4740   22.9630 C   0  0  0  0  0  0  0  0  0  0  0  0
    5.3110    1.7600   18.0250 C   0  0  0  0  0  0  0  0  0  0  0  0
    5.1210   -5.7670   22.2400 F   0  0  0  0  0  0  0  0  0  0  0  0
    4.5080    2.5460   17.1690 N   0  0  0  0  0  0  0  0  0  0  0  0
    4.8340    3.4780   16.0680 C   0  0  0  0  0  0  0  0  0  0  0  0
    5.8710    3.7780   15.4950 O   0  0  0  0  0  0  0  0  0  0  0  0
    3.7460    4.3120   15.4000 C   0  0  0  0  0  0  0  0  0  0  0  0
    2.4820    4.5960   16.1950 C   0  0  0  0  0  0  0  0  0  0  0  0
    3.8640    4.8160   14.1080 C   0  0  0  0  0  0  0  0  0  0  0  0
    1.4830    5.3490   15.5970 C   0  0  0  0  0  0  0  0  0  0  0  0
    2.8060    5.5790   13.5670 C   0  0  0  0  0  0  0  0  0  0  0  0
    1.6470    5.8330   14.2990 C   0  0  0  0  0  0  0  0  0  0  0  0
  1  2  1  0
  2  3  2  0
  2  4  1  0
  3  5  1  0
  4  6  2  0
  5  7  2  0
  6  7  1  0
  7  8  1  0
  8  9  1  0
  9 10  2  0
  9 11  1  0
 11 12  1  0
 11 13  1  0
 12 14  1  0
 13 15  2  0
 13 16  1  0
 14 17  2  0
 14 18  1  0
 15 19  1  0
 16 20  2  0
 17 21  1  0
 18 22  1  0
 21 22  2  0
 19 23  2  0
 20 23  1  0
 21 24  1  0
 23 25  1  0
 25 26  1  0
 26 27  2  0
 26 28  1  0
 28 29  2  0
 28 30  1  0
 29 31  1  0
 30 32  2  0
 31 33  2  0
 32 33  1  0
M  END
