RUT-UNI-630c5802-18
     RDKit          3D

 25 27  0  0  0  0  0  0  0  0999 V2000
    5.4350   -2.1890   19.3300 C   0  0  0  0  0  0  0  0  0  0  0  0
    5.9800   -0.7990   19.3260 C   0  0  1  0  0  0  0  0  0  0  0  0
    7.2560   -0.5750   19.6680 C   0  0  0  0  0  0  0  0  0  0  0  0
    5.7850   -0.1000   18.0800 N   0  0  0  0  0  0  0  0  0  0  0  0
    7.3890    0.6190   20.3720 N   0  0  0  0  0  0  0  0  0  0  0  0
    4.5610    0.3300   18.0130 C   0  0  0  0  0  0  0  0  0  0  0  0
    6.6400    1.0450   17.9550 C   0  0  0  0  0  0  0  0  0  0  0  0
    6.4320    1.5740   20.8960 C   0  0  0  0  0  0  0  0  0  0  0  0
    8.5560    0.5600   21.2410 C   0  0  0  0  0  0  0  0  0  0  0  0
    5.1310    1.8220   20.4080 C   0  0  0  0  0  0  0  0  0  0  0  0
    9.2620    1.5410   21.4780 O   0  0  0  0  0  0  0  0  0  0  0  0
    8.7600   -0.9040   21.7170 C   0  0  0  0  0  0  0  0  0  0  0  0
    4.6000    2.4280   19.2880 C   0  0  0  0  0  0  0  0  0  0  0  0
    3.9640    1.3810   21.2210 C   0  0  0  0  0  0  0  0  0  0  0  0
    9.3380   -1.0070   22.6920 N   0  0  0  0  0  0  0  0  0  0  0  0
    3.1000    2.4610   19.2270 C   0  0  0  0  0  0  0  0  0  0  0  0
    2.3750    1.7220   20.5880 S   0  0  0  0  0  0  0  0  0  0  0  0
    8.7490   -0.8490   23.8890 N   0  0  0  0  0  0  0  0  0  0  0  0
   10.7010   -1.3040   22.7940 C   0  0  0  0  0  0  0  0  0  0  0  0
    9.7140   -1.0250   24.8130 N   0  0  0  0  0  0  0  0  0  0  0  0
   10.9040   -1.2850   24.1350 C   0  0  0  0  0  0  0  0  0  0  0  0
   11.7000   -1.5680   21.8740 C   0  0  0  0  0  0  0  0  0  0  0  0
   12.3260   -1.5360   24.6360 C   0  0  0  0  0  0  0  0  0  0  0  0
   13.0030   -1.8210   22.2350 C   0  0  0  0  0  0  0  0  0  0  0  0
   13.3440   -1.8130   23.5580 C   0  0  0  0  0  0  0  0  0  0  0  0
  2  1  1  6
  2  3  1  0
  2  4  1  0
  3  5  1  0
  4  6  1  0
  4  7  1  0
  5  8  1  0
  5  9  1  0
  8 10  1  0
  9 11  2  0
  9 12  1  0
 10 13  1  0
 10 14  2  0
 12 15  1  0
 13 16  2  0
 14 17  1  0
 16 17  1  0
 15 18  1  0
 15 19  1  0
 18 20  2  0
 19 21  2  0
 20 21  1  0
 19 22  1  0
 21 23  1  0
 22 24  2  0
 23 25  2  0
 24 25  1  0
M  END
