RUT-UNI-630c5802-26
     RDKit          3D

 30 33  0  0  0  0  0  0  0  0999 V2000
    4.9030    2.0050   17.5470 C   0  0  0  0  0  0  0  0  0  0  0  0
    5.7180    0.8420   17.3120 N   0  0  0  0  0  0  0  0  0  0  0  0
    6.8820    0.9240   16.6180 C   0  0  0  0  0  0  0  0  0  0  0  0
    6.1000    0.5250   18.5170 C   0  0  0  0  0  0  0  0  0  0  0  0
    7.6020   -0.1270   15.9940 C   0  0  0  0  0  0  0  0  0  0  0  0
    5.5080    1.1520   19.5890 C   0  0  0  0  0  0  0  0  0  0  0  0
    7.1070   -0.3920   18.6780 C   0  0  0  0  0  0  0  0  0  0  0  0
    8.4780    0.1160   15.1600 O   0  0  0  0  0  0  0  0  0  0  0  0
    5.9370    0.9070   20.8340 C   0  0  0  0  0  0  0  0  0  0  0  0
    7.5840   -0.6770   19.9400 C   0  0  0  0  0  0  0  0  0  0  0  0
    7.0670   -0.0530   21.0480 C   0  0  0  0  0  0  0  0  0  0  0  0
    7.6000   -0.2870   22.1950 N   0  0  0  0  0  0  0  0  0  0  0  0
    7.8790   -1.7040   22.5510 C   0  0  0  0  0  0  0  0  0  0  0  0
    8.7720    0.6220   22.1990 C   0  0  0  0  0  0  0  0  0  0  0  0
    6.5740   -2.5100   22.7520 C   0  0  0  0  0  0  0  0  0  0  0  0
    8.9050    1.5290   21.3460 O   0  0  0  0  0  0  0  0  0  0  0  0
    9.7940    0.3400   23.2810 C   0  0  0  0  0  0  0  0  0  0  0  0
    5.5390   -1.7240   23.5740 C   0  0  0  0  0  0  0  0  0  0  0  0
    6.0340   -3.8870   22.3500 C   0  0  0  0  0  0  0  0  0  0  0  0
   10.6670   -0.5890   22.9070 N   0  0  0  0  0  0  0  0  0  0  0  0
    4.2870   -2.6070   23.7190 C   0  0  0  0  0  0  0  0  0  0  0  0
    4.3700   -4.1900   22.9450 S   0  0  0  0  0  0  0  0  0  0  0  0
   10.6340   -1.1920   21.6970 N   0  0  0  0  0  0  0  0  0  0  0  0
   11.6400   -1.0430   23.6200 C   0  0  0  0  0  0  0  0  0  0  0  0
   11.6330   -2.0680   21.6450 N   0  0  0  0  0  0  0  0  0  0  0  0
   12.2280   -1.9800   22.8060 C   0  0  0  0  0  0  0  0  0  0  0  0
   12.1120   -0.7950   24.8460 C   0  0  0  0  0  0  0  0  0  0  0  0
   13.3230   -2.6840   23.2890 C   0  0  0  0  0  0  0  0  0  0  0  0
   13.1670   -1.4490   25.3420 C   0  0  0  0  0  0  0  0  0  0  0  0
   13.8100   -2.3950   24.6600 C   0  0  0  0  0  0  0  0  0  0  0  0
  1  2  1  0
  2  3  1  0
  2  4  1  0
  3  5  1  0
  4  6  2  0
  4  7  1  0
  5  8  1  0
  6  9  1  0
  7 10  2  0
  9 11  2  0
 10 11  1  0
 11 12  1  0
 12 13  1  0
 12 14  1  0
 13 15  1  0
 14 16  2  0
 14 17  1  0
 15 18  1  0
 15 19  2  0
 17 20  1  0
 18 21  2  0
 19 22  1  0
 21 22  1  0
 20 23  1  0
 20 24  1  0
 23 25  2  0
 24 26  2  0
 25 26  1  0
 24 27  1  0
 26 28  1  0
 27 29  2  0
 28 30  2  0
 29 30  1  0
M  END
