RUT-UNI-630c5802-6
     RDKit          3D

 32 35  0  0  0  0  0  0  0  0999 V2000
    5.7820    0.0160   26.6070 C   0  0  0  0  0  0  0  0  0  0  0  0
    7.1380   -0.0730   26.1190 N   0  0  0  0  0  0  0  0  0  0  0  0
    8.2500   -0.0970   26.8320 C   0  0  0  0  0  0  0  0  0  0  0  0
    7.5980   -0.1570   24.7920 C   0  0  0  0  0  0  0  0  0  0  0  0
    9.3870   -0.1880   26.1080 C   0  0  0  0  0  0  0  0  0  0  0  0
    9.0310   -0.2320   24.7830 C   0  0  0  0  0  0  0  0  0  0  0  0
    9.9550   -0.3310   23.7370 C   0  0  0  0  0  0  0  0  0  0  0  0
    9.9770    0.7830   23.0020 N   0  0  0  0  0  0  0  0  0  0  0  0
    9.0310    0.8940   21.9990 C   0  0  0  0  0  0  0  0  0  0  0  0
   11.3230    1.4090   22.7810 C   0  0  0  0  0  0  0  0  0  0  0  0
    8.8720    2.0600   21.2860 O   0  0  0  0  0  0  0  0  0  0  0  0
    8.1030   -0.2770   21.5820 C   0  0  0  0  0  0  0  0  0  0  0  0
   11.4650    2.9410   22.7880 C   0  0  0  0  0  0  0  0  0  0  0  0
   12.5190    0.7480   22.5280 C   0  0  0  0  0  0  0  0  0  0  0  0
    7.0780    0.2090   20.5130 C   0  0  0  0  0  0  0  0  0  0  0  0
   12.8600    3.5940   22.5090 C   0  0  0  0  0  0  0  0  0  0  0  0
   13.7460    1.4000   22.2790 C   0  0  0  0  0  0  0  0  0  0  0  0
    5.9240    1.1950   20.8210 C   0  0  0  0  0  0  0  0  0  0  0  0
    7.0710   -0.2120   19.0280 C   0  0  0  0  0  0  0  0  0  0  0  0
   14.0340    2.8140   22.2380 C   0  0  0  0  0  0  0  0  0  0  0  0
    4.9670    1.6260   19.6860 C   0  0  0  0  0  0  0  0  0  0  0  0
    6.2210    0.1660   17.9920 N   0  0  0  0  0  0  0  0  0  0  0  0
   15.3940    3.3080   21.9710 N   0  0  0  0  0  0  0  0  0  0  0  0
    5.1700    1.0710   18.2670 C   0  0  0  0  0  0  0  0  0  0  0  0
   16.0420    4.3010   22.7790 C   0  0  0  0  0  0  0  0  0  0  0  0
   15.2920    5.1230   23.1460 O   0  0  0  0  0  0  0  0  0  0  0  0
   17.4930    4.4290   23.5020 C   0  0  0  0  0  0  0  0  0  0  0  0
   18.1320    3.3070   23.9770 C   0  0  0  0  0  0  0  0  0  0  0  0
   18.2820    5.6440   23.7940 C   0  0  0  0  0  0  0  0  0  0  0  0
   19.3530    3.2940   24.6470 C   0  0  0  0  0  0  0  0  0  0  0  0
   19.5430    5.6890   24.4510 C   0  0  0  0  0  0  0  0  0  0  0  0
   20.1170    4.5210   24.8970 C   0  0  0  0  0  0  0  0  0  0  0  0
  1  2  1  0
  2  3  1  0
  2  4  1  0
  3  5  2  0
  4  6  2  0
  5  6  1  0
  6  7  1  0
  7  8  1  0
  8  9  1  0
  8 10  1  0
  9 11  2  0
  9 12  1  0
 10 13  2  0
 10 14  1  0
 12 15  1  0
 13 16  1  0
 14 17  2  0
 15 18  2  0
 15 19  1  0
 16 20  2  0
 17 20  1  0
 18 21  1  0
 19 22  2  0
 20 23  1  0
 21 24  2  0
 22 24  1  0
 23 25  1  0
 25 26  2  0
 25 27  1  0
 27 28  2  0
 27 29  1  0
 28 30  1  0
 29 31  2  0
 30 32  2  0
 31 32  1  0
M  END
