SAD-SAT-7d5528d9-42
     RDKit          3D

 22 26  0  0  0  0  0  0  0  0999 V2000
    9.5550    0.2160   14.6630 Cl  0  0  0  0  0  0  0  0  0  0  0  0
    8.3120   -0.2780   15.7290 C   0  0  0  0  0  0  0  0  0  0  0  0
    8.1370   -1.5850   16.1580 C   0  0  0  0  0  0  0  0  0  0  0  0
    7.4630    0.6740   16.1620 C   0  0  0  0  0  0  0  0  0  0  0  0
    7.1130   -1.9030   16.9920 C   0  0  0  0  0  0  0  0  0  0  0  0
    6.4380    0.3480   17.0040 C   0  0  0  0  0  0  0  0  0  0  0  0
    6.2590   -0.9430   17.4240 C   0  0  0  0  0  0  0  0  0  0  0  0
    5.5040    1.3590   17.4860 C   0  0  0  0  0  0  0  0  0  0  0  0
    5.9020    1.5140   18.8210 N   0  0  0  0  0  0  0  0  0  0  0  0
    6.6910    0.2530   19.0780 C   0  0  0  0  0  0  0  0  0  0  0  0
    4.6270    1.5300   19.5210 C   0  0  0  0  0  0  0  0  0  0  0  0
    7.0490   -0.0350   20.5420 C   0  0  0  0  0  0  0  0  0  0  0  0
    4.8720    0.6350   20.6110 C   0  0  0  0  0  0  0  0  0  0  0  0
    5.9030    0.3640   21.3860 C   0  0  1  0  0  0  0  0  0  0  0  0
    4.4360   -0.3320   21.3600 C   0  0  0  0  0  0  0  0  0  0  0  0
    4.7500   -1.1810   22.4160 N   0  0  0  0  0  0  0  0  0  0  0  0
    6.0050    0.6180   22.8460 C   0  0  0  0  0  0  0  0  0  0  0  0
    5.2620   -0.3880   23.4520 C   0  0  0  0  0  0  0  0  0  0  0  0
    6.6420    1.5710   23.6200 C   0  0  0  0  0  0  0  0  0  0  0  0
    5.1520   -0.4460   24.8190 C   0  0  0  0  0  0  0  0  0  0  0  0
    6.4850    1.4470   24.9970 C   0  0  0  0  0  0  0  0  0  0  0  0
    5.7600    0.4680   25.6160 N   0  0  0  0  0  0  0  0  0  0  0  0
  1  2  1  0
  2  3  2  0
  2  4  1  0
  3  5  1  0
  4  6  2  0
  5  7  2  0
  6  7  1  0
  6  8  1  0
  8  9  1  0
  9 10  1  0
  9 11  1  0
 10 12  1  0
 11 13  1  0
 14 12  1  6
 13 14  1  0
 13 15  2  0
 14 15  1  0
 15 16  1  0
 14 17  1  0
 16 18  1  0
 17 18  2  0
 17 19  1  0
 18 20  1  0
 19 21  2  0
 20 22  2  0
 21 22  1  0
M  END
