SAD-SAT-f2e2579e-5-chloroacetamide
     RDKit          3D

 30 32  0  0  0  0  0  0  0  0999 V2000
    7.0240   -3.1970   19.2910 C   0  0  0  0  0  0  0  0  0  0  0  0
    6.2980   -3.8710   20.1870 C   0  0  0  0  0  0  0  0  0  0  0  0
    5.2880   -4.4850   19.8640 O   0  0  0  0  0  0  0  0  0  0  0  0
    6.7340   -3.8950   21.5340 N   0  0  0  0  0  0  0  0  0  0  0  0
    7.6320   -2.8640   22.1050 C   0  0  0  0  0  0  0  0  0  0  0  0
    6.3890   -4.9890   22.4450 C   0  0  0  0  0  0  0  0  0  0  0  0
    7.5590   -2.8100   23.6400 C   0  0  0  0  0  0  0  0  0  0  0  0
    5.7210   -4.5650   23.6270 C   0  0  0  0  0  0  0  0  0  0  0  0
    6.1550   -3.1670   24.1580 C   0  0  0  0  0  0  0  0  0  0  0  0
    5.9590   -3.0610   25.7060 C   0  0  0  0  0  0  0  0  0  0  0  0
    4.8810   -3.9210   26.1140 O   0  0  0  0  0  0  0  0  0  0  0  0
    6.7220   -2.1680   26.6500 N   0  0  0  0  0  0  0  0  0  0  0  0
    7.0280   -0.8960   26.2980 C   0  0  0  0  0  0  0  0  0  0  0  0
    6.3540   -2.0650   28.0910 C   0  0  0  0  0  0  0  0  0  0  0  0
    5.8810   -0.1140   26.2620 C   0  0  0  0  0  0  0  0  0  0  0  0
    6.3070   -0.5930   28.6330 C   0  0  0  0  0  0  0  0  0  0  0  0
    5.7480    0.3640   27.6470 N   0  0  0  0  0  0  0  0  0  0  0  0
    6.2340    1.9810   27.9660 S   0  0  0  0  0  0  0  0  0  0  0  0
    7.6500    1.9060   28.2450 O   0  0  0  0  0  0  0  0  0  0  0  0
    5.3010    2.5320   28.9210 O   0  0  0  0  0  0  0  0  0  0  0  0
    6.0310    2.8220   26.4910 C   0  0  0  0  0  0  0  0  0  0  0  0
    5.0800    3.8380   26.3640 C   0  0  0  0  0  0  0  0  0  0  0  0
    6.8290    2.4950   25.3850 C   0  0  0  0  0  0  0  0  0  0  0  0
    4.9290    4.5260   25.1370 C   0  0  0  0  0  0  0  0  0  0  0  0
    6.6620    3.2440   24.0580 C   0  0  0  0  0  0  0  0  0  0  0  0
    5.7030    4.2380   24.0080 C   0  0  0  0  0  0  0  0  0  0  0  0
    5.4540    5.1560   22.5080 S   0  0  0  0  0  0  0  0  0  0  0  0
    3.9150    4.6460   21.9890 N   0  0  0  0  0  0  0  0  0  0  0  0
    5.3930    6.5590   22.8480 O   0  0  0  0  0  0  0  0  0  0  0  0
    6.4000    4.6290   21.5570 O   0  0  0  0  0  0  0  0  0  0  0  0
  1  2  1  0
  2  3  2  0
  2  4  1  0
  4  5  1  0
  4  6  1  0
  5  7  1  0
  6  8  1  0
  7  9  1  0
  8  9  1  0
  9 10  1  0
 10 11  2  0
 10 12  1  0
 12 13  1  0
 12 14  1  0
 13 15  1  0
 14 16  1  0
 15 17  1  0
 16 17  1  0
 17 18  1  0
 18 19  2  0
 18 20  2  0
 18 21  1  0
 21 22  2  0
 21 23  1  0
 22 24  1  0
 23 25  2  0
 24 26  2  0
 25 26  1  0
 26 27  1  0
 27 28  1  0
 27 29  2  0
 27 30  2  0
M  END
