SAD-SAT-f2e2579e-10-chloroacetamide
     RDKit          3D

 28 30  0  0  0  0  0  0  0  0999 V2000
    7.2350   -3.1720   19.1850 C   0  0  0  0  0  0  0  0  0  0  0  0
    6.4180   -3.7650   20.0690 C   0  0  0  0  0  0  0  0  0  0  0  0
    5.3280   -4.2300   19.7570 O   0  0  0  0  0  0  0  0  0  0  0  0
    6.8590   -3.8960   21.3970 N   0  0  0  0  0  0  0  0  0  0  0  0
    6.5230   -5.0890   22.1950 C   0  0  0  0  0  0  0  0  0  0  0  0
    7.8220   -2.9890   22.0140 C   0  0  0  0  0  0  0  0  0  0  0  0
    6.1310   -4.7310   23.6380 C   0  0  0  0  0  0  0  0  0  0  0  0
    7.2350   -2.4640   23.3310 C   0  0  0  0  0  0  0  0  0  0  0  0
    7.0310   -3.6470   24.2960 C   0  0  0  0  0  0  0  0  0  0  0  0
    6.3900   -3.1960   25.6200 C   0  0  0  0  0  0  0  0  0  0  0  0
    5.3850   -4.1390   26.0370 O   0  0  0  0  0  0  0  0  0  0  0  0
    6.6480   -1.9250   26.3480 N   0  0  0  0  0  0  0  0  0  0  0  0
    7.6720   -1.5770   27.2740 C   0  0  0  0  0  0  0  0  0  0  0  0
    5.5040   -1.1490   26.6280 C   0  0  0  0  0  0  0  0  0  0  0  0
    7.4010   -0.4280   28.1190 C   0  0  0  0  0  0  0  0  0  0  0  0
    5.8830    0.1040   26.2300 C   0  0  0  0  0  0  0  0  0  0  0  0
    6.5180    0.5930   27.4560 N   0  0  0  0  0  0  0  0  0  0  0  0
    5.3400    1.3080   28.4840 S   0  0  0  0  0  0  0  0  0  0  0  0
    4.6280    2.2510   27.6510 O   0  0  0  0  0  0  0  0  0  0  0  0
    4.6600    0.2420   29.1810 O   0  0  0  0  0  0  0  0  0  0  0  0
    6.2330    2.2020   29.6370 C   0  0  0  0  0  0  0  0  0  0  0  0
    6.2960    3.6000   29.5140 C   0  0  0  0  0  0  0  0  0  0  0  0
    6.8980    1.5490   30.7030 C   0  0  0  0  0  0  0  0  0  0  0  0
    7.0210    4.3650   30.4500 C   0  0  0  0  0  0  0  0  0  0  0  0
    7.6020    2.3670   31.6030 C   0  0  0  0  0  0  0  0  0  0  0  0
    7.6840    3.7540   31.5090 C   0  0  0  0  0  0  0  0  0  0  0  0
    8.4010    4.5080   32.4390 C   0  0  0  0  0  0  0  0  0  0  0  0
    7.7260    5.5860   33.1760 N   0  0  0  0  0  0  0  0  0  0  0  0
  1  2  1  0
  2  3  2  0
  2  4  1  0
  4  5  1  0
  4  6  1  0
  5  7  1  0
  6  8  1  0
  7  9  1  0
  8  9  1  0
  9 10  1  0
 10 11  2  0
 10 12  1  0
 12 13  1  0
 12 14  1  0
 13 15  1  0
 14 16  1  0
 15 17  1  0
 16 17  1  0
 17 18  1  0
 18 19  2  0
 18 20  2  0
 18 21  1  0
 21 22  2  0
 21 23  1  0
 22 24  1  0
 23 25  2  0
 24 26  2  0
 25 26  1  0
 26 27  1  0
 27 28  3  0
M  END
