SAD-SAT-29425be4-4-vinylsulfonamide
     RDKit          3D

 29 31  0  0  0  0  0  0  0  0999 V2000
    8.0280   -3.7190   20.3110 C   0  0  0  0  0  0  0  0  0  0  0  0
    7.3070   -4.7840   21.1520 C   0  0  0  0  0  0  0  0  0  0  0  0
    5.5960   -4.4260   20.9210 S   0  0  0  0  0  0  0  0  0  0  0  0
    4.7900   -4.8810   22.0310 O   0  0  0  0  0  0  0  0  0  0  0  0
    5.1860   -4.7230   19.5820 O   0  0  0  0  0  0  0  0  0  0  0  0
    5.6190   -2.7310   20.9580 N   0  0  0  0  0  0  0  0  0  0  0  0
    6.7260   -2.0850   21.6440 C   0  0  0  0  0  0  0  0  0  0  0  0
    5.0960   -2.1130   19.7490 C   0  0  0  0  0  0  0  0  0  0  0  0
    7.7680   -1.4000   20.7580 C   0  0  0  0  0  0  0  0  0  0  0  0
    6.1360   -1.7490   18.7420 C   0  0  0  0  0  0  0  0  0  0  0  0
    7.2480   -0.9450   19.3950 C   0  0  0  0  0  0  0  0  0  0  0  0
    6.7550    0.4830   19.5080 C   0  0  0  0  0  0  0  0  0  0  0  0
    6.5220    1.0320   18.4190 O   0  0  0  0  0  0  0  0  0  0  0  0
    6.6060    1.0790   20.8010 N   0  0  0  0  0  0  0  0  0  0  0  0
    5.4370    0.8030   21.6840 C   0  0  0  0  0  0  0  0  0  0  0  0
    5.5550   -0.0390   22.9770 C   0  0  0  0  0  0  0  0  0  0  0  0
    4.7040   -1.2890   23.0200 C   0  0  0  0  0  0  0  0  0  0  0  0
    5.0630    0.8100   24.1470 C   0  0  0  0  0  0  0  0  0  0  0  0
    6.9350   -0.5520   23.3520 C   0  0  0  0  0  0  0  0  0  0  0  0
    7.2580   -1.6480   24.2300 C   0  0  0  0  0  0  0  0  0  0  0  0
    8.1250    0.0380   22.8350 N   0  0  0  0  0  0  0  0  0  0  0  0
    8.4730   -1.7550   24.2660 O   0  0  0  0  0  0  0  0  0  0  0  0
    9.0460   -0.7650   23.4380 C   0  0  0  0  0  0  0  0  0  0  0  0
   10.5080   -0.5800   23.2240 C   0  0  0  0  0  0  0  0  0  0  0  0
   11.4070   -1.5920   23.1800 C   0  0  0  0  0  0  0  0  0  0  0  0
   10.9210    0.7640   23.0600 C   0  0  0  0  0  0  0  0  0  0  0  0
   12.8650   -1.2460   22.9500 C   0  0  0  0  0  0  0  0  0  0  0  0
   12.2390    1.1400   22.8500 C   0  0  0  0  0  0  0  0  0  0  0  0
   13.2460    0.2150   22.7820 C   0  0  0  0  0  0  0  0  0  0  0  0
  1  2  1  0
  3  2  1  0
  3  4  2  0
  3  5  2  0
  3  6  1  0
  6  7  1  0
  6  8  1  0
  7  9  1  0
  8 10  1  0
  9 11  1  0
 10 11  1  0
 11 12  1  0
 12 13  2  0
 12 14  1  0
 14 15  1  0
 16 15  1  0
 16 17  1  0
 16 18  1  0
 16 19  1  0
 19 20  2  0
 19 21  1  0
 20 22  1  0
 21 23  2  0
 22 23  1  0
 23 24  1  0
 24 25  2  0
 24 26  1  0
 25 27  1  0
 26 28  2  0
 27 29  2  0
 28 29  1  0
M  END
