SAD-SAT-c989feaa-8-bromoalkyne
     RDKit          3D

 20 21  0  0  0  0  0  0  0  0999 V2000
    6.8170   -3.4360   19.7000 C   0  0  0  0  0  0  0  0  0  0  0  0
    5.8070   -2.8880   18.7640 C   0  0  0  0  0  0  0  0  0  0  0  0
    6.8070   -2.9560   20.9970 N   0  0  0  0  0  0  0  0  0  0  0  0
    6.5030   -3.7420   22.1990 C   0  0  0  0  0  0  0  0  0  0  0  0
    7.2870   -1.5980   21.2420 C   0  0  0  0  0  0  0  0  0  0  0  0
    7.5820   -3.6230   23.2960 C   0  0  0  0  0  0  0  0  0  0  0  0
    8.5730   -1.7140   22.0660 C   0  0  2  0  0  0  0  0  0  0  0  0
    8.2600   -2.3180   23.3730 N   0  0  0  0  0  0  0  0  0  0  0  0
    9.3620   -0.3790   22.1160 C   0  0  0  0  0  0  0  0  0  0  0  0
    9.3270   -2.2170   24.2400 C   0  0  0  0  0  0  0  0  0  0  0  0
    8.6750    0.9390   22.5320 C   0  0  0  0  0  0  0  0  0  0  0  0
   10.4720   -1.4230   23.8650 C   0  0  0  0  0  0  0  0  0  0  0  0
    7.8800    1.4890   21.3420 C   0  0  0  0  0  0  0  0  0  0  0  0
    9.6850    2.0070   22.9620 C   0  0  0  0  0  0  0  0  0  0  0  0
   10.8610   -0.1450   24.4470 C   0  0  0  0  0  0  0  0  0  0  0  0
   11.2630   -1.9400   22.8390 C   0  0  0  0  0  0  0  0  0  0  0  0
   11.9880    0.6480   24.0570 C   0  0  0  0  0  0  0  0  0  0  0  0
   12.3700   -1.2530   22.3940 C   0  0  0  0  0  0  0  0  0  0  0  0
   12.7080    0.0750   23.0490 C   0  0  0  0  0  0  0  0  0  0  0  0
   13.1680   -1.8350   21.2980 C   0  0  0  0  0  0  0  0  0  0  0  0
  1  2  2  3
  1  3  1  0
  3  4  1  0
  3  5  1  0
  4  6  1  0
  5  7  1  0
  6  8  1  0
  7  8  1  0
  7  9  1  1
  8 10  1  0
  9 11  1  0
 10 12  1  0
 11 13  1  0
 11 14  1  0
 12 15  2  0
 12 16  1  0
 15 17  1  0
 16 18  2  0
 17 19  2  0
 18 19  1  0
 18 20  1  0
M  END
