SAD-SAT-f2e2579e-9-vinylsulfonamide
     RDKit          3D

 29 31  0  0  0  0  0  0  0  0999 V2000
    7.3840   -2.9010   18.4190 C   0  0  0  0  0  0  0  0  0  0  0  0
    6.8480   -2.4840   19.5470 C   0  0  0  0  0  0  0  0  0  0  0  0
    5.9220   -3.7480   20.3730 S   0  0  0  0  0  0  0  0  0  0  0  0
    4.8960   -3.1190   21.0970 O   0  0  0  0  0  0  0  0  0  0  0  0
    5.5140   -4.8560   19.5660 O   0  0  0  0  0  0  0  0  0  0  0  0
    7.0780   -4.2570   21.5020 N   0  0  0  0  0  0  0  0  0  0  0  0
    6.5580   -5.3000   22.3840 C   0  0  0  0  0  0  0  0  0  0  0  0
    7.8890   -3.1960   22.1220 C   0  0  0  0  0  0  0  0  0  0  0  0
    5.7200   -4.6580   23.4850 C   0  0  0  0  0  0  0  0  0  0  0  0
    7.6790   -3.0460   23.5050 C   0  0  0  0  0  0  0  0  0  0  0  0
    6.2110   -3.2480   23.8930 C   0  0  0  0  0  0  0  0  0  0  0  0
    5.9710   -3.1280   25.3940 C   0  0  0  0  0  0  0  0  0  0  0  0
    5.2580   -3.9840   25.9020 O   0  0  0  0  0  0  0  0  0  0  0  0
    6.4880   -2.0470   26.2580 N   0  0  0  0  0  0  0  0  0  0  0  0
    5.6630   -1.3680   27.0860 C   0  0  0  0  0  0  0  0  0  0  0  0
    7.5150   -1.0520   25.9610 C   0  0  0  0  0  0  0  0  0  0  0  0
    5.4530   -0.0620   26.6420 C   0  0  0  0  0  0  0  0  0  0  0  0
    7.8910   -0.5450   27.2600 C   0  0  0  0  0  0  0  0  0  0  0  0
    5.8170    0.8140   27.6520 C   0  0  0  0  0  0  0  0  0  0  0  0
    7.1710    0.6560   27.8290 N   0  0  0  0  0  0  0  0  0  0  0  0
    7.7770    0.9430   29.4000 S   0  0  0  0  0  0  0  0  0  0  0  0
    8.7770   -0.0610   29.6690 O   0  0  0  0  0  0  0  0  0  0  0  0
    6.6210    1.1310   30.2460 O   0  0  0  0  0  0  0  0  0  0  0  0
    8.5790    2.4480   29.2940 C   0  0  0  0  0  0  0  0  0  0  0  0
    8.4130    3.4340   28.3390 C   0  0  0  0  0  0  0  0  0  0  0  0
    9.7750    2.9860   30.4350 S   0  0  0  0  0  0  0  0  0  0  0  0
    9.1800    4.5340   28.5170 C   0  0  0  0  0  0  0  0  0  0  0  0
   10.0090    4.4950   29.6270 C   0  0  0  0  0  0  0  0  0  0  0  0
   11.2100    5.8720   30.1820 Br  0  0  0  0  0  0  0  0  0  0  0  0
  1  2  1  0
  3  2  1  0
  3  4  2  0
  3  5  2  0
  3  6  1  0
  6  7  1  0
  6  8  1  0
  7  9  1  0
  8 10  1  0
  9 11  1  0
 10 11  1  0
 11 12  1  0
 12 13  2  0
 12 14  1  0
 14 15  1  0
 14 16  1  0
 15 17  1  0
 16 18  1  0
 17 19  1  0
 18 20  1  0
 19 20  1  0
 20 21  1  0
 21 22  2  0
 21 23  2  0
 21 24  1  0
 24 25  2  0
 24 26  1  0
 25 27  1  0
 26 28  1  0
 27 28  2  0
 28 29  1  0
M  END
