SAD-SAT-c989feaa-1-bromoalkyne
     RDKit          3D

 20 21  0  0  0  0  0  0  0  0999 V2000
    6.8620   -3.3860   19.6640 C   0  0  0  0  0  0  0  0  0  0  0  0
    5.8430   -2.8770   18.7160 C   0  0  0  0  0  0  0  0  0  0  0  0
    6.7930   -3.0420   21.0030 N   0  0  0  0  0  0  0  0  0  0  0  0
    6.6360   -3.9660   22.1180 C   0  0  0  0  0  0  0  0  0  0  0  0
    6.9900   -1.6270   21.3710 C   0  0  0  0  0  0  0  0  0  0  0  0
    7.4190   -3.4680   23.3360 C   0  0  0  0  0  0  0  0  0  0  0  0
    8.2560   -1.3970   22.2110 C   0  0  2  0  0  0  0  0  0  0  0  0
    8.5650   -2.6210   22.9840 N   0  0  0  0  0  0  0  0  0  0  0  0
    8.1550   -0.1180   23.0850 C   0  0  0  0  0  0  0  0  0  0  0  0
    9.5500   -2.5180   23.9430 C   0  0  0  0  0  0  0  0  0  0  0  0
    9.1760    1.0160   22.7710 C   0  0  0  0  0  0  0  0  0  0  0  0
   10.6330   -1.5990   23.6910 C   0  0  0  0  0  0  0  0  0  0  0  0
    9.5760    1.9510   23.9410 C   0  0  0  0  0  0  0  0  0  0  0  0
    8.5970    1.8880   21.6590 C   0  0  0  0  0  0  0  0  0  0  0  0
   10.8750   -0.3300   24.3710 C   0  0  0  0  0  0  0  0  0  0  0  0
   11.5190   -1.9780   22.6900 C   0  0  0  0  0  0  0  0  0  0  0  0
   11.9440    0.5940   24.1070 C   0  0  0  0  0  0  0  0  0  0  0  0
   12.6830   -1.0870   22.3330 C   0  0  0  0  0  0  0  0  0  0  0  0
   12.8020    0.2000   23.1190 C   0  0  0  0  0  0  0  0  0  0  0  0
   13.5550   -1.4110   21.3780 F   0  0  0  0  0  0  0  0  0  0  0  0
  1  2  2  3
  1  3  1  0
  3  4  1  0
  3  5  1  0
  4  6  1  0
  5  7  1  0
  6  8  1  0
  7  8  1  0
  7  9  1  1
  8 10  1  0
  9 11  1  0
 10 12  1  0
 11 13  1  0
 11 14  1  0
 12 15  2  0
 12 16  1  0
 15 17  1  0
 16 18  2  0
 17 19  2  0
 18 19  1  0
 18 20  1  0
M  END
