SAD-SAT-29425be4-20-chloroacetamide
     RDKit          3D

 23 24  0  0  0  0  0  0  0  0999 V2000
    7.2070   -3.5380   19.4210 C   0  0  0  0  0  0  0  0  0  0  0  0
    5.9300   -3.1870   19.9860 C   0  0  0  0  0  0  0  0  0  0  0  0
    4.9590   -3.6280   19.3790 O   0  0  0  0  0  0  0  0  0  0  0  0
    5.9400   -2.5200   21.1700 N   0  0  0  0  0  0  0  0  0  0  0  0
    6.8580   -1.3870   21.4270 C   0  0  0  0  0  0  0  0  0  0  0  0
    5.6230   -3.3210   22.3640 C   0  0  0  0  0  0  0  0  0  0  0  0
    8.2080   -2.0960   21.7940 C   0  0  0  0  0  0  0  0  0  0  0  0
    6.8640   -3.8020   23.0990 C   0  0  0  0  0  0  0  0  0  0  0  0
    7.8100   -2.6320   23.2030 C   0  0  0  0  0  0  0  0  0  0  0  0
    9.1730   -2.9920   23.7610 C   0  0  0  0  0  0  0  0  0  0  0  0
    9.5250   -4.0790   24.1680 O   0  0  0  0  0  0  0  0  0  0  0  0
    9.9170   -1.8800   23.7420 N   0  0  0  0  0  0  0  0  0  0  0  0
    9.0920   -0.6880   23.6430 C   0  0  0  0  0  0  0  0  0  0  0  0
    9.7490    0.3040   24.5040 C   0  0  0  0  0  0  0  0  0  0  0  0
    8.9940    1.4300   25.2050 C   0  0  0  0  0  0  0  0  0  0  0  0
    9.6570    0.0960   25.9860 C   0  0  0  0  0  0  0  0  0  0  0  0
   11.0700    0.5110   23.8300 C   0  0  0  0  0  0  0  0  0  0  0  0
   11.6850    1.7350   23.7310 C   0  0  0  0  0  0  0  0  0  0  0  0
   11.6300   -0.6310   23.2670 C   0  0  0  0  0  0  0  0  0  0  0  0
   12.8770    1.8470   23.0760 C   0  0  0  0  0  0  0  0  0  0  0  0
   12.7810   -0.6280   22.6030 C   0  0  0  0  0  0  0  0  0  0  0  0
   13.4210    0.5660   22.5030 C   0  0  0  0  0  0  0  0  0  0  0  0
   13.3330   -1.8880   21.9790 C   0  0  0  0  0  0  0  0  0  0  0  0
  1  2  1  0
  2  3  2  0
  2  4  1  0
  4  5  1  0
  4  6  1  0
  5  7  1  0
  6  8  1  0
  7  9  1  0
  8  9  1  0
  9 10  1  0
 10 11  2  0
 10 12  1  0
 12 13  1  0
 14 13  1  0
 14 15  1  0
 14 16  1  0
 14 17  1  0
 17 18  2  0
 17 19  1  0
 18 20  1  0
 19 21  2  0
 20 22  2  0
 21 22  1  0
 21 23  1  0
M  END
