SAD-SAT-1b030f84-2-vinylsulfonamide
     RDKit          3D

 13 13  0  0  0  0  0  0  0  0999 V2000
    8.5530   -4.5870   21.0040 C   0  0  0  0  0  0  0  0  0  0  0  0
    7.4180   -3.8870   21.7570 C   0  0  0  0  0  0  0  0  0  0  0  0
    5.7940   -4.4070   21.1760 S   0  0  0  0  0  0  0  0  0  0  0  0
    4.7830   -3.8920   22.0590 O   0  0  0  0  0  0  0  0  0  0  0  0
    5.6020   -4.1640   19.7560 O   0  0  0  0  0  0  0  0  0  0  0  0
    5.8010   -6.0720   21.3940 N   0  0  0  0  0  0  0  0  0  0  0  0
    6.7220   -6.5310   22.3840 C   0  0  0  0  0  0  0  0  0  0  0  0
    6.4670   -5.7930   23.6750 C   0  0  0  0  0  0  0  0  0  0  0  0
    5.2940   -5.6720   24.5590 C   0  0  0  0  0  0  0  0  0  0  0  0
    7.4220   -5.0140   24.3050 N   0  0  0  0  0  0  0  0  0  0  0  0
    5.6400   -4.8310   25.6470 N   0  0  0  0  0  0  0  0  0  0  0  0
    6.9250   -4.4570   25.4520 N   0  0  0  0  0  0  0  0  0  0  0  0
    4.8350   -4.4660   26.6910 F   0  0  0  0  0  0  0  0  0  0  0  0
  1  2  1  0
  2  3  1  0
  3  4  2  0
  3  5  2  0
  3  6  1  0
  6  7  1  0
  7  8  1  0
  8  9  2  0
  8 10  1  0
  9 11  1  0
 10 12  2  0
 11 12  1  0
 11 13  1  0
M  END
