SAD-SAT-89668ff1-4-chloroacetamide
     RDKit          3D

 22 23  0  0  0  0  0  0  0  0999 V2000
    7.6000   -3.0750   18.8880 C   0  0  0  0  0  0  0  0  0  0  0  0
    6.6020   -3.3920   19.9670 C   0  0  0  0  0  0  0  0  0  0  0  0
    5.5840   -4.0750   19.7640 O   0  0  0  0  0  0  0  0  0  0  0  0
    6.9250   -2.8810   21.2380 N   0  0  0  0  0  0  0  0  0  0  0  0
    8.0120   -1.8690   21.4520 C   0  0  0  0  0  0  0  0  0  0  0  0
    6.4360   -3.6150   22.4110 C   0  0  0  0  0  0  0  0  0  0  0  0
    9.1180   -2.1780   22.5110 C   0  0  2  0  0  0  0  0  0  0  0  0
    7.3310   -3.3000   23.6250 C   0  0  1  0  0  0  0  0  0  0  0  0
   10.5600   -2.1380   21.9670 C   0  0  0  0  0  0  0  0  0  0  0  0
    8.7780   -3.4740   23.2160 C   0  0  0  0  0  0  0  0  0  0  0  0
    7.2090   -1.8570   23.9070 N   0  0  0  0  0  0  0  0  0  0  0  0
   11.6680   -2.0540   21.6300 N   0  0  0  0  0  0  0  0  0  0  0  0
    7.5500   -1.2050   25.1020 C   0  0  0  0  0  0  0  0  0  0  0  0
    7.4240    0.1640   25.3660 C   0  0  0  0  0  0  0  0  0  0  0  0
    8.0540   -1.9730   26.1260 C   0  0  0  0  0  0  0  0  0  0  0  0
    7.7850    0.6940   26.6220 C   0  0  0  0  0  0  0  0  0  0  0  0
    8.4110   -1.4770   27.3780 C   0  0  0  0  0  0  0  0  0  0  0  0
    8.2740   -0.1340   27.6410 C   0  0  0  0  0  0  0  0  0  0  0  0
    8.7020    0.5250   29.2450 S   0  0  0  0  0  0  0  0  0  0  0  0
    7.9780   -0.5760   30.3010 N   0  0  0  0  0  0  0  0  0  0  0  0
    7.9700    1.7560   29.4390 O   0  0  0  0  0  0  0  0  0  0  0  0
   10.1200    0.4460   29.4780 O   0  0  0  0  0  0  0  0  0  0  0  0
  1  2  1  0
  2  3  2  0
  2  4  1  0
  4  5  1  0
  4  6  1  0
  5  7  1  0
  6  8  1  0
  7  9  1  6
  7 10  1  0
  8 10  1  0
  8 11  1  6
  9 12  3  0
 11 13  1  0
 13 14  2  0
 13 15  1  0
 14 16  1  0
 15 17  2  0
 16 18  2  0
 17 18  1  0
 18 19  1  0
 19 20  1  0
 19 21  2  0
 19 22  2  0
M  END
