SAD-SAT-f25ee457-8
     RDKit          3D

 24 26  0  0  0  0  0  0  0  0999 V2000
    9.4200   10.3080   29.7170 N   0  0  0  0  0  0  0  0  0  0  0  0
    8.4490    9.3480   28.7440 S   0  0  0  0  0  0  0  0  0  0  0  0
    8.1460    8.1650   29.5200 O   0  0  0  0  0  0  0  0  0  0  0  0
    7.4230   10.2240   28.2310 O   0  0  0  0  0  0  0  0  0  0  0  0
    9.5570    8.9160   27.4320 C   0  0  0  0  0  0  0  0  0  0  0  0
   10.6510    9.8450   27.0620 C   0  0  0  0  0  0  0  0  0  0  0  0
    9.3790    7.6890   26.7580 C   0  0  0  0  0  0  0  0  0  0  0  0
   11.5730    9.4170   25.9220 C   0  0  0  0  0  0  0  0  0  0  0  0
   10.2280    7.2810   25.6990 C   0  0  0  0  0  0  0  0  0  0  0  0
   11.3000    8.1040   25.2800 C   0  0  0  0  0  0  0  0  0  0  0  0
   10.0230    6.0540   25.0420 C   0  0  0  0  0  0  0  0  0  0  0  0
   12.2230    7.6800   24.1440 C   0  0  0  0  0  0  0  0  0  0  0  0
   10.8150    5.5780   23.9900 C   0  0  0  0  0  0  0  0  0  0  0  0
   11.8830    6.3600   23.5480 C   0  0  0  0  0  0  0  0  0  0  0  0
   10.6080    4.3490   23.3350 N   0  0  0  0  0  0  0  0  0  0  0  0
   11.5750    3.3990   23.0350 C   0  0  0  0  0  0  0  0  0  0  0  0
   12.4660    3.5440   22.2170 O   0  0  0  0  0  0  0  0  0  0  0  0
   11.4150    2.4480   23.6820 N   0  0  0  0  0  0  0  0  0  0  0  0
   11.5130    1.1130   23.2610 C   0  0  0  0  0  0  0  0  0  0  0  0
   12.6600    0.4990   22.7770 C   0  0  0  0  0  0  0  0  0  0  0  0
   10.3570    0.3490   23.3330 C   0  0  0  0  0  0  0  0  0  0  0  0
   12.6200   -0.8380   22.3730 C   0  0  0  0  0  0  0  0  0  0  0  0
   10.2330   -0.9450   22.9680 N   0  0  0  0  0  0  0  0  0  0  0  0
   11.3130   -1.6030   22.4800 C   0  0  0  0  0  0  0  0  0  0  0  0
  2  1  1  0
  2  3  2  0
  2  4  2  0
  2  5  1  0
  5  6  2  0
  5  7  1  0
  6  8  1  0
  7  9  2  0
  8 10  2  0
  9 10  1  0
  9 11  1  0
 10 12  1  0
 11 13  2  0
 12 14  2  0
 13 14  1  0
 13 15  1  0
 15 16  1  0
 16 17  2  0
 16 18  1  0
 18 19  1  0
 19 20  2  0
 19 21  1  0
 20 22  1  0
 21 23  2  0
 22 24  2  0
 23 24  1  0
M  END
