SAD-SAT-1b030f84-5-chloroacetamide
     RDKit          3D

 17 18  0  0  0  0  0  0  0  0999 V2000
    7.4780   -3.3660   19.7760 C   0  0  0  0  0  0  0  0  0  0  0  0
    6.5090   -4.3430   20.4100 C   0  0  0  0  0  0  0  0  0  0  0  0
    5.3960   -4.5220   19.9280 O   0  0  0  0  0  0  0  0  0  0  0  0
    6.9110   -5.0930   21.5390 N   0  0  0  0  0  0  0  0  0  0  0  0
    6.0560   -6.1820   21.9490 C   0  0  0  0  0  0  0  0  0  0  0  0
    7.7430   -4.5050   22.5950 C   0  0  0  0  0  0  0  0  0  0  0  0
    5.3100   -5.8770   23.2510 C   0  0  0  0  0  0  0  0  0  0  0  0
    6.9470   -4.0530   23.6420 C   0  0  0  0  0  0  0  0  0  0  0  0
    6.1640   -5.1680   24.2100 N   0  0  0  0  0  0  0  0  0  0  0  0
    5.8690   -5.0330   25.6170 C   0  0  0  0  0  0  0  0  0  0  0  0
    6.2510   -4.0670   26.2490 O   0  0  0  0  0  0  0  0  0  0  0  0
    5.0860   -6.0410   26.4350 C   0  0  0  0  0  0  0  0  0  0  0  0
    5.5850   -6.3740   27.8180 C   0  0  0  0  0  0  0  0  0  0  0  0
    3.8920   -6.7820   26.1580 C   0  0  0  0  0  0  0  0  0  0  0  0
    4.5710   -7.5040   28.5830 S   0  0  0  0  0  0  0  0  0  0  0  0
    3.5220   -7.5920   27.2230 C   0  0  0  0  0  0  0  0  0  0  0  0
    2.9960   -6.7040   24.7020 Cl  0  0  0  0  0  0  0  0  0  0  0  0
  1  2  1  0
  2  3  2  0
  2  4  1  0
  4  5  1  0
  4  6  1  0
  5  7  1  0
  6  8  1  0
  7  9  1  0
  8  9  1  0
  9 10  1  0
 10 11  2  0
 10 12  1  0
 12 13  2  0
 12 14  1  0
 13 15  1  0
 14 16  2  0
 15 16  1  0
 14 17  1  0
M  END
