SAD-SAT-3a925b8b-3-vinylsulfonamide
     RDKit          3D

 19 20  0  0  0  0  0  0  0  0999 V2000
    7.4060   -3.1060   18.8880 C   0  0  0  0  0  0  0  0  0  0  0  0
    7.0280   -3.0890   20.3530 C   0  0  0  0  0  0  0  0  0  0  0  0
    6.3370   -4.6710   20.6950 S   0  0  0  0  0  0  0  0  0  0  0  0
    5.1310   -4.8350   19.9100 O   0  0  0  0  0  0  0  0  0  0  0  0
    7.3520   -5.6750   20.9260 O   0  0  0  0  0  0  0  0  0  0  0  0
    5.8870   -4.6350   22.2290 N   0  0  0  0  0  0  0  0  0  0  0  0
    5.5990   -6.0060   22.6040 C   0  0  0  0  0  0  0  0  0  0  0  0
    6.9330   -4.0530   23.0310 C   0  0  0  0  0  0  0  0  0  0  0  0
    4.9760   -5.9980   23.9660 C   0  0  0  0  0  0  0  0  0  0  0  0
    6.3820   -3.9160   24.4280 C   0  0  0  0  0  0  0  0  0  0  0  0
    5.7490   -5.1940   24.9100 N   0  0  0  0  0  0  0  0  0  0  0  0
    4.9350   -5.0150   26.3480 S   0  0  0  0  0  0  0  0  0  0  0  0
    4.0780   -6.1690   26.5010 O   0  0  0  0  0  0  0  0  0  0  0  0
    5.9100   -4.6220   27.3360 O   0  0  0  0  0  0  0  0  0  0  0  0
    3.8700   -3.6410   26.2130 C   0  0  0  0  0  0  0  0  0  0  0  0
    4.2860   -2.2980   26.5440 C   0  0  0  0  0  0  0  0  0  0  0  0
    2.5300   -3.5980   25.7930 N   0  0  0  0  0  0  0  0  0  0  0  0
    3.2210   -1.4820   26.3290 O   0  0  0  0  0  0  0  0  0  0  0  0
    2.2220   -2.3050   25.8920 C   0  0  0  0  0  0  0  0  0  0  0  0
  1  2  1  0
  3  2  1  0
  3  4  2  0
  3  5  2  0
  3  6  1  0
  6  7  1  0
  6  8  1  0
  7  9  1  0
  8 10  1  0
  9 11  1  0
 10 11  1  0
 11 12  1  0
 12 13  2  0
 12 14  2  0
 12 15  1  0
 15 16  2  0
 15 17  1  0
 16 18  1  0
 17 19  2  0
 18 19  1  0
M  END
