SAD-SAT-2ceae68f-8-vinylsulfonamide
     RDKit          3D

 21 23  0  0  0  0  0  0  0  0999 V2000
    6.6990   -3.6630   19.6810 C   0  0  0  0  0  0  0  0  0  0  0  0
    7.2860   -2.8650   20.8280 C   0  0  0  0  0  0  0  0  0  0  0  0
    6.0520   -2.5910   22.0700 S   0  0  0  0  0  0  0  0  0  0  0  0
    4.7150   -3.0520   21.5230 O   0  0  0  0  0  0  0  0  0  0  0  0
    6.5530   -3.2900   23.2360 O   0  0  0  0  0  0  0  0  0  0  0  0
    6.3570   -0.9040   22.4340 N   0  0  0  0  0  0  0  0  0  0  0  0
    6.9540   -0.5890   23.7620 C   0  0  0  0  0  0  0  0  0  0  0  0
    6.8230    0.0550   21.3890 C   0  0  0  0  0  0  0  0  0  0  0  0
    7.1910    0.9830   23.8160 C   0  0  0  0  0  0  0  0  0  0  0  0
    8.1250    0.5820   21.6740 C   0  0  0  0  0  0  0  0  0  0  0  0
    8.1180    1.4200   22.7200 N   0  0  0  0  0  0  0  0  0  0  0  0
    9.3620    2.3020   23.0150 C   0  0  0  0  0  0  0  0  0  0  0  0
   10.6160    1.4370   23.0110 C   0  0  0  0  0  0  0  0  0  0  0  0
   11.9780    2.1250   22.8730 C   0  0  0  0  0  0  0  0  0  0  0  0
   10.3790    0.0850   23.1310 C   0  0  0  0  0  0  0  0  0  0  0  0
   13.0380    1.0640   22.8720 C   0  0  0  0  0  0  0  0  0  0  0  0
   11.4600   -0.8010   23.0960 C   0  0  0  0  0  0  0  0  0  0  0  0
   12.6950   -0.3640   22.9770 C   0  0  0  0  0  0  0  0  0  0  0  0
   11.3280   -2.1870   23.1680 O   0  0  0  0  0  0  0  0  0  0  0  0
   12.6430   -2.3950   22.5410 C   0  0  0  0  0  0  0  0  0  0  0  0
   13.6300   -1.4050   22.9500 O   0  0  0  0  0  0  0  0  0  0  0  0
  1  2  1  0
  3  2  1  0
  3  4  2  0
  3  5  2  0
  3  6  1  0
  6  7  1  0
  6  8  1  0
  7  9  1  0
  8 10  1  0
  9 11  1  0
 10 11  1  0
 11 12  1  0
 12 13  1  0
 13 14  2  0
 13 15  1  0
 14 16  1  0
 15 17  2  0
 16 18  2  0
 17 18  1  0
 17 19  1  0
 19 20  1  0
 18 21  1  0
 20 21  1  0
M  END
