SAD-SAT-1b030f84-5-nitrile
     RDKit          3D

 16 17  0  0  0  0  0  0  0  0999 V2000
    6.8490   -5.4070   20.8010 C   0  0  0  0  0  0  0  0  0  0  0  0
    5.7140   -5.4820   20.2420 N   0  0  0  0  0  0  0  0  0  0  0  0
    6.9920   -5.9040   22.1160 N   0  0  0  0  0  0  0  0  0  0  0  0
    7.9440   -5.3590   22.9870 C   0  0  0  0  0  0  0  0  0  0  0  0
    5.7740   -5.9540   22.8960 C   0  0  0  0  0  0  0  0  0  0  0  0
    7.4910   -3.9380   23.1690 C   0  0  0  0  0  0  0  0  0  0  0  0
    5.2250   -4.6900   22.8590 C   0  0  0  0  0  0  0  0  0  0  0  0
    6.2400   -3.7590   22.4530 N   0  0  0  0  0  0  0  0  0  0  0  0
    6.1070   -3.0290   21.2690 C   0  0  0  0  0  0  0  0  0  0  0  0
    5.3760   -3.3350   20.3200 O   0  0  0  0  0  0  0  0  0  0  0  0
    6.9670   -1.7830   21.1980 C   0  0  0  0  0  0  0  0  0  0  0  0
    8.3230   -1.8620   21.9640 C   0  0  0  0  0  0  0  0  0  0  0  0
    6.6040   -0.5920   20.5090 C   0  0  0  0  0  0  0  0  0  0  0  0
    8.8070   -0.2350   21.5690 S   0  0  0  0  0  0  0  0  0  0  0  0
    7.5340    0.3450   20.6340 C   0  0  0  0  0  0  0  0  0  0  0  0
    5.1570   -0.3560   19.6290 Cl  0  0  0  0  0  0  0  0  0  0  0  0
  1  2  2  3
  1  3  1  0
  3  4  1  0
  3  5  1  0
  4  6  1  0
  5  7  1  0
  6  8  1  0
  7  8  1  0
  8  9  1  0
  9 10  2  0
  9 11  1  0
 11 12  2  0
 11 13  1  0
 12 14  1  0
 13 15  2  0
 14 15  1  0
 13 16  1  0
M  END
