SAD-SAT-f25ee457-2
     RDKit          3D

 26 28  0  0  0  0  0  0  0  0999 V2000
   11.9720    1.2670   23.9280 N   0  0  0  0  0  0  0  0  0  0  0  0
   11.2560    0.3880   24.1650 C   0  0  0  0  0  0  0  0  0  0  0  0
   10.3550   -0.7720   24.3620 C   0  0  0  0  0  0  0  0  0  0  0  0
   10.4940   -1.8570   23.3080 C   0  0  0  0  0  0  0  0  0  0  0  0
    9.3940   -0.9210   25.4440 C   0  0  0  0  0  0  0  0  0  0  0  0
    9.6400   -3.0420   23.3920 C   0  0  0  0  0  0  0  0  0  0  0  0
    8.5580   -2.0900   25.5300 C   0  0  0  0  0  0  0  0  0  0  0  0
    9.1660    0.0870   26.5500 C   0  0  0  0  0  0  0  0  0  0  0  0
    8.6680   -3.1010   24.5470 C   0  0  0  0  0  0  0  0  0  0  0  0
    7.6250   -2.2260   26.5930 C   0  0  0  0  0  0  0  0  0  0  0  0
    8.2300   -0.1300   27.5520 C   0  0  0  0  0  0  0  0  0  0  0  0
    7.8630   -4.3430   24.4760 C   0  0  0  0  0  0  0  0  0  0  0  0
    7.4460   -1.2780   27.5990 C   0  0  0  0  0  0  0  0  0  0  0  0
    7.2950   -4.4170   23.1400 N   0  0  0  0  0  0  0  0  0  0  0  0
    6.2680   -1.4990   28.9050 S   0  0  0  0  0  0  0  0  0  0  0  0
    6.7530   -3.2900   22.5250 C   0  0  0  0  0  0  0  0  0  0  0  0
    6.9230   -0.5430   30.1310 N   0  0  0  0  0  0  0  0  0  0  0  0
    6.3060   -2.8730   29.3380 O   0  0  0  0  0  0  0  0  0  0  0  0
    5.0380   -0.8440   28.5290 O   0  0  0  0  0  0  0  0  0  0  0  0
    5.6640   -3.3630   21.9520 O   0  0  0  0  0  0  0  0  0  0  0  0
    7.4810   -2.1080   22.5950 N   0  0  0  0  0  0  0  0  0  0  0  0
    6.6760   -1.0560   22.9700 C   0  0  0  0  0  0  0  0  0  0  0  0
    8.4110   -1.7860   21.5950 C   0  0  0  0  0  0  0  0  0  0  0  0
    6.7280    0.0810   21.9280 C   0  0  0  0  0  0  0  0  0  0  0  0
    8.9870   -0.5470   21.8560 C   0  0  0  0  0  0  0  0  0  0  0  0
    8.0550    0.4960   21.5830 O   0  0  0  0  0  0  0  0  0  0  0  0
  1  2  3  0
  2  3  1  0
  3  4  2  0
  3  5  1  0
  4  6  1  0
  5  7  2  0
  5  8  1  0
  6  9  2  0
  7  9  1  0
  7 10  1  0
  8 11  2  0
  9 12  1  0
 10 13  2  0
 11 13  1  0
 12 14  1  0
 13 15  1  0
 14 16  1  0
 15 17  1  0
 15 18  2  0
 15 19  2  0
 16 20  2  0
 16 21  1  0
 21 22  1  0
 21 23  1  0
 22 24  1  0
 23 25  1  0
 24 26  1  0
 25 26  1  0
M  END
