SAD-SAT-d8079f6f-10-acrylamide
     RDKit          3D

 14 14  0  0  0  0  0  0  0  0999 V2000
    6.5170   -3.5710   19.9200 C   0  0  0  0  0  0  0  0  0  0  0  0
    6.6020   -2.4900   21.0210 C   0  0  0  0  0  0  0  0  0  0  0  0
    5.6120   -2.8430   22.1390 C   0  0  0  0  0  0  0  0  0  0  0  0
    4.8320   -3.7750   21.9500 O   0  0  0  0  0  0  0  0  0  0  0  0
    5.5640   -2.1410   23.3660 N   0  0  0  0  0  0  0  0  0  0  0  0
    4.5090   -2.5450   24.2590 C   0  0  0  0  0  0  0  0  0  0  0  0
    6.8450   -1.8270   24.0600 C   0  0  0  0  0  0  0  0  0  0  0  0
    4.4940   -3.9960   24.6410 C   0  0  0  0  0  0  0  0  0  0  0  0
    3.5070   -1.6970   24.7830 C   0  0  0  0  0  0  0  0  0  0  0  0
    7.8830   -2.7200   23.7450 C   0  0  0  0  0  0  0  0  0  0  0  0
    6.6470   -1.7290   25.5790 C   0  0  0  0  0  0  0  0  0  0  0  0
    3.3920   -4.5350   25.5680 C   0  0  0  0  0  0  0  0  0  0  0  0
    2.4180   -2.2230   25.6890 C   0  0  0  0  0  0  0  0  0  0  0  0
    2.3400   -3.5410   26.0660 C   0  0  0  0  0  0  0  0  0  0  0  0
  1  2  1  0
  2  3  1  0
  3  4  2  0
  3  5  1  0
  5  6  1  0
  5  7  1  0
  6  8  2  0
  6  9  1  0
  7 10  1  0
  7 11  1  0
  8 12  1  0
  9 13  2  0
 12 14  2  0
 13 14  1  0
M  END
