SAD-SAT-f2e2579e-9-acrylamide
     RDKit          3D

 28 30  0  0  0  0  0  0  0  0999 V2000
    7.8230   -3.1730   19.1320 C   0  0  0  0  0  0  0  0  0  0  0  0
    6.6730   -2.5230   19.3150 C   0  0  0  0  0  0  0  0  0  0  0  0
    5.7830   -3.3860   20.1370 C   0  0  0  0  0  0  0  0  0  0  0  0
    4.9360   -4.0170   19.5340 O   0  0  0  0  0  0  0  0  0  0  0  0
    6.0470   -3.5330   21.5010 N   0  0  0  0  0  0  0  0  0  0  0  0
    7.2110   -2.7660   21.9920 C   0  0  0  0  0  0  0  0  0  0  0  0
    5.8900   -4.8360   22.1490 C   0  0  0  0  0  0  0  0  0  0  0  0
    7.2090   -2.6990   23.5290 C   0  0  0  0  0  0  0  0  0  0  0  0
    5.6370   -4.7020   23.5160 C   0  0  0  0  0  0  0  0  0  0  0  0
    5.9110   -3.2920   24.0640 C   0  0  0  0  0  0  0  0  0  0  0  0
    5.7070   -3.2550   25.5670 C   0  0  0  0  0  0  0  0  0  0  0  0
    5.2900   -4.2690   26.0980 O   0  0  0  0  0  0  0  0  0  0  0  0
    5.9180   -2.1110   26.3530 N   0  0  0  0  0  0  0  0  0  0  0  0
    7.0490   -1.2260   26.3620 C   0  0  0  0  0  0  0  0  0  0  0  0
    4.7200   -1.5120   26.9560 C   0  0  0  0  0  0  0  0  0  0  0  0
    6.5750    0.0590   26.1220 C   0  0  0  0  0  0  0  0  0  0  0  0
    4.9550   -0.8750   28.3530 C   0  0  0  0  0  0  0  0  0  0  0  0
    6.4620    0.8430   27.2670 C   0  0  0  0  0  0  0  0  0  0  0  0
    6.1310    0.0440   28.4560 N   0  0  0  0  0  0  0  0  0  0  0  0
    7.3560   -0.5090   29.5400 S   0  0  0  0  0  0  0  0  0  0  0  0
    6.6560   -0.6710   30.7920 O   0  0  0  0  0  0  0  0  0  0  0  0
    8.0550   -1.6090   28.9320 O   0  0  0  0  0  0  0  0  0  0  0  0
    8.4750    0.7720   29.7890 C   0  0  0  0  0  0  0  0  0  0  0  0
    9.7400    0.6140   30.3220 C   0  0  0  0  0  0  0  0  0  0  0  0
    8.1880    2.5050   29.4190 S   0  0  0  0  0  0  0  0  0  0  0  0
   10.5140    1.7300   30.4730 C   0  0  0  0  0  0  0  0  0  0  0  0
    9.7460    2.9600   29.9900 C   0  0  0  0  0  0  0  0  0  0  0  0
   10.4170    4.7510   30.0170 Br  0  0  0  0  0  0  0  0  0  0  0  0
  1  2  1  0
  2  3  1  0
  3  4  2  0
  3  5  1  0
  5  6  1  0
  5  7  1  0
  6  8  1  0
  7  9  1  0
  8 10  1  0
  9 10  1  0
 10 11  1  0
 11 12  2  0
 11 13  1  0
 13 14  1  0
 13 15  1  0
 14 16  1  0
 15 17  1  0
 16 18  1  0
 17 19  1  0
 18 19  1  0
 19 20  1  0
 20 21  2  0
 20 22  2  0
 20 23  1  0
 23 24  2  0
 23 25  1  0
 24 26  1  0
 25 27  1  0
 26 27  2  0
 27 28  1  0
M  END
