SAD-SAT-1b030f84-6-vinylsulfonamide
     RDKit          3D

 22 23  0  0  0  0  0  0  0  0999 V2000
    7.8460   -5.5160   21.8220 C   0  0  0  0  0  0  0  0  0  0  0  0
    6.8210   -5.7300   22.9850 C   0  0  0  0  0  0  0  0  0  0  0  0
    5.6200   -4.4210   23.0980 S   0  0  0  0  0  0  0  0  0  0  0  0
    4.3430   -4.8120   22.4530 O   0  0  0  0  0  0  0  0  0  0  0  0
    5.6970   -3.8030   24.4090 O   0  0  0  0  0  0  0  0  0  0  0  0
    6.2050   -3.4090   21.9380 N   0  0  0  0  0  0  0  0  0  0  0  0
    5.2340   -3.4840   20.9100 C   0  0  0  0  0  0  0  0  0  0  0  0
    6.4410   -2.0640   22.2400 C   0  0  0  0  0  0  0  0  0  0  0  0
    5.7000   -2.8440   19.3210 S   0  0  0  0  0  0  0  0  0  0  0  0
    7.0340   -1.4790   21.0820 N   0  0  0  0  0  0  0  0  0  0  0  0
    7.2270   -2.4120   20.0200 C   0  0  0  0  0  0  0  0  0  0  0  0
    8.1320   -0.7520   21.4880 C   0  0  0  0  0  0  0  0  0  0  0  0
    8.3640    0.4290   21.2640 O   0  0  0  0  0  0  0  0  0  0  0  0
    9.0740   -1.5650   22.2830 C   0  0  0  0  0  0  0  0  0  0  0  0
    8.7750   -2.7080   22.6390 O   0  0  0  0  0  0  0  0  0  0  0  0
   10.3310   -0.9290   22.6330 C   0  0  0  0  0  0  0  0  0  0  0  0
   10.4690    0.5220   22.7610 C   0  0  0  0  0  0  0  0  0  0  0  0
   11.3540   -1.7620   22.8390 C   0  0  0  0  0  0  0  0  0  0  0  0
   11.7230    1.0010   23.1030 C   0  0  0  0  0  0  0  0  0  0  0  0
   12.5380   -1.2600   23.1890 C   0  0  0  0  0  0  0  0  0  0  0  0
   12.7620    0.1070   23.3200 C   0  0  0  0  0  0  0  0  0  0  0  0
   13.6720   -2.4700   23.4580 Cl  0  0  0  0  0  0  0  0  0  0  0  0
  1  2  1  0
  3  2  1  0
  3  4  2  0
  3  5  2  0
  3  6  1  0
  6  7  1  0
  6  8  1  0
  7  9  1  0
  8 10  1  0
  9 11  1  0
 10 11  1  0
 10 12  1  0
 12 13  2  0
 12 14  1  0
 14 15  2  0
 14 16  1  0
 16 17  2  0
 16 18  1  0
 17 19  1  0
 18 20  2  0
 19 21  2  0
 20 21  1  0
 20 22  1  0
M  END
