SAD-SAT-1f400d17-10-nitrile
     RDKit          3D

 18 19  0  0  0  0  0  0  0  0999 V2000
    6.8820   -3.7740   19.9310 C   0  0  0  0  0  0  0  0  0  0  0  0
    6.4400   -3.1700   18.8800 N   0  0  0  0  0  0  0  0  0  0  0  0
    6.5860   -3.2670   21.2090 N   0  0  0  0  0  0  0  0  0  0  0  0
    6.1460   -1.8560   21.3190 C   0  0  0  0  0  0  0  0  0  0  0  0
    7.2160   -3.8580   22.4430 C   0  0  0  0  0  0  0  0  0  0  0  0
    7.3410   -0.9070   21.2360 C   0  0  0  0  0  0  0  0  0  0  0  0
    7.6730   -2.9090   23.3430 C   0  0  0  0  0  0  0  0  0  0  0  0
    8.6530   -1.6420   21.5300 C   0  0  0  0  0  0  0  0  0  0  0  0
    8.7540   -2.2400   22.8560 N   0  0  0  0  0  0  0  0  0  0  0  0
    9.9740   -2.3180   23.5260 C   0  0  0  0  0  0  0  0  0  0  0  0
   10.4080   -3.3520   24.0280 O   0  0  0  0  0  0  0  0  0  0  0  0
   10.7490   -1.0140   23.5360 C   0  0  0  0  0  0  0  0  0  0  0  0
   12.1510   -1.0180   23.0060 C   0  0  0  0  0  0  0  0  0  0  0  0
   10.1640    0.1550   24.0050 C   0  0  0  0  0  0  0  0  0  0  0  0
   12.8440    0.1950   22.9990 C   0  0  0  0  0  0  0  0  0  0  0  0
   10.9120    1.3240   23.9570 C   0  0  0  0  0  0  0  0  0  0  0  0
   12.2220    1.3540   23.4690 C   0  0  0  0  0  0  0  0  0  0  0  0
   10.3520    2.4530   24.3840 F   0  0  0  0  0  0  0  0  0  0  0  0
  1  2  2  3
  1  3  1  0
  3  4  1  0
  3  5  1  0
  4  6  1  0
  5  7  1  0
  6  8  1  0
  7  9  1  0
  8  9  1  0
  9 10  1  0
 10 11  2  0
 10 12  1  0
 12 13  2  0
 12 14  1  0
 13 15  1  0
 14 16  2  0
 15 17  2  0
 16 17  1  0
 16 18  1  0
M  END
