SAD-SAT-3a925b8b-2-nitrile
     RDKit          3D

 16 17  0  0  0  0  0  0  0  0999 V2000
    6.6080   -4.3200   20.2270 C   0  0  0  0  0  0  0  0  0  0  0  0
    5.4660   -4.0050   19.7580 N   0  0  0  0  0  0  0  0  0  0  0  0
    6.8140   -4.8880   21.4620 N   0  0  0  0  0  0  0  0  0  0  0  0
    7.5640   -4.1970   22.5160 C   0  0  0  0  0  0  0  0  0  0  0  0
    6.1110   -6.1050   21.9030 C   0  0  0  0  0  0  0  0  0  0  0  0
    6.7280   -4.0110   23.7760 C   0  0  0  0  0  0  0  0  0  0  0  0
    5.2130   -5.8760   23.1340 C   0  0  0  0  0  0  0  0  0  0  0  0
    6.0440   -5.2420   24.1660 N   0  0  0  0  0  0  0  0  0  0  0  0
    5.3790   -5.2200   25.7260 S   0  0  0  0  0  0  0  0  0  0  0  0
    6.3540   -4.6500   26.6300 O   0  0  0  0  0  0  0  0  0  0  0  0
    4.7360   -6.4880   25.9870 O   0  0  0  0  0  0  0  0  0  0  0  0
    4.0710   -4.0930   25.7410 C   0  0  0  0  0  0  0  0  0  0  0  0
    2.6780   -4.2890   25.2350 C   0  0  0  0  0  0  0  0  0  0  0  0
    4.0310   -2.7950   26.2150 C   0  0  0  0  0  0  0  0  0  0  0  0
    1.8930   -3.1180   25.4320 C   0  0  0  0  0  0  0  0  0  0  0  0
    2.7630   -2.2280   26.0360 O   0  0  0  0  0  0  0  0  0  0  0  0
  1  2  2  3
  1  3  1  0
  3  4  1  0
  3  5  1  0
  4  6  1  0
  5  7  1  0
  6  8  1  0
  7  8  1  0
  8  9  1  0
  9 10  2  0
  9 11  2  0
  9 12  1  0
 12 13  1  0
 12 14  2  0
 13 15  2  0
 14 16  1  0
 15 16  1  0
M  END
