SAD-SAT-29425be4-11-bromoalkyne
     RDKit          3D

 26 27  0  0  0  0  0  0  0  0999 V2000
    7.2220   -3.4630   19.5380 C   0  0  0  0  0  0  0  0  0  0  0  0
    6.3350   -2.8940   18.4910 C   0  0  0  0  0  0  0  0  0  0  0  0
    6.6170   -3.7570   20.6990 N   0  0  0  0  0  0  0  0  0  0  0  0
    5.6240   -2.7600   21.0700 C   0  0  0  0  0  0  0  0  0  0  0  0
    6.1950   -5.0850   21.1020 C   0  0  0  0  0  0  0  0  0  0  0  0
    5.6730   -2.4760   22.5400 C   0  0  0  0  0  0  0  0  0  0  0  0
    5.6790   -4.9540   22.5220 C   0  0  0  0  0  0  0  0  0  0  0  0
    6.2900   -3.7030   23.1650 C   0  0  0  0  0  0  0  0  0  0  0  0
    7.8230   -3.8060   23.0230 C   0  0  0  0  0  0  0  0  0  0  0  0
    8.2600   -4.9170   22.6960 O   0  0  0  0  0  0  0  0  0  0  0  0
    8.6990   -2.7330   23.2700 N   0  0  0  0  0  0  0  0  0  0  0  0
   10.0770   -3.0060   23.7250 C   0  0  0  0  0  0  0  0  0  0  0  0
    8.5790   -1.4480   22.4360 C   0  0  0  0  0  0  0  0  0  0  0  0
   10.9050   -1.7710   23.5690 C   0  0  0  0  0  0  0  0  0  0  0  0
    9.9360   -1.1220   21.8100 C   0  0  0  0  0  0  0  0  0  0  0  0
    8.1520   -0.1890   23.2360 C   0  0  0  0  0  0  0  0  0  0  0  0
    7.6090   -1.5120   21.2530 C   0  0  0  0  0  0  0  0  0  0  0  0
   10.4640   -0.5510   24.3150 C   0  0  0  0  0  0  0  0  0  0  0  0
   12.0340   -1.6700   22.7560 C   0  0  0  0  0  0  0  0  0  0  0  0
   11.1460    0.6310   24.1550 C   0  0  0  0  0  0  0  0  0  0  0  0
   12.6990   -0.4500   22.6280 C   0  0  0  0  0  0  0  0  0  0  0  0
   12.2450    0.6960   23.3100 C   0  0  0  0  0  0  0  0  0  0  0  0
   12.8880    1.8670   23.1070 O   0  0  0  0  0  0  0  0  0  0  0  0
   11.9570    2.9450   22.8790 C   0  0  0  0  0  0  0  0  0  0  0  0
   12.4780    4.0250   21.9730 C   0  0  0  0  0  0  0  0  0  0  0  0
   13.3800    5.1740   22.3110 C   0  0  0  0  0  0  0  0  0  0  0  0
  1  2  2  3
  1  3  1  0
  3  4  1  0
  3  5  1  0
  4  6  1  0
  5  7  1  0
  6  8  1  0
  7  8  1  0
  8  9  1  0
  9 10  2  0
  9 11  1  0
 11 12  1  0
 13 11  1  0
 12 14  1  0
 13 15  1  0
 13 16  1  0
 13 17  1  0
 14 18  2  0
 14 19  1  0
 18 20  1  0
 19 21  2  0
 20 22  2  0
 21 22  1  0
 22 23  1  0
 23 24  1  0
 24 25  1  0
 25 26  2  3
M  END
