SAD-SAT-135344c3-1
     RDKit          3D

 26 28  0  0  0  0  0  0  0  0999 V2000
    8.9640    0.6700   21.3400 O   0  0  0  0  0  0  0  0  0  0  0  0
    8.4490   -0.4320   21.4530 C   0  0  0  0  0  0  0  0  0  0  0  0
    9.1170   -1.5240   22.1140 N   0  0  0  0  0  0  0  0  0  0  0  0
    7.2040   -0.7950   20.9930 N   0  0  0  0  0  0  0  0  0  0  0  0
    9.8380   -1.3350   23.2840 C   0  0  0  0  0  0  0  0  0  0  0  0
    6.4990   -0.1100   20.0820 C   0  0  0  0  0  0  0  0  0  0  0  0
   10.7520   -0.1600   23.2610 C   0  0  0  0  0  0  0  0  0  0  0  0
    5.1710    0.6420   20.4750 C   0  0  0  0  0  0  0  0  0  0  0  0
    6.9740   -0.0640   18.7390 C   0  0  0  0  0  0  0  0  0  0  0  0
   12.1920   -0.4990   22.8630 C   0  0  0  0  0  0  0  0  0  0  0  0
   10.3210    1.1600   23.5890 C   0  0  0  0  0  0  0  0  0  0  0  0
    4.4130    1.4170   19.4020 C   0  0  0  0  0  0  0  0  0  0  0  0
    6.3550    0.6550   17.5740 N   0  0  0  0  0  0  0  0  0  0  0  0
   13.1650    0.6600   22.8260 C   0  0  0  0  0  0  0  0  0  0  0  0
   11.2480    2.1710   23.5340 C   0  0  0  0  0  0  0  0  0  0  0  0
    8.7130    1.6100   24.0510 S   0  0  0  0  0  0  0  0  0  0  0  0
    5.1890    1.2520   18.1610 C   0  0  0  0  0  0  0  0  0  0  0  0
   12.5570    1.9970   23.1890 C   0  0  0  0  0  0  0  0  0  0  0  0
    7.7830    0.7420   23.3840 O   0  0  0  0  0  0  0  0  0  0  0  0
    8.6230    3.0500   23.9170 O   0  0  0  0  0  0  0  0  0  0  0  0
    8.5600    1.2960   25.7050 N   0  0  0  0  0  0  0  0  0  0  0  0
    8.6610    0.0340   26.0930 C   0  0  0  0  0  0  0  0  0  0  0  0
    7.3790    1.8780   26.3650 C   0  0  0  0  0  0  0  0  0  0  0  0
    7.4220   -0.6090   25.9870 C   0  0  0  0  0  0  0  0  0  0  0  0
    6.9980    1.0320   27.4110 C   0  0  0  0  0  0  0  0  0  0  0  0
    6.6960   -0.2720   26.9100 O   0  0  0  0  0  0  0  0  0  0  0  0
  1  2  2  0
  2  3  1  0
  2  4  1  0
  3  5  1  0
  4  6  1  0
  5  7  1  0
  6  8  2  0
  6  9  1  0
  7 10  2  0
  7 11  1  0
  8 12  1  0
  9 13  2  0
 10 14  1  0
 11 15  2  0
 16 11  1  0
 12 17  2  0
 13 17  1  0
 14 18  2  0
 15 18  1  0
 16 19  2  0
 16 20  2  0
 16 21  1  0
 21 22  1  0
 21 23  1  0
 22 24  1  0
 23 25  1  0
 24 26  1  0
 25 26  1  0
M  END
