SAD-SAT-9a6c5cf3-4-bromoalkyne
     RDKit          3D

 30 33  0  0  0  0  0  0  0  0999 V2000
    6.7250   -3.8700   19.9110 C   0  0  0  0  0  0  0  0  0  0  0  0
    5.6450   -3.4100   19.2720 C   0  0  0  0  0  0  0  0  0  0  0  0
    6.8470   -3.9960   21.2710 N   0  0  0  0  0  0  0  0  0  0  0  0
    7.7880   -3.0660   21.9350 C   0  0  0  0  0  0  0  0  0  0  0  0
    6.4120   -5.1690   22.0280 C   0  0  0  0  0  0  0  0  0  0  0  0
    7.4970   -2.8960   23.4020 C   0  0  0  0  0  0  0  0  0  0  0  0
    5.8760   -4.7860   23.4160 C   0  0  0  0  0  0  0  0  0  0  0  0
    6.0740   -3.2990   23.7570 C   0  0  0  0  0  0  0  0  0  0  0  0
    5.8380   -3.0350   25.2400 C   0  0  0  0  0  0  0  0  0  0  0  0
    4.9450   -3.6300   25.8350 O   0  0  0  0  0  0  0  0  0  0  0  0
    6.6810   -2.0300   25.9330 N   0  0  0  0  0  0  0  0  0  0  0  0
    8.0710   -2.0700   26.0180 C   0  0  0  0  0  0  0  0  0  0  0  0
    6.0120   -1.3280   26.9460 C   0  0  0  0  0  0  0  0  0  0  0  0
    8.6230   -1.0530   26.8360 C   0  0  0  0  0  0  0  0  0  0  0  0
    6.7040   -1.6930   28.2560 C   0  0  0  0  0  0  0  0  0  0  0  0
    8.0970   -1.1720   28.2260 N   0  0  0  0  0  0  0  0  0  0  0  0
    8.3380    0.0860   29.3950 S   0  0  0  0  0  0  0  0  0  0  0  0
    9.6940   -0.0280   29.8480 O   0  0  0  0  0  0  0  0  0  0  0  0
    7.2200   -0.0390   30.3080 O   0  0  0  0  0  0  0  0  0  0  0  0
    8.2140    1.6190   28.6420 C   0  0  0  0  0  0  0  0  0  0  0  0
    7.3170    1.8300   27.5870 C   0  0  0  0  0  0  0  0  0  0  0  0
    9.0370    2.6570   29.1120 C   0  0  0  0  0  0  0  0  0  0  0  0
    7.2360    3.1000   26.9900 C   0  0  0  0  0  0  0  0  0  0  0  0
    8.9100    3.9110   28.4710 C   0  0  0  0  0  0  0  0  0  0  0  0
    9.9320    2.4940   30.1430 N   0  0  0  0  0  0  0  0  0  0  0  0
    8.0340    4.1520   27.4300 C   0  0  0  0  0  0  0  0  0  0  0  0
    9.7890    5.0520   28.9580 C   0  0  0  0  0  0  0  0  0  0  0  0
   10.7440    3.4950   30.6100 C   0  0  0  0  0  0  0  0  0  0  0  0
   10.7570    4.7820   30.1060 C   0  0  0  0  0  0  0  0  0  0  0  0
   11.6410    5.9550   30.5790 C   0  0  0  0  0  0  0  0  0  0  0  0
  1  2  2  3
  1  3  1  0
  3  4  1  0
  3  5  1  0
  4  6  1  0
  5  7  1  0
  6  8  1  0
  7  8  1  0
  8  9  1  0
  9 10  2  0
  9 11  1  0
 11 12  1  0
 11 13  1  0
 12 14  1  0
 13 15  1  0
 14 16  1  0
 15 16  1  0
 16 17  1  0
 17 18  2  0
 17 19  2  0
 17 20  1  0
 20 21  2  0
 20 22  1  0
 21 23  1  0
 22 24  2  0
 22 25  1  0
 23 26  2  0
 24 26  1  0
 24 27  1  0
 25 28  2  0
 27 29  2  0
 28 29  1  0
 29 30  1  0
M  END
