SAD-SAT-f0a2747f-5-bromoalkyne
     RDKit          3D

 19 20  0  0  0  0  0  0  0  0999 V2000
    6.6170   -4.0190   20.1890 C   0  0  0  0  0  0  0  0  0  0  0  0
    5.5980   -3.3070   19.3460 C   0  0  0  0  0  0  0  0  0  0  0  0
    6.3060   -4.5590   21.4840 N   0  0  0  0  0  0  0  0  0  0  0  0
    7.1900   -4.7980   22.6060 C   0  0  0  0  0  0  0  0  0  0  0  0
    8.0650   -5.8550   22.5550 C   0  0  0  0  0  0  0  0  0  0  0  0
    7.2010   -4.0250   23.7810 C   0  0  0  0  0  0  0  0  0  0  0  0
    8.9190   -6.1770   23.5980 C   0  0  0  0  0  0  0  0  0  0  0  0
    8.0620   -4.3410   24.8520 C   0  0  0  0  0  0  0  0  0  0  0  0
    6.0950   -2.6520   23.9020 S   0  0  0  0  0  0  0  0  0  0  0  0
    8.9170   -5.4300   24.7580 C   0  0  0  0  0  0  0  0  0  0  0  0
    4.7530   -3.1720   24.0840 O   0  0  0  0  0  0  0  0  0  0  0  0
    6.4260   -1.7280   22.8350 O   0  0  0  0  0  0  0  0  0  0  0  0
    6.5910   -1.9450   25.3780 N   0  0  0  0  0  0  0  0  0  0  0  0
    9.8150   -5.8110   25.8850 C   0  0  0  0  0  0  0  0  0  0  0  0
    5.5930   -1.9320   26.4740 C   0  0  0  0  0  0  0  0  0  0  0  0
    7.1660   -0.5950   25.2460 C   0  0  0  0  0  0  0  0  0  0  0  0
    5.8970   -0.8570   27.5540 C   0  0  0  0  0  0  0  0  0  0  0  0
    7.5380   -0.1230   26.5140 C   0  0  0  0  0  0  0  0  0  0  0  0
    6.5640    0.1290   27.2370 O   0  0  0  0  0  0  0  0  0  0  0  0
  1  2  2  3
  1  3  1  0
  3  4  1  0
  4  5  2  0
  4  6  1  0
  5  7  1  0
  6  8  2  0
  9  6  1  0
  7 10  2  0
  8 10  1  0
  9 11  2  0
  9 12  2  0
  9 13  1  0
 10 14  1  0
 13 15  1  0
 13 16  1  0
 15 17  1  0
 16 18  1  0
 17 19  1  0
 18 19  1  0
M  END
