SAD-SAT-7d5528d9-35
     RDKit          3D

 23 25  0  0  0  0  0  0  0  0999 V2000
    9.9080   -1.3530   22.1180 C   0  0  0  0  0  0  0  0  0  0  0  0
    9.0200   -0.2450   21.6020 C   0  0  0  0  0  0  0  0  0  0  0  0
    9.3680    0.9370   21.6810 O   0  0  0  0  0  0  0  0  0  0  0  0
    7.8400   -0.7570   21.0770 N   0  0  0  0  0  0  0  0  0  0  0  0
    6.9290   -0.1430   20.1890 C   0  0  0  0  0  0  0  0  0  0  0  0
    7.1860   -0.3340   18.8240 C   0  0  0  0  0  0  0  0  0  0  0  0
    5.8350    0.6090   20.6310 C   0  0  0  0  0  0  0  0  0  0  0  0
    6.2660    0.3040   17.8290 N   0  0  0  0  0  0  0  0  0  0  0  0
    4.9560    1.2130   19.7240 C   0  0  0  0  0  0  0  0  0  0  0  0
    5.4740    0.8590   22.0850 C   0  0  1  0  0  0  0  0  0  0  0  0
    5.2270    1.0270   18.2540 C   0  0  0  0  0  0  0  0  0  0  0  0
    3.9570    0.9630   22.2660 C   0  0  0  0  0  0  0  0  0  0  0  0
    5.8070   -0.4220   22.8860 C   0  0  0  0  0  0  0  0  0  0  0  0
    3.6700    0.1560   23.5230 C   0  0  0  0  0  0  0  0  0  0  0  0
    4.5160   -1.0000   23.2700 N   0  0  0  0  0  0  0  0  0  0  0  0
    4.6790   -2.0460   24.2850 C   0  0  0  0  0  0  0  0  0  0  0  0
    5.4320   -3.1350   23.8430 C   0  0  0  0  0  0  0  0  0  0  0  0
    5.2610   -3.6040   22.5420 C   0  0  0  0  0  0  0  0  0  0  0  0
    6.3550   -3.7540   24.7020 C   0  0  0  0  0  0  0  0  0  0  0  0
    5.9770   -4.7000   22.0280 C   0  0  0  0  0  0  0  0  0  0  0  0
    7.1010   -4.8430   24.2590 C   0  0  0  0  0  0  0  0  0  0  0  0
    6.8930   -5.3300   22.8550 C   0  0  0  0  0  0  0  0  0  0  0  0
    8.2200   -5.5910   25.3100 Cl  0  0  0  0  0  0  0  0  0  0  0  0
  1  2  1  0
  2  3  2  0
  2  4  1  0
  4  5  1  0
  5  6  2  0
  5  7  1  0
  6  8  1  0
  7  9  2  0
 10  7  1  6
  8 11  2  0
  9 11  1  0
 10 12  1  0
 10 13  1  0
 12 14  1  0
 13 15  1  0
 14 15  1  0
 15 16  1  0
 16 17  1  0
 17 18  2  0
 17 19  1  0
 18 20  1  0
 19 21  2  0
 20 22  2  0
 21 22  1  0
 21 23  1  0
M  END
