SAD-SAT-9a6c5cf3-4-chloroacetamide
     RDKit          3D

 31 34  0  0  0  0  0  0  0  0999 V2000
    7.1980   -3.1770   19.1230 C   0  0  0  0  0  0  0  0  0  0  0  0
    6.3790   -3.8020   19.9780 C   0  0  0  0  0  0  0  0  0  0  0  0
    5.2440   -4.1500   19.6850 O   0  0  0  0  0  0  0  0  0  0  0  0
    6.8720   -4.1210   21.2480 N   0  0  0  0  0  0  0  0  0  0  0  0
    6.3400   -5.2260   22.0630 C   0  0  0  0  0  0  0  0  0  0  0  0
    7.7540   -3.1600   21.9060 C   0  0  0  0  0  0  0  0  0  0  0  0
    5.7590   -4.7110   23.3850 C   0  0  0  0  0  0  0  0  0  0  0  0
    7.0530   -2.5970   23.1200 C   0  0  0  0  0  0  0  0  0  0  0  0
    6.6990   -3.7170   24.0970 C   0  0  0  0  0  0  0  0  0  0  0  0
    6.0290   -3.0920   25.3090 C   0  0  0  0  0  0  0  0  0  0  0  0
    4.6730   -3.5430   25.5120 O   0  0  0  0  0  0  0  0  0  0  0  0
    6.7440   -2.1230   26.1420 N   0  0  0  0  0  0  0  0  0  0  0  0
    6.1130   -1.2290   26.9670 C   0  0  0  0  0  0  0  0  0  0  0  0
    8.1330   -2.2210   26.2310 C   0  0  0  0  0  0  0  0  0  0  0  0
    6.6240   -1.2150   28.2670 C   0  0  0  0  0  0  0  0  0  0  0  0
    8.6620   -0.9550   26.9400 C   0  0  0  0  0  0  0  0  0  0  0  0
    7.9440   -0.6310   28.2420 N   0  0  0  0  0  0  0  0  0  0  0  0
    7.8480    1.0150   28.7860 S   0  0  0  0  0  0  0  0  0  0  0  0
    8.4790    1.8370   27.7890 O   0  0  0  0  0  0  0  0  0  0  0  0
    6.4780    1.2610   29.1690 O   0  0  0  0  0  0  0  0  0  0  0  0
    8.7900    1.0780   30.2200 C   0  0  0  0  0  0  0  0  0  0  0  0
   10.1000    1.4830   30.0810 C   0  0  0  0  0  0  0  0  0  0  0  0
    8.2740    0.7410   31.4870 C   0  0  0  0  0  0  0  0  0  0  0  0
   10.9560    1.5630   31.1770 C   0  0  0  0  0  0  0  0  0  0  0  0
    9.1930    0.8340   32.5710 C   0  0  0  0  0  0  0  0  0  0  0  0
    6.9830    0.3420   31.7100 N   0  0  0  0  0  0  0  0  0  0  0  0
   10.5060    1.2320   32.4440 C   0  0  0  0  0  0  0  0  0  0  0  0
    8.7000    0.4690   33.9600 C   0  0  0  0  0  0  0  0  0  0  0  0
    6.5030    0.0110   32.9510 C   0  0  0  0  0  0  0  0  0  0  0  0
    7.2540    0.0310   34.1120 C   0  0  0  0  0  0  0  0  0  0  0  0
    6.7730   -0.3450   35.5250 C   0  0  0  0  0  0  0  0  0  0  0  0
  1  2  1  0
  2  3  2  0
  2  4  1  0
  4  5  1  0
  4  6  1  0
  5  7  1  0
  6  8  1  0
  7  9  1  0
  8  9  1  0
  9 10  1  0
 10 11  2  0
 10 12  1  0
 12 13  1  0
 12 14  1  0
 13 15  1  0
 14 16  1  0
 15 17  1  0
 16 17  1  0
 17 18  1  0
 18 19  2  0
 18 20  2  0
 18 21  1  0
 21 22  2  0
 21 23  1  0
 22 24  1  0
 23 25  2  0
 23 26  1  0
 24 27  2  0
 25 27  1  0
 25 28  1  0
 26 29  2  0
 28 30  2  0
 29 30  1  0
 30 31  1  0
M  END
