SAD-SAT-b55127ae-8-vinylsulfonamide
     RDKit          3D

 25 26  0  0  0  0  0  0  0  0999 V2000
    7.7920   -3.2070   19.1930 C   0  0  0  0  0  0  0  0  0  0  0  0
    7.3360   -3.5150   20.6020 C   0  0  0  0  0  0  0  0  0  0  0  0
    5.6190   -3.7840   20.4250 S   0  0  0  0  0  0  0  0  0  0  0  0
    4.9440   -3.6000   21.6770 O   0  0  0  0  0  0  0  0  0  0  0  0
    5.4020   -5.0170   19.7230 O   0  0  0  0  0  0  0  0  0  0  0  0
    5.1660   -2.5410   19.3490 N   0  0  0  0  0  0  0  0  0  0  0  0
    5.8980   -1.2650   19.3660 C   0  0  0  0  0  0  0  0  0  0  0  0
    5.6320   -0.4330   20.6250 C   0  0  0  0  0  0  0  0  0  0  0  0
    5.7730   -1.2740   21.8980 C   0  0  0  0  0  0  0  0  0  0  0  0
    4.7150   -1.7340   22.3080 O   0  0  0  0  0  0  0  0  0  0  0  0
    7.0920   -1.4580   22.4960 N   0  0  0  0  0  0  0  0  0  0  0  0
    8.1700   -1.0530   21.7410 C   0  0  0  0  0  0  0  0  0  0  0  0
    7.2240   -2.5680   23.4360 C   0  0  0  0  0  0  0  0  0  0  0  0
    9.3320   -1.8510   22.0340 C   0  0  0  0  0  0  0  0  0  0  0  0
    8.4790   -2.6450   24.0660 C   0  0  0  0  0  0  0  0  0  0  0  0
    9.5810   -2.2970   23.3210 N   0  0  0  0  0  0  0  0  0  0  0  0
   10.7020   -1.9650   23.8940 C   0  0  0  0  0  0  0  0  0  0  0  0
   11.4330   -2.8580   24.6020 O   0  0  0  0  0  0  0  0  0  0  0  0
   11.0670   -0.6580   23.7210 C   0  0  0  0  0  0  0  0  0  0  0  0
   10.3170    0.3970   24.2300 C   0  0  0  0  0  0  0  0  0  0  0  0
   12.1790   -0.4180   23.0290 C   0  0  0  0  0  0  0  0  0  0  0  0
   10.5090    1.9100   24.1580 C   0  0  0  0  0  0  0  0  0  0  0  0
   12.5870    0.8190   22.8210 N   0  0  0  0  0  0  0  0  0  0  0  0
   13.1570   -1.6400   22.3540 Cl  0  0  0  0  0  0  0  0  0  0  0  0
   11.8420    1.8500   23.3230 C   0  0  0  0  0  0  0  0  0  0  0  0
  1  2  1  0
  2  3  1  0
  3  4  2  0
  3  5  2  0
  3  6  1  0
  6  7  1  0
  7  8  1  0
  8  9  1  0
  9 10  2  0
  9 11  1  0
 11 12  1  0
 11 13  1  0
 12 14  1  0
 13 15  1  0
 14 16  1  0
 15 16  1  0
 16 17  1  0
 17 18  2  0
 17 19  1  0
 19 20  2  0
 19 21  1  0
 20 22  1  0
 21 23  2  0
 21 24  1  0
 22 25  2  0
 23 25  1  0
M  END
