SAD-SAT-1f400d17-4-acrylamide
     RDKit          3D

 25 26  0  0  0  0  0  0  0  0999 V2000
    7.6820   -3.7820   20.1760 C   0  0  0  0  0  0  0  0  0  0  0  0
    6.6300   -3.1610   19.6330 C   0  0  0  0  0  0  0  0  0  0  0  0
    5.4530   -3.5000   20.5310 C   0  0  0  0  0  0  0  0  0  0  0  0
    4.9860   -4.0750   19.5550 O   0  0  0  0  0  0  0  0  0  0  0  0
    6.2620   -2.7960   21.3870 N   0  0  0  0  0  0  0  0  0  0  0  0
    6.2440   -1.3320   21.3790 C   0  0  0  0  0  0  0  0  0  0  0  0
    6.8070   -3.4440   22.5780 C   0  0  0  0  0  0  0  0  0  0  0  0
    7.6860   -0.7950   21.4890 C   0  0  0  0  0  0  0  0  0  0  0  0
    7.8540   -2.7290   23.1470 C   0  0  0  0  0  0  0  0  0  0  0  0
    8.6060   -1.8380   22.1440 C   0  0  0  0  0  0  0  0  0  0  0  0
    9.7570   -1.2950   22.9260 C   0  0  0  0  0  0  0  0  0  0  0  0
    9.6420   -1.2260   24.1360 O   0  0  0  0  0  0  0  0  0  0  0  0
   10.9230   -0.8890   22.3090 N   0  0  0  0  0  0  0  0  0  0  0  0
   11.8230   -0.0030   23.0150 C   0  0  1  0  0  0  0  0  0  0  0  0
   13.1390   -0.1830   22.6480 C   0  0  0  0  0  0  0  0  0  0  0  0
   11.2400    1.3840   22.8490 C   0  0  0  0  0  0  0  0  0  0  0  0
    9.8520    1.4320   22.6150 C   0  0  0  0  0  0  0  0  0  0  0  0
   11.9280    2.6170   22.9190 C   0  0  0  0  0  0  0  0  0  0  0  0
    9.1700    2.6220   22.4640 C   0  0  0  0  0  0  0  0  0  0  0  0
   11.2770    3.8660   22.7760 C   0  0  0  0  0  0  0  0  0  0  0  0
    9.7670    3.8560   22.5280 C   0  0  0  0  0  0  0  0  0  0  0  0
   12.1150    5.4140   22.8810 S   0  0  0  0  0  0  0  0  0  0  0  0
   10.8900    6.4270   22.3420 N   0  0  0  0  0  0  0  0  0  0  0  0
   13.1730    5.4770   21.8960 O   0  0  0  0  0  0  0  0  0  0  0  0
   12.2980    5.7110   24.2820 O   0  0  0  0  0  0  0  0  0  0  0  0
  1  2  1  0
  2  3  1  0
  3  4  2  0
  3  5  1  0
  5  6  1  0
  5  7  1  0
  6  8  1  0
  7  9  1  0
  8 10  1  0
  9 10  1  0
 10 11  1  0
 11 12  2  0
 11 13  1  0
 13 14  1  0
 14 15  1  6
 14 16  1  0
 16 17  2  0
 16 18  1  0
 17 19  1  0
 18 20  2  0
 19 21  2  0
 20 21  1  0
 20 22  1  0
 22 23  1  0
 22 24  2  0
 22 25  2  0
M  END
