SAD-SAT-d8079f6f-8-chloroacetamide
     RDKit          3D

 11 11  0  0  0  0  0  0  0  0999 V2000
    6.6800   -3.3310   19.6190 C   0  0  0  0  0  0  0  0  0  0  0  0
    5.9390   -4.2930   20.5740 C   0  0  0  0  0  0  0  0  0  0  0  0
    5.3090   -5.2010   20.0440 O   0  0  0  0  0  0  0  0  0  0  0  0
    6.0720   -4.0290   21.9930 N   0  0  0  0  0  0  0  0  0  0  0  0
    7.4040   -4.2240   22.5410 C   0  0  0  0  0  0  0  0  0  0  0  0
    5.2280   -4.3270   23.1630 C   0  0  0  0  0  0  0  0  0  0  0  0
    5.4150   -5.6100   23.6750 C   0  0  0  0  0  0  0  0  0  0  0  0
    4.2730   -3.4760   23.9010 C   0  0  0  0  0  0  0  0  0  0  0  0
    4.7730   -6.0500   24.8160 C   0  0  0  0  0  0  0  0  0  0  0  0
    3.6350   -3.9630   25.0490 C   0  0  0  0  0  0  0  0  0  0  0  0
    3.9060   -5.2360   25.5020 C   0  0  0  0  0  0  0  0  0  0  0  0
  1  2  1  0
  2  3  2  0
  2  4  1  0
  4  5  1  0
  4  6  1  0
  6  7  2  0
  6  8  1  0
  7  9  1  0
  8 10  2  0
  9 11  2  0
 10 11  1  0
M  END
