SAD-SAT-9a6c5cf3-10-acrylamide
     RDKit          3D

 28 30  0  0  0  0  0  0  0  0999 V2000
    7.5570   -2.7720   18.8200 C   0  0  0  0  0  0  0  0  0  0  0  0
    6.2960   -2.9900   19.2020 C   0  0  0  0  0  0  0  0  0  0  0  0
    5.9960   -4.0020   20.2670 C   0  0  0  0  0  0  0  0  0  0  0  0
    5.1510   -4.8280   19.9680 O   0  0  0  0  0  0  0  0  0  0  0  0
    6.6550   -4.0070   21.4990 N   0  0  0  0  0  0  0  0  0  0  0  0
    6.4130   -5.1160   22.4260 C   0  0  0  0  0  0  0  0  0  0  0  0
    7.4160   -2.8670   21.9930 C   0  0  0  0  0  0  0  0  0  0  0  0
    5.8180   -4.6150   23.7650 C   0  0  0  0  0  0  0  0  0  0  0  0
    6.8840   -2.3560   23.3500 C   0  0  0  0  0  0  0  0  0  0  0  0
    6.6170   -3.4610   24.4070 C   0  0  0  0  0  0  0  0  0  0  0  0
    5.9120   -2.9000   25.6680 C   0  0  0  0  0  0  0  0  0  0  0  0
    4.7180   -3.1590   25.8050 O   0  0  0  0  0  0  0  0  0  0  0  0
    6.5860   -2.1120   26.6660 N   0  0  0  0  0  0  0  0  0  0  0  0
    6.0740   -1.8320   28.0290 C   0  0  0  0  0  0  0  0  0  0  0  0
    7.3060   -0.9100   26.3550 C   0  0  0  0  0  0  0  0  0  0  0  0
    6.2890   -0.4900   28.4640 C   0  0  0  0  0  0  0  0  0  0  0  0
    6.4010    0.1440   26.2030 C   0  0  0  0  0  0  0  0  0  0  0  0
    5.8390    0.4290   27.5350 N   0  0  0  0  0  0  0  0  0  0  0  0
    6.0900    2.0700   27.9780 S   0  0  0  0  0  0  0  0  0  0  0  0
    5.5860    2.8510   26.8710 O   0  0  0  0  0  0  0  0  0  0  0  0
    7.4520    2.1910   28.4470 O   0  0  0  0  0  0  0  0  0  0  0  0
    5.0840    2.2560   29.3460 C   0  0  0  0  0  0  0  0  0  0  0  0
    3.9270    1.4500   29.4880 C   0  0  0  0  0  0  0  0  0  0  0  0
    5.3640    3.1950   30.3550 C   0  0  0  0  0  0  0  0  0  0  0  0
    3.0380    1.5330   30.5830 C   0  0  0  0  0  0  0  0  0  0  0  0
    4.5080    3.3040   31.4490 C   0  0  0  0  0  0  0  0  0  0  0  0
    6.4340    4.0000   30.3040 F   0  0  0  0  0  0  0  0  0  0  0  0
    3.2580    2.4480   31.6220 C   0  0  0  0  0  0  0  0  0  0  0  0
  1  2  1  0
  2  3  1  0
  3  4  2  0
  3  5  1  0
  5  6  1  0
  5  7  1  0
  6  8  1  0
  7  9  1  0
  8 10  1  0
  9 10  1  0
 10 11  1  0
 11 12  2  0
 11 13  1  0
 13 14  1  0
 13 15  1  0
 14 16  1  0
 15 17  1  0
 16 18  1  0
 17 18  1  0
 18 19  1  0
 19 20  2  0
 19 21  2  0
 19 22  1  0
 22 23  2  0
 22 24  1  0
 23 25  1  0
 24 26  2  0
 24 27  1  0
 25 28  2  0
 26 28  1  0
M  END
