SAD-SAT-29425be4-6-nitrile
     RDKit          3D

 26 27  0  0  0  0  0  0  0  0999 V2000
    6.7190   -4.0460   19.8790 C   0  0  0  0  0  0  0  0  0  0  0  0
    6.4570   -3.3710   18.8210 N   0  0  0  0  0  0  0  0  0  0  0  0
    6.7420   -3.4890   21.0980 N   0  0  0  0  0  0  0  0  0  0  0  0
    5.5840   -2.6860   21.4480 C   0  0  0  0  0  0  0  0  0  0  0  0
    7.9930   -2.9390   21.5910 C   0  0  0  0  0  0  0  0  0  0  0  0
    6.0380   -1.3770   22.0720 C   0  0  0  0  0  0  0  0  0  0  0  0
    8.2100   -1.7510   20.9020 C   0  0  0  0  0  0  0  0  0  0  0  0
    7.1850   -0.7000   21.3100 C   0  0  0  0  0  0  0  0  0  0  0  0
    7.8190    0.4270   22.1510 C   0  0  0  0  0  0  0  0  0  0  0  0
    7.0600    1.0760   22.8790 O   0  0  0  0  0  0  0  0  0  0  0  0
    9.2120    0.7290   22.0890 N   0  0  0  0  0  0  0  0  0  0  0  0
    9.6930    2.1050   22.3940 C   0  0  0  0  0  0  0  0  0  0  0  0
   11.2040    2.3810   22.6900 C   0  0  0  0  0  0  0  0  0  0  0  0
   12.2650    1.0020   23.0930 S   0  0  0  0  0  0  0  0  0  0  0  0
   12.7200    1.2100   24.3710 O   0  0  0  0  0  0  0  0  0  0  0  0
   13.1310    0.4880   22.0800 O   0  0  0  0  0  0  0  0  0  0  0  0
   11.3130   -0.3220   23.5270 C   0  0  0  0  0  0  0  0  0  0  0  0
   11.6040   -1.6610   22.9580 C   0  0  0  0  0  0  0  0  0  0  0  0
   10.3070   -0.1000   24.4090 C   0  0  0  0  0  0  0  0  0  0  0  0
   10.7970   -2.7030   23.3620 C   0  0  0  0  0  0  0  0  0  0  0  0
    9.5400   -1.1670   24.7740 C   0  0  0  0  0  0  0  0  0  0  0  0
    9.7570   -2.4610   24.2750 C   0  0  0  0  0  0  0  0  0  0  0  0
    8.9070   -3.4460   24.7120 C   0  0  0  0  0  0  0  0  0  0  0  0
    8.8930   -3.9330   26.1420 C   0  0  0  0  0  0  0  0  0  0  0  0
    9.0640   -4.7080   23.8710 C   0  0  0  0  0  0  0  0  0  0  0  0
    7.5700   -2.8350   24.3150 C   0  0  0  0  0  0  0  0  0  0  0  0
  1  2  2  3
  1  3  1  0
  3  4  1  0
  3  5  1  0
  4  6  1  0
  5  7  1  0
  6  8  1  0
  7  8  1  0
  8  9  1  0
  9 10  2  0
  9 11  1  0
 11 12  1  0
 12 13  1  0
 14 13  1  0
 14 15  2  0
 14 16  2  0
 14 17  1  0
 17 18  2  0
 17 19  1  0
 18 20  1  0
 19 21  2  0
 20 22  2  0
 21 22  1  0
 22 23  1  0
 23 24  1  0
 23 25  1  0
 23 26  1  0
M  END
