SAD-SAT-9a6c5cf3-1-bromoalkyne
     RDKit          3D

 34 37  0  0  0  0  0  0  0  0999 V2000
    6.7950   -3.8990   19.9660 C   0  0  0  0  0  0  0  0  0  0  0  0
    5.6620   -3.5090   19.3850 C   0  0  0  0  0  0  0  0  0  0  0  0
    6.9810   -4.0820   21.3190 N   0  0  0  0  0  0  0  0  0  0  0  0
    7.7800   -3.0890   22.0690 C   0  0  0  0  0  0  0  0  0  0  0  0
    6.4490   -5.1900   22.0940 C   0  0  0  0  0  0  0  0  0  0  0  0
    7.0240   -2.5400   23.2740 C   0  0  0  0  0  0  0  0  0  0  0  0
    5.6670   -4.6370   23.2890 C   0  0  0  0  0  0  0  0  0  0  0  0
    6.4730   -3.6560   24.1710 C   0  0  0  0  0  0  0  0  0  0  0  0
    5.5270   -3.0880   25.2380 C   0  0  0  0  0  0  0  0  0  0  0  0
    4.3290   -3.3100   25.1240 O   0  0  0  0  0  0  0  0  0  0  0  0
    5.9920   -2.3000   26.4030 N   0  0  0  0  0  0  0  0  0  0  0  0
    5.0810   -2.1150   27.4650 C   0  0  0  0  0  0  0  0  0  0  0  0
    6.9600   -1.3140   26.1850 C   0  0  0  0  0  0  0  0  0  0  0  0
    4.7520   -0.7880   27.9140 C   0  0  0  0  0  0  0  0  0  0  0  0
    6.2210    0.0020   26.1330 C   0  0  0  0  0  0  0  0  0  0  0  0
    5.7510    0.2560   27.5240 N   0  0  0  0  0  0  0  0  0  0  0  0
    6.8520    0.5360   28.3430 C   0  0  0  0  0  0  0  0  0  0  0  0
    7.6260    1.6670   28.0840 C   0  0  0  0  0  0  0  0  0  0  0  0
    7.2140   -0.2840   29.4110 C   0  0  0  0  0  0  0  0  0  0  0  0
    8.7510    1.9650   28.8860 C   0  0  0  0  0  0  0  0  0  0  0  0
    8.3420    0.0340   30.1910 C   0  0  0  0  0  0  0  0  0  0  0  0
    6.4450   -1.4690   29.7300 N   0  0  0  0  0  0  0  0  0  0  0  0
    9.1670    1.1700   29.9680 C   0  0  0  0  0  0  0  0  0  0  0  0
    6.8500   -2.5280   29.2370 O   0  0  0  0  0  0  0  0  0  0  0  0
    5.5960   -1.4050   30.6330 O   0  0  0  0  0  0  0  0  0  0  0  0
   10.6040    1.5550   30.9550 S   0  0  0  0  0  0  0  0  0  0  0  0
   11.3770    0.3460   31.0580 O   0  0  0  0  0  0  0  0  0  0  0  0
   11.1760    2.7820   30.4560 O   0  0  0  0  0  0  0  0  0  0  0  0
   10.0010    1.8850   32.4920 N   0  0  0  0  0  0  0  0  0  0  0  0
   10.5130    1.0050   33.5920 C   0  0  0  0  0  0  0  0  0  0  0  0
   10.1190    3.3200   32.9140 C   0  0  0  0  0  0  0  0  0  0  0  0
    9.7880    1.2590   34.9180 C   0  0  0  0  0  0  0  0  0  0  0  0
   10.5610    3.4540   34.3870 C   0  0  0  0  0  0  0  0  0  0  0  0
    9.8050    2.6400   35.3000 O   0  0  0  0  0  0  0  0  0  0  0  0
  1  2  2  3
  1  3  1  0
  3  4  1  0
  3  5  1  0
  4  6  1  0
  5  7  1  0
  6  8  1  0
  7  8  1  0
  8  9  1  0
  9 10  2  0
  9 11  1  0
 11 12  1  0
 11 13  1  0
 12 14  1  0
 13 15  1  0
 14 16  1  0
 15 16  1  0
 16 17  1  0
 17 18  2  0
 17 19  1  0
 18 20  1  0
 19 21  2  0
 19 22  1  0
 20 23  2  0
 21 23  1  0
 22 24  2  0
 22 25  1  0
 26 23  1  0
 26 27  2  0
 26 28  2  0
 26 29  1  0
 29 30  1  0
 29 31  1  0
 30 32  1  0
 31 33  1  0
 32 34  1  0
 33 34  1  0
M  CHG  2  22   1  25  -1
M  END
