SAD-SAT-29425be4-25-bromoalkyne
     RDKit          3D

 29 31  0  0  0  0  0  0  0  0999 V2000
    7.5150   -3.4420   19.4050 C   0  0  0  0  0  0  0  0  0  0  0  0
    6.3660   -2.9230   18.5970 C   0  0  0  0  0  0  0  0  0  0  0  0
    7.2710   -3.9860   20.5820 N   0  0  0  0  0  0  0  0  0  0  0  0
    8.0160   -3.4720   21.6950 C   0  0  0  0  0  0  0  0  0  0  0  0
    5.9000   -4.4140   20.8560 C   0  0  0  0  0  0  0  0  0  0  0  0
    7.2130   -2.1610   21.7480 C   0  0  0  0  0  0  0  0  0  0  0  0
    5.3640   -3.9520   22.0460 C   0  0  0  0  0  0  0  0  0  0  0  0
    6.1320   -2.7680   22.6470 C   0  0  0  0  0  0  0  0  0  0  0  0
    7.1070   -3.3070   23.6810 C   0  0  0  0  0  0  0  0  0  0  0  0
    6.8550   -4.3020   24.3670 O   0  0  0  0  0  0  0  0  0  0  0  0
    8.2580   -2.5690   23.7350 N   0  0  0  0  0  0  0  0  0  0  0  0
    9.5270   -3.1500   24.1460 C   0  0  1  0  0  0  0  0  0  0  0  0
   10.4960   -2.0080   23.8120 C   0  0  0  0  0  0  0  0  0  0  0  0
    9.1330   -3.6420   25.5800 C   0  0  0  0  0  0  0  0  0  0  0  0
   10.2730   -0.6960   24.4880 C   0  0  0  0  0  0  0  0  0  0  0  0
   11.5850   -2.0480   22.8850 C   0  0  0  0  0  0  0  0  0  0  0  0
   10.0500   -4.6070   26.3460 C   0  0  0  0  0  0  0  0  0  0  0  0
    7.9020   -3.1980   26.1400 C   0  0  0  0  0  0  0  0  0  0  0  0
   11.1550    0.4180   24.1230 C   0  0  0  0  0  0  0  0  0  0  0  0
   12.3840   -0.9130   22.6020 C   0  0  0  0  0  0  0  0  0  0  0  0
    9.6040   -5.0940   27.7320 C   0  0  0  0  0  0  0  0  0  0  0  0
    7.4100   -3.6680   27.5430 C   0  0  0  0  0  0  0  0  0  0  0  0
   12.1460    0.3120   23.2160 C   0  0  0  0  0  0  0  0  0  0  0  0
    8.2760   -4.6180   28.3160 C   0  0  0  0  0  0  0  0  0  0  0  0
    6.0940   -3.2230   28.1580 C   0  0  0  0  0  0  0  0  0  0  0  0
   12.9850    1.7350   22.9130 Cl  0  0  0  0  0  0  0  0  0  0  0  0
    5.3950   -4.3790   28.8450 C   0  0  0  0  0  0  0  0  0  0  0  0
    5.1710   -2.6560   27.0550 C   0  0  0  0  0  0  0  0  0  0  0  0
    6.2550   -2.1080   29.2130 C   0  0  0  0  0  0  0  0  0  0  0  0
  1  2  2  3
  1  3  1  0
  3  4  1  0
  3  5  1  0
  4  6  1  0
  5  7  1  0
  6  8  1  0
  7  8  1  0
  8  9  1  0
  9 10  2  0
  9 11  1  0
 12 11  1  1
 12 13  1  0
 12 14  1  0
 13 15  2  0
 13 16  1  0
 14 17  2  0
 14 18  1  0
 15 19  1  0
 16 20  2  0
 17 21  1  0
 18 22  2  0
 19 23  2  0
 20 23  1  0
 21 24  2  0
 22 24  1  0
 22 25  1  0
 23 26  1  0
 25 27  1  0
 25 28  1  0
 25 29  1  0
M  END
