SAD-SAT-29425be4-20-acrylamide
     RDKit          3D

 24 25  0  0  0  0  0  0  0  0999 V2000
    7.9370   -3.2950   19.0950 C   0  0  0  0  0  0  0  0  0  0  0  0
    6.7600   -2.3700   19.0230 C   0  0  0  0  0  0  0  0  0  0  0  0
    5.8100   -2.8220   20.0630 C   0  0  0  0  0  0  0  0  0  0  0  0
    4.9340   -3.6070   19.7360 O   0  0  0  0  0  0  0  0  0  0  0  0
    6.0610   -2.3800   21.3410 N   0  0  0  0  0  0  0  0  0  0  0  0
    6.9680   -1.2690   21.6610 C   0  0  0  0  0  0  0  0  0  0  0  0
    5.8160   -3.2190   22.5080 C   0  0  0  0  0  0  0  0  0  0  0  0
    8.4100   -1.8950   21.6700 C   0  0  0  0  0  0  0  0  0  0  0  0
    7.0050   -3.1230   23.4650 C   0  0  0  0  0  0  0  0  0  0  0  0
    8.2870   -3.0930   22.6420 C   0  0  0  0  0  0  0  0  0  0  0  0
    9.5550   -2.9610   23.5240 C   0  0  0  0  0  0  0  0  0  0  0  0
   10.1210   -3.8560   24.1120 O   0  0  0  0  0  0  0  0  0  0  0  0
    9.9620   -1.5650   23.4960 N   0  0  0  0  0  0  0  0  0  0  0  0
    8.9730   -0.4950   23.5640 C   0  0  0  0  0  0  0  0  0  0  0  0
    9.5280    0.5390   24.4670 C   0  0  0  0  0  0  0  0  0  0  0  0
    8.7930    1.8730   24.5300 C   0  0  0  0  0  0  0  0  0  0  0  0
    9.5640   -0.0380   25.8610 C   0  0  0  0  0  0  0  0  0  0  0  0
   10.8810    0.6890   23.8700 C   0  0  0  0  0  0  0  0  0  0  0  0
   11.5020    1.9060   23.6920 C   0  0  0  0  0  0  0  0  0  0  0  0
   11.5520   -0.6010   23.4240 C   0  0  0  0  0  0  0  0  0  0  0  0
   12.8280    1.8380   23.0640 C   0  0  0  0  0  0  0  0  0  0  0  0
   12.7570   -0.7050   22.8420 C   0  0  0  0  0  0  0  0  0  0  0  0
   13.4900    0.5620   22.6340 C   0  0  0  0  0  0  0  0  0  0  0  0
   13.3240   -2.0510   22.4160 C   0  0  0  0  0  0  0  0  0  0  0  0
  1  2  1  0
  2  3  1  0
  3  4  2  0
  3  5  1  0
  5  6  1  0
  5  7  1  0
  6  8  1  0
  7  9  1  0
  8 10  1  0
  9 10  1  0
 10 11  1  0
 11 12  2  0
 11 13  1  0
 13 14  1  0
 15 14  1  0
 15 16  1  0
 15 17  1  0
 15 18  1  0
 18 19  2  0
 18 20  1  0
 19 21  1  0
 20 22  2  0
 21 23  2  0
 22 23  1  0
 22 24  1  0
M  END
