SAD-SAT-c989feaa-5-acrylamide
     RDKit          3D

 22 23  0  0  0  0  0  0  0  0999 V2000
    7.8560   -3.0710   18.8540 C   0  0  0  0  0  0  0  0  0  0  0  0
    6.5350   -2.3800   18.7960 C   0  0  0  0  0  0  0  0  0  0  0  0
    5.7570   -2.9020   19.9430 C   0  0  0  0  0  0  0  0  0  0  0  0
    5.0110   -3.8420   19.7210 O   0  0  0  0  0  0  0  0  0  0  0  0
    6.0000   -2.3720   21.2110 N   0  0  0  0  0  0  0  0  0  0  0  0
    7.0080   -1.3070   21.3730 C   0  0  0  0  0  0  0  0  0  0  0  0
    5.8140   -3.2690   22.3560 C   0  0  0  0  0  0  0  0  0  0  0  0
    8.3570   -1.8130   21.8850 C   0  0  0  0  0  0  0  0  0  0  0  0
    6.9740   -3.3450   23.4010 C   0  0  2  0  0  0  0  0  0  0  0  0
    8.2630   -2.6530   23.0830 N   0  0  0  0  0  0  0  0  0  0  0  0
    7.1660   -4.8390   23.7980 C   0  0  0  0  0  0  0  0  0  0  0  0
    9.1450   -2.4020   24.1390 C   0  0  0  0  0  0  0  0  0  0  0  0
    6.0330   -5.8550   23.4620 C   0  0  0  0  0  0  0  0  0  0  0  0
   10.2570   -1.5060   23.8580 C   0  0  0  0  0  0  0  0  0  0  0  0
    6.2570   -6.6810   22.3960 N   0  0  0  0  0  0  0  0  0  0  0  0
    4.9960   -5.9310   24.1110 O   0  0  0  0  0  0  0  0  0  0  0  0
   10.5350   -0.2240   24.4890 C   0  0  0  0  0  0  0  0  0  0  0  0
   11.1290   -1.9620   22.8640 C   0  0  0  0  0  0  0  0  0  0  0  0
   11.6370    0.5250   24.1050 C   0  0  0  0  0  0  0  0  0  0  0  0
   12.3360   -1.1590   22.4360 C   0  0  0  0  0  0  0  0  0  0  0  0
   12.5420    0.1520   23.1430 C   0  0  0  0  0  0  0  0  0  0  0  0
   13.3490   -1.7460   21.2210 Cl  0  0  0  0  0  0  0  0  0  0  0  0
  1  2  1  0
  2  3  1  0
  3  4  2  0
  3  5  1  0
  5  6  1  0
  5  7  1  0
  6  8  1  0
  7  9  1  0
  8 10  1  0
  9 10  1  0
  9 11  1  6
 10 12  1  0
 11 13  1  0
 12 14  1  0
 13 15  1  0
 13 16  2  0
 14 17  2  0
 14 18  1  0
 17 19  1  0
 18 20  2  0
 19 21  2  0
 20 21  1  0
 20 22  1  0
M  END
