SAD-SAT-f2e2579e-7-chloroacetamide
     RDKit          3D

 31 34  0  0  0  0  0  0  0  0999 V2000
    7.3160   -3.1840   19.2220 C   0  0  0  0  0  0  0  0  0  0  0  0
    6.4630   -3.7650   20.0930 C   0  0  0  0  0  0  0  0  0  0  0  0
    5.3780   -4.2390   19.7680 O   0  0  0  0  0  0  0  0  0  0  0  0
    6.8560   -3.8540   21.4410 N   0  0  0  0  0  0  0  0  0  0  0  0
    7.8360   -2.9520   22.0740 C   0  0  0  0  0  0  0  0  0  0  0  0
    6.3290   -4.9450   22.2640 C   0  0  0  0  0  0  0  0  0  0  0  0
    7.3440   -2.4410   23.4350 C   0  0  0  0  0  0  0  0  0  0  0  0
    5.6870   -4.4110   23.3990 C   0  0  0  0  0  0  0  0  0  0  0  0
    6.6490   -3.5430   24.2540 C   0  0  0  0  0  0  0  0  0  0  0  0
    5.9390   -2.9670   25.5160 C   0  0  0  0  0  0  0  0  0  0  0  0
    4.5740   -3.4270   25.5940 O   0  0  0  0  0  0  0  0  0  0  0  0
    6.5830   -2.0530   26.5210 N   0  0  0  0  0  0  0  0  0  0  0  0
    6.1290   -1.8410   27.8640 C   0  0  0  0  0  0  0  0  0  0  0  0
    7.3120   -0.9220   26.1650 C   0  0  0  0  0  0  0  0  0  0  0  0
    6.2590   -0.5400   28.4580 C   0  0  0  0  0  0  0  0  0  0  0  0
    6.3520    0.2510   26.0740 C   0  0  0  0  0  0  0  0  0  0  0  0
    5.9400    0.5360   27.4830 N   0  0  0  0  0  0  0  0  0  0  0  0
    4.5930    1.5750   27.7460 S   0  0  0  0  0  0  0  0  0  0  0  0
    5.1610    2.8200   28.2150 O   0  0  0  0  0  0  0  0  0  0  0  0
    3.7590    1.5200   26.5700 O   0  0  0  0  0  0  0  0  0  0  0  0
    3.7250    0.8800   29.0460 C   0  0  0  0  0  0  0  0  0  0  0  0
    4.1450    1.0360   30.3730 C   0  0  0  0  0  0  0  0  0  0  0  0
    2.5600    0.1370   28.8030 C   0  0  0  0  0  0  0  0  0  0  0  0
    3.4090    0.4550   31.4300 C   0  0  0  0  0  0  0  0  0  0  0  0
    1.7630   -0.4920   29.9460 C   0  0  0  0  0  0  0  0  0  0  0  0
    2.2400   -0.2960   31.2340 C   0  0  0  0  0  0  0  0  0  0  0  0
    0.6380   -1.2020   29.6220 O   0  0  0  0  0  0  0  0  0  0  0  0
   -0.3990   -1.0830   30.5970 C   0  0  0  0  0  0  0  0  0  0  0  0
    1.6400   -0.7940   32.3590 O   0  0  0  0  0  0  0  0  0  0  0  0
   -0.2630   -2.1190   31.7310 C   0  0  0  0  0  0  0  0  0  0  0  0
    1.1980   -2.1410   32.1990 C   0  0  0  0  0  0  0  0  0  0  0  0
  1  2  1  0
  2  3  2  0
  2  4  1  0
  4  5  1  0
  4  6  1  0
  5  7  1  0
  6  8  1  0
  7  9  1  0
  8  9  1  0
  9 10  1  0
 10 11  2  0
 10 12  1  0
 12 13  1  0
 12 14  1  0
 13 15  1  0
 14 16  1  0
 15 17  1  0
 16 17  1  0
 17 18  1  0
 18 19  2  0
 18 20  2  0
 18 21  1  0
 21 22  2  0
 21 23  1  0
 22 24  1  0
 23 25  2  0
 24 26  2  0
 25 26  1  0
 25 27  1  0
 27 28  1  0
 26 29  1  0
 28 30  1  0
 29 31  1  0
 30 31  1  0
M  END
