SAD-SAT-c989feaa-1-vinylsulfonamide
     RDKit          3D

 23 24  0  0  0  0  0  0  0  0999 V2000
    7.6290   -2.9770   18.3500 C   0  0  0  0  0  0  0  0  0  0  0  0
    7.1610   -2.4130   19.6290 C   0  0  0  0  0  0  0  0  0  0  0  0
    6.3080   -3.6480   20.5660 S   0  0  0  0  0  0  0  0  0  0  0  0
    5.1370   -4.0980   19.8320 O   0  0  0  0  0  0  0  0  0  0  0  0
    7.1860   -4.6290   21.1990 O   0  0  0  0  0  0  0  0  0  0  0  0
    5.9210   -2.5730   21.7890 N   0  0  0  0  0  0  0  0  0  0  0  0
    5.9660   -3.1600   23.1110 C   0  0  0  0  0  0  0  0  0  0  0  0
    6.6620   -1.3000   21.6870 C   0  0  0  0  0  0  0  0  0  0  0  0
    7.3990   -3.4790   23.5340 C   0  0  0  0  0  0  0  0  0  0  0  0
    7.9400   -1.1930   22.5630 C   0  0  2  0  0  0  0  0  0  0  0  0
    8.4120   -2.4790   23.1590 N   0  0  0  0  0  0  0  0  0  0  0  0
    7.8400   -0.0510   23.6010 C   0  0  0  0  0  0  0  0  0  0  0  0
    9.4870   -2.3980   24.0360 C   0  0  0  0  0  0  0  0  0  0  0  0
    8.2250    1.3740   23.1150 C   0  0  0  0  0  0  0  0  0  0  0  0
   10.5800   -1.5040   23.7200 C   0  0  0  0  0  0  0  0  0  0  0  0
    8.9330    1.4850   21.7440 C   0  0  0  0  0  0  0  0  0  0  0  0
    9.1160    2.0300   24.1760 C   0  0  0  0  0  0  0  0  0  0  0  0
   10.8300   -0.1950   24.3020 C   0  0  0  0  0  0  0  0  0  0  0  0
   11.4910   -1.9360   22.7530 C   0  0  0  0  0  0  0  0  0  0  0  0
   11.8890    0.7150   24.0070 C   0  0  0  0  0  0  0  0  0  0  0  0
   12.6650   -1.0510   22.3610 C   0  0  0  0  0  0  0  0  0  0  0  0
   12.7780    0.2900   23.0640 C   0  0  0  0  0  0  0  0  0  0  0  0
   13.5510   -1.4340   21.4390 F   0  0  0  0  0  0  0  0  0  0  0  0
  1  2  1  0
  3  2  1  0
  3  4  2  0
  3  5  2  0
  3  6  1  0
  6  7  1  0
  6  8  1  0
  7  9  1  0
  8 10  1  0
  9 11  1  0
 10 11  1  0
 10 12  1  1
 11 13  1  0
 12 14  1  0
 13 15  1  0
 14 16  1  0
 14 17  1  0
 15 18  2  0
 15 19  1  0
 18 20  1  0
 19 21  2  0
 20 22  2  0
 21 22  1  0
 21 23  1  0
M  END
