SAD-SAT-1f400d17-4-vinylsulfonamide
     RDKit          3D

 26 27  0  0  0  0  0  0  0  0999 V2000
    7.6180   -4.0770   20.2020 C   0  0  0  0  0  0  0  0  0  0  0  0
    7.1270   -4.0240   21.4160 C   0  0  0  0  0  0  0  0  0  0  0  0
    5.4010   -3.9280   21.1550 S   0  0  0  0  0  0  0  0  0  0  0  0
    4.8300   -4.9920   21.9230 O   0  0  0  0  0  0  0  0  0  0  0  0
    5.0760   -3.8320   19.7380 O   0  0  0  0  0  0  0  0  0  0  0  0
    5.0370   -2.4390   21.8730 N   0  0  0  0  0  0  0  0  0  0  0  0
    5.6310   -2.2810   23.2220 C   0  0  0  0  0  0  0  0  0  0  0  0
    5.3300   -1.3630   20.9610 C   0  0  0  0  0  0  0  0  0  0  0  0
    6.6970   -1.1600   23.3800 C   0  0  0  0  0  0  0  0  0  0  0  0
    6.8350   -1.2880   20.8740 C   0  0  0  0  0  0  0  0  0  0  0  0
    7.4020   -0.6170   22.1070 C   0  0  0  0  0  0  0  0  0  0  0  0
    8.9130   -0.8410   22.1550 C   0  0  0  0  0  0  0  0  0  0  0  0
    9.6340   -0.0800   21.5280 O   0  0  0  0  0  0  0  0  0  0  0  0
    9.4720   -1.9370   22.9680 N   0  0  0  0  0  0  0  0  0  0  0  0
   10.7830   -1.7910   23.4580 C   0  0  1  0  0  0  0  0  0  0  0  0
   11.8600   -2.2710   22.7030 C   0  0  0  0  0  0  0  0  0  0  0  0
   10.8540   -0.2970   23.6020 C   0  0  0  0  0  0  0  0  0  0  0  0
    9.8390    0.2440   24.3950 C   0  0  0  0  0  0  0  0  0  0  0  0
   11.8510    0.5310   22.9740 C   0  0  0  0  0  0  0  0  0  0  0  0
    9.8250    1.6180   24.5410 C   0  0  0  0  0  0  0  0  0  0  0  0
   11.7560    2.0790   23.1920 C   0  0  0  0  0  0  0  0  0  0  0  0
   10.7240    2.4730   23.9730 C   0  0  0  0  0  0  0  0  0  0  0  0
   12.7960    3.3940   22.5640 S   0  0  0  0  0  0  0  0  0  0  0  0
   11.9840    3.9950   21.2260 N   0  0  0  0  0  0  0  0  0  0  0  0
   14.0460    2.8610   22.1380 O   0  0  0  0  0  0  0  0  0  0  0  0
   12.7140    4.5020   23.4860 O   0  0  0  0  0  0  0  0  0  0  0  0
  1  2  1  0
  3  2  1  0
  3  4  2  0
  3  5  2  0
  3  6  1  0
  6  7  1  0
  6  8  1  0
  7  9  1  0
  8 10  1  0
  9 11  1  0
 10 11  1  0
 11 12  1  0
 12 13  2  0
 12 14  1  0
 14 15  1  0
 15 16  1  6
 15 17  1  0
 17 18  2  0
 17 19  1  0
 18 20  1  0
 19 21  2  0
 20 22  2  0
 21 22  1  0
 21 23  1  0
 23 24  1  0
 23 25  2  0
 23 26  2  0
M  END
