SAD-SAT-24589cd1-10
     RDKit          3D

 24 26  0  0  0  0  0  0  0  0999 V2000
   -2.3770  -26.4850   -5.7030 N   0  0  0  0  0  0  0  0  0  0  0  0
   -1.5320  -26.4700   -4.9060 C   0  0  0  0  0  0  0  0  0  0  0  0
   -0.4870  -26.4630   -3.9240 C   0  0  0  0  0  0  0  0  0  0  0  0
    0.8300  -26.2210   -4.3230 C   0  0  0  0  0  0  0  0  0  0  0  0
   -0.8090  -26.7010   -2.5770 C   0  0  0  0  0  0  0  0  0  0  0  0
    1.9530  -26.2110   -3.2900 C   0  0  0  0  0  0  0  0  0  0  0  0
    0.1610  -26.7090   -1.5570 C   0  0  0  0  0  0  0  0  0  0  0  0
    1.5150  -26.4790   -1.8430 C   0  0  0  0  0  0  0  0  0  0  0  0
   -0.2190  -26.9560   -0.2210 C   0  0  0  0  0  0  0  0  0  0  0  0
   -0.2330  -25.9130    0.7120 C   0  0  0  0  0  0  0  0  0  0  0  0
   -1.2590  -25.2760    0.9400 O   0  0  0  0  0  0  0  0  0  0  0  0
    1.0010  -25.7080    1.3170 N   0  0  0  0  0  0  0  0  0  0  0  0
    2.0870  -24.9390    0.8170 C   0  0  0  0  0  0  0  0  0  0  0  0
    1.9470  -23.5830    0.4940 C   0  0  0  0  0  0  0  0  0  0  0  0
    3.3660  -25.5300    0.6220 C   0  0  0  0  0  0  0  0  0  0  0  0
    2.9340  -22.7870    0.0090 N   0  0  0  0  0  0  0  0  0  0  0  0
    4.3870  -24.6980    0.1240 C   0  0  0  0  0  0  0  0  0  0  0  0
    3.6700  -27.0090    0.9250 C   0  0  1  0  0  0  0  0  0  0  0  0
    4.1310  -23.3650   -0.1620 C   0  0  0  0  0  0  0  0  0  0  0  0
    4.9350  -27.4410    0.4930 C   0  0  0  0  0  0  0  0  0  0  0  0
    3.3090  -27.3340    2.2520 C   0  0  0  0  0  0  0  0  0  0  0  0
    5.1130  -28.9590    0.6110 C   0  0  0  0  0  0  0  0  0  0  0  0
    3.9570  -28.5290    2.7990 N   0  0  0  0  0  0  0  0  0  0  0  0
    4.3410  -29.5200    1.7980 C   0  0  0  0  0  0  0  0  0  0  0  0
  1  2  3  0
  2  3  1  0
  3  4  2  0
  3  5  1  0
  4  6  1  0
  5  7  2  0
  6  8  2  0
  7  8  1  0
  7  9  1  0
  9 10  1  0
 10 11  2  0
 10 12  1  0
 12 13  1  0
 13 14  2  0
 13 15  1  0
 14 16  1  0
 15 17  2  0
 18 15  1  1
 16 19  2  0
 17 19  1  0
 18 20  1  0
 18 21  1  0
 20 22  1  0
 21 23  1  0
 22 24  1  0
 23 24  1  0
M  END
