SAD-SAT-9a6c5cf3-2-nitrile
     RDKit          3D

 27 29  0  0  0  0  0  0  0  0999 V2000
    6.6920   -4.1330   20.0470 C   0  0  0  0  0  0  0  0  0  0  0  0
    5.6100   -3.7360   19.5110 N   0  0  0  0  0  0  0  0  0  0  0  0
    6.9110   -4.0510   21.3810 N   0  0  0  0  0  0  0  0  0  0  0  0
    7.9320   -3.1040   21.9000 C   0  0  0  0  0  0  0  0  0  0  0  0
    6.6520   -5.1830   22.2060 C   0  0  0  0  0  0  0  0  0  0  0  0
    7.6900   -2.7870   23.3520 C   0  0  0  0  0  0  0  0  0  0  0  0
    6.0020   -4.7120   23.5050 C   0  0  0  0  0  0  0  0  0  0  0  0
    6.3060   -3.2420   23.7840 C   0  0  0  0  0  0  0  0  0  0  0  0
    5.9850   -2.7780   25.1950 C   0  0  0  0  0  0  0  0  0  0  0  0
    4.9730   -3.2080   25.7570 O   0  0  0  0  0  0  0  0  0  0  0  0
    6.8490   -1.8690   25.8290 N   0  0  0  0  0  0  0  0  0  0  0  0
    6.5660   -1.5310   27.1780 C   0  0  0  0  0  0  0  0  0  0  0  0
    7.3740   -0.6670   25.1090 C   0  0  0  0  0  0  0  0  0  0  0  0
    5.4120   -0.5920   27.1580 C   0  0  0  0  0  0  0  0  0  0  0  0
    6.6970    0.5870   25.3370 C   0  0  0  0  0  0  0  0  0  0  0  0
    5.7220    0.6320   27.6850 C   0  0  0  0  0  0  0  0  0  0  0  0
    6.7370    1.1370   26.7590 N   0  0  0  0  0  0  0  0  0  0  0  0
    7.0190    2.7910   26.9560 S   0  0  0  0  0  0  0  0  0  0  0  0
    7.5630    3.3530   25.7500 O   0  0  0  0  0  0  0  0  0  0  0  0
    5.8180    3.3120   27.5730 O   0  0  0  0  0  0  0  0  0  0  0  0
    8.2120    2.6790   28.1690 C   0  0  0  0  0  0  0  0  0  0  0  0
    8.9350    3.7800   28.6130 C   0  0  0  0  0  0  0  0  0  0  0  0
    8.5030    1.4330   28.7670 C   0  0  0  0  0  0  0  0  0  0  0  0
    9.9270    3.7170   29.6070 C   0  0  0  0  0  0  0  0  0  0  0  0
    9.4940    1.3490   29.7620 C   0  0  0  0  0  0  0  0  0  0  0  0
   10.2060    2.4740   30.1830 C   0  0  0  0  0  0  0  0  0  0  0  0
   11.1810    2.3560   31.1560 C   0  0  0  0  0  0  0  0  0  0  0  0
  1  2  2  3
  1  3  1  0
  3  4  1  0
  3  5  1  0
  4  6  1  0
  5  7  1  0
  6  8  1  0
  7  8  1  0
  8  9  1  0
  9 10  2  0
  9 11  1  0
 11 12  1  0
 11 13  1  0
 12 14  1  0
 13 15  1  0
 14 16  1  0
 15 17  1  0
 16 17  1  0
 17 18  1  0
 18 19  2  0
 18 20  2  0
 18 21  1  0
 21 22  2  0
 21 23  1  0
 22 24  1  0
 23 25  2  0
 24 26  2  0
 25 26  1  0
 26 27  1  0
M  END
