SAD-SAT-9a6c5cf3-1-vinylsulfonamide
     RDKit          3D

 37 40  0  0  0  0  0  0  0  0999 V2000
    7.6080   -3.0340   18.5330 C   0  0  0  0  0  0  0  0  0  0  0  0
    7.1360   -2.7730   19.7290 C   0  0  0  0  0  0  0  0  0  0  0  0
    6.3140   -4.2050   20.3760 S   0  0  0  0  0  0  0  0  0  0  0  0
    5.0770   -4.4540   19.6860 O   0  0  0  0  0  0  0  0  0  0  0  0
    7.2020   -5.2500   20.8530 O   0  0  0  0  0  0  0  0  0  0  0  0
    6.0270   -3.7540   21.8870 N   0  0  0  0  0  0  0  0  0  0  0  0
    7.2290   -2.9950   22.2790 C   0  0  0  0  0  0  0  0  0  0  0  0
    5.8100   -4.9840   22.6330 C   0  0  0  0  0  0  0  0  0  0  0  0
    7.3550   -3.0490   23.7670 C   0  0  0  0  0  0  0  0  0  0  0  0
    5.4870   -4.6520   24.0470 C   0  0  0  0  0  0  0  0  0  0  0  0
    5.9520   -3.2400   24.3330 C   0  0  0  0  0  0  0  0  0  0  0  0
    5.9130   -3.0660   25.8000 C   0  0  0  0  0  0  0  0  0  0  0  0
    5.2260   -3.8290   26.4620 O   0  0  0  0  0  0  0  0  0  0  0  0
    6.6580   -1.9770   26.3920 N   0  0  0  0  0  0  0  0  0  0  0  0
    6.0640   -1.4360   27.4760 C   0  0  0  0  0  0  0  0  0  0  0  0
    7.2670   -1.0480   25.4990 C   0  0  0  0  0  0  0  0  0  0  0  0
    5.4060   -0.2580   27.1540 C   0  0  0  0  0  0  0  0  0  0  0  0
    7.5000    0.3410   26.1480 C   0  0  0  0  0  0  0  0  0  0  0  0
    6.4660    0.7340   27.1840 N   0  0  0  0  0  0  0  0  0  0  0  0
    7.0260    0.9930   28.4320 C   0  0  0  0  0  0  0  0  0  0  0  0
    7.8250    0.0440   29.0550 C   0  0  0  0  0  0  0  0  0  0  0  0
    6.8200    2.1970   29.1130 C   0  0  0  0  0  0  0  0  0  0  0  0
    8.4150    0.2500   30.3070 C   0  0  0  0  0  0  0  0  0  0  0  0
    7.4090    2.4160   30.3770 C   0  0  0  0  0  0  0  0  0  0  0  0
    5.9990    3.2580   28.5530 N   0  0  0  0  0  0  0  0  0  0  0  0
    8.2310    1.4470   31.0240 C   0  0  0  0  0  0  0  0  0  0  0  0
    6.6060    4.2740   28.1820 O   0  0  0  0  0  0  0  0  0  0  0  0
    4.7850    3.2120   28.7970 O   0  0  0  0  0  0  0  0  0  0  0  0
    8.9760    1.7280   32.6190 S   0  0  0  0  0  0  0  0  0  0  0  0
   10.2250    1.0100   32.6590 O   0  0  0  0  0  0  0  0  0  0  0  0
    8.9150    3.1520   32.8690 O   0  0  0  0  0  0  0  0  0  0  0  0
    7.8740    0.9680   33.6770 N   0  0  0  0  0  0  0  0  0  0  0  0
    6.7210    1.8090   34.1570 C   0  0  0  0  0  0  0  0  0  0  0  0
    8.5100    0.1960   34.7980 C   0  0  0  0  0  0  0  0  0  0  0  0
    6.3820    1.4320   35.6060 C   0  0  0  0  0  0  0  0  0  0  0  0
    7.4880   -0.6640   35.5570 C   0  0  0  0  0  0  0  0  0  0  0  0
    6.2460    0.0170   35.7650 O   0  0  0  0  0  0  0  0  0  0  0  0
  1  2  1  0
  3  2  1  0
  3  4  2  0
  3  5  2  0
  3  6  1  0
  6  7  1  0
  6  8  1  0
  7  9  1  0
  8 10  1  0
  9 11  1  0
 10 11  1  0
 11 12  1  0
 12 13  2  0
 12 14  1  0
 14 15  1  0
 14 16  1  0
 15 17  1  0
 16 18  1  0
 17 19  1  0
 18 19  1  0
 19 20  1  0
 20 21  2  0
 20 22  1  0
 21 23  1  0
 22 24  2  0
 22 25  1  0
 23 26  2  0
 24 26  1  0
 25 27  2  0
 25 28  1  0
 29 26  1  0
 29 30  2  0
 29 31  2  0
 29 32  1  0
 32 33  1  0
 32 34  1  0
 33 35  1  0
 34 36  1  0
 35 37  1  0
 36 37  1  0
M  CHG  2  25   1  28  -1
M  END
