SAD-SAT-65574d3f-9-acrylamide
     RDKit          3D

 17 18  0  0  0  0  0  0  0  0999 V2000
    7.3200   -3.0880   19.0660 C   0  0  0  0  0  0  0  0  0  0  0  0
    6.9000   -3.0820   20.5090 C   0  0  0  0  0  0  0  0  0  0  0  0
    6.0070   -4.2680   20.7570 C   0  0  0  0  0  0  0  0  0  0  0  0
    5.1720   -4.6470   19.9300 O   0  0  0  0  0  0  0  0  0  0  0  0
    6.1920   -4.9150   21.9650 N   0  0  0  0  0  0  0  0  0  0  0  0
    6.6870   -4.2510   23.1790 C   0  0  0  0  0  0  0  0  0  0  0  0
    5.4940   -6.1860   22.2100 C   0  0  0  0  0  0  0  0  0  0  0  0
    6.2070   -4.8110   24.3170 C   0  0  0  0  0  0  0  0  0  0  0  0
    4.4290   -6.1050   23.1260 C   0  0  0  0  0  0  0  0  0  0  0  0
    4.7680   -5.1670   24.1940 N   0  0  0  0  0  0  0  0  0  0  0  0
    3.7660   -4.3480   24.7350 C   0  0  0  0  0  0  0  0  0  0  0  0
    4.1480   -3.1010   25.4460 C   0  0  0  0  0  0  0  0  0  0  0  0
    2.3910   -4.6130   24.6500 C   0  0  0  0  0  0  0  0  0  0  0  0
    3.0620   -2.2530   25.9890 C   0  0  0  0  0  0  0  0  0  0  0  0
    1.2550   -3.7210   25.2260 C   0  0  0  0  0  0  0  0  0  0  0  0
    1.7270   -2.5710   25.8680 C   0  0  0  0  0  0  0  0  0  0  0  0
   -0.4160   -4.1180   25.0850 Cl  0  0  0  0  0  0  0  0  0  0  0  0
  1  2  1  0
  2  3  1  0
  3  4  2  0
  3  5  1  0
  5  6  1  0
  5  7  1  0
  6  8  1  0
  7  9  1  0
  8 10  1  0
  9 10  1  0
 10 11  1  0
 11 12  2  0
 11 13  1  0
 12 14  1  0
 13 15  2  0
 14 16  2  0
 15 16  1  0
 15 17  1  0
M  END
