SAD-SAT-29425be4-10-chloroacetamide
     RDKit          3D

 33 35  0  0  0  0  0  0  0  0999 V2000
    6.9560   -3.0560   19.0460 C   0  0  0  0  0  0  0  0  0  0  0  0
    6.0140   -3.5420   20.1300 C   0  0  0  0  0  0  0  0  0  0  0  0
    5.2440   -4.4680   19.8660 O   0  0  0  0  0  0  0  0  0  0  0  0
    6.0370   -2.9470   21.3990 N   0  0  0  0  0  0  0  0  0  0  0  0
    5.4980   -3.7190   22.5220 C   0  0  0  0  0  0  0  0  0  0  0  0
    6.9160   -1.8240   21.7590 C   0  0  0  0  0  0  0  0  0  0  0  0
    6.5380   -4.0940   23.5790 C   0  0  0  0  0  0  0  0  0  0  0  0
    7.9530   -2.2160   22.8110 C   0  0  0  0  0  0  0  0  0  0  0  0
    7.3140   -2.8630   24.0440 C   0  0  0  0  0  0  0  0  0  0  0  0
    8.3410   -3.2240   25.1470 C   0  0  0  0  0  0  0  0  0  0  0  0
    7.9100   -3.7950   26.1530 O   0  0  0  0  0  0  0  0  0  0  0  0
    9.7150   -2.9230   25.0120 N   0  0  0  0  0  0  0  0  0  0  0  0
   10.2480   -1.5600   24.8220 C   0  0  0  0  0  0  0  0  0  0  0  0
   11.2570   -1.4520   23.7070 C   0  0  0  0  0  0  0  0  0  0  0  0
   11.0440   -2.2520   22.4690 C   0  0  0  0  0  0  0  0  0  0  0  0
   12.3880   -0.6460   23.7580 C   0  0  0  0  0  0  0  0  0  0  0  0
   11.9410   -2.1820   21.4200 C   0  0  0  0  0  0  0  0  0  0  0  0
   13.2650   -0.6090   22.6590 C   0  0  0  0  0  0  0  0  0  0  0  0
   13.0560   -1.3590   21.4900 C   0  0  0  0  0  0  0  0  0  0  0  0
   13.9490   -1.2920   20.3740 N   0  0  0  0  0  0  0  0  0  0  0  0
   14.5760   -0.2500   19.5800 C   0  0  0  0  0  0  0  0  0  0  0  0
   14.5690    1.0860   19.7160 O   0  0  0  0  0  0  0  0  0  0  0  0
   15.6240   -0.6830   18.5750 C   0  0  0  0  0  0  0  0  0  0  0  0
   16.0710   -0.0770   17.3140 C   0  0  0  0  0  0  0  0  0  0  0  0
   15.6050    0.9890   16.8360 C   0  0  0  0  0  0  0  0  0  0  0  0
   14.4630    1.4110   17.5340 O   0  0  0  0  0  0  0  0  0  0  0  0
   14.5840    2.4900   18.3810 C   0  0  0  0  0  0  0  0  0  0  0  0
   13.5250    3.5530   18.6440 C   0  0  0  0  0  0  0  0  0  0  0  0
   15.7530    2.5100   18.9840 C   0  0  0  0  0  0  0  0  0  0  0  0
   13.7900    4.6100   19.6320 C   0  0  0  0  0  0  0  0  0  0  0  0
   16.0610    3.6510   19.9830 C   0  0  0  0  0  0  0  0  0  0  0  0
   16.5930    1.3360   18.5410 C   0  0  0  0  0  0  0  0  0  0  0  0
   15.1170    4.5960   20.2730 C   0  0  0  0  0  0  0  0  0  0  0  0
  1  2  1  0
  2  3  2  0
  2  4  1  0
  4  5  1  0
  4  6  1  0
  5  7  1  0
  6  8  1  0
  7  9  1  0
  8  9  1  0
  9 10  1  0
 10 11  2  0
 10 12  1  0
 12 13  1  0
 13 14  1  0
 14 15  2  0
 14 16  1  0
 15 17  1  0
 16 18  2  0
 17 19  2  0
 18 19  1  0
 19 20  1  0
 20 21  1  0
 21 22  2  0
 21 23  1  0
 23 24  1  0
 24 25  1  0
 25 26  1  0
 26 27  1  0
 27 28  2  0
 27 29  1  0
 28 30  1  0
 29 31  2  0
 29 32  1  0
 30 33  2  0
 31 33  1  0
M  END
