SAD-SAT-9a6c5cf3-6-vinylsulfonamide
     RDKit          3D

 31 34  0  0  0  0  0  0  0  0999 V2000
    7.3890   -2.9050   18.3910 C   0  0  0  0  0  0  0  0  0  0  0  0
    6.8550   -2.5000   19.5280 C   0  0  0  0  0  0  0  0  0  0  0  0
    5.9040   -3.7670   20.3230 S   0  0  0  0  0  0  0  0  0  0  0  0
    4.9120   -3.1420   21.0980 O   0  0  0  0  0  0  0  0  0  0  0  0
    5.4550   -4.8320   19.4880 O   0  0  0  0  0  0  0  0  0  0  0  0
    7.0520   -4.3900   21.3980 N   0  0  0  0  0  0  0  0  0  0  0  0
    7.9410   -3.3410   21.9390 C   0  0  0  0  0  0  0  0  0  0  0  0
    6.6200   -5.4450   22.3000 C   0  0  0  0  0  0  0  0  0  0  0  0
    7.3910   -2.7760   23.2240 C   0  0  0  0  0  0  0  0  0  0  0  0
    5.9180   -4.8940   23.3730 C   0  0  0  0  0  0  0  0  0  0  0  0
    6.8070   -3.8710   24.1090 C   0  0  0  0  0  0  0  0  0  0  0  0
    6.0050   -3.1930   25.1850 C   0  0  0  0  0  0  0  0  0  0  0  0
    4.8220   -3.4780   25.3510 O   0  0  0  0  0  0  0  0  0  0  0  0
    6.6740   -2.1930   26.0120 N   0  0  0  0  0  0  0  0  0  0  0  0
    5.9520   -1.7570   27.0710 C   0  0  0  0  0  0  0  0  0  0  0  0
    7.4650   -1.0910   25.5340 C   0  0  0  0  0  0  0  0  0  0  0  0
    5.2840   -0.5660   26.8180 C   0  0  0  0  0  0  0  0  0  0  0  0
    7.5800    0.0600   26.5840 C   0  0  0  0  0  0  0  0  0  0  0  0
    6.2640    0.3770   27.2750 N   0  0  0  0  0  0  0  0  0  0  0  0
    6.2150    0.3530   28.9750 S   0  0  0  0  0  0  0  0  0  0  0  0
    6.1560   -1.0170   29.4300 O   0  0  0  0  0  0  0  0  0  0  0  0
    5.1870    1.3060   29.3330 O   0  0  0  0  0  0  0  0  0  0  0  0
    7.7250    1.0190   29.5110 C   0  0  0  0  0  0  0  0  0  0  0  0
    8.8210    0.2570   29.9520 C   0  0  0  0  0  0  0  0  0  0  0  0
    7.8470    2.4200   29.5120 C   0  0  0  0  0  0  0  0  0  0  0  0
   10.0210    0.8450   30.4000 C   0  0  0  0  0  0  0  0  0  0  0  0
    9.1330    3.0850   29.9900 C   0  0  0  0  0  0  0  0  0  0  0  0
   10.1250    2.2350   30.4050 C   0  0  0  0  0  0  0  0  0  0  0  0
    9.5490    4.5330   30.1090 C   0  0  0  0  0  0  0  0  0  0  0  0
   10.9670    4.4240   30.7340 C   0  0  0  0  0  0  0  0  0  0  0  0
   11.3580    2.9570   30.8820 C   0  0  0  0  0  0  0  0  0  0  0  0
  1  2  1  0
  3  2  1  0
  3  4  2  0
  3  5  2  0
  3  6  1  0
  6  7  1  0
  6  8  1  0
  7  9  1  0
  8 10  1  0
  9 11  1  0
 10 11  1  0
 11 12  1  0
 12 13  2  0
 12 14  1  0
 14 15  1  0
 14 16  1  0
 15 17  1  0
 16 18  1  0
 17 19  1  0
 18 19  1  0
 19 20  1  0
 20 21  2  0
 20 22  2  0
 20 23  1  0
 23 24  2  0
 23 25  1  0
 24 26  1  0
 25 27  2  0
 26 28  2  0
 27 28  1  0
 27 29  1  0
 29 30  1  0
 28 31  1  0
 30 31  1  0
M  END
