SAD-SAT-b55127ae-8-bromoalkyne
     RDKit          3D

 22 23  0  0  0  0  0  0  0  0999 V2000
    6.2960   -4.3780   20.0910 C   0  0  0  0  0  0  0  0  0  0  0  0
    6.0110   -3.3200   19.0180 C   0  0  0  0  0  0  0  0  0  0  0  0
    5.4800   -4.5250   21.1990 N   0  0  0  0  0  0  0  0  0  0  0  0
    5.1080   -3.3040   21.9200 C   0  0  0  0  0  0  0  0  0  0  0  0
    5.3730   -2.0960   21.0130 C   0  0  0  0  0  0  0  0  0  0  0  0
    6.8370   -2.0470   20.6530 C   0  0  0  0  0  0  0  0  0  0  0  0
    7.2470   -2.0240   19.5010 O   0  0  0  0  0  0  0  0  0  0  0  0
    7.6460   -2.0360   21.8410 N   0  0  0  0  0  0  0  0  0  0  0  0
    8.0340   -3.2680   22.3180 C   0  0  0  0  0  0  0  0  0  0  0  0
    7.3850   -0.9300   22.7290 C   0  0  0  0  0  0  0  0  0  0  0  0
    8.4330   -3.1470   23.6960 C   0  0  0  0  0  0  0  0  0  0  0  0
    8.3660   -0.8320   23.7110 C   0  0  0  0  0  0  0  0  0  0  0  0
    9.1140   -1.9670   23.9100 N   0  0  0  0  0  0  0  0  0  0  0  0
   10.4210   -1.9240   24.0140 C   0  0  0  0  0  0  0  0  0  0  0  0
   11.1470   -3.0260   24.3220 O   0  0  0  0  0  0  0  0  0  0  0  0
   10.9970   -0.7080   23.7710 C   0  0  0  0  0  0  0  0  0  0  0  0
   10.4610    0.4750   24.2790 C   0  0  0  0  0  0  0  0  0  0  0  0
   12.1520   -0.6520   22.9800 C   0  0  0  0  0  0  0  0  0  0  0  0
   11.1230    1.7460   23.9640 C   0  0  0  0  0  0  0  0  0  0  0  0
   12.8410    0.4930   22.6390 N   0  0  0  0  0  0  0  0  0  0  0  0
   12.8840   -2.0460   22.3070 Cl  0  0  0  0  0  0  0  0  0  0  0  0
   12.3610    1.6840   23.1070 C   0  0  0  0  0  0  0  0  0  0  0  0
  1  2  2  3
  1  3  1  0
  3  4  1  0
  4  5  1  0
  5  6  1  0
  6  7  2  0
  6  8  1  0
  8  9  1  0
  8 10  1  0
  9 11  1  0
 10 12  1  0
 11 13  1  0
 12 13  1  0
 13 14  1  0
 14 15  2  0
 14 16  1  0
 16 17  2  0
 16 18  1  0
 17 19  1  0
 18 20  2  0
 18 21  1  0
 19 22  2  0
 20 22  1  0
M  END
