SAD-SAT-29425be4-6-bromoalkyne
     RDKit          3D

 26 27  0  0  0  0  0  0  0  0999 V2000
    6.6770   -3.9760   19.9780 C   0  0  0  0  0  0  0  0  0  0  0  0
    6.2460   -3.0580   18.8410 C   0  0  0  0  0  0  0  0  0  0  0  0
    6.2090   -3.7610   21.2460 N   0  0  0  0  0  0  0  0  0  0  0  0
    7.2880   -3.6810   22.1790 C   0  0  0  0  0  0  0  0  0  0  0  0
    5.3810   -2.5690   21.3870 C   0  0  0  0  0  0  0  0  0  0  0  0
    8.2890   -2.7330   21.5550 C   0  0  0  0  0  0  0  0  0  0  0  0
    6.1200   -1.4320   21.7730 C   0  0  0  0  0  0  0  0  0  0  0  0
    7.6240   -1.3970   21.3650 C   0  0  0  0  0  0  0  0  0  0  0  0
    8.3850   -0.3820   22.2430 C   0  0  0  0  0  0  0  0  0  0  0  0
    8.1310   -0.4480   23.4400 O   0  0  0  0  0  0  0  0  0  0  0  0
    9.3300    0.5610   21.7640 N   0  0  0  0  0  0  0  0  0  0  0  0
    9.5680    1.8400   22.4740 C   0  0  0  0  0  0  0  0  0  0  0  0
   11.0080    2.2920   22.7520 C   0  0  0  0  0  0  0  0  0  0  0  0
   12.1710    0.9700   23.0840 S   0  0  0  0  0  0  0  0  0  0  0  0
   12.7040    1.2350   24.3280 O   0  0  0  0  0  0  0  0  0  0  0  0
   13.0130    0.4820   22.0300 O   0  0  0  0  0  0  0  0  0  0  0  0
   11.2420   -0.3660   23.5700 C   0  0  0  0  0  0  0  0  0  0  0  0
   11.3340   -1.5590   22.8910 C   0  0  0  0  0  0  0  0  0  0  0  0
   10.4340   -0.1810   24.6680 C   0  0  0  0  0  0  0  0  0  0  0  0
   10.5740   -2.6120   23.3500 C   0  0  0  0  0  0  0  0  0  0  0  0
    9.6890   -1.2380   25.1140 C   0  0  0  0  0  0  0  0  0  0  0  0
    9.7410   -2.4870   24.4660 C   0  0  0  0  0  0  0  0  0  0  0  0
    8.9120   -3.6330   24.9700 C   0  0  0  0  0  0  0  0  0  0  0  0
    9.4610   -4.9630   25.4260 C   0  0  0  0  0  0  0  0  0  0  0  0
    7.9350   -3.9780   23.8680 C   0  0  0  0  0  0  0  0  0  0  0  0
    8.0450   -3.0720   26.1010 C   0  0  0  0  0  0  0  0  0  0  0  0
  1  2  2  3
  1  3  1  0
  3  4  1  0
  3  5  1  0
  4  6  1  0
  5  7  1  0
  6  8  1  0
  7  8  1  0
  8  9  1  0
  9 10  2  0
  9 11  1  0
 11 12  1  0
 12 13  1  0
 14 13  1  0
 14 15  2  0
 14 16  2  0
 14 17  1  0
 17 18  2  0
 17 19  1  0
 18 20  1  0
 19 21  2  0
 20 22  2  0
 21 22  1  0
 22 23  1  0
 23 24  1  0
 23 25  1  0
 23 26  1  0
M  END
