SAD-SAT-b55127ae-7-nitrile
     RDKit          3D

 26 28  0  0  0  0  0  0  0  0999 V2000
    7.3830   -3.5090   19.7770 C   0  0  0  0  0  0  0  0  0  0  0  0
    6.5860   -2.9650   18.9190 N   0  0  0  0  0  0  0  0  0  0  0  0
    7.7310   -2.9330   21.0330 N   0  0  0  0  0  0  0  0  0  0  0  0
    6.7950   -2.0930   21.7890 C   0  0  0  0  0  0  0  0  0  0  0  0
    9.1030   -2.5060   21.3480 C   0  0  0  0  0  0  0  0  0  0  0  0
    7.1920   -1.7950   23.2530 C   0  0  0  0  0  0  0  0  0  0  0  0
    9.5140   -2.5380   22.8350 C   0  0  0  0  0  0  0  0  0  0  0  0
    8.3150   -2.6890   23.7690 C   0  0  0  0  0  0  0  0  0  0  0  0
    7.8840   -4.1600   23.9030 C   0  0  0  0  0  0  0  0  0  0  0  0
    8.7090   -5.0320   24.1640 O   0  0  0  0  0  0  0  0  0  0  0  0
    6.5420   -4.4670   23.7340 N   0  0  0  0  0  0  0  0  0  0  0  0
    6.1880   -5.7480   23.1230 C   0  0  0  0  0  0  0  0  0  0  0  0
    5.4260   -3.8890   24.4800 C   0  0  0  0  0  0  0  0  0  0  0  0
    5.1420   -5.5240   22.1230 C   0  0  0  0  0  0  0  0  0  0  0  0
    4.3460   -3.5870   23.4840 C   0  0  0  0  0  0  0  0  0  0  0  0
    4.7630   -4.0830   22.1600 N   0  0  0  0  0  0  0  0  0  0  0  0
    5.0740   -3.2630   21.0410 C   0  0  0  0  0  0  0  0  0  0  0  0
    4.9040   -3.6990   19.7570 O   0  0  0  0  0  0  0  0  0  0  0  0
    5.5420   -1.9780   21.2800 C   0  0  0  0  0  0  0  0  0  0  0  0
    5.0780   -0.8450   20.5930 C   0  0  0  0  0  0  0  0  0  0  0  0
    5.1600   -0.7330   19.0920 C   0  0  0  0  0  0  0  0  0  0  0  0
    4.5160    0.2590   21.3050 C   0  0  0  0  0  0  0  0  0  0  0  0
    4.6690    0.5010   18.3290 C   0  0  0  0  0  0  0  0  0  0  0  0
    4.0400    1.4200   20.6690 C   0  0  0  0  0  0  0  0  0  0  0  0
    4.3670    0.3220   22.8290 C   0  0  0  0  0  0  0  0  0  0  0  0
    4.0780    1.6280   19.1580 C   0  0  0  0  0  0  0  0  0  0  0  0
  1  2  2  3
  1  3  1  0
  3  4  1  0
  3  5  1  0
  4  6  1  0
  5  7  1  0
  6  8  1  0
  7  8  1  0
  8  9  1  0
  9 10  2  0
  9 11  1  0
 11 12  1  0
 11 13  1  0
 12 14  1  0
 13 15  1  0
 14 16  1  0
 15 16  1  0
 16 17  1  0
 17 18  2  0
 17 19  1  0
 19 20  1  0
 20 21  2  0
 20 22  1  0
 21 23  1  0
 22 24  2  0
 22 25  1  0
 23 26  2  0
 24 26  1  0
M  END
