SAD-SAT-1f400d17-7-vinylsulfonamide
     RDKit          3D

 18 18  0  0  0  0  0  0  0  0999 V2000
    7.2750   -3.3720   19.3810 C   0  0  0  0  0  0  0  0  0  0  0  0
    7.0500   -2.6630   20.4630 C   0  0  0  0  0  0  0  0  0  0  0  0
    6.3840   -3.6060   21.8320 S   0  0  0  0  0  0  0  0  0  0  0  0
    4.8760   -3.4730   21.7530 O   0  0  0  0  0  0  0  0  0  0  0  0
    6.8730   -4.9580   21.9740 O   0  0  0  0  0  0  0  0  0  0  0  0
    7.4090   -2.7200   22.9740 N   0  0  0  0  0  0  0  0  0  0  0  0
    8.6770   -2.0660   22.3480 C   0  0  0  0  0  0  0  0  0  0  0  0
   10.1620   -2.1160   22.9740 C   0  0  0  0  0  0  0  0  0  0  0  0
   10.7600   -0.7200   23.0250 C   0  0  0  0  0  0  0  0  0  0  0  0
    9.6880    0.2130   23.2480 C   0  0  0  0  0  0  0  0  0  0  0  0
   11.8850   -0.0270   22.9340 C   0  0  0  0  0  0  0  0  0  0  0  0
    9.7340    1.7510   23.3420 C   0  0  0  0  0  0  0  0  0  0  0  0
   12.3210    1.2280   22.9690 C   0  0  0  0  0  0  0  0  0  0  0  0
   11.1720    2.0800   23.1640 C   0  0  0  0  0  0  0  0  0  0  0  0
   11.4090    3.8470   23.2100 S   0  0  0  0  0  0  0  0  0  0  0  0
    9.9470    4.3460   22.5440 N   0  0  0  0  0  0  0  0  0  0  0  0
   11.2910    4.3430   24.5600 O   0  0  0  0  0  0  0  0  0  0  0  0
   12.4710    4.2160   22.3050 O   0  0  0  0  0  0  0  0  0  0  0  0
  1  2  1  0
  2  3  1  0
  3  4  2  0
  3  5  2  0
  3  6  1  0
  6  7  1  0
  7  8  1  0
  8  9  1  0
  9 10  2  0
  9 11  1  0
 10 12  1  0
 11 13  2  0
 12 14  2  0
 13 14  1  0
 14 15  1  0
 15 16  1  0
 15 17  2  0
 15 18  2  0
M  END
