SAD-SAT-5b1897b2-10-acrylamide
     RDKit          3D

 17 18  0  0  0  0  0  0  0  0999 V2000
    7.7600   -2.8890   18.3470 C   0  0  0  0  0  0  0  0  0  0  0  0
    6.3490   -2.7710   18.9210 C   0  0  0  0  0  0  0  0  0  0  0  0
    5.9920   -3.4950   20.1770 C   0  0  0  0  0  0  0  0  0  0  0  0
    5.2500   -4.4800   20.0830 O   0  0  0  0  0  0  0  0  0  0  0  0
    6.5010   -2.9870   21.3760 N   0  0  0  0  0  0  0  0  0  0  0  0
    7.0380   -3.8900   22.3860 C   0  0  0  0  0  0  0  0  0  0  0  0
    6.9500   -1.6370   21.5620 C   0  0  0  0  0  0  0  0  0  0  0  0
    8.2130   -3.2660   23.1310 C   0  0  0  0  0  0  0  0  0  0  0  0
    8.3170   -1.5750   21.3690 C   0  0  0  0  0  0  0  0  0  0  0  0
    9.0410   -2.3390   22.2630 N   0  0  0  0  0  0  0  0  0  0  0  0
   10.0020   -1.5040   22.8650 C   0  0  0  0  0  0  0  0  0  0  0  0
   11.2470   -1.2150   22.2280 C   0  0  0  0  0  0  0  0  0  0  0  0
    9.7670   -0.8840   24.0910 C   0  0  0  0  0  0  0  0  0  0  0  0
   12.2450   -0.2120   22.8870 C   0  0  0  0  0  0  0  0  0  0  0  0
   10.6180    0.0080   24.7070 C   0  0  0  0  0  0  0  0  0  0  0  0
    8.6500   -1.1620   24.6860 F   0  0  0  0  0  0  0  0  0  0  0  0
   11.8280    0.3870   24.1670 C   0  0  0  0  0  0  0  0  0  0  0  0
  1  2  1  0
  2  3  1  0
  3  4  2  0
  3  5  1  0
  5  6  1  0
  5  7  1  0
  6  8  1  0
  7  9  1  0
  8 10  1  0
  9 10  1  0
 10 11  1  0
 11 12  2  0
 11 13  1  0
 12 14  1  0
 13 15  2  0
 13 16  1  0
 14 17  2  0
 15 17  1  0
M  END
