SAD-SAT-2fd372d1-8
     RDKit          3D

 19 20  0  0  0  0  0  0  0  0999 V2000
    5.3920   -4.3040   19.8540 O   0  0  0  0  0  0  0  0  0  0  0  0
    6.1060   -4.0470   20.8330 C   0  0  0  0  0  0  0  0  0  0  0  0
    6.8350   -2.7670   21.0440 N   0  0  0  0  0  0  0  0  0  0  0  0
    6.3580   -4.9240   21.8810 N   0  0  0  0  0  0  0  0  0  0  0  0
    6.3170   -1.5600   20.3510 C   0  0  0  0  0  0  0  0  0  0  0  0
    7.1150   -4.5810   22.9650 C   0  0  0  0  0  0  0  0  0  0  0  0
    5.6290   -6.1190   22.1400 C   0  0  0  0  0  0  0  0  0  0  0  0
    5.1230   -0.9100   20.9420 C   0  0  0  0  0  0  0  0  0  0  0  0
    6.8970   -1.0050   19.1890 C   0  0  0  0  0  0  0  0  0  0  0  0
    6.2590   -4.3890   24.2150 C   0  0  0  0  0  0  0  0  0  0  0  0
    4.7290   -6.0040   23.4040 C   0  0  0  0  0  0  0  0  0  0  0  0
    4.5920    0.2210   20.3500 C   0  0  0  0  0  0  0  0  0  0  0  0
    6.3270    0.1400   18.6290 C   0  0  0  0  0  0  0  0  0  0  0  0
    5.4680   -5.5770   24.4800 N   0  0  0  0  0  0  0  0  0  0  0  0
    5.1950    0.7430   19.1940 C   0  0  0  0  0  0  0  0  0  0  0  0
    4.7820   -5.6600   26.0310 S   0  0  0  0  0  0  0  0  0  0  0  0
    4.9850   -4.3960   26.6820 O   0  0  0  0  0  0  0  0  0  0  0  0
    3.4990   -6.3130   25.9310 O   0  0  0  0  0  0  0  0  0  0  0  0
    5.6890   -6.6460   26.8680 F   0  0  0  0  0  0  0  0  0  0  0  0
  1  2  2  0
  2  3  1  0
  2  4  1  0
  3  5  1  0
  4  6  1  0
  4  7  1  0
  5  8  2  0
  5  9  1  0
  6 10  1  0
  7 11  1  0
  8 12  1  0
  9 13  2  0
 10 14  1  0
 11 14  1  0
 12 15  2  0
 13 15  1  0
 14 16  1  0
 16 17  2  0
 16 18  2  0
 16 19  1  0
M  END
