SAD-SAT-b55127ae-3-nitrile
     RDKit          3D

 26 28  0  0  0  0  0  0  0  0999 V2000
    6.8530   -4.0100   20.1370 C   0  0  0  0  0  0  0  0  0  0  0  0
    5.9420   -3.4740   19.3960 N   0  0  0  0  0  0  0  0  0  0  0  0
    7.4470   -3.3620   21.2060 N   0  0  0  0  0  0  0  0  0  0  0  0
    8.7710   -2.7320   21.1790 C   0  0  0  0  0  0  0  0  0  0  0  0
    6.8990   -3.4420   22.5580 C   0  0  0  0  0  0  0  0  0  0  0  0
    9.5030   -2.6870   22.5450 C   0  0  0  0  0  0  0  0  0  0  0  0
    7.1440   -2.2700   23.2900 C   0  0  0  0  0  0  0  0  0  0  0  0
    8.6120   -2.2510   23.7160 C   0  0  0  0  0  0  0  0  0  0  0  0
    8.7770   -3.1730   24.9350 C   0  0  0  0  0  0  0  0  0  0  0  0
    9.8740   -3.2700   25.4940 O   0  0  0  0  0  0  0  0  0  0  0  0
    7.6530   -3.8780   25.3800 N   0  0  0  0  0  0  0  0  0  0  0  0
    6.8250   -3.2670   26.4280 C   0  0  0  0  0  0  0  0  0  0  0  0
    7.2690   -5.2400   24.9690 C   0  0  0  0  0  0  0  0  0  0  0  0
    5.4260   -3.6490   26.2060 C   0  0  0  0  0  0  0  0  0  0  0  0
    5.9400   -5.2810   24.5350 C   0  0  0  0  0  0  0  0  0  0  0  0
    5.3500   -4.1010   24.8010 N   0  0  0  0  0  0  0  0  0  0  0  0
    4.0160   -3.6160   23.8420 S   0  0  0  0  0  0  0  0  0  0  0  0
    2.7930   -3.8560   24.5810 O   0  0  0  0  0  0  0  0  0  0  0  0
    4.2350   -4.1570   22.5030 O   0  0  0  0  0  0  0  0  0  0  0  0
    4.1800   -1.9170   23.7090 C   0  0  0  0  0  0  0  0  0  0  0  0
    3.7890   -1.1130   24.7280 C   0  0  0  0  0  0  0  0  0  0  0  0
    4.7020   -1.1760   22.6290 C   0  0  0  0  0  0  0  0  0  0  0  0
    3.9620    0.2240   24.5440 C   0  0  0  0  0  0  0  0  0  0  0  0
    4.6740    0.5350   22.9620 S   0  0  0  0  0  0  0  0  0  0  0  0
    5.2620   -1.6670   21.2750 C   0  0  0  0  0  0  0  0  0  0  0  0
    3.6030    1.2780   25.5440 C   0  0  0  0  0  0  0  0  0  0  0  0
  1  2  2  3
  1  3  1  0
  3  4  1  0
  3  5  1  0
  4  6  1  0
  5  7  1  0
  6  8  1  0
  7  8  1  0
  8  9  1  0
  9 10  2  0
  9 11  1  0
 11 12  1  0
 11 13  1  0
 12 14  1  0
 13 15  1  0
 14 16  1  0
 15 16  1  0
 16 17  1  0
 17 18  2  0
 17 19  2  0
 17 20  1  0
 20 21  1  0
 20 22  2  0
 21 23  2  0
 22 24  1  0
 23 24  1  0
 22 25  1  0
 23 26  1  0
M  END
