SAD-SAT-5b1897b2-4-vinylsulfonamide
     RDKit          3D

 18 19  0  0  0  0  0  0  0  0999 V2000
    7.0270   -2.8470   18.7820 C   0  0  0  0  0  0  0  0  0  0  0  0
    5.7860   -3.2130   19.5820 C   0  0  0  0  0  0  0  0  0  0  0  0
    5.9360   -3.5530   21.3050 S   0  0  0  0  0  0  0  0  0  0  0  0
    4.6510   -3.2000   21.7800 O   0  0  0  0  0  0  0  0  0  0  0  0
    6.3630   -4.9290   21.4280 O   0  0  0  0  0  0  0  0  0  0  0  0
    7.0710   -2.6110   22.0890 N   0  0  0  0  0  0  0  0  0  0  0  0
    6.7590   -1.3630   22.7640 C   0  0  0  0  0  0  0  0  0  0  0  0
    7.8850   -3.4200   22.9180 C   0  0  0  0  0  0  0  0  0  0  0  0
    7.7470   -1.1050   23.9430 C   0  0  0  0  0  0  0  0  0  0  0  0
    9.0980   -2.8180   22.9850 C   0  0  0  0  0  0  0  0  0  0  0  0
    9.1040   -1.7590   23.7950 N   0  0  0  0  0  0  0  0  0  0  0  0
   10.2620   -1.0470   23.6350 C   0  0  0  0  0  0  0  0  0  0  0  0
   11.5550   -1.7990   23.4220 C   0  0  0  0  0  0  0  0  0  0  0  0
   10.2550    0.3420   23.6520 C   0  0  0  0  0  0  0  0  0  0  0  0
   12.7130   -1.0460   23.2410 C   0  0  0  0  0  0  0  0  0  0  0  0
   11.3920    1.1140   23.4680 C   0  0  0  0  0  0  0  0  0  0  0  0
   12.6220    0.5120   23.2640 C   0  0  0  0  0  0  0  0  0  0  0  0
   11.2760    2.5040   23.4780 C   0  0  0  0  0  0  0  0  0  0  0  0
  1  2  1  0
  3  2  1  0
  3  4  2  0
  3  5  2  0
  3  6  1  0
  6  7  1  0
  6  8  1  0
  7  9  1  0
  8 10  1  0
  9 11  1  0
 10 11  1  0
 11 12  1  0
 12 13  2  0
 12 14  1  0
 13 15  1  0
 14 16  2  0
 15 17  2  0
 16 17  1  0
 16 18  1  0
M  END
