SAD-SAT-2ceae68f-5-chloroacetamide
     RDKit          3D

 27 28  0  0  0  0  0  0  0  0999 V2000
    6.9690   -4.2410   20.4780 C   0  0  0  0  0  0  0  0  0  0  0  0
    6.0900   -3.3200   19.6910 C   0  0  0  0  0  0  0  0  0  0  0  0
    4.9730   -3.6770   19.3400 O   0  0  0  0  0  0  0  0  0  0  0  0
    6.5850   -2.1040   19.3780 N   0  0  0  0  0  0  0  0  0  0  0  0
    7.0360   -1.7100   18.0530 C   0  0  0  0  0  0  0  0  0  0  0  0
    7.1040   -1.2770   20.4470 C   0  0  0  0  0  0  0  0  0  0  0  0
    6.0290   -1.5130   21.5530 C   0  0  0  0  0  0  0  0  0  0  0  0
    5.5520   -2.6100   21.8600 O   0  0  0  0  0  0  0  0  0  0  0  0
    5.6660   -0.2250   22.1840 N   0  0  0  0  0  0  0  0  0  0  0  0
    5.6930   -0.0070   23.6240 C   0  0  0  0  0  0  0  0  0  0  0  0
    5.8300    0.9890   21.3840 C   0  0  0  0  0  0  0  0  0  0  0  0
    6.7870    1.0310   23.9470 C   0  0  0  0  0  0  0  0  0  0  0  0
    7.0820    1.5760   21.5230 C   0  0  0  0  0  0  0  0  0  0  0  0
    7.7640    1.1930   22.8090 N   0  0  0  0  0  0  0  0  0  0  0  0
    9.0050    2.2440   23.1420 S   0  0  0  0  0  0  0  0  0  0  0  0
    8.9770    3.2440   22.1040 O   0  0  0  0  0  0  0  0  0  0  0  0
    8.8660    2.6270   24.5280 O   0  0  0  0  0  0  0  0  0  0  0  0
   10.5400    1.3540   22.9740 C   0  0  0  0  0  0  0  0  0  0  0  0
   10.7150   -0.1930   22.8250 C   0  0  0  0  0  0  0  0  0  0  0  0
   11.7320    2.0890   22.9680 C   0  0  0  0  0  0  0  0  0  0  0  0
   12.0900   -0.8210   22.6710 C   0  0  0  0  0  0  0  0  0  0  0  0
   12.9140    1.4250   22.8440 C   0  0  0  0  0  0  0  0  0  0  0  0
   11.8680    3.4910   23.0730 C   0  0  0  0  0  0  0  0  0  0  0  0
   12.4020   -2.1450   22.5080 N   0  0  0  0  0  0  0  0  0  0  0  0
   13.1130    0.0690   22.7000 C   0  0  0  0  0  0  0  0  0  0  0  0
   12.4840   -2.7930   23.5550 O   0  0  0  0  0  0  0  0  0  0  0  0
   13.1030   -2.3890   21.5160 O   0  0  0  0  0  0  0  0  0  0  0  0
  1  2  1  0
  2  3  2  0
  2  4  1  0
  4  5  1  0
  4  6  1  0
  6  7  1  0
  7  8  2  0
  7  9  1  0
  9 10  1  0
  9 11  1  0
 10 12  1  0
 11 13  1  0
 12 14  1  0
 13 14  1  0
 14 15  1  0
 15 16  2  0
 15 17  2  0
 15 18  1  0
 18 19  2  0
 18 20  1  0
 19 21  1  0
 20 22  2  0
 20 23  1  0
 21 24  1  0
 21 25  2  0
 22 25  1  0
 24 26  2  0
 24 27  1  0
M  CHG  2  24   1  27  -1
M  END
