SAD-SAT-b55127ae-2-acrylamide
     RDKit          3D

 29 30  0  0  0  0  0  0  0  0999 V2000
    7.6200   -3.2760   19.3930 C   0  0  0  0  0  0  0  0  0  0  0  0
    6.6420   -2.5940   18.4910 C   0  0  0  0  0  0  0  0  0  0  0  0
    5.2860   -2.6700   19.0690 C   0  0  0  0  0  0  0  0  0  0  0  0
    4.6980   -3.7570   19.2920 O   0  0  0  0  0  0  0  0  0  0  0  0
    4.8150   -1.4550   19.4060 N   0  0  0  0  0  0  0  0  0  0  0  0
    5.1260   -0.3040   18.5340 C   0  0  0  0  0  0  0  0  0  0  0  0
    5.3130   -1.3880   20.7110 C   0  0  0  0  0  0  0  0  0  0  0  0
    4.4690    0.9920   19.0130 C   0  0  0  0  0  0  0  0  0  0  0  0
    5.7750   -2.7050   21.0990 C   0  0  0  0  0  0  0  0  0  0  0  0
    4.9490   -3.7840   21.0100 O   0  0  0  0  0  0  0  0  0  0  0  0
    6.9900   -2.8210   21.5850 N   0  0  0  0  0  0  0  0  0  0  0  0
    6.9300   -3.4990   22.8740 C   0  0  0  0  0  0  0  0  0  0  0  0
    7.6750   -1.5290   21.4970 C   0  0  0  0  0  0  0  0  0  0  0  0
    8.1360   -3.5560   23.4750 C   0  0  0  0  0  0  0  0  0  0  0  0
    8.9350   -1.5480   22.2750 C   0  0  0  0  0  0  0  0  0  0  0  0
    8.7600   -2.2580   23.5980 N   0  0  0  0  0  0  0  0  0  0  0  0
   10.2720   -2.3490   24.2900 S   0  0  0  0  0  0  0  0  0  0  0  0
   11.0610   -3.2440   23.5060 O   0  0  0  0  0  0  0  0  0  0  0  0
   10.0880   -2.5330   25.6950 O   0  0  0  0  0  0  0  0  0  0  0  0
   10.9050   -0.8190   23.9650 C   0  0  0  0  0  0  0  0  0  0  0  0
   10.2340    0.4060   24.5040 C   0  0  0  0  0  0  0  0  0  0  0  0
   12.0610   -0.6680   23.1630 C   0  0  0  0  0  0  0  0  0  0  0  0
   10.8010    1.7870   24.1890 C   0  0  0  0  0  0  0  0  0  0  0  0
   12.6320    0.5560   22.8630 C   0  0  0  0  0  0  0  0  0  0  0  0
   12.8130   -1.8050   22.5160 C   0  0  0  0  0  0  0  0  0  0  0  0
   12.0580    1.8700   23.3420 C   0  0  0  0  0  0  0  0  0  0  0  0
   11.9730   -2.5780   21.8190 F   0  0  0  0  0  0  0  0  0  0  0  0
   13.6500   -1.3450   21.5560 F   0  0  0  0  0  0  0  0  0  0  0  0
   13.5470   -2.5640   23.3650 F   0  0  0  0  0  0  0  0  0  0  0  0
  1  2  1  0
  2  3  1  0
  3  4  2  0
  3  5  1  0
  5  6  1  0
  5  7  1  0
  6  8  1  0
  7  9  1  0
  9 10  2  0
  9 11  1  0
 11 12  1  0
 11 13  1  0
 12 14  1  0
 13 15  1  0
 14 16  1  0
 15 16  1  0
 16 17  1  0
 17 18  2  0
 17 19  2  0
 17 20  1  0
 20 21  2  0
 20 22  1  0
 21 23  1  0
 22 24  2  0
 22 25  1  0
 23 26  2  0
 24 26  1  0
 25 27  1  0
 25 28  1  0
 25 29  1  0
M  END
