SAD-SAT-9a6c5cf3-10-vinylsulfonamide
     RDKit          3D

 29 31  0  0  0  0  0  0  0  0999 V2000
    7.9770   -3.8220   19.8390 C   0  0  0  0  0  0  0  0  0  0  0  0
    7.2290   -2.8750   19.2550 C   0  0  0  0  0  0  0  0  0  0  0  0
    5.6740   -2.9190   20.0700 S   0  0  0  0  0  0  0  0  0  0  0  0
    4.8910   -3.9750   19.4670 O   0  0  0  0  0  0  0  0  0  0  0  0
    5.1780   -1.5680   20.2090 O   0  0  0  0  0  0  0  0  0  0  0  0
    6.1840   -3.4400   21.6180 N   0  0  0  0  0  0  0  0  0  0  0  0
    7.4160   -2.8580   22.1590 C   0  0  0  0  0  0  0  0  0  0  0  0
    5.7750   -4.7120   22.1960 C   0  0  0  0  0  0  0  0  0  0  0  0
    7.2630   -2.6900   23.6600 C   0  0  0  0  0  0  0  0  0  0  0  0
    5.3530   -4.5000   23.4950 C   0  0  0  0  0  0  0  0  0  0  0  0
    6.3990   -3.7660   24.3690 C   0  0  0  0  0  0  0  0  0  0  0  0
    5.6260   -3.1470   25.5200 C   0  0  0  0  0  0  0  0  0  0  0  0
    4.4050   -3.2080   25.4970 O   0  0  0  0  0  0  0  0  0  0  0  0
    6.3250   -2.5100   26.6420 N   0  0  0  0  0  0  0  0  0  0  0  0
    5.7050   -2.4350   27.8910 C   0  0  0  0  0  0  0  0  0  0  0  0
    7.0570   -1.2870   26.4080 C   0  0  0  0  0  0  0  0  0  0  0  0
    4.8170   -1.3650   28.1640 C   0  0  0  0  0  0  0  0  0  0  0  0
    6.0980   -0.1070   26.3330 C   0  0  0  0  0  0  0  0  0  0  0  0
    5.2870   -0.0810   27.5580 N   0  0  0  0  0  0  0  0  0  0  0  0
    5.6120    1.2180   28.6070 S   0  0  0  0  0  0  0  0  0  0  0  0
    5.7290    2.4170   27.8060 O   0  0  0  0  0  0  0  0  0  0  0  0
    4.6500    1.1050   29.6820 O   0  0  0  0  0  0  0  0  0  0  0  0
    7.1890    0.8610   29.2760 C   0  0  0  0  0  0  0  0  0  0  0  0
    7.6190   -0.4450   29.4350 C   0  0  0  0  0  0  0  0  0  0  0  0
    8.0400    1.9320   29.6690 C   0  0  0  0  0  0  0  0  0  0  0  0
    8.8550   -0.7740   29.9660 C   0  0  0  0  0  0  0  0  0  0  0  0
    9.4120    1.5670   30.2580 C   0  0  0  0  0  0  0  0  0  0  0  0
    7.6950    3.2250   29.5500 F   0  0  0  0  0  0  0  0  0  0  0  0
    9.7270    0.2370   30.3680 C   0  0  0  0  0  0  0  0  0  0  0  0
  1  2  1  0
  3  2  1  0
  3  4  2  0
  3  5  2  0
  3  6  1  0
  6  7  1  0
  6  8  1  0
  7  9  1  0
  8 10  1  0
  9 11  1  0
 10 11  1  0
 11 12  1  0
 12 13  2  0
 12 14  1  0
 14 15  1  0
 14 16  1  0
 15 17  1  0
 16 18  1  0
 17 19  1  0
 18 19  1  0
 19 20  1  0
 20 21  2  0
 20 22  2  0
 20 23  1  0
 23 24  2  0
 23 25  1  0
 24 26  1  0
 25 27  2  0
 25 28  1  0
 26 29  2  0
 27 29  1  0
M  END
