SAD-SAT-1f400d17-4-bromoalkyne
     RDKit          3D

 23 24  0  0  0  0  0  0  0  0999 V2000
    6.6570   -4.2440   19.8570 C   0  0  0  0  0  0  0  0  0  0  0  0
    5.4010   -4.2350   19.8590 C   0  0  0  0  0  0  0  0  0  0  0  0
    7.3280   -3.0700   19.8630 N   0  0  0  0  0  0  0  0  0  0  0  0
    6.4380   -1.8990   19.8300 C   0  0  0  0  0  0  0  0  0  0  0  0
    8.3810   -2.8680   20.8420 C   0  0  0  0  0  0  0  0  0  0  0  0
    6.2300   -1.3660   21.2530 C   0  0  0  0  0  0  0  0  0  0  0  0
    8.5990   -1.3630   21.0140 C   0  0  0  0  0  0  0  0  0  0  0  0
    7.5110   -0.7200   21.8010 C   0  0  0  0  0  0  0  0  0  0  0  0
    7.7490   -0.9740   23.2740 C   0  0  0  0  0  0  0  0  0  0  0  0
    7.1990   -0.2690   24.1170 O   0  0  0  0  0  0  0  0  0  0  0  0
    8.6240   -2.0790   23.6800 N   0  0  0  0  0  0  0  0  0  0  0  0
   10.0140   -2.1950   23.4360 C   0  0  2  0  0  0  0  0  0  0  0  0
   10.7810   -3.0440   24.2330 C   0  0  0  0  0  0  0  0  0  0  0  0
   10.6800   -0.8360   23.4070 C   0  0  0  0  0  0  0  0  0  0  0  0
   12.0380   -0.7770   23.1230 C   0  0  0  0  0  0  0  0  0  0  0  0
   10.0380    0.3880   23.6350 C   0  0  0  0  0  0  0  0  0  0  0  0
   12.8000    0.3940   23.0520 C   0  0  0  0  0  0  0  0  0  0  0  0
   10.8380    1.6980   23.5500 C   0  0  0  0  0  0  0  0  0  0  0  0
   12.1980    1.6370   23.2650 C   0  0  0  0  0  0  0  0  0  0  0  0
   10.0400    3.2660   23.7850 S   0  0  0  0  0  0  0  0  0  0  0  0
    9.1020    3.4000   22.3850 N   0  0  0  0  0  0  0  0  0  0  0  0
    9.0670    3.1670   24.8430 O   0  0  0  0  0  0  0  0  0  0  0  0
   11.0140    4.3290   23.7120 O   0  0  0  0  0  0  0  0  0  0  0  0
  1  2  2  3
  1  3  1  0
  3  4  1  0
  3  5  1  0
  4  6  1  0
  5  7  1  0
  6  8  1  0
  7  8  1  0
  8  9  1  0
  9 10  2  0
  9 11  1  0
 11 12  1  0
 12 13  1  1
 12 14  1  0
 14 15  2  0
 14 16  1  0
 15 17  1  0
 16 18  2  0
 17 19  2  0
 18 19  1  0
 18 20  1  0
 20 21  1  0
 20 22  2  0
 20 23  2  0
M  END
