SAD-SAT-f0a2747f-7-acrylamide
     RDKit          3D

 26 27  0  0  0  0  0  0  0  0999 V2000
    8.5850   -3.8270   19.9610 C   0  0  0  0  0  0  0  0  0  0  0  0
    7.5810   -2.9800   19.0450 C   0  0  0  0  0  0  0  0  0  0  0  0
    6.0440   -3.2690   19.1990 C   0  0  0  0  0  0  0  0  0  0  0  0
    4.9620   -3.8050   19.6090 O   0  0  0  0  0  0  0  0  0  0  0  0
    6.6290   -4.1700   20.0420 N   0  0  0  0  0  0  0  0  0  0  0  0
    5.8460   -5.3240   20.5250 C   0  0  0  0  0  0  0  0  0  0  0  0
    7.2190   -3.5070   21.1290 C   0  0  0  0  0  0  0  0  0  0  0  0
    6.0400   -3.2880   21.7330 C   0  0  0  0  0  0  0  0  0  0  0  0
    5.1220   -2.2990   21.2720 O   0  0  0  0  0  0  0  0  0  0  0  0
    5.8880   -4.1800   22.7170 N   0  0  0  0  0  0  0  0  0  0  0  0
    6.9350   -4.6320   23.4690 C   0  0  0  0  0  0  0  0  0  0  0  0
    8.3300   -4.7030   23.0550 C   0  0  0  0  0  0  0  0  0  0  0  0
    6.5130   -5.0160   24.6760 C   0  0  0  0  0  0  0  0  0  0  0  0
    9.2570   -5.2460   24.0350 C   0  0  0  0  0  0  0  0  0  0  0  0
    7.3320   -5.5140   25.6220 C   0  0  0  0  0  0  0  0  0  0  0  0
    8.6440   -5.6610   25.3700 C   0  0  0  0  0  0  0  0  0  0  0  0
    6.5050   -5.9170   27.1490 S   0  0  0  0  0  0  0  0  0  0  0  0
    9.6720   -6.3180   26.5150 Cl  0  0  0  0  0  0  0  0  0  0  0  0
    5.4640   -6.8930   26.9120 O   0  0  0  0  0  0  0  0  0  0  0  0
    7.5380   -6.1560   28.1440 O   0  0  0  0  0  0  0  0  0  0  0  0
    5.7540   -4.4610   27.5950 N   0  0  0  0  0  0  0  0  0  0  0  0
    6.1060   -3.8870   28.8920 C   0  0  0  0  0  0  0  0  0  0  0  0
    4.2950   -4.3090   27.3450 C   0  0  0  0  0  0  0  0  0  0  0  0
    5.9120   -2.5000   28.9040 C   0  0  0  0  0  0  0  0  0  0  0  0
    3.8060   -3.2850   28.1390 C   0  0  0  0  0  0  0  0  0  0  0  0
    4.7050   -2.1610   28.2000 O   0  0  0  0  0  0  0  0  0  0  0  0
  1  2  1  0
  2  3  1  0
  3  4  2  0
  3  5  1  0
  5  6  1  0
  5  7  1  0
  7  8  1  0
  8  9  2  0
  8 10  1  0
 10 11  1  0
 11 12  2  0
 11 13  1  0
 12 14  1  0
 13 15  2  0
 14 16  2  0
 15 16  1  0
 17 15  1  0
 16 18  1  0
 17 19  2  0
 17 20  2  0
 17 21  1  0
 21 22  1  0
 21 23  1  0
 22 24  1  0
 23 25  1  0
 24 26  1  0
 25 26  1  0
M  END
