SAD-SAT-29425be4-28-nitrile
     RDKit          3D

 24 25  0  0  0  0  0  0  0  0999 V2000
    6.4240   -4.0900   20.0180 C   0  0  0  0  0  0  0  0  0  0  0  0
    5.2120   -4.0430   19.6760 N   0  0  0  0  0  0  0  0  0  0  0  0
    6.8820   -3.2180   20.9380 N   0  0  0  0  0  0  0  0  0  0  0  0
    5.9790   -2.6810   21.9740 C   0  0  0  0  0  0  0  0  0  0  0  0
    7.9360   -2.3170   20.5420 C   0  0  0  0  0  0  0  0  0  0  0  0
    6.8570   -2.7410   23.2660 C   0  0  0  0  0  0  0  0  0  0  0  0
    7.9860   -1.1680   21.5250 C   0  0  0  0  0  0  0  0  0  0  0  0
    8.0160   -1.7410   22.9470 C   0  0  0  0  0  0  0  0  0  0  0  0
    9.2100   -2.7220   23.0460 C   0  0  0  0  0  0  0  0  0  0  0  0
   10.0870   -2.7440   22.1950 O   0  0  0  0  0  0  0  0  0  0  0  0
    9.2240   -3.5430   24.1400 N   0  0  0  0  0  0  0  0  0  0  0  0
    9.9860   -3.0930   25.2850 C   0  0  1  0  0  0  0  0  0  0  0  0
   10.7070   -4.3040   25.9360 C   0  0  0  0  0  0  0  0  0  0  0  0
   10.9250   -2.0250   24.7340 C   0  0  0  0  0  0  0  0  0  0  0  0
   12.2200   -2.4650   24.0710 C   0  0  0  0  0  0  0  0  0  0  0  0
   10.6920   -0.6340   24.7810 C   0  0  0  0  0  0  0  0  0  0  0  0
   13.1670   -1.4170   23.5200 C   0  0  0  0  0  0  0  0  0  0  0  0
   11.7000    0.3630   24.2000 C   0  0  0  0  0  0  0  0  0  0  0  0
   12.9110   -0.0390   23.5910 C   0  0  0  0  0  0  0  0  0  0  0  0
   13.6530    0.8530   23.1850 O   0  0  0  0  0  0  0  0  0  0  0  0
   13.5390    1.5060   21.9440 C   0  0  0  0  0  0  0  0  0  0  0  0
   14.4690    2.5910   21.8400 C   0  0  0  0  0  0  0  0  0  0  0  0
   13.8240    3.8760   22.5820 C   0  0  0  0  0  0  0  0  0  0  0  0
   15.1730    3.0510   20.3450 C   0  0  0  0  0  0  0  0  0  0  0  0
  1  2  2  3
  1  3  1  0
  3  4  1  0
  3  5  1  0
  4  6  1  0
  5  7  1  0
  6  8  1  0
  7  8  1  0
  8  9  1  0
  9 10  2  0
  9 11  1  0
 11 12  1  0
 12 13  1  6
 12 14  1  0
 14 15  2  0
 14 16  1  0
 15 17  1  0
 16 18  2  0
 17 19  2  0
 18 19  1  0
 19 20  1  0
 20 21  1  0
 21 22  1  0
 22 23  1  0
 22 24  1  0
M  END
