SAD-SAT-29425be4-27-nitrile
     RDKit          3D

 27 29  0  0  0  0  0  0  0  0999 V2000
    7.3300   -3.2920   18.9330 C   0  0  0  0  0  0  0  0  0  0  0  0
    6.6470   -3.0090   17.8950 N   0  0  0  0  0  0  0  0  0  0  0  0
    6.6170   -3.4810   20.0370 N   0  0  0  0  0  0  0  0  0  0  0  0
    7.1480   -4.0250   21.2980 C   0  0  0  0  0  0  0  0  0  0  0  0
    5.5530   -2.4900   20.1810 C   0  0  0  0  0  0  0  0  0  0  0  0
    7.9850   -2.7950   21.7460 C   0  0  0  0  0  0  0  0  0  0  0  0
    6.1450   -1.3600   20.7280 C   0  0  0  0  0  0  0  0  0  0  0  0
    6.7540   -1.9040   22.0000 C   0  0  0  0  0  0  0  0  0  0  0  0
    7.3320   -0.9090   22.9980 C   0  0  0  0  0  0  0  0  0  0  0  0
    7.5930    0.2640   22.7350 O   0  0  0  0  0  0  0  0  0  0  0  0
    7.5120   -1.5080   24.2120 N   0  0  0  0  0  0  0  0  0  0  0  0
    8.4170   -0.8620   25.1330 C   0  0  0  0  0  0  0  0  0  0  0  0
    7.4380   -2.9990   24.3570 C   0  0  0  0  0  0  0  0  0  0  0  0
    9.7450   -0.8930   24.3880 C   0  0  0  0  0  0  0  0  0  0  0  0
    5.9530   -3.3860   24.4030 C   0  0  0  0  0  0  0  0  0  0  0  0
   10.3950    0.4910   24.4550 C   0  0  0  0  0  0  0  0  0  0  0  0
   10.4140   -2.0800   23.6310 C   0  0  0  0  0  0  0  0  0  0  0  0
    4.9450   -2.2920   24.8110 C   0  0  0  0  0  0  0  0  0  0  0  0
    5.2900   -4.7590   24.1000 C   0  0  0  0  0  0  0  0  0  0  0  0
   11.7030    0.5570   23.7200 C   0  0  0  0  0  0  0  0  0  0  0  0
   11.6150   -1.8780   22.9980 C   0  0  0  0  0  0  0  0  0  0  0  0
    3.4790   -2.6410   24.8750 C   0  0  0  0  0  0  0  0  0  0  0  0
    3.9520   -5.0470   24.1650 N   0  0  0  0  0  0  0  0  0  0  0  0
   12.2590   -0.6600   23.0080 C   0  0  0  0  0  0  0  0  0  0  0  0
    3.0980   -4.0630   24.5280 C   0  0  0  0  0  0  0  0  0  0  0  0
   13.4020   -0.7070   22.3170 C   0  0  0  0  0  0  0  0  0  0  0  0
   13.3190   -1.5800   21.2310 C   0  0  0  0  0  0  0  0  0  0  0  0
  1  2  2  3
  1  3  1  0
  3  4  1  0
  3  5  1  0
  4  6  1  0
  5  7  1  0
  6  8  1  0
  7  8  1  0
  8  9  1  0
  9 10  2  0
  9 11  1  0
 11 12  1  0
 11 13  1  0
 12 14  1  0
 13 15  1  0
 14 16  2  0
 14 17  1  0
 15 18  2  0
 15 19  1  0
 16 20  1  0
 17 21  2  0
 18 22  1  0
 19 23  2  0
 20 24  2  0
 21 24  1  0
 22 25  2  0
 23 25  1  0
 24 26  1  0
 26 27  1  0
M  END
