SAD-SAT-5b1897b2-5-bromoalkyne
     RDKit          3D

 18 19  0  0  0  0  0  0  0  0999 V2000
    6.8180   -3.3820   19.6390 C   0  0  0  0  0  0  0  0  0  0  0  0
    5.8710   -2.8330   18.6520 C   0  0  0  0  0  0  0  0  0  0  0  0
    6.7180   -2.9630   20.9560 N   0  0  0  0  0  0  0  0  0  0  0  0
    6.9990   -1.5740   21.2500 C   0  0  0  0  0  0  0  0  0  0  0  0
    6.7710   -3.8270   22.1360 C   0  0  0  0  0  0  0  0  0  0  0  0
    8.3590   -1.4960   21.9090 C   0  0  0  0  0  0  0  0  0  0  0  0
    7.3580   -3.1640   23.2280 C   0  0  0  0  0  0  0  0  0  0  0  0
    8.5630   -2.6280   22.8520 N   0  0  0  0  0  0  0  0  0  0  0  0
    9.4510   -2.5270   23.8840 C   0  0  0  0  0  0  0  0  0  0  0  0
   10.4790   -1.4760   23.6520 C   0  0  0  0  0  0  0  0  0  0  0  0
   11.7030   -1.7640   23.0510 C   0  0  0  0  0  0  0  0  0  0  0  0
   10.1930   -0.1440   24.0440 C   0  0  0  0  0  0  0  0  0  0  0  0
   12.7020   -0.6050   22.8250 C   0  0  0  0  0  0  0  0  0  0  0  0
   11.0920    0.9350   23.8460 C   0  0  0  0  0  0  0  0  0  0  0  0
   12.3410    0.7820   23.2480 C   0  0  0  0  0  0  0  0  0  0  0  0
   10.7130    2.1530   24.2500 F   0  0  0  0  0  0  0  0  0  0  0  0
   13.0250    1.7880   23.1240 O   0  0  0  0  0  0  0  0  0  0  0  0
   12.4050    3.0190   22.7500 C   0  0  0  0  0  0  0  0  0  0  0  0
  1  2  2  3
  1  3  1  0
  3  4  1  0
  3  5  1  0
  4  6  1  0
  5  7  1  0
  6  8  1  0
  7  8  1  0
  8  9  1  0
  9 10  1  0
 10 11  2  0
 10 12  1  0
 11 13  1  0
 12 14  2  0
 13 15  2  0
 14 15  1  0
 14 16  1  0
 15 17  1  0
 17 18  1  0
M  END
