SAD-SAT-689b7d5a-3
     RDKit          3D

 21 22  0  0  0  0  0  0  0  0999 V2000
   12.6910   -0.6930   25.4840 C   0  0  0  0  0  0  0  0  0  0  0  0
   12.7870   -2.1300   25.2320 C   0  0  0  0  0  0  0  0  0  0  0  0
   11.7760   -3.2630   25.5950 C   0  0  0  0  0  0  0  0  0  0  0  0
   13.8970   -2.8680   25.1050 C   0  0  0  0  0  0  0  0  0  0  0  0
   12.1920   -1.7970   24.0280 C   0  0  0  0  0  0  0  0  0  0  0  0
   12.6890   -2.2180   22.8030 C   0  0  0  0  0  0  0  0  0  0  0  0
   11.0340   -1.0170   24.0810 C   0  0  0  0  0  0  0  0  0  0  0  0
   12.1150   -1.9400   21.6910 C   0  0  0  0  0  0  0  0  0  0  0  0
   10.3930   -0.6910   22.9180 C   0  0  0  0  0  0  0  0  0  0  0  0
   12.6750   -2.4180   20.5790 N   0  0  0  0  0  0  0  0  0  0  0  0
   10.9190   -1.1520   21.7380 C   0  0  0  0  0  0  0  0  0  0  0  0
    9.2610    0.0690   22.9770 N   0  0  0  0  0  0  0  0  0  0  0  0
    8.6160    0.5810   21.8430 C   0  0  0  0  0  0  0  0  0  0  0  0
    9.1070    1.7150   21.2790 O   0  0  0  0  0  0  0  0  0  0  0  0
    7.5280   -0.1170   21.3850 N   0  0  0  0  0  0  0  0  0  0  0  0
    6.7900    0.2560   20.2750 C   0  0  0  0  0  0  0  0  0  0  0  0
    5.6120    1.1710   20.3820 C   0  0  0  0  0  0  0  0  0  0  0  0
    7.1120   -0.1880   19.0260 C   0  0  0  0  0  0  0  0  0  0  0  0
    4.9150    1.5280   19.2210 C   0  0  0  0  0  0  0  0  0  0  0  0
    6.4430    0.1580   17.8920 N   0  0  0  0  0  0  0  0  0  0  0  0
    5.2810    1.0620   17.9630 C   0  0  0  0  0  0  0  0  0  0  0  0
  2  1  1  0
  2  3  1  0
  2  4  1  0
  2  5  1  0
  5  6  2  0
  5  7  1  0
  6  8  1  0
  7  9  2  0
  8 10  1  0
  8 11  2  0
  9 11  1  0
  9 12  1  0
 12 13  1  0
 13 14  2  0
 13 15  1  0
 15 16  1  0
 16 17  2  0
 16 18  1  0
 17 19  1  0
 18 20  2  0
 19 21  2  0
 20 21  1  0
M  END
