SAD-SAT-f25ee457-1
     RDKit          3D

 24 26  0  0  0  0  0  0  0  0999 V2000
    7.8250   -0.7790   23.5610 O   0  0  0  0  0  0  0  0  0  0  0  0
    8.6050   -1.7330   23.6340 C   0  0  0  0  0  0  0  0  0  0  0  0
    8.1400   -3.1370   23.6140 C   0  0  0  0  0  0  0  0  0  0  0  0
    9.9890   -1.5500   23.7620 N   0  0  0  0  0  0  0  0  0  0  0  0
    8.3900   -3.9800   24.5900 N   0  0  0  0  0  0  0  0  0  0  0  0
   10.8470   -2.5060   23.0430 C   0  0  0  0  0  0  0  0  0  0  0  0
   10.6200   -1.0190   24.9600 C   0  0  0  0  0  0  0  0  0  0  0  0
    7.8620   -5.2470   24.8270 C   0  0  0  0  0  0  0  0  0  0  0  0
    9.3450   -3.4980   25.5220 N   0  0  0  0  0  0  0  0  0  0  0  0
   12.1180   -1.9990   22.7560 C   0  0  0  0  0  0  0  0  0  0  0  0
   12.0120   -0.5070   24.6200 C   0  0  1  0  0  0  0  0  0  0  0  0
    8.5650   -5.6220   26.0620 C   0  0  0  0  0  0  0  0  0  0  0  0
    9.4770   -4.5330   26.4760 C   0  0  0  0  0  0  0  0  0  0  0  0
   12.7940   -1.4640   23.8950 O   0  0  0  0  0  0  0  0  0  0  0  0
   11.8670    0.7110   23.7410 C   0  0  0  0  0  0  0  0  0  0  0  0
   13.0510    1.4240   23.3370 N   0  0  0  0  0  0  0  0  0  0  0  0
   13.7400    0.7750   22.2450 C   0  0  0  0  0  0  0  0  0  0  0  0
   14.3420    1.7210   21.3300 C   0  0  0  0  0  0  0  0  0  0  0  0
   14.4560    3.1710   21.7500 C   0  0  0  0  0  0  0  0  0  0  0  0
   14.7900    1.4110   20.0320 C   0  0  0  0  0  0  0  0  0  0  0  0
   14.9890    4.1050   20.8690 C   0  0  0  0  0  0  0  0  0  0  0  0
   15.3050    2.4120   19.2120 C   0  0  0  0  0  0  0  0  0  0  0  0
   15.4170    3.7380   19.6120 C   0  0  0  0  0  0  0  0  0  0  0  0
   15.6990    2.1010   17.9990 F   0  0  0  0  0  0  0  0  0  0  0  0
  1  2  2  0
  2  3  1  0
  2  4  1  0
  3  5  1  0
  4  6  1  0
  4  7  1  0
  5  8  1  0
  5  9  1  0
  6 10  1  0
  7 11  1  0
  8 12  2  0
  9 13  2  0
 12 13  1  0
 10 14  1  0
 11 14  1  0
 11 15  1  6
 15 16  1  0
 16 17  1  0
 17 18  1  0
 18 19  2  0
 18 20  1  0
 19 21  1  0
 20 22  2  0
 21 23  2  0
 22 23  1  0
 22 24  1  0
M  END
