SAD-SAT-b55127ae-1-acrylamide
     RDKit          3D

 20 21  0  0  0  0  0  0  0  0999 V2000
    7.8930   -3.2340   18.9820 C   0  0  0  0  0  0  0  0  0  0  0  0
    6.6960   -2.3450   18.9640 C   0  0  0  0  0  0  0  0  0  0  0  0
    5.9880   -2.6570   20.2340 C   0  0  0  0  0  0  0  0  0  0  0  0
    5.0030   -3.3410   20.2050 O   0  0  0  0  0  0  0  0  0  0  0  0
    6.5540   -2.2060   21.4120 N   0  0  0  0  0  0  0  0  0  0  0  0
    6.6310   -3.1770   22.5250 C   0  0  0  0  0  0  0  0  0  0  0  0
    7.5760   -1.1540   21.4200 C   0  0  0  0  0  0  0  0  0  0  0  0
    7.6960   -2.8660   23.5900 C   0  0  0  0  0  0  0  0  0  0  0  0
    8.8440   -1.6620   21.7270 C   0  0  0  0  0  0  0  0  0  0  0  0
    8.9160   -2.2110   23.1020 N   0  0  0  0  0  0  0  0  0  0  0  0
   10.1630   -2.7220   23.5110 C   0  0  0  0  0  0  0  0  0  0  0  0
   10.1940   -3.6600   24.2760 O   0  0  0  0  0  0  0  0  0  0  0  0
   11.4200   -2.1400   23.0510 C   0  0  0  0  0  0  0  0  0  0  0  0
   11.4090   -0.7800   23.2760 C   0  0  0  0  0  0  0  0  0  0  0  0
   12.5450   -0.0490   23.0030 C   0  0  0  0  0  0  0  0  0  0  0  0
   10.2470   -0.2160   23.7640 C   0  0  0  0  0  0  0  0  0  0  0  0
   12.5690    1.3280   23.2130 C   0  0  0  0  0  0  0  0  0  0  0  0
   10.1040    1.2670   24.0470 C   0  0  0  0  0  0  0  0  0  0  0  0
   11.3700    2.0340   23.7330 C   0  0  0  0  0  0  0  0  0  0  0  0
    8.6630    1.9820   24.6460 Cl  0  0  0  0  0  0  0  0  0  0  0  0
  1  2  1  0
  2  3  1  0
  3  4  2  0
  3  5  1  0
  5  6  1  0
  5  7  1  0
  6  8  1  0
  7  9  1  0
  8 10  1  0
  9 10  1  0
 10 11  1  0
 11 12  2  0
 11 13  1  0
 13 14  1  0
 14 15  2  0
 14 16  1  0
 15 17  1  0
 16 18  2  0
 17 19  2  0
 18 19  1  0
 18 20  1  0
M  END
