SAD-SAT-89668ff1-4-vinylsulfonamide
     RDKit          3D

 24 25  0  0  0  0  0  0  0  0999 V2000
    6.9100   -4.1050   20.3800 C   0  0  0  0  0  0  0  0  0  0  0  0
    6.4840   -5.4260   21.0840 C   0  0  0  0  0  0  0  0  0  0  0  0
    5.5180   -5.1880   22.5810 S   0  0  0  0  0  0  0  0  0  0  0  0
    4.5900   -4.1010   22.3060 O   0  0  0  0  0  0  0  0  0  0  0  0
    5.0180   -6.4730   23.0040 O   0  0  0  0  0  0  0  0  0  0  0  0
    6.6990   -4.7570   23.7630 N   0  0  0  0  0  0  0  0  0  0  0  0
    6.4280   -4.7730   25.2360 C   0  0  0  0  0  0  0  0  0  0  0  0
    8.0650   -5.0850   23.4200 C   0  0  0  0  0  0  0  0  0  0  0  0
    7.6890   -4.2660   26.0040 C   0  0  1  0  0  0  0  0  0  0  0  0
    8.9760   -3.9460   23.8740 C   0  0  2  0  0  0  0  0  0  0  0  0
    8.6430   -5.4070   26.3880 C   0  0  0  0  0  0  0  0  0  0  0  0
    8.3770   -3.2580   25.1020 C   0  0  0  0  0  0  0  0  0  0  0  0
    9.0200   -2.9840   22.8110 N   0  0  0  0  0  0  0  0  0  0  0  0
    9.3770   -6.2240   26.7330 N   0  0  0  0  0  0  0  0  0  0  0  0
    9.8700   -1.9550   22.9200 C   0  0  0  0  0  0  0  0  0  0  0  0
    9.6040   -0.8600   23.7260 C   0  0  0  0  0  0  0  0  0  0  0  0
   11.0470   -2.0420   22.1790 C   0  0  0  0  0  0  0  0  0  0  0  0
   10.5000    0.1380   23.7830 C   0  0  0  0  0  0  0  0  0  0  0  0
   11.9540   -1.0480   22.2350 C   0  0  0  0  0  0  0  0  0  0  0  0
   11.6250    0.0100   23.0380 C   0  0  0  0  0  0  0  0  0  0  0  0
   12.6130    1.2960   23.2160 S   0  0  0  0  0  0  0  0  0  0  0  0
   13.8660    0.5300   22.5110 N   0  0  0  0  0  0  0  0  0  0  0  0
   12.1500    2.4660   22.5110 O   0  0  0  0  0  0  0  0  0  0  0  0
   12.6340    1.0740   24.5840 O   0  0  0  0  0  0  0  0  0  0  0  0
  1  2  1  0
  3  2  1  0
  3  4  2  0
  3  5  2  0
  3  6  1  0
  6  7  1  0
  6  8  1  0
  7  9  1  0
  8 10  1  0
  9 11  1  6
  9 12  1  0
 10 12  1  0
 10 13  1  6
 11 14  3  0
 13 15  1  0
 15 16  2  0
 15 17  1  0
 16 18  1  0
 17 19  2  0
 18 20  2  0
 19 20  1  0
 20 21  1  0
 21 22  1  0
 21 23  2  0
 21 24  2  0
M  END
