SAD-SAT-24589cd1-1
     RDKit          3D

 21 22  0  0  0  0  0  0  0  0999 V2000
   -0.8850  -27.8440    9.1970 N   0  0  0  0  0  0  0  0  0  0  0  0
   -0.1380  -27.1810    8.6070 C   0  0  0  0  0  0  0  0  0  0  0  0
    0.7990  -26.3620    7.8890 C   0  0  0  0  0  0  0  0  0  0  0  0
    1.5290  -25.3890    8.5790 C   0  0  0  0  0  0  0  0  0  0  0  0
    0.9870  -26.5370    6.5040 C   0  0  0  0  0  0  0  0  0  0  0  0
    2.4420  -24.5920    7.8960 C   0  0  0  0  0  0  0  0  0  0  0  0
    1.9080  -25.7370    5.8030 C   0  0  0  0  0  0  0  0  0  0  0  0
    2.6300  -24.7630    6.5290 C   0  0  0  0  0  0  0  0  0  0  0  0
    2.1410  -25.9110    4.3040 C   0  0  0  0  0  0  0  0  0  0  0  0
    0.9950  -25.5220    3.3650 C   0  0  0  0  0  0  0  0  0  0  0  0
   -0.0590  -25.0680    3.7990 O   0  0  0  0  0  0  0  0  0  0  0  0
    1.3080  -25.7350    2.0160 N   0  0  0  0  0  0  0  0  0  0  0  0
    2.2420  -25.0050    1.2140 C   0  0  0  0  0  0  0  0  0  0  0  0
    1.9920  -23.7010    0.7790 C   0  0  0  0  0  0  0  0  0  0  0  0
    3.4900  -25.5360    0.8000 C   0  0  0  0  0  0  0  0  0  0  0  0
    2.8400  -22.9430    0.0320 N   0  0  0  0  0  0  0  0  0  0  0  0
    4.3840  -24.7690    0.0310 C   0  0  0  0  0  0  0  0  0  0  0  0
    3.9350  -26.9070    1.1370 N   0  0  0  0  0  0  0  0  0  0  0  0
    4.0170  -23.4890   -0.3180 C   0  0  0  0  0  0  0  0  0  0  0  0
    3.0710  -27.7120    1.5280 O   0  0  0  0  0  0  0  0  0  0  0  0
    5.0210  -27.2780    0.6690 O   0  0  0  0  0  0  0  0  0  0  0  0
  1  2  3  0
  2  3  1  0
  3  4  2  0
  3  5  1  0
  4  6  1  0
  5  7  2  0
  6  8  2  0
  7  8  1  0
  7  9  1  0
  9 10  1  0
 10 11  2  0
 10 12  1  0
 12 13  1  0
 13 14  2  0
 13 15  1  0
 14 16  1  0
 15 17  2  0
 15 18  1  0
 16 19  2  0
 17 19  1  0
 18 20  2  0
 18 21  1  0
M  CHG  2  18   1  21  -1
M  END
