SAD-SAT-f2e2579e-1-vinylsulfonamide
     RDKit          3D

 33 36  0  0  0  0  0  0  0  0999 V2000
    7.4680   -3.1000   18.7100 C   0  0  0  0  0  0  0  0  0  0  0  0
    7.0870   -2.8800   19.9310 C   0  0  0  0  0  0  0  0  0  0  0  0
    6.2540   -4.3030   20.5760 S   0  0  0  0  0  0  0  0  0  0  0  0
    5.1060   -4.6010   19.7680 O   0  0  0  0  0  0  0  0  0  0  0  0
    7.1650   -5.3070   21.1080 O   0  0  0  0  0  0  0  0  0  0  0  0
    5.7950   -3.5470   21.9340 N   0  0  0  0  0  0  0  0  0  0  0  0
    6.9750   -2.7290   22.2600 C   0  0  0  0  0  0  0  0  0  0  0  0
    5.2530   -4.4170   22.9520 C   0  0  0  0  0  0  0  0  0  0  0  0
    6.9640   -2.1940   23.6550 C   0  0  0  0  0  0  0  0  0  0  0  0
    6.2850   -4.5880   24.0340 C   0  0  0  0  0  0  0  0  0  0  0  0
    6.6190   -3.2480   24.6960 C   0  0  0  0  0  0  0  0  0  0  0  0
    5.4790   -2.7290   25.5420 C   0  0  0  0  0  0  0  0  0  0  0  0
    4.3570   -3.2160   25.4740 O   0  0  0  0  0  0  0  0  0  0  0  0
    5.8460   -1.6320   26.4370 N   0  0  0  0  0  0  0  0  0  0  0  0
    7.0070   -1.7940   27.1460 C   0  0  0  0  0  0  0  0  0  0  0  0
    5.4860   -0.3360   25.9970 C   0  0  0  0  0  0  0  0  0  0  0  0
    7.3490   -1.0840   28.3030 C   0  0  0  0  0  0  0  0  0  0  0  0
    6.3650    0.7200   26.6830 C   0  0  0  0  0  0  0  0  0  0  0  0
    6.2480   -0.4460   28.8340 C   0  0  0  0  0  0  0  0  0  0  0  0
    6.1070    0.7420   28.1720 N   0  0  0  0  0  0  0  0  0  0  0  0
    6.7240    2.1370   28.9480 S   0  0  0  0  0  0  0  0  0  0  0  0
    7.3740    2.9390   27.9410 O   0  0  0  0  0  0  0  0  0  0  0  0
    5.6410    2.6600   29.7500 O   0  0  0  0  0  0  0  0  0  0  0  0
    7.9520    1.5790   30.0190 C   0  0  0  0  0  0  0  0  0  0  0  0
    9.2690    1.6860   29.4090 C   0  0  0  0  0  0  0  0  0  0  0  0
    7.5220    1.1060   31.3230 C   0  0  0  0  0  0  0  0  0  0  0  0
   10.0980    1.1880   30.4570 C   0  0  0  0  0  0  0  0  0  0  0  0
    8.4870    0.6630   32.2050 C   0  0  0  0  0  0  0  0  0  0  0  0
    6.2040    1.0420   31.8190 C   0  0  0  0  0  0  0  0  0  0  0  0
    9.8990    0.7040   31.7370 C   0  0  0  0  0  0  0  0  0  0  0  0
    8.1430    0.1430   33.6150 C   0  0  0  0  0  0  0  0  0  0  0  0
    5.7880    0.5840   33.0880 C   0  0  0  0  0  0  0  0  0  0  0  0
    6.7820    0.0900   34.0950 N   0  0  0  0  0  0  0  0  0  0  0  0
  1  2  1  0
  3  2  1  0
  3  4  2  0
  3  5  2  0
  3  6  1  0
  6  7  1  0
  6  8  1  0
  7  9  1  0
  8 10  1  0
  9 11  1  0
 10 11  1  0
 11 12  1  0
 12 13  2  0
 12 14  1  0
 14 15  1  0
 14 16  1  0
 15 17  1  0
 16 18  1  0
 17 19  1  0
 18 20  1  0
 19 20  1  0
 20 21  1  0
 21 22  2  0
 21 23  2  0
 21 24  1  0
 24 25  2  0
 24 26  1  0
 25 27  1  0
 26 28  2  0
 26 29  1  0
 27 30  2  0
 28 30  1  0
 28 31  1  0
 29 32  2  0
 31 33  2  0
 32 33  1  0
M  END
