SAD-SAT-c989feaa-10-acrylamide
     RDKit          3D

 23 24  0  0  0  0  0  0  0  0999 V2000
    7.8030   -2.8220   18.5570 C   0  0  0  0  0  0  0  0  0  0  0  0
    6.3300   -2.7980   18.9170 C   0  0  0  0  0  0  0  0  0  0  0  0
    5.9030   -3.4770   20.1670 C   0  0  0  0  0  0  0  0  0  0  0  0
    5.2450   -4.5140   20.0810 O   0  0  0  0  0  0  0  0  0  0  0  0
    6.2690   -2.8670   21.3630 N   0  0  0  0  0  0  0  0  0  0  0  0
    7.1250   -1.6580   21.3500 C   0  0  0  0  0  0  0  0  0  0  0  0
    6.1070   -3.5590   22.6370 C   0  0  0  0  0  0  0  0  0  0  0  0
    8.4520   -1.8460   22.1040 C   0  0  0  0  0  0  0  0  0  0  0  0
    7.4780   -3.8130   23.3170 C   0  0  2  0  0  0  0  0  0  0  0  0
    8.3180   -2.5850   23.3660 N   0  0  0  0  0  0  0  0  0  0  0  0
    8.1760   -5.0470   22.6840 C   0  0  0  0  0  0  0  0  0  0  0  0
    9.4140   -2.5380   24.2360 C   0  0  0  0  0  0  0  0  0  0  0  0
    8.3510   -6.3690   23.4820 C   0  0  0  0  0  0  0  0  0  0  0  0
    9.4940   -3.2650   25.2250 O   0  0  0  0  0  0  0  0  0  0  0  0
   10.4650   -1.5800   23.9300 C   0  0  0  0  0  0  0  0  0  0  0  0
    7.0650   -7.2130   23.4120 C   0  0  0  0  0  0  0  0  0  0  0  0
    8.8120   -6.1680   24.9240 C   0  0  0  0  0  0  0  0  0  0  0  0
   10.6560   -0.3020   24.6210 C   0  0  0  0  0  0  0  0  0  0  0  0
   11.2780   -2.0220   22.8810 C   0  0  0  0  0  0  0  0  0  0  0  0
   11.7230    0.4950   24.1760 C   0  0  0  0  0  0  0  0  0  0  0  0
   12.4050   -1.1490   22.4320 C   0  0  0  0  0  0  0  0  0  0  0  0
   12.5600    0.1320   23.1590 C   0  0  0  0  0  0  0  0  0  0  0  0
   13.4140   -1.6170   21.1700 Cl  0  0  0  0  0  0  0  0  0  0  0  0
  1  2  1  0
  2  3  1  0
  3  4  2  0
  3  5  1  0
  5  6  1  0
  5  7  1  0
  6  8  1  0
  7  9  1  0
  8 10  1  0
  9 10  1  0
  9 11  1  6
 10 12  1  0
 11 13  1  0
 12 14  2  0
 12 15  1  0
 13 16  1  0
 13 17  1  0
 15 18  2  0
 15 19  1  0
 18 20  1  0
 19 21  2  0
 20 22  2  0
 21 22  1  0
 21 23  1  0
M  END
