SAD-SAT-29425be4-3-chloroacetamide
     RDKit          3D

 23 24  0  0  0  0  0  0  0  0999 V2000
    7.1960   -3.0290   18.8790 C   0  0  0  0  0  0  0  0  0  0  0  0
    6.1990   -3.3510   19.9670 C   0  0  0  0  0  0  0  0  0  0  0  0
    5.3730   -4.2500   19.7850 O   0  0  0  0  0  0  0  0  0  0  0  0
    6.2420   -2.6420   21.1600 N   0  0  0  0  0  0  0  0  0  0  0  0
    7.0450   -1.4220   21.1360 C   0  0  0  0  0  0  0  0  0  0  0  0
    6.0070   -3.2480   22.4740 C   0  0  0  0  0  0  0  0  0  0  0  0
    8.3310   -1.5770   21.9210 C   0  0  0  0  0  0  0  0  0  0  0  0
    7.2060   -3.4440   23.1690 C   0  0  0  0  0  0  0  0  0  0  0  0
    7.9870   -2.1290   23.3000 C   0  0  0  0  0  0  0  0  0  0  0  0
    9.2590   -2.3690   24.1130 C   0  0  0  0  0  0  0  0  0  0  0  0
    9.2650   -3.2400   24.9810 O   0  0  0  0  0  0  0  0  0  0  0  0
   10.3500   -1.5450   23.8350 N   0  0  0  0  0  0  0  0  0  0  0  0
   10.0530   -0.1680   23.4470 C   0  0  0  0  0  0  0  0  0  0  0  0
   10.4990    0.8820   24.4000 C   0  0  0  0  0  0  0  0  0  0  0  0
   12.1780    1.2160   24.0560 S   0  0  0  0  0  0  0  0  0  0  0  0
   12.5750   -0.3550   23.5580 C   0  0  0  0  0  0  0  0  0  0  0  0
   12.4890   -1.5310   24.2670 C   0  0  0  0  0  0  0  0  0  0  0  0
   12.9760   -0.3490   22.3390 C   0  0  0  0  0  0  0  0  0  0  0  0
   12.8040   -2.7090   23.5910 C   0  0  0  0  0  0  0  0  0  0  0  0
   13.2610   -1.4600   21.7230 C   0  0  0  0  0  0  0  0  0  0  0  0
   13.1890   -2.6780   22.2280 C   0  0  0  0  0  0  0  0  0  0  0  0
   13.6200   -1.4960   20.5580 C   0  0  0  0  0  0  0  0  0  0  0  0
   13.5480   -3.6390   21.1180 C   0  0  0  0  0  0  0  0  0  0  0  0
  1  2  1  0
  2  3  2  0
  2  4  1  0
  4  5  1  0
  4  6  1  0
  5  7  1  0
  6  8  1  0
  7  9  1  0
  8  9  1  0
  9 10  1  0
 10 11  2  0
 10 12  1  0
 12 13  1  0
 13 14  1  0
 14 15  1  0
 15 16  1  0
 16 17  2  0
 16 18  1  0
 17 19  1  0
 18 20  2  0
 19 21  2  0
 20 21  1  0
 20 22  1  0
 21 23  1  0
M  END
