SAD-SAT-b55127ae-4-nitrile
     RDKit          3D

 15 16  0  0  0  0  0  0  0  0999 V2000
    6.8410   -3.6600   19.8370 C   0  0  0  0  0  0  0  0  0  0  0  0
    6.3930   -3.0910   18.7780 N   0  0  0  0  0  0  0  0  0  0  0  0
    6.7400   -3.0350   21.0620 N   0  0  0  0  0  0  0  0  0  0  0  0
    7.0480   -1.6010   21.1420 C   0  0  0  0  0  0  0  0  0  0  0  0
    7.1450   -3.7370   22.3140 C   0  0  0  0  0  0  0  0  0  0  0  0
    8.4160   -1.3720   21.7800 C   0  0  0  0  0  0  0  0  0  0  0  0
    7.4170   -2.7860   23.4830 C   0  0  0  0  0  0  0  0  0  0  0  0
    8.4750   -1.7980   23.1750 N   0  0  0  0  0  0  0  0  0  0  0  0
    9.7350   -2.1650   23.6290 C   0  0  0  0  0  0  0  0  0  0  0  0
   10.7200   -1.0190   23.5210 C   0  0  0  0  0  0  0  0  0  0  0  0
   12.0490   -0.9720   22.9780 C   0  0  0  0  0  0  0  0  0  0  0  0
   10.3000    0.2160   24.0040 C   0  0  0  0  0  0  0  0  0  0  0  0
   12.8550    0.2150   22.9300 C   0  0  0  0  0  0  0  0  0  0  0  0
   11.0960    1.4600   23.9630 N   0  0  0  0  0  0  0  0  0  0  0  0
   12.3980    1.4750   23.4180 C   0  0  0  0  0  0  0  0  0  0  0  0
  1  2  2  3
  1  3  1  0
  3  4  1  0
  3  5  1  0
  4  6  1  0
  5  7  1  0
  6  8  1  0
  7  8  1  0
  8  9  1  0
  9 10  1  0
 10 11  2  0
 10 12  1  0
 11 13  1  0
 12 14  2  0
 13 15  2  0
 14 15  1  0
M  END
