SAD-SAT-b55127ae-2-nitrile
     RDKit          3D

 27 28  0  0  0  0  0  0  0  0999 V2000
    7.3770   -2.7400   18.5020 C   0  0  0  0  0  0  0  0  0  0  0  0
    6.6500   -2.9710   17.5040 N   0  0  0  0  0  0  0  0  0  0  0  0
    6.8280   -1.8910   19.3840 N   0  0  0  0  0  0  0  0  0  0  0  0
    6.9610   -0.4440   19.2840 C   0  0  0  0  0  0  0  0  0  0  0  0
    5.4860   -2.2580   19.6430 C   0  0  0  0  0  0  0  0  0  0  0  0
    7.1360   -0.0160   17.8360 C   0  0  0  0  0  0  0  0  0  0  0  0
    5.6120   -3.4040   20.5640 C   0  0  0  0  0  0  0  0  0  0  0  0
    5.3420   -4.5320   20.1440 O   0  0  0  0  0  0  0  0  0  0  0  0
    6.0950   -3.0770   21.8230 N   0  0  0  0  0  0  0  0  0  0  0  0
    6.4240   -1.6470   22.0250 C   0  0  0  0  0  0  0  0  0  0  0  0
    6.9720   -3.9700   22.5800 C   0  0  0  0  0  0  0  0  0  0  0  0
    7.8610   -1.4880   22.1350 C   0  0  0  0  0  0  0  0  0  0  0  0
    7.5440   -3.3690   23.7120 C   0  0  0  0  0  0  0  0  0  0  0  0
    8.3130   -2.1300   23.3810 N   0  0  0  0  0  0  0  0  0  0  0  0
    9.9800   -2.3880   23.3270 S   0  0  0  0  0  0  0  0  0  0  0  0
   10.4620   -3.2210   24.3910 O   0  0  0  0  0  0  0  0  0  0  0  0
   10.1830   -2.7170   21.9490 O   0  0  0  0  0  0  0  0  0  0  0  0
   10.7420   -0.8850   23.4340 C   0  0  0  0  0  0  0  0  0  0  0  0
   10.1080    0.1790   24.0630 C   0  0  0  0  0  0  0  0  0  0  0  0
   12.0240   -0.7190   22.8580 C   0  0  0  0  0  0  0  0  0  0  0  0
   10.6340    1.4620   24.1710 C   0  0  0  0  0  0  0  0  0  0  0  0
   12.7240    0.6310   22.9120 C   0  0  0  0  0  0  0  0  0  0  0  0
   12.8150   -1.8140   22.1350 C   0  0  0  0  0  0  0  0  0  0  0  0
   11.9660    1.7320   23.5890 C   0  0  0  0  0  0  0  0  0  0  0  0
   13.4790   -2.6910   22.9220 F   0  0  0  0  0  0  0  0  0  0  0  0
   12.0450   -2.5500   21.3110 F   0  0  0  0  0  0  0  0  0  0  0  0
   13.6940   -1.2780   21.2660 F   0  0  0  0  0  0  0  0  0  0  0  0
  1  2  2  3
  1  3  1  0
  3  4  1  0
  3  5  1  0
  4  6  1  0
  5  7  1  0
  7  8  2  0
  7  9  1  0
  9 10  1  0
  9 11  1  0
 10 12  1  0
 11 13  1  0
 12 14  1  0
 13 14  1  0
 14 15  1  0
 15 16  2  0
 15 17  2  0
 15 18  1  0
 18 19  2  0
 18 20  1  0
 19 21  1  0
 20 22  2  0
 20 23  1  0
 21 24  2  0
 22 24  1  0
 23 25  1  0
 23 26  1  0
 23 27  1  0
M  END
