SAD-SAT-29425be4-5-chloroacetamide
     RDKit          3D

 36 38  0  0  0  0  0  0  0  0999 V2000
    6.7300   -3.1250   19.1000 C   0  0  0  0  0  0  0  0  0  0  0  0
    5.7460   -3.7290   20.1010 C   0  0  0  0  0  0  0  0  0  0  0  0
    5.3530   -4.8800   19.9580 O   0  0  0  0  0  0  0  0  0  0  0  0
    5.2660   -2.9930   21.1800 N   0  0  0  0  0  0  0  0  0  0  0  0
    5.2740   -3.7020   22.4390 C   0  0  0  0  0  0  0  0  0  0  0  0
    5.7460   -1.6280   21.2810 C   0  0  0  0  0  0  0  0  0  0  0  0
    6.6940   -3.8550   22.9340 C   0  0  0  0  0  0  0  0  0  0  0  0
    7.1750   -1.5630   21.8160 C   0  0  0  0  0  0  0  0  0  0  0  0
    7.3890   -2.4970   23.0250 C   0  0  0  0  0  0  0  0  0  0  0  0
    8.8500   -2.7310   23.3880 C   0  0  0  0  0  0  0  0  0  0  0  0
    9.1430   -3.8110   23.8890 O   0  0  0  0  0  0  0  0  0  0  0  0
    9.7790   -1.7150   23.1500 N   0  0  0  0  0  0  0  0  0  0  0  0
   11.1730   -2.0210   22.8550 C   0  0  0  0  0  0  0  0  0  0  0  0
    9.5380   -0.4650   23.9670 C   0  0  0  0  0  0  0  0  0  0  0  0
   12.1330   -1.0660   23.5090 C   0  0  0  0  0  0  0  0  0  0  0  0
   10.2970    0.7950   23.3960 C   0  0  0  0  0  0  0  0  0  0  0  0
   13.3400   -1.2780   23.5470 O   0  0  0  0  0  0  0  0  0  0  0  0
   11.3640    0.1000   24.0430 N   0  0  0  0  0  0  0  0  0  0  0  0
   11.0900    0.6950   22.4510 O   0  0  0  0  0  0  0  0  0  0  0  0
    9.9550    1.9790   24.0760 N   0  0  0  0  0  0  0  0  0  0  0  0
    9.9760    0.2260   24.4840 C   0  0  0  0  0  0  0  0  0  0  0  0
   10.1680    3.3160   23.6610 C   0  0  0  0  0  0  0  0  0  0  0  0
    9.6550   -0.0700   25.8290 C   0  0  0  0  0  0  0  0  0  0  0  0
    8.8750    0.6590   23.5770 C   0  0  0  0  0  0  0  0  0  0  0  0
    9.1520    4.2610   23.8310 C   0  0  0  0  0  0  0  0  0  0  0  0
   11.4360    3.6610   23.0750 C   0  0  0  0  0  0  0  0  0  0  0  0
    8.3460    0.0480   26.2810 C   0  0  0  0  0  0  0  0  0  0  0  0
    7.5300    0.7760   24.0860 C   0  0  0  0  0  0  0  0  0  0  0  0
    9.0760    1.0030   22.0800 C   0  0  0  0  0  0  0  0  0  0  0  0
    9.3710    5.6760   23.3960 C   0  0  0  0  0  0  0  0  0  0  0  0
   11.7380    4.9850   22.6260 C   0  0  0  0  0  0  0  0  0  0  0  0
   12.4910    2.5940   22.9240 C   0  0  0  0  0  0  0  0  0  0  0  0
    7.3520    0.4570   25.4270 C   0  0  0  0  0  0  0  0  0  0  0  0
    6.4080    1.2210   23.1840 C   0  0  0  0  0  0  0  0  0  0  0  0
   10.6740    6.0470   22.7860 C   0  0  0  0  0  0  0  0  0  0  0  0
   13.0680    5.3390   22.0080 C   0  0  0  0  0  0  0  0  0  0  0  0
  1  2  1  0
  2  3  2  0
  2  4  1  0
  4  5  1  0
  4  6  1  0
  5  7  1  0
  6  8  1  0
  7  9  1  0
  8  9  1  0
  9 10  1  0
 10 11  2  0
 10 12  1  0
 12 13  1  0
 12 14  1  0
 13 15  1  0
 14 16  1  0
 15 17  2  0
 15 18  1  0
 16 19  2  0
 16 20  1  0
 18 21  1  0
 20 22  1  0
 21 23  2  0
 21 24  1  0
 22 25  2  0
 22 26  1  0
 23 27  1  0
 24 28  2  0
 24 29  1  0
 25 30  1  0
 26 31  2  0
 26 32  1  0
 27 33  2  0
 28 33  1  0
 28 34  1  0
 30 35  2  0
 31 35  1  0
 31 36  1  0
M  END
