SAD-SAT-b55127ae-7-chloroacetamide
     RDKit          3D

 27 29  0  0  0  0  0  0  0  0999 V2000
    7.4430   -4.6730   20.8060 C   0  0  0  0  0  0  0  0  0  0  0  0
    7.3670   -3.3040   20.1910 C   0  0  0  0  0  0  0  0  0  0  0  0
    6.7000   -3.1710   19.1110 O   0  0  0  0  0  0  0  0  0  0  0  0
    8.0950   -2.3080   20.8900 N   0  0  0  0  0  0  0  0  0  0  0  0
    9.3050   -2.7310   21.6300 C   0  0  0  0  0  0  0  0  0  0  0  0
    7.7250   -0.8770   20.9100 C   0  0  0  0  0  0  0  0  0  0  0  0
   10.0260   -1.6930   22.4830 C   0  0  0  0  0  0  0  0  0  0  0  0
    8.4160    0.0280   21.9450 C   0  0  0  0  0  0  0  0  0  0  0  0
    9.0150   -0.7620   23.1070 C   0  0  0  0  0  0  0  0  0  0  0  0
    7.9740   -1.1560   24.0520 C   0  0  0  0  0  0  0  0  0  0  0  0
    8.3570   -1.0660   25.2040 O   0  0  0  0  0  0  0  0  0  0  0  0
    6.7080   -1.5840   23.7170 N   0  0  0  0  0  0  0  0  0  0  0  0
    6.0170   -0.6760   22.7970 C   0  0  0  0  0  0  0  0  0  0  0  0
    6.5250   -3.0470   23.5950 C   0  0  0  0  0  0  0  0  0  0  0  0
    4.7580   -1.1490   22.3540 C   0  0  0  0  0  0  0  0  0  0  0  0
    5.4160   -3.4800   22.6270 C   0  0  0  0  0  0  0  0  0  0  0  0
    5.0520   -2.4120   21.7040 N   0  0  0  0  0  0  0  0  0  0  0  0
    5.2030   -2.4640   20.3900 C   0  0  0  0  0  0  0  0  0  0  0  0
    4.9630   -3.6760   19.7950 O   0  0  0  0  0  0  0  0  0  0  0  0
    5.6210   -1.3810   19.5830 C   0  0  0  0  0  0  0  0  0  0  0  0
    4.9770   -0.0100   19.4830 C   0  0  0  0  0  0  0  0  0  0  0  0
    5.3010    0.7370   18.1770 C   0  0  0  0  0  0  0  0  0  0  0  0
    4.1250    0.6900   20.4210 C   0  0  0  0  0  0  0  0  0  0  0  0
    4.7400    2.1190   17.9290 C   0  0  0  0  0  0  0  0  0  0  0  0
    3.6130    1.9770   20.1610 C   0  0  0  0  0  0  0  0  0  0  0  0
    3.6260    0.2420   21.7900 C   0  0  0  0  0  0  0  0  0  0  0  0
    3.8580    2.7130   19.0150 C   0  0  0  0  0  0  0  0  0  0  0  0
  1  2  1  0
  2  3  2  0
  2  4  1  0
  4  5  1  0
  4  6  1  0
  5  7  1  0
  6  8  1  0
  7  9  1  0
  8  9  1  0
  9 10  1  0
 10 11  2  0
 10 12  1  0
 12 13  1  0
 12 14  1  0
 13 15  1  0
 14 16  1  0
 15 17  1  0
 16 17  1  0
 17 18  1  0
 18 19  2  0
 18 20  1  0
 20 21  1  0
 21 22  2  0
 21 23  1  0
 22 24  1  0
 23 25  2  0
 23 26  1  0
 24 27  2  0
 25 27  1  0
M  END
