SAD-SAT-1f400d17-2-acrylamide
     RDKit          3D

 19 20  0  0  0  0  0  0  0  0999 V2000
    8.3070   -4.1150   20.4490 C   0  0  0  0  0  0  0  0  0  0  0  0
    7.3360   -3.2040   20.3190 C   0  0  0  0  0  0  0  0  0  0  0  0
    6.5340   -3.1460   21.5620 C   0  0  0  0  0  0  0  0  0  0  0  0
    5.1370   -3.6140   21.4790 O   0  0  0  0  0  0  0  0  0  0  0  0
    7.5070   -2.5380   22.6260 N   0  0  0  0  0  0  0  0  0  0  0  0
    9.1080   -2.4980   22.4470 C   0  0  0  0  0  0  0  0  0  0  0  0
   10.5820   -1.8190   22.6320 C   0  0  0  0  0  0  0  0  0  0  0  0
    9.2410   -1.1680   23.1680 C   0  0  0  0  0  0  0  0  0  0  0  0
   10.6970   -0.4180   23.3720 C   0  0  0  0  0  0  0  0  0  0  0  0
    8.2820   -0.3810   23.7220 C   0  0  0  0  0  0  0  0  0  0  0  0
    9.4680    0.3010   23.9180 C   0  0  0  0  0  0  0  0  0  0  0  0
    9.4620    1.8130   24.7000 S   0  0  0  0  0  0  0  0  0  0  0  0
   10.6720    2.5090   24.3310 O   0  0  0  0  0  0  0  0  0  0  0  0
    9.0660    1.5460   26.0600 O   0  0  0  0  0  0  0  0  0  0  0  0
    8.1830    2.6470   23.9910 N   0  0  0  0  0  0  0  0  0  0  0  0
    7.0870    3.0890   24.8440 C   0  0  0  0  0  0  0  0  0  0  0  0
    8.4700    3.6810   23.0390 C   0  0  0  0  0  0  0  0  0  0  0  0
    6.9530    4.4490   24.6510 C   0  0  0  0  0  0  0  0  0  0  0  0
    7.8400    4.7840   23.6380 C   0  0  0  0  0  0  0  0  0  0  0  0
  1  2  1  0
  2  3  1  0
  3  4  2  0
  3  5  1  0
  5  6  1  0
  6  7  2  0
  6  8  1  0
  7  9  1  0
  8 10  2  0
  9 11  2  0
 10 11  1  0
 12 11  1  0
 12 13  2  0
 12 14  2  0
 12 15  1  0
 15 16  1  0
 15 17  1  0
 16 18  1  0
 17 19  1  0
 18 19  1  0
M  END
