SAD-SAT-89668ff1-1-acrylamide
     RDKit          3D

 26 28  0  0  0  0  0  0  0  0999 V2000
    8.7880   -3.9710   20.3040 C   0  0  0  0  0  0  0  0  0  0  0  0
    7.5110   -3.2560   19.7700 C   0  0  0  0  0  0  0  0  0  0  0  0
    6.2700   -3.7390   20.5280 C   0  0  0  0  0  0  0  0  0  0  0  0
    5.2130   -4.1610   19.9790 O   0  0  0  0  0  0  0  0  0  0  0  0
    6.4050   -3.6960   21.9060 N   0  0  0  0  0  0  0  0  0  0  0  0
    7.4110   -2.8320   22.5420 C   0  0  0  0  0  0  0  0  0  0  0  0
    5.8870   -4.5050   22.9370 C   0  0  0  0  0  0  0  0  0  0  0  0
    7.7710   -3.4500   23.8210 N   0  0  0  0  0  0  0  0  0  0  0  0
    6.7180   -4.3420   24.0820 C   0  0  0  0  0  0  0  0  0  0  0  0
    4.7660   -5.3570   22.9570 C   0  0  0  0  0  0  0  0  0  0  0  0
    8.4840   -2.7760   24.8020 C   0  0  0  0  0  0  0  0  0  0  0  0
    6.4150   -5.0470   25.2860 C   0  0  0  0  0  0  0  0  0  0  0  0
    4.4560   -6.0580   24.1380 C   0  0  0  0  0  0  0  0  0  0  0  0
    7.9830   -1.9860   25.5930 O   0  0  0  0  0  0  0  0  0  0  0  0
    9.9600   -3.0600   24.8880 C   0  0  0  0  0  0  0  0  0  0  0  0
    5.3300   -5.8810   25.3520 C   0  0  0  0  0  0  0  0  0  0  0  0
   10.3050   -4.1080   25.4260 O   0  0  0  0  0  0  0  0  0  0  0  0
   10.8850   -2.1210   24.3550 N   0  0  0  0  0  0  0  0  0  0  0  0
   11.2710   -0.8670   24.9860 C   0  0  0  0  0  0  0  0  0  0  0  0
   11.6570   -2.4510   23.1660 C   0  0  0  0  0  0  0  0  0  0  0  0
   11.2650    0.1460   24.0390 C   0  0  0  0  0  0  0  0  0  0  0  0
   11.5660   -1.3970   22.2620 C   0  0  0  0  0  0  0  0  0  0  0  0
   10.6810   -0.2610   22.8370 C   0  0  0  0  0  0  0  0  0  0  0  0
    9.3800   -0.7610   22.9760 C   0  0  0  0  0  0  0  0  0  0  0  0
    8.7710   -0.2660   24.1360 C   0  0  0  0  0  0  0  0  0  0  0  0
    8.2650    0.1650   25.0910 N   0  0  0  0  0  0  0  0  0  0  0  0
  1  2  1  0
  2  3  1  0
  3  4  2  0
  3  5  1  0
  5  6  1  0
  5  7  1  0
  6  8  1  0
  7  9  2  0
  8  9  1  0
  7 10  1  0
  8 11  1  0
  9 12  1  0
 10 13  2  0
 11 14  2  0
 11 15  1  0
 12 16  2  0
 13 16  1  0
 15 17  2  0
 15 18  1  0
 18 19  1  0
 18 20  1  0
 19 21  1  0
 20 22  1  0
 21 23  1  0
 22 23  1  0
 23 24  1  0
 24 25  1  0
 25 26  3  0
M  END
