SAD-SAT-b55127ae-2-bromoalkyne
     RDKit          3D

 27 28  0  0  0  0  0  0  0  0999 V2000
    7.5620   -2.7210   18.6980 C   0  0  0  0  0  0  0  0  0  0  0  0
    6.8350   -2.6300   17.4110 C   0  0  0  0  0  0  0  0  0  0  0  0
    6.9150   -2.1490   19.7260 N   0  0  0  0  0  0  0  0  0  0  0  0
    6.9920   -0.6930   19.9190 C   0  0  0  0  0  0  0  0  0  0  0  0
    5.5790   -2.6180   19.8410 C   0  0  0  0  0  0  0  0  0  0  0  0
    6.9750    0.0040   18.5770 C   0  0  0  0  0  0  0  0  0  0  0  0
    5.6900   -3.4830   20.9350 C   0  0  0  0  0  0  0  0  0  0  0  0
    5.0220   -4.6350   20.8160 O   0  0  0  0  0  0  0  0  0  0  0  0
    6.4520   -3.1460   22.0150 N   0  0  0  0  0  0  0  0  0  0  0  0
    6.8810   -1.7320   22.1390 C   0  0  0  0  0  0  0  0  0  0  0  0
    6.9910   -4.1640   22.8860 C   0  0  0  0  0  0  0  0  0  0  0  0
    8.3070   -1.6170   22.2600 C   0  0  0  0  0  0  0  0  0  0  0  0
    7.8200   -3.5420   23.8080 C   0  0  0  0  0  0  0  0  0  0  0  0
    8.8310   -2.6990   23.1070 N   0  0  0  0  0  0  0  0  0  0  0  0
   10.1720   -2.4320   24.0890 S   0  0  0  0  0  0  0  0  0  0  0  0
    9.7080   -2.4570   25.4420 O   0  0  0  0  0  0  0  0  0  0  0  0
   11.2040   -3.3370   23.6680 O   0  0  0  0  0  0  0  0  0  0  0  0
   10.7840   -0.8690   23.8560 C   0  0  0  0  0  0  0  0  0  0  0  0
   10.1100    0.2270   24.4120 C   0  0  0  0  0  0  0  0  0  0  0  0
   11.9740   -0.6730   23.1060 C   0  0  0  0  0  0  0  0  0  0  0  0
   10.5970    1.6230   24.2450 C   0  0  0  0  0  0  0  0  0  0  0  0
   12.5460    0.7240   22.9120 C   0  0  0  0  0  0  0  0  0  0  0  0
   12.7390   -1.8130   22.4480 C   0  0  0  0  0  0  0  0  0  0  0  0
   11.8690    1.9500   23.4760 C   0  0  0  0  0  0  0  0  0  0  0  0
   11.8790   -2.5990   21.7710 F   0  0  0  0  0  0  0  0  0  0  0  0
   13.5810   -1.3800   21.4880 F   0  0  0  0  0  0  0  0  0  0  0  0
   13.4140   -2.6170   23.3040 F   0  0  0  0  0  0  0  0  0  0  0  0
  1  2  2  3
  1  3  1  0
  3  4  1  0
  3  5  1  0
  4  6  1  0
  5  7  1  0
  7  8  2  0
  7  9  1  0
  9 10  1  0
  9 11  1  0
 10 12  1  0
 11 13  1  0
 12 14  1  0
 13 14  1  0
 14 15  1  0
 15 16  2  0
 15 17  2  0
 15 18  1  0
 18 19  2  0
 18 20  1  0
 19 21  1  0
 20 22  2  0
 20 23  1  0
 21 24  2  0
 22 24  1  0
 23 25  1  0
 23 26  1  0
 23 27  1  0
M  END
