SAD-SAT-f2e2579e-8-nitrile
     RDKit          3D

 25 27  0  0  0  0  0  0  0  0999 V2000
    6.7580   -3.9260   19.9870 C   0  0  0  0  0  0  0  0  0  0  0  0
    5.6660   -3.6600   19.3710 N   0  0  0  0  0  0  0  0  0  0  0  0
    6.8810   -4.0160   21.3340 N   0  0  0  0  0  0  0  0  0  0  0  0
    6.3480   -5.1800   22.0570 C   0  0  0  0  0  0  0  0  0  0  0  0
    7.6950   -3.0440   22.0670 C   0  0  0  0  0  0  0  0  0  0  0  0
    5.6340   -4.7160   23.3200 C   0  0  0  0  0  0  0  0  0  0  0  0
    6.9820   -2.5720   23.3270 C   0  0  0  0  0  0  0  0  0  0  0  0
    6.4930   -3.7550   24.1670 C   0  0  0  0  0  0  0  0  0  0  0  0
    5.7500   -3.2040   25.3970 C   0  0  0  0  0  0  0  0  0  0  0  0
    5.0240   -3.9460   26.0480 O   0  0  0  0  0  0  0  0  0  0  0  0
    5.8840   -1.8630   25.7480 N   0  0  0  0  0  0  0  0  0  0  0  0
    6.5100   -1.4170   26.9880 C   0  0  0  0  0  0  0  0  0  0  0  0
    4.6080   -1.1600   25.5010 C   0  0  0  0  0  0  0  0  0  0  0  0
    6.8150    0.0510   27.0670 C   0  0  0  0  0  0  0  0  0  0  0  0
    4.8000    0.3620   25.4350 C   0  0  0  0  0  0  0  0  0  0  0  0
    5.8390    0.8260   27.6950 C   0  0  0  0  0  0  0  0  0  0  0  0
    4.7320    1.0650   26.7370 N   0  0  0  0  0  0  0  0  0  0  0  0
    4.0840    2.6300   26.7760 S   0  0  0  0  0  0  0  0  0  0  0  0
    4.0110    3.0470   28.1560 O   0  0  0  0  0  0  0  0  0  0  0  0
    2.9210    2.6010   25.9210 O   0  0  0  0  0  0  0  0  0  0  0  0
    5.2870    3.5700   26.0010 C   0  0  0  0  0  0  0  0  0  0  0  0
    6.6230    3.6820   26.3530 C   0  0  0  0  0  0  0  0  0  0  0  0
    4.9580    4.5530   24.6090 S   0  0  0  0  0  0  0  0  0  0  0  0
    7.4170    4.5040   25.5860 C   0  0  0  0  0  0  0  0  0  0  0  0
    6.6710    5.0760   24.5710 C   0  0  0  0  0  0  0  0  0  0  0  0
  1  2  2  3
  1  3  1  0
  3  4  1  0
  3  5  1  0
  4  6  1  0
  5  7  1  0
  6  8  1  0
  7  8  1  0
  8  9  1  0
  9 10  2  0
  9 11  1  0
 11 12  1  0
 11 13  1  0
 12 14  1  0
 13 15  1  0
 14 16  1  0
 15 17  1  0
 16 17  1  0
 17 18  1  0
 18 19  2  0
 18 20  2  0
 18 21  1  0
 21 22  2  0
 21 23  1  0
 22 24  1  0
 23 25  1  0
 24 25  2  0
M  END
