SAD-SAT-135344c3-8
     RDKit          3D

 26 28  0  0  0  0  0  0  0  0999 V2000
    8.7130   -0.2720   21.8160 O   0  0  0  0  0  0  0  0  0  0  0  0
    8.0200   -1.2750   21.9270 C   0  0  0  0  0  0  0  0  0  0  0  0
    8.3990   -2.3930   22.7490 N   0  0  0  0  0  0  0  0  0  0  0  0
    6.8110   -1.4830   21.3120 N   0  0  0  0  0  0  0  0  0  0  0  0
    9.6310   -2.3750   23.3830 C   0  0  0  0  0  0  0  0  0  0  0  0
    6.2710   -0.6500   20.2270 C   0  0  0  0  0  0  0  0  0  0  0  0
    9.8140   -1.1340   24.2600 C   0  0  0  0  0  0  0  0  0  0  0  0
    4.9560    0.0520   20.5660 C   0  0  0  0  0  0  0  0  0  0  0  0
    6.8140   -0.4360   18.9670 C   0  0  0  0  0  0  0  0  0  0  0  0
    8.7450   -0.7920   25.1290 O   0  0  0  0  0  0  0  0  0  0  0  0
   11.0940   -0.4120   24.0920 N   0  0  0  0  0  0  0  0  0  0  0  0
    4.3460    0.9370   19.4830 C   0  0  0  0  0  0  0  0  0  0  0  0
    6.2460    0.4080   17.9270 N   0  0  0  0  0  0  0  0  0  0  0  0
   12.2580   -1.2890   23.9470 C   0  0  0  0  0  0  0  0  0  0  0  0
   11.1390    0.7660   23.2070 C   0  0  0  0  0  0  0  0  0  0  0  0
    5.0780    1.0670   18.1480 C   0  0  0  0  0  0  0  0  0  0  0  0
   12.9960   -0.9120   22.6450 C   0  0  0  0  0  0  0  0  0  0  0  0
   12.4240    1.2780   23.1560 C   0  0  0  0  0  0  0  0  0  0  0  0
   13.3270    0.4520   22.5600 N   0  0  0  0  0  0  0  0  0  0  0  0
   14.1460    1.0020   21.4580 C   0  0  0  0  0  0  0  0  0  0  0  0
   14.3310    0.0010   20.1660 C   0  0  0  0  0  0  0  0  0  0  0  0
   14.7990    2.3530   21.3830 C   0  0  0  0  0  0  0  0  0  0  0  0
   15.1140    0.4630   19.0640 C   0  0  0  0  0  0  0  0  0  0  0  0
   15.5910    2.7550   20.0930 C   0  0  0  0  0  0  0  0  0  0  0  0
   15.7640    1.7760   18.9810 C   0  0  0  0  0  0  0  0  0  0  0  0
   16.2780    4.2930   19.9190 Cl  0  0  0  0  0  0  0  0  0  0  0  0
  1  2  2  0
  2  3  1  0
  2  4  1  0
  3  5  1  0
  4  6  1  0
  5  7  1  0
  6  8  2  0
  6  9  1  0
  7 10  2  0
  7 11  1  0
  8 12  1  0
  9 13  2  0
 11 14  1  0
 11 15  1  0
 12 16  2  0
 13 16  1  0
 14 17  1  0
 15 18  1  0
 17 19  1  0
 18 19  1  0
 19 20  1  0
 20 21  2  0
 20 22  1  0
 21 23  1  0
 22 24  2  0
 23 25  2  0
 24 25  1  0
 24 26  1  0
M  END
