SAD-SAT-2ceae68f-5-nitrile
     RDKit          3D

 26 27  0  0  0  0  0  0  0  0999 V2000
    6.6990   -3.8410   19.6890 C   0  0  0  0  0  0  0  0  0  0  0  0
    6.6240   -3.1820   18.5970 N   0  0  0  0  0  0  0  0  0  0  0  0
    5.8410   -3.5390   20.6590 N   0  0  0  0  0  0  0  0  0  0  0  0
    5.3710   -2.1500   20.6080 C   0  0  0  0  0  0  0  0  0  0  0  0
    6.1220   -3.9670   22.0440 C   0  0  0  0  0  0  0  0  0  0  0  0
    5.1140   -3.2300   22.9340 C   0  0  0  0  0  0  0  0  0  0  0  0
    3.9120   -3.4840   22.7950 O   0  0  0  0  0  0  0  0  0  0  0  0
    5.6640   -2.2970   23.8120 N   0  0  0  0  0  0  0  0  0  0  0  0
    6.8700   -2.6340   24.5770 C   0  0  0  0  0  0  0  0  0  0  0  0
    5.6000   -0.9450   23.5720 C   0  0  0  0  0  0  0  0  0  0  0  0
    8.0570   -1.8860   23.9630 C   0  0  0  0  0  0  0  0  0  0  0  0
    6.5190   -0.1080   24.2290 C   0  0  0  0  0  0  0  0  0  0  0  0
    7.7850   -0.4160   23.8780 N   0  0  0  0  0  0  0  0  0  0  0  0
    8.8840    0.5820   24.6720 S   0  0  0  0  0  0  0  0  0  0  0  0
    8.3590    1.9290   24.6020 O   0  0  0  0  0  0  0  0  0  0  0  0
    9.2080   -0.0670   25.9050 O   0  0  0  0  0  0  0  0  0  0  0  0
   10.4480    0.5330   23.8340 C   0  0  0  0  0  0  0  0  0  0  0  0
   11.0090   -0.8460   23.4620 C   0  0  0  0  0  0  0  0  0  0  0  0
   11.1890    1.6710   23.5160 C   0  0  0  0  0  0  0  0  0  0  0  0
   12.3030   -1.0340   22.7940 C   0  0  0  0  0  0  0  0  0  0  0  0
   12.3830    1.5300   22.9280 C   0  0  0  0  0  0  0  0  0  0  0  0
   10.8250    2.9880   23.7430 C   0  0  0  0  0  0  0  0  0  0  0  0
   12.9040   -2.1960   22.4020 N   0  0  0  0  0  0  0  0  0  0  0  0
   12.9470    0.2680   22.5710 C   0  0  0  0  0  0  0  0  0  0  0  0
   13.1100   -2.3020   21.1950 O   0  0  0  0  0  0  0  0  0  0  0  0
   13.5250   -2.8190   23.2600 O   0  0  0  0  0  0  0  0  0  0  0  0
  1  2  2  3
  1  3  1  0
  3  4  1  0
  3  5  1  0
  5  6  1  0
  6  7  2  0
  6  8  1  0
  8  9  1  0
  8 10  1  0
  9 11  1  0
 10 12  1  0
 11 13  1  0
 12 13  1  0
 13 14  1  0
 14 15  2  0
 14 16  2  0
 14 17  1  0
 17 18  2  0
 17 19  1  0
 18 20  1  0
 19 21  2  0
 19 22  1  0
 20 23  1  0
 20 24  2  0
 21 24  1  0
 23 25  2  0
 23 26  1  0
M  CHG  2  23   1  26  -1
M  END
