SAD-SAT-c989feaa-9-bromoalkyne
     RDKit          3D

 23 24  0  0  0  0  0  0  0  0999 V2000
    6.8640   -3.7660   19.9140 C   0  0  0  0  0  0  0  0  0  0  0  0
    5.7300   -3.1310   19.1220 C   0  0  0  0  0  0  0  0  0  0  0  0
    7.1520   -3.3050   21.1800 N   0  0  0  0  0  0  0  0  0  0  0  0
    6.3740   -3.6710   22.3670 C   0  0  0  0  0  0  0  0  0  0  0  0
    7.9720   -2.0930   21.3260 C   0  0  0  0  0  0  0  0  0  0  0  0
    7.2530   -3.5670   23.6120 C   0  0  0  0  0  0  0  0  0  0  0  0
    7.6660   -1.3160   22.6210 C   0  0  2  0  0  0  0  0  0  0  0  0
    7.7940   -2.2220   23.7990 N   0  0  0  0  0  0  0  0  0  0  0  0
    6.3500   -0.5010   22.5790 C   0  0  0  0  0  0  0  0  0  0  0  0
    8.8710   -2.0680   24.6670 C   0  0  0  0  0  0  0  0  0  0  0  0
    6.1140    0.4130   21.3420 C   0  0  0  0  0  0  0  0  0  0  0  0
    9.9620   -1.2410   24.2050 C   0  0  0  0  0  0  0  0  0  0  0  0
    7.3490    0.8300   20.5060 C   0  0  0  0  0  0  0  0  0  0  0  0
    5.0970   -0.2740   20.4170 C   0  0  0  0  0  0  0  0  0  0  0  0
   10.2780    0.1480   24.5570 C   0  0  0  0  0  0  0  0  0  0  0  0
   10.7930   -1.8620   23.3130 C   0  0  0  0  0  0  0  0  0  0  0  0
   11.3840    0.9570   24.0620 C   0  0  0  0  0  0  0  0  0  0  0  0
   11.9530   -1.1080   22.7570 C   0  0  0  0  0  0  0  0  0  0  0  0
   12.1800    0.3100   23.1880 C   0  0  0  0  0  0  0  0  0  0  0  0
   12.9950   -1.8880   21.6570 S   0  0  0  0  0  0  0  0  0  0  0  0
   13.6390   -2.8760   22.8680 N   0  0  0  0  0  0  0  0  0  0  0  0
   12.1920   -2.6060   20.7440 O   0  0  0  0  0  0  0  0  0  0  0  0
   13.8500   -0.8760   21.1820 O   0  0  0  0  0  0  0  0  0  0  0  0
  1  2  2  3
  1  3  1  0
  3  4  1  0
  3  5  1  0
  4  6  1  0
  5  7  1  0
  6  8  1  0
  7  8  1  0
  7  9  1  6
  8 10  1  0
  9 11  1  0
 10 12  1  0
 11 13  1  0
 11 14  1  0
 12 15  2  0
 12 16  1  0
 15 17  1  0
 16 18  2  0
 17 19  2  0
 18 19  1  0
 18 20  1  0
 20 21  1  0
 20 22  2  0
 20 23  2  0
M  END
