SAD-SAT-3a925b8b-3-nitrile
     RDKit          3D

 16 17  0  0  0  0  0  0  0  0999 V2000
    6.5980   -4.2420   20.1800 C   0  0  0  0  0  0  0  0  0  0  0  0
    5.5250   -3.8470   19.6360 N   0  0  0  0  0  0  0  0  0  0  0  0
    6.7050   -4.6780   21.4830 N   0  0  0  0  0  0  0  0  0  0  0  0
    7.4260   -3.9110   22.4930 C   0  0  0  0  0  0  0  0  0  0  0  0
    6.1780   -5.9690   21.9590 C   0  0  0  0  0  0  0  0  0  0  0  0
    7.1820   -4.4830   23.8790 C   0  0  0  0  0  0  0  0  0  0  0  0
    5.1950   -5.7640   23.1440 C   0  0  0  0  0  0  0  0  0  0  0  0
    5.8080   -4.9250   24.0900 N   0  0  0  0  0  0  0  0  0  0  0  0
    5.1460   -4.8510   25.6630 S   0  0  0  0  0  0  0  0  0  0  0  0
    6.0640   -4.1620   26.5420 O   0  0  0  0  0  0  0  0  0  0  0  0
    4.6240   -6.1630   25.9940 O   0  0  0  0  0  0  0  0  0  0  0  0
    3.7260   -3.8380   25.6360 C   0  0  0  0  0  0  0  0  0  0  0  0
    2.3990   -4.2580   25.0390 C   0  0  0  0  0  0  0  0  0  0  0  0
    3.5630   -2.5410   26.1190 N   0  0  0  0  0  0  0  0  0  0  0  0
    1.6120   -3.3180   25.1750 O   0  0  0  0  0  0  0  0  0  0  0  0
    2.2890   -2.3030   25.8100 C   0  0  0  0  0  0  0  0  0  0  0  0
  1  2  2  3
  1  3  1  0
  3  4  1  0
  3  5  1  0
  4  6  1  0
  5  7  1  0
  6  8  1  0
  7  8  1  0
  8  9  1  0
  9 10  2  0
  9 11  2  0
  9 12  1  0
 12 13  2  0
 12 14  1  0
 13 15  1  0
 14 16  2  0
 15 16  1  0
M  END
