SAD-SAT-29425be4-3-bromoalkyne
     RDKit          3D

 22 23  0  0  0  0  0  0  0  0999 V2000
    7.6320   -3.7140   19.9530 C   0  0  0  0  0  0  0  0  0  0  0  0
    6.7380   -3.0100   18.9120 C   0  0  0  0  0  0  0  0  0  0  0  0
    8.9690   -3.4510   20.3840 N   0  0  0  0  0  0  0  0  0  0  0  0
   10.2330   -4.1310   19.8030 C   0  0  0  0  0  0  0  0  0  0  0  0
    9.1040   -2.4240   21.4640 C   0  0  0  0  0  0  0  0  0  0  0  0
   11.6260   -3.6920   20.3730 C   0  0  0  0  0  0  0  0  0  0  0  0
   10.3490   -1.7820   21.6560 C   0  0  0  0  0  0  0  0  0  0  0  0
   11.6230   -2.6470   21.4900 C   0  0  0  0  0  0  0  0  0  0  0  0
   12.9080   -1.7970   21.5050 C   0  0  0  0  0  0  0  0  0  0  0  0
   13.5020   -1.4750   20.4910 O   0  0  0  0  0  0  0  0  0  0  0  0
   13.4180   -1.4440   22.7300 N   0  0  0  0  0  0  0  0  0  0  0  0
   13.2980   -2.4290   23.7770 C   0  0  0  0  0  0  0  0  0  0  0  0
   12.1320   -2.1170   24.6200 C   0  0  0  0  0  0  0  0  0  0  0  0
   12.4440   -0.4720   25.0780 S   0  0  0  0  0  0  0  0  0  0  0  0
   11.2810    0.5660   24.2360 C   0  0  0  0  0  0  0  0  0  0  0  0
   11.7090    1.5880   23.4010 C   0  0  0  0  0  0  0  0  0  0  0  0
    9.9250    0.3880   24.4040 C   0  0  0  0  0  0  0  0  0  0  0  0
   10.7790    2.4040   22.7550 C   0  0  0  0  0  0  0  0  0  0  0  0
    8.9700    1.2020   23.7570 C   0  0  0  0  0  0  0  0  0  0  0  0
    9.3860    2.2620   22.8880 C   0  0  0  0  0  0  0  0  0  0  0  0
    7.6590    0.9960   23.9470 C   0  0  0  0  0  0  0  0  0  0  0  0
    8.3960    3.1430   22.1810 C   0  0  0  0  0  0  0  0  0  0  0  0
  1  2  2  3
  1  3  1  0
  3  4  1  0
  3  5  1  0
  4  6  1  0
  5  7  1  0
  6  8  1  0
  7  8  1  0
  8  9  1  0
  9 10  2  0
  9 11  1  0
 11 12  1  0
 12 13  1  0
 13 14  1  0
 14 15  1  0
 15 16  2  0
 15 17  1  0
 16 18  1  0
 17 19  2  0
 18 20  2  0
 19 20  1  0
 19 21  1  0
 20 22  1  0
M  END
