SAD-SAT-c989feaa-6-acrylamide
     RDKit          3D

 22 23  0  0  0  0  0  0  0  0999 V2000
    8.3120   -3.2430   19.1290 C   0  0  0  0  0  0  0  0  0  0  0  0
    6.8040   -3.2690   19.1260 C   0  0  0  0  0  0  0  0  0  0  0  0
    6.0470   -3.7470   20.2790 C   0  0  0  0  0  0  0  0  0  0  0  0
    5.2460   -4.6710   20.1590 O   0  0  0  0  0  0  0  0  0  0  0  0
    6.3030   -3.0120   21.4170 N   0  0  0  0  0  0  0  0  0  0  0  0
    7.0880   -1.7710   21.3180 C   0  0  0  0  0  0  0  0  0  0  0  0
    6.0160   -3.5170   22.7450 C   0  0  0  0  0  0  0  0  0  0  0  0
    8.4230   -1.9270   22.0310 C   0  0  0  0  0  0  0  0  0  0  0  0
    7.2150   -3.3950   23.7300 C   0  0  2  0  0  0  0  0  0  0  0  0
    8.2400   -2.3590   23.4140 N   0  0  0  0  0  0  0  0  0  0  0  0
    7.8540   -4.7780   23.9950 C   0  0  0  0  0  0  0  0  0  0  0  0
    9.3270   -2.3030   24.2700 C   0  0  0  0  0  0  0  0  0  0  0  0
    8.0860   -5.7170   22.8070 C   0  0  0  0  0  0  0  0  0  0  0  0
   10.3950   -1.3990   23.9210 C   0  0  0  0  0  0  0  0  0  0  0  0
    9.2140   -6.6640   23.2090 C   0  0  0  0  0  0  0  0  0  0  0  0
    6.8510   -6.5350   22.4270 C   0  0  0  0  0  0  0  0  0  0  0  0
   10.6530   -0.0980   24.5000 C   0  0  0  0  0  0  0  0  0  0  0  0
   11.2380   -1.8760   22.9160 C   0  0  0  0  0  0  0  0  0  0  0  0
   11.7250    0.6590   24.0560 C   0  0  0  0  0  0  0  0  0  0  0  0
   12.4090   -1.0660   22.4240 C   0  0  0  0  0  0  0  0  0  0  0  0
   12.6050    0.2710   23.0800 C   0  0  0  0  0  0  0  0  0  0  0  0
   13.3970   -1.6740   21.2020 Cl  0  0  0  0  0  0  0  0  0  0  0  0
  1  2  1  0
  2  3  1  0
  3  4  2  0
  3  5  1  0
  5  6  1  0
  5  7  1  0
  6  8  1  0
  7  9  1  0
  8 10  1  0
  9 10  1  0
  9 11  1  6
 10 12  1  0
 11 13  1  0
 12 14  1  0
 13 15  1  0
 13 16  1  0
 14 17  2  0
 14 18  1  0
 17 19  1  0
 18 20  2  0
 19 21  2  0
 20 21  1  0
 20 22  1  0
M  END
