SAD-SAT-29425be4-1-nitrile
     RDKit          3D

 29 31  0  0  0  0  0  0  0  0999 V2000
    6.8110   -3.2050   18.8960 C   0  0  0  0  0  0  0  0  0  0  0  0
    5.7510   -3.7070   19.4320 N   0  0  0  0  0  0  0  0  0  0  0  0
    6.7640   -2.2530   17.8730 N   0  0  0  0  0  0  0  0  0  0  0  0
    7.4510   -2.3010   16.5800 C   0  0  0  0  0  0  0  0  0  0  0  0
    6.4250   -0.8510   18.1580 C   0  0  0  0  0  0  0  0  0  0  0  0
    7.0680   -1.0150   15.9260 C   0  0  0  0  0  0  0  0  0  0  0  0
    7.6130   -0.1630   17.8900 C   0  0  0  0  0  0  0  0  0  0  0  0
    7.7960    0.1650   16.3970 C   0  0  0  0  0  0  0  0  0  0  0  0
    8.9850    0.2800   15.3430 C   0  0  0  0  0  0  0  0  0  0  0  0
    8.4890    0.1930   14.2530 O   0  0  0  0  0  0  0  0  0  0  0  0
   10.4680    0.4740   15.1950 N   0  0  0  0  0  0  0  0  0  0  0  0
   10.4310    0.1810   13.6510 C   0  0  0  0  0  0  0  0  0  0  0  0
   12.5800    1.4280   16.6720 C   0  0  0  0  0  0  0  0  0  0  0  0
   10.6580    0.9300   12.3390 C   0  0  0  0  0  0  0  0  0  0  0  0
   14.2630    0.9540   16.9680 C   0  0  0  0  0  0  0  0  0  0  0  0
   15.6860    0.7150   16.9460 C   0  0  0  0  0  0  0  0  0  0  0  0
   14.0620    0.2440   18.2640 S   0  0  0  0  0  0  0  0  0  0  0  0
   16.1190   -0.0620   18.2090 C   0  0  0  0  0  0  0  0  0  0  0  0
   15.0270   -0.4120   19.0950 C   0  0  0  0  0  0  0  0  0  0  0  0
   14.0940   -1.0120   20.3750 C   0  0  0  0  0  0  0  0  0  0  0  0
   13.4160   -2.3290   20.7640 C   0  0  0  0  0  0  0  0  0  0  0  0
   13.7880   -0.0930   21.4270 C   0  0  0  0  0  0  0  0  0  0  0  0
   12.6920   -2.5810   21.8500 C   0  0  0  0  0  0  0  0  0  0  0  0
   13.0060   -0.3080   22.6650 C   0  0  0  0  0  0  0  0  0  0  0  0
   12.4710   -1.5110   22.8750 C   0  0  0  0  0  0  0  0  0  0  0  0
   11.6790   -1.7870   24.1140 C   0  0  0  0  0  0  0  0  0  0  0  0
   11.4550   -0.5970   25.0470 C   0  0  0  0  0  0  0  0  0  0  0  0
   10.2720   -2.3110   23.7280 C   0  0  0  0  0  0  0  0  0  0  0  0
   12.4230   -2.9040   24.8570 C   0  0  0  0  0  0  0  0  0  0  0  0
  1  2  2  3
  1  3  1  0
  3  4  1  0
  3  5  1  0
  4  6  1  0
  5  7  1  0
  6  8  1  0
  7  8  1  0
  8  9  1  0
  9 10  2  0
  9 11  1  0
 11 12  1  0
 11 13  1  0
 12 14  1  0
 13 15  1  0
 15 16  2  0
 15 17  1  0
 16 18  1  0
 17 19  1  0
 18 19  2  0
 19 20  1  0
 20 21  2  0
 20 22  1  0
 21 23  1  0
 22 24  2  0
 23 25  2  0
 24 25  1  0
 25 26  1  0
 26 27  1  0
 26 28  1  0
 26 29  1  0
M  END
