SAD-SAT-b55127ae-7-vinylsulfonamide
     RDKit          3D

 29 31  0  0  0  0  0  0  0  0999 V2000
    6.8260   -4.6900   20.9430 C   0  0  0  0  0  0  0  0  0  0  0  0
    7.1410   -3.3650   21.6810 C   0  0  0  0  0  0  0  0  0  0  0  0
    5.6360   -2.4860   22.0580 S   0  0  0  0  0  0  0  0  0  0  0  0
    4.5820   -3.4970   22.0910 O   0  0  0  0  0  0  0  0  0  0  0  0
    5.8620   -1.5710   23.1540 O   0  0  0  0  0  0  0  0  0  0  0  0
    5.3670   -1.5860   20.6400 N   0  0  0  0  0  0  0  0  0  0  0  0
    5.2310   -2.5160   19.5680 C   0  0  0  0  0  0  0  0  0  0  0  0
    5.9760   -0.2600   20.3050 C   0  0  0  0  0  0  0  0  0  0  0  0
    5.9960   -2.0250   18.3830 C   0  0  0  0  0  0  0  0  0  0  0  0
    5.6590    0.2610   18.8560 C   0  0  0  0  0  0  0  0  0  0  0  0
    5.0650   -0.8980   18.0520 C   0  0  0  0  0  0  0  0  0  0  0  0
    4.1140   -0.5280   16.8420 C   0  0  0  0  0  0  0  0  0  0  0  0
    4.3350    0.7580   17.3100 O   0  0  0  0  0  0  0  0  0  0  0  0
    2.9210   -1.6850   14.5710 N   0  0  0  0  0  0  0  0  0  0  0  0
    2.0330   -1.6870   13.1760 C   0  0  0  0  0  0  0  0  0  0  0  0
    2.4810   -2.7900   13.2180 C   0  0  0  0  0  0  0  0  0  0  0  0
    1.8970   -2.2640   12.2890 C   0  0  0  0  0  0  0  0  0  0  0  0
    3.3540   -3.4480   12.1200 C   0  0  0  0  0  0  0  0  0  0  0  0
    2.9260   -2.2030   11.5780 N   0  0  0  0  0  0  0  0  0  0  0  0
    2.6350   -1.6410   10.4800 C   0  0  0  0  0  0  0  0  0  0  0  0
    1.1820   -1.4970   10.5390 O   0  0  0  0  0  0  0  0  0  0  0  0
    3.6150   -1.8960   10.7960 C   0  0  0  0  0  0  0  0  0  0  0  0
    3.0040   -2.5940   11.7250 C   0  0  0  0  0  0  0  0  0  0  0  0
    3.6460   -3.8330   12.1940 C   0  0  0  0  0  0  0  0  0  0  0  0
    1.7460   -2.0190   11.8280 C   0  0  0  0  0  0  0  0  0  0  0  0
    3.0820   -4.9650   13.0550 C   0  0  0  0  0  0  0  0  0  0  0  0
    1.9970   -3.1760   12.4520 C   0  0  0  0  0  0  0  0  0  0  0  0
    0.2350   -1.3290   11.9520 C   0  0  0  0  0  0  0  0  0  0  0  0
    2.0560   -4.2570   13.0960 C   0  0  0  0  0  0  0  0  0  0  0  0
  1  2  1  0
  3  2  1  0
  3  4  2  0
  3  5  2  0
  3  6  1  0
  6  7  1  0
  6  8  1  0
  7  9  1  0
  8 10  1  0
  9 11  1  0
 10 11  1  0
 11 12  1  0
 12 13  2  0
 12 14  1  0
 14 15  1  0
 14 16  1  0
 15 17  1  0
 16 18  1  0
 17 19  1  0
 18 19  1  0
 19 20  1  0
 20 21  2  0
 20 22  1  0
 22 23  1  0
 23 24  2  0
 23 25  1  0
 24 26  1  0
 25 27  2  0
 25 28  1  0
 26 29  2  0
 27 29  1  0
M  END
