SAD-SAT-f0a2747f-6-vinylsulfonamide
     RDKit          3D

 21 23  0  0  0  0  0  0  0  0999 V2000
    8.5460   -3.6140   19.5630 C   0  0  0  0  0  0  0  0  0  0  0  0
    7.2600   -4.2900   20.1120 C   0  0  0  0  0  0  0  0  0  0  0  0
    6.1590   -3.1910   20.9800 S   0  0  0  0  0  0  0  0  0  0  0  0
    4.9200   -3.1710   20.2160 O   0  0  0  0  0  0  0  0  0  0  0  0
    6.0830   -3.6700   22.3410 O   0  0  0  0  0  0  0  0  0  0  0  0
    6.8800   -1.6330   20.9440 N   0  0  0  0  0  0  0  0  0  0  0  0
    6.2560   -0.6540   21.7640 C   0  0  0  0  0  0  0  0  0  0  0  0
    8.3510   -1.5540   20.9180 C   0  0  0  0  0  0  0  0  0  0  0  0
    7.0390    0.0330   22.7050 C   0  0  0  0  0  0  0  0  0  0  0  0
    8.9730   -1.3820   22.3240 C   0  0  0  0  0  0  0  0  0  0  0  0
    8.0360   -0.8550   23.3510 N   0  0  0  0  0  0  0  0  0  0  0  0
    7.3480   -1.9730   24.0260 C   0  0  0  0  0  0  0  0  0  0  0  0
    7.9790   -2.5100   25.1580 C   0  0  0  0  0  0  0  0  0  0  0  0
    8.6090   -3.2810   26.1060 N   0  0  0  0  0  0  0  0  0  0  0  0
    7.9610   -3.5630   24.1950 N   0  0  0  0  0  0  0  0  0  0  0  0
    8.9120   -4.5410   25.7970 C   0  0  0  0  0  0  0  0  0  0  0  0
    8.5250   -4.8050   24.5620 C   0  0  0  0  0  0  0  0  0  0  0  0
    9.5810   -5.4810   26.7240 C   0  0  0  0  0  0  0  0  0  0  0  0
    8.7170   -6.0440   23.9950 C   0  0  0  0  0  0  0  0  0  0  0  0
    9.8220   -6.8290   26.1780 C   0  0  0  0  0  0  0  0  0  0  0  0
    9.3300   -7.0290   24.7210 C   0  0  0  0  0  0  0  0  0  0  0  0
  1  2  1  0
  3  2  1  0
  3  4  2  0
  3  5  2  0
  3  6  1  0
  6  7  1  0
  6  8  1  0
  7  9  1  0
  8 10  1  0
  9 11  1  0
 10 11  1  0
 11 12  1  0
 12 13  1  0
 13 14  2  0
 13 15  1  0
 14 16  1  0
 15 17  1  0
 16 17  2  0
 16 18  1  0
 17 19  1  0
 18 20  2  0
 19 21  2  0
 20 21  1  0
M  END
