SAD-SAT-7d5528d9-50
     RDKit          3D

 23 25  0  0  0  0  0  0  0  0999 V2000
    9.9510   -1.4420   22.1620 C   0  0  0  0  0  0  0  0  0  0  0  0
    9.0720   -0.3350   21.6350 C   0  0  0  0  0  0  0  0  0  0  0  0
    9.4550    0.8380   21.6750 O   0  0  0  0  0  0  0  0  0  0  0  0
    7.8620   -0.8340   21.1610 N   0  0  0  0  0  0  0  0  0  0  0  0
    6.8950   -0.1710   20.2790 C   0  0  0  0  0  0  0  0  0  0  0  0
    7.1690   -0.2970   18.8000 C   0  0  0  0  0  0  0  0  0  0  0  0
    5.7550    0.5540   20.6990 C   0  0  0  0  0  0  0  0  0  0  0  0
    6.3050    0.3220   17.7990 N   0  0  0  0  0  0  0  0  0  0  0  0
    4.9310    1.1430   19.6990 C   0  0  0  0  0  0  0  0  0  0  0  0
    5.4100    0.7080   22.0410 C   0  0  2  0  0  0  0  0  0  0  0  0
    5.1530    1.0630   18.3250 C   0  0  0  0  0  0  0  0  0  0  0  0
    5.0150   -0.4490   22.6980 C   0  0  0  0  0  0  0  0  0  0  0  0
    4.2390    1.6990   22.2430 C   0  0  0  0  0  0  0  0  0  0  0  0
    6.4920    1.5540   22.7740 C   0  0  0  0  0  0  0  0  0  0  0  0
    5.9230   -1.6420   22.9190 C   0  0  0  0  0  0  0  0  0  0  0  0
    4.8700    3.0560   22.0660 C   0  0  0  0  0  0  0  0  0  0  0  0
    6.1040    2.9470   22.7620 O   0  0  0  0  0  0  0  0  0  0  0  0
    7.1840   -1.5050   23.5170 C   0  0  0  0  0  0  0  0  0  0  0  0
    5.4810   -2.9070   22.5220 C   0  0  0  0  0  0  0  0  0  0  0  0
    8.1180   -2.7160   23.7570 C   0  0  0  0  0  0  0  0  0  0  0  0
    6.3550   -4.1650   22.7300 C   0  0  0  0  0  0  0  0  0  0  0  0
    7.6100   -4.0940   23.3160 C   0  0  0  0  0  0  0  0  0  0  0  0
    5.7600   -5.6970   22.2240 Cl  0  0  0  0  0  0  0  0  0  0  0  0
  1  2  1  0
  2  3  2  0
  2  4  1  0
  4  5  1  0
  5  6  2  0
  5  7  1  0
  6  8  1  0
  7  9  2  0
  7 10  1  0
  8 11  2  0
  9 11  1  0
 10 12  1  1
 10 13  1  0
 10 14  1  0
 12 15  1  0
 13 16  1  0
 14 17  1  0
 16 17  1  0
 15 18  2  0
 15 19  1  0
 18 20  1  0
 19 21  2  0
 20 22  2  0
 21 22  1  0
 21 23  1  0
M  END
