SAD-SAT-9a6c5cf3-2-acrylamide
     RDKit          3D

 29 31  0  0  0  0  0  0  0  0999 V2000
    7.5910   -2.7570   18.7590 C   0  0  0  0  0  0  0  0  0  0  0  0
    6.3340   -2.9930   19.1410 C   0  0  0  0  0  0  0  0  0  0  0  0
    6.0220   -4.0460   20.1510 C   0  0  0  0  0  0  0  0  0  0  0  0
    5.1160   -4.7970   19.8660 O   0  0  0  0  0  0  0  0  0  0  0  0
    6.7440   -4.1860   21.3190 N   0  0  0  0  0  0  0  0  0  0  0  0
    6.3560   -5.2700   22.2140 C   0  0  0  0  0  0  0  0  0  0  0  0
    7.5030   -3.0670   21.8720 C   0  0  0  0  0  0  0  0  0  0  0  0
    5.6670   -4.6810   23.4500 C   0  0  0  0  0  0  0  0  0  0  0  0
    6.8070   -2.4820   22.9110 C   0  0  0  0  0  0  0  0  0  0  0  0
    6.4820   -3.5160   24.0010 C   0  0  0  0  0  0  0  0  0  0  0  0
    5.8030   -2.7990   25.1350 C   0  0  0  0  0  0  0  0  0  0  0  0
    4.6590   -3.1220   25.4520 O   0  0  0  0  0  0  0  0  0  0  0  0
    6.4920   -1.7880   25.8110 N   0  0  0  0  0  0  0  0  0  0  0  0
    6.2230   -1.5430   27.1880 C   0  0  0  0  0  0  0  0  0  0  0  0
    6.6990   -0.5460   25.1000 C   0  0  0  0  0  0  0  0  0  0  0  0
    5.2110   -0.6080   27.2740 C   0  0  0  0  0  0  0  0  0  0  0  0
    7.0650    0.7260   25.9510 C   0  0  0  0  0  0  0  0  0  0  0  0
    5.6710    0.4670   27.9830 C   0  0  0  0  0  0  0  0  0  0  0  0
    7.0160    0.6340   27.4800 N   0  0  0  0  0  0  0  0  0  0  0  0
    8.2440   -0.4060   28.1100 S   0  0  0  0  0  0  0  0  0  0  0  0
    9.2670    0.4700   28.6350 O   0  0  0  0  0  0  0  0  0  0  0  0
    7.6600   -1.4640   28.9050 O   0  0  0  0  0  0  0  0  0  0  0  0
    8.8130   -1.0070   26.5950 C   0  0  0  0  0  0  0  0  0  0  0  0
    8.5430   -2.2620   26.0570 C   0  0  0  0  0  0  0  0  0  0  0  0
    9.5950   -0.1720   25.8470 C   0  0  0  0  0  0  0  0  0  0  0  0
    9.0230   -2.7070   24.8100 C   0  0  0  0  0  0  0  0  0  0  0  0
   10.1170   -0.5180   24.5950 C   0  0  0  0  0  0  0  0  0  0  0  0
    9.9010   -1.7360   23.9860 C   0  0  0  0  0  0  0  0  0  0  0  0
   10.4740   -2.1250   22.6070 C   0  0  0  0  0  0  0  0  0  0  0  0
  1  2  1  0
  2  3  1  0
  3  4  2  0
  3  5  1  0
  5  6  1  0
  5  7  1  0
  6  8  1  0
  7  9  1  0
  8 10  1  0
  9 10  1  0
 10 11  1  0
 11 12  2  0
 11 13  1  0
 13 14  1  0
 13 15  1  0
 14 16  1  0
 15 17  1  0
 16 18  1  0
 17 19  1  0
 18 19  1  0
 19 20  1  0
 20 21  2  0
 20 22  2  0
 20 23  1  0
 23 24  2  0
 23 25  1  0
 24 26  1  0
 25 27  2  0
 26 28  2  0
 27 28  1  0
 28 29  1  0
M  END
