SAD-SAT-9a6c5cf3-6-bromoalkyne
     RDKit          3D

 28 31  0  0  0  0  0  0  0  0999 V2000
    6.7820   -3.8490   19.9870 C   0  0  0  0  0  0  0  0  0  0  0  0
    5.6460   -3.4700   19.3870 C   0  0  0  0  0  0  0  0  0  0  0  0
    6.9490   -4.0250   21.3580 N   0  0  0  0  0  0  0  0  0  0  0  0
    6.4600   -5.2280   22.0690 C   0  0  0  0  0  0  0  0  0  0  0  0
    7.8330   -3.0710   22.0900 C   0  0  0  0  0  0  0  0  0  0  0  0
    5.8270   -4.8510   23.4120 C   0  0  0  0  0  0  0  0  0  0  0  0
    7.5240   -2.9520   23.4600 C   0  0  0  0  0  0  0  0  0  0  0  0
    6.0880   -3.3750   23.7540 C   0  0  0  0  0  0  0  0  0  0  0  0
    5.5760   -3.0630   25.1740 C   0  0  0  0  0  0  0  0  0  0  0  0
    4.3760   -3.1880   25.3750 O   0  0  0  0  0  0  0  0  0  0  0  0
    6.4320   -2.6530   26.3140 N   0  0  0  0  0  0  0  0  0  0  0  0
    6.9870   -1.3810   26.4830 C   0  0  0  0  0  0  0  0  0  0  0  0
    6.0010   -3.0630   27.6030 C   0  0  0  0  0  0  0  0  0  0  0  0
    6.0890   -0.3290   26.5000 C   0  0  0  0  0  0  0  0  0  0  0  0
    5.3260   -1.9090   28.3830 C   0  0  0  0  0  0  0  0  0  0  0  0
    5.1110   -0.6330   27.5770 N   0  0  0  0  0  0  0  0  0  0  0  0
    4.6360    0.7170   28.5280 S   0  0  0  0  0  0  0  0  0  0  0  0
    5.1260    1.8800   27.8270 O   0  0  0  0  0  0  0  0  0  0  0  0
    3.2330    0.5210   28.8130 O   0  0  0  0  0  0  0  0  0  0  0  0
    5.5080    0.5620   30.0000 C   0  0  0  0  0  0  0  0  0  0  0  0
    6.9070    0.7510   30.0510 C   0  0  0  0  0  0  0  0  0  0  0  0
    4.8200    0.2440   31.1930 C   0  0  0  0  0  0  0  0  0  0  0  0
    7.6000    0.6250   31.2850 C   0  0  0  0  0  0  0  0  0  0  0  0
    5.5730    0.1080   32.5180 C   0  0  0  0  0  0  0  0  0  0  0  0
    6.9120    0.3150   32.4560 C   0  0  0  0  0  0  0  0  0  0  0  0
    5.1440   -0.2120   33.9260 C   0  0  0  0  0  0  0  0  0  0  0  0
    6.4900   -0.2680   34.7200 C   0  0  0  0  0  0  0  0  0  0  0  0
    7.6320    0.1800   33.7910 C   0  0  0  0  0  0  0  0  0  0  0  0
  1  2  2  3
  1  3  1  0
  3  4  1  0
  3  5  1  0
  4  6  1  0
  5  7  1  0
  6  8  1  0
  7  8  1  0
  8  9  1  0
  9 10  2  0
  9 11  1  0
 11 12  1  0
 11 13  1  0
 12 14  1  0
 13 15  1  0
 14 16  1  0
 15 16  1  0
 16 17  1  0
 17 18  2  0
 17 19  2  0
 17 20  1  0
 20 21  2  0
 20 22  1  0
 21 23  1  0
 22 24  2  0
 23 25  2  0
 24 25  1  0
 24 26  1  0
 26 27  1  0
 25 28  1  0
 27 28  1  0
M  END
