SAD-SAT-c989feaa-10-chloroacetamide
     RDKit          3D

 22 23  0  0  0  0  0  0  0  0999 V2000
    7.2450   -2.9960   18.8620 C   0  0  0  0  0  0  0  0  0  0  0  0
    6.2510   -3.3060   19.9620 C   0  0  0  0  0  0  0  0  0  0  0  0
    5.4200   -4.2100   19.7870 O   0  0  0  0  0  0  0  0  0  0  0  0
    6.3150   -2.5570   21.1390 N   0  0  0  0  0  0  0  0  0  0  0  0
    7.2100   -1.4130   21.2960 C   0  0  0  0  0  0  0  0  0  0  0  0
    5.9780   -3.2340   22.4070 C   0  0  0  0  0  0  0  0  0  0  0  0
    8.4760   -1.8120   22.0470 C   0  0  0  0  0  0  0  0  0  0  0  0
    7.2100   -3.6030   23.2710 C   0  0  2  0  0  0  0  0  0  0  0  0
    8.2070   -2.4810   23.3270 N   0  0  0  0  0  0  0  0  0  0  0  0
    7.7780   -4.9850   22.8930 C   0  0  0  0  0  0  0  0  0  0  0  0
    9.3010   -2.5160   24.2010 C   0  0  0  0  0  0  0  0  0  0  0  0
    6.8750   -6.2430   23.0860 C   0  0  0  0  0  0  0  0  0  0  0  0
    9.3470   -3.2590   25.1810 O   0  0  0  0  0  0  0  0  0  0  0  0
   10.3960   -1.6090   23.8850 C   0  0  0  0  0  0  0  0  0  0  0  0
    5.8160   -6.2260   24.2110 C   0  0  0  0  0  0  0  0  0  0  0  0
    7.7810   -7.4580   23.3330 C   0  0  0  0  0  0  0  0  0  0  0  0
   10.7160   -0.3120   24.4920 C   0  0  0  0  0  0  0  0  0  0  0  0
   11.2070   -2.0650   22.8640 C   0  0  0  0  0  0  0  0  0  0  0  0
   11.8030    0.5740   24.1410 C   0  0  0  0  0  0  0  0  0  0  0  0
   12.3620   -1.2010   22.4420 C   0  0  0  0  0  0  0  0  0  0  0  0
   12.5990    0.1200   23.1350 C   0  0  0  0  0  0  0  0  0  0  0  0
   13.3600   -1.7290   21.1890 Cl  0  0  0  0  0  0  0  0  0  0  0  0
  1  2  1  0
  2  3  2  0
  2  4  1  0
  4  5  1  0
  4  6  1  0
  5  7  1  0
  6  8  1  0
  7  9  1  0
  8  9  1  0
  8 10  1  6
  9 11  1  0
 10 12  1  0
 11 13  2  0
 11 14  1  0
 12 15  1  0
 12 16  1  0
 14 17  2  0
 14 18  1  0
 17 19  1  0
 18 20  2  0
 19 21  2  0
 20 21  1  0
 20 22  1  0
M  END
