SAD-SAT-edc8a235-9
     RDKit          3D

  7  6  0  0  0  0  0  0  0  0999 V2000
    5.5600   -4.2620   28.7200 N   0  0  0  0  0  0  0  0  0  0  0  0
    5.9120   -4.6240   27.6670 C   0  0  0  0  0  0  0  0  0  0  0  0
    6.4320   -5.0850   26.3850 C   0  0  0  0  0  0  0  0  0  0  0  0
    8.0710   -4.4060   26.2350 S   0  0  0  0  0  0  0  0  0  0  0  0
    8.1040   -3.5250   24.8090 N   0  0  0  0  0  0  0  0  0  0  0  0
    9.0520   -5.4550   26.0880 O   0  0  0  0  0  0  0  0  0  0  0  0
    8.1670   -3.4110   27.2740 O   0  0  0  0  0  0  0  0  0  0  0  0
  1  2  3  0
  2  3  1  0
  3  4  1  0
  4  5  1  0
  4  6  2  0
  4  7  2  0
M  END
