SAD-SAT-c989feaa-2-nitrile
     RDKit          3D

 21 22  0  0  0  0  0  0  0  0999 V2000
    7.0370   -3.3760   19.6640 C   0  0  0  0  0  0  0  0  0  0  0  0
    6.1270   -3.1690   18.7880 N   0  0  0  0  0  0  0  0  0  0  0  0
    7.0040   -2.8440   20.9300 N   0  0  0  0  0  0  0  0  0  0  0  0
    6.2930   -3.4350   22.0600 C   0  0  0  0  0  0  0  0  0  0  0  0
    7.5160   -1.4900   21.1820 C   0  0  0  0  0  0  0  0  0  0  0  0
    7.2220   -3.6200   23.2650 C   0  0  0  0  0  0  0  0  0  0  0  0
    7.9820   -1.2890   22.6420 C   0  0  2  0  0  0  0  0  0  0  0  0
    8.1410   -2.5060   23.5180 N   0  0  0  0  0  0  0  0  0  0  0  0
    7.0940   -0.2910   23.4240 C   0  0  0  0  0  0  0  0  0  0  0  0
    9.4790   -2.8390   23.6910 C   0  0  0  0  0  0  0  0  0  0  0  0
    7.7800    0.6140   24.4920 C   0  0  0  0  0  0  0  0  0  0  0  0
   10.4840   -1.7060   23.6370 C   0  0  0  0  0  0  0  0  0  0  0  0
    8.2760   -0.0520   25.8000 C   0  0  0  0  0  0  0  0  0  0  0  0
    8.9210    1.4210   23.8580 C   0  0  0  0  0  0  0  0  0  0  0  0
   10.6100   -0.4760   24.3780 C   0  0  0  0  0  0  0  0  0  0  0  0
   11.4520   -1.8860   22.6830 C   0  0  0  0  0  0  0  0  0  0  0  0
   11.6420    0.5100   24.1600 C   0  0  0  0  0  0  0  0  0  0  0  0
   12.4600   -0.9690   22.4470 C   0  0  0  0  0  0  0  0  0  0  0  0
   12.6490    0.3520   23.1930 C   0  0  0  0  0  0  0  0  0  0  0  0
   13.3080   -1.2980   21.4560 C   0  0  0  0  0  0  0  0  0  0  0  0
   13.8990   -1.5240   20.5410 N   0  0  0  0  0  0  0  0  0  0  0  0
  1  2  2  3
  1  3  1  0
  3  4  1  0
  3  5  1  0
  4  6  1  0
  5  7  1  0
  6  8  1  0
  7  8  1  0
  7  9  1  1
  8 10  1  0
  9 11  1  0
 10 12  1  0
 11 13  1  0
 11 14  1  0
 12 15  2  0
 12 16  1  0
 15 17  1  0
 16 18  2  0
 17 19  2  0
 18 19  1  0
 18 20  1  0
 20 21  3  0
M  END
