SAD-SAT-edc8a235-5
     RDKit          3D

  9  9  0  0  0  0  0  0  0  0999 V2000
    6.9610   -0.6290   21.9190 N   0  0  0  0  0  0  0  0  0  0  0  0
    7.0570   -1.5900   21.2720 C   0  0  0  0  0  0  0  0  0  0  0  0
    7.1420   -2.8070   20.3920 C   0  0  0  0  0  0  0  0  0  0  0  0
    6.2110   -3.8500   20.6220 C   0  0  0  0  0  0  0  0  0  0  0  0
    5.4550   -4.2710   19.7360 O   0  0  0  0  0  0  0  0  0  0  0  0
    6.2440   -4.3790   21.8940 N   0  0  0  0  0  0  0  0  0  0  0  0
    5.6480   -5.6470   22.1590 C   0  0  0  0  0  0  0  0  0  0  0  0
    6.4540   -6.6800   22.7510 C   0  0  0  0  0  0  0  0  0  0  0  0
    5.4540   -6.2250   23.6850 C   0  0  0  0  0  0  0  0  0  0  0  0
  1  2  3  0
  2  3  1  0
  3  4  1  0
  4  5  2  0
  4  6  1  0
  6  7  1  0
  7  8  1  0
  7  9  1  0
  8  9  1  0
M  END
