SAD-SAT-9a6c5cf3-5-vinylsulfonamide
     RDKit          3D

 31 33  0  0  0  0  0  0  0  0999 V2000
    7.9450   -3.7800   19.9170 C   0  0  0  0  0  0  0  0  0  0  0  0
    7.2110   -2.8350   19.3150 C   0  0  0  0  0  0  0  0  0  0  0  0
    5.6540   -2.8170   20.1250 S   0  0  0  0  0  0  0  0  0  0  0  0
    4.8700   -3.8530   19.4860 O   0  0  0  0  0  0  0  0  0  0  0  0
    5.1970   -1.4500   20.2390 O   0  0  0  0  0  0  0  0  0  0  0  0
    6.1070   -3.3430   21.6990 N   0  0  0  0  0  0  0  0  0  0  0  0
    7.3590   -2.8010   22.2610 C   0  0  0  0  0  0  0  0  0  0  0  0
    5.6310   -4.6060   22.2650 C   0  0  0  0  0  0  0  0  0  0  0  0
    7.2240   -2.8020   23.7760 C   0  0  0  0  0  0  0  0  0  0  0  0
    5.2540   -4.4480   23.6040 C   0  0  0  0  0  0  0  0  0  0  0  0
    5.7770   -3.1240   24.2030 C   0  0  0  0  0  0  0  0  0  0  0  0
    5.6260   -3.1680   25.7120 C   0  0  0  0  0  0  0  0  0  0  0  0
    5.4320   -4.2390   26.2660 O   0  0  0  0  0  0  0  0  0  0  0  0
    5.6890   -1.8990   26.4460 N   0  0  0  0  0  0  0  0  0  0  0  0
    6.8760   -1.2200   26.7220 C   0  0  0  0  0  0  0  0  0  0  0  0
    4.4750   -1.0490   26.4280 C   0  0  0  0  0  0  0  0  0  0  0  0
    6.8640    0.1360   26.4190 C   0  0  0  0  0  0  0  0  0  0  0  0
    4.5690    0.2680   27.2450 C   0  0  0  0  0  0  0  0  0  0  0  0
    5.9660    0.7160   27.4210 N   0  0  0  0  0  0  0  0  0  0  0  0
    6.5180    0.5000   29.0250 S   0  0  0  0  0  0  0  0  0  0  0  0
    6.0800    1.6350   29.8030 O   0  0  0  0  0  0  0  0  0  0  0  0
    7.9090    0.1110   28.9310 O   0  0  0  0  0  0  0  0  0  0  0  0
    5.5810   -0.9010   29.5230 C   0  0  0  0  0  0  0  0  0  0  0  0
    4.4290   -0.7640   30.2900 C   0  0  0  0  0  0  0  0  0  0  0  0
    5.9450   -2.2140   29.1640 C   0  0  0  0  0  0  0  0  0  0  0  0
    3.6300   -1.8420   30.7070 C   0  0  0  0  0  0  0  0  0  0  0  0
    5.0830   -3.4140   29.6080 C   0  0  0  0  0  0  0  0  0  0  0  0
    3.9470   -3.1600   30.3710 C   0  0  0  0  0  0  0  0  0  0  0  0
    3.0860   -4.2670   30.8220 N   0  0  0  0  0  0  0  0  0  0  0  0
    1.9980   -3.9680   31.3370 O   0  0  0  0  0  0  0  0  0  0  0  0
    3.4080   -5.4150   30.4920 O   0  0  0  0  0  0  0  0  0  0  0  0
  1  2  1  0
  3  2  1  0
  3  4  2  0
  3  5  2  0
  3  6  1  0
  6  7  1  0
  6  8  1  0
  7  9  1  0
  8 10  1  0
  9 11  1  0
 10 11  1  0
 11 12  1  0
 12 13  2  0
 12 14  1  0
 14 15  1  0
 14 16  1  0
 15 17  1  0
 16 18  1  0
 17 19  1  0
 18 19  1  0
 19 20  1  0
 20 21  2  0
 20 22  2  0
 20 23  1  0
 23 24  2  0
 23 25  1  0
 24 26  1  0
 25 27  2  0
 26 28  2  0
 27 28  1  0
 28 29  1  0
 29 30  2  0
 29 31  1  0
M  CHG  2  29   1  31  -1
M  END
