SAD-SAT-29425be4-14-nitrile
     RDKit          3D

 21 22  0  0  0  0  0  0  0  0999 V2000
    6.1900   -4.8480   20.3240 C   0  0  0  0  0  0  0  0  0  0  0  0
    5.1250   -4.3930   19.8780 N   0  0  0  0  0  0  0  0  0  0  0  0
    6.1620   -5.4250   21.6080 N   0  0  0  0  0  0  0  0  0  0  0  0
    4.9620   -5.5140   22.4580 C   0  0  0  0  0  0  0  0  0  0  0  0
    7.2320   -6.1000   22.3000 C   0  0  0  0  0  0  0  0  0  0  0  0
    5.1900   -4.3510   23.4630 C   0  0  0  0  0  0  0  0  0  0  0  0
    7.5330   -5.3770   23.6110 C   0  0  0  0  0  0  0  0  0  0  0  0
    6.2540   -5.0200   24.3770 C   0  0  0  0  0  0  0  0  0  0  0  0
    6.4650   -3.8800   25.4070 C   0  0  0  0  0  0  0  0  0  0  0  0
    6.7970   -4.1030   26.5690 O   0  0  0  0  0  0  0  0  0  0  0  0
    6.2490   -2.6080   24.9380 N   0  0  0  0  0  0  0  0  0  0  0  0
    6.9320   -1.4820   25.5460 C   0  0  0  0  0  0  0  0  0  0  0  0
    8.3900   -1.4660   25.0210 C   0  0  0  0  0  0  0  0  0  0  0  0
    8.8650   -0.0790   24.6730 C   0  0  0  0  0  0  0  0  0  0  0  0
    9.6010   -2.6700   24.7460 S   0  0  0  0  0  0  0  0  0  0  0  0
   10.2680   -0.0750   24.1750 C   0  0  0  0  0  0  0  0  0  0  0  0
   10.8570   -1.4910   24.1540 C   0  0  0  0  0  0  0  0  0  0  0  0
   12.1790   -1.6460   23.7270 C   0  0  0  0  0  0  0  0  0  0  0  0
   12.4030   -1.9280   22.3720 C   0  0  0  0  0  0  0  0  0  0  0  0
   12.9040   -0.3360   23.9510 C   0  0  0  0  0  0  0  0  0  0  0  0
   13.0060   -2.6360   24.5610 C   0  0  0  0  0  0  0  0  0  0  0  0
  1  2  2  3
  1  3  1  0
  3  4  1  0
  3  5  1  0
  4  6  1  0
  5  7  1  0
  6  8  1  0
  7  8  1  0
  8  9  1  0
  9 10  2  0
  9 11  1  0
 11 12  1  0
 12 13  1  0
 13 14  2  0
 13 15  1  0
 14 16  1  0
 15 17  1  0
 16 17  2  0
 17 18  1  0
 18 19  1  0
 18 20  1  0
 18 21  1  0
M  END
