SAD-SAT-f2e2579e-3-vinylsulfonamide
     RDKit          3D

 28 30  0  0  0  0  0  0  0  0999 V2000
    6.8530   -5.2980   20.0170 C   0  0  0  0  0  0  0  0  0  0  0  0
    5.6860   -4.6790   20.1220 C   0  0  0  0  0  0  0  0  0  0  0  0
    5.8080   -3.2710   21.0690 S   0  0  0  0  0  0  0  0  0  0  0  0
    4.6230   -3.2880   21.8800 O   0  0  0  0  0  0  0  0  0  0  0  0
    6.1140   -2.2370   20.1330 O   0  0  0  0  0  0  0  0  0  0  0  0
    7.1470   -3.8270   21.9220 N   0  0  0  0  0  0  0  0  0  0  0  0
    6.8840   -5.0860   22.6280 C   0  0  0  0  0  0  0  0  0  0  0  0
    7.9880   -2.8690   22.5820 C   0  0  0  0  0  0  0  0  0  0  0  0
    6.0860   -4.7750   23.8680 C   0  0  0  0  0  0  0  0  0  0  0  0
    7.4440   -2.6190   23.9820 C   0  0  0  0  0  0  0  0  0  0  0  0
    6.0700   -3.2760   24.2020 C   0  0  0  0  0  0  0  0  0  0  0  0
    5.6060   -3.1410   25.6340 C   0  0  0  0  0  0  0  0  0  0  0  0
    4.4670   -3.4890   25.9190 O   0  0  0  0  0  0  0  0  0  0  0  0
    6.5160   -2.6040   26.6500 N   0  0  0  0  0  0  0  0  0  0  0  0
    6.1270   -2.6300   27.9910 C   0  0  0  0  0  0  0  0  0  0  0  0
    7.0110   -1.2780   26.3790 C   0  0  0  0  0  0  0  0  0  0  0  0
    5.2430   -1.6290   28.4840 C   0  0  0  0  0  0  0  0  0  0  0  0
    5.7730   -0.4160   26.3060 C   0  0  0  0  0  0  0  0  0  0  0  0
    5.3750   -0.3300   27.7390 N   0  0  0  0  0  0  0  0  0  0  0  0
    5.7010    1.0630   28.6450 S   0  0  0  0  0  0  0  0  0  0  0  0
    4.7600    1.0960   29.7340 O   0  0  0  0  0  0  0  0  0  0  0  0
    5.7810    2.1340   27.6820 O   0  0  0  0  0  0  0  0  0  0  0  0
    7.3060    0.8740   29.3320 C   0  0  0  0  0  0  0  0  0  0  0  0
    7.9920   -0.2560   29.7340 C   0  0  0  0  0  0  0  0  0  0  0  0
    8.2610    2.2980   29.6010 S   0  0  0  0  0  0  0  0  0  0  0  0
    9.2500   -0.0170   30.2570 C   0  0  0  0  0  0  0  0  0  0  0  0
    9.5860    1.3220   30.2760 C   0  0  0  0  0  0  0  0  0  0  0  0
   11.0560    1.9920   30.8580 Cl  0  0  0  0  0  0  0  0  0  0  0  0
  1  2  1  0
  3  2  1  0
  3  4  2  0
  3  5  2  0
  3  6  1  0
  6  7  1  0
  6  8  1  0
  7  9  1  0
  8 10  1  0
  9 11  1  0
 10 11  1  0
 11 12  1  0
 12 13  2  0
 12 14  1  0
 14 15  1  0
 14 16  1  0
 15 17  1  0
 16 18  1  0
 17 19  1  0
 18 19  1  0
 19 20  1  0
 20 21  2  0
 20 22  2  0
 20 23  1  0
 23 24  2  0
 23 25  1  0
 24 26  1  0
 25 27  1  0
 26 27  2  0
 27 28  1  0
M  END
