SAD-SAT-5b1897b2-5-chloroacetamide
     RDKit          3D

 19 20  0  0  0  0  0  0  0  0999 V2000
    7.1970   -2.9590   18.7350 C   0  0  0  0  0  0  0  0  0  0  0  0
    6.2450   -3.2760   19.8560 C   0  0  0  0  0  0  0  0  0  0  0  0
    5.3870   -4.1620   19.7530 O   0  0  0  0  0  0  0  0  0  0  0  0
    6.3900   -2.5280   21.0280 N   0  0  0  0  0  0  0  0  0  0  0  0
    6.0310   -3.1630   22.2760 C   0  0  0  0  0  0  0  0  0  0  0  0
    7.3940   -1.4600   21.2100 C   0  0  0  0  0  0  0  0  0  0  0  0
    7.3040   -3.5150   23.0370 C   0  0  0  0  0  0  0  0  0  0  0  0
    8.5560   -1.9380   21.8310 C   0  0  0  0  0  0  0  0  0  0  0  0
    8.2550   -2.3720   23.0970 N   0  0  0  0  0  0  0  0  0  0  0  0
    9.3540   -2.3740   23.9180 C   0  0  0  0  0  0  0  0  0  0  0  0
   10.4120   -1.3640   23.6370 C   0  0  0  0  0  0  0  0  0  0  0  0
   11.6090   -1.7010   22.9970 C   0  0  0  0  0  0  0  0  0  0  0  0
   10.1690   -0.0260   24.0350 C   0  0  0  0  0  0  0  0  0  0  0  0
   12.6310   -0.5730   22.7350 C   0  0  0  0  0  0  0  0  0  0  0  0
   11.0820    1.0260   23.8100 C   0  0  0  0  0  0  0  0  0  0  0  0
   12.2960    0.8120   23.1740 C   0  0  0  0  0  0  0  0  0  0  0  0
   10.7620    2.2540   24.2130 F   0  0  0  0  0  0  0  0  0  0  0  0
   13.1940    1.8830   22.9400 O   0  0  0  0  0  0  0  0  0  0  0  0
   12.6650    3.1840   22.6820 C   0  0  0  0  0  0  0  0  0  0  0  0
  1  2  1  0
  2  3  2  0
  2  4  1  0
  4  5  1  0
  4  6  1  0
  5  7  1  0
  6  8  1  0
  7  9  1  0
  8  9  1  0
  9 10  1  0
 10 11  1  0
 11 12  2  0
 11 13  1  0
 12 14  1  0
 13 15  2  0
 14 16  2  0
 15 16  1  0
 15 17  1  0
 16 18  1  0
 18 19  1  0
M  END
