SAD-SAT-5b1897b2-10-chloroacetamide
     RDKit          3D

 16 17  0  0  0  0  0  0  0  0999 V2000
    7.1230   -3.0130   18.8620 C   0  0  0  0  0  0  0  0  0  0  0  0
    6.2280   -3.4720   19.9990 C   0  0  0  0  0  0  0  0  0  0  0  0
    5.3430   -4.3070   19.8130 O   0  0  0  0  0  0  0  0  0  0  0  0
    6.4460   -2.9130   21.2760 N   0  0  0  0  0  0  0  0  0  0  0  0
    6.7660   -1.5130   21.3220 C   0  0  0  0  0  0  0  0  0  0  0  0
    7.1220   -3.6650   22.2460 C   0  0  0  0  0  0  0  0  0  0  0  0
    8.2680   -1.4110   21.2520 C   0  0  0  0  0  0  0  0  0  0  0  0
    8.0600   -2.9020   23.0270 C   0  0  0  0  0  0  0  0  0  0  0  0
    8.9530   -2.2650   22.2560 N   0  0  0  0  0  0  0  0  0  0  0  0
    9.9120   -1.5010   22.9020 C   0  0  0  0  0  0  0  0  0  0  0  0
   11.2560   -1.1820   22.2430 C   0  0  0  0  0  0  0  0  0  0  0  0
    9.7030   -0.9400   24.1510 C   0  0  0  0  0  0  0  0  0  0  0  0
   12.1830   -0.3410   22.8600 C   0  0  0  0  0  0  0  0  0  0  0  0
   10.6080   -0.1000   24.7760 C   0  0  0  0  0  0  0  0  0  0  0  0
    8.6160   -1.1340   24.8550 F   0  0  0  0  0  0  0  0  0  0  0  0
   11.8060    0.2510   24.2250 C   0  0  0  0  0  0  0  0  0  0  0  0
  1  2  1  0
  2  3  2  0
  2  4  1  0
  4  5  1  0
  4  6  1  0
  5  7  1  0
  6  8  1  0
  7  9  1  0
  8  9  1  0
  9 10  1  0
 10 11  2  0
 10 12  1  0
 11 13  1  0
 12 14  2  0
 12 15  1  0
 13 16  2  0
 14 16  1  0
M  END
