SAD-SAT-89668ff1-3-bromoalkyne
     RDKit          3D

 21 22  0  0  0  0  0  0  0  0999 V2000
    6.9840   -3.5910   19.8250 C   0  0  0  0  0  0  0  0  0  0  0  0
    6.1980   -2.8540   18.7590 C   0  0  0  0  0  0  0  0  0  0  0  0
    6.9600   -3.1280   21.1370 N   0  0  0  0  0  0  0  0  0  0  0  0
    7.8440   -2.0270   21.5220 C   0  0  0  0  0  0  0  0  0  0  0  0
    6.2020   -3.7190   22.2400 C   0  0  0  0  0  0  0  0  0  0  0  0
    8.8120   -2.3990   22.6430 C   0  0  0  0  0  0  0  0  0  0  0  0
    7.1210   -4.1570   23.3810 C   0  0  0  0  0  0  0  0  0  0  0  0
    8.0380   -2.9960   23.8280 C   0  0  0  0  0  0  0  0  0  0  0  0
    7.3410   -1.8980   24.5090 C   0  0  1  0  0  0  0  0  0  0  0  0
    5.9800   -2.3170   25.1260 C   0  0  0  0  0  0  0  0  0  0  0  0
    8.2070   -1.3530   25.6370 C   0  0  0  0  0  0  0  0  0  0  0  0
    8.6380   -2.0890   26.5030 O   0  0  0  0  0  0  0  0  0  0  0  0
    8.4230    0.0030   25.6060 N   0  0  0  0  0  0  0  0  0  0  0  0
    8.3290    0.6870   26.8240 C   0  0  0  0  0  0  0  0  0  0  0  0
    8.9720    0.2170   27.9730 C   0  0  0  0  0  0  0  0  0  0  0  0
    7.5760    1.8660   26.9740 C   0  0  0  0  0  0  0  0  0  0  0  0
    8.9130    0.8070   29.1970 N   0  0  0  0  0  0  0  0  0  0  0  0
    7.4940    2.4910   28.2160 C   0  0  0  0  0  0  0  0  0  0  0  0
    6.8670    2.4610   25.8760 C   0  0  0  0  0  0  0  0  0  0  0  0
    8.1760    1.9280   29.3000 C   0  0  0  0  0  0  0  0  0  0  0  0
    6.2750    2.9920   25.0300 N   0  0  0  0  0  0  0  0  0  0  0  0
  1  2  2  3
  1  3  1  0
  3  4  1  0
  3  5  1  0
  4  6  1  0
  5  7  1  0
  6  8  1  0
  7  8  1  0
  8  9  1  0
  9 10  1  1
  9 11  1  0
 11 12  2  0
 11 13  1  0
 13 14  1  0
 14 15  2  0
 14 16  1  0
 15 17  1  0
 16 18  2  0
 16 19  1  0
 17 20  2  0
 18 20  1  0
 19 21  3  0
M  END
