SAD-SAT-29425be4-6-chloroacetamide
     RDKit          3D

 27 28  0  0  0  0  0  0  0  0999 V2000
    7.2630   -3.4190   19.4980 C   0  0  0  0  0  0  0  0  0  0  0  0
    5.9110   -3.0350   19.9320 C   0  0  0  0  0  0  0  0  0  0  0  0
    4.9760   -3.5830   19.3360 O   0  0  0  0  0  0  0  0  0  0  0  0
    5.7710   -2.1640   21.0050 N   0  0  0  0  0  0  0  0  0  0  0  0
    6.7490   -1.0710   21.0150 C   0  0  0  0  0  0  0  0  0  0  0  0
    5.3760   -2.6400   22.3270 C   0  0  0  0  0  0  0  0  0  0  0  0
    7.9440   -1.2970   21.9430 C   0  0  0  0  0  0  0  0  0  0  0  0
    6.4960   -3.0770   23.0230 C   0  0  0  0  0  0  0  0  0  0  0  0
    7.4990   -1.9430   23.2580 C   0  0  0  0  0  0  0  0  0  0  0  0
    8.6660   -2.5110   24.0670 C   0  0  0  0  0  0  0  0  0  0  0  0
    8.5050   -3.6420   24.5240 O   0  0  0  0  0  0  0  0  0  0  0  0
    9.8480   -1.7820   24.2520 N   0  0  0  0  0  0  0  0  0  0  0  0
    9.8130   -0.4840   24.9170 C   0  0  0  0  0  0  0  0  0  0  0  0
   10.4760    0.5750   24.1050 C   0  0  0  0  0  0  0  0  0  0  0  0
   12.2100    0.3230   24.1930 S   0  0  0  0  0  0  0  0  0  0  0  0
   12.5950   -0.1920   25.4830 O   0  0  0  0  0  0  0  0  0  0  0  0
   12.8190    1.4760   23.5890 O   0  0  0  0  0  0  0  0  0  0  0  0
   12.6170   -1.0290   23.2060 C   0  0  0  0  0  0  0  0  0  0  0  0
   13.4510   -1.9690   23.7070 C   0  0  0  0  0  0  0  0  0  0  0  0
   12.1280   -1.1330   21.9760 C   0  0  0  0  0  0  0  0  0  0  0  0
   13.8080   -3.0210   22.9140 C   0  0  0  0  0  0  0  0  0  0  0  0
   12.4960   -2.1910   21.1710 C   0  0  0  0  0  0  0  0  0  0  0  0
   13.3560   -3.1930   21.5710 C   0  0  0  0  0  0  0  0  0  0  0  0
   13.6140   -4.2630   20.4710 C   0  0  0  0  0  0  0  0  0  0  0  0
   12.4040   -4.5430   19.6960 C   0  0  0  0  0  0  0  0  0  0  0  0
   14.8320   -4.1960   19.5930 C   0  0  0  0  0  0  0  0  0  0  0  0
   14.3710   -5.5620   20.6140 C   0  0  0  0  0  0  0  0  0  0  0  0
  1  2  1  0
  2  3  2  0
  2  4  1  0
  4  5  1  0
  4  6  1  0
  5  7  1  0
  6  8  1  0
  7  9  1  0
  8  9  1  0
  9 10  1  0
 10 11  2  0
 10 12  1  0
 12 13  1  0
 13 14  1  0
 15 14  1  0
 15 16  2  0
 15 17  2  0
 15 18  1  0
 18 19  2  0
 18 20  1  0
 19 21  1  0
 20 22  2  0
 21 23  2  0
 22 23  1  0
 23 24  1  0
 24 25  1  0
 24 26  1  0
 24 27  1  0
M  END
