SAD-SAT-b55127ae-5-vinylsulfonamide
     RDKit          3D

 24 25  0  0  0  0  0  0  0  0999 V2000
    7.3010   -3.1120   19.0040 C   0  0  0  0  0  0  0  0  0  0  0  0
    7.3210   -2.2000   20.2130 C   0  0  0  0  0  0  0  0  0  0  0  0
    5.8860   -2.5260   21.2160 S   0  0  0  0  0  0  0  0  0  0  0  0
    5.2650   -3.7870   20.8220 O   0  0  0  0  0  0  0  0  0  0  0  0
    5.1040   -1.3150   21.2840 O   0  0  0  0  0  0  0  0  0  0  0  0
    6.6450   -2.7190   22.7310 N   0  0  0  0  0  0  0  0  0  0  0  0
    6.5790   -1.5400   23.5980 C   0  0  0  0  0  0  0  0  0  0  0  0
    7.9850   -3.3130   22.7200 C   0  0  0  0  0  0  0  0  0  0  0  0
    7.8380   -1.4130   24.4800 C   0  0  0  0  0  0  0  0  0  0  0  0
    8.9630   -2.3260   22.5170 C   0  0  0  0  0  0  0  0  0  0  0  0
    9.1130   -1.4710   23.7300 N   0  0  0  0  0  0  0  0  0  0  0  0
    9.9060    0.0410   23.4270 S   0  0  0  0  0  0  0  0  0  0  0  0
   11.0640    0.3100   24.2760 O   0  0  0  0  0  0  0  0  0  0  0  0
    9.9500    0.2650   21.9910 O   0  0  0  0  0  0  0  0  0  0  0  0
    8.8040    1.2160   23.9350 C   0  0  0  0  0  0  0  0  0  0  0  0
    9.1150    0.7550   25.2540 C   0  0  0  0  0  0  0  0  0  0  0  0
    8.8960    1.2570   22.5810 C   0  0  0  0  0  0  0  0  0  0  0  0
   10.1080   -0.2840   25.4330 C   0  0  0  0  0  0  0  0  0  0  0  0
    9.9960    0.1140   22.7860 C   0  0  0  0  0  0  0  0  0  0  0  0
   10.4850   -0.5110   24.0360 C   0  0  0  0  0  0  0  0  0  0  0  0
   11.4820   -1.5080   24.0180 C   0  0  0  0  0  0  0  0  0  0  0  0
   11.8920   -2.1320   22.8300 C   0  0  0  0  0  0  0  0  0  0  0  0
   11.2360   -2.9870   23.9020 C   0  0  0  0  0  0  0  0  0  0  0  0
   12.7600   -1.1930   24.8210 C   0  0  0  0  0  0  0  0  0  0  0  0
  1  2  1  0
  3  2  1  0
  3  4  2  0
  3  5  2  0
  3  6  1  0
  6  7  1  0
  6  8  1  0
  7  9  1  0
  8 10  1  0
  9 11  1  0
 10 11  1  0
 11 12  1  0
 12 13  2  0
 12 14  2  0
 12 15  1  0
 15 16  2  0
 15 17  1  0
 16 18  1  0
 17 19  2  0
 18 20  2  0
 19 20  1  0
 20 21  1  0
 21 22  1  0
 21 23  1  0
 21 24  1  0
M  END
