SAD-SAT-f0a2747f-4-bromoalkyne
     RDKit          3D

 22 24  0  0  0  0  0  0  0  0999 V2000
    6.9240   -4.9050   20.5770 C   0  0  0  0  0  0  0  0  0  0  0  0
    5.7920   -5.7700   20.0550 C   0  0  0  0  0  0  0  0  0  0  0  0
    6.5920   -4.1120   21.7010 N   0  0  0  0  0  0  0  0  0  0  0  0
    7.0870   -4.5230   22.9800 C   0  0  0  0  0  0  0  0  0  0  0  0
    8.3090   -5.1260   23.0560 C   0  0  0  0  0  0  0  0  0  0  0  0
    6.3940   -4.3560   24.1770 C   0  0  0  0  0  0  0  0  0  0  0  0
    8.8690   -5.5700   24.2750 C   0  0  0  0  0  0  0  0  0  0  0  0
    6.9450   -4.8050   25.3890 C   0  0  0  0  0  0  0  0  0  0  0  0
    8.1840   -5.4140   25.4370 C   0  0  0  0  0  0  0  0  0  0  0  0
    6.2730   -4.6940   26.6890 C   0  0  0  0  0  0  0  0  0  0  0  0
    5.6050   -4.9870   27.5920 N   0  0  0  0  0  0  0  0  0  0  0  0
    4.6410   -6.1100   27.3940 C   0  0  0  0  0  0  0  0  0  0  0  0
    4.9690   -3.8750   28.3350 C   0  0  0  0  0  0  0  0  0  0  0  0
    4.2370   -6.5950   28.8000 C   0  0  0  0  0  0  0  0  0  0  0  0
    4.2720   -4.2860   29.4660 C   0  0  0  0  0  0  0  0  0  0  0  0
    4.6720   -5.6900   29.7240 N   0  0  0  0  0  0  0  0  0  0  0  0
    4.5100   -6.1900   31.1010 C   0  0  0  0  0  0  0  0  0  0  0  0
    3.3950   -5.5420   31.9540 C   0  0  0  0  0  0  0  0  0  0  0  0
    5.3060   -7.1860   31.6230 N   0  0  0  0  0  0  0  0  0  0  0  0
    3.2420   -6.0110   33.2580 C   0  0  0  0  0  0  0  0  0  0  0  0
    5.0710   -7.5680   32.9020 C   0  0  0  0  0  0  0  0  0  0  0  0
    4.0880   -7.0300   33.7280 C   0  0  0  0  0  0  0  0  0  0  0  0
  1  2  2  3
  1  3  1  0
  3  4  1  0
  4  5  2  0
  4  6  1  0
  5  7  1  0
  6  8  2  0
  7  9  2  0
  8  9  1  0
  8 10  1  0
 10 11  1  0
 11 12  1  0
 11 13  1  0
 12 14  1  0
 13 15  1  0
 14 16  1  0
 15 16  1  0
 16 17  1  0
 17 18  2  0
 17 19  1  0
 18 20  1  0
 19 21  2  0
 20 22  2  0
 21 22  1  0
M  END
