SAD-SAT-1f400d17-9-nitrile
     RDKit          3D

 26 29  0  0  0  0  0  0  0  0999 V2000
    7.4020   -3.5700   19.7770 C   0  0  0  0  0  0  0  0  0  0  0  0
    6.2490   -3.4780   19.1990 N   0  0  0  0  0  0  0  0  0  0  0  0
    7.5100   -3.6850   21.1490 N   0  0  0  0  0  0  0  0  0  0  0  0
    6.3110   -4.0260   21.9190 C   0  0  0  0  0  0  0  0  0  0  0  0
    8.6020   -3.0630   21.9170 C   0  0  0  0  0  0  0  0  0  0  0  0
    6.2970   -3.1860   23.1920 C   0  0  0  0  0  0  0  0  0  0  0  0
    8.7140   -3.7430   23.2830 C   0  0  0  0  0  0  0  0  0  0  0  0
    7.4410   -3.5470   24.1290 C   0  0  0  0  0  0  0  0  0  0  0  0
    7.1460   -4.8000   24.9810 C   0  0  0  0  0  0  0  0  0  0  0  0
    8.0400   -5.6150   25.1970 O   0  0  0  0  0  0  0  0  0  0  0  0
    5.8520   -4.9660   25.4980 N   0  0  0  0  0  0  0  0  0  0  0  0
    5.4430   -4.3920   26.7780 C   0  0  0  0  0  0  0  0  0  0  0  0
    4.7430   -5.2410   24.5670 C   0  0  0  0  0  0  0  0  0  0  0  0
    3.9650   -4.4710   27.0870 C   0  0  0  0  0  0  0  0  0  0  0  0
    3.5390   -4.2810   24.7610 C   0  0  1  0  0  0  0  0  0  0  0  0
    3.5050   -4.6010   28.4050 C   0  0  0  0  0  0  0  0  0  0  0  0
    3.0460   -4.4110   26.0390 C   0  0  0  0  0  0  0  0  0  0  0  0
    3.9160   -2.8220   24.4620 C   0  0  0  0  0  0  0  0  0  0  0  0
    2.1330   -4.6690   28.6630 C   0  0  0  0  0  0  0  0  0  0  0  0
    1.6790   -4.4790   26.2970 C   0  0  0  0  0  0  0  0  0  0  0  0
    3.8980   -1.8510   25.6540 C   0  0  0  0  0  0  0  0  0  0  0  0
    4.2650   -2.3760   23.1920 C   0  0  0  0  0  0  0  0  0  0  0  0
    1.2200   -4.6080   27.6070 C   0  0  0  0  0  0  0  0  0  0  0  0
    4.2850   -0.3780   25.3850 C   0  0  0  0  0  0  0  0  0  0  0  0
    4.6480   -0.9160   22.9400 C   0  0  0  0  0  0  0  0  0  0  0  0
    4.6690    0.0530   23.9560 C   0  0  0  0  0  0  0  0  0  0  0  0
  1  2  2  3
  1  3  1  0
  3  4  1  0
  3  5  1  0
  4  6  1  0
  5  7  1  0
  6  8  1  0
  7  8  1  0
  8  9  1  0
  9 10  2  0
  9 11  1  0
 11 12  1  0
 11 13  1  0
 12 14  1  0
 13 15  1  0
 14 16  2  0
 14 17  1  0
 15 17  1  0
 15 18  1  1
 16 19  1  0
 17 20  2  0
 18 21  2  0
 18 22  1  0
 19 23  2  0
 20 23  1  0
 21 24  1  0
 22 25  2  0
 24 26  2  0
 25 26  1  0
M  END
