SAD-SAT-9a6c5cf3-2-vinylsulfonamide
     RDKit          3D

 30 32  0  0  0  0  0  0  0  0999 V2000
    8.0260   -3.4080   19.7520 C   0  0  0  0  0  0  0  0  0  0  0  0
    7.0680   -2.7280   19.1280 C   0  0  0  0  0  0  0  0  0  0  0  0
    5.7150   -3.1340   20.1500 S   0  0  0  0  0  0  0  0  0  0  0  0
    5.0190   -4.2650   19.5890 O   0  0  0  0  0  0  0  0  0  0  0  0
    5.0780   -1.9120   20.5760 O   0  0  0  0  0  0  0  0  0  0  0  0
    6.6300   -3.7140   21.4620 N   0  0  0  0  0  0  0  0  0  0  0  0
    7.6160   -2.7900   22.0610 C   0  0  0  0  0  0  0  0  0  0  0  0
    6.2280   -4.9640   22.1080 C   0  0  0  0  0  0  0  0  0  0  0  0
    7.5060   -2.7790   23.5710 C   0  0  0  0  0  0  0  0  0  0  0  0
    5.8870   -4.7390   23.5890 C   0  0  0  0  0  0  0  0  0  0  0  0
    6.1370   -3.2750   24.0290 C   0  0  0  0  0  0  0  0  0  0  0  0
    6.0100   -3.1580   25.5420 C   0  0  0  0  0  0  0  0  0  0  0  0
    5.4140   -4.0360   26.1470 O   0  0  0  0  0  0  0  0  0  0  0  0
    6.5480   -1.9700   26.2460 N   0  0  0  0  0  0  0  0  0  0  0  0
    5.7590   -1.2630   27.1050 C   0  0  0  0  0  0  0  0  0  0  0  0
    7.9360   -1.6000   26.5620 C   0  0  0  0  0  0  0  0  0  0  0  0
    5.5080    0.0600   26.7530 C   0  0  0  0  0  0  0  0  0  0  0  0
    8.0300   -1.0630   27.8980 C   0  0  0  0  0  0  0  0  0  0  0  0
    6.5570    0.8550   27.2180 C   0  0  0  0  0  0  0  0  0  0  0  0
    7.1850    0.1680   28.2260 N   0  0  0  0  0  0  0  0  0  0  0  0
    7.5450    0.9680   29.7030 S   0  0  0  0  0  0  0  0  0  0  0  0
    8.4500    0.1210   30.4380 O   0  0  0  0  0  0  0  0  0  0  0  0
    6.2700    1.3770   30.2460 O   0  0  0  0  0  0  0  0  0  0  0  0
    8.4040    2.4020   29.3040 C   0  0  0  0  0  0  0  0  0  0  0  0
    9.5100    2.8200   30.0580 C   0  0  0  0  0  0  0  0  0  0  0  0
    8.0550    3.2330   28.2220 C   0  0  0  0  0  0  0  0  0  0  0  0
   10.2540    3.9720   29.8060 C   0  0  0  0  0  0  0  0  0  0  0  0
    8.8910    4.5060   27.9590 C   0  0  0  0  0  0  0  0  0  0  0  0
    9.9920    4.8670   28.7620 C   0  0  0  0  0  0  0  0  0  0  0  0
   10.8940    6.1030   28.5830 C   0  0  0  0  0  0  0  0  0  0  0  0
  1  2  1  0
  3  2  1  0
  3  4  2  0
  3  5  2  0
  3  6  1  0
  6  7  1  0
  6  8  1  0
  7  9  1  0
  8 10  1  0
  9 11  1  0
 10 11  1  0
 11 12  1  0
 12 13  2  0
 12 14  1  0
 14 15  1  0
 14 16  1  0
 15 17  1  0
 16 18  1  0
 17 19  1  0
 18 20  1  0
 19 20  1  0
 20 21  1  0
 21 22  2  0
 21 23  2  0
 21 24  1  0
 24 25  2  0
 24 26  1  0
 25 27  1  0
 26 28  2  0
 27 29  2  0
 28 29  1  0
 29 30  1  0
M  END
