SAD-SAT-d8079f6f-7-acrylamide
     RDKit          3D

 13 13  0  0  0  0  0  0  0  0999 V2000
    6.0150   -4.0330   20.2970 C   0  0  0  0  0  0  0  0  0  0  0  0
    5.9140   -3.5650   21.7930 C   0  0  0  0  0  0  0  0  0  0  0  0
    5.0840   -4.5420   22.6480 C   0  0  0  0  0  0  0  0  0  0  0  0
    5.0560   -5.0200   21.5450 O   0  0  0  0  0  0  0  0  0  0  0  0
    5.3270   -3.7060   23.7560 N   0  0  0  0  0  0  0  0  0  0  0  0
    6.5330   -4.0050   24.5330 C   0  0  0  0  0  0  0  0  0  0  0  0
    4.2130   -3.0810   24.5590 C   0  0  0  0  0  0  0  0  0  0  0  0
    7.3550   -2.8720   24.5300 C   0  0  0  0  0  0  0  0  0  0  0  0
    2.8250   -3.7110   24.6360 C   0  0  0  0  0  0  0  0  0  0  0  0
    4.4070   -1.8860   25.2650 C   0  0  0  0  0  0  0  0  0  0  0  0
    1.8010   -3.1280   25.3680 C   0  0  0  0  0  0  0  0  0  0  0  0
    3.3570   -1.3200   25.9980 C   0  0  0  0  0  0  0  0  0  0  0  0
    2.1130   -1.9470   26.0220 C   0  0  0  0  0  0  0  0  0  0  0  0
  1  2  1  0
  2  3  1  0
  3  4  2  0
  3  5  1  0
  5  6  1  0
  5  7  1  0
  6  8  1  0
  7  9  2  0
  7 10  1  0
  9 11  1  0
 10 12  2  0
 11 13  2  0
 12 13  1  0
M  END
