SAD-SAT-29425be4-23-chloroacetamide
     RDKit          3D

 27 28  0  0  0  0  0  0  0  0999 V2000
    7.1370   -2.9700   18.8400 C   0  0  0  0  0  0  0  0  0  0  0  0
    6.2260   -3.3500   19.9670 C   0  0  0  0  0  0  0  0  0  0  0  0
    5.3690   -4.2240   19.7920 O   0  0  0  0  0  0  0  0  0  0  0  0
    6.4060   -2.7100   21.1720 N   0  0  0  0  0  0  0  0  0  0  0  0
    6.8510   -1.3300   21.3940 C   0  0  0  0  0  0  0  0  0  0  0  0
    6.0520   -3.4300   22.3800 C   0  0  0  0  0  0  0  0  0  0  0  0
    8.3330   -1.4140   21.9200 C   0  0  0  0  0  0  0  0  0  0  0  0
    7.0880   -3.0780   23.4390 C   0  0  0  0  0  0  0  0  0  0  0  0
    8.3970   -2.7410   22.7510 C   0  0  0  0  0  0  0  0  0  0  0  0
    9.4620   -2.3480   23.7880 C   0  0  0  0  0  0  0  0  0  0  0  0
    9.6410   -2.9830   24.8080 O   0  0  0  0  0  0  0  0  0  0  0  0
   10.2040   -1.2360   23.4470 N   0  0  0  0  0  0  0  0  0  0  0  0
   10.5680   -0.2000   24.3980 C   0  0  1  0  0  0  0  0  0  0  0  0
    9.8110   -0.4370   25.7160 C   0  0  0  0  0  0  0  0  0  0  0  0
   12.0710   -0.2820   24.4320 C   0  0  0  0  0  0  0  0  0  0  0  0
   10.2320    1.1920   23.7910 C   0  0  0  0  0  0  0  0  0  0  0  0
   12.7480   -0.3470   25.4440 O   0  0  0  0  0  0  0  0  0  0  0  0
   12.5520   -0.3160   23.1580 O   0  0  0  0  0  0  0  0  0  0  0  0
   11.2620    2.1450   23.1630 C   0  0  0  0  0  0  0  0  0  0  0  0
    8.7510    1.6550   23.8290 C   0  0  0  0  0  0  0  0  0  0  0  0
   12.6360   -1.6310   22.5500 C   0  0  0  0  0  0  0  0  0  0  0  0
   10.8150    3.5040   22.6020 C   0  0  0  0  0  0  0  0  0  0  0  0
    8.3010    2.9920   23.2790 C   0  0  0  0  0  0  0  0  0  0  0  0
   13.1860   -2.5230   23.4800 C   0  0  0  0  0  0  0  0  0  0  0  0
   13.2700   -1.7200   21.1840 C   0  0  0  0  0  0  0  0  0  0  0  0
   11.2140   -2.0700   22.2160 C   0  0  0  0  0  0  0  0  0  0  0  0
    9.3250    3.9270   22.6640 C   0  0  0  0  0  0  0  0  0  0  0  0
  1  2  1  0
  2  3  2  0
  2  4  1  0
  4  5  1  0
  4  6  1  0
  5  7  1  0
  6  8  1  0
  7  9  1  0
  8  9  1  0
  9 10  1  0
 10 11  2  0
 10 12  1  0
 12 13  1  0
 13 14  1  1
 13 15  1  0
 13 16  1  0
 15 17  2  0
 15 18  1  0
 16 19  2  0
 16 20  1  0
 21 18  1  0
 19 22  1  0
 20 23  2  0
 21 24  1  0
 21 25  1  0
 21 26  1  0
 22 27  2  0
 23 27  1  0
M  END
