SAD-SAT-89668ff1-2-nitrile
     RDKit          3D

 22 23  0  0  0  0  0  0  0  0999 V2000
    6.8480   -4.7070   20.6170 C   0  0  0  0  0  0  0  0  0  0  0  0
    5.7460   -5.1300   20.1020 N   0  0  0  0  0  0  0  0  0  0  0  0
    6.9920   -4.2720   21.9590 N   0  0  0  0  0  0  0  0  0  0  0  0
    7.0620   -5.1870   23.1570 C   0  0  0  0  0  0  0  0  0  0  0  0
    6.9820   -4.5260   24.5880 C   0  0  0  0  0  0  0  0  0  0  0  0
    6.4020   -3.1120   24.4590 C   0  0  0  0  0  0  0  0  0  0  0  0
    8.3650   -4.3420   25.2630 C   0  0  0  0  0  0  0  0  0  0  0  0
    7.4760   -2.0460   24.7820 C   0  0  0  0  0  0  0  0  0  0  0  0
    9.1820   -3.7240   24.3010 C   0  0  0  0  0  0  0  0  0  0  0  0
    8.7840   -2.3210   24.1600 N   0  0  0  0  0  0  0  0  0  0  0  0
    9.1930   -1.6030   22.9970 C   0  0  0  0  0  0  0  0  0  0  0  0
    8.4710   -1.4540   22.0180 O   0  0  0  0  0  0  0  0  0  0  0  0
   10.6100   -0.9250   22.8890 C   0  0  0  0  0  0  0  0  0  0  0  0
   11.6750   -1.8230   22.8020 C   0  0  0  0  0  0  0  0  0  0  0  0
   10.8430    0.5480   22.8720 C   0  0  0  0  0  0  0  0  0  0  0  0
   12.8580   -1.2010   22.7360 C   0  0  0  0  0  0  0  0  0  0  0  0
   12.1350    1.2820   22.7780 C   0  0  0  0  0  0  0  0  0  0  0  0
   12.4240    0.0210   22.7620 C   0  0  0  0  0  0  0  0  0  0  0  0
   11.2100    2.8320   22.8230 S   0  0  0  0  0  0  0  0  0  0  0  0
    9.6390    2.4110   22.3810 N   0  0  0  0  0  0  0  0  0  0  0  0
   11.0660    3.4220   24.1210 O   0  0  0  0  0  0  0  0  0  0  0  0
   11.7310    3.6550   21.7630 O   0  0  0  0  0  0  0  0  0  0  0  0
  1  2  2  3
  1  3  1  0
  3  4  1  0
  4  5  1  0
  5  6  1  0
  5  7  1  0
  6  8  1  0
  7  9  1  0
  8 10  1  0
  9 10  1  0
 10 11  1  0
 11 12  2  0
 11 13  1  0
 13 14  2  0
 13 15  1  0
 14 16  1  0
 15 17  2  0
 16 18  2  0
 17 18  1  0
 17 19  1  0
 19 20  1  0
 19 21  2  0
 19 22  2  0
M  END
