SAD-SAT-f2e2579e-2-acrylamide
     RDKit          3D

 32 35  0  0  0  0  0  0  0  0999 V2000
    7.7610   -3.1400   19.3230 C   0  0  0  0  0  0  0  0  0  0  0  0
    6.6030   -2.4610   19.5110 C   0  0  0  0  0  0  0  0  0  0  0  0
    5.5080   -3.2790   20.1370 C   0  0  0  0  0  0  0  0  0  0  0  0
    4.7720   -3.8610   19.3700 O   0  0  0  0  0  0  0  0  0  0  0  0
    5.4160   -3.4080   21.5290 N   0  0  0  0  0  0  0  0  0  0  0  0
    6.1370   -2.4130   22.3360 C   0  0  0  0  0  0  0  0  0  0  0  0
    5.5050   -4.7670   22.0890 C   0  0  0  0  0  0  0  0  0  0  0  0
    6.9500   -3.0480   23.4860 C   0  0  0  0  0  0  0  0  0  0  0  0
    5.1020   -4.7570   23.5430 C   0  0  0  0  0  0  0  0  0  0  0  0
    6.0840   -3.9240   24.3880 C   0  0  0  0  0  0  0  0  0  0  0  0
    5.3270   -3.2000   25.4760 C   0  0  0  0  0  0  0  0  0  0  0  0
    4.3600   -3.7620   25.9860 O   0  0  0  0  0  0  0  0  0  0  0  0
    5.7040   -1.9240   25.9000 N   0  0  0  0  0  0  0  0  0  0  0  0
    6.2160   -1.8170   27.2560 C   0  0  0  0  0  0  0  0  0  0  0  0
    4.9110   -0.7950   25.4950 C   0  0  0  0  0  0  0  0  0  0  0  0
    5.2010   -1.3890   28.1000 C   0  0  0  0  0  0  0  0  0  0  0  0
    5.4080    0.5960   25.9640 C   0  0  0  0  0  0  0  0  0  0  0  0
    5.2890   -0.0580   28.4620 C   0  0  0  0  0  0  0  0  0  0  0  0
    5.8980    0.7120   27.3850 N   0  0  0  0  0  0  0  0  0  0  0  0
    7.5330    1.2160   27.5430 S   0  0  0  0  0  0  0  0  0  0  0  0
    8.0350    0.5770   28.7420 O   0  0  0  0  0  0  0  0  0  0  0  0
    7.5570    2.6540   27.3890 O   0  0  0  0  0  0  0  0  0  0  0  0
    8.3220    0.4910   26.2050 C   0  0  0  0  0  0  0  0  0  0  0  0
    9.6210   -0.0010   26.3460 C   0  0  0  0  0  0  0  0  0  0  0  0
    7.7030    0.3410   24.8380 C   0  0  0  0  0  0  0  0  0  0  0  0
   10.4370   -0.6160   25.3960 C   0  0  0  0  0  0  0  0  0  0  0  0
    8.5960   -0.3430   23.7920 C   0  0  0  0  0  0  0  0  0  0  0  0
    9.8890   -0.8100   24.0110 C   0  0  0  0  0  0  0  0  0  0  0  0
    8.0500   -0.5150   22.4790 O   0  0  0  0  0  0  0  0  0  0  0  0
    9.0570   -0.8670   21.5260 C   0  0  0  0  0  0  0  0  0  0  0  0
   10.7430   -1.4500   23.0730 O   0  0  0  0  0  0  0  0  0  0  0  0
    9.9390   -1.9990   22.0470 C   0  0  0  0  0  0  0  0  0  0  0  0
  1  2  1  0
  2  3  1  0
  3  4  2  0
  3  5  1  0
  5  6  1  0
  5  7  1  0
  6  8  1  0
  7  9  1  0
  8 10  1  0
  9 10  1  0
 10 11  1  0
 11 12  2  0
 11 13  1  0
 13 14  1  0
 13 15  1  0
 14 16  1  0
 15 17  1  0
 16 18  1  0
 17 19  1  0
 18 19  1  0
 19 20  1  0
 20 21  2  0
 20 22  2  0
 20 23  1  0
 23 24  2  0
 23 25  1  0
 24 26  1  0
 25 27  2  0
 26 28  2  0
 27 28  1  0
 27 29  1  0
 29 30  1  0
 28 31  1  0
 30 32  1  0
 31 32  1  0
M  END
