SAD-SAT-1f400d17-5-nitrile
     RDKit          3D

 23 24  0  0  0  0  0  0  0  0999 V2000
    6.9460   -2.8440   18.7640 C   0  0  0  0  0  0  0  0  0  0  0  0
    6.1720   -3.1680   17.8640 N   0  0  0  0  0  0  0  0  0  0  0  0
    6.4910   -1.8110   19.5140 N   0  0  0  0  0  0  0  0  0  0  0  0
    6.1070   -0.6250   18.7160 C   0  0  0  0  0  0  0  0  0  0  0  0
    5.2900   -2.2080   20.1810 C   0  0  0  0  0  0  0  0  0  0  0  0
    6.9540    0.6090   18.9760 C   0  0  0  0  0  0  0  0  0  0  0  0
    5.5510   -3.0940   21.3800 C   0  0  0  0  0  0  0  0  0  0  0  0
    5.0470   -4.2140   21.4660 O   0  0  0  0  0  0  0  0  0  0  0  0
    6.3420   -2.5040   22.3390 N   0  0  0  0  0  0  0  0  0  0  0  0
    6.7430   -1.1170   22.1960 C   0  0  0  0  0  0  0  0  0  0  0  0
    7.1240   -3.3030   23.2840 C   0  0  0  0  0  0  0  0  0  0  0  0
    8.2100   -0.9180   21.9840 C   0  0  0  0  0  0  0  0  0  0  0  0
    8.5060   -3.0510   23.1680 C   0  0  0  0  0  0  0  0  0  0  0  0
    8.8940   -1.6560   23.0510 N   0  0  0  0  0  0  0  0  0  0  0  0
   10.2680   -1.4230   23.0440 C   0  0  0  0  0  0  0  0  0  0  0  0
   11.1330   -2.3010   22.3900 C   0  0  0  0  0  0  0  0  0  0  0  0
   11.0180   -0.3220   23.6370 C   0  0  0  0  0  0  0  0  0  0  0  0
   11.5630   -1.2100   23.0160 C   0  0  0  0  0  0  0  0  0  0  0  0
   12.4470   -0.3460   23.4430 C   0  0  0  0  0  0  0  0  0  0  0  0
   10.3810    0.7490   24.3720 N   0  0  0  0  0  0  0  0  0  0  0  0
   12.8680   -1.4110   22.7310 C   0  0  0  0  0  0  0  0  0  0  0  0
    9.2600    0.5160   24.8620 O   0  0  0  0  0  0  0  0  0  0  0  0
   10.8190    1.8810   24.1540 O   0  0  0  0  0  0  0  0  0  0  0  0
  1  2  2  3
  1  3  1  0
  3  4  1  0
  3  5  1  0
  4  6  1  0
  5  7  1  0
  7  8  2  0
  7  9  1  0
  9 10  1  0
  9 11  1  0
 10 12  1  0
 11 13  1  0
 12 14  1  0
 13 14  1  0
 14 15  1  0
 15 16  2  0
 15 17  1  0
 16 18  1  0
 17 19  2  0
 17 20  1  0
 18 21  2  0
 19 21  1  0
 20 22  2  0
 20 23  1  0
M  CHG  2  20   1  23  -1
M  END
