SAD-SAT-29425be4-15-bromoalkyne
     RDKit          3D

 23 24  0  0  0  0  0  0  0  0999 V2000
    7.1630   -5.3960   20.3100 C   0  0  0  0  0  0  0  0  0  0  0  0
    5.8170   -6.0010   20.0070 C   0  0  0  0  0  0  0  0  0  0  0  0
    7.6380   -5.3110   21.5980 N   0  0  0  0  0  0  0  0  0  0  0  0
    8.0950   -4.0920   22.2800 C   0  0  0  0  0  0  0  0  0  0  0  0
    7.1150   -6.2480   22.5690 C   0  0  0  0  0  0  0  0  0  0  0  0
    6.8380   -3.1960   22.1990 C   0  0  0  0  0  0  0  0  0  0  0  0
    6.0020   -5.4880   23.2140 C   0  0  0  0  0  0  0  0  0  0  0  0
    5.7200   -4.2600   22.3220 C   0  0  0  0  0  0  0  0  0  0  0  0
    4.7550   -3.3490   23.0170 C   0  0  0  0  0  0  0  0  0  0  0  0
    3.5850   -3.4180   22.7090 O   0  0  0  0  0  0  0  0  0  0  0  0
    5.3320   -2.4990   23.9530 N   0  0  0  0  0  0  0  0  0  0  0  0
    6.7050   -2.7310   24.4680 C   0  0  0  0  0  0  0  0  0  0  0  0
    7.7830   -2.1480   23.5040 C   0  0  0  0  0  0  0  0  0  0  0  0
    9.2250   -2.3240   23.9570 C   0  0  0  0  0  0  0  0  0  0  0  0
   10.1870   -1.2270   23.6180 C   0  0  0  0  0  0  0  0  0  0  0  0
   11.3520   -1.3860   22.8420 C   0  0  0  0  0  0  0  0  0  0  0  0
    9.8780    0.0250   24.1130 C   0  0  0  0  0  0  0  0  0  0  0  0
   12.1910   -0.2910   22.5590 C   0  0  0  0  0  0  0  0  0  0  0  0
   10.7620    1.1820   23.8110 C   0  0  0  0  0  0  0  0  0  0  0  0
   11.8810    0.9990   23.0430 C   0  0  0  0  0  0  0  0  0  0  0  0
   12.7270    2.1910   22.7560 C   0  0  0  0  0  0  0  0  0  0  0  0
   12.3260    3.4660   22.0000 C   0  0  0  0  0  0  0  0  0  0  0  0
   13.9280    1.5550   22.0920 C   0  0  0  0  0  0  0  0  0  0  0  0
  1  2  2  3
  1  3  1  0
  3  4  1  0
  3  5  1  0
  4  6  1  0
  5  7  1  0
  6  8  1  0
  7  8  1  0
  8  9  1  0
  9 10  2  0
  9 11  1  0
 11 12  1  0
 12 13  1  0
 13 14  1  0
 14 15  1  0
 15 16  2  0
 15 17  1  0
 16 18  1  0
 17 19  2  0
 18 20  2  0
 19 20  1  0
 20 21  1  0
 21 22  1  0
 21 23  1  0
M  END
