SAD-SAT-29425be4-22-nitrile
     RDKit          3D

 29 30  0  0  0  0  0  0  0  0999 V2000
    6.7120   -5.7150   20.3020 C   0  0  0  0  0  0  0  0  0  0  0  0
    5.7390   -6.2020   19.6540 N   0  0  0  0  0  0  0  0  0  0  0  0
    6.4670   -5.3340   21.5440 N   0  0  0  0  0  0  0  0  0  0  0  0
    6.9510   -6.0410   22.7470 C   0  0  0  0  0  0  0  0  0  0  0  0
    5.2390   -4.5720   21.6850 C   0  0  0  0  0  0  0  0  0  0  0  0
    7.4560   -4.8870   23.6900 C   0  0  0  0  0  0  0  0  0  0  0  0
    5.3910   -3.6930   22.8780 C   0  0  0  0  0  0  0  0  0  0  0  0
    6.8920   -3.6180   22.9830 C   0  0  0  0  0  0  0  0  0  0  0  0
    7.3190   -2.5050   23.9280 C   0  0  0  0  0  0  0  0  0  0  0  0
    6.7250   -2.2630   24.9770 O   0  0  0  0  0  0  0  0  0  0  0  0
    8.4150   -1.8230   23.4970 N   0  0  0  0  0  0  0  0  0  0  0  0
    9.6470   -2.2250   24.1390 C   0  0  0  0  0  0  0  0  0  0  0  0
    8.6460   -1.4230   22.0780 C   0  0  0  0  0  0  0  0  0  0  0  0
   10.7050   -1.1850   23.7930 C   0  0  0  0  0  0  0  0  0  0  0  0
    9.1190    0.0380   22.0590 C   0  0  0  0  0  0  0  0  0  0  0  0
    9.7400   -2.3760   21.6030 C   0  0  0  0  0  0  0  0  0  0  0  0
    7.3420   -1.3290   21.2000 C   0  0  0  0  0  0  0  0  0  0  0  0
   11.8510   -1.8920   23.0460 C   0  0  0  0  0  0  0  0  0  0  0  0
   10.6840    0.2020   24.0770 C   0  0  0  0  0  0  0  0  0  0  0  0
    6.0620   -1.8180   21.6050 O   0  0  0  0  0  0  0  0  0  0  0  0
    7.5520   -0.7050   19.9950 O   0  0  0  0  0  0  0  0  0  0  0  0
   12.9470   -0.9440   22.6490 C   0  0  0  0  0  0  0  0  0  0  0  0
   11.7340    1.0520   23.6770 C   0  0  0  0  0  0  0  0  0  0  0  0
    9.7040    0.6220   24.6780 O   0  0  0  0  0  0  0  0  0  0  0  0
    6.5000   -0.8960   19.0360 C   0  0  0  0  0  0  0  0  0  0  0  0
   12.8210    0.5140   23.0000 C   0  0  0  0  0  0  0  0  0  0  0  0
   11.6240    2.2310   23.9460 O   0  0  0  0  0  0  0  0  0  0  0  0
    9.4890   -0.1590   25.8550 C   0  0  0  0  0  0  0  0  0  0  0  0
   11.9030    3.1900   22.9240 C   0  0  0  0  0  0  0  0  0  0  0  0
  1  2  2  3
  1  3  1  0
  3  4  1  0
  3  5  1  0
  4  6  1  0
  5  7  1  0
  6  8  1  0
  7  8  1  0
  8  9  1  0
  9 10  2  0
  9 11  1  0
 11 12  1  0
 11 13  1  0
 12 14  1  0
 13 15  1  0
 13 16  1  0
 13 17  1  0
 14 18  2  0
 14 19  1  0
 17 20  2  0
 17 21  1  0
 18 22  1  0
 19 23  2  0
 19 24  1  0
 21 25  1  0
 22 26  2  0
 23 26  1  0
 23 27  1  0
 24 28  1  0
 27 29  1  0
M  END
