SAD-SAT-29425be4-1-acrylamide
     RDKit          3D

 31 33  0  0  0  0  0  0  0  0999 V2000
    7.2710   -3.0760   19.0900 C   0  0  0  0  0  0  0  0  0  0  0  0
    6.0290   -3.6420   19.8000 C   0  0  0  0  0  0  0  0  0  0  0  0
    5.8330   -3.1370   21.2070 C   0  0  0  0  0  0  0  0  0  0  0  0
    4.8270   -3.5240   21.8180 O   0  0  0  0  0  0  0  0  0  0  0  0
    6.7750   -2.2600   21.7660 N   0  0  0  0  0  0  0  0  0  0  0  0
    7.8890   -2.6960   22.6310 C   0  0  0  0  0  0  0  0  0  0  0  0
    6.7070   -0.8110   21.5910 C   0  0  0  0  0  0  0  0  0  0  0  0
    8.6150   -1.5230   23.3210 C   0  0  0  0  0  0  0  0  0  0  0  0
    8.0700   -0.2370   21.2220 C   0  0  0  0  0  0  0  0  0  0  0  0
    9.1240   -0.4520   22.3210 C   0  0  0  0  0  0  0  0  0  0  0  0
    9.4360    0.9130   23.0120 C   0  0  0  0  0  0  0  0  0  0  0  0
    8.4980    1.5340   23.5170 O   0  0  0  0  0  0  0  0  0  0  0  0
   10.7720    1.4140   23.0520 N   0  0  0  0  0  0  0  0  0  0  0  0
   11.8840    0.5850   23.5730 C   0  0  0  0  0  0  0  0  0  0  0  0
   11.0280    2.8970   22.8820 C   0  0  0  0  0  0  0  0  0  0  0  0
   11.5270   -0.4280   24.6420 C   0  0  0  0  0  0  0  0  0  0  0  0
   12.3980    3.1050   22.5820 C   0  0  0  0  0  0  0  0  0  0  0  0
   13.1500    2.1090   22.0600 C   0  0  0  0  0  0  0  0  0  0  0  0
   13.4210    4.5520   22.7870 S   0  0  0  0  0  0  0  0  0  0  0  0
   14.5140    2.4640   21.8270 C   0  0  0  0  0  0  0  0  0  0  0  0
   14.9290    3.8330   22.2050 C   0  0  0  0  0  0  0  0  0  0  0  0
   16.2220    4.3160   22.1470 C   0  0  0  0  0  0  0  0  0  0  0  0
   16.8880    4.6600   23.4830 C   0  0  0  0  0  0  0  0  0  0  0  0
   17.0220    4.5020   21.0550 C   0  0  0  0  0  0  0  0  0  0  0  0
   18.3420    5.1600   23.5160 C   0  0  0  0  0  0  0  0  0  0  0  0
   18.3710    4.9950   21.1690 C   0  0  0  0  0  0  0  0  0  0  0  0
   19.0820    5.3290   22.2810 C   0  0  0  0  0  0  0  0  0  0  0  0
   20.5310    5.8560   22.3200 C   0  0  0  0  0  0  0  0  0  0  0  0
   21.2330    5.9620   21.1290 C   0  0  0  0  0  0  0  0  0  0  0  0
   21.4320    5.0750   23.2960 C   0  0  0  0  0  0  0  0  0  0  0  0
   20.4790    7.2540   22.9620 C   0  0  0  0  0  0  0  0  0  0  0  0
  1  2  1  0
  2  3  1  0
  3  4  2  0
  3  5  1  0
  5  6  1  0
  5  7  1  0
  6  8  1  0
  7  9  1  0
  8 10  1  0
  9 10  1  0
 10 11  1  0
 11 12  2  0
 11 13  1  0
 13 14  1  0
 13 15  1  0
 14 16  1  0
 15 17  1  0
 17 18  2  0
 17 19  1  0
 18 20  1  0
 19 21  1  0
 20 21  2  0
 21 22  1  0
 22 23  2  0
 22 24  1  0
 23 25  1  0
 24 26  2  0
 25 27  2  0
 26 27  1  0
 27 28  1  0
 28 29  1  0
 28 30  1  0
 28 31  1  0
M  END
