SAD-SAT-f0a2747f-3-acrylamide
     RDKit          3D

 19 20  0  0  0  0  0  0  0  0999 V2000
    8.5840   -3.8630   20.3260 C   0  0  0  0  0  0  0  0  0  0  0  0
    7.1820   -3.2600   20.2750 C   0  0  0  0  0  0  0  0  0  0  0  0
    6.2170   -4.2480   20.8890 C   0  0  0  0  0  0  0  0  0  0  0  0
    5.2610   -4.6230   20.2000 O   0  0  0  0  0  0  0  0  0  0  0  0
    6.5440   -4.6610   22.2100 N   0  0  0  0  0  0  0  0  0  0  0  0
    7.9060   -4.4360   22.6350 C   0  0  0  0  0  0  0  0  0  0  0  0
    5.7880   -5.6860   22.9760 C   0  0  2  0  0  0  0  0  0  0  0  0
    8.2440   -4.7400   23.9160 C   0  0  0  0  0  0  0  0  0  0  0  0
    4.8230   -6.3980   22.0770 C   0  0  0  0  0  0  0  0  0  0  0  0
    5.0170   -5.2220   24.2180 C   0  0  0  0  0  0  0  0  0  0  0  0
    9.2220   -5.6570   24.2590 C   0  0  0  0  0  0  0  0  0  0  0  0
    7.5580   -4.0720   24.9210 C   0  0  0  0  0  0  0  0  0  0  0  0
    3.6610   -6.8380   22.7200 C   0  0  0  0  0  0  0  0  0  0  0  0
    3.7070   -6.4560   24.3840 S   0  0  0  0  0  0  0  0  0  0  0  0
    9.4390   -5.8310   25.7320 C   0  0  0  0  0  0  0  0  0  0  0  0
    7.7420   -4.2210   26.2770 C   0  0  0  0  0  0  0  0  0  0  0  0
    4.1600   -7.6360   25.1100 O   0  0  0  0  0  0  0  0  0  0  0  0
    2.4620   -5.7970   24.7270 O   0  0  0  0  0  0  0  0  0  0  0  0
    8.6890   -5.1060   26.7610 C   0  0  0  0  0  0  0  0  0  0  0  0
  1  2  1  0
  2  3  1  0
  3  4  2  0
  3  5  1  0
  5  6  1  0
  7  5  1  6
  6  8  1  0
  7  9  1  0
  7 10  1  0
  8 11  2  0
  8 12  1  0
  9 13  2  0
 10 14  1  0
 14 13  1  0
 11 15  1  0
 12 16  2  0
 14 17  2  0
 14 18  2  0
 15 19  2  0
 16 19  1  0
M  END
