SAD-SAT-f2e2579e-1-bromoalkyne
     RDKit          3D

 30 33  0  0  0  0  0  0  0  0999 V2000
    6.5780   -3.5990   19.7020 C   0  0  0  0  0  0  0  0  0  0  0  0
    5.7970   -3.3080   18.6810 C   0  0  0  0  0  0  0  0  0  0  0  0
    7.4100   -3.9090   20.7900 N   0  0  0  0  0  0  0  0  0  0  0  0
    7.1810   -5.1800   21.5120 C   0  0  0  0  0  0  0  0  0  0  0  0
    7.8530   -2.8660   21.7030 C   0  0  0  0  0  0  0  0  0  0  0  0
    6.1620   -5.0380   22.6470 C   0  0  0  0  0  0  0  0  0  0  0  0
    6.7110   -2.5630   22.6670 C   0  0  0  0  0  0  0  0  0  0  0  0
    6.3220   -3.7760   23.5290 C   0  0  0  0  0  0  0  0  0  0  0  0
    4.9780   -3.4880   24.2000 C   0  0  0  0  0  0  0  0  0  0  0  0
    3.9290   -3.9030   23.6990 O   0  0  0  0  0  0  0  0  0  0  0  0
    4.9610   -2.7150   25.4510 N   0  0  0  0  0  0  0  0  0  0  0  0
    6.1250   -2.2080   26.0560 C   0  0  0  0  0  0  0  0  0  0  0  0
    3.6650   -2.5770   26.0160 C   0  0  0  0  0  0  0  0  0  0  0  0
    6.2740   -0.8090   26.0470 C   0  0  0  0  0  0  0  0  0  0  0  0
    3.7090   -1.6740   27.2520 C   0  0  0  0  0  0  0  0  0  0  0  0
    5.5870   -0.1580   27.0780 C   0  0  0  0  0  0  0  0  0  0  0  0
    4.2370   -0.3130   26.8840 N   0  0  0  0  0  0  0  0  0  0  0  0
    3.2120    0.9810   27.3770 S   0  0  0  0  0  0  0  0  0  0  0  0
    1.8620    0.5050   27.1660 O   0  0  0  0  0  0  0  0  0  0  0  0
    3.7220    2.1570   26.7070 O   0  0  0  0  0  0  0  0  0  0  0  0
    3.4540    1.0700   29.0730 C   0  0  0  0  0  0  0  0  0  0  0  0
    2.9470   -0.0030   29.8350 C   0  0  0  0  0  0  0  0  0  0  0  0
    4.1300    2.1690   29.6900 C   0  0  0  0  0  0  0  0  0  0  0  0
    3.0710   -0.0680   31.2300 C   0  0  0  0  0  0  0  0  0  0  0  0
    4.2580    2.1100   31.1000 C   0  0  0  0  0  0  0  0  0  0  0  0
    4.6700    3.2930   29.0230 C   0  0  0  0  0  0  0  0  0  0  0  0
    3.7150    0.9480   31.9390 C   0  0  0  0  0  0  0  0  0  0  0  0
    4.9670    3.2400   31.8560 C   0  0  0  0  0  0  0  0  0  0  0  0
    5.3310    4.3590   29.6800 C   0  0  0  0  0  0  0  0  0  0  0  0
    5.5140    4.3800   31.1640 N   0  0  0  0  0  0  0  0  0  0  0  0
  1  2  2  3
  1  3  1  0
  3  4  1  0
  3  5  1  0
  4  6  1  0
  5  7  1  0
  6  8  1  0
  7  8  1  0
  8  9  1  0
  9 10  2  0
  9 11  1  0
 11 12  1  0
 11 13  1  0
 12 14  1  0
 13 15  1  0
 14 16  1  0
 15 17  1  0
 16 17  1  0
 17 18  1  0
 18 19  2  0
 18 20  2  0
 18 21  1  0
 21 22  2  0
 21 23  1  0
 22 24  1  0
 23 25  2  0
 23 26  1  0
 24 27  2  0
 25 27  1  0
 25 28  1  0
 26 29  2  0
 28 30  2  0
 29 30  1  0
M  END
