SAD-SAT-f0a2747f-8-bromoalkyne
     RDKit          3D

 28 30  0  0  0  0  0  0  0  0999 V2000
    7.8330   -3.4350   19.8860 C   0  0  0  0  0  0  0  0  0  0  0  0
    6.2900   -3.5260   19.5430 C   0  0  0  0  0  0  0  0  0  0  0  0
    8.5670   -2.3470   20.6260 N   0  0  0  0  0  0  0  0  0  0  0  0
    9.4150   -2.5810   21.8460 C   0  0  0  0  0  0  0  0  0  0  0  0
    8.8750   -3.6430   22.4460 C   0  0  0  0  0  0  0  0  0  0  0  0
    7.5770   -3.4100   22.2510 C   0  0  0  0  0  0  0  0  0  0  0  0
    9.4210   -4.7710   23.0870 C   0  0  0  0  0  0  0  0  0  0  0  0
    6.6900   -4.2590   22.5950 C   0  0  0  0  0  0  0  0  0  0  0  0
    8.5290   -5.7440   23.4780 C   0  0  0  0  0  0  0  0  0  0  0  0
    7.2010   -5.4530   23.1910 C   0  0  0  0  0  0  0  0  0  0  0  0
    5.9890   -6.0900   23.3060 C   0  0  0  0  0  0  0  0  0  0  0  0
    5.7780   -5.8890   22.0910 O   0  0  0  0  0  0  0  0  0  0  0  0
    5.0540   -6.5610   23.6550 N   0  0  0  0  0  0  0  0  0  0  0  0
    4.0800   -6.4350   22.5810 C   0  0  0  0  0  0  0  0  0  0  0  0
    4.4580   -6.0470   24.8520 C   0  0  0  0  0  0  0  0  0  0  0  0
    2.7700   -7.1740   22.9510 C   0  0  0  0  0  0  0  0  0  0  0  0
    3.2220   -6.8830   25.1680 C   0  0  0  0  0  0  0  0  0  0  0  0
    2.7800   -7.8410   24.1390 N   0  0  0  0  0  0  0  0  0  0  0  0
    1.4120   -8.3680   24.3920 C   0  0  0  0  0  0  0  0  0  0  0  0
    1.1890   -8.9090   25.8450 C   0  0  0  0  0  0  0  0  0  0  0  0
    1.1220   -7.9790   26.8920 C   0  0  0  0  0  0  0  0  0  0  0  0
    1.0440  -10.2920   26.1460 C   0  0  0  0  0  0  0  0  0  0  0  0
    0.9140   -8.4170   28.2060 C   0  0  0  0  0  0  0  0  0  0  0  0
    0.8380  -10.7030   27.4540 C   0  0  0  0  0  0  0  0  0  0  0  0
    1.1140  -11.1670   25.0930 O   0  0  0  0  0  0  0  0  0  0  0  0
    0.8490   -7.5240   29.2060 F   0  0  0  0  0  0  0  0  0  0  0  0
    0.7730   -9.7780   28.4830 C   0  0  0  0  0  0  0  0  0  0  0  0
   -0.0460  -11.3300   24.2780 C   0  0  0  0  0  0  0  0  0  0  0  0
  1  2  2  3
  1  3  1  0
  3  4  1  0
  4  5  1  0
  5  6  2  0
  5  7  1  0
  6  8  1  0
  7  9  2  0
  8 10  2  0
  9 10  1  0
 10 11  1  0
 11 12  2  0
 11 13  1  0
 13 14  1  0
 13 15  1  0
 14 16  1  0
 15 17  1  0
 16 18  1  0
 17 18  1  0
 18 19  1  0
 19 20  1  0
 20 21  2  0
 20 22  1  0
 21 23  1  0
 22 24  2  0
 22 25  1  0
 23 26  1  0
 23 27  2  0
 24 27  1  0
 25 28  1  0
M  END
