SAD-SAT-f0a2747f-2-nitrile
     RDKit          3D

 27 30  0  0  0  0  0  0  0  0999 V2000
    8.2870   -3.9510   19.8700 C   0  0  0  0  0  0  0  0  0  0  0  0
    6.9150   -4.0850   19.7970 N   0  0  0  0  0  0  0  0  0  0  0  0
    9.3440   -4.3310   20.8450 N   0  0  0  0  0  0  0  0  0  0  0  0
   10.0220   -3.6350   22.0490 C   0  0  0  0  0  0  0  0  0  0  0  0
    8.8060   -3.7510   22.7270 C   0  0  0  0  0  0  0  0  0  0  0  0
    8.3140   -2.9680   23.9380 C   0  0  0  0  0  0  0  0  0  0  0  0
    8.1960   -4.6880   21.9740 C   0  0  0  0  0  0  0  0  0  0  0  0
    6.8640   -3.3490   24.1320 C   0  0  0  0  0  0  0  0  0  0  0  0
    6.9770   -4.9930   22.1620 C   0  0  0  0  0  0  0  0  0  0  0  0
    6.3320   -4.3490   23.1360 C   0  0  0  0  0  0  0  0  0  0  0  0
    5.0980   -4.7290   23.0350 C   0  0  0  0  0  0  0  0  0  0  0  0
    4.5020   -4.1110   22.1450 O   0  0  0  0  0  0  0  0  0  0  0  0
    4.6690   -5.7230   23.7650 N   0  0  0  0  0  0  0  0  0  0  0  0
    4.4040   -6.8980   23.0460 C   0  0  0  0  0  0  0  0  0  0  0  0
    3.7310   -5.3950   24.8000 C   0  0  0  0  0  0  0  0  0  0  0  0
    3.0430   -7.0030   22.8540 C   0  0  0  0  0  0  0  0  0  0  0  0
    2.9760   -6.6470   25.2250 C   0  0  0  0  0  0  0  0  0  0  0  0
    2.2390   -7.3290   24.0740 C   0  0  0  0  0  0  0  0  0  0  0  0
    0.7800   -6.9860   24.0420 C   0  0  0  0  0  0  0  0  0  0  0  0
   -0.1270   -7.4710   24.8610 N   0  0  0  0  0  0  0  0  0  0  0  0
    0.1980   -5.8840   22.8610 S   0  0  0  0  0  0  0  0  0  0  0  0
   -1.3780   -6.9510   24.5480 C   0  0  0  0  0  0  0  0  0  0  0  0
   -1.3960   -6.0580   23.4750 C   0  0  0  0  0  0  0  0  0  0  0  0
   -2.5740   -7.2680   25.2300 C   0  0  0  0  0  0  0  0  0  0  0  0
   -2.5720   -5.4410   23.0280 C   0  0  0  0  0  0  0  0  0  0  0  0
   -3.8150   -6.7130   24.8710 C   0  0  0  0  0  0  0  0  0  0  0  0
   -3.7640   -5.7410   23.6870 C   0  0  0  0  0  0  0  0  0  0  0  0
  1  2  2  3
  1  3  1  0
  3  4  1  0
  4  5  1  0
  5  6  2  0
  5  7  1  0
  6  8  1  0
  7  9  2  0
  8 10  2  0
  9 10  1  0
 10 11  1  0
 11 12  2  0
 11 13  1  0
 13 14  1  0
 13 15  1  0
 14 16  1  0
 15 17  1  0
 16 18  1  0
 17 18  1  0
 18 19  1  0
 19 20  2  0
 19 21  1  0
 20 22  1  0
 21 23  1  0
 22 23  2  0
 22 24  1  0
 23 25  1  0
 24 26  2  0
 25 27  2  0
 26 27  1  0
M  END
