SAD-SAT-c989feaa-3-nitrile
     RDKit          3D

 20 21  0  0  0  0  0  0  0  0999 V2000
    6.9410   -3.4070   19.5580 C   0  0  0  0  0  0  0  0  0  0  0  0
    6.1850   -3.0930   18.5790 N   0  0  0  0  0  0  0  0  0  0  0  0
    6.8270   -2.7950   20.7740 N   0  0  0  0  0  0  0  0  0  0  0  0
    6.4300   -3.5080   21.9840 C   0  0  0  0  0  0  0  0  0  0  0  0
    7.2440   -1.4160   20.9910 C   0  0  0  0  0  0  0  0  0  0  0  0
    7.5980   -3.5550   22.9670 C   0  0  0  0  0  0  0  0  0  0  0  0
    8.3320   -1.3110   22.1060 C   0  0  2  0  0  0  0  0  0  0  0  0
    8.1480   -2.2360   23.2850 N   0  0  0  0  0  0  0  0  0  0  0  0
    8.3700    0.0280   22.6750 N   0  0  0  0  0  0  0  0  0  0  0  0
    9.1590   -2.2420   24.2270 C   0  0  0  0  0  0  0  0  0  0  0  0
    8.8320    1.1370   21.9880 C   0  0  0  0  0  0  0  0  0  0  0  0
   10.3670   -1.4050   23.8860 C   0  0  0  0  0  0  0  0  0  0  0  0
    9.9570    1.9220   22.7010 C   0  0  0  0  0  0  0  0  0  0  0  0
    8.3890    1.5010   20.8930 O   0  0  0  0  0  0  0  0  0  0  0  0
   10.7770   -0.1560   24.4640 C   0  0  0  0  0  0  0  0  0  0  0  0
   11.1960   -1.8640   22.8840 C   0  0  0  0  0  0  0  0  0  0  0  0
   11.9370    0.6160   24.0830 C   0  0  0  0  0  0  0  0  0  0  0  0
   12.4340   -1.0960   22.4420 C   0  0  0  0  0  0  0  0  0  0  0  0
   12.8530    0.2350   23.0700 C   0  0  0  0  0  0  0  0  0  0  0  0
   13.3470   -1.7710   21.1940 Cl  0  0  0  0  0  0  0  0  0  0  0  0
  1  2  2  3
  1  3  1  0
  3  4  1  0
  3  5  1  0
  4  6  1  0
  5  7  1  0
  6  8  1  0
  7  8  1  0
  7  9  1  1
  8 10  1  0
  9 11  1  0
 10 12  1  0
 11 13  1  0
 11 14  2  0
 12 15  2  0
 12 16  1  0
 15 17  1  0
 16 18  2  0
 17 19  2  0
 18 19  1  0
 18 20  1  0
M  END
