SAD-SAT-1b030f84-6-bromoalkyne
     RDKit          3D

 19 20  0  0  0  0  0  0  0  0999 V2000
    6.9910   -4.2780   20.3190 C   0  0  0  0  0  0  0  0  0  0  0  0
    6.1810   -3.3220   19.4180 C   0  0  0  0  0  0  0  0  0  0  0  0
    6.8860   -4.3590   21.7630 N   0  0  0  0  0  0  0  0  0  0  0  0
    7.8820   -5.1000   22.6450 C   0  0  0  0  0  0  0  0  0  0  0  0
    6.2360   -3.2900   22.4770 C   0  0  0  0  0  0  0  0  0  0  0  0
    7.5250   -5.3870   24.4120 S   0  0  0  0  0  0  0  0  0  0  0  0
    6.9000   -3.0610   23.7150 N   0  0  0  0  0  0  0  0  0  0  0  0
    6.5110   -3.9730   24.7280 C   0  0  0  0  0  0  0  0  0  0  0  0
    8.3000   -2.8600   23.5070 C   0  0  0  0  0  0  0  0  0  0  0  0
    9.2040   -3.5490   23.9780 O   0  0  0  0  0  0  0  0  0  0  0  0
    8.6610   -1.7240   22.6150 C   0  0  0  0  0  0  0  0  0  0  0  0
    7.9720   -1.4310   21.6450 O   0  0  0  0  0  0  0  0  0  0  0  0
    9.8740   -0.9320   22.9170 C   0  0  0  0  0  0  0  0  0  0  0  0
    9.8600    0.2560   23.7900 C   0  0  0  0  0  0  0  0  0  0  0  0
   11.0230   -1.3590   22.3410 C   0  0  0  0  0  0  0  0  0  0  0  0
   11.0710    0.9220   23.9900 C   0  0  0  0  0  0  0  0  0  0  0  0
   12.1630   -0.6800   22.5730 C   0  0  0  0  0  0  0  0  0  0  0  0
   12.2340    0.4530   23.3800 C   0  0  0  0  0  0  0  0  0  0  0  0
   13.4670   -1.3490   21.7800 Cl  0  0  0  0  0  0  0  0  0  0  0  0
  1  2  2  3
  1  3  1  0
  3  4  1  0
  3  5  1  0
  4  6  1  0
  5  7  1  0
  6  8  1  0
  7  8  1  0
  7  9  1  0
  9 10  2  0
  9 11  1  0
 11 12  2  0
 11 13  1  0
 13 14  2  0
 13 15  1  0
 14 16  1  0
 15 17  2  0
 16 18  2  0
 17 18  1  0
 17 19  1  0
M  END
