SAD-SAT-1b030f84-5-bromoalkyne
     RDKit          3D

 16 17  0  0  0  0  0  0  0  0999 V2000
    7.0330   -5.3460   20.7370 C   0  0  0  0  0  0  0  0  0  0  0  0
    5.7800   -4.7420   20.1960 C   0  0  0  0  0  0  0  0  0  0  0  0
    6.9940   -5.9880   22.0010 N   0  0  0  0  0  0  0  0  0  0  0  0
    5.6720   -6.1890   22.5100 C   0  0  0  0  0  0  0  0  0  0  0  0
    7.8540   -5.4560   23.0710 C   0  0  0  0  0  0  0  0  0  0  0  0
    5.1670   -4.7820   22.6920 C   0  0  0  0  0  0  0  0  0  0  0  0
    7.4050   -4.2010   23.3990 C   0  0  0  0  0  0  0  0  0  0  0  0
    6.3180   -3.8970   22.4730 N   0  0  0  0  0  0  0  0  0  0  0  0
    6.7350   -3.2480   21.2370 C   0  0  0  0  0  0  0  0  0  0  0  0
    6.1600   -3.2460   20.1470 O   0  0  0  0  0  0  0  0  0  0  0  0
    8.0460   -2.5060   21.4270 C   0  0  0  0  0  0  0  0  0  0  0  0
    9.3050   -3.2490   21.7990 C   0  0  0  0  0  0  0  0  0  0  0  0
    8.3360   -1.1110   21.3410 C   0  0  0  0  0  0  0  0  0  0  0  0
   10.6290   -2.1950   22.0020 S   0  0  0  0  0  0  0  0  0  0  0  0
    9.6650   -0.8250   21.6270 C   0  0  0  0  0  0  0  0  0  0  0  0
    7.1910    0.1030   20.9430 Cl  0  0  0  0  0  0  0  0  0  0  0  0
  1  2  2  3
  1  3  1  0
  3  4  1  0
  3  5  1  0
  4  6  1  0
  5  7  1  0
  6  8  1  0
  7  8  1  0
  8  9  1  0
  9 10  2  0
  9 11  1  0
 11 12  2  0
 11 13  1  0
 12 14  1  0
 13 15  2  0
 14 15  1  0
 13 16  1  0
M  END
