SAD-SAT-29425be4-19-bromoalkyne
     RDKit          3D

 25 26  0  0  0  0  0  0  0  0999 V2000
    6.8860   -5.1010   19.8010 C   0  0  0  0  0  0  0  0  0  0  0  0
    5.5830   -5.6940   19.9870 C   0  0  0  0  0  0  0  0  0  0  0  0
    7.2180   -3.9450   20.4250 N   0  0  0  0  0  0  0  0  0  0  0  0
    6.8130   -2.6330   19.8520 C   0  0  0  0  0  0  0  0  0  0  0  0
    7.0020   -4.0170   21.8650 C   0  0  0  0  0  0  0  0  0  0  0  0
    7.2450   -1.5980   20.9360 C   0  0  0  0  0  0  0  0  0  0  0  0
    5.7550   -3.2120   22.2080 C   0  0  0  0  0  0  0  0  0  0  0  0
    6.0530   -1.7380   21.9390 C   0  0  0  0  0  0  0  0  0  0  0  0
    6.7370   -1.1660   23.1790 C   0  0  0  0  0  0  0  0  0  0  0  0
    6.3140   -0.1760   23.7820 O   0  0  0  0  0  0  0  0  0  0  0  0
    7.8550   -1.8890   23.5300 N   0  0  0  0  0  0  0  0  0  0  0  0
    7.8830   -2.7600   24.7010 C   0  0  0  0  0  0  0  0  0  0  0  0
    9.3320   -3.2540   24.6840 C   0  0  1  0  0  0  0  0  0  0  0  0
   10.2630   -2.1690   24.2160 C   0  0  0  0  0  0  0  0  0  0  0  0
    9.7520   -3.8670   25.9780 N   0  0  0  0  0  0  0  0  0  0  0  0
   10.1410   -0.8020   24.8030 C   0  0  0  0  0  0  0  0  0  0  0  0
   11.3730   -2.3110   23.1470 C   0  0  0  0  0  0  0  0  0  0  0  0
    8.8170   -4.8900   26.5320 C   0  0  0  0  0  0  0  0  0  0  0  0
   11.0770   -4.4420   25.9080 C   0  0  0  0  0  0  0  0  0  0  0  0
   10.9590    0.2160   24.4090 C   0  0  0  0  0  0  0  0  0  0  0  0
   12.1830   -1.1050   22.8270 C   0  0  0  0  0  0  0  0  0  0  0  0
   11.9240    0.0890   23.4780 C   0  0  0  0  0  0  0  0  0  0  0  0
   12.6910    1.1660   23.1570 N   0  0  0  0  0  0  0  0  0  0  0  0
   13.7110    0.6170   22.6050 C   0  0  0  0  0  0  0  0  0  0  0  0
   12.1560    2.3700   22.8690 C   0  0  0  0  0  0  0  0  0  0  0  0
  1  2  2  3
  1  3  1  0
  3  4  1  0
  3  5  1  0
  4  6  1  0
  5  7  1  0
  6  8  1  0
  7  8  1  0
  8  9  1  0
  9 10  2  0
  9 11  1  0
 11 12  1  0
 13 12  1  1
 13 14  1  0
 13 15  1  0
 14 16  2  0
 14 17  1  0
 15 18  1  0
 15 19  1  0
 16 20  1  0
 17 21  2  0
 20 22  2  0
 21 22  1  0
 22 23  1  0
 23 24  1  0
 23 25  1  0
M  END
