SAD-SAT-3a925b8b-3-chloroacetamide
     RDKit          3D

 17 18  0  0  0  0  0  0  0  0999 V2000
    6.9640   -3.4580   19.7750 C   0  0  0  0  0  0  0  0  0  0  0  0
    6.3150   -4.6010   20.5180 C   0  0  0  0  0  0  0  0  0  0  0  0
    5.3360   -5.1170   20.0070 O   0  0  0  0  0  0  0  0  0  0  0  0
    6.8280   -5.1090   21.7040 N   0  0  0  0  0  0  0  0  0  0  0  0
    6.2800   -6.3190   22.3090 C   0  0  0  0  0  0  0  0  0  0  0  0
    7.4820   -4.2050   22.6560 C   0  0  0  0  0  0  0  0  0  0  0  0
    5.3340   -5.9760   23.4540 C   0  0  0  0  0  0  0  0  0  0  0  0
    6.5720   -3.8290   23.8260 C   0  0  0  0  0  0  0  0  0  0  0  0
    5.9560   -5.0610   24.4100 N   0  0  0  0  0  0  0  0  0  0  0  0
    5.1570   -4.8890   25.8980 S   0  0  0  0  0  0  0  0  0  0  0  0
    6.0290   -4.1730   26.7980 O   0  0  0  0  0  0  0  0  0  0  0  0
    4.6170   -6.1880   26.2400 O   0  0  0  0  0  0  0  0  0  0  0  0
    3.7450   -3.8780   25.7180 C   0  0  0  0  0  0  0  0  0  0  0  0
    2.5460   -4.2970   25.0260 C   0  0  0  0  0  0  0  0  0  0  0  0
    3.5460   -2.5720   26.1920 N   0  0  0  0  0  0  0  0  0  0  0  0
    1.6630   -3.2640   25.0880 O   0  0  0  0  0  0  0  0  0  0  0  0
    2.3100   -2.2830   25.7850 C   0  0  0  0  0  0  0  0  0  0  0  0
  1  2  1  0
  2  3  2  0
  2  4  1  0
  4  5  1  0
  4  6  1  0
  5  7  1  0
  6  8  1  0
  7  9  1  0
  8  9  1  0
  9 10  1  0
 10 11  2  0
 10 12  2  0
 10 13  1  0
 13 14  2  0
 13 15  1  0
 14 16  1  0
 15 17  2  0
 16 17  1  0
M  END
