SAD-SAT-89668ff1-1-chloroacetamide
     RDKit          3D

 25 27  0  0  0  0  0  0  0  0999 V2000
    7.2880   -3.0170   18.8740 C   0  0  0  0  0  0  0  0  0  0  0  0
    6.2580   -3.3850   19.9120 C   0  0  0  0  0  0  0  0  0  0  0  0
    5.2980   -4.1200   19.6960 O   0  0  0  0  0  0  0  0  0  0  0  0
    6.4460   -2.8630   21.1820 N   0  0  0  0  0  0  0  0  0  0  0  0
    7.3530   -1.7420   21.4380 C   0  0  0  0  0  0  0  0  0  0  0  0
    6.3680   -3.6380   22.3460 C   0  0  0  0  0  0  0  0  0  0  0  0
    7.5890   -1.6910   22.8690 N   0  0  0  0  0  0  0  0  0  0  0  0
    7.0410   -2.9760   23.4080 C   0  0  0  0  0  0  0  0  0  0  0  0
    5.7330   -4.8890   22.4980 C   0  0  0  0  0  0  0  0  0  0  0  0
    8.3830   -0.7290   23.4780 C   0  0  0  0  0  0  0  0  0  0  0  0
    7.1120   -3.5600   24.7410 C   0  0  0  0  0  0  0  0  0  0  0  0
    5.7890   -5.5240   23.8650 C   0  0  0  0  0  0  0  0  0  0  0  0
    8.3510   -0.4450   24.6730 O   0  0  0  0  0  0  0  0  0  0  0  0
    9.3610    0.0600   22.5040 C   0  0  0  0  0  0  0  0  0  0  0  0
    6.5000   -4.8220   24.9920 C   0  0  0  0  0  0  0  0  0  0  0  0
    8.8510    0.8070   21.6680 O   0  0  0  0  0  0  0  0  0  0  0  0
   10.8380   -0.1470   22.6630 N   0  0  0  0  0  0  0  0  0  0  0  0
   11.4830   -1.2750   22.1480 C   0  0  0  0  0  0  0  0  0  0  0  0
   11.4130    0.1590   23.8370 C   0  0  0  0  0  0  0  0  0  0  0  0
   11.3090   -2.4150   23.1340 C   0  0  0  0  0  0  0  0  0  0  0  0
   10.9470   -0.7800   24.7580 C   0  0  0  0  0  0  0  0  0  0  0  0
   10.3010   -1.9200   23.9380 C   0  0  0  0  0  0  0  0  0  0  0  0
    9.6150   -2.8050   24.7440 C   0  0  0  0  0  0  0  0  0  0  0  0
   10.4280   -3.6760   25.4540 C   0  0  0  0  0  0  0  0  0  0  0  0
   11.0790   -4.4130   26.0470 N   0  0  0  0  0  0  0  0  0  0  0  0
  1  2  1  0
  2  3  2  0
  2  4  1  0
  4  5  1  0
  4  6  1  0
  5  7  1  0
  6  8  2  0
  7  8  1  0
  6  9  1  0
  7 10  1  0
  8 11  1  0
  9 12  2  0
 10 13  2  0
 10 14  1  0
 11 15  2  0
 12 15  1  0
 14 16  2  0
 14 17  1  0
 17 18  1  0
 17 19  1  0
 18 20  1  0
 19 21  1  0
 20 22  1  0
 21 22  1  0
 22 23  1  0
 23 24  1  0
 24 25  3  0
M  END
