SAD-SAT-2ceae68f-3-vinylsulfonamide
     RDKit          3D

 32 34  0  0  0  0  0  0  0  0999 V2000
    6.9320   -3.1200   18.9280 C   0  0  0  0  0  0  0  0  0  0  0  0
    5.7950   -3.7370   19.7280 C   0  0  0  0  0  0  0  0  0  0  0  0
    6.0680   -3.5980   21.4430 S   0  0  0  0  0  0  0  0  0  0  0  0
    4.7440   -3.6660   22.0130 O   0  0  0  0  0  0  0  0  0  0  0  0
    7.1110   -4.5490   21.8350 O   0  0  0  0  0  0  0  0  0  0  0  0
    6.7280   -2.0460   21.4810 N   0  0  0  0  0  0  0  0  0  0  0  0
    7.5500   -1.6950   22.6380 C   0  0  0  0  0  0  0  0  0  0  0  0
    8.7090   -0.7880   22.1230 C   0  0  0  0  0  0  0  0  0  0  0  0
    9.3250   -1.1360   23.4960 C   0  0  0  0  0  0  0  0  0  0  0  0
    9.8860   -0.3470   22.5580 C   0  0  0  0  0  0  0  0  0  0  0  0
    8.0700   -1.8240   23.4430 C   0  0  0  0  0  0  0  0  0  0  0  0
   10.0690   -0.9150   23.8880 C   0  0  0  0  0  0  0  0  0  0  0  0
    9.1090   -1.8260   24.6140 C   0  0  0  0  0  0  0  0  0  0  0  0
    7.8170   -2.6920   24.8660 C   0  0  0  0  0  0  0  0  0  0  0  0
    8.7340   -3.6810   24.3580 O   0  0  0  0  0  0  0  0  0  0  0  0
    7.3810   -1.3310   25.3050 N   0  0  0  0  0  0  0  0  0  0  0  0
    8.2580   -0.5040   26.1030 C   0  0  0  0  0  0  0  0  0  0  0  0
    5.9730   -1.1460   25.6840 C   0  0  0  0  0  0  0  0  0  0  0  0
    7.7800   -0.4390   27.5540 C   0  0  0  0  0  0  0  0  0  0  0  0
    5.7550    0.1650   26.4830 C   0  0  0  0  0  0  0  0  0  0  0  0
    6.6820    0.3030   27.6270 N   0  0  0  0  0  0  0  0  0  0  0  0
    6.8550    1.8670   28.2310 S   0  0  0  0  0  0  0  0  0  0  0  0
    7.2040    2.6930   27.1010 O   0  0  0  0  0  0  0  0  0  0  0  0
    5.6970    2.1590   29.0520 O   0  0  0  0  0  0  0  0  0  0  0  0
    8.3260    1.8400   29.2720 C   0  0  0  0  0  0  0  0  0  0  0  0
    9.0910    3.0610   29.3460 C   0  0  0  0  0  0  0  0  0  0  0  0
    8.7710    0.7160   30.0070 C   0  0  0  0  0  0  0  0  0  0  0  0
   10.2870    3.2220   30.1190 C   0  0  0  0  0  0  0  0  0  0  0  0
    9.9090    1.0290   30.6770 C   0  0  0  0  0  0  0  0  0  0  0  0
    8.2130   -0.6950   30.1570 C   0  0  0  0  0  0  0  0  0  0  0  0
   10.9750    4.4390   30.1470 C   0  0  0  0  0  0  0  0  0  0  0  0
   10.7040    2.0940   30.8290 C   0  0  0  0  0  0  0  0  0  0  0  0
  1  2  1  0
  2  3  1  0
  3  4  2  0
  3  5  2  0
  3  6  1  0
  6  7  1  0
  7  8  1  0
  8  9  2  0
  8 10  1  0
  9 11  1  0
 10 12  2  0
 11 13  2  0
 12 13  1  0
 13 14  1  0
 14 15  2  0
 14 16  1  0
 16 17  1  0
 16 18  1  0
 17 19  1  0
 18 20  1  0
 19 21  1  0
 20 21  1  0
 21 22  1  0
 22 23  2  0
 22 24  2  0
 22 25  1  0
 25 26  2  0
 25 27  1  0
 26 28  1  0
 27 29  2  0
 27 30  1  0
 28 31  1  0
 28 32  2  0
 29 32  1  0
M  END
