SAD-SAT-29425be4-23-vinylsulfonamide
     RDKit          3D

 29 30  0  0  0  0  0  0  0  0999 V2000
    7.8390   -3.3570   19.5480 C   0  0  0  0  0  0  0  0  0  0  0  0
    7.0570   -2.5170   18.5870 C   0  0  0  0  0  0  0  0  0  0  0  0
    5.5540   -2.0940   19.3440 S   0  0  0  0  0  0  0  0  0  0  0  0
    4.8790   -3.3030   19.8820 O   0  0  0  0  0  0  0  0  0  0  0  0
    4.9460   -1.1760   18.4170 O   0  0  0  0  0  0  0  0  0  0  0  0
    6.1600   -1.1440   20.5370 N   0  0  0  0  0  0  0  0  0  0  0  0
    7.5710   -0.8500   20.6290 C   0  0  0  0  0  0  0  0  0  0  0  0
    5.4020   -0.8960   21.7280 C   0  0  0  0  0  0  0  0  0  0  0  0
    8.0370   -1.8790   21.7010 C   0  0  0  0  0  0  0  0  0  0  0  0
    5.6560   -2.0720   22.6280 C   0  0  0  0  0  0  0  0  0  0  0  0
    6.8170   -2.8340   22.0010 C   0  0  0  0  0  0  0  0  0  0  0  0
    7.6080   -3.5440   23.0520 C   0  0  0  0  0  0  0  0  0  0  0  0
    7.4900   -4.7150   23.4150 O   0  0  0  0  0  0  0  0  0  0  0  0
    8.4850   -2.6080   23.5070 N   0  0  0  0  0  0  0  0  0  0  0  0
    9.5910   -2.8690   24.3540 C   0  0  2  0  0  0  0  0  0  0  0  0
   10.1230   -4.2720   24.0900 C   0  0  0  0  0  0  0  0  0  0  0  0
    8.9460   -2.7830   25.6970 C   0  0  0  0  0  0  0  0  0  0  0  0
   10.6110   -1.7180   24.0040 C   0  0  0  0  0  0  0  0  0  0  0  0
    7.8960   -1.9180   25.7830 O   0  0  0  0  0  0  0  0  0  0  0  0
    9.4590   -3.6000   26.6490 O   0  0  0  0  0  0  0  0  0  0  0  0
   10.5810   -0.2820   24.5560 C   0  0  0  0  0  0  0  0  0  0  0  0
   11.7340   -2.0970   22.9930 C   0  0  0  0  0  0  0  0  0  0  0  0
    8.5960   -4.5890   27.2460 C   0  0  0  0  0  0  0  0  0  0  0  0
   11.6750    0.6870   24.0620 C   0  0  0  0  0  0  0  0  0  0  0  0
   12.7880   -1.1060   22.5430 C   0  0  0  0  0  0  0  0  0  0  0  0
    9.3300   -5.5850   27.8530 C   0  0  0  0  0  0  0  0  0  0  0  0
    7.5890   -3.9630   28.2070 C   0  0  0  0  0  0  0  0  0  0  0  0
    7.8300   -5.2170   26.0800 C   0  0  0  0  0  0  0  0  0  0  0  0
   12.7790    0.3030   23.0700 C   0  0  0  0  0  0  0  0  0  0  0  0
  1  2  1  0
  3  2  1  0
  3  4  2  0
  3  5  2  0
  3  6  1  0
  6  7  1  0
  6  8  1  0
  7  9  1  0
  8 10  1  0
  9 11  1  0
 10 11  1  0
 11 12  1  0
 12 13  2  0
 12 14  1  0
 14 15  1  0
 15 16  1  6
 15 17  1  0
 15 18  1  0
 17 19  2  0
 17 20  1  0
 18 21  2  0
 18 22  1  0
 23 20  1  0
 21 24  1  0
 22 25  2  0
 23 26  1  0
 23 27  1  0
 23 28  1  0
 24 29  2  0
 25 29  1  0
M  END
