SAD-SAT-c989feaa-8-nitrile
     RDKit          3D

 20 21  0  0  0  0  0  0  0  0999 V2000
    6.6460   -3.6250   19.7530 C   0  0  0  0  0  0  0  0  0  0  0  0
    6.3380   -3.1280   18.6150 N   0  0  0  0  0  0  0  0  0  0  0  0
    6.6560   -2.8790   20.9070 N   0  0  0  0  0  0  0  0  0  0  0  0
    6.1820   -3.3490   22.2160 C   0  0  0  0  0  0  0  0  0  0  0  0
    7.3910   -1.6070   20.9730 C   0  0  0  0  0  0  0  0  0  0  0  0
    7.3430   -3.4790   23.2140 C   0  0  0  0  0  0  0  0  0  0  0  0
    8.5670   -1.7710   21.9410 C   0  0  2  0  0  0  0  0  0  0  0  0
    8.1630   -2.2640   23.2910 N   0  0  0  0  0  0  0  0  0  0  0  0
    9.4550   -0.5170   22.0820 C   0  0  0  0  0  0  0  0  0  0  0  0
    9.2280   -2.2830   24.1770 C   0  0  0  0  0  0  0  0  0  0  0  0
    8.8210    0.8390   22.4990 C   0  0  0  0  0  0  0  0  0  0  0  0
   10.4440   -1.4370   23.8480 C   0  0  0  0  0  0  0  0  0  0  0  0
    9.8080    1.9830   22.8380 C   0  0  0  0  0  0  0  0  0  0  0  0
    7.9060    1.3220   21.3710 C   0  0  0  0  0  0  0  0  0  0  0  0
   10.8440   -0.1900   24.4350 C   0  0  0  0  0  0  0  0  0  0  0  0
   11.2970   -1.9030   22.8410 C   0  0  0  0  0  0  0  0  0  0  0  0
   12.0030    0.5600   24.0520 C   0  0  0  0  0  0  0  0  0  0  0  0
   12.4440   -1.2100   22.4300 C   0  0  0  0  0  0  0  0  0  0  0  0
   12.8940    0.1330   23.0400 C   0  0  0  0  0  0  0  0  0  0  0  0
   13.1760   -1.7950   21.4170 C   0  0  0  0  0  0  0  0  0  0  0  0
  1  2  2  3
  1  3  1  0
  3  4  1  0
  3  5  1  0
  4  6  1  0
  5  7  1  0
  6  8  1  0
  7  8  1  0
  7  9  1  1
  8 10  1  0
  9 11  1  0
 10 12  1  0
 11 13  1  0
 11 14  1  0
 12 15  2  0
 12 16  1  0
 15 17  1  0
 16 18  2  0
 17 19  2  0
 18 19  1  0
 18 20  1  0
M  END
