SAD-SAT-29425be4-30-vinylsulfonamide
     RDKit          3D

 30 31  0  0  0  0  0  0  0  0999 V2000
    7.0670   -5.0870   20.0780 C   0  0  0  0  0  0  0  0  0  0  0  0
    7.4190   -3.6040   20.2990 C   0  0  0  0  0  0  0  0  0  0  0  0
    6.1350   -2.6770   19.5310 S   0  0  0  0  0  0  0  0  0  0  0  0
    4.9250   -3.3160   19.9880 O   0  0  0  0  0  0  0  0  0  0  0  0
    6.4470   -2.6150   18.1360 O   0  0  0  0  0  0  0  0  0  0  0  0
    6.2730   -1.1030   20.0930 N   0  0  0  0  0  0  0  0  0  0  0  0
    7.5760   -0.5060   20.3460 C   0  0  0  0  0  0  0  0  0  0  0  0
    5.1680   -0.5510   20.8590 C   0  0  0  0  0  0  0  0  0  0  0  0
    7.6720   -0.4140   21.9010 C   0  0  0  0  0  0  0  0  0  0  0  0
    5.2550   -1.0910   22.1310 C   0  0  0  0  0  0  0  0  0  0  0  0
    6.7010   -1.5450   22.3260 C   0  0  0  0  0  0  0  0  0  0  0  0
    7.0500   -1.6650   23.8070 C   0  0  0  0  0  0  0  0  0  0  0  0
    6.7700   -0.8100   24.6410 O   0  0  0  0  0  0  0  0  0  0  0  0
    7.7010   -2.8330   24.1250 N   0  0  0  0  0  0  0  0  0  0  0  0
    6.9670   -4.0900   24.2570 C   0  0  0  0  0  0  0  0  0  0  0  0
    9.0860   -2.9670   24.0370 C   0  0  0  0  0  0  0  0  0  0  0  0
    6.7260   -4.6750   22.8480 C   0  0  0  0  0  0  0  0  0  0  0  0
    9.8950   -1.8770   23.7770 C   0  0  0  0  0  0  0  0  0  0  0  0
    6.6420   -6.2050   22.7250 C   0  0  0  0  0  0  0  0  0  0  0  0
   10.9950   -2.0770   22.9580 C   0  0  0  0  0  0  0  0  0  0  0  0
    9.6040   -0.6010   24.3180 C   0  0  0  0  0  0  0  0  0  0  0  0
   11.8100   -1.0460   22.6550 C   0  0  0  0  0  0  0  0  0  0  0  0
   10.4050    0.5020   24.0380 C   0  0  0  0  0  0  0  0  0  0  0  0
   11.4810    0.2860   23.2250 C   0  0  0  0  0  0  0  0  0  0  0  0
   10.1880    1.8320   24.5280 O   0  0  0  0  0  0  0  0  0  0  0  0
   12.3800    1.2480   22.8460 O   0  0  0  0  0  0  0  0  0  0  0  0
    8.8340    2.1890   24.7980 C   0  0  0  0  0  0  0  0  0  0  0  0
   13.5220    0.4320   22.8040 C   0  0  0  0  0  0  0  0  0  0  0  0
    8.7150    3.6920   24.6260 C   0  0  0  0  0  0  0  0  0  0  0  0
   13.3390   -0.8460   21.9490 C   0  0  0  0  0  0  0  0  0  0  0  0
  1  2  1  0
  3  2  1  0
  3  4  2  0
  3  5  2  0
  3  6  1  0
  6  7  1  0
  6  8  1  0
  7  9  1  0
  8 10  1  0
  9 11  1  0
 10 11  1  0
 11 12  1  0
 12 13  2  0
 12 14  1  0
 14 15  1  0
 14 16  1  0
 15 17  1  0
 16 18  1  0
 17 19  1  0
 18 20  2  0
 18 21  1  0
 20 22  1  0
 21 23  2  0
 22 24  2  0
 23 24  1  0
 23 25  1  0
 24 26  1  0
 25 27  1  0
 26 28  1  0
 27 29  1  0
 28 30  1  0
M  END
