SAD-SAT-f2e2579e-7-acrylamide
     RDKit          3D

 32 35  0  0  0  0  0  0  0  0999 V2000
    7.3240   -2.9100   18.5140 C   0  0  0  0  0  0  0  0  0  0  0  0
    6.5610   -2.5590   19.5450 C   0  0  0  0  0  0  0  0  0  0  0  0
    6.0180   -3.7420   20.3050 C   0  0  0  0  0  0  0  0  0  0  0  0
    5.1550   -4.5020   19.8470 O   0  0  0  0  0  0  0  0  0  0  0  0
    6.5820   -3.9040   21.5510 N   0  0  0  0  0  0  0  0  0  0  0  0
    6.3330   -5.0610   22.3900 C   0  0  0  0  0  0  0  0  0  0  0  0
    7.6460   -3.0260   22.0050 C   0  0  0  0  0  0  0  0  0  0  0  0
    5.9440   -4.5760   23.8080 C   0  0  0  0  0  0  0  0  0  0  0  0
    7.1630   -2.3690   23.2690 C   0  0  0  0  0  0  0  0  0  0  0  0
    6.8050   -3.4050   24.3470 C   0  0  0  0  0  0  0  0  0  0  0  0
    6.1350   -2.7020   25.5120 C   0  0  0  0  0  0  0  0  0  0  0  0
    4.9230   -2.8770   25.6410 O   0  0  0  0  0  0  0  0  0  0  0  0
    6.8360   -1.8860   26.4480 N   0  0  0  0  0  0  0  0  0  0  0  0
    7.4900   -0.5830   26.1870 C   0  0  0  0  0  0  0  0  0  0  0  0
    6.2280   -1.6690   27.6620 C   0  0  0  0  0  0  0  0  0  0  0  0
    7.4560    0.3500   27.2750 C   0  0  0  0  0  0  0  0  0  0  0  0
    5.3160   -0.4830   27.3750 C   0  0  0  0  0  0  0  0  0  0  0  0
    6.1670    0.7040   27.5720 N   0  0  0  0  0  0  0  0  0  0  0  0
    5.5700    2.1520   26.8620 S   0  0  0  0  0  0  0  0  0  0  0  0
    4.1790    1.8960   26.5650 O   0  0  0  0  0  0  0  0  0  0  0  0
    6.5040    2.5770   25.8470 O   0  0  0  0  0  0  0  0  0  0  0  0
    5.7090    3.2540   28.1630 C   0  0  0  0  0  0  0  0  0  0  0  0
    4.5950    3.5060   29.0010 C   0  0  0  0  0  0  0  0  0  0  0  0
    6.8940    3.9410   28.4570 C   0  0  0  0  0  0  0  0  0  0  0  0
    4.6330    4.3990   30.0940 C   0  0  0  0  0  0  0  0  0  0  0  0
    7.0020    4.8360   29.5180 C   0  0  0  0  0  0  0  0  0  0  0  0
    5.7980    5.1090   30.4280 C   0  0  0  0  0  0  0  0  0  0  0  0
    8.2300    5.5260   29.7970 O   0  0  0  0  0  0  0  0  0  0  0  0
    8.1430    6.4100   30.9180 C   0  0  0  0  0  0  0  0  0  0  0  0
    5.7260    5.9480   31.5090 O   0  0  0  0  0  0  0  0  0  0  0  0
    7.2240    7.5880   30.5670 C   0  0  0  0  0  0  0  0  0  0  0  0
    5.8600    7.3360   31.1990 C   0  0  0  0  0  0  0  0  0  0  0  0
  1  2  1  0
  2  3  1  0
  3  4  2  0
  3  5  1  0
  5  6  1  0
  5  7  1  0
  6  8  1  0
  7  9  1  0
  8 10  1  0
  9 10  1  0
 10 11  1  0
 11 12  2  0
 11 13  1  0
 13 14  1  0
 13 15  1  0
 14 16  1  0
 15 17  1  0
 16 18  1  0
 17 18  1  0
 18 19  1  0
 19 20  2  0
 19 21  2  0
 19 22  1  0
 22 23  2  0
 22 24  1  0
 23 25  1  0
 24 26  2  0
 25 27  2  0
 26 27  1  0
 26 28  1  0
 28 29  1  0
 27 30  1  0
 29 31  1  0
 30 32  1  0
 31 32  1  0
M  END
