SAD-SAT-1f400d17-2-bromoalkyne
     RDKit          3D

 17 18  0  0  0  0  0  0  0  0999 V2000
    8.0660   -3.6170   19.9250 C   0  0  0  0  0  0  0  0  0  0  0  0
    7.5580   -2.9490   18.7170 C   0  0  0  0  0  0  0  0  0  0  0  0
    9.2650   -3.3770   20.7760 N   0  0  0  0  0  0  0  0  0  0  0  0
    9.7570   -2.1620   21.5850 C   0  0  0  0  0  0  0  0  0  0  0  0
   11.2660   -1.8000   21.6690 C   0  0  0  0  0  0  0  0  0  0  0  0
    8.7580   -1.2780   22.3170 C   0  0  0  0  0  0  0  0  0  0  0  0
   11.6880   -0.5530   22.4570 C   0  0  0  0  0  0  0  0  0  0  0  0
    9.2180   -0.1530   23.0100 C   0  0  0  0  0  0  0  0  0  0  0  0
   10.5510    0.2170   23.0840 C   0  0  0  0  0  0  0  0  0  0  0  0
   10.9410    1.6070   23.9200 S   0  0  0  0  0  0  0  0  0  0  0  0
    9.9220    1.7840   24.9190 O   0  0  0  0  0  0  0  0  0  0  0  0
   12.3340    1.4060   24.1710 O   0  0  0  0  0  0  0  0  0  0  0  0
   10.8020    2.8850   22.8310 N   0  0  0  0  0  0  0  0  0  0  0  0
   11.9860    3.5270   22.4580 C   0  0  0  0  0  0  0  0  0  0  0  0
    9.9210    3.9980   23.3240 C   0  0  0  0  0  0  0  0  0  0  0  0
   12.0220    4.8160   22.9440 C   0  0  0  0  0  0  0  0  0  0  0  0
   10.7710    5.1150   23.4750 C   0  0  0  0  0  0  0  0  0  0  0  0
  1  2  2  3
  1  3  1  0
  3  4  1  0
  4  5  2  0
  4  6  1  0
  5  7  1  0
  6  8  2  0
  7  9  2  0
  8  9  1  0
 10  9  1  0
 10 11  2  0
 10 12  2  0
 10 13  1  0
 13 14  1  0
 13 15  1  0
 14 16  1  0
 15 17  1  0
 16 17  1  0
M  END
