SAD-SAT-b55127ae-5-bromoalkyne
     RDKit          3D

 21 22  0  0  0  0  0  0  0  0999 V2000
    7.4750   -5.0530   20.2440 C   0  0  0  0  0  0  0  0  0  0  0  0
    6.6790   -6.2640   19.8550 C   0  0  0  0  0  0  0  0  0  0  0  0
    7.2040   -4.3950   21.4240 N   0  0  0  0  0  0  0  0  0  0  0  0
    7.0750   -2.9330   21.4640 C   0  0  0  0  0  0  0  0  0  0  0  0
    6.5310   -5.1130   22.5000 C   0  0  0  0  0  0  0  0  0  0  0  0
    6.0300   -2.4920   22.4990 C   0  0  0  0  0  0  0  0  0  0  0  0
    6.7220   -4.5140   23.7420 C   0  0  0  0  0  0  0  0  0  0  0  0
    6.2120   -3.1140   23.8140 N   0  0  0  0  0  0  0  0  0  0  0  0
    7.0510   -2.1680   24.9450 S   0  0  0  0  0  0  0  0  0  0  0  0
    6.4410   -0.8580   24.9980 O   0  0  0  0  0  0  0  0  0  0  0  0
    7.2320   -2.9710   26.1320 O   0  0  0  0  0  0  0  0  0  0  0  0
    8.6360   -1.8820   24.3100 C   0  0  0  0  0  0  0  0  0  0  0  0
    9.5780   -2.9490   23.9220 C   0  0  0  0  0  0  0  0  0  0  0  0
    9.0340   -0.5480   24.1570 C   0  0  0  0  0  0  0  0  0  0  0  0
   10.8860   -2.5880   23.3880 C   0  0  0  0  0  0  0  0  0  0  0  0
   10.4170   -0.2000   23.5900 C   0  0  0  0  0  0  0  0  0  0  0  0
   11.2800   -1.2380   23.2230 C   0  0  0  0  0  0  0  0  0  0  0  0
   12.5280   -1.0750   22.7050 C   0  0  0  0  0  0  0  0  0  0  0  0
   13.6450   -0.9380   23.5080 C   0  0  0  0  0  0  0  0  0  0  0  0
   13.2290    0.2540   22.6960 C   0  0  0  0  0  0  0  0  0  0  0  0
   12.8530   -1.9150   21.4410 C   0  0  0  0  0  0  0  0  0  0  0  0
  1  2  2  3
  1  3  1  0
  3  4  1  0
  3  5  1  0
  4  6  1  0
  5  7  1  0
  6  8  1  0
  7  8  1  0
  8  9  1  0
  9 10  2  0
  9 11  2  0
  9 12  1  0
 12 13  2  0
 12 14  1  0
 13 15  1  0
 14 16  2  0
 15 17  2  0
 16 17  1  0
 17 18  1  0
 18 19  1  0
 18 20  1  0
 18 21  1  0
M  END
