SAD-SAT-f2e2579e-10-vinylsulfonamide
     RDKit          3D

 30 32  0  0  0  0  0  0  0  0999 V2000
    7.4620   -2.9310   18.5330 C   0  0  0  0  0  0  0  0  0  0  0  0
    7.0030   -2.3720   19.6390 C   0  0  0  0  0  0  0  0  0  0  0  0
    5.8400   -3.3700   20.5500 S   0  0  0  0  0  0  0  0  0  0  0  0
    5.1110   -4.3310   19.7320 O   0  0  0  0  0  0  0  0  0  0  0  0
    5.1100   -2.4810   21.4190 O   0  0  0  0  0  0  0  0  0  0  0  0
    6.9160   -4.2350   21.5530 N   0  0  0  0  0  0  0  0  0  0  0  0
    7.9320   -3.4070   22.2430 C   0  0  0  0  0  0  0  0  0  0  0  0
    6.3950   -5.3900   22.2510 C   0  0  0  0  0  0  0  0  0  0  0  0
    7.4290   -2.9100   23.5990 C   0  0  0  0  0  0  0  0  0  0  0  0
    5.9980   -5.0110   23.6870 C   0  0  0  0  0  0  0  0  0  0  0  0
    6.0490   -3.4900   23.9320 C   0  0  0  0  0  0  0  0  0  0  0  0
    5.5540   -3.1870   25.3530 C   0  0  0  0  0  0  0  0  0  0  0  0
    4.4080   -3.5180   25.6270 O   0  0  0  0  0  0  0  0  0  0  0  0
    6.3780   -2.5300   26.3830 N   0  0  0  0  0  0  0  0  0  0  0  0
    5.9050   -2.6460   27.6830 C   0  0  0  0  0  0  0  0  0  0  0  0
    7.0540   -1.2630   26.2010 C   0  0  0  0  0  0  0  0  0  0  0  0
    5.0770   -1.6070   28.1660 C   0  0  0  0  0  0  0  0  0  0  0  0
    6.1220   -0.2320   26.2320 C   0  0  0  0  0  0  0  0  0  0  0  0
    5.3890   -0.2870   27.5140 N   0  0  0  0  0  0  0  0  0  0  0  0
    5.4970    1.0470   28.5490 S   0  0  0  0  0  0  0  0  0  0  0  0
    4.5660    0.8330   29.6320 O   0  0  0  0  0  0  0  0  0  0  0  0
    5.4360    2.2170   27.7020 O   0  0  0  0  0  0  0  0  0  0  0  0
    7.1070    0.9480   29.2060 C   0  0  0  0  0  0  0  0  0  0  0  0
    7.6790   -0.2660   29.5360 C   0  0  0  0  0  0  0  0  0  0  0  0
    7.8630    2.1210   29.4250 C   0  0  0  0  0  0  0  0  0  0  0  0
    8.9540   -0.3570   30.0760 C   0  0  0  0  0  0  0  0  0  0  0  0
    9.1500    2.0260   29.9720 C   0  0  0  0  0  0  0  0  0  0  0  0
    9.7060    0.7930   30.3070 C   0  0  0  0  0  0  0  0  0  0  0  0
   10.9730    0.7220   30.8610 C   0  0  0  0  0  0  0  0  0  0  0  0
   11.0750    0.6250   32.3230 N   0  0  0  0  0  0  0  0  0  0  0  0
  1  2  1  0
  3  2  1  0
  3  4  2  0
  3  5  2  0
  3  6  1  0
  6  7  1  0
  6  8  1  0
  7  9  1  0
  8 10  1  0
  9 11  1  0
 10 11  1  0
 11 12  1  0
 12 13  2  0
 12 14  1  0
 14 15  1  0
 14 16  1  0
 15 17  1  0
 16 18  1  0
 17 19  1  0
 18 19  1  0
 19 20  1  0
 20 21  2  0
 20 22  2  0
 20 23  1  0
 23 24  2  0
 23 25  1  0
 24 26  1  0
 25 27  2  0
 26 28  2  0
 27 28  1  0
 28 29  1  0
 29 30  3  0
M  END
