SAD-SAT-9a6c5cf3-3-chloroacetamide
     RDKit          3D

 32 35  0  0  0  0  0  0  0  0999 V2000
    7.1590   -3.7410   19.5490 C   0  0  0  0  0  0  0  0  0  0  0  0
    6.0550   -3.7190   20.1680 C   0  0  0  0  0  0  0  0  0  0  0  0
    5.0230   -3.8660   19.5400 O   0  0  0  0  0  0  0  0  0  0  0  0
    6.1900   -3.6490   21.5500 N   0  0  0  0  0  0  0  0  0  0  0  0
    7.3610   -2.9210   22.1040 C   0  0  0  0  0  0  0  0  0  0  0  0
    5.9200   -4.9240   22.2310 C   0  0  0  0  0  0  0  0  0  0  0  0
    7.2470   -2.7560   23.6160 C   0  0  0  0  0  0  0  0  0  0  0  0
    5.6630   -4.7150   23.7050 C   0  0  0  0  0  0  0  0  0  0  0  0
    5.8740   -3.2420   24.0910 C   0  0  0  0  0  0  0  0  0  0  0  0
    5.5890   -3.0410   25.5750 C   0  0  0  0  0  0  0  0  0  0  0  0
    4.2960   -3.5760   25.9040 O   0  0  0  0  0  0  0  0  0  0  0  0
    6.4820   -2.3930   26.5490 N   0  0  0  0  0  0  0  0  0  0  0  0
    6.1940   -2.3780   27.9310 C   0  0  0  0  0  0  0  0  0  0  0  0
    7.0790   -1.1770   26.2170 C   0  0  0  0  0  0  0  0  0  0  0  0
    5.5400   -1.2360   28.4660 C   0  0  0  0  0  0  0  0  0  0  0  0
    6.1340   -0.1840   26.3380 C   0  0  0  0  0  0  0  0  0  0  0  0
    6.0090    0.0170   27.8030 N   0  0  0  0  0  0  0  0  0  0  0  0
    7.1490    0.6860   28.2690 C   0  0  0  0  0  0  0  0  0  0  0  0
    7.6270    0.6020   29.5850 C   0  0  0  0  0  0  0  0  0  0  0  0
    6.9400    0.1160   30.7030 C   0  0  0  0  0  0  0  0  0  0  0  0
    9.2230    1.1330   30.0520 S   0  0  0  0  0  0  0  0  0  0  0  0
    7.6670    0.1850   31.8820 C   0  0  0  0  0  0  0  0  0  0  0  0
    8.9400    0.7260   31.7040 C   0  0  0  0  0  0  0  0  0  0  0  0
    9.8850    0.8920   32.9310 C   0  0  0  0  0  0  0  0  0  0  0  0
   11.2080    0.1170   32.9860 C   0  0  0  0  0  0  0  0  0  0  0  0
    9.6060    1.7220   34.0310 C   0  0  0  0  0  0  0  0  0  0  0  0
   12.1810    0.2100   34.1720 C   0  0  0  0  0  0  0  0  0  0  0  0
   10.5680    1.8400   35.2280 C   0  0  0  0  0  0  0  0  0  0  0  0
    8.4730    2.4600   34.0920 N   0  0  0  0  0  0  0  0  0  0  0  0
   11.7910    1.1390   35.3310 C   0  0  0  0  0  0  0  0  0  0  0  0
    8.5640    3.6070   33.6270 O   0  0  0  0  0  0  0  0  0  0  0  0
    7.6510    2.1240   34.9570 O   0  0  0  0  0  0  0  0  0  0  0  0
  1  2  1  0
  2  3  2  0
  2  4  1  0
  4  5  1  0
  4  6  1  0
  5  7  1  0
  6  8  1  0
  7  9  1  0
  8  9  1  0
  9 10  1  0
 10 11  2  0
 10 12  1  0
 12 13  1  0
 12 14  1  0
 13 15  1  0
 14 16  1  0
 15 17  1  0
 16 17  1  0
 17 18  1  0
 18 19  1  0
 19 20  2  0
 19 21  1  0
 20 22  1  0
 21 23  1  0
 22 23  2  0
 23 24  1  0
 24 25  2  0
 24 26  1  0
 25 27  1  0
 26 28  2  0
 26 29  1  0
 27 30  2  0
 28 30  1  0
 29 31  2  0
 29 32  1  0
M  CHG  2  29   1  32  -1
M  END
