SAD-SAT-f2e2579e-2-chloroacetamide
     RDKit          3D

 31 34  0  0  0  0  0  0  0  0999 V2000
    7.1220   -3.1960   19.2480 C   0  0  0  0  0  0  0  0  0  0  0  0
    6.3260   -3.8100   20.1170 C   0  0  0  0  0  0  0  0  0  0  0  0
    5.2510   -4.2960   19.7850 O   0  0  0  0  0  0  0  0  0  0  0  0
    6.7760   -3.9580   21.4440 N   0  0  0  0  0  0  0  0  0  0  0  0
    6.5050   -5.1940   22.2130 C   0  0  0  0  0  0  0  0  0  0  0  0
    7.6130   -2.8930   22.0610 C   0  0  0  0  0  0  0  0  0  0  0  0
    5.9210   -4.8440   23.5740 C   0  0  0  0  0  0  0  0  0  0  0  0
    7.3830   -2.7560   23.4490 C   0  0  0  0  0  0  0  0  0  0  0  0
    6.0110   -3.3310   23.8120 C   0  0  0  0  0  0  0  0  0  0  0  0
    5.4130   -3.0060   25.1930 C   0  0  0  0  0  0  0  0  0  0  0  0
    4.0540   -3.4760   25.1940 O   0  0  0  0  0  0  0  0  0  0  0  0
    5.9750   -2.3560   26.3960 N   0  0  0  0  0  0  0  0  0  0  0  0
    6.9220   -1.3360   26.4870 C   0  0  0  0  0  0  0  0  0  0  0  0
    5.1100   -2.2200   27.5160 C   0  0  0  0  0  0  0  0  0  0  0  0
    6.4850   -0.0530   26.1560 C   0  0  0  0  0  0  0  0  0  0  0  0
    4.6470   -0.7650   27.7420 C   0  0  0  0  0  0  0  0  0  0  0  0
    6.4290    0.7790   27.2850 C   0  0  0  0  0  0  0  0  0  0  0  0
    5.7770    0.0960   28.2690 N   0  0  0  0  0  0  0  0  0  0  0  0
    6.7370   -0.6740   29.4740 S   0  0  0  0  0  0  0  0  0  0  0  0
    6.5530    0.1130   30.6720 O   0  0  0  0  0  0  0  0  0  0  0  0
    8.0510   -0.9460   28.9460 O   0  0  0  0  0  0  0  0  0  0  0  0
    5.8820   -2.1610   29.6130 C   0  0  0  0  0  0  0  0  0  0  0  0
    4.6220   -2.1750   30.2670 C   0  0  0  0  0  0  0  0  0  0  0  0
    6.3530   -3.3860   29.1120 C   0  0  0  0  0  0  0  0  0  0  0  0
    3.8410   -3.3480   30.4310 C   0  0  0  0  0  0  0  0  0  0  0  0
    5.6300   -4.5750   29.2440 C   0  0  0  0  0  0  0  0  0  0  0  0
    4.2830   -4.5900   29.9430 C   0  0  0  0  0  0  0  0  0  0  0  0
    6.0930   -5.8330   28.7480 O   0  0  0  0  0  0  0  0  0  0  0  0
    5.0380   -6.8040   28.6520 C   0  0  0  0  0  0  0  0  0  0  0  0
    3.4880   -5.6870   30.1350 O   0  0  0  0  0  0  0  0  0  0  0  0
    4.2550   -6.8870   29.9780 C   0  0  0  0  0  0  0  0  0  0  0  0
  1  2  1  0
  2  3  2  0
  2  4  1  0
  4  5  1  0
  4  6  1  0
  5  7  1  0
  6  8  1  0
  7  9  1  0
  8  9  1  0
  9 10  1  0
 10 11  2  0
 10 12  1  0
 12 13  1  0
 12 14  1  0
 13 15  1  0
 14 16  1  0
 15 17  1  0
 16 18  1  0
 17 18  1  0
 18 19  1  0
 19 20  2  0
 19 21  2  0
 19 22  1  0
 22 23  2  0
 22 24  1  0
 23 25  1  0
 24 26  2  0
 25 27  2  0
 26 27  1  0
 26 28  1  0
 28 29  1  0
 27 30  1  0
 29 31  1  0
 30 31  1  0
M  END
