SAD-SAT-29425be4-18-chloroacetamide
     RDKit          3D

 31 33  0  0  0  0  0  0  0  0999 V2000
    7.1460   -2.9360   18.8480 C   0  0  0  0  0  0  0  0  0  0  0  0
    6.1180   -3.1990   19.9180 C   0  0  0  0  0  0  0  0  0  0  0  0
    5.3510   -4.1710   19.7800 O   0  0  0  0  0  0  0  0  0  0  0  0
    6.0740   -2.3270   21.0020 N   0  0  0  0  0  0  0  0  0  0  0  0
    6.6970   -2.5380   22.3220 C   0  0  0  0  0  0  0  0  0  0  0  0
    5.6840   -0.9220   20.8350 C   0  0  0  0  0  0  0  0  0  0  0  0
    8.0690   -1.7860   22.1950 C   0  0  0  0  0  0  0  0  0  0  0  0
    6.8000    0.0800   21.1550 C   0  0  0  0  0  0  0  0  0  0  0  0
    7.6370   -0.2970   22.4020 C   0  0  0  0  0  0  0  0  0  0  0  0
    9.0460    0.3530   22.3880 C   0  0  0  0  0  0  0  0  0  0  0  0
    9.8850   -0.0020   21.5870 O   0  0  0  0  0  0  0  0  0  0  0  0
    9.3370    1.3180   23.3530 N   0  0  0  0  0  0  0  0  0  0  0  0
   10.0360    0.8120   24.5300 C   0  0  0  0  0  0  0  0  0  0  0  0
    9.4920    2.7860   23.0850 C   0  0  0  0  0  0  0  0  0  0  0  0
   10.9750    3.1570   22.8250 C   0  0  0  0  0  0  0  0  0  0  0  0
   11.5100    4.5820   22.7410 C   0  0  0  0  0  0  0  0  0  0  0  0
   11.9250    2.1810   22.6400 C   0  0  0  0  0  0  0  0  0  0  0  0
   12.8740    4.8670   22.4960 C   0  0  0  0  0  0  0  0  0  0  0  0
   13.2810    2.4200   22.3840 C   0  0  0  0  0  0  0  0  0  0  0  0
   13.4020    6.1370   22.4110 C   0  0  0  0  0  0  0  0  0  0  0  0
   13.8960    3.7160   22.2970 C   0  0  0  0  0  0  0  0  0  0  0  0
   13.9860    1.2640   22.2180 C   0  0  0  0  0  0  0  0  0  0  0  0
   15.1900    3.8260   22.0740 O   0  0  0  0  0  0  0  0  0  0  0  0
   15.8880    4.8020   22.9680 C   0  0  0  0  0  0  0  0  0  0  0  0
   17.4780    4.7580   23.4900 C   0  0  0  0  0  0  0  0  0  0  0  0
   17.9720    3.4570   24.1150 C   0  0  0  0  0  0  0  0  0  0  0  0
   18.5300    5.7960   23.5060 C   0  0  0  0  0  0  0  0  0  0  0  0
   19.3890    3.2950   24.7170 C   0  0  0  0  0  0  0  0  0  0  0  0
   19.8350    5.6690   24.0210 C   0  0  0  0  0  0  0  0  0  0  0  0
   20.3470    4.4230   24.6650 C   0  0  0  0  0  0  0  0  0  0  0  0
   20.8250    6.8130   23.9680 C   0  0  0  0  0  0  0  0  0  0  0  0
  1  2  1  0
  2  3  2  0
  2  4  1  0
  4  5  1  0
  4  6  1  0
  5  7  1  0
  6  8  1  0
  7  9  1  0
  8  9  1  0
  9 10  1  0
 10 11  2  0
 10 12  1  0
 12 13  1  0
 12 14  1  0
 14 15  1  0
 15 16  2  0
 15 17  1  0
 16 18  1  0
 17 19  2  0
 18 20  1  0
 18 21  2  0
 19 21  1  0
 19 22  1  0
 21 23  1  0
 23 24  1  0
 24 25  1  0
 25 26  2  0
 25 27  1  0
 26 28  1  0
 27 29  2  0
 28 30  2  0
 29 30  1  0
 29 31  1  0
M  END
