SAD-SAT-1f400d17-4-nitrile
     RDKit          3D

 23 24  0  0  0  0  0  0  0  0999 V2000
    7.4540   -3.0250   18.8810 C   0  0  0  0  0  0  0  0  0  0  0  0
    7.7390   -2.7720   17.6680 N   0  0  0  0  0  0  0  0  0  0  0  0
    6.7180   -2.1480   19.5800 N   0  0  0  0  0  0  0  0  0  0  0  0
    5.7100   -2.5370   20.5330 C   0  0  0  0  0  0  0  0  0  0  0  0
    7.0970   -0.7440   19.6270 C   0  0  0  0  0  0  0  0  0  0  0  0
    5.7260   -1.5200   21.6520 C   0  0  0  0  0  0  0  0  0  0  0  0
    7.8740   -0.5020   20.7780 C   0  0  0  0  0  0  0  0  0  0  0  0
    7.1380   -1.0430   22.0010 C   0  0  0  0  0  0  0  0  0  0  0  0
    7.9260   -2.1770   22.6870 C   0  0  0  0  0  0  0  0  0  0  0  0
    7.3050   -3.0800   23.2510 O   0  0  0  0  0  0  0  0  0  0  0  0
    9.3030   -2.1710   22.6720 N   0  0  0  0  0  0  0  0  0  0  0  0
   10.1150   -1.9440   23.8530 C   0  0  1  0  0  0  0  0  0  0  0  0
   11.1110   -3.0270   24.1630 C   0  0  0  0  0  0  0  0  0  0  0  0
   10.8630   -0.6710   23.6110 C   0  0  0  0  0  0  0  0  0  0  0  0
   12.2170   -0.7080   23.3010 C   0  0  0  0  0  0  0  0  0  0  0  0
   10.1890    0.5510   23.6820 C   0  0  0  0  0  0  0  0  0  0  0  0
   12.8390    0.5010   23.0870 C   0  0  0  0  0  0  0  0  0  0  0  0
   10.8390    1.7530   23.4450 C   0  0  0  0  0  0  0  0  0  0  0  0
   12.1960    1.7350   23.1500 C   0  0  0  0  0  0  0  0  0  0  0  0
    9.9470    3.2950   23.4860 S   0  0  0  0  0  0  0  0  0  0  0  0
    9.1160    3.2530   22.0200 N   0  0  0  0  0  0  0  0  0  0  0  0
   10.9130    4.3650   23.4270 O   0  0  0  0  0  0  0  0  0  0  0  0
    8.8960    3.2610   24.4770 O   0  0  0  0  0  0  0  0  0  0  0  0
  1  2  2  3
  1  3  1  0
  3  4  1  0
  3  5  1  0
  4  6  1  0
  5  7  1  0
  6  8  1  0
  7  8  1  0
  8  9  1  0
  9 10  2  0
  9 11  1  0
 11 12  1  0
 12 13  1  6
 12 14  1  0
 14 15  2  0
 14 16  1  0
 15 17  1  0
 16 18  2  0
 17 19  2  0
 18 19  1  0
 18 20  1  0
 20 21  1  0
 20 22  2  0
 20 23  2  0
M  END
