SAD-SAT-5b1897b2-2-vinylsulfonamide
     RDKit          3D

 18 19  0  0  0  0  0  0  0  0999 V2000
    7.8160   -2.9140   18.6370 C   0  0  0  0  0  0  0  0  0  0  0  0
    6.3860   -2.6000   18.5430 C   0  0  0  0  0  0  0  0  0  0  0  0
    5.5000   -3.2930   19.9060 S   0  0  0  0  0  0  0  0  0  0  0  0
    4.2670   -2.9210   19.5320 O   0  0  0  0  0  0  0  0  0  0  0  0
    5.4800   -4.7250   20.0550 O   0  0  0  0  0  0  0  0  0  0  0  0
    6.0680   -2.4400   21.2490 N   0  0  0  0  0  0  0  0  0  0  0  0
    7.0400   -1.3620   21.0530 C   0  0  0  0  0  0  0  0  0  0  0  0
    6.0130   -3.0270   22.4870 C   0  0  0  0  0  0  0  0  0  0  0  0
    8.3710   -1.6480   21.7450 C   0  0  0  0  0  0  0  0  0  0  0  0
    7.2680   -3.3840   22.9810 C   0  0  0  0  0  0  0  0  0  0  0  0
    8.1440   -2.3390   23.0350 N   0  0  0  0  0  0  0  0  0  0  0  0
    9.0610   -2.4370   24.0340 C   0  0  0  0  0  0  0  0  0  0  0  0
   10.3130   -1.6360   23.9100 C   0  0  0  0  0  0  0  0  0  0  0  0
   11.5360   -2.1110   24.3180 C   0  0  0  0  0  0  0  0  0  0  0  0
   10.4070   -0.3810   23.4010 N   0  0  0  0  0  0  0  0  0  0  0  0
   12.8830   -1.0260   24.1010 S   0  0  0  0  0  0  0  0  0  0  0  0
   11.7410    0.0250   23.4460 C   0  0  0  0  0  0  0  0  0  0  0  0
   12.2970    1.2970   22.9630 C   0  0  0  0  0  0  0  0  0  0  0  0
  1  2  1  0
  3  2  1  0
  3  4  2  0
  3  5  2  0
  3  6  1  0
  6  7  1  0
  6  8  1  0
  7  9  1  0
  8 10  1  0
  9 11  1  0
 10 11  1  0
 11 12  1  0
 12 13  1  0
 13 14  2  0
 13 15  1  0
 14 16  1  0
 15 17  2  0
 16 17  1  0
 17 18  1  0
M  END
