SAD-SAT-89668ff1-5
     RDKit          3D

 21 22  0  0  0  0  0  0  0  0999 V2000
   13.5530    4.7170   21.7720 N   0  0  0  0  0  0  0  0  0  0  0  0
   12.5240    4.3700   22.1560 C   0  0  0  0  0  0  0  0  0  0  0  0
   11.1310    4.0290   22.6300 C   0  0  0  0  0  0  0  0  0  0  0  0
   10.2720    5.2290   22.7200 C   0  0  0  0  0  0  0  0  0  0  0  0
   10.5720    2.7800   22.9860 C   0  0  0  0  0  0  0  0  0  0  0  0
    8.8420    5.0660   23.1730 C   0  0  0  0  0  0  0  0  0  0  0  0
    9.2140    2.7850   23.3930 C   0  0  0  0  0  0  0  0  0  0  0  0
   11.1000    1.4690   23.0500 C   0  0  0  0  0  0  0  0  0  0  0  0
    8.3680    3.8510   23.4900 N   0  0  0  0  0  0  0  0  0  0  0  0
   12.4680    1.1730   23.0270 C   0  0  0  0  0  0  0  0  0  0  0  0
   10.1820    0.4080   23.1810 C   0  0  0  0  0  0  0  0  0  0  0  0
   12.8840   -0.1520   23.1580 C   0  0  0  0  0  0  0  0  0  0  0  0
   10.6110   -0.8960   23.3100 C   0  0  0  0  0  0  0  0  0  0  0  0
   11.9740   -1.1680   23.3120 C   0  0  0  0  0  0  0  0  0  0  0  0
    9.6350   -2.0700   23.4620 C   0  0  0  0  0  0  0  0  0  0  0  0
   12.5980   -2.7480   23.5260 S   0  0  0  0  0  0  0  0  0  0  0  0
    8.4140   -1.7850   24.2180 N   0  0  0  0  0  0  0  0  0  0  0  0
    9.8610   -3.1560   22.9810 O   0  0  0  0  0  0  0  0  0  0  0  0
   13.7330   -2.5440   24.7580 N   0  0  0  0  0  0  0  0  0  0  0  0
   13.3640   -3.0740   22.3560 O   0  0  0  0  0  0  0  0  0  0  0  0
   11.5840   -3.5330   24.1840 O   0  0  0  0  0  0  0  0  0  0  0  0
  1  2  3  0
  2  3  1  0
  3  4  2  0
  3  5  1  0
  4  6  1  0
  5  7  2  0
  5  8  1  0
  6  9  2  0
  7  9  1  0
  8 10  2  0
  8 11  1  0
 10 12  1  0
 11 13  2  0
 12 14  2  0
 13 14  1  0
 13 15  1  0
 14 16  1  0
 15 17  1  0
 15 18  2  0
 16 19  1  0
 16 20  2  0
 16 21  2  0
M  END
