SAD-SAT-f2e2579e-2-bromoalkyne
     RDKit          3D

 30 33  0  0  0  0  0  0  0  0999 V2000
    6.7510   -3.8450   19.8790 C   0  0  0  0  0  0  0  0  0  0  0  0
    5.6790   -3.3640   19.2410 C   0  0  0  0  0  0  0  0  0  0  0  0
    6.8470   -4.0670   21.2280 N   0  0  0  0  0  0  0  0  0  0  0  0
    6.2810   -5.2530   21.9090 C   0  0  0  0  0  0  0  0  0  0  0  0
    7.7340   -3.1800   21.9880 C   0  0  0  0  0  0  0  0  0  0  0  0
    5.8110   -4.9260   23.3340 C   0  0  0  0  0  0  0  0  0  0  0  0
    7.0610   -2.6980   23.0820 C   0  0  0  0  0  0  0  0  0  0  0  0
    6.6840   -3.8500   24.0090 C   0  0  0  0  0  0  0  0  0  0  0  0
    5.9830   -3.2680   25.2180 C   0  0  0  0  0  0  0  0  0  0  0  0
    4.8710   -3.6610   25.5630 O   0  0  0  0  0  0  0  0  0  0  0  0
    6.6820   -2.2070   25.9450 N   0  0  0  0  0  0  0  0  0  0  0  0
    6.0400   -1.5910   26.9760 C   0  0  0  0  0  0  0  0  0  0  0  0
    7.4740   -1.2140   25.3070 C   0  0  0  0  0  0  0  0  0  0  0  0
    5.3310   -0.4730   26.5280 C   0  0  0  0  0  0  0  0  0  0  0  0
    8.0540   -0.1680   26.2910 C   0  0  0  0  0  0  0  0  0  0  0  0
    5.8660    0.6770   27.0530 C   0  0  0  0  0  0  0  0  0  0  0  0
    7.1300    0.3130   27.4000 N   0  0  0  0  0  0  0  0  0  0  0  0
    7.8520    1.1700   28.7000 S   0  0  0  0  0  0  0  0  0  0  0  0
    8.0020    2.5320   28.2450 O   0  0  0  0  0  0  0  0  0  0  0  0
    8.9720    0.3650   29.1160 O   0  0  0  0  0  0  0  0  0  0  0  0
    6.6230    1.1490   29.8900 C   0  0  0  0  0  0  0  0  0  0  0  0
    6.5020    0.0490   30.7740 C   0  0  0  0  0  0  0  0  0  0  0  0
    5.7040    2.1950   30.0410 C   0  0  0  0  0  0  0  0  0  0  0  0
    5.5070   -0.0260   31.7760 C   0  0  0  0  0  0  0  0  0  0  0  0
    4.7010    2.1850   31.0070 C   0  0  0  0  0  0  0  0  0  0  0  0
    4.5650    0.9970   31.9640 C   0  0  0  0  0  0  0  0  0  0  0  0
    3.7900    3.2910   31.1060 O   0  0  0  0  0  0  0  0  0  0  0  0
    2.6820    3.0000   31.9650 C   0  0  0  0  0  0  0  0  0  0  0  0
    3.5760    1.0000   32.9050 O   0  0  0  0  0  0  0  0  0  0  0  0
    3.1870    2.3300   33.2490 C   0  0  0  0  0  0  0  0  0  0  0  0
  1  2  2  3
  1  3  1  0
  3  4  1  0
  3  5  1  0
  4  6  1  0
  5  7  1  0
  6  8  1  0
  7  8  1  0
  8  9  1  0
  9 10  2  0
  9 11  1  0
 11 12  1  0
 11 13  1  0
 12 14  1  0
 13 15  1  0
 14 16  1  0
 15 17  1  0
 16 17  1  0
 17 18  1  0
 18 19  2  0
 18 20  2  0
 18 21  1  0
 21 22  2  0
 21 23  1  0
 22 24  1  0
 23 25  2  0
 24 26  2  0
 25 26  1  0
 25 27  1  0
 27 28  1  0
 26 29  1  0
 28 30  1  0
 29 30  1  0
M  END
