SAD-SAT-29425be4-10-nitrile
     RDKit          3D

 32 34  0  0  0  0  0  0  0  0999 V2000
    6.8080   -3.4150   19.0820 C   0  0  0  0  0  0  0  0  0  0  0  0
    6.2010   -2.9830   18.0720 N   0  0  0  0  0  0  0  0  0  0  0  0
    6.2460   -3.4010   20.2750 N   0  0  0  0  0  0  0  0  0  0  0  0
    6.1600   -2.0740   20.8530 C   0  0  0  0  0  0  0  0  0  0  0  0
    6.0240   -4.6030   21.0990 C   0  0  0  0  0  0  0  0  0  0  0  0
    7.1210   -2.0610   21.9920 C   0  0  0  0  0  0  0  0  0  0  0  0
    6.8310   -4.5310   22.2320 C   0  0  0  0  0  0  0  0  0  0  0  0
    6.6360   -3.1690   22.8670 C   0  0  0  0  0  0  0  0  0  0  0  0
    7.2860   -3.0470   24.2090 C   0  0  0  0  0  0  0  0  0  0  0  0
    6.7670   -3.6300   25.1610 O   0  0  0  0  0  0  0  0  0  0  0  0
    8.4370   -2.2570   24.3110 N   0  0  0  0  0  0  0  0  0  0  0  0
    9.7230   -2.7190   23.7710 C   0  0  0  0  0  0  0  0  0  0  0  0
   10.7030   -1.6090   23.3930 C   0  0  0  0  0  0  0  0  0  0  0  0
   12.0410   -1.8960   22.8000 C   0  0  0  0  0  0  0  0  0  0  0  0
   10.4090   -0.2620   23.5670 C   0  0  0  0  0  0  0  0  0  0  0  0
   12.9660   -0.7780   22.4260 C   0  0  0  0  0  0  0  0  0  0  0  0
   11.3860    0.8540   23.1670 C   0  0  0  0  0  0  0  0  0  0  0  0
   12.6270    0.5670   22.6120 C   0  0  0  0  0  0  0  0  0  0  0  0
   13.5940    1.5190   22.1910 N   0  0  0  0  0  0  0  0  0  0  0  0
   13.6550    2.9230   22.2060 C   0  0  0  0  0  0  0  0  0  0  0  0
   12.7110    3.9030   22.3690 O   0  0  0  0  0  0  0  0  0  0  0  0
   14.9950    3.3100   21.9810 C   0  0  0  0  0  0  0  0  0  0  0  0
   15.8640    4.4260   22.6400 C   0  0  0  0  0  0  0  0  0  0  0  0
   17.3950    4.3410   22.4670 C   0  0  0  0  0  0  0  0  0  0  0  0
   18.0770    5.4000   23.1590 O   0  0  0  0  0  0  0  0  0  0  0  0
   19.4620    5.3110   23.2920 C   0  0  0  0  0  0  0  0  0  0  0  0
   20.1640    4.7930   24.5360 C   0  0  0  0  0  0  0  0  0  0  0  0
   20.2660    5.7330   22.1990 C   0  0  0  0  0  0  0  0  0  0  0  0
   21.6890    4.7440   24.5670 C   0  0  0  0  0  0  0  0  0  0  0  0
   21.6750    5.6880   22.2350 C   0  0  0  0  0  0  0  0  0  0  0  0
   19.6580    6.2490   20.9510 C   0  0  0  0  0  0  0  0  0  0  0  0
   22.4130    5.2330   23.3200 C   0  0  0  0  0  0  0  0  0  0  0  0
  1  2  2  3
  1  3  1  0
  3  4  1  0
  3  5  1  0
  4  6  1  0
  5  7  1  0
  6  8  1  0
  7  8  1  0
  8  9  1  0
  9 10  2  0
  9 11  1  0
 11 12  1  0
 12 13  1  0
 13 14  2  0
 13 15  1  0
 14 16  1  0
 15 17  2  0
 16 18  2  0
 17 18  1  0
 18 19  1  0
 19 20  1  0
 20 21  2  0
 20 22  1  0
 22 23  1  0
 23 24  1  0
 24 25  1  0
 25 26  1  0
 26 27  2  0
 26 28  1  0
 27 29  1  0
 28 30  2  0
 28 31  1  0
 29 32  2  0
 30 32  1  0
M  END
