SAD-SAT-2ceae68f-4-chloroacetamide
     RDKit          3D

 28 30  0  0  0  0  0  0  0  0999 V2000
    7.0170   -3.0970   19.0150 C   0  0  0  0  0  0  0  0  0  0  0  0
    6.0680   -3.5570   20.0940 C   0  0  0  0  0  0  0  0  0  0  0  0
    5.2230   -4.4230   19.8480 O   0  0  0  0  0  0  0  0  0  0  0  0
    6.2190   -2.9740   21.3300 N   0  0  0  0  0  0  0  0  0  0  0  0
    6.8370   -3.6780   22.4730 C   0  0  0  0  0  0  0  0  0  0  0  0
    6.5120   -1.5500   21.3430 C   0  0  0  0  0  0  0  0  0  0  0  0
    6.9670   -2.5930   23.6050 C   0  0  0  0  0  0  0  0  0  0  0  0
    7.9940   -1.3480   21.6750 C   0  0  0  0  0  0  0  0  0  0  0  0
    8.2120   -1.7590   23.1400 C   0  0  0  0  0  0  0  0  0  0  0  0
    9.3100   -2.8310   23.3080 C   0  0  0  0  0  0  0  0  0  0  0  0
    8.9470   -3.9440   23.6760 O   0  0  0  0  0  0  0  0  0  0  0  0
   10.6930   -2.5310   23.0960 N   0  0  0  0  0  0  0  0  0  0  0  0
   11.6480   -2.6670   24.2220 C   0  0  0  0  0  0  0  0  0  0  0  0
   11.2650   -2.0750   21.7810 C   0  0  0  0  0  0  0  0  0  0  0  0
   13.1280   -2.5350   23.7870 C   0  0  0  0  0  0  0  0  0  0  0  0
   12.6690   -2.0530   21.6380 C   0  0  0  0  0  0  0  0  0  0  0  0
   13.2930   -1.6640   22.7210 N   0  0  0  0  0  0  0  0  0  0  0  0
   13.3810   -0.0960   23.2040 S   0  0  0  0  0  0  0  0  0  0  0  0
   14.2610    0.7330   22.4770 O   0  0  0  0  0  0  0  0  0  0  0  0
   13.3990   -0.3190   24.6020 O   0  0  0  0  0  0  0  0  0  0  0  0
   11.8910    0.5990   23.1140 C   0  0  0  0  0  0  0  0  0  0  0  0
   10.9070   -0.4800   23.2210 C   0  0  0  0  0  0  0  0  0  0  0  0
   11.5940    1.9570   22.9870 C   0  0  0  0  0  0  0  0  0  0  0  0
    9.6410   -0.1580   23.1850 C   0  0  0  0  0  0  0  0  0  0  0  0
   10.2610    2.1940   22.9730 C   0  0  0  0  0  0  0  0  0  0  0  0
   12.5680    3.1760   22.8750 C   0  0  0  0  0  0  0  0  0  0  0  0
    9.3480    1.1480   23.0620 C   0  0  0  0  0  0  0  0  0  0  0  0
   13.3270    4.2830   22.7850 N   0  0  0  0  0  0  0  0  0  0  0  0
  1  2  1  0
  2  3  2  0
  2  4  1  0
  4  5  1  0
  4  6  1  0
  5  7  1  0
  6  8  1  0
  7  9  1  0
  8  9  1  0
  9 10  1  0
 10 11  2  0
 10 12  1  0
 12 13  1  0
 12 14  1  0
 13 15  1  0
 14 16  1  0
 15 17  1  0
 16 17  1  0
 17 18  1  0
 18 19  2  0
 18 20  2  0
 18 21  1  0
 21 22  2  0
 21 23  1  0
 22 24  1  0
 23 25  2  0
 23 26  1  0
 24 27  2  0
 25 27  1  0
 26 28  3  0
M  END
