SAD-SAT-f2e2579e-4-vinylsulfonamide
     RDKit          3D

 30 32  0  0  0  0  0  0  0  0999 V2000
    8.0330   -3.4380   19.2290 C   0  0  0  0  0  0  0  0  0  0  0  0
    6.9920   -2.6210   19.0910 C   0  0  0  0  0  0  0  0  0  0  0  0
    5.6690   -2.9810   20.1940 S   0  0  0  0  0  0  0  0  0  0  0  0
    4.9510   -4.0500   19.5410 O   0  0  0  0  0  0  0  0  0  0  0  0
    5.0570   -1.7220   20.5470 O   0  0  0  0  0  0  0  0  0  0  0  0
    6.3850   -3.5970   21.6290 N   0  0  0  0  0  0  0  0  0  0  0  0
    7.5470   -2.8890   22.2010 C   0  0  0  0  0  0  0  0  0  0  0  0
    5.9980   -4.9050   22.1560 C   0  0  0  0  0  0  0  0  0  0  0  0
    7.3980   -2.8590   23.7200 C   0  0  0  0  0  0  0  0  0  0  0  0
    5.7790   -4.8070   23.6510 C   0  0  0  0  0  0  0  0  0  0  0  0
    5.9990   -3.3610   24.1190 C   0  0  0  0  0  0  0  0  0  0  0  0
    5.6640   -3.3000   25.6000 C   0  0  0  0  0  0  0  0  0  0  0  0
    4.6550   -3.8760   25.9750 O   0  0  0  0  0  0  0  0  0  0  0  0
    6.4930   -2.5630   26.5540 N   0  0  0  0  0  0  0  0  0  0  0  0
    6.1640   -2.7310   27.9010 C   0  0  0  0  0  0  0  0  0  0  0  0
    6.9340   -1.2270   26.2810 C   0  0  0  0  0  0  0  0  0  0  0  0
    5.4190   -1.7070   28.5530 C   0  0  0  0  0  0  0  0  0  0  0  0
    5.7990   -0.4400   26.3640 C   0  0  0  0  0  0  0  0  0  0  0  0
    5.4340   -0.4100   27.7940 N   0  0  0  0  0  0  0  0  0  0  0  0
    5.7330    0.9910   28.7080 S   0  0  0  0  0  0  0  0  0  0  0  0
    4.7490    1.0330   29.7620 O   0  0  0  0  0  0  0  0  0  0  0  0
    5.8640    2.0620   27.7470 O   0  0  0  0  0  0  0  0  0  0  0  0
    7.3070    0.7550   29.4470 C   0  0  0  0  0  0  0  0  0  0  0  0
    8.4730    0.7250   28.6740 C   0  0  0  0  0  0  0  0  0  0  0  0
    7.4300    0.6030   30.8530 C   0  0  0  0  0  0  0  0  0  0  0  0
    9.7520    0.5580   29.2150 C   0  0  0  0  0  0  0  0  0  0  0  0
    8.8340    0.4210   31.4410 C   0  0  0  0  0  0  0  0  0  0  0  0
    6.2370    0.6150   31.8310 C   0  0  0  0  0  0  0  0  0  0  0  0
    9.9060    0.4110   30.5810 C   0  0  0  0  0  0  0  0  0  0  0  0
    6.5330    0.4560   33.2400 N   0  0  0  0  0  0  0  0  0  0  0  0
  1  2  1  0
  3  2  1  0
  3  4  2  0
  3  5  2  0
  3  6  1  0
  6  7  1  0
  6  8  1  0
  7  9  1  0
  8 10  1  0
  9 11  1  0
 10 11  1  0
 11 12  1  0
 12 13  2  0
 12 14  1  0
 14 15  1  0
 14 16  1  0
 15 17  1  0
 16 18  1  0
 17 19  1  0
 18 19  1  0
 19 20  1  0
 20 21  2  0
 20 22  2  0
 20 23  1  0
 23 24  2  0
 23 25  1  0
 24 26  1  0
 25 27  2  0
 25 28  1  0
 26 29  2  0
 27 29  1  0
 28 30  3  0
M  END
