SAD-SAT-29425be4-23-nitrile
     RDKit          3D

 26 27  0  0  0  0  0  0  0  0999 V2000
    7.1850   -3.2430   18.9700 C   0  0  0  0  0  0  0  0  0  0  0  0
    6.4900   -3.0740   17.9460 N   0  0  0  0  0  0  0  0  0  0  0  0
    6.7610   -2.8270   20.1110 N   0  0  0  0  0  0  0  0  0  0  0  0
    7.2030   -1.5340   20.5730 C   0  0  0  0  0  0  0  0  0  0  0  0
    5.4570   -3.2520   20.5860 C   0  0  0  0  0  0  0  0  0  0  0  0
    7.8170   -1.9620   21.9170 C   0  0  0  0  0  0  0  0  0  0  0  0
    5.5600   -3.2300   22.0810 C   0  0  0  0  0  0  0  0  0  0  0  0
    7.0690   -3.3200   22.1750 C   0  0  0  0  0  0  0  0  0  0  0  0
    7.6840   -3.5760   23.5160 C   0  0  0  0  0  0  0  0  0  0  0  0
    7.0870   -4.0190   24.4960 O   0  0  0  0  0  0  0  0  0  0  0  0
    8.9950   -3.2290   23.4460 N   0  0  0  0  0  0  0  0  0  0  0  0
    9.5610   -2.4290   24.4650 C   0  0  1  0  0  0  0  0  0  0  0  0
    8.4050   -1.7210   25.2020 C   0  0  0  0  0  0  0  0  0  0  0  0
   10.3250   -3.4440   25.2660 C   0  0  0  0  0  0  0  0  0  0  0  0
   10.6040   -1.4640   23.8980 C   0  0  0  0  0  0  0  0  0  0  0  0
    9.9700   -4.6080   25.4240 O   0  0  0  0  0  0  0  0  0  0  0  0
   11.4270   -2.8890   25.7760 O   0  0  0  0  0  0  0  0  0  0  0  0
   11.6240   -1.8420   22.8540 C   0  0  0  0  0  0  0  0  0  0  0  0
   10.6500   -0.1420   24.3740 C   0  0  0  0  0  0  0  0  0  0  0  0
   12.5850   -2.4150   25.0450 C   0  0  0  0  0  0  0  0  0  0  0  0
   12.6870   -0.8970   22.3200 C   0  0  0  0  0  0  0  0  0  0  0  0
   11.6590    0.9290   23.9220 C   0  0  0  0  0  0  0  0  0  0  0  0
   12.6220   -2.7730   23.5880 C   0  0  0  0  0  0  0  0  0  0  0  0
   13.6720   -3.1910   25.7490 C   0  0  0  0  0  0  0  0  0  0  0  0
   12.8140   -0.9240   25.2100 C   0  0  0  0  0  0  0  0  0  0  0  0
   12.6860    0.5150   22.8860 C   0  0  0  0  0  0  0  0  0  0  0  0
  1  2  2  3
  1  3  1  0
  3  4  1  0
  3  5  1  0
  4  6  1  0
  5  7  1  0
  6  8  1  0
  7  8  1  0
  8  9  1  0
  9 10  2  0
  9 11  1  0
 11 12  1  0
 12 13  1  1
 12 14  1  0
 12 15  1  0
 14 16  2  0
 14 17  1  0
 15 18  2  0
 15 19  1  0
 20 17  1  0
 18 21  1  0
 19 22  2  0
 20 23  1  0
 20 24  1  0
 20 25  1  0
 21 26  2  0
 22 26  1  0
M  END
