SAD-SAT-1b030f84-5-vinylsulfonamide
     RDKit          3D

 19 20  0  0  0  0  0  0  0  0999 V2000
    6.6410   -4.7510   20.5380 C   0  0  0  0  0  0  0  0  0  0  0  0
    5.8030   -3.5350   20.9320 C   0  0  0  0  0  0  0  0  0  0  0  0
    5.1790   -3.5970   22.6330 S   0  0  0  0  0  0  0  0  0  0  0  0
    3.7630   -3.4820   22.5480 O   0  0  0  0  0  0  0  0  0  0  0  0
    5.9310   -2.6400   23.4240 O   0  0  0  0  0  0  0  0  0  0  0  0
    5.3980   -5.1180   23.3480 N   0  0  0  0  0  0  0  0  0  0  0  0
    5.9740   -6.1770   22.5580 C   0  0  0  0  0  0  0  0  0  0  0  0
    5.8840   -5.0620   24.7250 C   0  0  0  0  0  0  0  0  0  0  0  0
    7.4900   -6.0330   22.6460 C   0  0  0  0  0  0  0  0  0  0  0  0
    7.2440   -4.7750   24.7550 C   0  0  0  0  0  0  0  0  0  0  0  0
    7.7940   -4.8080   23.3950 N   0  0  0  0  0  0  0  0  0  0  0  0
    8.2230   -3.5460   22.8140 C   0  0  0  0  0  0  0  0  0  0  0  0
    7.5720   -2.7940   22.1120 O   0  0  0  0  0  0  0  0  0  0  0  0
    9.6080   -3.1170   23.1680 C   0  0  0  0  0  0  0  0  0  0  0  0
   10.2720   -1.8620   22.6610 C   0  0  0  0  0  0  0  0  0  0  0  0
   10.4540   -3.8270   24.0200 C   0  0  0  0  0  0  0  0  0  0  0  0
   11.8450   -1.7200   23.3110 S   0  0  0  0  0  0  0  0  0  0  0  0
   11.6870   -3.1890   24.1950 C   0  0  0  0  0  0  0  0  0  0  0  0
    9.9280   -5.3290   24.7330 Cl  0  0  0  0  0  0  0  0  0  0  0  0
  1  2  1  0
  3  2  1  0
  3  4  2  0
  3  5  2  0
  3  6  1  0
  6  7  1  0
  6  8  1  0
  7  9  1  0
  8 10  1  0
  9 11  1  0
 10 11  1  0
 11 12  1  0
 12 13  2  0
 12 14  1  0
 14 15  2  0
 14 16  1  0
 15 17  1  0
 16 18  2  0
 17 18  1  0
 16 19  1  0
M  END
