SAD-SAT-3a925b8b-4-bromoalkyne
     RDKit          3D

 15 16  0  0  0  0  0  0  0  0999 V2000
    7.0390   -4.8240   19.9970 C   0  0  0  0  0  0  0  0  0  0  0  0
    5.6540   -5.2110   20.0990 C   0  0  0  0  0  0  0  0  0  0  0  0
    7.6300   -4.1800   21.0840 N   0  0  0  0  0  0  0  0  0  0  0  0
    8.2660   -2.8660   20.9110 C   0  0  0  0  0  0  0  0  0  0  0  0
    7.0790   -4.3770   22.4350 C   0  0  0  0  0  0  0  0  0  0  0  0
    7.4980   -1.7720   21.6530 C   0  0  0  0  0  0  0  0  0  0  0  0
    6.0160   -3.3100   22.7520 C   0  0  0  0  0  0  0  0  0  0  0  0
    6.1090   -2.1900   21.8010 N   0  0  0  0  0  0  0  0  0  0  0  0
    5.4540   -2.2350   20.5740 C   0  0  0  0  0  0  0  0  0  0  0  0
    4.8480   -3.2390   20.2250 O   0  0  0  0  0  0  0  0  0  0  0  0
    5.4970   -1.0980   19.6680 C   0  0  0  0  0  0  0  0  0  0  0  0
    6.1870   -1.0200   18.4140 C   0  0  0  0  0  0  0  0  0  0  0  0
    4.8800    0.1420   19.8230 N   0  0  0  0  0  0  0  0  0  0  0  0
    6.0030    0.1830   17.8330 O   0  0  0  0  0  0  0  0  0  0  0  0
    5.2060    0.8320   18.7340 C   0  0  0  0  0  0  0  0  0  0  0  0
  1  2  2  3
  1  3  1  0
  3  4  1  0
  3  5  1  0
  4  6  1  0
  5  7  1  0
  6  8  1  0
  7  8  1  0
  8  9  1  0
  9 10  2  0
  9 11  1  0
 11 12  2  0
 11 13  1  0
 12 14  1  0
 13 15  2  0
 14 15  1  0
M  END
