SAD-SAT-3a925b8b-2-bromoalkyne
     RDKit          3D

 16 17  0  0  0  0  0  0  0  0999 V2000
    6.7120   -4.5470   20.2740 C   0  0  0  0  0  0  0  0  0  0  0  0
    5.8970   -3.5300   19.4660 C   0  0  0  0  0  0  0  0  0  0  0  0
    6.5080   -4.8300   21.6200 N   0  0  0  0  0  0  0  0  0  0  0  0
    7.3320   -4.1440   22.6310 C   0  0  0  0  0  0  0  0  0  0  0  0
    5.9270   -6.1080   22.0810 C   0  0  0  0  0  0  0  0  0  0  0  0
    6.6160   -3.9950   23.9680 C   0  0  0  0  0  0  0  0  0  0  0  0
    5.2230   -5.9700   23.4280 C   0  0  0  0  0  0  0  0  0  0  0  0
    6.0320   -5.2550   24.4140 N   0  0  0  0  0  0  0  0  0  0  0  0
    5.2990   -5.1880   25.9290 S   0  0  0  0  0  0  0  0  0  0  0  0
    6.2430   -4.6300   26.8700 O   0  0  0  0  0  0  0  0  0  0  0  0
    4.6140   -6.4420   26.1550 O   0  0  0  0  0  0  0  0  0  0  0  0
    4.0080   -4.0490   25.8540 C   0  0  0  0  0  0  0  0  0  0  0  0
    2.6880   -4.2540   25.3530 C   0  0  0  0  0  0  0  0  0  0  0  0
    3.9730   -2.7130   26.2540 C   0  0  0  0  0  0  0  0  0  0  0  0
    1.8900   -3.0830   25.4530 C   0  0  0  0  0  0  0  0  0  0  0  0
    2.7230   -2.1490   26.0170 O   0  0  0  0  0  0  0  0  0  0  0  0
  1  2  2  3
  1  3  1  0
  3  4  1  0
  3  5  1  0
  4  6  1  0
  5  7  1  0
  6  8  1  0
  7  8  1  0
  8  9  1  0
  9 10  2  0
  9 11  2  0
  9 12  1  0
 12 13  1  0
 12 14  2  0
 13 15  2  0
 14 16  1  0
 15 16  1  0
M  END
