SAD-SAT-9a6c5cf3-7-nitrile
     RDKit          3D

 30 32  0  0  0  0  0  0  0  0999 V2000
    6.8790   -4.0370   20.2230 C   0  0  0  0  0  0  0  0  0  0  0  0
    5.7360   -4.4480   19.8610 N   0  0  0  0  0  0  0  0  0  0  0  0
    7.2650   -4.1720   21.5100 N   0  0  0  0  0  0  0  0  0  0  0  0
    8.0180   -3.1020   22.1960 C   0  0  0  0  0  0  0  0  0  0  0  0
    6.7630   -5.2350   22.3160 C   0  0  0  0  0  0  0  0  0  0  0  0
    7.1660   -2.4520   23.2660 C   0  0  0  0  0  0  0  0  0  0  0  0
    5.9210   -4.6870   23.4610 C   0  0  0  0  0  0  0  0  0  0  0  0
    6.5780   -3.5150   24.1880 C   0  0  0  0  0  0  0  0  0  0  0  0
    5.6910   -2.9330   25.2930 C   0  0  0  0  0  0  0  0  0  0  0  0
    4.4890   -2.8080   25.0850 O   0  0  0  0  0  0  0  0  0  0  0  0
    6.2280   -2.5950   26.5350 N   0  0  0  0  0  0  0  0  0  0  0  0
    5.5960   -3.2170   27.6840 C   0  0  0  0  0  0  0  0  0  0  0  0
    6.5300   -1.1660   26.7890 C   0  0  0  0  0  0  0  0  0  0  0  0
    6.3440   -3.0890   28.9740 C   0  0  0  0  0  0  0  0  0  0  0  0
    7.1680   -0.9110   28.0280 C   0  0  0  0  0  0  0  0  0  0  0  0
    6.5850   -1.6480   29.1930 N   0  0  0  0  0  0  0  0  0  0  0  0
    5.4750   -0.7240   30.0780 S   0  0  0  0  0  0  0  0  0  0  0  0
    4.4750   -1.6180   30.6080 O   0  0  0  0  0  0  0  0  0  0  0  0
    5.1350    0.3890   29.2200 O   0  0  0  0  0  0  0  0  0  0  0  0
    6.3890   -0.0490   31.4390 C   0  0  0  0  0  0  0  0  0  0  0  0
    7.6790    0.4680   31.2460 C   0  0  0  0  0  0  0  0  0  0  0  0
    5.8250   -0.0320   32.7300 C   0  0  0  0  0  0  0  0  0  0  0  0
    8.4140    1.0020   32.3180 C   0  0  0  0  0  0  0  0  0  0  0  0
    6.6430    0.5530   33.8830 C   0  0  0  0  0  0  0  0  0  0  0  0
    4.4230   -0.5680   33.0720 C   0  0  0  0  0  0  0  0  0  0  0  0
   10.0450    1.6530   32.0260 S   0  0  0  0  0  0  0  0  0  0  0  0
    7.9090    1.0450   33.6210 C   0  0  0  0  0  0  0  0  0  0  0  0
   10.7860    0.4410   30.9710 C   0  0  0  0  0  0  0  0  0  0  0  0
    9.8630    2.8740   31.2770 O   0  0  0  0  0  0  0  0  0  0  0  0
   10.7530    1.6220   33.2860 O   0  0  0  0  0  0  0  0  0  0  0  0
  1  2  2  3
  1  3  1  0
  3  4  1  0
  3  5  1  0
  4  6  1  0
  5  7  1  0
  6  8  1  0
  7  8  1  0
  8  9  1  0
  9 10  2  0
  9 11  1  0
 11 12  1  0
 11 13  1  0
 12 14  1  0
 13 15  1  0
 14 16  1  0
 15 16  1  0
 16 17  1  0
 17 18  2  0
 17 19  2  0
 17 20  1  0
 20 21  2  0
 20 22  1  0
 21 23  1  0
 22 24  2  0
 22 25  1  0
 23 26  1  0
 23 27  2  0
 24 27  1  0
 26 28  1  0
 26 29  2  0
 26 30  2  0
M  END
