SAD-SAT-29425be4-11-acrylamide
     RDKit          3D

 28 29  0  0  0  0  0  0  0  0999 V2000
    7.3460   -2.7680   18.2360 C   0  0  0  0  0  0  0  0  0  0  0  0
    6.2170   -2.2410   19.0850 C   0  0  0  0  0  0  0  0  0  0  0  0
    5.8370   -3.1400   20.2180 C   0  0  0  0  0  0  0  0  0  0  0  0
    5.2270   -4.2140   20.0230 O   0  0  0  0  0  0  0  0  0  0  0  0
    6.2400   -2.6500   21.4490 N   0  0  0  0  0  0  0  0  0  0  0  0
    6.2550   -3.4070   22.7020 C   0  0  0  0  0  0  0  0  0  0  0  0
    6.9470   -1.3580   21.4540 C   0  0  0  0  0  0  0  0  0  0  0  0
    7.6480   -3.4720   23.3340 C   0  0  0  0  0  0  0  0  0  0  0  0
    8.3810   -1.4770   21.9300 C   0  0  0  0  0  0  0  0  0  0  0  0
    8.4320   -2.1410   23.3090 C   0  0  0  0  0  0  0  0  0  0  0  0
    9.8900   -2.3660   23.7240 C   0  0  0  0  0  0  0  0  0  0  0  0
   10.2060   -3.4510   24.1740 O   0  0  0  0  0  0  0  0  0  0  0  0
   10.8340   -1.3310   23.5980 N   0  0  0  0  0  0  0  0  0  0  0  0
   10.8220   -0.2410   24.5760 C   0  0  0  0  0  0  0  0  0  0  0  0
   12.2030   -1.6930   23.0650 C   0  0  0  0  0  0  0  0  0  0  0  0
   11.0110    1.1510   24.0070 C   0  0  0  0  0  0  0  0  0  0  0  0
   12.9260   -2.6200   24.0710 C   0  0  0  0  0  0  0  0  0  0  0  0
   13.0940   -0.4840   22.8400 C   0  0  0  0  0  0  0  0  0  0  0  0
   12.2650   -2.3560   21.6790 C   0  0  0  0  0  0  0  0  0  0  0  0
    9.9940    2.1100   24.0400 C   0  0  0  0  0  0  0  0  0  0  0  0
   12.2330    1.5260   23.4250 C   0  0  0  0  0  0  0  0  0  0  0  0
   10.1950    3.3940   23.5160 C   0  0  0  0  0  0  0  0  0  0  0  0
   12.4300    2.8100   22.9020 C   0  0  0  0  0  0  0  0  0  0  0  0
   11.4170    3.7550   22.9460 C   0  0  0  0  0  0  0  0  0  0  0  0
   11.5110    5.0380   22.4730 O   0  0  0  0  0  0  0  0  0  0  0  0
   10.5110    6.0040   22.8120 C   0  0  0  0  0  0  0  0  0  0  0  0
   10.7040    6.6120   24.1760 C   0  0  0  0  0  0  0  0  0  0  0  0
   11.7210    6.3840   25.0170 C   0  0  0  0  0  0  0  0  0  0  0  0
  1  2  1  0
  2  3  1  0
  3  4  2  0
  3  5  1  0
  5  6  1  0
  5  7  1  0
  6  8  1  0
  7  9  1  0
  8 10  1  0
  9 10  1  0
 10 11  1  0
 11 12  2  0
 11 13  1  0
 13 14  1  0
 15 13  1  0
 14 16  1  0
 15 17  1  0
 15 18  1  0
 15 19  1  0
 16 20  2  0
 16 21  1  0
 20 22  1  0
 21 23  2  0
 22 24  2  0
 23 24  1  0
 24 25  1  0
 25 26  1  0
 26 27  1  0
 27 28  2  3
M  END
