SAD-SAT-5b1897b2-3-acrylamide
     RDKit          3D

 16 17  0  0  0  0  0  0  0  0999 V2000
    7.8710   -3.2700   19.0440 C   0  0  0  0  0  0  0  0  0  0  0  0
    6.6630   -2.3960   18.9100 C   0  0  0  0  0  0  0  0  0  0  0  0
    5.9450   -2.5880   20.1940 C   0  0  0  0  0  0  0  0  0  0  0  0
    4.9610   -3.2680   20.2160 O   0  0  0  0  0  0  0  0  0  0  0  0
    6.4920   -2.0220   21.3290 N   0  0  0  0  0  0  0  0  0  0  0  0
    6.5310   -2.8410   22.5550 C   0  0  0  0  0  0  0  0  0  0  0  0
    7.5440   -1.1450   21.2650 C   0  0  0  0  0  0  0  0  0  0  0  0
    7.8020   -2.6240   23.3840 C   0  0  0  0  0  0  0  0  0  0  0  0
    8.7590   -1.8260   21.3670 C   0  0  0  0  0  0  0  0  0  0  0  0
    9.0210   -2.2610   22.5630 N   0  0  0  0  0  0  0  0  0  0  0  0
   10.0020   -1.4160   23.1200 C   0  0  0  0  0  0  0  0  0  0  0  0
   10.9390   -1.7680   24.0860 C   0  0  0  0  0  0  0  0  0  0  0  0
   10.0630   -0.1150   22.6660 N   0  0  0  0  0  0  0  0  0  0  0  0
   11.9500   -0.7120   24.6140 C   0  0  0  0  0  0  0  0  0  0  0  0
   10.9500    0.8600   23.0960 C   0  0  0  0  0  0  0  0  0  0  0  0
   11.8790    0.6390   24.0420 C   0  0  0  0  0  0  0  0  0  0  0  0
  1  2  1  0
  2  3  1  0
  3  4  2  0
  3  5  1  0
  5  6  1  0
  5  7  1  0
  6  8  1  0
  7  9  1  0
  8 10  1  0
  9 10  1  0
 10 11  1  0
 11 12  2  0
 11 13  1  0
 12 14  1  0
 13 15  2  0
 14 16  2  0
 15 16  1  0
M  END
