SAD-SAT-9a6c5cf3-1-acrylamide
     RDKit          3D

 36 39  0  0  0  0  0  0  0  0999 V2000
    7.3620   -2.8940   18.4820 C   0  0  0  0  0  0  0  0  0  0  0  0
    6.6590   -2.5260   19.5490 C   0  0  0  0  0  0  0  0  0  0  0  0
    6.0470   -3.7030   20.2800 C   0  0  0  0  0  0  0  0  0  0  0  0
    5.1400   -4.3990   19.8000 O   0  0  0  0  0  0  0  0  0  0  0  0
    6.5940   -3.9610   21.5230 N   0  0  0  0  0  0  0  0  0  0  0  0
    6.3300   -5.2390   22.1830 C   0  0  0  0  0  0  0  0  0  0  0  0
    7.5510   -3.0080   22.1080 C   0  0  0  0  0  0  0  0  0  0  0  0
    5.9580   -4.9920   23.6530 C   0  0  0  0  0  0  0  0  0  0  0  0
    7.3820   -2.9150   23.6070 C   0  0  0  0  0  0  0  0  0  0  0  0
    6.0230   -3.5040   23.9980 C   0  0  0  0  0  0  0  0  0  0  0  0
    5.5990   -3.1910   25.4180 C   0  0  0  0  0  0  0  0  0  0  0  0
    4.4560   -3.4890   25.7410 O   0  0  0  0  0  0  0  0  0  0  0  0
    6.4460   -2.5890   26.3560 N   0  0  0  0  0  0  0  0  0  0  0  0
    6.9480   -1.2360   26.2320 C   0  0  0  0  0  0  0  0  0  0  0  0
    5.8900   -2.7540   27.6540 C   0  0  0  0  0  0  0  0  0  0  0  0
    5.8800   -0.3660   26.3100 C   0  0  0  0  0  0  0  0  0  0  0  0
    5.0420   -1.6740   28.0140 C   0  0  0  0  0  0  0  0  0  0  0  0
    5.5850   -0.3160   27.6390 N   0  0  0  0  0  0  0  0  0  0  0  0
    6.3730    0.2660   28.6620 C   0  0  0  0  0  0  0  0  0  0  0  0
    7.4910   -0.4510   29.1580 C   0  0  0  0  0  0  0  0  0  0  0  0
    6.1100    1.5110   29.2180 C   0  0  0  0  0  0  0  0  0  0  0  0
    8.3360    0.0390   30.1810 C   0  0  0  0  0  0  0  0  0  0  0  0
    7.0200    2.0330   30.3160 C   0  0  0  0  0  0  0  0  0  0  0  0
    5.0000    2.3610   28.8120 N   0  0  0  0  0  0  0  0  0  0  0  0
    8.1280    1.2890   30.7910 C   0  0  0  0  0  0  0  0  0  0  0  0
    5.2820    3.3250   28.0830 O   0  0  0  0  0  0  0  0  0  0  0  0
    3.9690    2.2770   29.5000 O   0  0  0  0  0  0  0  0  0  0  0  0
    9.1810    1.9070   32.0800 S   0  0  0  0  0  0  0  0  0  0  0  0
    9.1810    3.3500   32.0200 O   0  0  0  0  0  0  0  0  0  0  0  0
   10.4180    1.1610   32.0640 O   0  0  0  0  0  0  0  0  0  0  0  0
    8.3300    1.4540   33.4670 N   0  0  0  0  0  0  0  0  0  0  0  0
    7.9690    2.5470   34.4000 C   0  0  0  0  0  0  0  0  0  0  0  0
    8.8700    0.3900   34.1220 C   0  0  0  0  0  0  0  0  0  0  0  0
    7.2170    1.9920   35.6240 C   0  0  0  0  0  0  0  0  0  0  0  0
    9.1510    0.6820   35.4730 C   0  0  0  0  0  0  0  0  0  0  0  0
    7.9600    0.9360   36.2360 O   0  0  0  0  0  0  0  0  0  0  0  0
  1  2  1  0
  2  3  1  0
  3  4  2  0
  3  5  1  0
  5  6  1  0
  5  7  1  0
  6  8  1  0
  7  9  1  0
  8 10  1  0
  9 10  1  0
 10 11  1  0
 11 12  2  0
 11 13  1  0
 13 14  1  0
 13 15  1  0
 14 16  1  0
 15 17  1  0
 16 18  1  0
 17 18  1  0
 18 19  1  0
 19 20  2  0
 19 21  1  0
 20 22  1  0
 21 23  2  0
 21 24  1  0
 22 25  2  0
 23 25  1  0
 24 26  2  0
 24 27  1  0
 28 25  1  0
 28 29  2  0
 28 30  2  0
 28 31  1  0
 31 32  1  0
 31 33  1  0
 32 34  1  0
 33 35  1  0
 34 36  1  0
 35 36  1  0
M  CHG  2  24   1  27  -1
M  END
