SAD-SAT-1f400d17-5-chloroacetamide
     RDKit          3D

 24 25  0  0  0  0  0  0  0  0999 V2000
    7.8070   -3.1070   18.8670 C   0  0  0  0  0  0  0  0  0  0  0  0
    6.6550   -2.5790   18.5400 C   0  0  0  0  0  0  0  0  0  0  0  0
    5.8610   -3.0760   17.7840 O   0  0  0  0  0  0  0  0  0  0  0  0
    6.2820   -1.4060   19.1370 N   0  0  0  0  0  0  0  0  0  0  0  0
    6.0560   -0.1670   18.3610 C   0  0  0  0  0  0  0  0  0  0  0  0
    5.1740   -1.8550   19.9140 C   0  0  0  0  0  0  0  0  0  0  0  0
    5.0620    0.8190   18.9890 C   0  0  0  0  0  0  0  0  0  0  0  0
    5.5600   -2.8070   21.0320 C   0  0  0  0  0  0  0  0  0  0  0  0
    4.9910   -4.1310   20.9480 O   0  0  0  0  0  0  0  0  0  0  0  0
    6.4200   -2.3050   22.0730 N   0  0  0  0  0  0  0  0  0  0  0  0
    7.5010   -3.0040   22.6290 C   0  0  0  0  0  0  0  0  0  0  0  0
    6.6680   -0.8890   21.9280 C   0  0  0  0  0  0  0  0  0  0  0  0
    8.3000   -2.3710   23.6170 C   0  0  0  0  0  0  0  0  0  0  0  0
    8.1490   -0.6720   21.8260 C   0  0  0  0  0  0  0  0  0  0  0  0
    8.7340   -1.0180   23.1160 N   0  0  0  0  0  0  0  0  0  0  0  0
   10.0320   -0.5230   23.1820 C   0  0  0  0  0  0  0  0  0  0  0  0
   10.2590    0.7970   22.7240 C   0  0  0  0  0  0  0  0  0  0  0  0
   11.1700   -1.1550   23.6390 C   0  0  0  0  0  0  0  0  0  0  0  0
   11.5190    1.4460   22.6980 C   0  0  0  0  0  0  0  0  0  0  0  0
   12.5270   -0.4900   23.5810 C   0  0  0  0  0  0  0  0  0  0  0  0
   11.2790   -2.3990   24.2020 N   0  0  0  0  0  0  0  0  0  0  0  0
   12.6290    0.7710   23.1170 C   0  0  0  0  0  0  0  0  0  0  0  0
   10.2870   -3.1270   24.1730 O   0  0  0  0  0  0  0  0  0  0  0  0
   12.0250   -2.2610   25.1700 O   0  0  0  0  0  0  0  0  0  0  0  0
  1  2  1  0
  2  3  2  0
  2  4  1  0
  4  5  1  0
  4  6  1  0
  5  7  1  0
  6  8  1  0
  8  9  2  0
  8 10  1  0
 10 11  1  0
 10 12  1  0
 11 13  1  0
 12 14  1  0
 13 15  1  0
 14 15  1  0
 15 16  1  0
 16 17  2  0
 16 18  1  0
 17 19  1  0
 18 20  2  0
 18 21  1  0
 19 22  2  0
 20 22  1  0
 21 23  2  0
 21 24  1  0
M  CHG  2  21   1  24  -1
M  END
