SAD-SAT-b55127ae-6-acrylamide
     RDKit          3D

 25 27  0  0  0  0  0  0  0  0999 V2000
    7.0920   -3.2090   19.0550 C   0  0  0  0  0  0  0  0  0  0  0  0
    6.1150   -3.8090   20.0460 C   0  0  0  0  0  0  0  0  0  0  0  0
    5.2510   -2.7780   20.7020 C   0  0  0  0  0  0  0  0  0  0  0  0
    4.6240   -3.1200   21.7030 O   0  0  0  0  0  0  0  0  0  0  0  0
    5.1560   -1.4900   20.1390 N   0  0  0  0  0  0  0  0  0  0  0  0
    4.8870   -0.3230   20.9620 C   0  0  0  0  0  0  0  0  0  0  0  0
    5.7410   -1.1530   18.8210 C   0  0  0  0  0  0  0  0  0  0  0  0
    5.9890    0.6790   20.7780 C   0  0  0  0  0  0  0  0  0  0  0  0
    6.8370   -0.2410   18.8440 C   0  0  0  0  0  0  0  0  0  0  0  0
    7.2600    0.3400   20.2110 C   0  0  0  0  0  0  0  0  0  0  0  0
    7.9160   -0.8010   20.8100 C   0  0  0  0  0  0  0  0  0  0  0  0
    7.2100   -1.9190   20.6120 O   0  0  0  0  0  0  0  0  0  0  0  0
    9.0590   -0.8470   21.5650 N   0  0  0  0  0  0  0  0  0  0  0  0
    8.7730   -1.6980   22.7060 C   0  0  0  0  0  0  0  0  0  0  0  0
    7.4470   -1.8080   22.8770 C   0  0  0  0  0  0  0  0  0  0  0  0
    9.6160   -2.4320   23.6710 N   0  0  0  0  0  0  0  0  0  0  0  0
    7.1930   -2.5460   23.8590 C   0  0  0  0  0  0  0  0  0  0  0  0
    8.4650   -2.9450   24.3680 N   0  0  0  0  0  0  0  0  0  0  0  0
   10.7020   -1.8420   22.8720 C   0  0  0  0  0  0  0  0  0  0  0  0
   10.8750   -0.2950   22.9080 C   0  0  0  0  0  0  0  0  0  0  0  0
    9.7010    0.6770   22.9940 C   0  0  0  0  0  0  0  0  0  0  0  0
   12.3950    0.5920   22.8340 S   0  0  0  0  0  0  0  0  0  0  0  0
   10.1880    2.0940   22.9600 C   0  0  0  0  0  0  0  0  0  0  0  0
   11.7080    2.1850   22.8590 C   0  0  0  0  0  0  0  0  0  0  0  0
   12.6510    3.6130   22.7700 Cl  0  0  0  0  0  0  0  0  0  0  0  0
  1  2  1  0
  2  3  1  0
  3  4  2  0
  3  5  1  0
  5  6  1  0
  5  7  1  0
  6  8  1  0
  7  9  1  0
  8 10  1  0
  9 10  1  0
 10 11  1  0
 11 12  2  0
 11 13  1  0
 13 14  1  0
 14 15  2  0
 14 16  1  0
 15 17  1  0
 16 18  1  0
 17 18  2  0
 16 19  1  0
 19 20  1  0
 20 21  2  0
 20 22  1  0
 21 23  1  0
 22 24  1  0
 23 24  2  0
 24 25  1  0
M  END
