SAD-SAT-bc31ec01-10-chloroacetamide
     RDKit          3D

 27 29  0  0  0  0  0  0  0  0999 V2000
    7.8130   -3.4970   20.3000 C   0  0  0  0  0  0  0  0  0  0  0  0
    6.9560   -2.3330   19.7310 C   0  0  0  0  0  0  0  0  0  0  0  0
    6.1490   -2.6790   18.7790 O   0  0  0  0  0  0  0  0  0  0  0  0
    7.1780   -0.9890   20.3660 N   0  0  0  0  0  0  0  0  0  0  0  0
    7.7810   -0.8180   21.7150 C   0  0  0  0  0  0  0  0  0  0  0  0
    6.6730    0.3480   19.9060 C   0  0  0  0  0  0  0  0  0  0  0  0
    8.7460    0.2650   21.8640 C   0  0  0  0  0  0  0  0  0  0  0  0
    6.8280    1.5420   20.9700 C   0  0  0  0  0  0  0  0  0  0  0  0
    8.2020    1.6650   21.6470 N   0  0  0  0  0  0  0  0  0  0  0  0
    8.7820    2.9250   22.8380 S   0  0  0  0  0  0  0  0  0  0  0  0
    8.0280    2.9140   24.0500 O   0  0  0  0  0  0  0  0  0  0  0  0
    9.0440    4.2250   22.3040 O   0  0  0  0  0  0  0  0  0  0  0  0
   10.3770    2.2070   23.1060 C   0  0  0  0  0  0  0  0  0  0  0  0
   11.6050    2.9290   22.6470 C   0  0  0  0  0  0  0  0  0  0  0  0
   10.4800    0.9510   23.7150 C   0  0  0  0  0  0  0  0  0  0  0  0
   12.8080    2.3100   22.8040 C   0  0  0  0  0  0  0  0  0  0  0  0
   11.7380    0.3990   23.8180 C   0  0  0  0  0  0  0  0  0  0  0  0
    9.4170    0.1450   24.2340 C   0  0  0  0  0  0  0  0  0  0  0  0
   12.8640    1.0420   23.3660 C   0  0  0  0  0  0  0  0  0  0  0  0
    8.5810    0.8290   25.0760 C   0  0  0  0  0  0  0  0  0  0  0  0
    9.1860   -1.2280   23.9610 C   0  0  0  0  0  0  0  0  0  0  0  0
    7.3980    0.2600   25.7560 C   0  0  0  0  0  0  0  0  0  0  0  0
    8.0810   -1.8750   24.5460 C   0  0  0  0  0  0  0  0  0  0  0  0
   10.0680   -1.9540   23.0970 C   0  0  0  0  0  0  0  0  0  0  0  0
    7.2170   -1.1880   25.4030 C   0  0  0  0  0  0  0  0  0  0  0  0
    7.8310   -3.1700   24.2960 F   0  0  0  0  0  0  0  0  0  0  0  0
   10.8360   -2.5000   22.4250 N   0  0  0  0  0  0  0  0  0  0  0  0
  1  2  1  0
  2  3  2  0
  2  4  1  0
  4  5  1  0
  4  6  1  0
  5  7  1  0
  6  8  1  0
  7  9  1  0
  8  9  1  0
  9 10  1  0
 10 11  2  0
 10 12  2  0
 10 13  1  0
 13 14  2  0
 13 15  1  0
 14 16  1  0
 15 17  2  0
 15 18  1  0
 16 19  2  0
 17 19  1  0
 18 20  2  0
 18 21  1  0
 20 22  1  0
 21 23  2  0
 21 24  1  0
 22 25  2  0
 23 25  1  0
 23 26  1  0
 24 27  3  0
M  END
