SAD-SAT-f0a2747f-9-nitrile
     RDKit          3D

 20 21  0  0  0  0  0  0  0  0999 V2000
    8.1420   -3.5340   19.6670 C   0  0  0  0  0  0  0  0  0  0  0  0
    6.9600   -3.4960   19.0860 N   0  0  0  0  0  0  0  0  0  0  0  0
    8.4000   -2.9330   20.8820 N   0  0  0  0  0  0  0  0  0  0  0  0
    8.2330   -3.6700   22.0630 C   0  0  0  0  0  0  0  0  0  0  0  0
    7.9210   -1.5560   21.0870 C   0  0  0  0  0  0  0  0  0  0  0  0
    7.4700   -3.0120   23.0340 C   0  0  0  0  0  0  0  0  0  0  0  0
    6.5790   -1.5720   21.5180 C   0  0  0  0  0  0  0  0  0  0  0  0
    6.3270   -2.4890   22.5460 N   0  0  0  0  0  0  0  0  0  0  0  0
    5.3680   -3.5190   22.0840 C   0  0  0  0  0  0  0  0  0  0  0  0
    4.5850   -4.0830   23.1120 C   0  0  0  0  0  0  0  0  0  0  0  0
    4.9630   -5.6890   23.5990 S   0  0  0  0  0  0  0  0  0  0  0  0
    5.1390   -6.4960   22.4120 O   0  0  0  0  0  0  0  0  0  0  0  0
    4.0800   -6.0860   24.6780 O   0  0  0  0  0  0  0  0  0  0  0  0
    6.5600   -5.3650   24.2760 C   0  0  0  0  0  0  0  0  0  0  0  0
    6.6250   -4.6380   25.5840 C   0  0  0  0  0  0  0  0  0  0  0  0
    7.7060   -5.7630   23.5990 C   0  0  0  0  0  0  0  0  0  0  0  0
    7.9740   -4.3580   26.0990 C   0  0  0  0  0  0  0  0  0  0  0  0
    8.9780   -5.5010   24.0830 C   0  0  0  0  0  0  0  0  0  0  0  0
    9.1310   -4.8090   25.2990 C   0  0  0  0  0  0  0  0  0  0  0  0
   10.8410   -4.4180   25.9440 Br  0  0  0  0  0  0  0  0  0  0  0  0
  1  2  2  3
  1  3  1  0
  3  4  1  0
  3  5  1  0
  4  6  1  0
  5  7  1  0
  6  8  1  0
  7  8  1  0
  8  9  1  0
  9 10  1  0
 11 10  1  0
 11 12  2  0
 11 13  2  0
 11 14  1  0
 14 15  2  0
 14 16  1  0
 15 17  1  0
 16 18  2  0
 17 19  2  0
 18 19  1  0
 19 20  1  0
M  END
