SAD-SAT-1f400d17-9-chloroacetamide
     RDKit          3D

 27 30  0  0  0  0  0  0  0  0999 V2000
    7.3390   -4.3860   20.6940 C   0  0  0  0  0  0  0  0  0  0  0  0
    6.5190   -3.3580   20.1950 C   0  0  0  0  0  0  0  0  0  0  0  0
    5.6520   -4.1930   19.8640 O   0  0  0  0  0  0  0  0  0  0  0  0
    7.6600   -2.6090   20.6750 N   0  0  0  0  0  0  0  0  0  0  0  0
    7.6000   -1.1440   20.8900 C   0  0  0  0  0  0  0  0  0  0  0  0
    8.8750   -3.2450   21.2000 C   0  0  0  0  0  0  0  0  0  0  0  0
    7.9380   -0.6810   22.3250 C   0  0  0  0  0  0  0  0  0  0  0  0
    9.7360   -2.3310   22.0530 C   0  0  0  0  0  0  0  0  0  0  0  0
    8.8480   -1.6600   23.0870 C   0  0  0  0  0  0  0  0  0  0  0  0
    8.0830   -2.7440   23.8550 C   0  0  0  0  0  0  0  0  0  0  0  0
    8.9800   -3.7320   24.4030 O   0  0  0  0  0  0  0  0  0  0  0  0
    6.6180   -2.7620   23.9990 N   0  0  0  0  0  0  0  0  0  0  0  0
    5.9490   -2.8340   25.2410 C   0  0  0  0  0  0  0  0  0  0  0  0
    5.8360   -2.2070   22.9630 C   0  0  0  0  0  0  0  0  0  0  0  0
    4.8930   -1.9250   25.4910 C   0  0  0  0  0  0  0  0  0  0  0  0
    5.4890   -0.7660   23.3560 C   0  0  2  0  0  0  0  0  0  0  0  0
    4.1160   -2.0710   26.6470 C   0  0  0  0  0  0  0  0  0  0  0  0
    4.6180   -0.8830   24.6000 C   0  0  0  0  0  0  0  0  0  0  0  0
    5.0280    0.0350   22.1170 C   0  0  0  0  0  0  0  0  0  0  0  0
    3.0730   -1.1830   26.9140 C   0  0  0  0  0  0  0  0  0  0  0  0
    3.5910   -0.0120   24.8700 C   0  0  0  0  0  0  0  0  0  0  0  0
    4.9800   -0.6960   20.7610 C   0  0  0  0  0  0  0  0  0  0  0  0
    4.6430    1.5060   22.2330 C   0  0  0  0  0  0  0  0  0  0  0  0
    2.8110   -0.1410   26.0130 C   0  0  0  0  0  0  0  0  0  0  0  0
    4.5430    0.0650   19.5010 C   0  0  0  0  0  0  0  0  0  0  0  0
    4.2050    2.2510   20.9600 C   0  0  0  0  0  0  0  0  0  0  0  0
    4.1550    1.5340   19.6000 C   0  0  0  0  0  0  0  0  0  0  0  0
  1  2  1  0
  2  3  2  0
  2  4  1  0
  4  5  1  0
  4  6  1  0
  5  7  1  0
  6  8  1  0
  7  9  1  0
  8  9  1  0
  9 10  1  0
 10 11  2  0
 10 12  1  0
 12 13  1  0
 12 14  1  0
 13 15  1  0
 14 16  1  0
 15 17  2  0
 15 18  1  0
 16 18  1  0
 16 19  1  6
 17 20  1  0
 18 21  2  0
 19 22  2  0
 19 23  1  0
 20 24  2  0
 21 24  1  0
 22 25  1  0
 23 26  2  0
 25 27  2  0
 26 27  1  0
M  END
