SAD-SAT-c989feaa-2-bromoalkyne
     RDKit          3D

 21 22  0  0  0  0  0  0  0  0999 V2000
    6.8630   -3.4140   19.6820 C   0  0  0  0  0  0  0  0  0  0  0  0
    5.8440   -2.8810   18.7450 C   0  0  0  0  0  0  0  0  0  0  0  0
    6.8390   -3.0230   21.0070 N   0  0  0  0  0  0  0  0  0  0  0  0
    6.4620   -3.8780   22.1360 C   0  0  0  0  0  0  0  0  0  0  0  0
    7.0750   -1.6120   21.3320 C   0  0  0  0  0  0  0  0  0  0  0  0
    7.3420   -3.6120   23.3660 C   0  0  0  0  0  0  0  0  0  0  0  0
    8.1500   -1.4580   22.4280 C   0  0  2  0  0  0  0  0  0  0  0  0
    8.4880   -2.7460   23.0730 N   0  0  0  0  0  0  0  0  0  0  0  0
    7.7750   -0.3260   23.4290 C   0  0  0  0  0  0  0  0  0  0  0  0
    9.4160   -2.5600   24.0760 C   0  0  0  0  0  0  0  0  0  0  0  0
    8.0790    1.1530   23.0670 C   0  0  0  0  0  0  0  0  0  0  0  0
   10.4190   -1.5570   23.8570 C   0  0  0  0  0  0  0  0  0  0  0  0
    8.8670    1.2180   21.7480 C   0  0  0  0  0  0  0  0  0  0  0  0
    8.8460    1.9130   24.1530 C   0  0  0  0  0  0  0  0  0  0  0  0
   10.5620   -0.2670   24.5350 C   0  0  0  0  0  0  0  0  0  0  0  0
   11.3400   -1.8680   22.8700 C   0  0  0  0  0  0  0  0  0  0  0  0
   11.5650    0.7140   24.2630 C   0  0  0  0  0  0  0  0  0  0  0  0
   12.3260   -0.9730   22.5640 C   0  0  0  0  0  0  0  0  0  0  0  0
   12.4140    0.3350   23.2950 C   0  0  0  0  0  0  0  0  0  0  0  0
   13.2770   -1.2500   21.5190 C   0  0  0  0  0  0  0  0  0  0  0  0
   14.0640   -1.3450   20.3190 N   0  0  0  0  0  0  0  0  0  0  0  0
  1  2  2  3
  1  3  1  0
  3  4  1  0
  3  5  1  0
  4  6  1  0
  5  7  1  0
  6  8  1  0
  7  8  1  0
  7  9  1  1
  8 10  1  0
  9 11  1  0
 10 12  1  0
 11 13  1  0
 11 14  1  0
 12 15  2  0
 12 16  1  0
 15 17  1  0
 16 18  2  0
 17 19  2  0
 18 19  1  0
 18 20  1  0
 20 21  3  0
M  END
