SAD-SAT-29425be4-28-acrylamide
     RDKit          3D

 26 27  0  0  0  0  0  0  0  0999 V2000
    7.8020   -2.7950   18.7050 C   0  0  0  0  0  0  0  0  0  0  0  0
    6.3080   -2.8570   18.9540 C   0  0  0  0  0  0  0  0  0  0  0  0
    5.8560   -3.6360   20.1320 C   0  0  0  0  0  0  0  0  0  0  0  0
    5.1890   -4.6500   19.9800 O   0  0  0  0  0  0  0  0  0  0  0  0
    6.2100   -3.1660   21.3590 N   0  0  0  0  0  0  0  0  0  0  0  0
    6.5960   -1.7920   21.7110 C   0  0  0  0  0  0  0  0  0  0  0  0
    5.9320   -4.0250   22.4780 C   0  0  0  0  0  0  0  0  0  0  0  0
    8.1150   -1.8740   22.1000 C   0  0  0  0  0  0  0  0  0  0  0  0
    6.8050   -3.5630   23.6230 C   0  0  0  0  0  0  0  0  0  0  0  0
    8.1560   -3.0220   23.1440 C   0  0  0  0  0  0  0  0  0  0  0  0
    8.7690   -2.2750   24.3350 C   0  0  0  0  0  0  0  0  0  0  0  0
    8.2370   -1.4040   25.0140 O   0  0  0  0  0  0  0  0  0  0  0  0
   10.1150   -2.8290   24.4860 N   0  0  0  0  0  0  0  0  0  0  0  0
   11.1670   -1.9010   24.7460 C   0  0  2  0  0  0  0  0  0  0  0  0
   10.8710   -0.5960   23.9780 C   0  0  0  0  0  0  0  0  0  0  0  0
   12.0010   -1.4600   23.6180 C   0  0  0  0  0  0  0  0  0  0  0  0
   11.9960   -2.1300   22.3780 C   0  0  0  0  0  0  0  0  0  0  0  0
   12.7780   -0.3780   23.7670 C   0  0  0  0  0  0  0  0  0  0  0  0
   12.7400   -1.6860   21.2740 C   0  0  0  0  0  0  0  0  0  0  0  0
   13.5460    0.0810   22.6170 C   0  0  0  0  0  0  0  0  0  0  0  0
   13.5160   -0.5280   21.3850 C   0  0  0  0  0  0  0  0  0  0  0  0
   14.1810    0.1130   20.4850 O   0  0  0  0  0  0  0  0  0  0  0  0
   14.7270   -0.3190   19.2040 C   0  0  0  0  0  0  0  0  0  0  0  0
   15.7050    0.6880   18.6110 C   0  0  0  0  0  0  0  0  0  0  0  0
   15.4650    2.0780   19.1680 C   0  0  0  0  0  0  0  0  0  0  0  0
   15.5180    0.6860   17.1020 C   0  0  0  0  0  0  0  0  0  0  0  0
  1  2  1  0
  2  3  1  0
  3  4  2  0
  3  5  1  0
  5  6  1  0
  5  7  1  0
  6  8  1  0
  7  9  1  0
  8 10  1  0
  9 10  1  0
 10 11  1  0
 11 12  2  0
 11 13  1  0
 13 14  1  0
 14 15  1  6
 14 16  1  0
 16 17  2  0
 16 18  1  0
 17 19  1  0
 18 20  2  0
 19 21  2  0
 20 21  1  0
 21 22  1  0
 22 23  1  0
 23 24  1  0
 24 25  1  0
 24 26  1  0
M  END
