SAD-SAT-f2e2579e-5-acrylamide
     RDKit          3D

 31 33  0  0  0  0  0  0  0  0999 V2000
    8.0380   -3.4430   19.7760 C   0  0  0  0  0  0  0  0  0  0  0  0
    6.8660   -2.9390   19.4320 C   0  0  0  0  0  0  0  0  0  0  0  0
    5.9810   -3.7970   20.2580 C   0  0  0  0  0  0  0  0  0  0  0  0
    5.1020   -4.4630   19.7380 O   0  0  0  0  0  0  0  0  0  0  0  0
    6.2760   -3.8330   21.6200 N   0  0  0  0  0  0  0  0  0  0  0  0
    7.4260   -3.0330   22.1000 C   0  0  0  0  0  0  0  0  0  0  0  0
    6.0740   -5.0780   22.3370 C   0  0  0  0  0  0  0  0  0  0  0  0
    7.4130   -2.8540   23.6350 C   0  0  0  0  0  0  0  0  0  0  0  0
    5.8060   -4.7930   23.8220 C   0  0  0  0  0  0  0  0  0  0  0  0
    6.0890   -3.3220   24.2280 C   0  0  0  0  0  0  0  0  0  0  0  0
    5.8810   -3.1550   25.7430 C   0  0  0  0  0  0  0  0  0  0  0  0
    5.0260   -3.8570   26.2610 O   0  0  0  0  0  0  0  0  0  0  0  0
    6.6080   -2.2170   26.5280 N   0  0  0  0  0  0  0  0  0  0  0  0
    6.3720   -1.9600   27.9820 C   0  0  0  0  0  0  0  0  0  0  0  0
    6.9210   -0.9240   26.0210 C   0  0  0  0  0  0  0  0  0  0  0  0
    6.5950   -0.6110   28.4130 C   0  0  0  0  0  0  0  0  0  0  0  0
    5.8050   -0.1280   26.2490 C   0  0  0  0  0  0  0  0  0  0  0  0
    5.9020    0.3110   27.6500 N   0  0  0  0  0  0  0  0  0  0  0  0
    4.4160    0.8620   28.3160 S   0  0  0  0  0  0  0  0  0  0  0  0
    4.7740    1.9410   29.2090 O   0  0  0  0  0  0  0  0  0  0  0  0
    3.4860    1.0530   27.2280 O   0  0  0  0  0  0  0  0  0  0  0  0
    3.8700   -0.4950   29.2050 C   0  0  0  0  0  0  0  0  0  0  0  0
    4.3340   -0.7230   30.5250 C   0  0  0  0  0  0  0  0  0  0  0  0
    2.9580   -1.4190   28.6740 C   0  0  0  0  0  0  0  0  0  0  0  0
    3.9280   -1.8180   31.3210 C   0  0  0  0  0  0  0  0  0  0  0  0
    2.5270   -2.5130   29.4140 C   0  0  0  0  0  0  0  0  0  0  0  0
    3.0160   -2.7740   30.8390 C   0  0  0  0  0  0  0  0  0  0  0  0
    2.4720   -4.1660   31.7950 S   0  0  0  0  0  0  0  0  0  0  0  0
    3.0480   -5.4810   30.8770 N   0  0  0  0  0  0  0  0  0  0  0  0
    1.0270   -4.1970   31.7680 O   0  0  0  0  0  0  0  0  0  0  0  0
    3.2100   -4.1950   33.0370 O   0  0  0  0  0  0  0  0  0  0  0  0
  1  2  1  0
  2  3  1  0
  3  4  2  0
  3  5  1  0
  5  6  1  0
  5  7  1  0
  6  8  1  0
  7  9  1  0
  8 10  1  0
  9 10  1  0
 10 11  1  0
 11 12  2  0
 11 13  1  0
 13 14  1  0
 13 15  1  0
 14 16  1  0
 15 17  1  0
 16 18  1  0
 17 18  1  0
 18 19  1  0
 19 20  2  0
 19 21  2  0
 19 22  1  0
 22 23  2  0
 22 24  1  0
 23 25  1  0
 24 26  2  0
 25 27  2  0
 26 27  1  0
 27 28  1  0
 28 29  1  0
 28 30  2  0
 28 31  2  0
M  END
