SAD-SAT-1f400d17-5-bromoalkyne
     RDKit          3D

 23 24  0  0  0  0  0  0  0  0999 V2000
    7.4760   -3.2930   19.2720 C   0  0  0  0  0  0  0  0  0  0  0  0
    6.6400   -2.7640   18.4160 C   0  0  0  0  0  0  0  0  0  0  0  0
    7.2100   -2.8540   20.4640 N   0  0  0  0  0  0  0  0  0  0  0  0
    8.2910   -2.3100   21.3120 C   0  0  0  0  0  0  0  0  0  0  0  0
    5.8570   -2.3870   20.5880 C   0  0  0  0  0  0  0  0  0  0  0  0
    8.5330   -0.8130   21.0990 C   0  0  0  0  0  0  0  0  0  0  0  0
    5.3940   -2.9540   21.8640 C   0  0  0  0  0  0  0  0  0  0  0  0
    4.5410   -3.8380   21.9470 O   0  0  0  0  0  0  0  0  0  0  0  0
    6.1200   -2.3410   22.9580 N   0  0  0  0  0  0  0  0  0  0  0  0
    6.6130   -1.0490   22.7220 C   0  0  0  0  0  0  0  0  0  0  0  0
    7.0230   -3.2200   23.7190 C   0  0  0  0  0  0  0  0  0  0  0  0
    7.3820   -0.4140   23.7030 C   0  0  0  0  0  0  0  0  0  0  0  0
    8.4550   -2.6710   24.0120 C   0  0  0  0  0  0  0  0  0  0  0  0
    8.6170   -1.1940   23.8730 N   0  0  0  0  0  0  0  0  0  0  0  0
    9.8830   -0.5950   23.6520 C   0  0  0  0  0  0  0  0  0  0  0  0
    9.9970    0.6890   23.0760 C   0  0  0  0  0  0  0  0  0  0  0  0
   11.1050   -1.2060   23.9800 C   0  0  0  0  0  0  0  0  0  0  0  0
   11.2250    1.3490   22.8250 C   0  0  0  0  0  0  0  0  0  0  0  0
   12.4370   -0.5170   23.6920 C   0  0  0  0  0  0  0  0  0  0  0  0
   11.1690   -2.4710   24.5990 N   0  0  0  0  0  0  0  0  0  0  0  0
   12.4160    0.7240   23.1330 C   0  0  0  0  0  0  0  0  0  0  0  0
   12.2750   -3.0230   24.5530 O   0  0  0  0  0  0  0  0  0  0  0  0
   10.4530   -2.4880   25.5950 O   0  0  0  0  0  0  0  0  0  0  0  0
  1  2  2  3
  1  3  1  0
  3  4  1  0
  3  5  1  0
  4  6  1  0
  5  7  1  0
  7  8  2  0
  7  9  1  0
  9 10  1  0
  9 11  1  0
 10 12  1  0
 11 13  1  0
 12 14  1  0
 13 14  1  0
 14 15  1  0
 15 16  2  0
 15 17  1  0
 16 18  1  0
 17 19  2  0
 17 20  1  0
 18 21  2  0
 19 21  1  0
 20 22  2  0
 20 23  1  0
M  CHG  2  20   1  23  -1
M  END
