SAD-SAT-29425be4-12-acrylamide
     RDKit          3D

 27 28  0  0  0  0  0  0  0  0999 V2000
    7.9560   -3.2830   19.1180 C   0  0  0  0  0  0  0  0  0  0  0  0
    6.7390   -2.4660   18.8210 C   0  0  0  0  0  0  0  0  0  0  0  0
    5.7970   -2.7760   19.9120 C   0  0  0  0  0  0  0  0  0  0  0  0
    4.9320   -3.6170   19.7150 O   0  0  0  0  0  0  0  0  0  0  0  0
    6.0510   -2.1380   21.0960 N   0  0  0  0  0  0  0  0  0  0  0  0
    5.5670   -2.5450   22.4140 C   0  0  0  0  0  0  0  0  0  0  0  0
    7.2030   -1.2000   21.0800 C   0  0  0  0  0  0  0  0  0  0  0  0
    6.8170   -3.1950   23.0660 C   0  0  0  0  0  0  0  0  0  0  0  0
    8.2530   -1.5690   21.9290 C   0  0  0  0  0  0  0  0  0  0  0  0
    7.6660   -1.9340   23.2840 C   0  0  0  0  0  0  0  0  0  0  0  0
    8.6460   -2.6200   24.2290 C   0  0  0  0  0  0  0  0  0  0  0  0
    8.4030   -3.7120   24.6960 O   0  0  0  0  0  0  0  0  0  0  0  0
    9.8810   -1.8230   24.4270 N   0  0  0  0  0  0  0  0  0  0  0  0
   10.1580   -0.5000   25.0430 C   0  0  1  0  0  0  0  0  0  0  0  0
   11.2660   -0.4530   24.0920 C   0  0  0  0  0  0  0  0  0  0  0  0
    9.1340    0.6570   24.9080 C   0  0  0  0  0  0  0  0  0  0  0  0
   11.0100   -1.6710   23.2610 C   0  0  0  0  0  0  0  0  0  0  0  0
   12.3560    0.3370   23.8030 C   0  0  0  0  0  0  0  0  0  0  0  0
    8.7840    0.9510   23.4640 C   0  0  0  0  0  0  0  0  0  0  0  0
    7.8390    0.4090   25.7160 C   0  0  0  0  0  0  0  0  0  0  0  0
   11.7880   -2.0300   22.2430 C   0  0  0  0  0  0  0  0  0  0  0  0
   13.2160   -0.1110   22.6410 C   0  0  0  0  0  0  0  0  0  0  0  0
   12.8660   -1.2860   21.9220 C   0  0  0  0  0  0  0  0  0  0  0  0
   13.4370   -1.8350   20.8770 C   0  0  0  0  0  0  0  0  0  0  0  0
   13.4720   -3.3390   20.9830 C   0  0  0  0  0  0  0  0  0  0  0  0
   14.2290   -4.2130   19.9750 C   0  0  0  0  0  0  0  0  0  0  0  0
   15.0900   -5.3790   20.4780 C   0  0  0  0  0  0  0  0  0  0  0  0
  1  2  1  0
  2  3  1  0
  3  4  2  0
  3  5  1  0
  5  6  1  0
  5  7  1  0
  6  8  1  0
  7  9  1  0
  8 10  1  0
  9 10  1  0
 10 11  1  0
 11 12  2  0
 11 13  1  0
 14 13  1  6
 14 15  1  0
 14 16  1  0
 15 17  2  0
 15 18  1  0
 16 19  1  0
 16 20  1  0
 17 21  1  0
 18 22  2  0
 21 23  2  0
 22 23  1  0
 23 24  1  0
 24 25  1  0
 25 26  1  0
 26 27  1  0
M  END
