SAD-SAT-c989feaa-6-chloroacetamide
     RDKit          3D

 21 22  0  0  0  0  0  0  0  0999 V2000
    7.5220   -3.0910   18.9260 C   0  0  0  0  0  0  0  0  0  0  0  0
    6.3940   -3.2740   19.9350 C   0  0  0  0  0  0  0  0  0  0  0  0
    5.5430   -4.1700   19.7820 O   0  0  0  0  0  0  0  0  0  0  0  0
    6.3340   -2.3860   21.0110 N   0  0  0  0  0  0  0  0  0  0  0  0
    7.2280   -1.2280   21.1060 C   0  0  0  0  0  0  0  0  0  0  0  0
    5.9670   -2.9380   22.3210 C   0  0  0  0  0  0  0  0  0  0  0  0
    8.4670   -1.5510   21.9370 C   0  0  0  0  0  0  0  0  0  0  0  0
    7.2170   -3.3260   23.1220 C   0  0  2  0  0  0  0  0  0  0  0  0
    8.1450   -2.1820   23.2230 N   0  0  0  0  0  0  0  0  0  0  0  0
    7.8610   -4.5490   22.4940 C   0  0  0  0  0  0  0  0  0  0  0  0
    9.1830   -2.2330   24.1360 C   0  0  0  0  0  0  0  0  0  0  0  0
    7.8330   -5.7940   23.3580 C   0  0  0  0  0  0  0  0  0  0  0  0
   10.3040   -1.3730   23.8410 C   0  0  0  0  0  0  0  0  0  0  0  0
    9.2310   -6.3340   23.6850 C   0  0  0  0  0  0  0  0  0  0  0  0
    6.9840   -6.8170   22.5930 C   0  0  0  0  0  0  0  0  0  0  0  0
   10.5780   -0.0630   24.4210 C   0  0  0  0  0  0  0  0  0  0  0  0
   11.1860   -1.8620   22.8930 C   0  0  0  0  0  0  0  0  0  0  0  0
   11.6830    0.8110   24.1130 C   0  0  0  0  0  0  0  0  0  0  0  0
   12.3710   -1.0260   22.5030 C   0  0  0  0  0  0  0  0  0  0  0  0
   12.5370    0.3100   23.1770 C   0  0  0  0  0  0  0  0  0  0  0  0
   13.4570   -1.5710   21.3420 Cl  0  0  0  0  0  0  0  0  0  0  0  0
  1  2  1  0
  2  3  2  0
  2  4  1  0
  4  5  1  0
  4  6  1  0
  5  7  1  0
  6  8  1  0
  7  9  1  0
  8  9  1  0
  8 10  1  6
  9 11  1  0
 10 12  1  0
 11 13  1  0
 12 14  1  0
 12 15  1  0
 13 16  2  0
 13 17  1  0
 16 18  1  0
 17 19  2  0
 18 20  2  0
 19 20  1  0
 19 21  1  0
M  END
