SAD-SAT-2ceae68f-10-chloroacetamide
     RDKit          3D

 20 21  0  0  0  0  0  0  0  0999 V2000
    6.8530   -3.3910   19.5270 C   0  0  0  0  0  0  0  0  0  0  0  0
    5.5770   -3.0500   20.3210 C   0  0  0  0  0  0  0  0  0  0  0  0
    5.0240   -3.7910   19.4870 O   0  0  0  0  0  0  0  0  0  0  0  0
    6.5110   -2.3250   21.0280 N   0  0  0  0  0  0  0  0  0  0  0  0
    6.2780   -1.0630   21.7420 C   0  0  0  0  0  0  0  0  0  0  0  0
    7.5310   -0.2450   21.3160 C   0  0  0  0  0  0  0  0  0  0  0  0
    7.4270    0.9400   22.3290 C   0  0  0  0  0  0  0  0  0  0  0  0
    6.5170    1.7690   22.3350 O   0  0  0  0  0  0  0  0  0  0  0  0
    8.5710    0.9320   23.2840 N   0  0  0  0  0  0  0  0  0  0  0  0
    8.4800    1.1080   24.7360 C   0  0  0  0  0  0  0  0  0  0  0  0
    9.9210    0.6820   22.7730 C   0  0  0  0  0  0  0  0  0  0  0  0
    9.2450   -0.0310   25.4550 C   0  0  0  0  0  0  0  0  0  0  0  0
   10.6210   -0.4430   23.5640 C   0  0  2  0  0  0  0  0  0  0  0  0
   10.5890   -0.1450   24.9650 O   0  0  0  0  0  0  0  0  0  0  0  0
   12.0980   -0.7080   23.1880 C   0  0  0  0  0  0  0  0  0  0  0  0
   11.8980   -1.7070   22.1620 C   0  0  0  0  0  0  0  0  0  0  0  0
   13.2640   -1.6100   22.1640 S   0  0  0  0  0  0  0  0  0  0  0  0
   10.5320   -1.9340   22.0260 C   0  0  0  0  0  0  0  0  0  0  0  0
   11.7760   -2.2550   21.5970 C   0  0  0  0  0  0  0  0  0  0  0  0
   11.8640   -1.0780   22.8360 Cl  0  0  0  0  0  0  0  0  0  0  0  0
  1  2  1  0
  2  3  2  0
  2  4  1  0
  4  5  1  0
  5  6  1  0
  6  7  1  0
  7  8  2  0
  7  9  1  0
  9 10  1  0
  9 11  1  0
 10 12  1  0
 11 13  1  0
 12 14  1  0
 13 14  1  0
 13 15  1  6
 15 16  2  0
 15 17  1  0
 16 18  1  0
 17 19  1  0
 18 19  2  0
 19 20  1  0
M  END
