SAD-SAT-1f400d17-10-vinylsulfonamide
     RDKit          3D

 21 22  0  0  0  0  0  0  0  0999 V2000
    7.4300   -2.8860   18.3200 C   0  0  0  0  0  0  0  0  0  0  0  0
    6.6580   -2.3070   19.2310 C   0  0  0  0  0  0  0  0  0  0  0  0
    5.8830   -3.3990   20.3920 S   0  0  0  0  0  0  0  0  0  0  0  0
    4.6990   -2.8420   20.8300 O   0  0  0  0  0  0  0  0  0  0  0  0
    5.8450   -4.7920   20.0400 O   0  0  0  0  0  0  0  0  0  0  0  0
    6.8440   -2.8940   21.6660 N   0  0  0  0  0  0  0  0  0  0  0  0
    6.4830   -1.4940   21.9810 C   0  0  0  0  0  0  0  0  0  0  0  0
    7.0020   -3.7780   22.8080 C   0  0  0  0  0  0  0  0  0  0  0  0
    7.7150   -0.6270   21.8380 C   0  0  0  0  0  0  0  0  0  0  0  0
    7.9600   -3.0970   23.8120 C   0  0  0  0  0  0  0  0  0  0  0  0
    8.9450   -1.5330   21.9280 C   0  0  0  0  0  0  0  0  0  0  0  0
    9.0600   -2.3590   23.1450 N   0  0  0  0  0  0  0  0  0  0  0  0
   10.2260   -2.2110   23.8880 C   0  0  0  0  0  0  0  0  0  0  0  0
   10.7130   -3.0340   24.6430 O   0  0  0  0  0  0  0  0  0  0  0  0
   10.9400   -0.9140   23.7080 C   0  0  0  0  0  0  0  0  0  0  0  0
   12.2270   -0.8910   23.1330 C   0  0  0  0  0  0  0  0  0  0  0  0
   10.3050    0.2710   24.1070 C   0  0  0  0  0  0  0  0  0  0  0  0
   12.8840    0.3240   22.9610 C   0  0  0  0  0  0  0  0  0  0  0  0
   10.9560    1.4780   23.9230 C   0  0  0  0  0  0  0  0  0  0  0  0
   12.2180    1.4670   23.3630 C   0  0  0  0  0  0  0  0  0  0  0  0
   10.3720    2.6250   24.2740 F   0  0  0  0  0  0  0  0  0  0  0  0
  1  2  1  0
  3  2  1  0
  3  4  2  0
  3  5  2  0
  3  6  1  0
  6  7  1  0
  6  8  1  0
  7  9  1  0
  8 10  1  0
  9 11  1  0
 10 12  1  0
 11 12  1  0
 12 13  1  0
 13 14  2  0
 13 15  1  0
 15 16  2  0
 15 17  1  0
 16 18  1  0
 17 19  2  0
 18 20  2  0
 19 20  1  0
 19 21  1  0
M  END
