SAD-SAT-2ceae68f-2-bromoalkyne
     RDKit          3D

 28 30  0  0  0  0  0  0  0  0999 V2000
    8.1500   -3.8080   19.8840 C   0  0  0  0  0  0  0  0  0  0  0  0
    7.0720   -3.2830   18.9150 C   0  0  0  0  0  0  0  0  0  0  0  0
    7.6220   -4.0710   21.1470 N   0  0  0  0  0  0  0  0  0  0  0  0
    7.5620   -5.3760   21.8580 C   0  0  0  0  0  0  0  0  0  0  0  0
    6.4470   -3.2140   21.4100 C   0  0  0  0  0  0  0  0  0  0  0  0
    8.8040   -5.3590   22.8060 C   0  0  0  0  0  0  0  0  0  0  0  0
    5.5210   -3.7250   22.5120 C   0  0  0  0  0  0  0  0  0  0  0  0
    4.4080   -4.2030   22.2600 O   0  0  0  0  0  0  0  0  0  0  0  0
    6.0020   -3.6020   23.8030 N   0  0  0  0  0  0  0  0  0  0  0  0
    5.1490   -3.1620   24.9130 C   0  0  0  0  0  0  0  0  0  0  0  0
    7.3960   -3.1830   23.8350 C   0  0  0  0  0  0  0  0  0  0  0  0
    5.9980   -2.4610   26.0070 C   0  0  0  0  0  0  0  0  0  0  0  0
    7.5440   -1.6870   23.5860 C   0  0  0  0  0  0  0  0  0  0  0  0
    6.7120   -1.1310   25.7240 C   0  0  0  0  0  0  0  0  0  0  0  0
    7.6820   -0.9730   24.8400 N   0  0  0  0  0  0  0  0  0  0  0  0
    8.7400    0.2900   24.9510 S   0  0  0  0  0  0  0  0  0  0  0  0
    8.1460    1.3950   24.2300 O   0  0  0  0  0  0  0  0  0  0  0  0
    9.0840    0.3770   26.3430 O   0  0  0  0  0  0  0  0  0  0  0  0
   10.2550   -0.1720   24.1190 C   0  0  0  0  0  0  0  0  0  0  0  0
   10.6060   -1.5240   23.9080 C   0  0  0  0  0  0  0  0  0  0  0  0
   11.1370    0.7910   23.6680 C   0  0  0  0  0  0  0  0  0  0  0  0
   11.8090   -1.9020   23.2730 C   0  0  0  0  0  0  0  0  0  0  0  0
   12.3150    0.3960   23.0680 C   0  0  0  0  0  0  0  0  0  0  0  0
   10.9020    2.1870   23.7910 C   0  0  0  0  0  0  0  0  0  0  0  0
   12.7010   -0.9220   22.8410 C   0  0  0  0  0  0  0  0  0  0  0  0
   12.9760    1.6810   22.7760 C   0  0  0  0  0  0  0  0  0  0  0  0
   11.6780    3.2700   23.4050 C   0  0  0  0  0  0  0  0  0  0  0  0
   12.9350    2.9770   22.8060 N   0  0  0  0  0  0  0  0  0  0  0  0
  1  2  2  3
  1  3  1  0
  3  4  1  0
  3  5  1  0
  4  6  1  0
  5  7  1  0
  7  8  2  0
  7  9  1  0
  9 10  1  0
  9 11  1  0
 10 12  1  0
 11 13  1  0
 12 14  1  0
 13 15  1  0
 14 15  1  0
 15 16  1  0
 16 17  2  0
 16 18  2  0
 16 19  1  0
 19 20  2  0
 19 21  1  0
 20 22  1  0
 21 23  2  0
 21 24  1  0
 22 25  2  0
 23 25  1  0
 23 26  1  0
 24 27  2  0
 26 28  2  0
 27 28  1  0
M  END
