SAD-SAT-f0a2747f-10-bromoalkyne
     RDKit          3D

 13 14  0  0  0  0  0  0  0  0999 V2000
    6.3830   -4.9280   20.3020 C   0  0  0  0  0  0  0  0  0  0  0  0
    5.7090   -6.1890   19.8440 C   0  0  0  0  0  0  0  0  0  0  0  0
    6.2530   -4.6750   21.6590 N   0  0  0  0  0  0  0  0  0  0  0  0
    5.6640   -5.7390   22.4050 C   0  0  0  0  0  0  0  0  0  0  0  0
    5.7750   -3.3570   22.1120 C   0  0  0  0  0  0  0  0  0  0  0  0
    4.5760   -5.4560   23.2260 C   0  0  0  0  0  0  0  0  0  0  0  0
    5.6310   -3.3500   23.6400 C   0  0  1  0  0  0  0  0  0  0  0  0
    4.9470   -4.4850   24.2080 O   0  0  0  0  0  0  0  0  0  0  0  0
    6.8870   -3.2960   24.1940 C   0  0  0  0  0  0  0  0  0  0  0  0
    7.8640   -4.4030   24.3380 C   0  0  0  0  0  0  0  0  0  0  0  0
    7.5090   -1.8410   24.8220 S   0  0  0  0  0  0  0  0  0  0  0  0
    9.0950   -4.0050   24.9680 C   0  0  0  0  0  0  0  0  0  0  0  0
    8.9890   -2.5630   25.2830 C   0  0  0  0  0  0  0  0  0  0  0  0
  1  2  2  3
  1  3  1  0
  3  4  1  0
  3  5  1  0
  4  6  1  0
  5  7  1  0
  6  8  1  0
  7  8  1  0
  7  9  1  1
  9 10  2  0
  9 11  1  0
 10 12  1  0
 11 13  1  0
 12 13  2  0
M  END
