SAD-SAT-29425be4-9-nitrile
     RDKit          3D

 26 27  0  0  0  0  0  0  0  0999 V2000
    6.9680   -3.9710   19.8340 C   0  0  0  0  0  0  0  0  0  0  0  0
    6.1800   -4.9850   20.0070 N   0  0  0  0  0  0  0  0  0  0  0  0
    6.5260   -2.7190   19.9370 N   0  0  0  0  0  0  0  0  0  0  0  0
    5.2510   -2.6930   20.4940 C   0  0  0  0  0  0  0  0  0  0  0  0
    7.3390   -1.6260   20.4220 C   0  0  0  0  0  0  0  0  0  0  0  0
    5.4010   -3.1160   21.9430 C   0  0  0  0  0  0  0  0  0  0  0  0
    7.6460   -1.7730   21.7690 C   0  0  0  0  0  0  0  0  0  0  0  0
    6.5320   -2.3710   22.6470 C   0  0  0  0  0  0  0  0  0  0  0  0
    7.2390   -3.2280   23.6760 C   0  0  0  0  0  0  0  0  0  0  0  0
    6.7960   -4.3420   23.9710 O   0  0  0  0  0  0  0  0  0  0  0  0
    8.3860   -2.6690   24.2480 N   0  0  0  0  0  0  0  0  0  0  0  0
    9.7230   -2.9760   23.7270 C   0  0  0  0  0  0  0  0  0  0  0  0
   10.6620   -1.7920   23.4920 C   0  0  0  0  0  0  0  0  0  0  0  0
   11.9910   -1.9730   22.8320 C   0  0  0  0  0  0  0  0  0  0  0  0
   10.3170   -0.4900   23.8710 C   0  0  0  0  0  0  0  0  0  0  0  0
   12.8730   -0.7920   22.6110 C   0  0  0  0  0  0  0  0  0  0  0  0
   11.1750    0.6090   23.6390 C   0  0  0  0  0  0  0  0  0  0  0  0
   12.4370    0.4630   23.0240 C   0  0  0  0  0  0  0  0  0  0  0  0
   10.7400    1.8560   24.0360 C   0  0  0  0  0  0  0  0  0  0  0  0
   10.3520    2.9580   23.1020 C   0  0  0  0  0  0  0  0  0  0  0  0
    9.8180    2.7850   22.0150 O   0  0  0  0  0  0  0  0  0  0  0  0
   10.6550    4.0310   23.6290 O   0  0  0  0  0  0  0  0  0  0  0  0
   11.5350    5.0020   23.0010 C   0  0  0  0  0  0  0  0  0  0  0  0
   12.4040    5.3990   23.9360 C   0  0  0  0  0  0  0  0  0  0  0  0
   10.7280    6.2370   22.6040 C   0  0  0  0  0  0  0  0  0  0  0  0
   12.3650    4.3860   21.8670 C   0  0  0  0  0  0  0  0  0  0  0  0
  1  2  2  3
  1  3  1  0
  3  4  1  0
  3  5  1  0
  4  6  1  0
  5  7  1  0
  6  8  1  0
  7  8  1  0
  8  9  1  0
  9 10  2  0
  9 11  1  0
 11 12  1  0
 12 13  1  0
 13 14  2  0
 13 15  1  0
 14 16  1  0
 15 17  2  0
 16 18  2  0
 17 18  1  0
 17 19  1  0
 19 20  1  0
 20 21  2  0
 20 22  1  0
 23 22  1  0
 23 24  1  0
 23 25  1  0
 23 26  1  0
M  END
