SAD-SAT-29425be4-9-vinylsulfonamide
     RDKit          3D

 29 30  0  0  0  0  0  0  0  0999 V2000
    7.1470   -2.8680   18.6420 C   0  0  0  0  0  0  0  0  0  0  0  0
    6.5110   -2.3610   19.9230 C   0  0  0  0  0  0  0  0  0  0  0  0
    5.7210   -3.6780   20.8290 S   0  0  0  0  0  0  0  0  0  0  0  0
    4.6700   -3.1090   21.6140 O   0  0  0  0  0  0  0  0  0  0  0  0
    5.4260   -4.8210   19.9810 O   0  0  0  0  0  0  0  0  0  0  0  0
    6.9150   -4.0760   21.9580 N   0  0  0  0  0  0  0  0  0  0  0  0
    7.4650   -2.8840   22.5860 C   0  0  0  0  0  0  0  0  0  0  0  0
    6.5400   -5.1660   22.8590 C   0  0  0  0  0  0  0  0  0  0  0  0
    6.4780   -2.2950   23.5760 C   0  0  0  0  0  0  0  0  0  0  0  0
    5.7110   -4.6920   24.0600 C   0  0  0  0  0  0  0  0  0  0  0  0
    6.1760   -3.3340   24.6480 C   0  0  0  0  0  0  0  0  0  0  0  0
    7.4220   -3.5300   25.5180 C   0  0  0  0  0  0  0  0  0  0  0  0
    7.3540   -4.2890   26.4940 O   0  0  0  0  0  0  0  0  0  0  0  0
    8.5930   -2.8270   25.1850 N   0  0  0  0  0  0  0  0  0  0  0  0
    9.6030   -3.3900   24.2740 C   0  0  0  0  0  0  0  0  0  0  0  0
   10.7670   -2.4780   24.0130 C   0  0  0  0  0  0  0  0  0  0  0  0
   11.1560   -1.7050   25.1840 C   0  0  0  0  0  0  0  0  0  0  0  0
   11.4990   -2.2760   22.8290 C   0  0  0  0  0  0  0  0  0  0  0  0
   12.2020   -0.8220   25.1450 C   0  0  0  0  0  0  0  0  0  0  0  0
   12.5630   -1.3310   22.8510 C   0  0  0  0  0  0  0  0  0  0  0  0
   12.8790   -0.6510   23.9950 C   0  0  0  0  0  0  0  0  0  0  0  0
   13.3910   -0.9740   21.6990 C   0  0  0  0  0  0  0  0  0  0  0  0
   13.7980    0.5370   21.5680 C   0  0  0  0  0  0  0  0  0  0  0  0
   13.5780    1.2340   22.7080 O   0  0  0  0  0  0  0  0  0  0  0  0
   14.3250    0.9810   20.3180 O   0  0  0  0  0  0  0  0  0  0  0  0
   14.6930    2.3860   19.8730 C   0  0  0  0  0  0  0  0  0  0  0  0
   15.9830    2.2050   19.1830 C   0  0  0  0  0  0  0  0  0  0  0  0
   14.4320    3.5860   20.7760 C   0  0  0  0  0  0  0  0  0  0  0  0
   14.2730    2.9300   18.5460 C   0  0  0  0  0  0  0  0  0  0  0  0
  1  2  1  0
  3  2  1  0
  3  4  2  0
  3  5  2  0
  3  6  1  0
  6  7  1  0
  6  8  1  0
  7  9  1  0
  8 10  1  0
  9 11  1  0
 10 11  1  0
 11 12  1  0
 12 13  2  0
 12 14  1  0
 14 15  1  0
 15 16  1  0
 16 17  2  0
 16 18  1  0
 17 19  1  0
 18 20  2  0
 19 21  2  0
 20 21  1  0
 20 22  1  0
 22 23  1  0
 23 24  2  0
 23 25  1  0
 26 25  1  0
 26 27  1  0
 26 28  1  0
 26 29  1  0
M  END
