SAD-SAT-29425be4-17-chloroacetamide
     RDKit          3D

 44 48  0  0  0  0  0  0  0  0999 V2000
    7.1100   -3.0020   18.8360 C   0  0  0  0  0  0  0  0  0  0  0  0
    6.0980   -3.3020   19.9020 C   0  0  0  0  0  0  0  0  0  0  0  0
    5.3120   -4.2390   19.7680 O   0  0  0  0  0  0  0  0  0  0  0  0
    6.0840   -2.5240   21.0180 N   0  0  0  0  0  0  0  0  0  0  0  0
    6.7760   -1.2440   21.2400 C   0  0  0  0  0  0  0  0  0  0  0  0
    5.4890   -3.1090   22.1980 C   0  0  0  0  0  0  0  0  0  0  0  0
    8.1620   -1.6020   21.8820 C   0  0  0  0  0  0  0  0  0  0  0  0
    6.4940   -3.0230   23.3010 C   0  0  0  0  0  0  0  0  0  0  0  0
    7.8850   -2.8990   22.7200 C   0  0  0  0  0  0  0  0  0  0  0  0
    8.8410   -2.7020   23.8570 C   0  0  0  0  0  0  0  0  0  0  0  0
    9.3210   -3.6370   24.4620 O   0  0  0  0  0  0  0  0  0  0  0  0
    9.1230   -1.4000   24.1310 N   0  0  0  0  0  0  0  0  0  0  0  0
   10.4000   -1.1210   23.6300 C   0  0  0  0  0  0  0  0  0  0  0  0
    8.8840   -0.8740   25.4200 C   0  0  0  0  0  0  0  0  0  0  0  0
   11.0240    0.2710   23.5500 C   0  0  0  0  0  0  0  0  0  0  0  0
   11.1040   -2.3550   23.1620 C   0  0  0  0  0  0  0  0  0  0  0  0
   10.0830   -0.3260   26.1440 C   0  0  0  0  0  0  0  0  0  0  0  0
    7.5170   -0.8810   26.0860 N   0  0  0  0  0  0  0  0  0  0  0  0
   12.3430    0.2950   22.9430 C   0  0  0  0  0  0  0  0  0  0  0  0
   12.3260   -2.2150   22.6260 C   0  0  0  0  0  0  0  0  0  0  0  0
    9.8000    0.1610   27.5450 C   0  0  0  0  0  0  0  0  0  0  0  0
    7.3600   -0.4150   27.3560 C   0  0  0  0  0  0  0  0  0  0  0  0
   13.0360    1.2720   22.7470 O   0  0  0  0  0  0  0  0  0  0  0  0
   12.8850   -0.9900   22.5140 C   0  0  0  0  0  0  0  0  0  0  0  0
   13.1600   -3.2010   22.1160 O   0  0  0  0  0  0  0  0  0  0  0  0
    8.4260    0.0880   28.0900 C   0  0  0  0  0  0  0  0  0  0  0  0
    6.1200   -0.4130   28.0180 C   0  0  0  0  0  0  0  0  0  0  0  0
   12.4620    2.5970   22.9080 C   0  0  0  0  0  0  0  0  0  0  0  0
   14.0330   -1.0490   21.9170 O   0  0  0  0  0  0  0  0  0  0  0  0
   13.3110   -2.9040   20.7640 C   0  0  0  0  0  0  0  0  0  0  0  0
    8.3080    0.5970   29.4800 C   0  0  0  0  0  0  0  0  0  0  0  0
    5.9550    0.0630   29.3520 C   0  0  0  0  0  0  0  0  0  0  0  0
   13.6740   -1.5250   20.6510 C   0  0  0  0  0  0  0  0  0  0  0  0
    7.0560    0.5630   30.0730 C   0  0  0  0  0  0  0  0  0  0  0  0
    6.9580    1.1730   31.7440 S   0  0  0  0  0  0  0  0  0  0  0  0
    6.1910    0.1870   32.4740 O   0  0  0  0  0  0  0  0  0  0  0  0
    6.5440    2.5610   31.6890 O   0  0  0  0  0  0  0  0  0  0  0  0
    8.6000    1.1070   32.2740 N   0  0  0  0  0  0  0  0  0  0  0  0
    8.7980    0.7450   33.7190 C   0  0  0  0  0  0  0  0  0  0  0  0
    9.6950    2.0190   31.6990 C   0  0  1  0  0  0  0  0  0  0  0  0
   10.1260    0.9990   34.1120 C   0  0  0  0  0  0  0  0  0  0  0  0
   10.2440    2.9510   32.7760 C   0  0  0  0  0  0  0  0  0  0  0  0
   10.9040    1.3220   31.0380 C   0  0  0  0  0  0  0  0  0  0  0  0
   10.6720    2.2770   33.9040 C   0  0  0  0  0  0  0  0  0  0  0  0
  1  2  1  0
  2  3  2  0
  2  4  1  0
  4  5  1  0
  4  6  1  0
  5  7  1  0
  6  8  1  0
  7  9  1  0
  8  9  1  0
  9 10  1  0
 10 11  2  0
 10 12  1  0
 12 13  1  0
 12 14  1  0
 13 15  2  0
 13 16  1  0
 14 17  2  0
 14 18  1  0
 15 19  1  0
 16 20  2  0
 17 21  1  0
 18 22  2  0
 19 23  1  0
 19 24  2  0
 20 24  1  0
 20 25  1  0
 21 26  2  0
 22 26  1  0
 22 27  1  0
 23 28  1  0
 24 29  1  0
 25 30  1  0
 26 31  1  0
 27 32  2  0
 29 33  1  0
 31 34  2  0
 32 34  1  0
 35 34  1  0
 35 36  2  0
 35 37  2  0
 35 38  1  0
 38 39  1  0
 38 40  1  0
 39 41  1  0
 40 42  1  0
 40 43  1  1
 41 44  1  0
 42 44  1  0
M  END
