SAD-SAT-24589cd1-9
     RDKit          3D

 27 29  0  0  0  0  0  0  0  0999 V2000
    2.3350  -31.9330    0.5090 C   0  0  0  0  0  0  0  0  0  0  0  0
    3.4380  -31.1550    1.1870 C   0  0  0  0  0  0  0  0  0  0  0  0
    4.2400  -31.7340    1.9220 O   0  0  0  0  0  0  0  0  0  0  0  0
    3.5170  -29.7870    0.9530 N   0  0  0  0  0  0  0  0  0  0  0  0
    2.2690  -29.0240    0.9640 C   0  0  0  0  0  0  0  0  0  0  0  0
    4.7350  -29.0020    1.0770 C   0  0  0  0  0  0  0  0  0  0  0  0
    2.3020  -27.9650    0.0450 C   0  0  0  0  0  0  0  0  0  0  0  0
    4.4010  -27.5180    1.1450 C   0  0  0  0  0  0  0  0  0  0  0  0
    3.3740  -27.0640    0.0940 C   0  0  0  0  0  0  0  0  0  0  0  0
    3.1600  -25.6020    0.1940 C   0  0  0  0  0  0  0  0  0  0  0  0
    4.2590  -24.7420   -0.2620 C   0  0  0  0  0  0  0  0  0  0  0  0
    1.9880  -24.9560    0.6850 C   0  0  0  0  0  0  0  0  0  0  0  0
    4.1060  -23.3560   -0.2030 C   0  0  0  0  0  0  0  0  0  0  0  0
    1.9820  -23.5550    0.6800 C   0  0  0  0  0  0  0  0  0  0  0  0
    0.8810  -25.7140    1.1530 N   0  0  0  0  0  0  0  0  0  0  0  0
    2.9960  -22.7550    0.2510 N   0  0  0  0  0  0  0  0  0  0  0  0
    0.2170  -25.5710    2.3640 C   0  0  0  0  0  0  0  0  0  0  0  0
    0.0410  -24.5160    2.9850 O   0  0  0  0  0  0  0  0  0  0  0  0
   -0.3260  -26.8980    2.9080 C   0  0  0  0  0  0  0  0  0  0  0  0
   -1.8410  -26.8860    3.0020 C   0  0  0  0  0  0  0  0  0  0  0  0
   -2.3700  -26.0770    4.0100 C   0  0  0  0  0  0  0  0  0  0  0  0
   -2.6880  -27.6240    2.1530 C   0  0  0  0  0  0  0  0  0  0  0  0
   -3.7530  -25.9950    4.1720 C   0  0  0  0  0  0  0  0  0  0  0  0
   -4.0750  -27.5440    2.3190 C   0  0  0  0  0  0  0  0  0  0  0  0
   -4.6040  -26.7270    3.3290 C   0  0  0  0  0  0  0  0  0  0  0  0
   -4.9500  -28.2970    1.4570 C   0  0  0  0  0  0  0  0  0  0  0  0
   -5.6460  -28.9090    0.7490 N   0  0  0  0  0  0  0  0  0  0  0  0
  1  2  1  0
  2  3  2  0
  2  4  1  0
  4  5  1  0
  4  6  1  0
  5  7  1  0
  6  8  1  0
  7  9  1  0
  8  9  1  0
  9 10  1  0
 10 11  2  0
 10 12  1  0
 11 13  1  0
 12 14  2  0
 12 15  1  0
 13 16  2  0
 14 16  1  0
 15 17  1  0
 17 18  2  0
 17 19  1  0
 19 20  1  0
 20 21  2  0
 20 22  1  0
 21 23  1  0
 22 24  2  0
 23 25  2  0
 24 25  1  0
 24 26  1  0
 26 27  3  0
M  END
