SAD-SAT-2ceae68f-5-acrylamide
     RDKit          3D

 28 29  0  0  0  0  0  0  0  0999 V2000
    5.9450   -5.4480   20.1300 C   0  0  0  0  0  0  0  0  0  0  0  0
    5.9290   -5.8440   21.5860 C   0  0  0  0  0  0  0  0  0  0  0  0
    5.6190   -4.6300   22.4190 C   0  0  0  0  0  0  0  0  0  0  0  0
    4.6310   -3.9330   22.2240 O   0  0  0  0  0  0  0  0  0  0  0  0
    6.5150   -4.3580   23.4010 N   0  0  0  0  0  0  0  0  0  0  0  0
    7.3650   -5.4180   23.9160 C   0  0  0  0  0  0  0  0  0  0  0  0
    7.1000   -3.0080   23.3940 C   0  0  0  0  0  0  0  0  0  0  0  0
    6.6670   -2.1790   24.6120 C   0  0  0  0  0  0  0  0  0  0  0  0
    6.2700   -2.7210   25.6500 O   0  0  0  0  0  0  0  0  0  0  0  0
    6.7470   -0.7860   24.4880 N   0  0  0  0  0  0  0  0  0  0  0  0
    7.7010    0.0280   25.2440 C   0  0  0  0  0  0  0  0  0  0  0  0
    5.8490   -0.0010   23.6290 C   0  0  0  0  0  0  0  0  0  0  0  0
    7.6280    1.5030   24.7610 C   0  0  0  0  0  0  0  0  0  0  0  0
    6.5180    0.8870   22.7650 C   0  0  0  0  0  0  0  0  0  0  0  0
    7.3930    1.7100   23.3850 N   0  0  0  0  0  0  0  0  0  0  0  0
    8.6030    2.4730   22.5130 S   0  0  0  0  0  0  0  0  0  0  0  0
    8.3420    2.2310   21.1060 O   0  0  0  0  0  0  0  0  0  0  0  0
    8.7600    3.8090   23.0450 O   0  0  0  0  0  0  0  0  0  0  0  0
   10.0560    1.5380   22.9340 C   0  0  0  0  0  0  0  0  0  0  0  0
    9.9400    0.0260   23.1130 C   0  0  0  0  0  0  0  0  0  0  0  0
   11.2940    2.1520   23.0990 C   0  0  0  0  0  0  0  0  0  0  0  0
   11.0700   -0.7190   23.4270 C   0  0  0  0  0  0  0  0  0  0  0  0
   12.3310    1.3420   23.4070 C   0  0  0  0  0  0  0  0  0  0  0  0
   11.5910    3.6770   22.9510 C   0  0  0  0  0  0  0  0  0  0  0  0
   11.0560   -2.0820   23.6030 N   0  0  0  0  0  0  0  0  0  0  0  0
   12.2560   -0.0490   23.5640 C   0  0  0  0  0  0  0  0  0  0  0  0
   12.0240   -2.5900   24.1830 O   0  0  0  0  0  0  0  0  0  0  0  0
    9.9810   -2.6570   23.4060 O   0  0  0  0  0  0  0  0  0  0  0  0
  1  2  1  0
  2  3  1  0
  3  4  2  0
  3  5  1  0
  5  6  1  0
  5  7  1  0
  7  8  1  0
  8  9  2  0
  8 10  1  0
 10 11  1  0
 10 12  1  0
 11 13  1  0
 12 14  1  0
 13 15  1  0
 14 15  1  0
 15 16  1  0
 16 17  2  0
 16 18  2  0
 16 19  1  0
 19 20  2  0
 19 21  1  0
 20 22  1  0
 21 23  2  0
 21 24  1  0
 22 25  1  0
 22 26  2  0
 23 26  1  0
 25 27  2  0
 25 28  1  0
M  CHG  2  25   1  28  -1
M  END
