SAD-SAT-f0a2747f-1-chloroacetamide
     RDKit          3D

 30 32  0  0  0  0  0  0  0  0999 V2000
    7.7000   -4.8850   20.1440 C   0  0  0  0  0  0  0  0  0  0  0  0
    6.6230   -5.6480   20.7480 C   0  0  0  0  0  0  0  0  0  0  0  0
    5.5540   -5.5400   20.1110 O   0  0  0  0  0  0  0  0  0  0  0  0
    6.9930   -6.4660   21.8530 N   0  0  0  0  0  0  0  0  0  0  0  0
    8.3320   -6.3850   22.4880 C   0  0  0  0  0  0  0  0  0  0  0  0
    8.1490   -5.1730   23.2070 C   0  0  0  0  0  0  0  0  0  0  0  0
    6.6440   -5.2350   22.9950 C   0  0  0  0  0  0  0  0  0  0  0  0
    9.1240   -4.3650   23.7940 C   0  0  0  0  0  0  0  0  0  0  0  0
    6.3900   -4.0530   23.6320 C   0  0  0  0  0  0  0  0  0  0  0  0
    8.6910   -3.2360   24.3750 C   0  0  0  0  0  0  0  0  0  0  0  0
    7.3450   -3.0750   24.3000 C   0  0  0  0  0  0  0  0  0  0  0  0
    6.5730   -1.8840   24.8740 C   0  0  0  0  0  0  0  0  0  0  0  0
    6.9160   -1.4490   25.9750 O   0  0  0  0  0  0  0  0  0  0  0  0
    5.5060   -1.3870   24.1120 N   0  0  0  0  0  0  0  0  0  0  0  0
    5.4320   -1.7280   22.6850 C   0  0  0  0  0  0  0  0  0  0  0  0
    4.2430   -0.8720   24.6740 C   0  0  0  0  0  0  0  0  0  0  0  0
    4.9570   -0.6390   21.8950 C   0  0  0  0  0  0  0  0  0  0  0  0
    3.6830    0.2840   23.8410 C   0  0  0  0  0  0  0  0  0  0  0  0
    3.6590   -0.0450   22.3820 N   0  0  0  0  0  0  0  0  0  0  0  0
    3.0610    1.1930   21.3940 S   0  0  0  0  0  0  0  0  0  0  0  0
    3.1910    0.7870   20.0230 O   0  0  0  0  0  0  0  0  0  0  0  0
    3.6460    2.4350   21.8600 O   0  0  0  0  0  0  0  0  0  0  0  0
    1.2870    1.4520   21.6350 C   0  0  0  0  0  0  0  0  0  0  0  0
    0.6010    2.2780   22.5050 C   0  0  0  0  0  0  0  0  0  0  0  0
    0.2960    0.7840   20.9050 O   0  0  0  0  0  0  0  0  0  0  0  0
   -0.7870    2.1580   22.3520 C   0  0  0  0  0  0  0  0  0  0  0  0
   -0.9500    1.2100   21.3400 C   0  0  0  0  0  0  0  0  0  0  0  0
   -2.1210    0.6300   20.7120 C   0  0  0  0  0  0  0  0  0  0  0  0
   -2.2950   -0.7150   20.8780 N   0  0  0  0  0  0  0  0  0  0  0  0
   -2.9550    1.2430   20.0540 O   0  0  0  0  0  0  0  0  0  0  0  0
  1  2  1  0
  2  3  2  0
  2  4  1  0
  4  5  1  0
  5  6  1  0
  6  7  2  0
  6  8  1  0
  7  9  1  0
  8 10  2  0
  9 11  2  0
 10 11  1  0
 11 12  1  0
 12 13  2  0
 12 14  1  0
 14 15  1  0
 14 16  1  0
 15 17  1  0
 16 18  1  0
 17 19  1  0
 18 19  1  0
 19 20  1  0
 20 21  2  0
 20 22  2  0
 20 23  1  0
 23 24  2  0
 23 25  1  0
 24 26  1  0
 25 27  1  0
 26 27  2  0
 27 28  1  0
 28 29  1  0
 28 30  2  0
M  END
