SAD-SAT-29425be4-16-acrylamide
     RDKit          3D

 28 30  0  0  0  0  0  0  0  0999 V2000
    7.3930   -2.7330   18.2590 C   0  0  0  0  0  0  0  0  0  0  0  0
    6.2590   -2.0910   19.0200 C   0  0  0  0  0  0  0  0  0  0  0  0
    5.8620   -2.9270   20.2060 C   0  0  0  0  0  0  0  0  0  0  0  0
    5.2130   -3.9910   20.0750 O   0  0  0  0  0  0  0  0  0  0  0  0
    6.3290   -2.4130   21.4010 N   0  0  0  0  0  0  0  0  0  0  0  0
    7.1230   -1.1810   21.5610 C   0  0  0  0  0  0  0  0  0  0  0  0
    6.1450   -3.1990   22.6170 C   0  0  0  0  0  0  0  0  0  0  0  0
    8.5580   -1.6490   21.9870 C   0  0  0  0  0  0  0  0  0  0  0  0
    7.3820   -3.5120   23.1970 C   0  0  0  0  0  0  0  0  0  0  0  0
    8.2370   -2.2460   23.3600 C   0  0  0  0  0  0  0  0  0  0  0  0
    9.6260   -2.7350   23.8560 C   0  0  0  0  0  0  0  0  0  0  0  0
    9.8290   -3.8430   24.2830 O   0  0  0  0  0  0  0  0  0  0  0  0
   10.6670   -1.6940   23.7070 N   0  0  0  0  0  0  0  0  0  0  0  0
   10.9570   -0.7350   24.7490 C   0  0  0  0  0  0  0  0  0  0  0  0
   11.8170   -2.0440   22.8990 C   0  0  0  0  0  0  0  0  0  0  0  0
   11.0070    0.6730   24.1960 C   0  0  0  0  0  0  0  0  0  0  0  0
   11.3960   -2.0020   21.4840 C   0  0  0  0  0  0  0  0  0  0  0  0
   13.0140   -1.0680   23.0000 C   0  0  0  0  0  0  0  0  0  0  0  0
   12.1220    1.3360   23.4300 C   0  0  0  0  0  0  0  0  0  0  0  0
    9.6790    1.8260   24.3840 S   0  0  0  0  0  0  0  0  0  0  0  0
   11.8380    2.6440   23.0970 C   0  0  0  0  0  0  0  0  0  0  0  0
   10.5860    3.1070   23.5270 C   0  0  0  0  0  0  0  0  0  0  0  0
   10.2150    4.4030   23.2820 C   0  0  0  0  0  0  0  0  0  0  0  0
    8.8440    4.7700   22.7970 C   0  0  0  0  0  0  0  0  0  0  0  0
   11.1330    5.4290   23.5020 C   0  0  0  0  0  0  0  0  0  0  0  0
    8.3490    6.1760   22.5170 C   0  0  0  0  0  0  0  0  0  0  0  0
   10.8160    6.9030   23.2790 C   0  0  0  0  0  0  0  0  0  0  0  0
    9.4030    7.2540   22.7820 C   0  0  0  0  0  0  0  0  0  0  0  0
  1  2  1  0
  2  3  1  0
  3  4  2  0
  3  5  1  0
  5  6  1  0
  5  7  1  0
  6  8  1  0
  7  9  1  0
  8 10  1  0
  9 10  1  0
 10 11  1  0
 11 12  2  0
 11 13  1  0
 13 14  1  0
 13 15  1  0
 14 16  1  0
 15 17  1  0
 15 18  1  0
 16 19  2  0
 16 20  1  0
 19 21  1  0
 20 22  1  0
 21 22  2  0
 22 23  1  0
 23 24  2  0
 23 25  1  0
 24 26  1  0
 25 27  2  0
 26 28  2  0
 27 28  1  0
M  END
