SAD-SAT-29425be4-29-vinylsulfonamide
     RDKit          3D

 31 33  0  0  0  0  0  0  0  0999 V2000
    7.5090   -2.9860   18.4990 C   0  0  0  0  0  0  0  0  0  0  0  0
    6.9000   -2.6050   19.7940 C   0  0  0  0  0  0  0  0  0  0  0  0
    5.5300   -3.6790   20.0410 S   0  0  0  0  0  0  0  0  0  0  0  0
    4.4180   -2.9650   19.6290 O   0  0  0  0  0  0  0  0  0  0  0  0
    5.6470   -4.9880   19.5290 O   0  0  0  0  0  0  0  0  0  0  0  0
    5.6210   -3.9620   21.6400 N   0  0  0  0  0  0  0  0  0  0  0  0
    4.4810   -4.0250   22.6010 C   0  0  0  0  0  0  0  0  0  0  0  0
    6.8040   -4.7860   21.8920 C   0  0  0  0  0  0  0  0  0  0  0  0
    5.0210   -3.2730   23.8460 C   0  0  0  0  0  0  0  0  0  0  0  0
    7.0140   -4.6370   23.2130 C   0  0  0  0  0  0  0  0  0  0  0  0
    6.4880   -3.2400   23.4060 C   0  0  0  0  0  0  0  0  0  0  0  0
    7.1690   -2.6220   24.5850 C   0  0  0  0  0  0  0  0  0  0  0  0
    6.7470   -2.6330   25.7350 O   0  0  0  0  0  0  0  0  0  0  0  0
    8.3300   -2.0520   24.1910 N   0  0  0  0  0  0  0  0  0  0  0  0
    9.5580   -2.8190   24.2010 C   0  0  0  0  0  0  0  0  0  0  0  0
   10.5600   -1.7610   23.8180 C   0  0  0  0  0  0  0  0  0  0  0  0
   10.3110   -0.3900   24.3830 C   0  0  0  0  0  0  0  0  0  0  0  0
   11.6700   -1.9450   22.9880 C   0  0  0  0  0  0  0  0  0  0  0  0
   11.1960    0.7530   24.0800 C   0  0  0  0  0  0  0  0  0  0  0  0
   12.5540   -0.7260   22.7140 C   0  0  0  0  0  0  0  0  0  0  0  0
   12.2650    0.5360   23.2700 C   0  0  0  0  0  0  0  0  0  0  0  0
   13.0810    1.5620   22.9940 C   0  0  0  0  0  0  0  0  0  0  0  0
   14.3340    1.0520   22.5980 O   0  0  0  0  0  0  0  0  0  0  0  0
   12.5970    2.9120   23.2080 O   0  0  0  0  0  0  0  0  0  0  0  0
   11.6180    3.3580   22.2750 C   0  0  0  0  0  0  0  0  0  0  0  0
   11.0350    4.6610   22.7420 C   0  0  0  0  0  0  0  0  0  0  0  0
    9.5340    5.0340   22.8340 C   0  0  0  0  0  0  0  0  0  0  0  0
   12.0220    5.7900   23.1860 C   0  0  0  0  0  0  0  0  0  0  0  0
    9.0260    6.3920   23.3170 C   0  0  0  0  0  0  0  0  0  0  0  0
   11.5300    7.1450   23.6720 C   0  0  0  0  0  0  0  0  0  0  0  0
   10.0370    7.4510   23.7400 C   0  0  0  0  0  0  0  0  0  0  0  0
  1  2  1  0
  3  2  1  0
  3  4  2  0
  3  5  2  0
  3  6  1  0
  6  7  1  0
  6  8  1  0
  7  9  1  0
  8 10  1  0
  9 11  1  0
 10 11  1  0
 11 12  1  0
 12 13  2  0
 12 14  1  0
 14 15  1  0
 15 16  1  0
 16 17  2  0
 16 18  1  0
 17 19  1  0
 18 20  2  0
 19 21  2  0
 20 21  1  0
 21 22  1  0
 22 23  2  0
 22 24  1  0
 24 25  1  0
 25 26  1  0
 26 27  2  0
 26 28  1  0
 27 29  1  0
 28 30  2  0
 29 31  2  0
 30 31  1  0
M  END
