SAD-SAT-2ceae68f-9-nitrile
     RDKit          3D

 18 19  0  0  0  0  0  0  0  0999 V2000
    6.3660   -4.0200   19.7740 C   0  0  0  0  0  0  0  0  0  0  0  0
    5.7020   -5.0730   20.0460 N   0  0  0  0  0  0  0  0  0  0  0  0
    6.0420   -2.8440   20.3670 N   0  0  0  0  0  0  0  0  0  0  0  0
    6.2080   -1.5250   19.7280 C   0  0  0  0  0  0  0  0  0  0  0  0
    7.3030   -0.9070   20.6470 C   0  0  0  0  0  0  0  0  0  0  0  0
    7.3130    0.6490   20.3320 C   0  0  0  0  0  0  0  0  0  0  0  0
    8.2160   -1.8550   21.7200 S   0  0  0  0  0  0  0  0  0  0  0  0
    8.4810    0.7380   21.4250 C   0  0  0  0  0  0  0  0  0  0  0  0
    8.9850   -0.4920   22.1630 C   0  0  0  0  0  0  0  0  0  0  0  0
   10.2100   -0.7470   23.4020 S   0  0  0  0  0  0  0  0  0  0  0  0
    9.4300   -1.1080   24.5430 O   0  0  0  0  0  0  0  0  0  0  0  0
   11.0370    0.4350   23.3350 O   0  0  0  0  0  0  0  0  0  0  0  0
   11.1540   -2.1290   23.1470 N   0  0  0  0  0  0  0  0  0  0  0  0
   11.9440   -2.4360   24.3260 C   0  0  0  0  0  0  0  0  0  0  0  0
   12.0180   -2.0240   21.9990 C   0  0  0  0  0  0  0  0  0  0  0  0
   13.4220   -2.4180   23.9430 C   0  0  0  0  0  0  0  0  0  0  0  0
   12.9630   -1.0060   22.2470 C   0  0  0  0  0  0  0  0  0  0  0  0
   13.6420   -1.1790   23.2690 O   0  0  0  0  0  0  0  0  0  0  0  0
  1  2  2  3
  1  3  1  0
  3  4  1  0
  4  5  1  0
  5  6  2  0
  5  7  1  0
  6  8  1  0
  7  9  1  0
  8  9  2  0
 10  9  1  0
 10 11  2  0
 10 12  2  0
 10 13  1  0
 13 14  1  0
 13 15  1  0
 14 16  1  0
 15 17  1  0
 16 18  1  0
 17 18  1  0
M  END
