SAD-SAT-f25ee457-10
     RDKit          3D

 26 29  0  0  0  0  0  0  0  0999 V2000
   13.3280    0.5380   22.5520 C   0  0  0  0  0  0  0  0  0  0  0  0
   12.4790   -0.1540   23.4080 N   0  0  0  0  0  0  0  0  0  0  0  0
   12.0680   -1.3050   22.6010 C   0  0  0  0  0  0  0  0  0  0  0  0
   11.3740    0.8060   23.5880 C   0  0  0  0  0  0  0  0  0  0  0  0
   10.8580   -2.0090   23.1820 C   0  0  0  0  0  0  0  0  0  0  0  0
    9.9930    0.2120   23.9510 C   0  0  2  0  0  0  0  0  0  0  0  0
    9.7310   -1.0830   23.3210 N   0  0  0  0  0  0  0  0  0  0  0  0
    8.8120    1.0600   23.6580 N   0  0  0  0  0  0  0  0  0  0  0  0
    8.4170   -1.5020   23.3770 C   0  0  0  0  0  0  0  0  0  0  0  0
    9.0340    2.4980   23.6070 C   0  0  0  0  0  0  0  0  0  0  0  0
    7.6820    0.6770   24.5260 C   0  0  0  0  0  0  0  0  0  0  0  0
    7.9530   -2.0340   24.3900 O   0  0  0  0  0  0  0  0  0  0  0  0
    7.5530   -1.2830   22.1430 C   0  0  0  0  0  0  0  0  0  0  0  0
    7.7000    3.2110   23.3860 C   0  0  0  0  0  0  0  0  0  0  0  0
    7.0460    1.7960   25.3710 C   0  0  0  0  0  0  0  0  0  0  0  0
    6.7910   -2.5090   21.7930 C   0  0  0  0  0  0  0  0  0  0  0  0
    6.7740    3.0770   24.5900 C   0  0  0  0  0  0  0  0  0  0  0  0
    5.7310   -2.6170   20.9070 C   0  0  0  0  0  0  0  0  0  0  0  0
    7.0340   -3.8170   22.3220 C   0  0  0  0  0  0  0  0  0  0  0  0
    5.4120    3.1010   24.1690 O   0  0  0  0  0  0  0  0  0  0  0  0
    5.3460   -3.9280   20.8840 N   0  0  0  0  0  0  0  0  0  0  0  0
    6.1170   -4.6630   21.7240 C   0  0  0  0  0  0  0  0  0  0  0  0
    7.9320   -4.3840   23.2410 C   0  0  0  0  0  0  0  0  0  0  0  0
    5.9730   -5.9750   21.9020 N   0  0  0  0  0  0  0  0  0  0  0  0
    7.8330   -5.7500   23.4700 C   0  0  0  0  0  0  0  0  0  0  0  0
    6.8570   -6.4730   22.7820 C   0  0  0  0  0  0  0  0  0  0  0  0
  1  2  1  0
  2  3  1  0
  2  4  1  0
  3  5  1  0
  4  6  1  0
  5  7  1  0
  6  7  1  0
  6  8  1  6
  7  9  1  0
  8 10  1  0
  8 11  1  0
  9 12  2  0
  9 13  1  0
 10 14  1  0
 11 15  1  0
 13 16  1  0
 14 17  1  0
 15 17  1  0
 16 18  2  0
 16 19  1  0
 17 20  1  0
 18 21  1  0
 19 22  2  0
 21 22  1  0
 19 23  1  0
 22 24  1  0
 23 25  2  0
 24 26  2  0
 25 26  1  0
M  END
