SAD-SAT-6b5a89f0-10-nitrile
     RDKit          3D

  8  8  0  0  0  0  0  0  0  0999 V2000
    7.1130   -3.6690   19.7840 C   0  0  0  0  0  0  0  0  0  0  0  0
    6.5520   -3.0570   18.8230 N   0  0  0  0  0  0  0  0  0  0  0  0
    7.2130   -3.3100   21.0900 N   0  0  0  0  0  0  0  0  0  0  0  0
    6.3100   -3.5270   22.1360 C   0  0  0  0  0  0  0  0  0  0  0  0
    5.6990   -2.4430   22.9790 C   0  0  0  0  0  0  0  0  0  0  0  0
    5.8370   -4.7650   22.5530 C   0  0  0  0  0  0  0  0  0  0  0  0
    4.7590   -3.0400   24.0130 C   0  0  0  0  0  0  0  0  0  0  0  0
    4.7330   -4.7460   23.8490 S   0  0  0  0  0  0  0  0  0  0  0  0
  1  2  2  3
  1  3  1  0
  3  4  1  0
  4  5  1  0
  4  6  2  0
  5  7  2  0
  6  8  1  0
  7  8  1  0
M  END
