SAD-SAT-1f400d17-4-chloroacetamide
     RDKit          3D

 24 25  0  0  0  0  0  0  0  0999 V2000
    7.1650   -3.5510   19.5000 C   0  0  0  0  0  0  0  0  0  0  0  0
    5.9890   -3.4380   20.0430 C   0  0  0  0  0  0  0  0  0  0  0  0
    5.0120   -3.9810   19.5710 O   0  0  0  0  0  0  0  0  0  0  0  0
    5.9380   -2.7130   21.2080 N   0  0  0  0  0  0  0  0  0  0  0  0
    6.4150   -3.3280   22.4920 C   0  0  0  0  0  0  0  0  0  0  0  0
    6.2100   -1.3080   20.9290 C   0  0  0  0  0  0  0  0  0  0  0  0
    7.6110   -2.6310   23.1690 C   0  0  0  0  0  0  0  0  0  0  0  0
    7.6290   -0.9300   21.3370 C   0  0  0  0  0  0  0  0  0  0  0  0
    7.6200   -1.1400   22.8200 C   0  0  0  0  0  0  0  0  0  0  0  0
    8.5670   -0.2990   23.6010 C   0  0  0  0  0  0  0  0  0  0  0  0
    9.6500   -1.0700   24.1700 O   0  0  0  0  0  0  0  0  0  0  0  0
    8.2810    1.1440   23.7240 N   0  0  0  0  0  0  0  0  0  0  0  0
    8.8580    2.1010   22.8890 C   0  0  2  0  0  0  0  0  0  0  0  0
    8.3060    2.3040   21.6210 C   0  0  0  0  0  0  0  0  0  0  0  0
   10.2940    1.6660   22.8600 C   0  0  0  0  0  0  0  0  0  0  0  0
   11.3290    2.5750   22.8550 C   0  0  0  0  0  0  0  0  0  0  0  0
   10.6430    0.3110   22.8500 C   0  0  0  0  0  0  0  0  0  0  0  0
   12.6720    2.2200   22.8470 C   0  0  0  0  0  0  0  0  0  0  0  0
   12.0970   -0.1190   22.8500 C   0  0  0  0  0  0  0  0  0  0  0  0
   13.0590    0.8650   22.8460 C   0  0  0  0  0  0  0  0  0  0  0  0
   12.5230   -1.8390   22.8600 S   0  0  0  0  0  0  0  0  0  0  0  0
   13.0280   -2.1270   21.2890 N   0  0  0  0  0  0  0  0  0  0  0  0
   11.3140   -2.6100   23.0170 O   0  0  0  0  0  0  0  0  0  0  0  0
   13.6420   -2.0400   23.7360 O   0  0  0  0  0  0  0  0  0  0  0  0
  1  2  1  0
  2  3  2  0
  2  4  1  0
  4  5  1  0
  4  6  1  0
  5  7  1  0
  6  8  1  0
  7  9  1  0
  8  9  1  0
  9 10  1  0
 10 11  2  0
 10 12  1  0
 12 13  1  0
 13 14  1  6
 13 15  1  0
 15 16  2  0
 15 17  1  0
 16 18  1  0
 17 19  2  0
 18 20  2  0
 19 20  1  0
 19 21  1  0
 21 22  1  0
 21 23  2  0
 21 24  2  0
M  END
