SAD-SAT-29425be4-9-acrylamide
     RDKit          3D

 28 29  0  0  0  0  0  0  0  0999 V2000
    7.8700   -2.9320   18.6300 C   0  0  0  0  0  0  0  0  0  0  0  0
    6.3670   -2.8690   18.8080 C   0  0  0  0  0  0  0  0  0  0  0  0
    5.8830   -3.4900   20.0570 C   0  0  0  0  0  0  0  0  0  0  0  0
    5.2180   -4.5220   20.0150 O   0  0  0  0  0  0  0  0  0  0  0  0
    6.2430   -2.7970   21.1900 N   0  0  0  0  0  0  0  0  0  0  0  0
    5.7500   -3.1680   22.5220 C   0  0  0  0  0  0  0  0  0  0  0  0
    6.9840   -1.5240   21.0720 C   0  0  0  0  0  0  0  0  0  0  0  0
    6.7800   -2.9180   23.6150 C   0  0  0  0  0  0  0  0  0  0  0  0
    8.0550   -1.3910   22.1340 C   0  0  0  0  0  0  0  0  0  0  0  0
    7.3660   -1.5200   23.4810 C   0  0  0  0  0  0  0  0  0  0  0  0
    8.2500   -1.1180   24.6560 C   0  0  0  0  0  0  0  0  0  0  0  0
    7.7090   -0.9220   25.7510 O   0  0  0  0  0  0  0  0  0  0  0  0
    9.6080   -0.9460   24.4530 N   0  0  0  0  0  0  0  0  0  0  0  0
   10.3480    0.2390   24.8750 C   0  0  0  0  0  0  0  0  0  0  0  0
   11.4460    0.0800   23.9300 C   0  0  0  0  0  0  0  0  0  0  0  0
   12.6230    0.7000   23.6130 C   0  0  0  0  0  0  0  0  0  0  0  0
   11.0630   -0.9900   23.2590 C   0  0  0  0  0  0  0  0  0  0  0  0
   13.3970    0.1350   22.5880 C   0  0  0  0  0  0  0  0  0  0  0  0
   11.7060   -1.5750   22.2820 C   0  0  0  0  0  0  0  0  0  0  0  0
   12.9290   -1.0140   21.9320 C   0  0  0  0  0  0  0  0  0  0  0  0
   10.8330   -2.7040   21.8610 C   0  0  0  0  0  0  0  0  0  0  0  0
   10.3480   -3.5320   22.8310 C   0  0  0  0  0  0  0  0  0  0  0  0
   11.2350   -3.6890   23.9370 O   0  0  0  0  0  0  0  0  0  0  0  0
    9.0300   -4.0950   22.6100 O   0  0  0  0  0  0  0  0  0  0  0  0
    8.4290   -5.0390   23.4430 C   0  0  0  0  0  0  0  0  0  0  0  0
    7.5320   -4.7240   24.6590 C   0  0  0  0  0  0  0  0  0  0  0  0
    9.4920   -5.9620   24.0260 C   0  0  0  0  0  0  0  0  0  0  0  0
    7.5610   -5.9740   22.5600 C   0  0  0  0  0  0  0  0  0  0  0  0
  1  2  1  0
  2  3  1  0
  3  4  2  0
  3  5  1  0
  5  6  1  0
  5  7  1  0
  6  8  1  0
  7  9  1  0
  8 10  1  0
  9 10  1  0
 10 11  1  0
 11 12  2  0
 11 13  1  0
 13 14  1  0
 14 15  1  0
 15 16  2  0
 15 17  1  0
 16 18  1  0
 17 19  2  0
 18 20  2  0
 19 20  1  0
 19 21  1  0
 21 22  1  0
 22 23  2  0
 22 24  1  0
 25 24  1  0
 25 26  1  0
 25 27  1  0
 25 28  1  0
M  END
