SAD-SAT-9a6c5cf3-9-acrylamide
     RDKit          3D

 33 36  0  0  0  0  0  0  0  0999 V2000
    7.9870   -3.3850   19.7220 C   0  0  0  0  0  0  0  0  0  0  0  0
    6.8080   -2.9290   19.3450 C   0  0  0  0  0  0  0  0  0  0  0  0
    5.9460   -3.7680   20.2110 C   0  0  0  0  0  0  0  0  0  0  0  0
    5.0960   -4.4970   19.7350 O   0  0  0  0  0  0  0  0  0  0  0  0
    6.2500   -3.6960   21.5660 N   0  0  0  0  0  0  0  0  0  0  0  0
    7.4680   -2.9430   21.9130 C   0  0  0  0  0  0  0  0  0  0  0  0
    6.1210   -4.8900   22.3830 C   0  0  0  0  0  0  0  0  0  0  0  0
    7.6310   -2.8060   23.4290 C   0  0  0  0  0  0  0  0  0  0  0  0
    5.7980   -4.5290   23.6900 C   0  0  0  0  0  0  0  0  0  0  0  0
    6.3270   -3.1310   24.1360 C   0  0  0  0  0  0  0  0  0  0  0  0
    6.3930   -3.0440   25.6590 C   0  0  0  0  0  0  0  0  0  0  0  0
    6.2710   -4.0860   26.2760 O   0  0  0  0  0  0  0  0  0  0  0  0
    6.4870   -1.8140   26.3660 N   0  0  0  0  0  0  0  0  0  0  0  0
    5.5020   -1.4860   27.3090 C   0  0  0  0  0  0  0  0  0  0  0  0
    7.6660   -1.1450   26.9450 C   0  0  0  0  0  0  0  0  0  0  0  0
    4.9720   -0.2840   26.9380 C   0  0  0  0  0  0  0  0  0  0  0  0
    7.2480    0.1670   27.6900 C   0  0  0  0  0  0  0  0  0  0  0  0
    5.8230    0.6370   27.4530 N   0  0  0  0  0  0  0  0  0  0  0  0
    5.5230    2.2470   26.9270 S   0  0  0  0  0  0  0  0  0  0  0  0
    5.5330    3.0630   28.1190 O   0  0  0  0  0  0  0  0  0  0  0  0
    4.3930    2.2180   26.0320 O   0  0  0  0  0  0  0  0  0  0  0  0
    6.8990    2.5460   25.9780 C   0  0  0  0  0  0  0  0  0  0  0  0
    7.5810    1.4260   25.4590 C   0  0  0  0  0  0  0  0  0  0  0  0
    7.3210    3.8650   25.7400 C   0  0  0  0  0  0  0  0  0  0  0  0
    8.7230    1.5560   24.6860 C   0  0  0  0  0  0  0  0  0  0  0  0
    8.4560    4.0700   24.9720 C   0  0  0  0  0  0  0  0  0  0  0  0
    9.1780    2.8350   24.4340 C   0  0  0  0  0  0  0  0  0  0  0  0
   10.4420    3.0000   23.6070 C   0  0  0  0  0  0  0  0  0  0  0  0
   11.1290    1.6570   23.3850 C   0  0  0  0  0  0  0  0  0  0  0  0
   10.4720    3.8010   22.4810 C   0  0  0  0  0  0  0  0  0  0  0  0
   12.5470    1.8550   22.8440 C   0  0  0  0  0  0  0  0  0  0  0  0
   11.8740    4.0560   21.9240 C   0  0  0  0  0  0  0  0  0  0  0  0
   12.9230    3.3220   22.4880 C   0  0  0  0  0  0  0  0  0  0  0  0
  1  2  1  0
  2  3  1  0
  3  4  2  0
  3  5  1  0
  5  6  1  0
  5  7  1  0
  6  8  1  0
  7  9  1  0
  8 10  1  0
  9 10  1  0
 10 11  1  0
 11 12  2  0
 11 13  1  0
 13 14  1  0
 13 15  1  0
 14 16  1  0
 15 17  1  0
 16 18  1  0
 17 18  1  0
 18 19  1  0
 19 20  2  0
 19 21  2  0
 19 22  1  0
 22 23  2  0
 22 24  1  0
 23 25  1  0
 24 26  2  0
 25 27  2  0
 26 27  1  0
 27 28  1  0
 28 29  1  0
 28 30  1  0
 29 31  1  0
 30 32  1  0
 31 33  1  0
 32 33  1  0
M  END
