SAD-SAT-2ceae68f-10-bromoalkyne
     RDKit          3D

 19 20  0  0  0  0  0  0  0  0999 V2000
    6.6420   -4.1630   20.2910 C   0  0  0  0  0  0  0  0  0  0  0  0
    5.7790   -3.3300   19.3520 C   0  0  0  0  0  0  0  0  0  0  0  0
    7.4360   -3.5240   21.2020 N   0  0  0  0  0  0  0  0  0  0  0  0
    8.4340   -2.5730   20.7520 C   0  0  0  0  0  0  0  0  0  0  0  0
    8.4980   -1.4240   21.7980 C   0  0  0  0  0  0  0  0  0  0  0  0
   10.0510   -1.4420   22.0230 C   0  0  0  0  0  0  0  0  0  0  0  0
   10.7570   -2.4350   21.8540 O   0  0  0  0  0  0  0  0  0  0  0  0
   10.5960   -0.1300   22.4700 N   0  0  0  0  0  0  0  0  0  0  0  0
   12.0210   -0.0350   22.7620 C   0  0  0  0  0  0  0  0  0  0  0  0
    9.8690    0.4730   23.5780 C   0  0  0  0  0  0  0  0  0  0  0  0
   12.2390   -0.3920   24.2440 C   0  0  0  0  0  0  0  0  0  0  0  0
    9.8600   -0.5510   24.7110 C   0  0  2  0  0  0  0  0  0  0  0  0
   11.1580   -1.2020   24.7800 O   0  0  0  0  0  0  0  0  0  0  0  0
    8.8280   -1.6750   24.5640 C   0  0  0  0  0  0  0  0  0  0  0  0
    7.4140   -1.6240   25.0760 C   0  0  0  0  0  0  0  0  0  0  0  0
    9.0070   -3.2320   23.8070 S   0  0  0  0  0  0  0  0  0  0  0  0
    6.6710   -2.7570   24.8320 C   0  0  0  0  0  0  0  0  0  0  0  0
    7.3960   -3.7380   24.1460 C   0  0  0  0  0  0  0  0  0  0  0  0
    6.8450   -5.2880   23.6560 Cl  0  0  0  0  0  0  0  0  0  0  0  0
  1  2  2  3
  1  3  1  0
  3  4  1  0
  4  5  1  0
  5  6  1  0
  6  7  2  0
  6  8  1  0
  8  9  1  0
  8 10  1  0
  9 11  1  0
 10 12  1  0
 11 13  1  0
 12 13  1  0
 12 14  1  6
 14 15  2  0
 14 16  1  0
 15 17  1  0
 16 18  1  0
 17 18  2  0
 18 19  1  0
M  END
