SAD-SAT-2ceae68f-8-chloroacetamide
     RDKit          3D

 19 21  0  0  0  0  0  0  0  0999 V2000
    7.9030   -3.5340   20.4540 C   0  0  0  0  0  0  0  0  0  0  0  0
    7.0020   -2.2630   20.1000 C   0  0  0  0  0  0  0  0  0  0  0  0
    6.6070   -2.9310   19.0390 O   0  0  0  0  0  0  0  0  0  0  0  0
    7.5670   -1.6530   21.3660 N   0  0  0  0  0  0  0  0  0  0  0  0
    6.7650   -0.7620   22.3010 C   0  0  0  0  0  0  0  0  0  0  0  0
    8.9690   -1.1760   21.6460 C   0  0  0  0  0  0  0  0  0  0  0  0
    7.7580    0.0900   23.2860 C   0  0  0  0  0  0  0  0  0  0  0  0
    9.0060    0.2330   21.4480 C   0  0  0  0  0  0  0  0  0  0  0  0
    8.6050    1.0070   22.4280 N   0  0  0  0  0  0  0  0  0  0  0  0
    9.7630    1.9980   22.8800 C   0  0  0  0  0  0  0  0  0  0  0  0
   10.8930    1.0740   23.1560 C   0  0  0  0  0  0  0  0  0  0  0  0
   12.2130    1.5250   22.6500 C   0  0  0  0  0  0  0  0  0  0  0  0
   10.5630   -0.0590   23.7980 C   0  0  0  0  0  0  0  0  0  0  0  0
   13.2560    0.4580   22.9050 C   0  0  0  0  0  0  0  0  0  0  0  0
   11.5310   -1.0310   24.0260 C   0  0  0  0  0  0  0  0  0  0  0  0
   12.8490   -0.8210   23.6020 C   0  0  0  0  0  0  0  0  0  0  0  0
   11.3320   -2.0890   24.5760 O   0  0  0  0  0  0  0  0  0  0  0  0
   12.6050   -2.6960   24.2660 C   0  0  0  0  0  0  0  0  0  0  0  0
   13.5940   -1.7520   23.8580 O   0  0  0  0  0  0  0  0  0  0  0  0
  1  2  1  0
  2  3  2  0
  2  4  1  0
  4  5  1  0
  4  6  1  0
  5  7  1  0
  6  8  1  0
  7  9  1  0
  8  9  1  0
  9 10  1  0
 10 11  1  0
 11 12  2  0
 11 13  1  0
 12 14  1  0
 13 15  2  0
 14 16  2  0
 15 16  1  0
 15 17  1  0
 17 18  1  0
 16 19  1  0
 18 19  1  0
M  END
