SAD-SAT-b55127ae-2-vinylsulfonamide
     RDKit          3D

 30 31  0  0  0  0  0  0  0  0999 V2000
    6.3490   -5.3760   20.0640 C   0  0  0  0  0  0  0  0  0  0  0  0
    6.7330   -4.0390   20.6340 C   0  0  0  0  0  0  0  0  0  0  0  0
    5.3870   -3.0030   20.2270 S   0  0  0  0  0  0  0  0  0  0  0  0
    4.6550   -2.9910   21.4680 O   0  0  0  0  0  0  0  0  0  0  0  0
    4.8420   -3.5220   19.0080 O   0  0  0  0  0  0  0  0  0  0  0  0
    6.0590   -1.4860   19.8640 N   0  0  0  0  0  0  0  0  0  0  0  0
    5.3470   -0.6050   18.9210 C   0  0  0  0  0  0  0  0  0  0  0  0
    7.5120   -1.5180   19.7910 C   0  0  0  0  0  0  0  0  0  0  0  0
    6.1540    0.6330   18.5030 C   0  0  0  0  0  0  0  0  0  0  0  0
    7.8750   -2.3510   20.9080 C   0  0  0  0  0  0  0  0  0  0  0  0
    8.8310   -3.2690   20.6280 O   0  0  0  0  0  0  0  0  0  0  0  0
    7.2520   -2.2040   22.1220 N   0  0  0  0  0  0  0  0  0  0  0  0
    7.0040   -0.7990   22.4330 C   0  0  0  0  0  0  0  0  0  0  0  0
    7.2180   -3.2630   23.1470 C   0  0  0  0  0  0  0  0  0  0  0  0
    7.7500   -0.4240   23.5760 C   0  0  0  0  0  0  0  0  0  0  0  0
    7.9340   -2.8200   24.2550 C   0  0  0  0  0  0  0  0  0  0  0  0
    8.6220   -1.5280   23.9550 N   0  0  0  0  0  0  0  0  0  0  0  0
    9.9370   -1.1270   24.9300 S   0  0  0  0  0  0  0  0  0  0  0  0
   10.8080   -2.2800   24.9420 O   0  0  0  0  0  0  0  0  0  0  0  0
    9.3730   -0.5000   26.1050 O   0  0  0  0  0  0  0  0  0  0  0  0
   10.8550    0.0630   24.1770 C   0  0  0  0  0  0  0  0  0  0  0  0
   10.3560    1.3820   24.2500 C   0  0  0  0  0  0  0  0  0  0  0  0
   12.0680   -0.2690   23.5140 C   0  0  0  0  0  0  0  0  0  0  0  0
   11.0840    2.5330   23.6360 C   0  0  0  0  0  0  0  0  0  0  0  0
   12.8780    0.8390   22.8680 C   0  0  0  0  0  0  0  0  0  0  0  0
   12.6290   -1.6990   23.4020 C   0  0  0  0  0  0  0  0  0  0  0  0
   12.3960    2.2720   22.9190 C   0  0  0  0  0  0  0  0  0  0  0  0
   13.5010   -1.7990   22.3630 F   0  0  0  0  0  0  0  0  0  0  0  0
   13.3080   -2.1070   24.5070 F   0  0  0  0  0  0  0  0  0  0  0  0
   11.6940   -2.6260   23.1200 F   0  0  0  0  0  0  0  0  0  0  0  0
  1  2  1  0
  2  3  1  0
  3  4  2  0
  3  5  2  0
  3  6  1  0
  6  7  1  0
  6  8  1  0
  7  9  1  0
  8 10  1  0
 10 11  2  0
 10 12  1  0
 12 13  1  0
 12 14  1  0
 13 15  1  0
 14 16  1  0
 15 17  1  0
 16 17  1  0
 17 18  1  0
 18 19  2  0
 18 20  2  0
 18 21  1  0
 21 22  2  0
 21 23  1  0
 22 24  1  0
 23 25  2  0
 23 26  1  0
 24 27  2  0
 25 27  1  0
 26 28  1  0
 26 29  1  0
 26 30  1  0
M  END
