SAD-SAT-c989feaa-8-vinylsulfonamide
     RDKit          3D

 23 24  0  0  0  0  0  0  0  0999 V2000
    7.8010   -2.8200   18.6080 C   0  0  0  0  0  0  0  0  0  0  0  0
    6.4140   -3.0180   19.0930 C   0  0  0  0  0  0  0  0  0  0  0  0
    6.2850   -3.8850   20.6080 S   0  0  0  0  0  0  0  0  0  0  0  0
    5.2330   -4.7710   20.2350 O   0  0  0  0  0  0  0  0  0  0  0  0
    7.4690   -4.4460   21.2170 O   0  0  0  0  0  0  0  0  0  0  0  0
    5.9120   -2.5920   21.6150 N   0  0  0  0  0  0  0  0  0  0  0  0
    5.8650   -2.9680   23.0160 C   0  0  0  0  0  0  0  0  0  0  0  0
    6.8000   -1.4330   21.3630 C   0  0  0  0  0  0  0  0  0  0  0  0
    7.2350   -3.4010   23.5350 C   0  0  0  0  0  0  0  0  0  0  0  0
    8.0610   -1.3380   22.2830 C   0  0  2  0  0  0  0  0  0  0  0  0
    8.3430   -2.5130   23.1620 N   0  0  0  0  0  0  0  0  0  0  0  0
    8.0480   -0.0040   23.0840 C   0  0  0  0  0  0  0  0  0  0  0  0
    9.2670   -2.2250   24.1530 C   0  0  0  0  0  0  0  0  0  0  0  0
    9.0770    1.0820   22.6770 C   0  0  0  0  0  0  0  0  0  0  0  0
   10.4220   -1.4260   23.8180 C   0  0  0  0  0  0  0  0  0  0  0  0
    9.4580    1.9060   23.9150 C   0  0  0  0  0  0  0  0  0  0  0  0
    8.5590    2.0450   21.6160 C   0  0  0  0  0  0  0  0  0  0  0  0
   10.8460   -0.1790   24.4230 C   0  0  0  0  0  0  0  0  0  0  0  0
   11.2290   -1.9030   22.7890 C   0  0  0  0  0  0  0  0  0  0  0  0
   11.9820    0.6010   24.0730 C   0  0  0  0  0  0  0  0  0  0  0  0
   12.3600   -1.2260   22.3760 C   0  0  0  0  0  0  0  0  0  0  0  0
   12.7240    0.0770   23.0670 C   0  0  0  0  0  0  0  0  0  0  0  0
   13.1470   -1.8150   21.2740 C   0  0  0  0  0  0  0  0  0  0  0  0
  1  2  1  0
  3  2  1  0
  3  4  2  0
  3  5  2  0
  3  6  1  0
  6  7  1  0
  6  8  1  0
  7  9  1  0
  8 10  1  0
  9 11  1  0
 10 11  1  0
 10 12  1  1
 11 13  1  0
 12 14  1  0
 13 15  1  0
 14 16  1  0
 14 17  1  0
 15 18  2  0
 15 19  1  0
 18 20  1  0
 19 21  2  0
 20 22  2  0
 21 22  1  0
 21 23  1  0
M  END
