SAD-SAT-c989feaa-10-bromoalkyne
     RDKit          3D

 21 22  0  0  0  0  0  0  0  0999 V2000
    6.6150   -3.7880   19.9280 C   0  0  0  0  0  0  0  0  0  0  0  0
    6.3370   -2.8750   18.7400 C   0  0  0  0  0  0  0  0  0  0  0  0
    6.9560   -3.1800   21.1180 N   0  0  0  0  0  0  0  0  0  0  0  0
    6.2410   -3.3880   22.3750 C   0  0  0  0  0  0  0  0  0  0  0  0
    7.8840   -2.0390   21.0990 C   0  0  0  0  0  0  0  0  0  0  0  0
    7.2270   -3.4420   23.5390 C   0  0  0  0  0  0  0  0  0  0  0  0
    8.0070   -1.3320   22.4570 C   0  0  2  0  0  0  0  0  0  0  0  0
    8.1770   -2.3260   23.5460 N   0  0  0  0  0  0  0  0  0  0  0  0
    6.9440   -0.2440   22.7060 C   0  0  0  0  0  0  0  0  0  0  0  0
    9.4660   -2.6470   23.9120 C   0  0  0  0  0  0  0  0  0  0  0  0
    7.4060    1.2180   22.4430 C   0  0  0  0  0  0  0  0  0  0  0  0
    9.7440   -3.7620   24.3130 O   0  0  0  0  0  0  0  0  0  0  0  0
   10.4880   -1.6540   23.7380 C   0  0  0  0  0  0  0  0  0  0  0  0
    8.8570    1.4280   21.9380 C   0  0  0  0  0  0  0  0  0  0  0  0
    7.2350    2.0160   23.7340 C   0  0  0  0  0  0  0  0  0  0  0  0
   10.7390   -0.3820   24.4240 C   0  0  0  0  0  0  0  0  0  0  0  0
   11.3260   -2.0320   22.7340 C   0  0  0  0  0  0  0  0  0  0  0  0
   11.8100    0.5470   24.1380 C   0  0  0  0  0  0  0  0  0  0  0  0
   12.4530   -1.1420   22.3750 C   0  0  0  0  0  0  0  0  0  0  0  0
   12.6460    0.1560   23.1270 C   0  0  0  0  0  0  0  0  0  0  0  0
   13.4450   -1.6570   21.1210 Cl  0  0  0  0  0  0  0  0  0  0  0  0
  1  2  2  3
  1  3  1  0
  3  4  1  0
  3  5  1  0
  4  6  1  0
  5  7  1  0
  6  8  1  0
  7  8  1  0
  7  9  1  1
  8 10  1  0
  9 11  1  0
 10 12  2  0
 10 13  1  0
 11 14  1  0
 11 15  1  0
 13 16  2  0
 13 17  1  0
 16 18  1  0
 17 19  2  0
 18 20  2  0
 19 20  1  0
 19 21  1  0
M  END
