SAD-SAT-f0a2747f-9-acrylamide
     RDKit          3D

 22 23  0  0  0  0  0  0  0  0999 V2000
    7.8590   -3.9020   19.9980 C   0  0  0  0  0  0  0  0  0  0  0  0
    6.6310   -4.7900   20.4290 C   0  0  0  0  0  0  0  0  0  0  0  0
    5.4680   -3.9800   20.8510 C   0  0  0  0  0  0  0  0  0  0  0  0
    5.0650   -4.0800   19.6880 O   0  0  0  0  0  0  0  0  0  0  0  0
    6.2210   -4.1100   21.9760 N   0  0  0  0  0  0  0  0  0  0  0  0
    6.3560   -2.8390   22.5570 C   0  0  0  0  0  0  0  0  0  0  0  0
    5.6110   -5.0510   22.9020 C   0  0  0  0  0  0  0  0  0  0  0  0
    5.1160   -2.2710   22.5980 C   0  0  0  0  0  0  0  0  0  0  0  0
    4.3540   -4.5910   23.2560 C   0  0  0  0  0  0  0  0  0  0  0  0
    4.1940   -3.1100   23.4110 N   0  0  0  0  0  0  0  0  0  0  0  0
    4.3220   -2.8020   24.8410 C   0  0  0  0  0  0  0  0  0  0  0  0
    4.6370   -1.3520   25.1130 C   0  0  0  0  0  0  0  0  0  0  0  0
    6.2890   -0.9110   25.2850 S   0  0  0  0  0  0  0  0  0  0  0  0
    6.5840   -0.7140   26.6950 O   0  0  0  0  0  0  0  0  0  0  0  0
    6.5590    0.1660   24.3480 O   0  0  0  0  0  0  0  0  0  0  0  0
    7.1600   -2.2940   24.7380 C   0  0  0  0  0  0  0  0  0  0  0  0
    8.2750   -2.1030   23.7860 C   0  0  0  0  0  0  0  0  0  0  0  0
    6.7750   -3.5630   25.2190 C   0  0  0  0  0  0  0  0  0  0  0  0
    8.9860   -3.3920   23.3470 C   0  0  0  0  0  0  0  0  0  0  0  0
    7.4180   -4.7360   24.8260 C   0  0  0  0  0  0  0  0  0  0  0  0
    8.4730   -4.7070   23.9320 C   0  0  0  0  0  0  0  0  0  0  0  0
    9.2820   -6.2960   23.4220 Br  0  0  0  0  0  0  0  0  0  0  0  0
  1  2  1  0
  2  3  1  0
  3  4  2  0
  3  5  1  0
  5  6  1  0
  5  7  1  0
  6  8  1  0
  7  9  1  0
  8 10  1  0
  9 10  1  0
 10 11  1  0
 11 12  1  0
 13 12  1  0
 13 14  2  0
 13 15  2  0
 13 16  1  0
 16 17  2  0
 16 18  1  0
 17 19  1  0
 18 20  2  0
 19 21  2  0
 20 21  1  0
 21 22  1  0
M  END
