SAD-SAT-2ceae68f-2-nitrile
     RDKit          3D

 28 30  0  0  0  0  0  0  0  0999 V2000
    6.6960   -5.1230   20.5050 C   0  0  0  0  0  0  0  0  0  0  0  0
    5.6800   -5.7150   20.0120 N   0  0  0  0  0  0  0  0  0  0  0  0
    6.8420   -4.8220   21.8350 N   0  0  0  0  0  0  0  0  0  0  0  0
    7.1220   -5.8330   22.8610 C   0  0  0  0  0  0  0  0  0  0  0  0
    6.9730   -3.4370   22.2880 C   0  0  0  0  0  0  0  0  0  0  0  0
    5.9500   -6.8270   22.6900 C   0  0  0  0  0  0  0  0  0  0  0  0
    5.6690   -2.6790   21.9400 C   0  0  0  0  0  0  0  0  0  0  0  0
    4.6030   -3.2890   21.7890 O   0  0  0  0  0  0  0  0  0  0  0  0
    5.7770   -1.3050   21.8100 N   0  0  0  0  0  0  0  0  0  0  0  0
    5.2580   -0.4860   22.9080 C   0  0  0  0  0  0  0  0  0  0  0  0
    6.8700   -0.7160   21.0280 C   0  0  0  0  0  0  0  0  0  0  0  0
    5.1990    1.0020   22.4770 C   0  0  0  0  0  0  0  0  0  0  0  0
    8.0320   -0.2800   21.9400 C   0  0  0  0  0  0  0  0  0  0  0  0
    6.5680    1.5100   22.9870 C   0  0  0  0  0  0  0  0  0  0  0  0
    7.5280    0.3940   23.1460 N   0  0  0  0  0  0  0  0  0  0  0  0
    8.4950    0.3080   24.5190 S   0  0  0  0  0  0  0  0  0  0  0  0
    8.5670    1.6630   25.0130 O   0  0  0  0  0  0  0  0  0  0  0  0
    8.0030   -0.7660   25.3500 O   0  0  0  0  0  0  0  0  0  0  0  0
   10.0910   -0.1670   23.8800 C   0  0  0  0  0  0  0  0  0  0  0  0
   10.4830   -1.6190   23.6710 C   0  0  0  0  0  0  0  0  0  0  0  0
   11.0600    0.7640   23.5410 C   0  0  0  0  0  0  0  0  0  0  0  0
   11.7340   -1.9940   23.1720 C   0  0  0  0  0  0  0  0  0  0  0  0
   12.3100    0.3340   23.0550 C   0  0  0  0  0  0  0  0  0  0  0  0
   10.8650    2.1310   23.6540 C   0  0  0  0  0  0  0  0  0  0  0  0
   12.6620   -1.0100   22.8590 C   0  0  0  0  0  0  0  0  0  0  0  0
   13.1890    1.3370   22.7780 C   0  0  0  0  0  0  0  0  0  0  0  0
   11.7650    3.0270   23.3380 C   0  0  0  0  0  0  0  0  0  0  0  0
   12.9390    2.6840   22.9020 N   0  0  0  0  0  0  0  0  0  0  0  0
  1  2  2  3
  1  3  1  0
  3  4  1  0
  3  5  1  0
  4  6  1  0
  5  7  1  0
  7  8  2  0
  7  9  1  0
  9 10  1  0
  9 11  1  0
 10 12  1  0
 11 13  1  0
 12 14  1  0
 13 15  1  0
 14 15  1  0
 15 16  1  0
 16 17  2  0
 16 18  2  0
 16 19  1  0
 19 20  2  0
 19 21  1  0
 20 22  1  0
 21 23  2  0
 21 24  1  0
 22 25  2  0
 23 25  1  0
 23 26  1  0
 24 27  2  0
 26 28  2  0
 27 28  1  0
M  END
