SAD-SAT-f0a2747f-5-acrylamide
     RDKit          3D

 21 22  0  0  0  0  0  0  0  0999 V2000
    8.5140   -4.0380   20.4810 C   0  0  0  0  0  0  0  0  0  0  0  0
    7.4030   -3.0770   20.8630 C   0  0  0  0  0  0  0  0  0  0  0  0
    6.1000   -3.8340   20.9810 C   0  0  0  0  0  0  0  0  0  0  0  0
    5.1600   -3.6530   20.2010 O   0  0  0  0  0  0  0  0  0  0  0  0
    5.9970   -4.7540   22.0020 N   0  0  0  0  0  0  0  0  0  0  0  0
    6.9870   -5.0230   23.0110 C   0  0  0  0  0  0  0  0  0  0  0  0
    8.0680   -5.8690   22.7300 C   0  0  0  0  0  0  0  0  0  0  0  0
    6.8830   -4.4780   24.2940 C   0  0  0  0  0  0  0  0  0  0  0  0
    9.0250   -6.2070   23.6760 C   0  0  0  0  0  0  0  0  0  0  0  0
    7.7810   -4.7890   25.2740 C   0  0  0  0  0  0  0  0  0  0  0  0
    5.5760   -3.3630   24.7310 S   0  0  0  0  0  0  0  0  0  0  0  0
    8.8380   -5.6290   25.0300 C   0  0  0  0  0  0  0  0  0  0  0  0
    6.0750   -2.4930   25.7800 O   0  0  0  0  0  0  0  0  0  0  0  0
    4.9510   -2.8000   23.5460 O   0  0  0  0  0  0  0  0  0  0  0  0
    4.4220   -4.3650   25.4550 N   0  0  0  0  0  0  0  0  0  0  0  0
    9.8070   -6.0060   26.0380 C   0  0  0  0  0  0  0  0  0  0  0  0
    3.4860   -4.9390   24.4500 C   0  0  0  0  0  0  0  0  0  0  0  0
    5.0310   -5.4330   26.3240 C   0  0  0  0  0  0  0  0  0  0  0  0
    2.3310   -5.7010   25.1480 C   0  0  0  0  0  0  0  0  0  0  0  0
    3.9510   -6.4270   26.7670 C   0  0  0  0  0  0  0  0  0  0  0  0
    2.6260   -5.9300   26.5350 O   0  0  0  0  0  0  0  0  0  0  0  0
  1  2  1  0
  2  3  1  0
  3  4  2  0
  3  5  1  0
  5  6  1  0
  6  7  2  0
  6  8  1  0
  7  9  1  0
  8 10  2  0
 11  8  1  0
  9 12  2  0
 10 12  1  0
 11 13  2  0
 11 14  2  0
 11 15  1  0
 12 16  1  0
 15 17  1  0
 15 18  1  0
 17 19  1  0
 18 20  1  0
 19 21  1  0
 20 21  1  0
M  END
