SAD-SAT-2ceae68f-6-chloroacetamide
     RDKit          3D

 26 28  0  0  0  0  0  0  0  0999 V2000
    7.2110   -5.1240   20.7660 C   0  0  0  0  0  0  0  0  0  0  0  0
    5.7960   -4.6310   20.8910 C   0  0  0  0  0  0  0  0  0  0  0  0
    5.1250   -4.4090   19.8710 O   0  0  0  0  0  0  0  0  0  0  0  0
    5.2820   -4.4360   22.1570 N   0  0  0  0  0  0  0  0  0  0  0  0
    5.6610   -3.3620   23.0830 C   0  0  0  0  0  0  0  0  0  0  0  0
    6.8560   -4.0270   23.8390 C   0  0  0  0  0  0  0  0  0  0  0  0
    7.5610   -2.7480   24.3870 C   0  0  0  0  0  0  0  0  0  0  0  0
    7.0720   -2.0010   25.2380 O   0  0  0  0  0  0  0  0  0  0  0  0
    8.8910   -2.5620   23.7420 N   0  0  0  0  0  0  0  0  0  0  0  0
   10.0100   -1.8800   24.3550 C   0  0  0  0  0  0  0  0  0  0  0  0
    9.2300   -2.9700   22.3760 C   0  0  0  0  0  0  0  0  0  0  0  0
   11.2270   -2.8260   24.2770 C   0  0  0  0  0  0  0  0  0  0  0  0
   10.5030   -2.5330   21.9590 C   0  0  0  0  0  0  0  0  0  0  0  0
   11.6140   -2.9570   22.8360 N   0  0  0  0  0  0  0  0  0  0  0  0
   13.0640   -2.2090   22.5000 S   0  0  0  0  0  0  0  0  0  0  0  0
   13.9730   -2.6160   23.5310 O   0  0  0  0  0  0  0  0  0  0  0  0
   13.3310   -2.2310   21.0790 O   0  0  0  0  0  0  0  0  0  0  0  0
   12.3060   -0.7360   22.8890 C   0  0  0  0  0  0  0  0  0  0  0  0
   10.9570   -0.9260   23.4900 C   0  0  0  0  0  0  0  0  0  0  0  0
   12.7670    0.5580   22.7100 C   0  0  0  0  0  0  0  0  0  0  0  0
   10.1490    0.2500   23.8560 C   0  0  0  0  0  0  0  0  0  0  0  0
   11.9510    1.6450   23.0650 C   0  0  0  0  0  0  0  0  0  0  0  0
   10.6650    1.4950   23.6250 C   0  0  0  0  0  0  0  0  0  0  0  0
   12.2530    3.0090   22.9210 C   0  0  0  0  0  0  0  0  0  0  0  0
   11.0740    3.8210   23.4900 C   0  0  0  0  0  0  0  0  0  0  0  0
   10.0680    2.7170   23.8740 C   0  0  0  0  0  0  0  0  0  0  0  0
  1  2  1  0
  2  3  2  0
  2  4  1  0
  4  5  1  0
  5  6  1  0
  6  7  1  0
  7  8  2  0
  7  9  1  0
  9 10  1  0
  9 11  1  0
 10 12  1  0
 11 13  1  0
 12 14  1  0
 13 14  1  0
 14 15  1  0
 15 16  2  0
 15 17  2  0
 15 18  1  0
 18 19  2  0
 18 20  1  0
 19 21  1  0
 20 22  2  0
 21 23  2  0
 22 23  1  0
 22 24  1  0
 24 25  1  0
 23 26  1  0
 25 26  1  0
M  END
