SAD-SAT-29425be4-17-bromoalkyne
     RDKit          3D

 43 47  0  0  0  0  0  0  0  0999 V2000
    6.9620   -5.5410   20.4530 C   0  0  0  0  0  0  0  0  0  0  0  0
    5.7510   -6.2110   19.8820 C   0  0  0  0  0  0  0  0  0  0  0  0
    6.8670   -5.1460   21.7670 N   0  0  0  0  0  0  0  0  0  0  0  0
    6.7190   -3.8050   22.2890 C   0  0  0  0  0  0  0  0  0  0  0  0
    7.0270   -6.1640   22.8220 C   0  0  0  0  0  0  0  0  0  0  0  0
    8.1970   -3.6340   22.7070 C   0  0  0  0  0  0  0  0  0  0  0  0
    7.8710   -5.7270   24.0330 C   0  0  0  0  0  0  0  0  0  0  0  0
    8.1200   -4.2390   24.1160 C   0  0  0  0  0  0  0  0  0  0  0  0
    9.5030   -3.7440   24.5240 C   0  0  0  0  0  0  0  0  0  0  0  0
   10.4960   -4.4430   24.7220 O   0  0  0  0  0  0  0  0  0  0  0  0
    9.3710   -2.3920   24.6270 N   0  0  0  0  0  0  0  0  0  0  0  0
   10.3820   -1.4700   24.1560 C   0  0  0  0  0  0  0  0  0  0  0  0
    8.2200   -1.9990   23.8940 C   0  0  0  0  0  0  0  0  0  0  0  0
   11.6130   -1.9310   23.3750 C   0  0  0  0  0  0  0  0  0  0  0  0
   10.1710    0.0240   24.4370 C   0  0  0  0  0  0  0  0  0  0  0  0
    6.7560   -2.0320   24.3470 C   0  0  0  0  0  0  0  0  0  0  0  0
    8.5400   -1.5500   22.5620 N   0  0  0  0  0  0  0  0  0  0  0  0
   12.5490   -0.8270   22.9240 C   0  0  0  0  0  0  0  0  0  0  0  0
   11.0740    1.0080   23.9920 C   0  0  0  0  0  0  0  0  0  0  0  0
    5.7310   -1.5800   23.3120 C   0  0  0  0  0  0  0  0  0  0  0  0
    7.6160   -1.1750   21.7300 C   0  0  0  0  0  0  0  0  0  0  0  0
   13.5470   -1.0650   22.2870 O   0  0  0  0  0  0  0  0  0  0  0  0
   12.2270    0.6390   23.2620 C   0  0  0  0  0  0  0  0  0  0  0  0
   10.8990    2.2010   24.2060 O   0  0  0  0  0  0  0  0  0  0  0  0
    6.2610   -1.1430   21.9560 C   0  0  0  0  0  0  0  0  0  0  0  0
    8.0970   -0.7910   20.5510 C   0  0  0  0  0  0  0  0  0  0  0  0
   13.2910   -1.7120   21.1250 C   0  0  0  0  0  0  0  0  0  0  0  0
   13.0820    1.5970   22.8380 O   0  0  0  0  0  0  0  0  0  0  0  0
    9.9480    2.7190   23.2640 C   0  0  0  0  0  0  0  0  0  0  0  0
    5.3520   -0.6680   20.8510 C   0  0  0  0  0  0  0  0  0  0  0  0
    7.3200   -0.3350   19.5050 C   0  0  0  0  0  0  0  0  0  0  0  0
   12.6310    2.9590   22.7110 C   0  0  0  0  0  0  0  0  0  0  0  0
    5.9790   -0.2630   19.6530 C   0  0  0  0  0  0  0  0  0  0  0  0
    5.1310    0.3790   18.2610 S   0  0  0  0  0  0  0  0  0  0  0  0
    4.6460   -0.7410   17.5600 O   0  0  0  0  0  0  0  0  0  0  0  0
    6.1180    1.1840   17.5960 O   0  0  0  0  0  0  0  0  0  0  0  0
    3.8960    1.3560   18.9630 N   0  0  0  0  0  0  0  0  0  0  0  0
    3.9800    2.8100   18.6470 C   0  0  0  0  0  0  0  0  0  0  0  0
    3.5600    1.2050   20.4210 C   0  0  2  0  0  0  0  0  0  0  0  0
    2.7660    3.4370   19.0100 C   0  0  0  0  0  0  0  0  0  0  0  0
    2.2500    1.9140   20.7510 C   0  0  0  0  0  0  0  0  0  0  0  0
    4.6360    1.7130   21.3890 C   0  0  0  0  0  0  0  0  0  0  0  0
    2.2080    3.2090   20.2750 C   0  0  0  0  0  0  0  0  0  0  0  0
  1  2  2  3
  1  3  1  0
  3  4  1  0
  3  5  1  0
  4  6  1  0
  5  7  1  0
  6  8  1  0
  7  8  1  0
  8  9  1  0
  9 10  2  0
  9 11  1  0
 11 12  1  0
 11 13  1  0
 12 14  2  0
 12 15  1  0
 13 16  2  0
 13 17  1  0
 14 18  1  0
 15 19  2  0
 16 20  1  0
 17 21  2  0
 18 22  1  0
 18 23  2  0
 19 23  1  0
 19 24  1  0
 20 25  2  0
 21 25  1  0
 21 26  1  0
 22 27  1  0
 23 28  1  0
 24 29  1  0
 25 30  1  0
 26 31  2  0
 28 32  1  0
 30 33  2  0
 31 33  1  0
 34 33  1  0
 34 35  2  0
 34 36  2  0
 34 37  1  0
 37 38  1  0
 37 39  1  0
 38 40  1  0
 39 41  1  0
 39 42  1  1
 40 43  1  0
 41 43  1  0
M  END
