SAD-SAT-29425be4-19-chloroacetamide
     RDKit          3D

 26 27  0  0  0  0  0  0  0  0999 V2000
    7.1300   -2.9630   18.8220 C   0  0  0  0  0  0  0  0  0  0  0  0
    6.2290   -3.3390   19.9680 C   0  0  0  0  0  0  0  0  0  0  0  0
    5.4020   -4.2490   19.8050 O   0  0  0  0  0  0  0  0  0  0  0  0
    6.3780   -2.6470   21.1580 N   0  0  0  0  0  0  0  0  0  0  0  0
    6.2190   -3.1210   22.5310 C   0  0  0  0  0  0  0  0  0  0  0  0
    7.0930   -1.3880   21.0920 C   0  0  0  0  0  0  0  0  0  0  0  0
    7.6010   -3.7870   22.8250 C   0  0  0  0  0  0  0  0  0  0  0  0
    8.4720   -1.4960   21.7320 C   0  0  0  0  0  0  0  0  0  0  0  0
    8.6660   -2.6180   22.7730 C   0  0  0  0  0  0  0  0  0  0  0  0
    8.5270   -1.9920   24.1580 C   0  0  0  0  0  0  0  0  0  0  0  0
    7.6070   -2.2470   24.9340 O   0  0  0  0  0  0  0  0  0  0  0  0
    9.5430   -1.0860   24.4340 N   0  0  0  0  0  0  0  0  0  0  0  0
    9.2660    0.1870   25.1540 C   0  0  0  0  0  0  0  0  0  0  0  0
    9.8180    1.3710   24.3140 C   0  0  1  0  0  0  0  0  0  0  0  0
   11.0120    0.8170   23.6820 C   0  0  0  0  0  0  0  0  0  0  0  0
    8.8070    1.9730   23.4060 N   0  0  0  0  0  0  0  0  0  0  0  0
   10.8400   -0.6100   23.3640 C   0  0  0  0  0  0  0  0  0  0  0  0
   12.3510    1.4620   23.3390 C   0  0  0  0  0  0  0  0  0  0  0  0
    7.4110    1.5510   23.7090 C   0  0  0  0  0  0  0  0  0  0  0  0
    9.0950    1.8390   21.9840 C   0  0  0  0  0  0  0  0  0  0  0  0
   11.7880   -1.3360   22.8290 C   0  0  0  0  0  0  0  0  0  0  0  0
   13.3290    0.5160   22.7500 C   0  0  0  0  0  0  0  0  0  0  0  0
   12.9590   -0.8070   22.5540 C   0  0  0  0  0  0  0  0  0  0  0  0
   13.6700   -1.7980   22.0800 N   0  0  0  0  0  0  0  0  0  0  0  0
   13.3470   -2.0650   20.8410 C   0  0  0  0  0  0  0  0  0  0  0  0
   13.5860   -2.7950   22.9680 C   0  0  0  0  0  0  0  0  0  0  0  0
  1  2  1  0
  2  3  2  0
  2  4  1  0
  4  5  1  0
  4  6  1  0
  5  7  1  0
  6  8  1  0
  7  9  1  0
  8  9  1  0
  9 10  1  0
 10 11  2  0
 10 12  1  0
 12 13  1  0
 14 13  1  6
 14 15  1  0
 14 16  1  0
 15 17  2  0
 15 18  1  0
 16 19  1  0
 16 20  1  0
 17 21  1  0
 18 22  2  0
 21 23  2  0
 22 23  1  0
 23 24  1  0
 24 25  1  0
 24 26  1  0
M  END
