SAD-SAT-f0a2747f-9-bromoalkyne
     RDKit          3D

 20 21  0  0  0  0  0  0  0  0999 V2000
    8.2110   -3.4350   19.7000 C   0  0  0  0  0  0  0  0  0  0  0  0
    6.7620   -3.2430   19.0730 C   0  0  0  0  0  0  0  0  0  0  0  0
    8.4610   -3.1070   21.0470 N   0  0  0  0  0  0  0  0  0  0  0  0
    8.4060   -1.7220   21.3780 C   0  0  0  0  0  0  0  0  0  0  0  0
    8.2950   -3.9730   22.1970 C   0  0  0  0  0  0  0  0  0  0  0  0
    7.2650   -1.1930   21.9840 C   0  0  0  0  0  0  0  0  0  0  0  0
    7.7230   -3.1530   23.3690 C   0  0  0  0  0  0  0  0  0  0  0  0
    6.7120   -2.1420   22.9750 N   0  0  0  0  0  0  0  0  0  0  0  0
    5.4580   -2.7860   22.5190 C   0  0  0  0  0  0  0  0  0  0  0  0
    5.6830   -3.9020   21.6960 C   0  0  0  0  0  0  0  0  0  0  0  0
    5.4640   -5.4760   22.3610 S   0  0  0  0  0  0  0  0  0  0  0  0
    4.0620   -5.6280   22.7130 O   0  0  0  0  0  0  0  0  0  0  0  0
    6.1200   -6.4220   21.4960 O   0  0  0  0  0  0  0  0  0  0  0  0
    6.4270   -5.3940   23.8520 C   0  0  0  0  0  0  0  0  0  0  0  0
    5.7400   -4.9920   25.0960 C   0  0  0  0  0  0  0  0  0  0  0  0
    7.7970   -5.7080   23.7710 C   0  0  0  0  0  0  0  0  0  0  0  0
    6.5670   -4.9180   26.3100 C   0  0  0  0  0  0  0  0  0  0  0  0
    8.6080   -5.6440   24.8970 C   0  0  0  0  0  0  0  0  0  0  0  0
    8.0640   -5.2720   26.1260 C   0  0  0  0  0  0  0  0  0  0  0  0
    9.1690   -5.1840   27.6420 Br  0  0  0  0  0  0  0  0  0  0  0  0
  1  2  2  3
  1  3  1  0
  3  4  1  0
  3  5  1  0
  4  6  1  0
  5  7  1  0
  6  8  1  0
  7  8  1  0
  8  9  1  0
  9 10  1  0
 11 10  1  0
 11 12  2  0
 11 13  2  0
 11 14  1  0
 14 15  2  0
 14 16  1  0
 15 17  1  0
 16 18  2  0
 17 19  2  0
 18 19  1  0
 19 20  1  0
M  END
