SAD-SAT-29425be4-9-chloroacetamide
     RDKit          3D

 27 28  0  0  0  0  0  0  0  0999 V2000
    6.9220   -3.2200   19.3140 C   0  0  0  0  0  0  0  0  0  0  0  0
    5.8410   -3.7890   20.2300 C   0  0  0  0  0  0  0  0  0  0  0  0
    5.3580   -4.8860   19.9800 O   0  0  0  0  0  0  0  0  0  0  0  0
    5.3790   -3.0900   21.3470 N   0  0  0  0  0  0  0  0  0  0  0  0
    5.6720   -1.6650   21.3960 C   0  0  0  0  0  0  0  0  0  0  0  0
    5.1130   -3.7290   22.6390 C   0  0  0  0  0  0  0  0  0  0  0  0
    5.9440   -1.1960   22.8180 C   0  0  0  0  0  0  0  0  0  0  0  0
    6.3030   -3.5800   23.5870 C   0  0  0  0  0  0  0  0  0  0  0  0
    6.9050   -2.1660   23.5030 C   0  0  0  0  0  0  0  0  0  0  0  0
    7.2580   -1.6870   24.9190 C   0  0  0  0  0  0  0  0  0  0  0  0
    6.6590   -2.1820   25.8770 O   0  0  0  0  0  0  0  0  0  0  0  0
    8.2490   -0.6990   25.0770 N   0  0  0  0  0  0  0  0  0  0  0  0
    8.6760    0.1350   23.9450 C   0  0  0  0  0  0  0  0  0  0  0  0
   10.0840   -0.0970   23.4320 C   0  0  0  0  0  0  0  0  0  0  0  0
   11.1570    0.8720   23.8120 C   0  0  0  0  0  0  0  0  0  0  0  0
   10.4360   -1.1830   22.6050 C   0  0  0  0  0  0  0  0  0  0  0  0
   12.4480    0.6780   23.3520 C   0  0  0  0  0  0  0  0  0  0  0  0
   11.7680   -1.3450   22.1540 C   0  0  0  0  0  0  0  0  0  0  0  0
   12.7440   -0.4110   22.5410 C   0  0  0  0  0  0  0  0  0  0  0  0
   12.1290   -2.4990   21.2630 C   0  0  0  0  0  0  0  0  0  0  0  0
   13.3120   -3.3450   21.5990 C   0  0  0  0  0  0  0  0  0  0  0  0
   13.6640   -3.1770   22.9750 O   0  0  0  0  0  0  0  0  0  0  0  0
   13.9060   -4.1020   20.5710 O   0  0  0  0  0  0  0  0  0  0  0  0
   15.1490   -4.9530   20.6800 C   0  0  0  0  0  0  0  0  0  0  0  0
   16.0110   -5.1340   21.9090 C   0  0  0  0  0  0  0  0  0  0  0  0
   16.0210   -5.3040   19.5960 C   0  0  0  0  0  0  0  0  0  0  0  0
   14.7350   -6.1590   20.2710 C   0  0  0  0  0  0  0  0  0  0  0  0
  1  2  1  0
  2  3  2  0
  2  4  1  0
  4  5  1  0
  4  6  1  0
  5  7  1  0
  6  8  1  0
  7  9  1  0
  8  9  1  0
  9 10  1  0
 10 11  2  0
 10 12  1  0
 12 13  1  0
 13 14  1  0
 14 15  2  0
 14 16  1  0
 15 17  1  0
 16 18  2  0
 17 19  2  0
 18 19  1  0
 18 20  1  0
 20 21  1  0
 21 22  2  0
 21 23  1  0
 24 23  1  0
 24 25  1  0
 24 26  1  0
 24 27  1  0
M  END
