SAD-SAT-2ceae68f-9-acrylamide
     RDKit          3D

 20 21  0  0  0  0  0  0  0  0999 V2000
    6.1700   -3.6520   19.1070 C   0  0  0  0  0  0  0  0  0  0  0  0
    6.0610   -2.2990   19.7480 C   0  0  0  0  0  0  0  0  0  0  0  0
    5.7250   -2.4700   21.2010 C   0  0  0  0  0  0  0  0  0  0  0  0
    4.8320   -3.2710   21.5790 O   0  0  0  0  0  0  0  0  0  0  0  0
    6.4840   -1.6830   22.0560 N   0  0  0  0  0  0  0  0  0  0  0  0
    7.4630   -0.6250   21.6040 C   0  0  0  0  0  0  0  0  0  0  0  0
    6.6260    0.6350   21.8980 C   0  0  0  0  0  0  0  0  0  0  0  0
    6.9060    0.0590   20.5580 C   0  0  0  0  0  0  0  0  0  0  0  0
    7.1490    0.1870   23.4380 S   0  0  0  0  0  0  0  0  0  0  0  0
    7.8550   -1.0930   21.0080 C   0  0  0  0  0  0  0  0  0  0  0  0
    8.0260   -1.0690   22.5950 C   0  0  0  0  0  0  0  0  0  0  0  0
    9.0050   -2.1890   23.4840 S   0  0  0  0  0  0  0  0  0  0  0  0
    8.4540   -2.1100   24.8110 O   0  0  0  0  0  0  0  0  0  0  0  0
    8.9380   -3.4190   22.7390 O   0  0  0  0  0  0  0  0  0  0  0  0
   10.6460   -1.6920   23.5400 N   0  0  0  0  0  0  0  0  0  0  0  0
   11.4580   -2.3740   24.5430 C   0  0  0  0  0  0  0  0  0  0  0  0
   11.3400   -1.6560   22.2610 C   0  0  0  0  0  0  0  0  0  0  0  0
   12.9190   -2.3480   24.1360 C   0  0  0  0  0  0  0  0  0  0  0  0
   12.4400   -0.7960   22.3950 C   0  0  0  0  0  0  0  0  0  0  0  0
   13.2000   -1.0710   23.5730 O   0  0  0  0  0  0  0  0  0  0  0  0
  1  2  1  0
  2  3  1  0
  3  4  2  0
  3  5  1  0
  5  6  1  0
  6  7  1  0
  7  8  2  0
  7  9  1  0
  8 10  1  0
  9 11  1  0
 10 11  2  0
 12 11  1  0
 12 13  2  0
 12 14  2  0
 12 15  1  0
 15 16  1  0
 15 17  1  0
 16 18  1  0
 17 19  1  0
 18 20  1  0
 19 20  1  0
M  END
