SAD-SAT-f0a2747f-8-vinylsulfonamide
     RDKit          3D

 31 33  0  0  0  0  0  0  0  0999 V2000
    6.5350   -4.5310   20.1580 C   0  0  0  0  0  0  0  0  0  0  0  0
    7.3330   -3.2900   20.5350 C   0  0  0  0  0  0  0  0  0  0  0  0
    6.0950   -2.1810   21.1200 S   0  0  0  0  0  0  0  0  0  0  0  0
    4.8670   -3.1120   21.3470 O   0  0  0  0  0  0  0  0  0  0  0  0
    5.9350   -1.1860   20.0830 O   0  0  0  0  0  0  0  0  0  0  0  0
    6.9540   -1.3230   22.4720 N   0  0  0  0  0  0  0  0  0  0  0  0
    8.2800   -1.7240   23.0910 C   0  0  0  0  0  0  0  0  0  0  0  0
    8.1900   -3.0520   23.2730 C   0  0  0  0  0  0  0  0  0  0  0  0
    9.0220   -4.1850   23.4400 C   0  0  0  0  0  0  0  0  0  0  0  0
    6.8590   -3.1130   23.2280 C   0  0  0  0  0  0  0  0  0  0  0  0
    8.3640   -5.4030   23.5030 C   0  0  0  0  0  0  0  0  0  0  0  0
    6.2110   -4.2080   23.2770 C   0  0  0  0  0  0  0  0  0  0  0  0
    6.8900   -5.3200   23.3830 C   0  0  0  0  0  0  0  0  0  0  0  0
    5.9730   -6.3150   23.3460 C   0  0  0  0  0  0  0  0  0  0  0  0
    6.3340   -6.8090   22.2890 O   0  0  0  0  0  0  0  0  0  0  0  0
    5.0410   -6.7910   23.6890 N   0  0  0  0  0  0  0  0  0  0  0  0
    4.0080   -6.5480   22.6740 C   0  0  0  0  0  0  0  0  0  0  0  0
    4.5340   -6.2260   24.9310 C   0  0  0  0  0  0  0  0  0  0  0  0
    2.7020   -7.3860   22.9510 C   0  0  0  0  0  0  0  0  0  0  0  0
    3.2260   -6.9360   25.1340 C   0  0  0  0  0  0  0  0  0  0  0  0
    2.5750   -7.8800   24.2300 N   0  0  0  0  0  0  0  0  0  0  0  0
    1.1740   -8.1870   24.5870 C   0  0  0  0  0  0  0  0  0  0  0  0
    1.0150   -8.4120   26.1230 C   0  0  0  0  0  0  0  0  0  0  0  0
    1.0180   -7.3010   26.9670 C   0  0  0  0  0  0  0  0  0  0  0  0
    0.8680   -9.6920   26.7080 C   0  0  0  0  0  0  0  0  0  0  0  0
    0.8800   -7.4290   28.3510 C   0  0  0  0  0  0  0  0  0  0  0  0
    0.7320   -9.8220   28.0870 C   0  0  0  0  0  0  0  0  0  0  0  0
    0.8710  -10.7620   25.8540 O   0  0  0  0  0  0  0  0  0  0  0  0
    0.8830   -6.3440   29.1380 F   0  0  0  0  0  0  0  0  0  0  0  0
    0.7370   -8.7010   28.9030 C   0  0  0  0  0  0  0  0  0  0  0  0
    1.5560  -11.9200   26.3120 C   0  0  0  0  0  0  0  0  0  0  0  0
  1  2  1  0
  2  3  1  0
  3  4  2  0
  3  5  2  0
  3  6  1  0
  6  7  1  0
  7  8  1  0
  8  9  2  0
  8 10  1  0
  9 11  1  0
 10 12  2  0
 11 13  2  0
 12 13  1  0
 13 14  1  0
 14 15  2  0
 14 16  1  0
 16 17  1  0
 16 18  1  0
 17 19  1  0
 18 20  1  0
 19 21  1  0
 20 21  1  0
 21 22  1  0
 22 23  1  0
 23 24  2  0
 23 25  1  0
 24 26  1  0
 25 27  2  0
 25 28  1  0
 26 29  1  0
 26 30  2  0
 27 30  1  0
 28 31  1  0
M  END
