SAD-SAT-29425be4-27-chloroacetamide
     RDKit          3D

 28 30  0  0  0  0  0  0  0  0999 V2000
    7.1980   -3.0080   18.8480 C   0  0  0  0  0  0  0  0  0  0  0  0
    6.2760   -3.3450   19.9800 C   0  0  0  0  0  0  0  0  0  0  0  0
    5.3910   -4.1950   19.7950 O   0  0  0  0  0  0  0  0  0  0  0  0
    6.4760   -2.7050   21.1900 N   0  0  0  0  0  0  0  0  0  0  0  0
    6.1750   -3.2230   22.5320 C   0  0  0  0  0  0  0  0  0  0  0  0
    7.2650   -1.4640   21.1650 C   0  0  0  0  0  0  0  0  0  0  0  0
    7.5830   -3.6560   23.0670 C   0  0  0  0  0  0  0  0  0  0  0  0
    8.5200   -1.6920   21.7420 C   0  0  0  0  0  0  0  0  0  0  0  0
    8.3240   -2.2820   23.1380 C   0  0  0  0  0  0  0  0  0  0  0  0
    9.6580   -2.7890   23.7240 C   0  0  0  0  0  0  0  0  0  0  0  0
    9.8040   -3.9320   24.0980 O   0  0  0  0  0  0  0  0  0  0  0  0
   10.6910   -1.8770   23.8010 N   0  0  0  0  0  0  0  0  0  0  0  0
   11.7330   -1.8220   22.7860 C   0  0  0  0  0  0  0  0  0  0  0  0
   10.7920   -0.7700   24.7570 C   0  0  0  0  0  0  0  0  0  0  0  0
   11.9190   -0.3140   22.7870 C   0  0  0  0  0  0  0  0  0  0  0  0
    9.4990    0.0060   25.1000 C   0  0  0  0  0  0  0  0  0  0  0  0
   13.1840    0.4300   22.6650 C   0  0  0  0  0  0  0  0  0  0  0  0
   10.6900    0.6240   22.9410 C   0  0  0  0  0  0  0  0  0  0  0  0
    9.0910    0.0530   26.5590 C   0  0  0  0  0  0  0  0  0  0  0  0
    8.6630    0.6630   24.1650 C   0  0  0  0  0  0  0  0  0  0  0  0
   13.1060    1.9450   22.7080 C   0  0  0  0  0  0  0  0  0  0  0  0
   10.7490    2.0280   22.9660 C   0  0  0  0  0  0  0  0  0  0  0  0
    7.8270    0.7860   26.8940 C   0  0  0  0  0  0  0  0  0  0  0  0
    7.5030    1.3470   24.4470 N   0  0  0  0  0  0  0  0  0  0  0  0
   11.9550    2.7110   22.8480 C   0  0  0  0  0  0  0  0  0  0  0  0
    7.1030    1.4070   25.7340 C   0  0  0  0  0  0  0  0  0  0  0  0
   11.9910    4.1090   22.8680 C   0  0  0  0  0  0  0  0  0  0  0  0
   13.2320    4.6440   22.5320 C   0  0  0  0  0  0  0  0  0  0  0  0
  1  2  1  0
  2  3  2  0
  2  4  1  0
  4  5  1  0
  4  6  1  0
  5  7  1  0
  6  8  1  0
  7  9  1  0
  8  9  1  0
  9 10  1  0
 10 11  2  0
 10 12  1  0
 12 13  1  0
 12 14  1  0
 13 15  1  0
 14 16  1  0
 15 17  2  0
 15 18  1  0
 16 19  2  0
 16 20  1  0
 17 21  1  0
 18 22  2  0
 19 23  1  0
 20 24  2  0
 21 25  2  0
 22 25  1  0
 23 26  2  0
 24 26  1  0
 25 27  1  0
 27 28  1  0
M  END
