SAD-SAT-9a6c5cf3-6-acrylamide
     RDKit          3D

 30 33  0  0  0  0  0  0  0  0999 V2000
    8.1390   -3.5590   19.9650 C   0  0  0  0  0  0  0  0  0  0  0  0
    7.0870   -2.8420   19.6080 C   0  0  0  0  0  0  0  0  0  0  0  0
    5.9520   -3.6420   20.1430 C   0  0  0  0  0  0  0  0  0  0  0  0
    5.3210   -4.3530   20.8680 O   0  0  0  0  0  0  0  0  0  0  0  0
    6.8570   -3.8440   21.2180 N   0  0  0  0  0  0  0  0  0  0  0  0
    6.5090   -4.8610   22.2380 C   0  0  0  0  0  0  0  0  0  0  0  0
    7.6000   -2.6990   21.7950 C   0  0  0  0  0  0  0  0  0  0  0  0
    5.6570   -4.2530   23.3840 C   0  0  0  0  0  0  0  0  0  0  0  0
    7.6640   -2.7800   23.3190 C   0  0  0  0  0  0  0  0  0  0  0  0
    6.2660   -2.9440   23.9220 C   0  0  0  0  0  0  0  0  0  0  0  0
    6.1820   -2.7870   25.4420 C   0  0  0  0  0  0  0  0  0  0  0  0
    5.3910   -3.5360   26.0130 O   0  0  0  0  0  0  0  0  0  0  0  0
    6.9270   -1.8390   26.2290 N   0  0  0  0  0  0  0  0  0  0  0  0
    6.4910   -1.6070   27.5640 C   0  0  0  0  0  0  0  0  0  0  0  0
    7.4420   -0.5500   25.8630 C   0  0  0  0  0  0  0  0  0  0  0  0
    5.3870   -0.7860   27.4230 C   0  0  0  0  0  0  0  0  0  0  0  0
    7.1910    0.5530   26.9520 C   0  0  0  0  0  0  0  0  0  0  0  0
    5.8270    0.4780   27.5650 N   0  0  0  0  0  0  0  0  0  0  0  0
    4.6960    1.6340   26.9780 S   0  0  0  0  0  0  0  0  0  0  0  0
    5.0850    1.9280   25.6180 O   0  0  0  0  0  0  0  0  0  0  0  0
    4.5590    2.6660   27.9780 O   0  0  0  0  0  0  0  0  0  0  0  0
    3.2550    0.7030   27.0170 C   0  0  0  0  0  0  0  0  0  0  0  0
    3.1160   -0.4260   26.1570 C   0  0  0  0  0  0  0  0  0  0  0  0
    2.1810    1.0020   27.8810 C   0  0  0  0  0  0  0  0  0  0  0  0
    1.9670   -1.2360   26.1460 C   0  0  0  0  0  0  0  0  0  0  0  0
    1.0080    0.2470   27.9270 C   0  0  0  0  0  0  0  0  0  0  0  0
    0.9190   -0.9250   27.0060 C   0  0  0  0  0  0  0  0  0  0  0  0
   -0.2640    0.3350   28.7300 C   0  0  0  0  0  0  0  0  0  0  0  0
   -1.1220   -0.8820   28.2250 C   0  0  0  0  0  0  0  0  0  0  0  0
   -0.3870   -1.6760   27.1330 C   0  0  0  0  0  0  0  0  0  0  0  0
  1  2  1  0
  2  3  1  0
  3  4  2  0
  3  5  1  0
  5  6  1  0
  5  7  1  0
  6  8  1  0
  7  9  1  0
  8 10  1  0
  9 10  1  0
 10 11  1  0
 11 12  2  0
 11 13  1  0
 13 14  1  0
 13 15  1  0
 14 16  1  0
 15 17  1  0
 16 18  1  0
 17 18  1  0
 18 19  1  0
 19 20  2  0
 19 21  2  0
 19 22  1  0
 22 23  2  0
 22 24  1  0
 23 25  1  0
 24 26  2  0
 25 27  2  0
 26 27  1  0
 26 28  1  0
 28 29  1  0
 27 30  1  0
 29 30  1  0
M  END
