SAD-SAT-5b1897b2-4-acrylamide
     RDKit          3D

 17 18  0  0  0  0  0  0  0  0999 V2000
    8.0230   -3.4140   19.1650 C   0  0  0  0  0  0  0  0  0  0  0  0
    6.8190   -2.5240   19.0040 C   0  0  0  0  0  0  0  0  0  0  0  0
    5.9420   -2.8860   20.1430 C   0  0  0  0  0  0  0  0  0  0  0  0
    5.0350   -3.6580   19.8920 O   0  0  0  0  0  0  0  0  0  0  0  0
    6.2950   -2.3750   21.3950 N   0  0  0  0  0  0  0  0  0  0  0  0
    7.1860   -1.2410   21.3660 C   0  0  0  0  0  0  0  0  0  0  0  0
    6.7250   -3.3310   22.4580 C   0  0  0  0  0  0  0  0  0  0  0  0
    8.5460   -1.8020   21.1480 C   0  0  0  0  0  0  0  0  0  0  0  0
    8.0040   -3.1230   23.0880 C   0  0  0  0  0  0  0  0  0  0  0  0
    9.0370   -2.6180   22.2970 N   0  0  0  0  0  0  0  0  0  0  0  0
    9.9880   -1.7170   22.8170 C   0  0  0  0  0  0  0  0  0  0  0  0
   11.2620   -1.4150   22.2590 C   0  0  0  0  0  0  0  0  0  0  0  0
    9.6030   -1.0600   23.9340 C   0  0  0  0  0  0  0  0  0  0  0  0
   12.1170   -0.3090   22.9640 C   0  0  0  0  0  0  0  0  0  0  0  0
   10.2640   -0.0820   24.6270 C   0  0  0  0  0  0  0  0  0  0  0  0
   11.5240    0.3340   24.1630 C   0  0  0  0  0  0  0  0  0  0  0  0
    9.5780    0.3950   25.7270 C   0  0  0  0  0  0  0  0  0  0  0  0
  1  2  1  0
  2  3  1  0
  3  4  2  0
  3  5  1  0
  5  6  1  0
  5  7  1  0
  6  8  1  0
  7  9  1  0
  8 10  1  0
  9 10  1  0
 10 11  1  0
 11 12  2  0
 11 13  1  0
 12 14  1  0
 13 15  2  0
 14 16  2  0
 15 16  1  0
 15 17  1  0
M  END
