SAD-SAT-5b1897b2-4-chloroacetamide
     RDKit          3D

 16 17  0  0  0  0  0  0  0  0999 V2000
    7.1180   -3.0010   18.8580 C   0  0  0  0  0  0  0  0  0  0  0  0
    6.1940   -3.4320   19.9800 C   0  0  0  0  0  0  0  0  0  0  0  0
    5.3110   -4.2720   19.7930 O   0  0  0  0  0  0  0  0  0  0  0  0
    6.3840   -2.8530   21.2510 N   0  0  0  0  0  0  0  0  0  0  0  0
    6.7610   -1.4690   21.3030 C   0  0  0  0  0  0  0  0  0  0  0  0
    7.0100   -3.6570   22.2890 C   0  0  0  0  0  0  0  0  0  0  0  0
    8.2640   -1.4270   21.2960 C   0  0  0  0  0  0  0  0  0  0  0  0
    7.9740   -2.9870   23.0860 C   0  0  0  0  0  0  0  0  0  0  0  0
    8.8930   -2.2560   22.3510 N   0  0  0  0  0  0  0  0  0  0  0  0
    9.8590   -1.4980   22.9660 C   0  0  0  0  0  0  0  0  0  0  0  0
    9.5220   -0.9490   24.2720 C   0  0  0  0  0  0  0  0  0  0  0  0
   11.1470   -1.1650   22.4230 C   0  0  0  0  0  0  0  0  0  0  0  0
   10.3510   -0.1290   24.9410 C   0  0  0  0  0  0  0  0  0  0  0  0
   12.0530   -0.3110   23.0930 C   0  0  0  0  0  0  0  0  0  0  0  0
   11.6860    0.2170   24.3010 C   0  0  0  0  0  0  0  0  0  0  0  0
   13.2830    0.0020   22.5650 C   0  0  0  0  0  0  0  0  0  0  0  0
  1  2  1  0
  2  3  2  0
  2  4  1  0
  4  5  1  0
  4  6  1  0
  5  7  1  0
  6  8  1  0
  7  9  1  0
  8  9  1  0
  9 10  1  0
 10 11  2  0
 10 12  1  0
 11 13  1  0
 12 14  2  0
 13 15  2  0
 14 15  1  0
 14 16  1  0
M  END
