SAD-SAT-f0a2747f-10-vinylsulfonamide
     RDKit          3D

 16 17  0  0  0  0  0  0  0  0999 V2000
    7.6290   -3.0880   18.7790 C   0  0  0  0  0  0  0  0  0  0  0  0
    7.2250   -2.6410   20.1670 C   0  0  0  0  0  0  0  0  0  0  0  0
    5.7400   -3.3680   20.7650 S   0  0  0  0  0  0  0  0  0  0  0  0
    5.1380   -4.2830   19.8020 O   0  0  0  0  0  0  0  0  0  0  0  0
    4.9640   -2.2840   21.3120 O   0  0  0  0  0  0  0  0  0  0  0  0
    6.3280   -4.2670   22.0580 N   0  0  0  0  0  0  0  0  0  0  0  0
    5.3530   -5.1540   22.5050 C   0  0  0  0  0  0  0  0  0  0  0  0
    7.6670   -4.9090   21.9210 C   0  0  0  0  0  0  0  0  0  0  0  0
    5.6120   -6.4510   22.1870 C   0  0  0  0  0  0  0  0  0  0  0  0
    7.8950   -6.0250   22.9210 C   0  0  2  0  0  0  0  0  0  0  0  0
    6.7450   -6.9320   22.9480 O   0  0  0  0  0  0  0  0  0  0  0  0
    8.0020   -5.3930   24.1240 C   0  0  0  0  0  0  0  0  0  0  0  0
    8.9630   -5.7140   25.2070 C   0  0  0  0  0  0  0  0  0  0  0  0
    6.9560   -4.0890   24.4930 S   0  0  0  0  0  0  0  0  0  0  0  0
    8.7150   -4.8230   26.3080 C   0  0  0  0  0  0  0  0  0  0  0  0
    7.6350   -3.8730   26.0260 C   0  0  0  0  0  0  0  0  0  0  0  0
  1  2  1  0
  3  2  1  0
  3  4  2  0
  3  5  2  0
  3  6  1  0
  6  7  1  0
  6  8  1  0
  7  9  1  0
  8 10  1  0
  9 11  1  0
 10 11  1  0
 10 12  1  1
 12 13  2  0
 12 14  1  0
 13 15  1  0
 14 16  1  0
 15 16  2  0
M  END
