SAD-SAT-f0a2747f-5-vinylsulfonamide
     RDKit          3D

 22 23  0  0  0  0  0  0  0  0999 V2000
    7.4350   -3.0600   19.1040 C   0  0  0  0  0  0  0  0  0  0  0  0
    7.0440   -2.6030   20.5170 C   0  0  0  0  0  0  0  0  0  0  0  0
    5.7080   -3.6670   20.9520 S   0  0  0  0  0  0  0  0  0  0  0  0
    4.6160   -3.0020   21.5780 O   0  0  0  0  0  0  0  0  0  0  0  0
    5.3140   -4.4150   19.7850 O   0  0  0  0  0  0  0  0  0  0  0  0
    6.2880   -4.7340   22.1270 N   0  0  0  0  0  0  0  0  0  0  0  0
    7.3530   -4.5180   23.0690 C   0  0  0  0  0  0  0  0  0  0  0  0
    7.8560   -3.3370   23.5670 C   0  0  0  0  0  0  0  0  0  0  0  0
    7.9550   -5.6580   23.5650 C   0  0  0  0  0  0  0  0  0  0  0  0
    8.8900   -3.3280   24.4920 C   0  0  0  0  0  0  0  0  0  0  0  0
    9.0070   -5.7030   24.4920 C   0  0  0  0  0  0  0  0  0  0  0  0
    7.2340   -7.0840   22.9090 S   0  0  0  0  0  0  0  0  0  0  0  0
    9.4940   -4.4890   24.9770 C   0  0  0  0  0  0  0  0  0  0  0  0
    7.0400   -6.6600   21.5580 O   0  0  0  0  0  0  0  0  0  0  0  0
    7.9660   -8.2770   23.2620 O   0  0  0  0  0  0  0  0  0  0  0  0
    5.6890   -7.0400   23.6610 N   0  0  0  0  0  0  0  0  0  0  0  0
   10.6080   -4.4070   25.9780 C   0  0  0  0  0  0  0  0  0  0  0  0
    4.5240   -6.5660   22.8700 C   0  0  0  0  0  0  0  0  0  0  0  0
    5.5690   -6.2600   24.8900 C   0  0  0  0  0  0  0  0  0  0  0  0
    3.2690   -7.1850   23.5450 C   0  0  0  0  0  0  0  0  0  0  0  0
    4.4090   -6.7090   25.5540 C   0  0  0  0  0  0  0  0  0  0  0  0
    3.7140   -7.7250   24.7980 O   0  0  0  0  0  0  0  0  0  0  0  0
  1  2  1  0
  2  3  1  0
  3  4  2  0
  3  5  2  0
  3  6  1  0
  6  7  1  0
  7  8  2  0
  7  9  1  0
  8 10  1  0
  9 11  2  0
 12  9  1  0
 10 13  2  0
 11 13  1  0
 12 14  2  0
 12 15  2  0
 12 16  1  0
 13 17  1  0
 16 18  1  0
 16 19  1  0
 18 20  1  0
 19 21  1  0
 20 22  1  0
 21 22  1  0
M  END
