SAD-SAT-2fd372d1-5
     RDKit          3D

 18 19  0  0  0  0  0  0  0  0999 V2000
    1.8200   -7.0490   24.8050 O   0  0  0  0  0  0  0  0  0  0  0  0
    1.3140   -6.2880   25.9250 S   0  0  0  0  0  0  0  0  0  0  0  0
   -0.1060   -6.1630   26.1550 O   0  0  0  0  0  0  0  0  0  0  0  0
    1.8820   -6.9930   27.2310 F   0  0  0  0  0  0  0  0  0  0  0  0
    2.0040   -4.6490   25.8880 C   0  0  0  0  0  0  0  0  0  0  0  0
    1.0150   -3.5110   25.9800 C   0  0  0  0  0  0  0  0  0  0  0  0
    3.3760   -4.3280   25.7900 C   0  0  0  0  0  0  0  0  0  0  0  0
    1.4890   -2.1090   25.9650 C   0  0  0  0  0  0  0  0  0  0  0  0
    3.8050   -2.9850   25.7730 C   0  0  0  0  0  0  0  0  0  0  0  0
    4.6690   -5.5320   25.6800 S   0  0  0  0  0  0  0  0  0  0  0  0
    2.8280   -1.8380   25.8660 C   0  0  0  0  0  0  0  0  0  0  0  0
    4.0760   -6.8520   25.6730 O   0  0  0  0  0  0  0  0  0  0  0  0
    5.6760   -5.1660   26.6520 O   0  0  0  0  0  0  0  0  0  0  0  0
    5.2800   -5.2040   24.1130 N   0  0  0  0  0  0  0  0  0  0  0  0
    6.7170   -4.9690   24.0080 C   0  0  0  0  0  0  0  0  0  0  0  0
    4.7440   -5.8790   23.0590 C   0  0  0  0  0  0  0  0  0  0  0  0
    6.9600   -5.2260   22.6960 C   0  0  0  0  0  0  0  0  0  0  0  0
    5.7390   -5.8550   22.0730 C   0  0  0  0  0  0  0  0  0  0  0  0
  1  2  2  0
  2  3  2  0
  2  4  1  0
  2  5  1  0
  5  6  2  0
  5  7  1  0
  6  8  1  0
  7  9  2  0
 10  7  1  0
  8 11  2  0
  9 11  1  0
 10 12  2  0
 10 13  2  0
 10 14  1  0
 14 15  1  0
 14 16  1  0
 15 17  1  0
 16 18  1  0
 17 18  1  0
M  END
