SAD-SAT-65574d3f-9-bromoalkyne
     RDKit          3D

 15 16  0  0  0  0  0  0  0  0999 V2000
    6.5000   -4.2230   20.2110 C   0  0  0  0  0  0  0  0  0  0  0  0
    5.3440   -3.7990   19.6560 C   0  0  0  0  0  0  0  0  0  0  0  0
    6.5290   -4.9760   21.4280 N   0  0  0  0  0  0  0  0  0  0  0  0
    7.2300   -4.6030   22.6840 C   0  0  0  0  0  0  0  0  0  0  0  0
    5.6720   -6.1350   21.7640 C   0  0  0  0  0  0  0  0  0  0  0  0
    6.2420   -4.1410   23.7980 C   0  0  0  0  0  0  0  0  0  0  0  0
    4.5850   -5.8250   22.8520 C   0  0  0  0  0  0  0  0  0  0  0  0
    4.9840   -4.9490   24.0040 N   0  0  0  0  0  0  0  0  0  0  0  0
    3.8980   -4.2700   24.6160 C   0  0  0  0  0  0  0  0  0  0  0  0
    4.0840   -3.1290   25.3840 C   0  0  0  0  0  0  0  0  0  0  0  0
    2.5500   -4.6650   24.5020 C   0  0  0  0  0  0  0  0  0  0  0  0
    3.0840   -2.3890   26.0000 C   0  0  0  0  0  0  0  0  0  0  0  0
    1.5120   -3.9280   25.1250 C   0  0  0  0  0  0  0  0  0  0  0  0
    1.7750   -2.7860   25.8720 C   0  0  0  0  0  0  0  0  0  0  0  0
   -0.1180   -4.4630   24.9520 Cl  0  0  0  0  0  0  0  0  0  0  0  0
  1  2  2  3
  1  3  1  0
  3  4  1  0
  3  5  1  0
  4  6  1  0
  5  7  1  0
  6  8  1  0
  7  8  1  0
  8  9  1  0
  9 10  2  0
  9 11  1  0
 10 12  1  0
 11 13  2  0
 12 14  2  0
 13 14  1  0
 13 15  1  0
M  END
