SAD-SAT-b55127ae-3-acrylamide
     RDKit          3D

 28 30  0  0  0  0  0  0  0  0999 V2000
    6.6720   -5.8090   20.6520 C   0  0  0  0  0  0  0  0  0  0  0  0
    6.3550   -5.2560   22.0320 C   0  0  0  0  0  0  0  0  0  0  0  0
    6.0360   -3.7940   22.0610 C   0  0  0  0  0  0  0  0  0  0  0  0
    4.9030   -3.4210   21.6290 O   0  0  0  0  0  0  0  0  0  0  0  0
    7.0910   -2.9770   22.5980 N   0  0  0  0  0  0  0  0  0  0  0  0
    8.0510   -3.6020   23.5440 C   0  0  0  0  0  0  0  0  0  0  0  0
    7.5610   -1.7440   21.9290 C   0  0  0  0  0  0  0  0  0  0  0  0
    9.4900   -3.1830   23.2710 C   0  0  0  0  0  0  0  0  0  0  0  0
    9.1000   -1.5520   21.8160 C   0  0  0  0  0  0  0  0  0  0  0  0
    9.9500   -1.8510   23.0640 C   0  0  0  0  0  0  0  0  0  0  0  0
    9.5380   -0.8610   24.0360 C   0  0  0  0  0  0  0  0  0  0  0  0
   10.4800   -0.6410   24.9850 O   0  0  0  0  0  0  0  0  0  0  0  0
    8.3170   -0.2160   24.0010 N   0  0  0  0  0  0  0  0  0  0  0  0
    8.2000    0.9440   23.1110 C   0  0  0  0  0  0  0  0  0  0  0  0
    7.0620   -0.7550   24.5590 C   0  0  0  0  0  0  0  0  0  0  0  0
    7.1340    0.8060   22.2590 C   0  0  0  0  0  0  0  0  0  0  0  0
    5.9490    0.0910   24.3710 C   0  0  0  0  0  0  0  0  0  0  0  0
    5.8690    0.6680   22.9850 N   0  0  0  0  0  0  0  0  0  0  0  0
    4.5610    0.0920   22.0800 S   0  0  0  0  0  0  0  0  0  0  0  0
    4.3800   -1.2970   22.4490 O   0  0  0  0  0  0  0  0  0  0  0  0
    3.5360    1.0850   22.2100 O   0  0  0  0  0  0  0  0  0  0  0  0
    4.9780    0.0890   20.4410 C   0  0  0  0  0  0  0  0  0  0  0  0
    5.7030   -1.0180   19.8580 C   0  0  0  0  0  0  0  0  0  0  0  0
    4.7140    1.0710   19.4800 C   0  0  0  0  0  0  0  0  0  0  0  0
    6.0100   -0.8840   18.4170 C   0  0  0  0  0  0  0  0  0  0  0  0
    5.3810    0.6090   17.8630 S   0  0  0  0  0  0  0  0  0  0  0  0
    3.9690    2.4180   19.6250 C   0  0  0  0  0  0  0  0  0  0  0  0
    6.7570   -1.9690   17.6650 C   0  0  0  0  0  0  0  0  0  0  0  0
  1  2  1  0
  2  3  1  0
  3  4  2  0
  3  5  1  0
  5  6  1  0
  5  7  1  0
  6  8  1  0
  7  9  1  0
  8 10  1  0
  9 10  1  0
 10 11  1  0
 11 12  2  0
 11 13  1  0
 13 14  1  0
 13 15  1  0
 14 16  1  0
 15 17  1  0
 16 18  1  0
 17 18  1  0
 18 19  1  0
 19 20  2  0
 19 21  2  0
 19 22  1  0
 22 23  1  0
 22 24  2  0
 23 25  2  0
 24 26  1  0
 25 26  1  0
 24 27  1  0
 25 28  1  0
M  END
