SAD-SAT-c989feaa-5-nitrile
     RDKit          3D

 20 21  0  0  0  0  0  0  0  0999 V2000
    6.7920   -3.3400   19.5840 C   0  0  0  0  0  0  0  0  0  0  0  0
    5.9560   -3.0780   18.6610 N   0  0  0  0  0  0  0  0  0  0  0  0
    6.7000   -2.7840   20.8330 N   0  0  0  0  0  0  0  0  0  0  0  0
    6.3120   -3.5200   22.0280 C   0  0  0  0  0  0  0  0  0  0  0  0
    7.1030   -1.4000   21.0810 C   0  0  0  0  0  0  0  0  0  0  0  0
    7.4700   -3.5760   23.0240 C   0  0  0  0  0  0  0  0  0  0  0  0
    8.2080   -1.2840   22.1790 C   0  0  2  0  0  0  0  0  0  0  0  0
    8.1240   -2.2900   23.2970 N   0  0  0  0  0  0  0  0  0  0  0  0
    8.1780    0.1670   22.7460 C   0  0  0  0  0  0  0  0  0  0  0  0
    9.1600   -2.3060   24.2120 C   0  0  0  0  0  0  0  0  0  0  0  0
    8.6690    1.3170   21.8270 C   0  0  0  0  0  0  0  0  0  0  0  0
   10.3600   -1.4530   23.8620 C   0  0  0  0  0  0  0  0  0  0  0  0
    9.6220    2.1340   22.3550 N   0  0  0  0  0  0  0  0  0  0  0  0
    8.2400    1.5280   20.7000 O   0  0  0  0  0  0  0  0  0  0  0  0
   10.7610   -0.1900   24.4270 C   0  0  0  0  0  0  0  0  0  0  0  0
   11.1960   -1.9070   22.8670 C   0  0  0  0  0  0  0  0  0  0  0  0
   11.9170    0.5920   24.0380 C   0  0  0  0  0  0  0  0  0  0  0  0
   12.4230   -1.1340   22.4170 C   0  0  0  0  0  0  0  0  0  0  0  0
   12.8330    0.2070   23.0300 C   0  0  0  0  0  0  0  0  0  0  0  0
   13.3360   -1.8210   21.1750 Cl  0  0  0  0  0  0  0  0  0  0  0  0
  1  2  2  3
  1  3  1  0
  3  4  1  0
  3  5  1  0
  4  6  1  0
  5  7  1  0
  6  8  1  0
  7  8  1  0
  7  9  1  1
  8 10  1  0
  9 11  1  0
 10 12  1  0
 11 13  1  0
 11 14  2  0
 12 15  2  0
 12 16  1  0
 15 17  1  0
 16 18  2  0
 17 19  2  0
 18 19  1  0
 18 20  1  0
M  END
