SAD-SAT-29425be4-7-vinylsulfonamide
     RDKit          3D

 35 36  0  0  0  0  0  0  0  0999 V2000
    8.3830   -3.9410   20.2110 C   0  0  0  0  0  0  0  0  0  0  0  0
    7.5750   -4.7680   21.2460 C   0  0  0  0  0  0  0  0  0  0  0  0
    5.7760   -4.4700   21.2530 S   0  0  0  0  0  0  0  0  0  0  0  0
    5.1490   -4.9220   20.0320 O   0  0  0  0  0  0  0  0  0  0  0  0
    5.4960   -3.1270   21.7110 O   0  0  0  0  0  0  0  0  0  0  0  0
    5.1810   -5.4580   22.5130 N   0  0  0  0  0  0  0  0  0  0  0  0
    6.1190   -6.5020   22.8780 C   0  0  0  0  0  0  0  0  0  0  0  0
    4.7260   -4.6540   23.6580 C   0  0  0  0  0  0  0  0  0  0  0  0
    7.3300   -5.8370   23.5170 C   0  0  0  0  0  0  0  0  0  0  0  0
    5.8250   -3.9660   24.2010 C   0  0  0  0  0  0  0  0  0  0  0  0
    7.0670   -4.3540   23.3850 C   0  0  0  0  0  0  0  0  0  0  0  0
    8.2720   -3.4680   23.6610 C   0  0  0  0  0  0  0  0  0  0  0  0
    9.2800   -3.9490   24.1920 O   0  0  0  0  0  0  0  0  0  0  0  0
    8.1840   -2.1490   23.2510 N   0  0  0  0  0  0  0  0  0  0  0  0
    8.1330   -1.8170   21.8270 C   0  0  0  0  0  0  0  0  0  0  0  0
    8.7630   -1.0430   24.0070 C   0  0  1  0  0  0  0  0  0  0  0  0
    7.0030   -0.8980   21.4610 C   0  0  0  0  0  0  0  0  0  0  0  0
    8.4140   -0.8400   25.4890 C   0  0  0  0  0  0  0  0  0  0  0  0
   10.1810   -0.6930   23.6150 C   0  0  0  0  0  0  0  0  0  0  0  0
    6.1580   -0.3620   22.5900 C   0  0  0  0  0  0  0  0  0  0  0  0
    7.5290    0.3150   20.6920 C   0  0  0  0  0  0  0  0  0  0  0  0
    6.1320   -1.6960   20.5840 N   0  0  0  0  0  0  0  0  0  0  0  0
   10.7250    0.6090   24.1800 C   0  0  0  0  0  0  0  0  0  0  0  0
   10.9710   -1.4690   22.7620 C   0  0  0  0  0  0  0  0  0  0  0  0
    6.4930   -2.3260   19.4420 C   0  0  0  0  0  0  0  0  0  0  0  0
   11.9810    1.0500   23.8590 C   0  0  0  0  0  0  0  0  0  0  0  0
   12.3470   -0.9960   22.4040 C   0  0  0  0  0  0  0  0  0  0  0  0
    5.8370   -3.5210   19.2320 O   0  0  0  0  0  0  0  0  0  0  0  0
    7.4040   -1.6260   18.7280 O   0  0  0  0  0  0  0  0  0  0  0  0
   12.8720    0.2880   22.9630 C   0  0  0  0  0  0  0  0  0  0  0  0
   13.2950   -1.8980   21.3490 Cl  0  0  0  0  0  0  0  0  0  0  0  0
    6.9020   -0.9190   17.5800 C   0  0  0  0  0  0  0  0  0  0  0  0
    7.2620   -1.7050   16.3460 C   0  0  0  0  0  0  0  0  0  0  0  0
    5.4300   -0.8420   17.9920 C   0  0  0  0  0  0  0  0  0  0  0  0
    7.2700    0.5390   17.3970 C   0  0  0  0  0  0  0  0  0  0  0  0
  1  2  1  0
  3  2  1  0
  3  4  2  0
  3  5  2  0
  3  6  1  0
  6  7  1  0
  6  8  1  0
  7  9  1  0
  8 10  1  0
  9 11  1  0
 10 11  1  0
 11 12  1  0
 12 13  2  0
 12 14  1  0
 14 15  1  0
 14 16  1  0
 15 17  1  0
 16 18  1  1
 16 19  1  0
 17 20  1  0
 17 21  1  0
 17 22  1  0
 19 23  2  0
 19 24  1  0
 22 25  1  0
 23 26  1  0
 24 27  2  0
 25 28  2  0
 25 29  1  0
 26 30  2  0
 27 30  1  0
 27 31  1  0
 32 29  1  0
 32 33  1  0
 32 34  1  0
 32 35  1  0
M  END
