SAD-SAT-2fd372d1-1
     RDKit          3D

 18 19  0  0  0  0  0  0  0  0999 V2000
    5.5750   -4.4780   19.8580 O   0  0  0  0  0  0  0  0  0  0  0  0
    6.2130   -4.1930   20.8800 C   0  0  0  0  0  0  0  0  0  0  0  0
    6.7630   -2.7690   21.0140 C   0  0  0  0  0  0  0  0  0  0  0  0
    6.4710   -5.1300   21.9930 N   0  0  0  0  0  0  0  0  0  0  0  0
    7.7980   -2.5320   22.0790 C   0  0  0  0  0  0  0  0  0  0  0  0
    5.6510   -6.3090   22.1920 C   0  0  0  0  0  0  0  0  0  0  0  0
    7.2570   -4.9520   23.0550 C   0  0  0  0  0  0  0  0  0  0  0  0
    7.5310   -2.0020   23.3180 C   0  0  0  0  0  0  0  0  0  0  0  0
    9.4950   -2.8660   21.9310 S   0  0  0  0  0  0  0  0  0  0  0  0
    4.7340   -6.0650   23.2200 C   0  0  0  0  0  0  0  0  0  0  0  0
    6.4050   -4.3520   23.9890 C   0  0  0  0  0  0  0  0  0  0  0  0
    8.6550   -1.8750   24.1130 C   0  0  0  0  0  0  0  0  0  0  0  0
    9.8250   -2.3030   23.5130 C   0  0  0  0  0  0  0  0  0  0  0  0
    5.3010   -5.2710   24.2060 N   0  0  0  0  0  0  0  0  0  0  0  0
    4.9310   -5.6070   25.8380 S   0  0  0  0  0  0  0  0  0  0  0  0
    3.9620   -6.6790   25.8970 O   0  0  0  0  0  0  0  0  0  0  0  0
    4.7600   -4.3670   26.5470 O   0  0  0  0  0  0  0  0  0  0  0  0
    6.2570   -6.1820   26.4790 F   0  0  0  0  0  0  0  0  0  0  0  0
  1  2  2  0
  2  3  1  0
  2  4  1  0
  3  5  1  0
  4  6  1  0
  4  7  1  0
  5  8  2  0
  5  9  1  0
  6 10  1  0
  7 11  1  0
  8 12  1  0
  9 13  1  0
 12 13  2  0
 10 14  1  0
 11 14  1  0
 14 15  1  0
 15 16  2  0
 15 17  2  0
 15 18  1  0
M  END
