SAD-SAT-2ceae68f-10-acrylamide
     RDKit          3D

 21 22  0  0  0  0  0  0  0  0999 V2000
    6.6670   -2.8470   19.2080 C   0  0  0  0  0  0  0  0  0  0  0  0
    6.8030   -1.5790   20.2170 C   0  0  0  0  0  0  0  0  0  0  0  0
    5.8720   -1.4840   21.4840 C   0  0  0  0  0  0  0  0  0  0  0  0
    4.8220   -2.7490   21.1190 O   0  0  0  0  0  0  0  0  0  0  0  0
    7.0510   -0.3160   21.5450 N   0  0  0  0  0  0  0  0  0  0  0  0
    8.0260    0.3760   22.6660 C   0  0  0  0  0  0  0  0  0  0  0  0
    9.2590    1.2230   21.9890 C   0  0  0  0  0  0  0  0  0  0  0  0
   10.3590    1.5450   23.0710 C   0  0  0  0  0  0  0  0  0  0  0  0
   10.3960    2.6280   23.6750 O   0  0  0  0  0  0  0  0  0  0  0  0
   11.3030    0.5510   23.3390 N   0  0  0  0  0  0  0  0  0  0  0  0
   11.5320    0.0130   24.6100 C   0  0  0  0  0  0  0  0  0  0  0  0
   12.5630    0.3690   22.6790 C   0  0  0  0  0  0  0  0  0  0  0  0
   12.1300   -1.4170   24.5650 C   0  0  0  0  0  0  0  0  0  0  0  0
   12.5710   -1.1440   22.4660 C   0  0  1  0  0  0  0  0  0  0  0  0
   13.0360   -1.6420   23.4550 O   0  0  0  0  0  0  0  0  0  0  0  0
   11.2030   -1.7830   22.5230 C   0  0  0  0  0  0  0  0  0  0  0  0
   10.1340   -1.4520   21.7190 C   0  0  0  0  0  0  0  0  0  0  0  0
   10.6830   -3.0210   23.6270 S   0  0  0  0  0  0  0  0  0  0  0  0
    8.9910   -2.1580   21.9800 C   0  0  0  0  0  0  0  0  0  0  0  0
    9.1070   -3.0710   22.9980 C   0  0  0  0  0  0  0  0  0  0  0  0
    7.9020   -4.1360   23.6060 Cl  0  0  0  0  0  0  0  0  0  0  0  0
  1  2  1  0
  2  3  1  0
  3  4  2  0
  3  5  1  0
  5  6  1  0
  6  7  1  0
  7  8  1  0
  8  9  2  0
  8 10  1  0
 10 11  1  0
 10 12  1  0
 11 13  1  0
 12 14  1  0
 13 15  1  0
 14 15  1  0
 14 16  1  1
 16 17  2  0
 16 18  1  0
 17 19  1  0
 18 20  1  0
 19 20  2  0
 20 21  1  0
M  END
