SAD-SAT-b55127ae-1-bromoalkyne
     RDKit          3D

 18 19  0  0  0  0  0  0  0  0999 V2000
    7.0200   -4.0010   20.0340 C   0  0  0  0  0  0  0  0  0  0  0  0
    6.5330   -3.2240   19.0500 C   0  0  0  0  0  0  0  0  0  0  0  0
    7.6760   -3.5610   21.2070 N   0  0  0  0  0  0  0  0  0  0  0  0
    7.0850   -3.9100   22.5160 C   0  0  0  0  0  0  0  0  0  0  0  0
    8.2610   -2.2060   21.2720 C   0  0  0  0  0  0  0  0  0  0  0  0
    5.8260   -3.0680   22.7080 C   0  0  0  0  0  0  0  0  0  0  0  0
    7.2360   -1.2870   21.9340 C   0  0  0  0  0  0  0  0  0  0  0  0
    5.9180   -1.9090   21.8220 N   0  0  0  0  0  0  0  0  0  0  0  0
    5.3630   -2.0710   20.5610 C   0  0  0  0  0  0  0  0  0  0  0  0
    4.8610   -3.1490   20.2170 O   0  0  0  0  0  0  0  0  0  0  0  0
    5.4240   -0.8480   19.6350 C   0  0  0  0  0  0  0  0  0  0  0  0
    4.7990    0.4060   20.2250 C   0  0  0  0  0  0  0  0  0  0  0  0
    5.1030    0.7950   21.5370 C   0  0  0  0  0  0  0  0  0  0  0  0
    3.9070    1.1970   19.4780 C   0  0  0  0  0  0  0  0  0  0  0  0
    4.5370    1.9410   22.0970 C   0  0  0  0  0  0  0  0  0  0  0  0
    3.3400    2.3430   20.0480 C   0  0  0  0  0  0  0  0  0  0  0  0
    3.6530    2.7150   21.3510 C   0  0  0  0  0  0  0  0  0  0  0  0
    2.2430    3.3200   19.1530 Cl  0  0  0  0  0  0  0  0  0  0  0  0
  1  2  2  3
  1  3  1  0
  3  4  1  0
  3  5  1  0
  4  6  1  0
  5  7  1  0
  6  8  1  0
  7  8  1  0
  8  9  1  0
  9 10  2  0
  9 11  1  0
 11 12  1  0
 12 13  2  0
 12 14  1  0
 13 15  1  0
 14 16  2  0
 15 17  2  0
 16 17  1  0
 16 18  1  0
M  END
