SAD-SAT-f2e2579e-2-vinylsulfonamide
     RDKit          3D

 33 36  0  0  0  0  0  0  0  0999 V2000
    8.0110   -3.4310   19.6890 C   0  0  0  0  0  0  0  0  0  0  0  0
    6.8820   -2.9380   19.2240 C   0  0  0  0  0  0  0  0  0  0  0  0
    5.8010   -3.8570   20.2290 S   0  0  0  0  0  0  0  0  0  0  0  0
    4.8350   -2.9880   20.7200 O   0  0  0  0  0  0  0  0  0  0  0  0
    5.3990   -5.0890   19.6310 O   0  0  0  0  0  0  0  0  0  0  0  0
    6.8440   -4.2140   21.5180 N   0  0  0  0  0  0  0  0  0  0  0  0
    6.4370   -5.3790   22.3180 C   0  0  0  0  0  0  0  0  0  0  0  0
    7.6110   -3.1270   22.1490 C   0  0  0  0  0  0  0  0  0  0  0  0
    5.9610   -4.9570   23.7070 C   0  0  0  0  0  0  0  0  0  0  0  0
    7.0070   -2.6510   23.3070 C   0  0  0  0  0  0  0  0  0  0  0  0
    6.7880   -3.8010   24.3010 C   0  0  0  0  0  0  0  0  0  0  0  0
    6.0750   -3.2730   25.5380 C   0  0  0  0  0  0  0  0  0  0  0  0
    4.9940   -3.7580   25.8630 O   0  0  0  0  0  0  0  0  0  0  0  0
    6.6730   -2.1620   26.3020 N   0  0  0  0  0  0  0  0  0  0  0  0
    5.8540   -1.2060   26.7940 C   0  0  0  0  0  0  0  0  0  0  0  0
    7.8290   -2.1940   27.1380 C   0  0  0  0  0  0  0  0  0  0  0  0
    6.0660    0.0930   26.3780 C   0  0  0  0  0  0  0  0  0  0  0  0
    7.9460   -0.9780   28.1380 C   0  0  0  0  0  0  0  0  0  0  0  0
    6.3370    0.8110   27.5310 C   0  0  0  0  0  0  0  0  0  0  0  0
    6.7010   -0.1470   28.4540 N   0  0  0  0  0  0  0  0  0  0  0  0
    6.3490    0.1660   30.1010 S   0  0  0  0  0  0  0  0  0  0  0  0
    7.5200    0.7560   30.7020 O   0  0  0  0  0  0  0  0  0  0  0  0
    5.7350   -1.0360   30.6180 O   0  0  0  0  0  0  0  0  0  0  0  0
    5.1340    1.3680   30.0280 C   0  0  0  0  0  0  0  0  0  0  0  0
    5.4090    2.7310   30.2190 C   0  0  0  0  0  0  0  0  0  0  0  0
    3.7790    1.0790   29.7730 C   0  0  0  0  0  0  0  0  0  0  0  0
    4.4620    3.7460   30.1720 C   0  0  0  0  0  0  0  0  0  0  0  0
    2.7500    2.0490   29.7080 C   0  0  0  0  0  0  0  0  0  0  0  0
    3.1070    3.5380   29.9260 C   0  0  0  0  0  0  0  0  0  0  0  0
    1.3650    1.7820   29.4500 O   0  0  0  0  0  0  0  0  0  0  0  0
    0.5270    2.8520   29.9020 C   0  0  0  0  0  0  0  0  0  0  0  0
    2.2350    4.5960   29.8940 O   0  0  0  0  0  0  0  0  0  0  0  0
    0.9780    4.2090   29.3390 C   0  0  0  0  0  0  0  0  0  0  0  0
  1  2  1  0
  3  2  1  0
  3  4  2  0
  3  5  2  0
  3  6  1  0
  6  7  1  0
  6  8  1  0
  7  9  1  0
  8 10  1  0
  9 11  1  0
 10 11  1  0
 11 12  1  0
 12 13  2  0
 12 14  1  0
 14 15  1  0
 14 16  1  0
 15 17  1  0
 16 18  1  0
 17 19  1  0
 18 20  1  0
 19 20  1  0
 20 21  1  0
 21 22  2  0
 21 23  2  0
 21 24  1  0
 24 25  2  0
 24 26  1  0
 25 27  1  0
 26 28  2  0
 27 29  2  0
 28 29  1  0
 28 30  1  0
 30 31  1  0
 29 32  1  0
 31 33  1  0
 32 33  1  0
M  END
