SAD-SAT-2ceae68f-4-bromoalkyne
     RDKit          3D

 27 29  0  0  0  0  0  0  0  0999 V2000
    7.1010   -3.9260   20.0930 C   0  0  0  0  0  0  0  0  0  0  0  0
    5.8960   -3.4040   19.3230 C   0  0  0  0  0  0  0  0  0  0  0  0
    6.9690   -4.5890   21.3130 N   0  0  0  0  0  0  0  0  0  0  0  0
    8.0560   -4.8130   22.2970 C   0  0  0  0  0  0  0  0  0  0  0  0
    5.6650   -5.0940   21.7160 C   0  0  0  0  0  0  0  0  0  0  0  0
    7.3960   -4.7170   23.7100 C   0  0  0  0  0  0  0  0  0  0  0  0
    5.1270   -4.1960   22.8280 C   0  0  0  0  0  0  0  0  0  0  0  0
    6.3660   -3.5760   23.4920 C   0  0  0  0  0  0  0  0  0  0  0  0
    6.1000   -3.1970   24.9530 C   0  0  0  0  0  0  0  0  0  0  0  0
    5.3670   -3.8820   25.6720 O   0  0  0  0  0  0  0  0  0  0  0  0
    6.7290   -2.0410   25.4240 N   0  0  0  0  0  0  0  0  0  0  0  0
    8.1220   -2.0250   25.8710 C   0  0  0  0  0  0  0  0  0  0  0  0
    6.2260   -0.7060   25.1200 C   0  0  0  0  0  0  0  0  0  0  0  0
    8.7320   -0.6160   25.6240 C   0  0  0  0  0  0  0  0  0  0  0  0
    6.9890   -0.1150   24.1070 C   0  0  0  0  0  0  0  0  0  0  0  0
    8.2990   -0.0070   24.4210 N   0  0  0  0  0  0  0  0  0  0  0  0
    9.0770    1.3910   23.9720 S   0  0  0  0  0  0  0  0  0  0  0  0
    8.3430    1.8720   22.8250 O   0  0  0  0  0  0  0  0  0  0  0  0
    9.2040    2.1970   25.1450 O   0  0  0  0  0  0  0  0  0  0  0  0
   10.6770    0.8820   23.4170 C   0  0  0  0  0  0  0  0  0  0  0  0
   10.9360   -0.6220   23.1430 C   0  0  0  0  0  0  0  0  0  0  0  0
   11.7500    1.7580   23.1880 C   0  0  0  0  0  0  0  0  0  0  0  0
   12.1930   -1.0370   22.6970 C   0  0  0  0  0  0  0  0  0  0  0  0
   12.9100    1.2160   22.7880 C   0  0  0  0  0  0  0  0  0  0  0  0
   11.8750    3.3040   23.2930 C   0  0  0  0  0  0  0  0  0  0  0  0
   13.1520   -0.1050   22.5430 C   0  0  0  0  0  0  0  0  0  0  0  0
   12.1680    4.6150   23.2730 N   0  0  0  0  0  0  0  0  0  0  0  0
  1  2  2  3
  1  3  1  0
  3  4  1  0
  3  5  1  0
  4  6  1  0
  5  7  1  0
  6  8  1  0
  7  8  1  0
  8  9  1  0
  9 10  2  0
  9 11  1  0
 11 12  1  0
 11 13  1  0
 12 14  1  0
 13 15  1  0
 14 16  1  0
 15 16  1  0
 16 17  1  0
 17 18  2  0
 17 19  2  0
 17 20  1  0
 20 21  2  0
 20 22  1  0
 21 23  1  0
 22 24  2  0
 22 25  1  0
 23 26  2  0
 24 26  1  0
 25 27  3  0
M  END
