SAD-SAT-29425be4-16-chloroacetamide
     RDKit          3D

 27 29  0  0  0  0  0  0  0  0999 V2000
    7.1760   -2.9550   18.8300 C   0  0  0  0  0  0  0  0  0  0  0  0
    6.2690   -3.3230   19.9700 C   0  0  0  0  0  0  0  0  0  0  0  0
    5.4070   -4.2000   19.7940 O   0  0  0  0  0  0  0  0  0  0  0  0
    6.4500   -2.6720   21.1790 N   0  0  0  0  0  0  0  0  0  0  0  0
    6.0770   -3.1440   22.5190 C   0  0  0  0  0  0  0  0  0  0  0  0
    7.2020   -1.4100   21.1580 C   0  0  0  0  0  0  0  0  0  0  0  0
    7.4570   -3.5420   23.1400 C   0  0  0  0  0  0  0  0  0  0  0  0
    8.4130   -1.5470   21.8440 C   0  0  0  0  0  0  0  0  0  0  0  0
    8.1780   -2.1590   23.2390 C   0  0  0  0  0  0  0  0  0  0  0  0
    9.4950   -2.6830   23.8270 C   0  0  0  0  0  0  0  0  0  0  0  0
    9.6140   -3.8310   24.1920 O   0  0  0  0  0  0  0  0  0  0  0  0
   10.5630   -1.8190   23.8960 N   0  0  0  0  0  0  0  0  0  0  0  0
   10.5290   -0.5890   24.7240 C   0  0  0  0  0  0  0  0  0  0  0  0
   11.7420   -2.0420   23.0070 C   0  0  0  0  0  0  0  0  0  0  0  0
   11.3790    0.4120   23.9520 C   0  0  0  0  0  0  0  0  0  0  0  0
   13.0080   -1.2070   23.1070 C   0  0  0  0  0  0  0  0  0  0  0  0
   11.3300   -1.9790   21.5500 C   0  0  0  0  0  0  0  0  0  0  0  0
   12.7370    0.0590   23.4860 C   0  0  0  0  0  0  0  0  0  0  0  0
   11.0340    2.0970   23.4180 S   0  0  0  0  0  0  0  0  0  0  0  0
   13.3540    1.1410   22.7370 C   0  0  0  0  0  0  0  0  0  0  0  0
   12.6360    2.2980   22.5830 C   0  0  0  0  0  0  0  0  0  0  0  0
   13.2750    3.2590   21.8510 C   0  0  0  0  0  0  0  0  0  0  0  0
   12.7670    4.5010   21.5600 C   0  0  0  0  0  0  0  0  0  0  0  0
   14.5330    2.8870   21.3670 C   0  0  0  0  0  0  0  0  0  0  0  0
   13.5180    5.4650   20.7190 C   0  0  0  0  0  0  0  0  0  0  0  0
   15.3860    3.7910   20.4850 C   0  0  0  0  0  0  0  0  0  0  0  0
   14.8730    5.1380   20.1220 C   0  0  0  0  0  0  0  0  0  0  0  0
  1  2  1  0
  2  3  2  0
  2  4  1  0
  4  5  1  0
  4  6  1  0
  5  7  1  0
  6  8  1  0
  7  9  1  0
  8  9  1  0
  9 10  1  0
 10 11  2  0
 10 12  1  0
 12 13  1  0
 12 14  1  0
 13 15  1  0
 14 16  1  0
 14 17  1  0
 15 18  2  0
 15 19  1  0
 18 20  1  0
 19 21  1  0
 20 21  2  0
 21 22  1  0
 22 23  2  0
 22 24  1  0
 23 25  1  0
 24 26  2  0
 25 27  2  0
 26 27  1  0
M  END
