SAD-SAT-c989feaa-3-vinylsulfonamide
     RDKit          3D

 23 24  0  0  0  0  0  0  0  0999 V2000
    7.9220   -2.7680   18.4370 C   0  0  0  0  0  0  0  0  0  0  0  0
    6.4340   -2.6420   18.4600 C   0  0  0  0  0  0  0  0  0  0  0  0
    5.6460   -2.9700   19.9690 S   0  0  0  0  0  0  0  0  0  0  0  0
    5.1710   -4.3340   19.8840 O   0  0  0  0  0  0  0  0  0  0  0  0
    4.8180   -1.8240   20.1680 O   0  0  0  0  0  0  0  0  0  0  0  0
    6.7930   -2.7920   21.1580 N   0  0  0  0  0  0  0  0  0  0  0  0
    6.5540   -3.5340   22.3830 C   0  0  0  0  0  0  0  0  0  0  0  0
    7.2310   -1.4070   21.3160 C   0  0  0  0  0  0  0  0  0  0  0  0
    7.8350   -3.5680   23.1880 C   0  0  0  0  0  0  0  0  0  0  0  0
    8.4080   -1.2710   22.3030 C   0  0  2  0  0  0  0  0  0  0  0  0
    8.3500   -2.2230   23.4540 N   0  0  0  0  0  0  0  0  0  0  0  0
    8.4670    0.1430   22.8340 N   0  0  0  0  0  0  0  0  0  0  0  0
    9.3830   -2.1720   24.3470 C   0  0  0  0  0  0  0  0  0  0  0  0
    8.9110    1.2240   22.0700 C   0  0  0  0  0  0  0  0  0  0  0  0
   10.4890   -1.3680   23.9420 C   0  0  0  0  0  0  0  0  0  0  0  0
   10.0300    2.0680   22.7370 C   0  0  0  0  0  0  0  0  0  0  0  0
    8.4600    1.5180   20.9600 O   0  0  0  0  0  0  0  0  0  0  0  0
   10.8710   -0.0740   24.4660 C   0  0  0  0  0  0  0  0  0  0  0  0
   11.2700   -1.8850   22.9210 C   0  0  0  0  0  0  0  0  0  0  0  0
   11.9580    0.7470   24.0580 C   0  0  0  0  0  0  0  0  0  0  0  0
   12.4460   -1.0930   22.4180 C   0  0  0  0  0  0  0  0  0  0  0  0
   12.7260    0.2440   23.0600 C   0  0  0  0  0  0  0  0  0  0  0  0
   13.3980   -1.6930   21.1640 Cl  0  0  0  0  0  0  0  0  0  0  0  0
  1  2  1  0
  3  2  1  0
  3  4  2  0
  3  5  2  0
  3  6  1  0
  6  7  1  0
  6  8  1  0
  7  9  1  0
  8 10  1  0
  9 11  1  0
 10 11  1  0
 10 12  1  1
 11 13  1  0
 12 14  1  0
 13 15  1  0
 14 16  1  0
 14 17  2  0
 15 18  2  0
 15 19  1  0
 18 20  1  0
 19 21  2  0
 20 22  2  0
 21 22  1  0
 21 23  1  0
M  END
