SAD-SAT-c989feaa-4-acrylamide
     RDKit          3D

 21 22  0  0  0  0  0  0  0  0999 V2000
    7.3680   -2.8090   18.2920 C   0  0  0  0  0  0  0  0  0  0  0  0
    6.1910   -2.3030   19.0770 C   0  0  0  0  0  0  0  0  0  0  0  0
    5.8400   -3.1640   20.2360 C   0  0  0  0  0  0  0  0  0  0  0  0
    5.2410   -4.2460   20.0740 O   0  0  0  0  0  0  0  0  0  0  0  0
    6.2740   -2.6320   21.4340 N   0  0  0  0  0  0  0  0  0  0  0  0
    6.1690   -3.3730   22.6870 C   0  0  0  0  0  0  0  0  0  0  0  0
    7.0620   -1.3820   21.3910 C   0  0  0  0  0  0  0  0  0  0  0  0
    7.4940   -3.5000   23.4480 C   0  0  0  0  0  0  0  0  0  0  0  0
    8.2080   -1.2970   22.4260 C   0  0  2  0  0  0  0  0  0  0  0  0
    8.5710   -2.5800   23.0560 N   0  0  0  0  0  0  0  0  0  0  0  0
    7.8890   -0.1990   23.4770 C   0  0  0  0  0  0  0  0  0  0  0  0
    9.6420   -2.5360   23.9430 C   0  0  0  0  0  0  0  0  0  0  0  0
    8.1920    1.2730   23.0980 C   0  0  0  0  0  0  0  0  0  0  0  0
   10.6990   -1.5740   23.6720 C   0  0  0  0  0  0  0  0  0  0  0  0
    9.0510    1.9030   24.2050 C   0  0  0  0  0  0  0  0  0  0  0  0
    8.9220    1.4170   21.7610 C   0  0  0  0  0  0  0  0  0  0  0  0
   10.8210   -0.2750   24.3170 C   0  0  0  0  0  0  0  0  0  0  0  0
   11.6680   -1.9480   22.7100 C   0  0  0  0  0  0  0  0  0  0  0  0
   11.8580    0.5930   24.0000 C   0  0  0  0  0  0  0  0  0  0  0  0
   12.8020   -0.9920   22.3770 C   0  0  0  0  0  0  0  0  0  0  0  0
   12.8490    0.3270   23.0840 C   0  0  0  0  0  0  0  0  0  0  0  0
  1  2  1  0
  2  3  1  0
  3  4  2  0
  3  5  1  0
  5  6  1  0
  5  7  1  0
  6  8  1  0
  7  9  1  0
  8 10  1  0
  9 10  1  0
  9 11  1  1
 10 12  1  0
 11 13  1  0
 12 14  1  0
 13 15  1  0
 13 16  1  0
 14 17  2  0
 14 18  1  0
 17 19  1  0
 18 20  2  0
 19 21  2  0
 20 21  1  0
M  END
