SAD-SAT-5b1897b2-2-chloroacetamide
     RDKit          3D

 16 17  0  0  0  0  0  0  0  0999 V2000
    7.1240   -2.9610   18.7340 C   0  0  0  0  0  0  0  0  0  0  0  0
    6.1610   -3.2780   19.8440 C   0  0  0  0  0  0  0  0  0  0  0  0
    5.3420   -4.1960   19.7550 O   0  0  0  0  0  0  0  0  0  0  0  0
    6.2510   -2.4860   20.9890 N   0  0  0  0  0  0  0  0  0  0  0  0
    7.0880   -1.2960   20.9140 C   0  0  0  0  0  0  0  0  0  0  0  0
    6.0880   -2.9630   22.2600 C   0  0  0  0  0  0  0  0  0  0  0  0
    8.3920   -1.5280   21.6780 C   0  0  0  0  0  0  0  0  0  0  0  0
    7.2990   -3.3590   22.8290 C   0  0  0  0  0  0  0  0  0  0  0  0
    8.1340   -2.2800   22.9340 N   0  0  0  0  0  0  0  0  0  0  0  0
    9.0220   -2.3680   23.9540 C   0  0  0  0  0  0  0  0  0  0  0  0
   10.3040   -1.6170   23.8520 C   0  0  0  0  0  0  0  0  0  0  0  0
   11.5030   -2.1040   24.3020 C   0  0  0  0  0  0  0  0  0  0  0  0
   10.4680   -0.3780   23.3170 N   0  0  0  0  0  0  0  0  0  0  0  0
   12.9030   -1.0930   24.1270 S   0  0  0  0  0  0  0  0  0  0  0  0
   11.8160   -0.0200   23.4090 C   0  0  0  0  0  0  0  0  0  0  0  0
   12.4260    1.2290   22.9270 C   0  0  0  0  0  0  0  0  0  0  0  0
  1  2  1  0
  2  3  2  0
  2  4  1  0
  4  5  1  0
  4  6  1  0
  5  7  1  0
  6  8  1  0
  7  9  1  0
  8  9  1  0
  9 10  1  0
 10 11  1  0
 11 12  2  0
 11 13  1  0
 12 14  1  0
 13 15  2  0
 14 15  1  0
 15 16  1  0
M  END
