SAD-SAT-bc31ec01-6-nitrile
     RDKit          3D

 16 18  0  0  0  0  0  0  0  0999 V2000
    7.4470   -3.3950   20.0070 C   0  0  0  0  0  0  0  0  0  0  0  0
    6.7970   -2.7900   19.0300 N   0  0  0  0  0  0  0  0  0  0  0  0
    8.1850   -2.7180   21.2530 N   0  0  0  0  0  0  0  0  0  0  0  0
    7.5410   -1.6770   22.1460 C   0  0  0  0  0  0  0  0  0  0  0  0
    9.7300   -2.3520   21.4000 C   0  0  0  0  0  0  0  0  0  0  0  0
    8.3260   -1.2260   23.4720 C   0  0  0  0  0  0  0  0  0  0  0  0
   10.4990   -2.0880   22.7670 C   0  0  2  0  0  0  0  0  0  0  0  0
    9.8070   -0.9950   23.4210 N   0  0  0  0  0  0  0  0  0  0  0  0
   12.2750   -1.5540   22.6260 S   0  0  0  0  0  0  0  0  0  0  0  0
   10.5380    0.2660   23.3350 C   0  0  0  0  0  0  0  0  0  0  0  0
   11.8860    0.1490   22.9360 C   0  0  0  0  0  0  0  0  0  0  0  0
   10.0320    1.6940   23.6210 C   0  0  0  0  0  0  0  0  0  0  0  0
   12.7720    1.2260   22.7990 C   0  0  0  0  0  0  0  0  0  0  0  0
   11.0640    2.8200   23.4290 C   0  0  0  0  0  0  0  0  0  0  0  0
   12.3690    2.5450   23.0350 C   0  0  0  0  0  0  0  0  0  0  0  0
   10.7030    4.0980   23.6460 F   0  0  0  0  0  0  0  0  0  0  0  0
  1  2  2  3
  1  3  1  0
  3  4  1  0
  3  5  1  0
  4  6  1  0
  7  5  1  6
  6  8  1  0
  7  8  1  0
  7  9  1  0
  8 10  1  0
  9 11  1  0
 10 11  2  0
 10 12  1  0
 11 13  1  0
 12 14  2  0
 13 15  2  0
 14 15  1  0
 14 16  1  0
M  END
