SAD-SAT-c989feaa-5-chloroacetamide
     RDKit          3D

 21 22  0  0  0  0  0  0  0  0999 V2000
    7.4700   -3.0330   18.8450 C   0  0  0  0  0  0  0  0  0  0  0  0
    6.4130   -3.3170   19.9150 C   0  0  0  0  0  0  0  0  0  0  0  0
    5.5380   -4.1750   19.7530 O   0  0  0  0  0  0  0  0  0  0  0  0
    6.4430   -2.5870   21.0880 N   0  0  0  0  0  0  0  0  0  0  0  0
    7.1950   -1.3410   21.2280 C   0  0  0  0  0  0  0  0  0  0  0  0
    6.1770   -3.3050   22.3430 C   0  0  0  0  0  0  0  0  0  0  0  0
    8.4660   -1.5530   22.0360 C   0  0  0  0  0  0  0  0  0  0  0  0
    7.4470   -3.4280   23.2270 C   0  0  2  0  0  0  0  0  0  0  0  0
    8.1850   -2.1600   23.3380 N   0  0  0  0  0  0  0  0  0  0  0  0
    8.3660   -4.5490   22.7330 C   0  0  0  0  0  0  0  0  0  0  0  0
    9.2210   -2.1060   24.2380 C   0  0  0  0  0  0  0  0  0  0  0  0
    7.9780   -6.0040   23.0640 C   0  0  0  0  0  0  0  0  0  0  0  0
   10.3550   -1.3060   23.8720 C   0  0  0  0  0  0  0  0  0  0  0  0
    6.6440   -6.2560   23.1760 N   0  0  0  0  0  0  0  0  0  0  0  0
    8.8190   -6.8860   23.2060 O   0  0  0  0  0  0  0  0  0  0  0  0
   10.7090   -0.0020   24.4190 C   0  0  0  0  0  0  0  0  0  0  0  0
   11.1650   -1.8510   22.8930 C   0  0  0  0  0  0  0  0  0  0  0  0
   11.8330    0.8110   24.0420 C   0  0  0  0  0  0  0  0  0  0  0  0
   12.3650   -1.0800   22.4330 C   0  0  0  0  0  0  0  0  0  0  0  0
   12.6210    0.2610   23.0780 C   0  0  0  0  0  0  0  0  0  0  0  0
   13.3700   -1.6980   21.2310 Cl  0  0  0  0  0  0  0  0  0  0  0  0
  1  2  1  0
  2  3  2  0
  2  4  1  0
  4  5  1  0
  4  6  1  0
  5  7  1  0
  6  8  1  0
  7  9  1  0
  8  9  1  0
  8 10  1  6
  9 11  1  0
 10 12  1  0
 11 13  1  0
 12 14  1  0
 12 15  2  0
 13 16  2  0
 13 17  1  0
 16 18  1  0
 17 19  2  0
 18 20  2  0
 19 20  1  0
 19 21  1  0
M  END
