SAD-SAT-1f400d17-8-acrylamide
     RDKit          3D

 17 18  0  0  0  0  0  0  0  0999 V2000
    7.0820   -2.8880   18.5820 C   0  0  0  0  0  0  0  0  0  0  0  0
    5.8340   -2.8650   19.1200 C   0  0  0  0  0  0  0  0  0  0  0  0
    5.5740   -3.4290   20.4890 C   0  0  0  0  0  0  0  0  0  0  0  0
    5.1820   -4.4460   19.8930 O   0  0  0  0  0  0  0  0  0  0  0  0
    6.0570   -2.1610   20.7360 N   0  0  0  0  0  0  0  0  0  0  0  0
    7.1360   -2.1190   21.6590 C   0  0  0  0  0  0  0  0  0  0  0  0
    6.9820   -3.2900   22.6310 C   0  0  0  0  0  0  0  0  0  0  0  0
    7.2530   -0.7900   22.3380 C   0  0  0  0  0  0  0  0  0  0  0  0
    7.7740   -2.9780   23.8700 C   0  0  0  0  0  0  0  0  0  0  0  0
    8.5080   -0.7700   22.8950 C   0  0  0  0  0  0  0  0  0  0  0  0
    8.8120   -1.9600   23.7000 N   0  0  0  0  0  0  0  0  0  0  0  0
   10.1660   -2.2500   23.5940 C   0  0  0  0  0  0  0  0  0  0  0  0
   10.9750   -1.1290   23.5620 C   0  0  0  0  0  0  0  0  0  0  0  0
   12.1850   -0.9960   22.9280 C   0  0  0  0  0  0  0  0  0  0  0  0
   10.5750    0.3600   24.3360 S   0  0  0  0  0  0  0  0  0  0  0  0
   12.7580    0.2260   23.0460 C   0  0  0  0  0  0  0  0  0  0  0  0
   12.0120    1.1300   23.7890 C   0  0  0  0  0  0  0  0  0  0  0  0
  1  2  1  0
  2  3  1  0
  3  4  2  0
  3  5  1  0
  5  6  1  0
  6  7  1  0
  6  8  1  0
  7  9  1  0
  8 10  1  0
  9 11  1  0
 10 11  1  0
 11 12  1  0
 12 13  1  0
 13 14  2  0
 13 15  1  0
 14 16  1  0
 15 17  1  0
 16 17  2  0
M  END
