SAD-SAT-29425be4-8-acrylamide
     RDKit          3D

 29 30  0  0  0  0  0  0  0  0999 V2000
    7.4710   -2.9050   18.6240 C   0  0  0  0  0  0  0  0  0  0  0  0
    6.7100   -2.4150   19.8430 C   0  0  0  0  0  0  0  0  0  0  0  0
    5.9170   -3.5080   20.5240 C   0  0  0  0  0  0  0  0  0  0  0  0
    5.1850   -4.3030   19.9080 O   0  0  0  0  0  0  0  0  0  0  0  0
    6.0820   -3.5530   21.9020 N   0  0  0  0  0  0  0  0  0  0  0  0
    5.8750   -2.3580   22.7190 C   0  0  0  0  0  0  0  0  0  0  0  0
    6.8940   -4.5680   22.5650 C   0  0  0  0  0  0  0  0  0  0  0  0
    7.2030   -1.6940   23.0900 C   0  0  0  0  0  0  0  0  0  0  0  0
    8.2710   -4.0300   22.9740 C   0  0  0  0  0  0  0  0  0  0  0  0
    8.2240   -2.6740   23.7080 C   0  0  0  0  0  0  0  0  0  0  0  0
    9.6300   -2.0310   23.6850 C   0  0  0  0  0  0  0  0  0  0  0  0
   10.5940   -2.6620   24.1310 O   0  0  0  0  0  0  0  0  0  0  0  0
    9.7740   -0.7510   23.1180 N   0  0  0  0  0  0  0  0  0  0  0  0
    9.7140   -0.6420   21.6690 C   0  0  0  0  0  0  0  0  0  0  0  0
   10.3300    0.4680   23.7420 C   0  0  0  0  0  0  0  0  0  0  0  0
   11.5640    0.8340   23.1650 C   0  0  0  0  0  0  0  0  0  0  0  0
   12.2580   -0.1970   22.5460 C   0  0  0  0  0  0  0  0  0  0  0  0
   12.1060    2.1960   23.2010 C   0  0  0  0  0  0  0  0  0  0  0  0
   13.4480    0.0800   21.9700 C   0  0  0  0  0  0  0  0  0  0  0  0
   13.3600    2.5570   22.6330 C   0  0  0  0  0  0  0  0  0  0  0  0
   13.9720    1.4780   22.0360 C   0  0  0  0  0  0  0  0  0  0  0  0
   14.0450    3.8690   22.6430 N   0  0  0  0  0  0  0  0  0  0  0  0
   15.4320    4.1590   22.3840 C   0  0  0  0  0  0  0  0  0  0  0  0
   16.0440    3.7700   21.2140 O   0  0  0  0  0  0  0  0  0  0  0  0
   16.2580    4.8860   23.3720 O   0  0  0  0  0  0  0  0  0  0  0  0
   17.6430    5.0960   23.0340 C   0  0  0  0  0  0  0  0  0  0  0  0
   18.2900    4.9140   21.6560 C   0  0  0  0  0  0  0  0  0  0  0  0
   18.3640    6.3090   23.6890 C   0  0  0  0  0  0  0  0  0  0  0  0
   18.4790    4.0870   23.6180 C   0  0  0  0  0  0  0  0  0  0  0  0
  1  2  1  0
  2  3  1  0
  3  4  2  0
  3  5  1  0
  5  6  1  0
  5  7  1  0
  6  8  1  0
  7  9  1  0
  8 10  1  0
  9 10  1  0
 10 11  1  0
 11 12  2  0
 11 13  1  0
 13 14  1  0
 13 15  1  0
 15 16  1  0
 16 17  2  0
 16 18  1  0
 17 19  1  0
 18 20  2  0
 19 21  2  0
 20 21  1  0
 20 22  1  0
 22 23  1  0
 23 24  2  0
 23 25  1  0
 26 25  1  0
 26 27  1  0
 26 28  1  0
 26 29  1  0
M  END
