SAD-SAT-2ceae68f-1-nitrile
     RDKit          3D

 23 24  0  0  0  0  0  0  0  0999 V2000
    7.0290   -2.7710   19.5660 C   0  0  0  0  0  0  0  0  0  0  0  0
    5.8560   -3.2060   19.2040 N   0  0  0  0  0  0  0  0  0  0  0  0
    7.2490   -1.3250   19.8710 N   0  0  0  0  0  0  0  0  0  0  0  0
    6.6070   -0.3520   18.9720 C   0  0  0  0  0  0  0  0  0  0  0  0
    8.0070   -0.6000   21.0880 C   0  0  0  0  0  0  0  0  0  0  0  0
    7.9730    1.0860   21.2060 C   0  0  0  0  0  0  0  0  0  0  0  0
    7.2420    1.6690   20.4080 O   0  0  0  0  0  0  0  0  0  0  0  0
    8.7300    1.9420   22.1720 N   0  0  0  0  0  0  0  0  0  0  0  0
    8.4580    1.9500   23.6200 C   0  0  0  0  0  0  0  0  0  0  0  0
    9.1380    3.2340   21.8210 C   0  0  0  0  0  0  0  0  0  0  0  0
    9.6660    2.4050   24.4460 C   0  0  0  0  0  0  0  0  0  0  0  0
    9.4840    4.1130   22.8880 C   0  0  0  0  0  0  0  0  0  0  0  0
   10.4730    3.4730   23.7760 N   0  0  0  0  0  0  0  0  0  0  0  0
   11.7990    3.0030   22.8910 S   0  0  0  0  0  0  0  0  0  0  0  0
   13.0000    3.6050   23.3570 O   0  0  0  0  0  0  0  0  0  0  0  0
   11.3950    3.4340   21.6190 O   0  0  0  0  0  0  0  0  0  0  0  0
   11.6910    1.2160   23.1560 C   0  0  0  0  0  0  0  0  0  0  0  0
   10.7790    0.6420   24.1600 C   0  0  0  0  0  0  0  0  0  0  0  0
   12.3450    0.1910   22.5340 C   0  0  0  0  0  0  0  0  0  0  0  0
   10.6620   -0.8300   24.3720 C   0  0  0  0  0  0  0  0  0  0  0  0
   12.1980   -1.2050   22.7500 C   0  0  0  0  0  0  0  0  0  0  0  0
   11.3820   -1.9960   23.6610 C   0  0  0  0  0  0  0  0  0  0  0  0
   13.1960   -2.0540   21.6790 Cl  0  0  0  0  0  0  0  0  0  0  0  0
  1  2  2  3
  1  3  1  0
  3  4  1  0
  3  5  1  0
  5  6  1  0
  6  7  2  0
  6  8  1  0
  8  9  1  0
  8 10  1  0
  9 11  1  0
 10 12  1  0
 11 13  1  0
 12 13  1  0
 13 14  1  0
 14 15  2  0
 14 16  2  0
 14 17  1  0
 17 18  2  0
 17 19  1  0
 18 20  1  0
 19 21  2  0
 20 22  2  0
 21 22  1  0
 21 23  1  0
M  END
