SAD-SAT-29425be4-22-chloroacetamide
     RDKit          3D

 30 31  0  0  0  0  0  0  0  0999 V2000
    7.1570   -2.9670   18.7760 C   0  0  0  0  0  0  0  0  0  0  0  0
    6.2750   -3.3140   19.9390 C   0  0  0  0  0  0  0  0  0  0  0  0
    5.4310   -4.2130   19.8050 O   0  0  0  0  0  0  0  0  0  0  0  0
    6.4680   -2.6050   21.1110 N   0  0  0  0  0  0  0  0  0  0  0  0
    7.1030   -1.2800   21.2230 C   0  0  0  0  0  0  0  0  0  0  0  0
    6.1890   -3.2910   22.3700 C   0  0  0  0  0  0  0  0  0  0  0  0
    8.5340   -1.6200   21.7590 C   0  0  0  0  0  0  0  0  0  0  0  0
    7.3350   -3.3860   23.1710 C   0  0  0  0  0  0  0  0  0  0  0  0
    8.1610   -2.0840   23.1930 C   0  0  0  0  0  0  0  0  0  0  0  0
    9.5530   -2.4240   23.7260 C   0  0  0  0  0  0  0  0  0  0  0  0
    9.7870   -3.5390   24.1490 O   0  0  0  0  0  0  0  0  0  0  0  0
   10.5170   -1.4280   23.6710 N   0  0  0  0  0  0  0  0  0  0  0  0
   10.5930   -0.4210   24.7130 C   0  0  0  0  0  0  0  0  0  0  0  0
   11.8120   -1.7750   23.1400 C   0  0  0  0  0  0  0  0  0  0  0  0
   10.1290    0.9190   24.1150 C   0  0  0  0  0  0  0  0  0  0  0  0
   12.9400   -0.7340   23.0630 C   0  0  0  0  0  0  0  0  0  0  0  0
   11.5650   -2.2480   21.7160 C   0  0  0  0  0  0  0  0  0  0  0  0
   12.3990   -2.8340   24.1070 C   0  0  0  0  0  0  0  0  0  0  0  0
    8.6610    1.2060   23.8620 C   0  0  0  0  0  0  0  0  0  0  0  0
   11.0290    1.9520   23.7720 C   0  0  0  0  0  0  0  0  0  0  0  0
   11.7010   -3.6400   24.7000 O   0  0  0  0  0  0  0  0  0  0  0  0
   13.7370   -2.7620   24.2780 O   0  0  0  0  0  0  0  0  0  0  0  0
    8.2870    2.5420   23.2830 C   0  0  0  0  0  0  0  0  0  0  0  0
   10.6320    3.2260   23.2290 C   0  0  0  0  0  0  0  0  0  0  0  0
   12.3780    1.6240   24.0130 O   0  0  0  0  0  0  0  0  0  0  0  0
   14.0500   -2.6650   25.6630 C   0  0  0  0  0  0  0  0  0  0  0  0
    9.2760    3.4760   23.0000 C   0  0  0  0  0  0  0  0  0  0  0  0
   11.5100    4.0520   22.9950 O   0  0  0  0  0  0  0  0  0  0  0  0
   13.0960    1.4570   22.8100 C   0  0  0  0  0  0  0  0  0  0  0  0
   12.3680    3.8690   21.8640 C   0  0  0  0  0  0  0  0  0  0  0  0
  1  2  1  0
  2  3  2  0
  2  4  1  0
  4  5  1  0
  4  6  1  0
  5  7  1  0
  6  8  1  0
  7  9  1  0
  8  9  1  0
  9 10  1  0
 10 11  2  0
 10 12  1  0
 12 13  1  0
 12 14  1  0
 13 15  1  0
 14 16  1  0
 14 17  1  0
 14 18  1  0
 15 19  2  0
 15 20  1  0
 18 21  2  0
 18 22  1  0
 19 23  1  0
 20 24  2  0
 20 25  1  0
 22 26  1  0
 23 27  2  0
 24 27  1  0
 24 28  1  0
 25 29  1  0
 28 30  1  0
M  END
