SAD-SAT-b55127ae-3-vinylsulfonamide
     RDKit          3D

 29 31  0  0  0  0  0  0  0  0999 V2000
    6.7200   -3.1850   18.9130 C   0  0  0  0  0  0  0  0  0  0  0  0
    6.7690   -1.8410   19.5930 C   0  0  0  0  0  0  0  0  0  0  0  0
    5.6050   -1.8640   20.9200 S   0  0  0  0  0  0  0  0  0  0  0  0
    4.9870   -3.2080   21.0190 O   0  0  0  0  0  0  0  0  0  0  0  0
    4.7900   -0.6810   20.7670 O   0  0  0  0  0  0  0  0  0  0  0  0
    6.6680   -1.5610   22.2210 N   0  0  0  0  0  0  0  0  0  0  0  0
    8.1150   -1.8420   22.0010 C   0  0  0  0  0  0  0  0  0  0  0  0
    6.3690   -0.3000   22.9260 C   0  0  0  0  0  0  0  0  0  0  0  0
    9.0010   -1.5090   23.2130 C   0  0  0  0  0  0  0  0  0  0  0  0
    7.2540   -0.0360   24.1220 C   0  0  0  0  0  0  0  0  0  0  0  0
    8.1140   -1.2710   24.4240 C   0  0  0  0  0  0  0  0  0  0  0  0
    7.2350   -2.2580   25.0130 C   0  0  0  0  0  0  0  0  0  0  0  0
    7.6590   -3.5040   24.6610 O   0  0  0  0  0  0  0  0  0  0  0  0
    6.1170   -1.9890   25.7860 N   0  0  0  0  0  0  0  0  0  0  0  0
    4.8490   -2.4880   25.2670 C   0  0  0  0  0  0  0  0  0  0  0  0
    6.2670   -1.6630   27.2210 C   0  0  0  0  0  0  0  0  0  0  0  0
    3.9960   -2.8750   26.3370 C   0  0  0  0  0  0  0  0  0  0  0  0
    5.7900   -2.6880   28.0470 C   0  0  0  0  0  0  0  0  0  0  0  0
    4.7630   -3.4060   27.4730 N   0  0  0  0  0  0  0  0  0  0  0  0
    4.8610   -5.1060   27.5870 S   0  0  0  0  0  0  0  0  0  0  0  0
    3.6050   -5.5190   28.1710 O   0  0  0  0  0  0  0  0  0  0  0  0
    6.1450   -5.4140   28.1650 O   0  0  0  0  0  0  0  0  0  0  0  0
    4.8180   -5.7820   26.0160 C   0  0  0  0  0  0  0  0  0  0  0  0
    5.6550   -5.3470   25.0060 C   0  0  0  0  0  0  0  0  0  0  0  0
    3.9740   -6.8020   25.5870 C   0  0  0  0  0  0  0  0  0  0  0  0
    5.4860   -6.0360   23.7070 C   0  0  0  0  0  0  0  0  0  0  0  0
    4.2410   -7.1870   23.9090 S   0  0  0  0  0  0  0  0  0  0  0  0
    2.8900   -7.5960   26.3570 C   0  0  0  0  0  0  0  0  0  0  0  0
    6.2770   -5.7880   22.3940 C   0  0  0  0  0  0  0  0  0  0  0  0
  1  2  1  0
  3  2  1  0
  3  4  2  0
  3  5  2  0
  3  6  1  0
  6  7  1  0
  6  8  1  0
  7  9  1  0
  8 10  1  0
  9 11  1  0
 10 11  1  0
 11 12  1  0
 12 13  2  0
 12 14  1  0
 14 15  1  0
 14 16  1  0
 15 17  1  0
 16 18  1  0
 17 19  1  0
 18 19  1  0
 19 20  1  0
 20 21  2  0
 20 22  2  0
 20 23  1  0
 23 24  1  0
 23 25  2  0
 24 26  2  0
 25 27  1  0
 26 27  1  0
 25 28  1  0
 26 29  1  0
M  END
