SAD-SAT-9a6c5cf3-5-chloroacetamide
     RDKit          3D

 29 31  0  0  0  0  0  0  0  0999 V2000
    7.2580   -3.2080   19.2190 C   0  0  0  0  0  0  0  0  0  0  0  0
    6.4120   -3.7810   20.0800 C   0  0  0  0  0  0  0  0  0  0  0  0
    5.3170   -4.2350   19.7590 O   0  0  0  0  0  0  0  0  0  0  0  0
    6.8410   -3.9040   21.4110 N   0  0  0  0  0  0  0  0  0  0  0  0
    6.4360   -5.0250   22.2720 C   0  0  0  0  0  0  0  0  0  0  0  0
    7.8330   -3.0140   22.0080 C   0  0  0  0  0  0  0  0  0  0  0  0
    6.0730   -4.5520   23.6920 C   0  0  0  0  0  0  0  0  0  0  0  0
    7.3740   -2.4020   23.1810 C   0  0  0  0  0  0  0  0  0  0  0  0
    6.9840   -3.4220   24.2640 C   0  0  0  0  0  0  0  0  0  0  0  0
    6.2680   -2.7070   25.4200 C   0  0  0  0  0  0  0  0  0  0  0  0
    4.8520   -3.0010   25.3900 O   0  0  0  0  0  0  0  0  0  0  0  0
    6.9160   -1.8480   26.4710 N   0  0  0  0  0  0  0  0  0  0  0  0
    7.6480   -0.6490   26.3090 C   0  0  0  0  0  0  0  0  0  0  0  0
    6.0740   -1.5780   27.5900 C   0  0  0  0  0  0  0  0  0  0  0  0
    7.5390    0.3240   27.3590 C   0  0  0  0  0  0  0  0  0  0  0  0
    5.2440   -0.3480   27.1980 C   0  0  0  0  0  0  0  0  0  0  0  0
    6.1390    0.7810   27.4180 N   0  0  0  0  0  0  0  0  0  0  0  0
    5.8000    2.1780   26.4730 S   0  0  0  0  0  0  0  0  0  0  0  0
    4.4980    2.6360   26.9030 O   0  0  0  0  0  0  0  0  0  0  0  0
    6.0860    1.8630   25.0920 O   0  0  0  0  0  0  0  0  0  0  0  0
    6.9670    3.3100   27.0090 C   0  0  0  0  0  0  0  0  0  0  0  0
    7.9220    3.8480   26.1370 C   0  0  0  0  0  0  0  0  0  0  0  0
    6.9740    3.7180   28.3510 C   0  0  0  0  0  0  0  0  0  0  0  0
    8.8800    4.7910   26.5980 C   0  0  0  0  0  0  0  0  0  0  0  0
    8.0140    4.7340   28.8230 C   0  0  0  0  0  0  0  0  0  0  0  0
    8.9320    5.2350   27.9250 C   0  0  0  0  0  0  0  0  0  0  0  0
    9.9420    6.2150   28.3570 N   0  0  0  0  0  0  0  0  0  0  0  0
   10.2610    6.1980   29.5560 O   0  0  0  0  0  0  0  0  0  0  0  0
   10.1490    7.1760   27.6040 O   0  0  0  0  0  0  0  0  0  0  0  0
  1  2  1  0
  2  3  2  0
  2  4  1  0
  4  5  1  0
  4  6  1  0
  5  7  1  0
  6  8  1  0
  7  9  1  0
  8  9  1  0
  9 10  1  0
 10 11  2  0
 10 12  1  0
 12 13  1  0
 12 14  1  0
 13 15  1  0
 14 16  1  0
 15 17  1  0
 16 17  1  0
 17 18  1  0
 18 19  2  0
 18 20  2  0
 18 21  1  0
 21 22  2  0
 21 23  1  0
 22 24  1  0
 23 25  2  0
 24 26  2  0
 25 26  1  0
 26 27  1  0
 27 28  2  0
 27 29  1  0
M  CHG  2  27   1  29  -1
M  END
