SAD-SAT-c989feaa-9-chloroacetamide
     RDKit          3D

 24 25  0  0  0  0  0  0  0  0999 V2000
    7.0560   -2.9860   18.8440 C   0  0  0  0  0  0  0  0  0  0  0  0
    6.1200   -3.3630   19.9680 C   0  0  0  0  0  0  0  0  0  0  0  0
    5.3110   -4.2750   19.7880 O   0  0  0  0  0  0  0  0  0  0  0  0
    6.1850   -2.7050   21.1930 N   0  0  0  0  0  0  0  0  0  0  0  0
    6.0270   -3.3930   22.4810 C   0  0  0  0  0  0  0  0  0  0  0  0
    6.9470   -1.4420   21.2390 C   0  0  0  0  0  0  0  0  0  0  0  0
    7.3420   -3.4680   23.2610 C   0  0  0  0  0  0  0  0  0  0  0  0
    8.2650   -1.5770   22.0210 C   0  0  2  0  0  0  0  0  0  0  0  0
    7.9960   -2.1720   23.3510 N   0  0  0  0  0  0  0  0  0  0  0  0
    9.1180   -0.2920   22.0410 C   0  0  0  0  0  0  0  0  0  0  0  0
    8.9580   -2.0310   24.3340 C   0  0  0  0  0  0  0  0  0  0  0  0
    8.4090    1.0770   22.1960 C   0  0  0  0  0  0  0  0  0  0  0  0
   10.0960   -1.2150   24.0000 C   0  0  0  0  0  0  0  0  0  0  0  0
    9.3390    2.3040   22.3810 C   0  0  0  0  0  0  0  0  0  0  0  0
    7.5100    1.3190   20.9810 C   0  0  0  0  0  0  0  0  0  0  0  0
   10.4980    0.1060   24.4950 C   0  0  0  0  0  0  0  0  0  0  0  0
   10.8850   -1.8040   23.0610 C   0  0  0  0  0  0  0  0  0  0  0  0
   11.6630    0.8700   24.0780 C   0  0  0  0  0  0  0  0  0  0  0  0
   12.0950   -1.1060   22.5710 C   0  0  0  0  0  0  0  0  0  0  0  0
   12.4290    0.2470   23.1330 C   0  0  0  0  0  0  0  0  0  0  0  0
   12.9840   -1.9700   21.3920 S   0  0  0  0  0  0  0  0  0  0  0  0
   13.5390   -3.0490   22.5300 N   0  0  0  0  0  0  0  0  0  0  0  0
   12.0690   -2.6710   20.5810 O   0  0  0  0  0  0  0  0  0  0  0  0
   13.9690   -1.1510   20.7950 O   0  0  0  0  0  0  0  0  0  0  0  0
  1  2  1  0
  2  3  2  0
  2  4  1  0
  4  5  1  0
  4  6  1  0
  5  7  1  0
  6  8  1  0
  7  9  1  0
  8  9  1  0
  8 10  1  1
  9 11  1  0
 10 12  1  0
 11 13  1  0
 12 14  1  0
 12 15  1  0
 13 16  2  0
 13 17  1  0
 16 18  1  0
 17 19  2  0
 18 20  2  0
 19 20  1  0
 19 21  1  0
 21 22  1  0
 21 23  2  0
 21 24  2  0
M  END
