SAD-SAT-29425be4-13-vinylsulfonamide
     RDKit          3D

 28 29  0  0  0  0  0  0  0  0999 V2000
    8.5020   -5.1820   20.4290 C   0  0  0  0  0  0  0  0  0  0  0  0
    7.2020   -5.9320   20.3670 C   0  0  0  0  0  0  0  0  0  0  0  0
    5.7840   -5.0190   20.8010 S   0  0  0  0  0  0  0  0  0  0  0  0
    5.0890   -4.4360   19.6760 O   0  0  0  0  0  0  0  0  0  0  0  0
    5.0540   -5.8360   21.7440 O   0  0  0  0  0  0  0  0  0  0  0  0
    6.3930   -3.8140   21.6720 N   0  0  0  0  0  0  0  0  0  0  0  0
    7.0680   -2.6920   21.0070 C   0  0  0  0  0  0  0  0  0  0  0  0
    5.2700   -3.4700   22.4990 C   0  0  0  0  0  0  0  0  0  0  0  0
    7.8590   -2.0220   22.1630 C   0  0  0  0  0  0  0  0  0  0  0  0
    5.3810   -2.1640   22.8840 C   0  0  0  0  0  0  0  0  0  0  0  0
    6.8240   -1.9490   23.3150 C   0  0  0  0  0  0  0  0  0  0  0  0
    7.3600   -3.1470   24.0960 C   0  0  0  0  0  0  0  0  0  0  0  0
    6.8130   -4.2360   24.1880 O   0  0  0  0  0  0  0  0  0  0  0  0
    8.5420   -2.8540   24.7110 N   0  0  0  0  0  0  0  0  0  0  0  0
    9.8300   -3.2020   24.1400 C   0  0  1  0  0  0  0  0  0  0  0  0
   10.4810   -1.8530   23.7770 C   0  0  0  0  0  0  0  0  0  0  0  0
   10.5870   -4.1020   25.1230 C   0  0  0  0  0  0  0  0  0  0  0  0
    9.7620   -0.6460   24.3040 C   0  0  0  0  0  0  0  0  0  0  0  0
   11.6420   -1.6400   23.0020 C   0  0  0  0  0  0  0  0  0  0  0  0
   11.9700   -3.5490   25.4120 C   0  0  0  0  0  0  0  0  0  0  0  0
    9.8500   -4.3460   26.4570 C   0  0  0  0  0  0  0  0  0  0  0  0
   10.2810    0.7020   23.9540 C   0  0  0  0  0  0  0  0  0  0  0  0
   12.1250   -0.2070   22.6900 C   0  0  0  0  0  0  0  0  0  0  0  0
   11.3860    0.9690   23.1820 C   0  0  0  0  0  0  0  0  0  0  0  0
   11.5690    2.3710   23.0030 C   0  0  0  0  0  0  0  0  0  0  0  0
   12.8140    2.8000   22.7140 C   0  0  0  0  0  0  0  0  0  0  0  0
   12.9350    3.7500   21.5410 C   0  0  0  0  0  0  0  0  0  0  0  0
   13.5080    1.4680   22.5870 C   0  0  0  0  0  0  0  0  0  0  0  0
  1  2  1  0
  3  2  1  0
  3  4  2  0
  3  5  2  0
  3  6  1  0
  6  7  1  0
  6  8  1  0
  7  9  1  0
  8 10  1  0
  9 11  1  0
 10 11  1  0
 11 12  1  0
 12 13  2  0
 12 14  1  0
 15 14  1  1
 15 16  1  0
 15 17  1  0
 16 18  2  0
 16 19  1  0
 17 20  1  0
 17 21  1  0
 18 22  1  0
 19 23  2  0
 22 24  2  0
 23 24  1  0
 24 25  1  0
 25 26  1  0
 26 27  1  0
 26 28  1  0
M  END
