SAD-SAT-2ceae68f-2-chloroacetamide
     RDKit          3D

 29 31  0  0  0  0  0  0  0  0999 V2000
    7.4760   -3.0060   19.0470 C   0  0  0  0  0  0  0  0  0  0  0  0
    6.2090   -3.7370   19.3260 C   0  0  0  0  0  0  0  0  0  0  0  0
    5.1100   -4.1080   19.6910 O   0  0  0  0  0  0  0  0  0  0  0  0
    5.9630   -2.5830   20.0400 N   0  0  0  0  0  0  0  0  0  0  0  0
    5.8600   -1.2620   19.3870 C   0  0  0  0  0  0  0  0  0  0  0  0
    6.3110   -2.4770   21.4830 C   0  0  0  0  0  0  0  0  0  0  0  0
    4.9470   -0.4590   20.3580 C   0  0  0  0  0  0  0  0  0  0  0  0
    7.5410   -3.3240   21.8780 C   0  0  0  0  0  0  0  0  0  0  0  0
    7.5560   -4.5490   21.6700 O   0  0  0  0  0  0  0  0  0  0  0  0
    8.6230   -2.6510   22.4890 N   0  0  0  0  0  0  0  0  0  0  0  0
    9.1530   -3.0250   23.8050 C   0  0  0  0  0  0  0  0  0  0  0  0
    9.4760   -1.9160   21.5600 C   0  0  0  0  0  0  0  0  0  0  0  0
   10.7140   -2.8870   23.9440 C   0  0  0  0  0  0  0  0  0  0  0  0
   10.5020   -0.9460   22.1750 C   0  0  0  0  0  0  0  0  0  0  0  0
   11.6570   -2.6650   22.7420 C   0  0  0  0  0  0  0  0  0  0  0  0
   11.8670   -1.5270   22.2180 N   0  0  0  0  0  0  0  0  0  0  0  0
   13.0440   -0.6290   22.9510 S   0  0  0  0  0  0  0  0  0  0  0  0
   13.6570   -1.4350   23.9730 O   0  0  0  0  0  0  0  0  0  0  0  0
   13.7300    0.1790   22.0210 O   0  0  0  0  0  0  0  0  0  0  0  0
   11.7120    0.1560   23.6530 C   0  0  0  0  0  0  0  0  0  0  0  0
   10.9900   -0.8180   24.2850 C   0  0  0  0  0  0  0  0  0  0  0  0
   11.2860    1.4730   23.6540 C   0  0  0  0  0  0  0  0  0  0  0  0
    9.8080   -0.5540   24.9400 C   0  0  0  0  0  0  0  0  0  0  0  0
   10.0890    1.7010   24.3170 C   0  0  0  0  0  0  0  0  0  0  0  0
   11.9020    2.6030   23.0660 C   0  0  0  0  0  0  0  0  0  0  0  0
    9.3400    0.7350   24.9560 C   0  0  0  0  0  0  0  0  0  0  0  0
    9.7830    3.1570   24.2020 C   0  0  0  0  0  0  0  0  0  0  0  0
   11.4260    3.9560   23.0760 C   0  0  0  0  0  0  0  0  0  0  0  0
   10.1660    4.2950   23.7480 N   0  0  0  0  0  0  0  0  0  0  0  0
  1  2  1  0
  2  3  2  0
  2  4  1  0
  4  5  1  0
  4  6  1  0
  5  7  1  0
  6  8  1  0
  8  9  2  0
  8 10  1  0
 10 11  1  0
 10 12  1  0
 11 13  1  0
 12 14  1  0
 13 15  1  0
 14 16  1  0
 15 16  1  0
 16 17  1  0
 17 18  2  0
 17 19  2  0
 17 20  1  0
 20 21  2  0
 20 22  1  0
 21 23  1  0
 22 24  2  0
 22 25  1  0
 23 26  2  0
 24 26  1  0
 24 27  1  0
 25 28  2  0
 27 29  2  0
 28 29  1  0
M  END
