SAD-SAT-f25ee457-9
     RDKit          3D

 25 27  0  0  0  0  0  0  0  0999 V2000
    8.8680   -5.3560   26.0860 C   0  0  0  0  0  0  0  0  0  0  0  0
    8.5650   -4.0420   25.4410 C   0  0  0  0  0  0  0  0  0  0  0  0
    7.8570   -3.0710   25.9720 N   0  0  0  0  0  0  0  0  0  0  0  0
    9.1460   -3.6620   23.8780 S   0  0  0  0  0  0  0  0  0  0  0  0
    7.7610   -1.9590   25.1500 N   0  0  0  0  0  0  0  0  0  0  0  0
    8.4010   -2.1210   24.0090 C   0  0  0  0  0  0  0  0  0  0  0  0
    8.4980   -1.1010   22.9030 C   0  0  0  0  0  0  0  0  0  0  0  0
    9.8520   -0.3730   22.8490 C   0  0  0  0  0  0  0  0  0  0  0  0
    9.8850    1.0630   23.2360 C   0  0  0  0  0  0  0  0  0  0  0  0
   11.0710   -0.9420   22.4570 C   0  0  0  0  0  0  0  0  0  0  0  0
   11.0540    1.7990   23.2130 C   0  0  0  0  0  0  0  0  0  0  0  0
   12.2400   -0.1670   22.4640 C   0  0  0  0  0  0  0  0  0  0  0  0
   11.2480   -2.3510   22.0130 C   0  0  0  0  0  0  0  0  0  0  0  0
   11.0480    3.1910   23.5570 C   0  0  0  0  0  0  0  0  0  0  0  0
   12.2370    1.1750   22.8370 C   0  0  0  0  0  0  0  0  0  0  0  0
   12.4920   -2.7900   22.5200 N   0  0  0  0  0  0  0  0  0  0  0  0
   11.0390    4.3310   23.7790 N   0  0  0  0  0  0  0  0  0  0  0  0
   13.0830   -1.8920   23.3140 C   0  0  0  0  0  0  0  0  0  0  0  0
   13.7820   -1.0110   22.8690 O   0  0  0  0  0  0  0  0  0  0  0  0
   12.7470   -2.0540   24.7170 N   0  0  0  0  0  0  0  0  0  0  0  0
   11.3630   -2.4180   24.9620 C   0  0  0  0  0  0  0  0  0  0  0  0
   13.7900   -2.5240   25.5930 C   0  0  0  0  0  0  0  0  0  0  0  0
   11.1770   -3.7690   25.6640 C   0  0  0  0  0  0  0  0  0  0  0  0
   13.6000   -3.8890   26.1600 C   0  0  0  0  0  0  0  0  0  0  0  0
   12.2590   -4.2590   26.4650 O   0  0  0  0  0  0  0  0  0  0  0  0
  1  2  1  0
  2  3  2  0
  2  4  1  0
  3  5  1  0
  4  6  1  0
  5  6  2  0
  6  7  1  0
  7  8  1  0
  8  9  2  0
  8 10  1  0
  9 11  1  0
 10 12  2  0
 10 13  1  0
 11 14  1  0
 11 15  2  0
 12 15  1  0
 13 16  1  0
 14 17  3  0
 16 18  1  0
 18 19  2  0
 18 20  1  0
 20 21  1  0
 20 22  1  0
 21 23  1  0
 22 24  1  0
 23 25  1  0
 24 25  1  0
M  END
