SAD-SAT-c989feaa-4-bromoalkyne
     RDKit          3D

 19 20  0  0  0  0  0  0  0  0999 V2000
    6.9840   -3.4870   19.8550 C   0  0  0  0  0  0  0  0  0  0  0  0
    6.3440   -2.7770   18.6760 C   0  0  0  0  0  0  0  0  0  0  0  0
    6.5610   -2.9840   21.1020 N   0  0  0  0  0  0  0  0  0  0  0  0
    6.3670   -3.7000   22.3770 C   0  0  0  0  0  0  0  0  0  0  0  0
    7.0450   -1.6170   21.3690 C   0  0  0  0  0  0  0  0  0  0  0  0
    7.6450   -3.7000   23.2310 C   0  0  0  0  0  0  0  0  0  0  0  0
    8.4470   -1.6670   21.9910 C   0  0  2  0  0  0  0  0  0  0  0  0
    8.3910   -2.4250   23.2610 N   0  0  0  0  0  0  0  0  0  0  0  0
    9.1410   -0.2860   22.1070 C   0  0  0  0  0  0  0  0  0  0  0  0
    9.5050   -2.3840   24.0880 C   0  0  0  0  0  0  0  0  0  0  0  0
    8.3180    0.9010   22.6760 C   0  0  0  0  0  0  0  0  0  0  0  0
   10.6510   -1.5720   23.7160 C   0  0  0  0  0  0  0  0  0  0  0  0
    8.8600    1.5840   23.9610 C   0  0  0  0  0  0  0  0  0  0  0  0
    8.2490    1.9660   21.5750 C   0  0  0  0  0  0  0  0  0  0  0  0
   11.7160   -1.8800   22.7330 C   0  0  0  0  0  0  0  0  0  0  0  0
   10.7250   -0.3520   24.3860 C   0  0  0  0  0  0  0  0  0  0  0  0
   12.8570   -1.0600   22.3590 C   0  0  0  0  0  0  0  0  0  0  0  0
   11.8730    0.5580   24.0500 C   0  0  0  0  0  0  0  0  0  0  0  0
   12.9010    0.1400   23.0300 C   0  0  0  0  0  0  0  0  0  0  0  0
  1  2  2  3
  1  3  1  0
  3  4  1  0
  3  5  1  0
  4  6  1  0
  5  7  1  0
  6  8  1  0
  7  8  1  0
  7  9  1  1
  8 10  1  0
  9 11  1  0
 10 12  1  0
 11 13  1  0
 11 14  1  0
 12 15  2  0
 12 16  1  0
 15 17  1  0
 16 18  2  0
 17 19  2  0
 18 19  1  0
M  END
