SAD-SAT-29425be4-20-bromoalkyne
     RDKit          3D

 22 23  0  0  0  0  0  0  0  0999 V2000
    6.8580   -5.2530   19.7270 C   0  0  0  0  0  0  0  0  0  0  0  0
    5.5890   -5.9030   19.9030 C   0  0  0  0  0  0  0  0  0  0  0  0
    7.1230   -4.1150   20.3330 N   0  0  0  0  0  0  0  0  0  0  0  0
    6.6960   -2.8220   19.7310 C   0  0  0  0  0  0  0  0  0  0  0  0
    7.1950   -4.2620   21.7820 C   0  0  0  0  0  0  0  0  0  0  0  0
    5.3230   -2.4860   20.3640 C   0  0  0  0  0  0  0  0  0  0  0  0
    5.8580   -3.9780   22.3970 C   0  0  0  0  0  0  0  0  0  0  0  0
    5.4980   -2.6000   21.9200 C   0  0  0  0  0  0  0  0  0  0  0  0
    6.7430   -1.7590   22.1520 C   0  0  0  0  0  0  0  0  0  0  0  0
    7.0800   -0.8460   21.3940 O   0  0  0  0  0  0  0  0  0  0  0  0
    7.4370   -2.1290   23.2910 N   0  0  0  0  0  0  0  0  0  0  0  0
    8.3730   -1.1930   23.8790 C   0  0  0  0  0  0  0  0  0  0  0  0
    9.6090   -1.9390   24.3680 C   0  0  0  0  0  0  0  0  0  0  0  0
    9.6920   -3.0320   25.4430 C   0  0  0  0  0  0  0  0  0  0  0  0
    9.7330   -3.3720   24.0000 C   0  0  0  0  0  0  0  0  0  0  0  0
   10.8320   -1.2200   23.8240 C   0  0  0  0  0  0  0  0  0  0  0  0
   11.9410   -1.9130   23.3260 C   0  0  0  0  0  0  0  0  0  0  0  0
   10.8460    0.1880   23.7940 C   0  0  0  0  0  0  0  0  0  0  0  0
   13.0510   -1.2650   22.8090 C   0  0  0  0  0  0  0  0  0  0  0  0
   11.9210    0.9040   23.2810 C   0  0  0  0  0  0  0  0  0  0  0  0
   13.0060    0.2230   22.8070 C   0  0  0  0  0  0  0  0  0  0  0  0
   12.0560    2.4230   23.1490 C   0  0  0  0  0  0  0  0  0  0  0  0
  1  2  2  3
  1  3  1  0
  3  4  1  0
  3  5  1  0
  4  6  1  0
  5  7  1  0
  6  8  1  0
  7  8  1  0
  8  9  1  0
  9 10  2  0
  9 11  1  0
 11 12  1  0
 13 12  1  0
 13 14  1  0
 13 15  1  0
 13 16  1  0
 16 17  2  0
 16 18  1  0
 17 19  1  0
 18 20  2  0
 19 21  2  0
 20 21  1  0
 20 22  1  0
M  END
