SAD-SAT-29425be4-28-vinylsulfonamide
     RDKit          3D

 27 28  0  0  0  0  0  0  0  0999 V2000
    7.0660   -4.7520   20.2160 C   0  0  0  0  0  0  0  0  0  0  0  0
    5.7980   -4.0720   19.9500 C   0  0  0  0  0  0  0  0  0  0  0  0
    5.7450   -2.8140   21.1260 S   0  0  0  0  0  0  0  0  0  0  0  0
    4.4650   -2.9840   21.7410 O   0  0  0  0  0  0  0  0  0  0  0  0
    6.9220   -2.9980   21.9380 O   0  0  0  0  0  0  0  0  0  0  0  0
    5.9110   -1.4420   20.1480 N   0  0  0  0  0  0  0  0  0  0  0  0
    7.2150   -1.1040   19.5850 C   0  0  0  0  0  0  0  0  0  0  0  0
    5.3310   -0.2250   20.6190 C   0  0  0  0  0  0  0  0  0  0  0  0
    8.1030   -1.3750   20.8370 C   0  0  0  0  0  0  0  0  0  0  0  0
    6.3850    0.4030   21.5170 C   0  0  0  0  0  0  0  0  0  0  0  0
    7.2130   -0.8050   21.9580 C   0  0  0  0  0  0  0  0  0  0  0  0
    8.3050   -0.5550   22.9610 C   0  0  0  0  0  0  0  0  0  0  0  0
    8.9440    0.4820   23.0550 O   0  0  0  0  0  0  0  0  0  0  0  0
    8.4460   -1.6620   23.7580 N   0  0  0  0  0  0  0  0  0  0  0  0
    9.7190   -2.1600   24.2460 C   0  0  1  0  0  0  0  0  0  0  0  0
    9.7190   -3.6550   23.9930 C   0  0  0  0  0  0  0  0  0  0  0  0
   10.8610   -1.4880   23.5690 C   0  0  0  0  0  0  0  0  0  0  0  0
   11.6550   -0.2460   23.4360 C   0  0  0  0  0  0  0  0  0  0  0  0
   10.5720   -0.3640   24.3220 C   0  0  0  0  0  0  0  0  0  0  0  0
   12.5220   -0.7030   22.5070 C   0  0  0  0  0  0  0  0  0  0  0  0
   11.5070    0.8260   24.0140 C   0  0  0  0  0  0  0  0  0  0  0  0
   12.5470    0.6170   23.0140 C   0  0  0  0  0  0  0  0  0  0  0  0
   13.5040    1.5690   22.5430 O   0  0  0  0  0  0  0  0  0  0  0  0
   12.9910    2.9180   22.3530 C   0  0  0  0  0  0  0  0  0  0  0  0
   11.6570    3.0170   23.0800 C   0  0  0  0  0  0  0  0  0  0  0  0
   10.3060    2.7480   22.4100 C   0  0  0  0  0  0  0  0  0  0  0  0
   11.5710    4.5200   23.3650 C   0  0  0  0  0  0  0  0  0  0  0  0
  1  2  1  0
  3  2  1  0
  3  4  2  0
  3  5  2  0
  3  6  1  0
  6  7  1  0
  6  8  1  0
  7  9  1  0
  8 10  1  0
  9 11  1  0
 10 11  1  0
 11 12  1  0
 12 13  2  0
 12 14  1  0
 14 15  1  0
 15 16  1  6
 15 17  1  0
 17 18  2  0
 17 19  1  0
 18 20  1  0
 19 21  2  0
 20 22  2  0
 21 22  1  0
 22 23  1  0
 23 24  1  0
 24 25  1  0
 25 26  1  0
 25 27  1  0
M  END
