SAD-SAT-29425be4-7-acrylamide
     RDKit          3D

 34 35  0  0  0  0  0  0  0  0999 V2000
    6.0660   -5.1350   20.4360 C   0  0  0  0  0  0  0  0  0  0  0  0
    5.5210   -5.9740   21.6580 C   0  0  0  0  0  0  0  0  0  0  0  0
    4.3240   -5.5150   22.5540 C   0  0  0  0  0  0  0  0  0  0  0  0
    3.1630   -5.7340   22.2870 O   0  0  0  0  0  0  0  0  0  0  0  0
    4.5210   -4.9050   23.7600 N   0  0  0  0  0  0  0  0  0  0  0  0
    4.4640   -3.4710   23.8920 C   0  0  0  0  0  0  0  0  0  0  0  0
    5.3790   -5.5100   24.7320 C   0  0  0  0  0  0  0  0  0  0  0  0
    5.8700   -2.9800   23.6740 C   0  0  0  0  0  0  0  0  0  0  0  0
    6.7260   -5.4290   24.0800 C   0  0  0  0  0  0  0  0  0  0  0  0
    6.8400   -4.1220   23.2710 C   0  0  0  0  0  0  0  0  0  0  0  0
    8.2100   -3.6460   23.5980 C   0  0  0  0  0  0  0  0  0  0  0  0
    9.0090   -4.4100   24.1200 O   0  0  0  0  0  0  0  0  0  0  0  0
    8.5140   -2.3450   23.3400 N   0  0  0  0  0  0  0  0  0  0  0  0
    8.6810   -1.8550   21.9790 C   0  0  0  0  0  0  0  0  0  0  0  0
    9.3680   -1.7470   24.3820 C   0  0  2  0  0  0  0  0  0  0  0  0
    7.4650   -1.1600   21.4670 C   0  0  0  0  0  0  0  0  0  0  0  0
    8.5910   -0.8180   25.3510 C   0  0  0  0  0  0  0  0  0  0  0  0
   10.5510   -0.9880   23.8770 C   0  0  0  0  0  0  0  0  0  0  0  0
    7.6260   -0.1460   20.5630 C   0  0  0  0  0  0  0  0  0  0  0  0
    6.6940   -0.5260   22.6410 C   0  0  0  0  0  0  0  0  0  0  0  0
    6.5700   -2.1930   20.9070 N   0  0  0  0  0  0  0  0  0  0  0  0
   10.7990    0.2750   24.3460 C   0  0  0  0  0  0  0  0  0  0  0  0
   11.3630   -1.6060   22.9250 C   0  0  0  0  0  0  0  0  0  0  0  0
    6.1190   -2.3000   19.6030 C   0  0  0  0  0  0  0  0  0  0  0  0
   11.9640    1.0350   23.8470 C   0  0  0  0  0  0  0  0  0  0  0  0
   12.4630   -0.9790   22.4050 C   0  0  0  0  0  0  0  0  0  0  0  0
    5.4640   -3.4470   19.2230 O   0  0  0  0  0  0  0  0  0  0  0  0
    6.2830   -1.3710   18.8100 O   0  0  0  0  0  0  0  0  0  0  0  0
   12.8440    0.4000   22.8480 C   0  0  0  0  0  0  0  0  0  0  0  0
   13.3480   -1.8210   21.2450 Cl  0  0  0  0  0  0  0  0  0  0  0  0
    5.6880   -0.0490   19.0930 C   0  0  0  0  0  0  0  0  0  0  0  0
    4.7910   -0.0700   20.3090 C   0  0  0  0  0  0  0  0  0  0  0  0
    4.8060    0.3100   17.9180 C   0  0  0  0  0  0  0  0  0  0  0  0
    6.6970    1.0940   19.1130 C   0  0  0  0  0  0  0  0  0  0  0  0
  1  2  1  0
  2  3  1  0
  3  4  2  0
  3  5  1  0
  5  6  1  0
  5  7  1  0
  6  8  1  0
  7  9  1  0
  8 10  1  0
  9 10  1  0
 10 11  1  0
 11 12  2  0
 11 13  1  0
 13 14  1  0
 13 15  1  0
 14 16  1  0
 15 17  1  6
 15 18  1  0
 16 19  1  0
 16 20  1  0
 16 21  1  0
 18 22  2  0
 18 23  1  0
 21 24  1  0
 22 25  1  0
 23 26  2  0
 24 27  2  0
 24 28  1  0
 25 29  2  0
 26 29  1  0
 26 30  1  0
 31 28  1  0
 31 32  1  0
 31 33  1  0
 31 34  1  0
M  END
