SAD-SAT-29425be4-5-nitrile
     RDKit          3D

 35 37  0  0  0  0  0  0  0  0999 V2000
    6.8530   -3.9000   20.0520 C   0  0  0  0  0  0  0  0  0  0  0  0
    5.7520   -3.5690   19.4920 N   0  0  0  0  0  0  0  0  0  0  0  0
    7.5310   -3.1120   20.9810 N   0  0  0  0  0  0  0  0  0  0  0  0
    7.5160   -3.4230   22.4020 C   0  0  0  0  0  0  0  0  0  0  0  0
    7.7320   -1.7000   20.6880 C   0  0  0  0  0  0  0  0  0  0  0  0
    8.8710   -3.1330   23.0450 C   0  0  0  0  0  0  0  0  0  0  0  0
    8.7360   -0.9980   21.6340 C   0  0  0  0  0  0  0  0  0  0  0  0
    9.5820   -1.8360   22.6290 C   0  0  0  0  0  0  0  0  0  0  0  0
   10.9900   -2.1520   22.0590 C   0  0  0  0  0  0  0  0  0  0  0  0
   10.9980   -2.7070   21.0400 O   0  0  0  0  0  0  0  0  0  0  0  0
   12.2430   -1.8720   22.6450 N   0  0  0  0  0  0  0  0  0  0  0  0
   12.7560   -2.6810   23.7390 C   0  0  0  0  0  0  0  0  0  0  0  0
   13.3010   -1.0200   21.9500 C   0  0  0  0  0  0  0  0  0  0  0  0
   13.0810   -1.8140   24.9210 C   0  0  0  0  0  0  0  0  0  0  0  0
   13.8790   -1.6270   20.6120 C   0  0  0  0  0  0  0  0  0  0  0  0
   13.7860   -2.2670   25.8210 O   0  0  0  0  0  0  0  0  0  0  0  0
   12.4710   -0.4850   24.7800 N   0  0  0  0  0  0  0  0  0  0  0  0
   13.7640   -2.8510   20.5300 O   0  0  0  0  0  0  0  0  0  0  0  0
   14.5300   -0.7470   19.5630 N   0  0  0  0  0  0  0  0  0  0  0  0
   11.1020   -0.1240   24.6410 C   0  0  0  0  0  0  0  0  0  0  0  0
   15.8720   -0.5250   18.7950 C   0  0  0  0  0  0  0  0  0  0  0  0
   10.6960    1.2910   24.3370 C   0  0  0  0  0  0  0  0  0  0  0  0
   10.0700   -1.0900   24.7860 C   0  0  0  0  0  0  0  0  0  0  0  0
   17.4940   -0.9560   18.7670 C   0  0  0  0  0  0  0  0  0  0  0  0
   15.6970    0.2870   17.8180 C   0  0  0  0  0  0  0  0  0  0  0  0
    9.3640    1.6410   24.2190 C   0  0  0  0  0  0  0  0  0  0  0  0
    8.6930   -0.6800   24.6680 C   0  0  0  0  0  0  0  0  0  0  0  0
   10.3890   -2.3700   25.0270 C   0  0  0  0  0  0  0  0  0  0  0  0
   18.4490   -0.5380   18.0450 C   0  0  0  0  0  0  0  0  0  0  0  0
   16.7020    0.6430   17.1040 C   0  0  0  0  0  0  0  0  0  0  0  0
   14.4660    0.8500   17.4380 C   0  0  0  0  0  0  0  0  0  0  0  0
    8.4000    0.6610   24.3900 C   0  0  0  0  0  0  0  0  0  0  0  0
    7.5660   -1.6660   24.8360 C   0  0  0  0  0  0  0  0  0  0  0  0
   17.9970    0.3590   17.1650 C   0  0  0  0  0  0  0  0  0  0  0  0
   16.5520    1.4110   16.1050 C   0  0  0  0  0  0  0  0  0  0  0  0
  1  2  2  3
  1  3  1  0
  3  4  1  0
  3  5  1  0
  4  6  1  0
  5  7  1  0
  6  8  1  0
  7  8  1  0
  8  9  1  0
  9 10  2  0
  9 11  1  0
 11 12  1  0
 11 13  1  0
 12 14  1  0
 13 15  1  0
 14 16  2  0
 14 17  1  0
 15 18  2  0
 15 19  1  0
 17 20  1  0
 19 21  1  0
 20 22  2  0
 20 23  1  0
 21 24  2  0
 21 25  1  0
 22 26  1  0
 23 27  2  0
 23 28  1  0
 24 29  1  0
 25 30  2  0
 25 31  1  0
 26 32  2  0
 27 32  1  0
 27 33  1  0
 29 34  2  0
 30 34  1  0
 30 35  1  0
M  END
