SAD-SAT-b55127ae-6-bromoalkyne
     RDKit          3D

 23 25  0  0  0  0  0  0  0  0999 V2000
    6.7140   -5.5940   20.4140 C   0  0  0  0  0  0  0  0  0  0  0  0
    5.6360   -6.3530   19.7330 C   0  0  0  0  0  0  0  0  0  0  0  0
    6.4190   -5.1400   21.6600 N   0  0  0  0  0  0  0  0  0  0  0  0
    7.2320   -5.5070   22.7940 C   0  0  0  0  0  0  0  0  0  0  0  0
    5.1610   -4.5340   22.0190 C   0  0  0  0  0  0  0  0  0  0  0  0
    7.7920   -4.1960   23.2570 C   0  0  0  0  0  0  0  0  0  0  0  0
    5.2820   -3.8980   23.2530 C   0  0  0  0  0  0  0  0  0  0  0  0
    6.6460   -3.1890   23.3560 C   0  0  0  0  0  0  0  0  0  0  0  0
    6.5200   -2.1700   24.3620 C   0  0  0  0  0  0  0  0  0  0  0  0
    6.3000   -2.6510   25.6080 O   0  0  0  0  0  0  0  0  0  0  0  0
    6.6220   -0.8500   24.0070 N   0  0  0  0  0  0  0  0  0  0  0  0
    7.1380   -0.8560   22.6490 C   0  0  0  0  0  0  0  0  0  0  0  0
    6.4500   -0.2890   21.5470 C   0  0  0  0  0  0  0  0  0  0  0  0
    8.3890   -1.4310   22.1680 N   0  0  0  0  0  0  0  0  0  0  0  0
    7.2740   -0.5310   20.4700 C   0  0  0  0  0  0  0  0  0  0  0  0
    8.5060   -1.2520   20.8370 N   0  0  0  0  0  0  0  0  0  0  0  0
    9.4340   -2.1190   22.9200 C   0  0  0  0  0  0  0  0  0  0  0  0
   10.5530   -1.1610   23.0770 C   0  0  0  0  0  0  0  0  0  0  0  0
   11.9260   -1.4880   23.5970 C   0  0  0  0  0  0  0  0  0  0  0  0
   10.3490    0.5530   22.6300 S   0  0  0  0  0  0  0  0  0  0  0  0
   12.7370   -0.2270   23.5690 C   0  0  0  0  0  0  0  0  0  0  0  0
   11.9520    0.9910   23.0400 C   0  0  0  0  0  0  0  0  0  0  0  0
   12.4580    2.6110   22.8350 Cl  0  0  0  0  0  0  0  0  0  0  0  0
  1  2  2  3
  1  3  1  0
  3  4  1  0
  3  5  1  0
  4  6  1  0
  5  7  1  0
  6  8  1  0
  7  8  1  0
  8  9  1  0
  9 10  2  0
  9 11  1  0
 11 12  1  0
 12 13  2  0
 12 14  1  0
 13 15  1  0
 14 16  1  0
 15 16  2  0
 14 17  1  0
 17 18  1  0
 18 19  2  0
 18 20  1  0
 19 21  1  0
 20 22  1  0
 21 22  2  0
 22 23  1  0
M  END
