SAD-SAT-c989feaa-10-nitrile
     RDKit          3D

 21 22  0  0  0  0  0  0  0  0999 V2000
    6.8300   -3.3960   19.6380 C   0  0  0  0  0  0  0  0  0  0  0  0
    5.9470   -3.1280   18.7590 N   0  0  0  0  0  0  0  0  0  0  0  0
    6.7810   -2.9250   20.9200 N   0  0  0  0  0  0  0  0  0  0  0  0
    6.2200   -3.6100   22.0830 C   0  0  0  0  0  0  0  0  0  0  0  0
    7.0140   -1.4770   21.1340 C   0  0  0  0  0  0  0  0  0  0  0  0
    7.0340   -3.3270   23.3570 C   0  0  0  0  0  0  0  0  0  0  0  0
    8.0240   -1.2590   22.2930 C   0  0  2  0  0  0  0  0  0  0  0  0
    8.2030   -2.4860   23.1220 N   0  0  0  0  0  0  0  0  0  0  0  0
    7.7210   -0.0040   23.1450 C   0  0  0  0  0  0  0  0  0  0  0  0
    9.3870   -2.7210   23.7890 C   0  0  0  0  0  0  0  0  0  0  0  0
    8.0380    1.3310   22.4420 C   0  0  0  0  0  0  0  0  0  0  0  0
    9.5670   -3.7520   24.4020 O   0  0  0  0  0  0  0  0  0  0  0  0
   10.4750   -1.6740   23.6710 C   0  0  0  0  0  0  0  0  0  0  0  0
    7.3510    1.5500   21.0700 C   0  0  0  0  0  0  0  0  0  0  0  0
    9.5440    1.4420   22.2460 C   0  0  0  0  0  0  0  0  0  0  0  0
   10.7270   -0.4420   24.3990 C   0  0  0  0  0  0  0  0  0  0  0  0
   11.3500   -1.9830   22.6760 C   0  0  0  0  0  0  0  0  0  0  0  0
   11.8530    0.4380   24.0940 C   0  0  0  0  0  0  0  0  0  0  0  0
   12.5110   -1.0890   22.3560 C   0  0  0  0  0  0  0  0  0  0  0  0
   12.8220    0.2090   23.0840 C   0  0  0  0  0  0  0  0  0  0  0  0
   13.4610   -1.6460   21.0890 Cl  0  0  0  0  0  0  0  0  0  0  0  0
  1  2  2  3
  1  3  1  0
  3  4  1  0
  3  5  1  0
  4  6  1  0
  5  7  1  0
  6  8  1  0
  7  8  1  0
  7  9  1  1
  8 10  1  0
  9 11  1  0
 10 12  2  0
 10 13  1  0
 11 14  1  0
 11 15  1  0
 13 16  2  0
 13 17  1  0
 16 18  1  0
 17 19  2  0
 18 20  2  0
 19 20  1  0
 19 21  1  0
M  END
