SAD-SAT-29425be4-18-bromoalkyne
     RDKit          3D

 30 32  0  0  0  0  0  0  0  0999 V2000
    6.4950   -3.6750   19.6140 C   0  0  0  0  0  0  0  0  0  0  0  0
    5.7060   -2.9100   18.6460 C   0  0  0  0  0  0  0  0  0  0  0  0
    6.0710   -3.7250   20.8930 N   0  0  0  0  0  0  0  0  0  0  0  0
    5.5030   -2.5340   21.5100 C   0  0  0  0  0  0  0  0  0  0  0  0
    6.0680   -4.8790   21.7680 C   0  0  0  0  0  0  0  0  0  0  0  0
    6.6610   -2.1020   22.4360 C   0  0  0  0  0  0  0  0  0  0  0  0
    5.7610   -4.4220   23.1860 C   0  0  0  0  0  0  0  0  0  0  0  0
    6.5460   -3.1440   23.6000 C   0  0  0  0  0  0  0  0  0  0  0  0
    8.0320   -3.4690   23.7320 C   0  0  0  0  0  0  0  0  0  0  0  0
    8.3970   -4.6160   23.9710 O   0  0  0  0  0  0  0  0  0  0  0  0
    8.8920   -2.3980   23.5650 N   0  0  0  0  0  0  0  0  0  0  0  0
    9.6500   -2.2890   22.3160 C   0  0  0  0  0  0  0  0  0  0  0  0
    9.2060   -1.4360   24.6270 C   0  0  0  0  0  0  0  0  0  0  0  0
    9.9930   -0.2740   24.0520 C   0  0  0  0  0  0  0  0  0  0  0  0
   11.3390   -0.6050   23.4830 C   0  0  0  0  0  0  0  0  0  0  0  0
    9.5780    1.0790   24.0030 C   0  0  0  0  0  0  0  0  0  0  0  0
   12.1290    0.3610   22.9310 C   0  0  0  0  0  0  0  0  0  0  0  0
   10.3790    2.1120   23.4310 C   0  0  0  0  0  0  0  0  0  0  0  0
   13.3670    0.1160   22.4020 C   0  0  0  0  0  0  0  0  0  0  0  0
   11.6330    1.8080   22.8860 C   0  0  0  0  0  0  0  0  0  0  0  0
    9.8890    3.4320   23.4200 C   0  0  0  0  0  0  0  0  0  0  0  0
   12.4600    2.7380   22.3000 O   0  0  0  0  0  0  0  0  0  0  0  0
   12.2630    4.1290   21.9350 C   0  0  0  0  0  0  0  0  0  0  0  0
   13.7580    4.3600   21.9060 C   0  0  0  0  0  0  0  0  0  0  0  0
   14.3310    4.6800   23.2380 C   0  0  0  0  0  0  0  0  0  0  0  0
   14.6060    4.2700   20.8300 C   0  0  0  0  0  0  0  0  0  0  0  0
   15.8770    4.8140   23.3740 C   0  0  0  0  0  0  0  0  0  0  0  0
   15.9610    4.4070   20.9870 C   0  0  0  0  0  0  0  0  0  0  0  0
   16.7100    4.6460   22.2200 C   0  0  0  0  0  0  0  0  0  0  0  0
   16.8820    4.3320   19.9370 C   0  0  0  0  0  0  0  0  0  0  0  0
  1  2  2  3
  1  3  1  0
  3  4  1  0
  3  5  1  0
  4  6  1  0
  5  7  1  0
  6  8  1  0
  7  8  1  0
  8  9  1  0
  9 10  2  0
  9 11  1  0
 11 12  1  0
 11 13  1  0
 13 14  1  0
 14 15  2  0
 14 16  1  0
 15 17  1  0
 16 18  2  0
 17 19  1  0
 17 20  2  0
 18 20  1  0
 18 21  1  0
 20 22  1  0
 22 23  1  0
 23 24  1  0
 24 25  2  0
 24 26  1  0
 25 27  1  0
 26 28  2  0
 27 29  2  0
 28 29  1  0
 28 30  1  0
M  END
