SAD-SAT-c989feaa-6-bromoalkyne
     RDKit          3D

 20 21  0  0  0  0  0  0  0  0999 V2000
    6.6200   -3.7940   19.9060 C   0  0  0  0  0  0  0  0  0  0  0  0
    6.3490   -2.8700   18.7200 C   0  0  0  0  0  0  0  0  0  0  0  0
    6.9180   -3.1850   21.1000 N   0  0  0  0  0  0  0  0  0  0  0  0
    6.2650   -3.5350   22.3580 C   0  0  0  0  0  0  0  0  0  0  0  0
    7.4180   -1.8010   21.0350 C   0  0  0  0  0  0  0  0  0  0  0  0
    7.2420   -3.3740   23.5180 C   0  0  0  0  0  0  0  0  0  0  0  0
    8.1100   -1.3560   22.3240 C   0  0  2  0  0  0  0  0  0  0  0  0
    8.3900   -2.5370   23.1690 N   0  0  0  0  0  0  0  0  0  0  0  0
    7.3410   -0.2250   23.0470 C   0  0  0  0  0  0  0  0  0  0  0  0
    9.3740   -2.4140   24.1210 C   0  0  0  0  0  0  0  0  0  0  0  0
    6.8290    0.9320   22.1480 C   0  0  0  0  0  0  0  0  0  0  0  0
   10.4470   -1.5080   23.8260 C   0  0  0  0  0  0  0  0  0  0  0  0
    5.5370    0.6740   21.3280 C   0  0  0  0  0  0  0  0  0  0  0  0
    7.9510    1.3270   21.1770 C   0  0  0  0  0  0  0  0  0  0  0  0
   10.7530   -0.2110   24.4270 C   0  0  0  0  0  0  0  0  0  0  0  0
   11.2630   -1.9650   22.8280 C   0  0  0  0  0  0  0  0  0  0  0  0
   11.8480    0.6670   24.0700 C   0  0  0  0  0  0  0  0  0  0  0  0
   12.4210   -1.1440   22.3830 C   0  0  0  0  0  0  0  0  0  0  0  0
   12.6430    0.1810   23.0730 C   0  0  0  0  0  0  0  0  0  0  0  0
   13.3950   -1.7310   21.1410 Cl  0  0  0  0  0  0  0  0  0  0  0  0
  1  2  2  3
  1  3  1  0
  3  4  1  0
  3  5  1  0
  4  6  1  0
  5  7  1  0
  6  8  1  0
  7  8  1  0
  7  9  1  1
  8 10  1  0
  9 11  1  0
 10 12  1  0
 11 13  1  0
 11 14  1  0
 12 15  2  0
 12 16  1  0
 15 17  1  0
 16 18  2  0
 17 19  2  0
 18 19  1  0
 18 20  1  0
M  END
