SAD-SAT-f0a2747f-7-bromoalkyne
     RDKit          3D

 24 25  0  0  0  0  0  0  0  0999 V2000
    7.5570   -3.3560   19.4190 C   0  0  0  0  0  0  0  0  0  0  0  0
    7.8070   -2.6830   18.1430 C   0  0  0  0  0  0  0  0  0  0  0  0
    6.4000   -3.0530   20.0720 N   0  0  0  0  0  0  0  0  0  0  0  0
    5.3980   -2.3290   19.3750 C   0  0  0  0  0  0  0  0  0  0  0  0
    6.3120   -3.0780   21.4820 C   0  0  0  0  0  0  0  0  0  0  0  0
    5.5350   -4.0870   21.9350 C   0  0  0  0  0  0  0  0  0  0  0  0
    4.1460   -3.9650   22.1920 O   0  0  0  0  0  0  0  0  0  0  0  0
    6.1970   -5.3610   22.0960 N   0  0  0  0  0  0  0  0  0  0  0  0
    6.9850   -5.3900   23.3130 C   0  0  0  0  0  0  0  0  0  0  0  0
    8.3850   -5.8950   23.2080 C   0  0  0  0  0  0  0  0  0  0  0  0
    6.4340   -4.9690   24.5010 C   0  0  0  0  0  0  0  0  0  0  0  0
    9.1550   -5.9580   24.4510 C   0  0  0  0  0  0  0  0  0  0  0  0
    7.1740   -5.0350   25.6760 C   0  0  0  0  0  0  0  0  0  0  0  0
    8.4790   -5.5230   25.6960 C   0  0  0  0  0  0  0  0  0  0  0  0
    6.3530   -4.4770   27.1530 S   0  0  0  0  0  0  0  0  0  0  0  0
    9.3540   -5.6740   27.1370 Cl  0  0  0  0  0  0  0  0  0  0  0  0
    4.9960   -4.9840   27.1210 O   0  0  0  0  0  0  0  0  0  0  0  0
    7.1860   -4.6750   28.3250 O   0  0  0  0  0  0  0  0  0  0  0  0
    6.2180   -2.8030   26.8830 N   0  0  0  0  0  0  0  0  0  0  0  0
    7.4900   -2.0480   26.7600 C   0  0  0  0  0  0  0  0  0  0  0  0
    5.1910   -2.1240   27.7560 C   0  0  0  0  0  0  0  0  0  0  0  0
    8.0390   -1.4620   28.0930 C   0  0  0  0  0  0  0  0  0  0  0  0
    5.8280   -1.4930   29.0070 C   0  0  0  0  0  0  0  0  0  0  0  0
    7.0000   -0.7070   28.7320 O   0  0  0  0  0  0  0  0  0  0  0  0
  1  2  2  3
  1  3  1  0
  3  4  1  0
  3  5  1  0
  5  6  1  0
  6  7  2  0
  6  8  1  0
  8  9  1  0
  9 10  2  0
  9 11  1  0
 10 12  1  0
 11 13  2  0
 12 14  2  0
 13 14  1  0
 15 13  1  0
 14 16  1  0
 15 17  2  0
 15 18  2  0
 15 19  1  0
 19 20  1  0
 19 21  1  0
 20 22  1  0
 21 23  1  0
 22 24  1  0
 23 24  1  0
M  END
