SAD-SAT-1b030f84-1
     RDKit          3D

  5  4  0  0  0  0  0  0  0  0999 V2000
    5.8190   -4.0300   19.8450 N   0  0  0  0  0  0  0  0  0  0  0  0
    6.7440   -4.0230   20.7650 C   0  0  0  0  0  0  0  0  0  0  0  0
    6.8600   -5.0260   21.6990 N   0  0  0  0  0  0  0  0  0  0  0  0
    7.6710   -2.9720   20.7960 C   0  0  0  0  0  0  0  0  0  0  0  0
    8.0600   -2.6090   22.4940 Cl  0  0  0  0  0  0  0  0  0  0  0  0
  1  2  2  3
  2  3  1  0
  2  4  1  0
  4  5  1  0
M  END
