SAD-SAT-c989feaa-7-chloroacetamide
     RDKit          3D

 21 22  0  0  0  0  0  0  0  0999 V2000
    7.4270   -3.0260   18.8990 C   0  0  0  0  0  0  0  0  0  0  0  0
    6.3620   -3.3190   19.9480 C   0  0  0  0  0  0  0  0  0  0  0  0
    5.4460   -4.1210   19.7280 O   0  0  0  0  0  0  0  0  0  0  0  0
    6.4170   -2.6900   21.1690 N   0  0  0  0  0  0  0  0  0  0  0  0
    7.1210   -1.4340   21.4240 C   0  0  0  0  0  0  0  0  0  0  0  0
    6.1910   -3.5430   22.3320 C   0  0  0  0  0  0  0  0  0  0  0  0
    8.4890   -1.6880   22.0360 C   0  0  0  0  0  0  0  0  0  0  0  0
    7.2320   -3.3750   23.4700 C   0  0  2  0  0  0  0  0  0  0  0  0
    8.4770   -2.6400   23.1550 N   0  0  0  0  0  0  0  0  0  0  0  0
    7.5420   -4.7260   24.1570 C   0  0  0  0  0  0  0  0  0  0  0  0
    9.3960   -2.4310   24.1630 C   0  0  0  0  0  0  0  0  0  0  0  0
    7.6520   -6.0110   23.2940 C   0  0  0  0  0  0  0  0  0  0  0  0
   10.4460   -1.5020   23.8690 C   0  0  0  0  0  0  0  0  0  0  0  0
    6.4880   -6.4910   22.7750 N   0  0  0  0  0  0  0  0  0  0  0  0
    8.7220   -6.5870   23.0990 O   0  0  0  0  0  0  0  0  0  0  0  0
   10.7170   -0.1980   24.4720 C   0  0  0  0  0  0  0  0  0  0  0  0
   11.2760   -1.9450   22.8680 C   0  0  0  0  0  0  0  0  0  0  0  0
   11.7870    0.7030   24.1190 C   0  0  0  0  0  0  0  0  0  0  0  0
   12.4140   -1.0910   22.4280 C   0  0  0  0  0  0  0  0  0  0  0  0
   12.5980    0.2370   23.1210 C   0  0  0  0  0  0  0  0  0  0  0  0
   13.4150   -1.6370   21.1900 Cl  0  0  0  0  0  0  0  0  0  0  0  0
  1  2  1  0
  2  3  2  0
  2  4  1  0
  4  5  1  0
  4  6  1  0
  5  7  1  0
  6  8  1  0
  7  9  1  0
  8  9  1  0
  8 10  1  6
  9 11  1  0
 10 12  1  0
 11 13  1  0
 12 14  1  0
 12 15  2  0
 13 16  2  0
 13 17  1  0
 16 18  1  0
 17 19  2  0
 18 20  2  0
 19 20  1  0
 19 21  1  0
M  END
