SAD-SAT-9a6c5cf3-7-bromoalkyne
     RDKit          3D

 30 32  0  0  0  0  0  0  0  0999 V2000
    6.7380   -3.8120   19.8760 C   0  0  0  0  0  0  0  0  0  0  0  0
    5.6720   -3.3340   19.2280 C   0  0  0  0  0  0  0  0  0  0  0  0
    6.8350   -3.9870   21.2340 N   0  0  0  0  0  0  0  0  0  0  0  0
    7.7810   -3.1300   21.9830 C   0  0  0  0  0  0  0  0  0  0  0  0
    6.3510   -5.2020   21.8930 C   0  0  0  0  0  0  0  0  0  0  0  0
    7.2750   -2.7700   23.3650 C   0  0  0  0  0  0  0  0  0  0  0  0
    5.8630   -4.9020   23.3150 C   0  0  0  0  0  0  0  0  0  0  0  0
    5.9100   -3.3970   23.6750 C   0  0  0  0  0  0  0  0  0  0  0  0
    5.5920   -3.1860   25.1470 C   0  0  0  0  0  0  0  0  0  0  0  0
    4.4580   -3.3650   25.5730 O   0  0  0  0  0  0  0  0  0  0  0  0
    6.6890   -2.7690   26.0240 N   0  0  0  0  0  0  0  0  0  0  0  0
    7.3620   -3.7030   26.8300 C   0  0  0  0  0  0  0  0  0  0  0  0
    6.8190   -1.4050   26.5560 C   0  0  0  0  0  0  0  0  0  0  0  0
    7.0900   -3.6840   28.2140 C   0  0  0  0  0  0  0  0  0  0  0  0
    7.7340   -1.4530   27.6060 C   0  0  0  0  0  0  0  0  0  0  0  0
    7.1830   -2.2900   28.7040 N   0  0  0  0  0  0  0  0  0  0  0  0
    5.7500   -1.6510   29.4160 S   0  0  0  0  0  0  0  0  0  0  0  0
    5.0530   -2.7920   29.9580 O   0  0  0  0  0  0  0  0  0  0  0  0
    5.1410   -0.7840   28.4360 O   0  0  0  0  0  0  0  0  0  0  0  0
    6.2490   -0.6630   30.7230 C   0  0  0  0  0  0  0  0  0  0  0  0
    5.2760   -0.3220   31.6850 C   0  0  0  0  0  0  0  0  0  0  0  0
    7.5830   -0.1920   30.8580 C   0  0  0  0  0  0  0  0  0  0  0  0
    5.5740    0.4830   32.8110 C   0  0  0  0  0  0  0  0  0  0  0  0
    7.8880    0.6030   31.9650 C   0  0  0  0  0  0  0  0  0  0  0  0
    8.7770   -0.4480   29.9220 C   0  0  0  0  0  0  0  0  0  0  0  0
    4.2950    0.8650   33.9830 S   0  0  0  0  0  0  0  0  0  0  0  0
    6.8580    0.9810   33.0160 C   0  0  0  0  0  0  0  0  0  0  0  0
    4.8690    2.3830   34.6980 C   0  0  0  0  0  0  0  0  0  0  0  0
    4.3160   -0.1420   35.0160 O   0  0  0  0  0  0  0  0  0  0  0  0
    3.1020    1.1700   33.2260 O   0  0  0  0  0  0  0  0  0  0  0  0
  1  2  2  3
  1  3  1  0
  3  4  1  0
  3  5  1  0
  4  6  1  0
  5  7  1  0
  6  8  1  0
  7  8  1  0
  8  9  1  0
  9 10  2  0
  9 11  1  0
 11 12  1  0
 11 13  1  0
 12 14  1  0
 13 15  1  0
 14 16  1  0
 15 16  1  0
 16 17  1  0
 17 18  2  0
 17 19  2  0
 17 20  1  0
 20 21  2  0
 20 22  1  0
 21 23  1  0
 22 24  2  0
 22 25  1  0
 23 26  1  0
 23 27  2  0
 24 27  1  0
 26 28  1  0
 26 29  2  0
 26 30  2  0
M  END
