SAD-SAT-1f400d17-1-nitrile
     RDKit          3D

 15 16  0  0  0  0  0  0  0  0999 V2000
    6.7900   -3.4460   19.7370 C   0  0  0  0  0  0  0  0  0  0  0  0
    5.8780   -3.1660   18.8910 N   0  0  0  0  0  0  0  0  0  0  0  0
    6.7300   -2.9960   21.0740 N   0  0  0  0  0  0  0  0  0  0  0  0
    6.8570   -1.5440   21.3250 C   0  0  0  0  0  0  0  0  0  0  0  0
    7.2100   -3.8370   22.1970 C   0  0  0  0  0  0  0  0  0  0  0  0
    8.2310   -1.2840   21.9110 C   0  0  0  0  0  0  0  0  0  0  0  0
    7.4180   -3.0810   23.3730 C   0  0  0  0  0  0  0  0  0  0  0  0
    8.4090   -1.9820   23.1920 N   0  0  0  0  0  0  0  0  0  0  0  0
    9.8170   -2.3290   23.4430 C   0  0  0  0  0  0  0  0  0  0  0  0
   10.6610   -1.0500   23.5030 C   0  0  0  0  0  0  0  0  0  0  0  0
   12.0370   -1.0970   22.8740 C   0  0  0  0  0  0  0  0  0  0  0  0
   10.2090    0.1460   24.0940 C   0  0  0  0  0  0  0  0  0  0  0  0
   12.8410    0.1540   22.9140 C   0  0  0  0  0  0  0  0  0  0  0  0
   11.0130    1.2950   24.0940 C   0  0  0  0  0  0  0  0  0  0  0  0
   12.2920    1.2830   23.5130 C   0  0  0  0  0  0  0  0  0  0  0  0
  1  2  2  3
  1  3  1  0
  3  4  1  0
  3  5  1  0
  4  6  1  0
  5  7  1  0
  6  8  1  0
  7  8  1  0
  8  9  1  0
  9 10  1  0
 10 11  2  0
 10 12  1  0
 11 13  1  0
 12 14  2  0
 13 15  2  0
 14 15  1  0
M  END
