SAD-SAT-9a6c5cf3-7-acrylamide
     RDKit          3D

 32 34  0  0  0  0  0  0  0  0999 V2000
    7.2760   -2.8440   18.5140 C   0  0  0  0  0  0  0  0  0  0  0  0
    6.5110   -2.3140   19.4730 C   0  0  0  0  0  0  0  0  0  0  0  0
    5.8630   -3.4340   20.2850 C   0  0  0  0  0  0  0  0  0  0  0  0
    5.0940   -4.2230   19.7330 O   0  0  0  0  0  0  0  0  0  0  0  0
    6.2470   -3.5940   21.6220 N   0  0  0  0  0  0  0  0  0  0  0  0
    6.1000   -4.9410   22.1840 C   0  0  0  0  0  0  0  0  0  0  0  0
    7.4010   -2.8180   22.1410 C   0  0  0  0  0  0  0  0  0  0  0  0
    6.0080   -4.7990   23.7070 C   0  0  0  0  0  0  0  0  0  0  0  0
    7.3460   -2.6820   23.5320 C   0  0  0  0  0  0  0  0  0  0  0  0
    6.0460   -3.3110   24.0370 C   0  0  0  0  0  0  0  0  0  0  0  0
    5.6420   -2.9540   25.4560 C   0  0  0  0  0  0  0  0  0  0  0  0
    4.4440   -3.0180   25.6930 O   0  0  0  0  0  0  0  0  0  0  0  0
    6.5240   -2.6010   26.5010 N   0  0  0  0  0  0  0  0  0  0  0  0
    6.1180   -2.9220   27.8580 C   0  0  0  0  0  0  0  0  0  0  0  0
    7.0330   -1.2720   26.5520 C   0  0  0  0  0  0  0  0  0  0  0  0
    4.9570   -2.2160   28.2290 C   0  0  0  0  0  0  0  0  0  0  0  0
    5.9830   -0.2830   27.0350 C   0  0  0  0  0  0  0  0  0  0  0  0
    5.1140   -0.8370   28.1490 N   0  0  0  0  0  0  0  0  0  0  0  0
    5.3560   -0.0420   29.6510 S   0  0  0  0  0  0  0  0  0  0  0  0
    5.2140    1.3700   29.3640 O   0  0  0  0  0  0  0  0  0  0  0  0
    6.5590   -0.5830   30.2180 O   0  0  0  0  0  0  0  0  0  0  0  0
    4.0910   -0.6230   30.6450 C   0  0  0  0  0  0  0  0  0  0  0  0
    4.4140   -0.9230   31.9960 C   0  0  0  0  0  0  0  0  0  0  0  0
    2.7790   -0.8130   30.1750 C   0  0  0  0  0  0  0  0  0  0  0  0
    3.4620   -1.4150   32.9130 C   0  0  0  0  0  0  0  0  0  0  0  0
    1.7780   -1.3450   31.1950 C   0  0  0  0  0  0  0  0  0  0  0  0
    2.2550   -0.5460   28.7540 C   0  0  0  0  0  0  0  0  0  0  0  0
    3.9580   -1.7660   34.5910 S   0  0  0  0  0  0  0  0  0  0  0  0
    2.1460   -1.6260   32.5130 C   0  0  0  0  0  0  0  0  0  0  0  0
    5.4290   -0.7990   34.8150 C   0  0  0  0  0  0  0  0  0  0  0  0
    2.9360   -1.2260   35.4590 O   0  0  0  0  0  0  0  0  0  0  0  0
    4.3250   -3.1670   34.6430 O   0  0  0  0  0  0  0  0  0  0  0  0
  1  2  1  0
  2  3  1  0
  3  4  2  0
  3  5  1  0
  5  6  1  0
  5  7  1  0
  6  8  1  0
  7  9  1  0
  8 10  1  0
  9 10  1  0
 10 11  1  0
 11 12  2  0
 11 13  1  0
 13 14  1  0
 13 15  1  0
 14 16  1  0
 15 17  1  0
 16 18  1  0
 17 18  1  0
 18 19  1  0
 19 20  2  0
 19 21  2  0
 19 22  1  0
 22 23  2  0
 22 24  1  0
 23 25  1  0
 24 26  2  0
 24 27  1  0
 25 28  1  0
 25 29  2  0
 26 29  1  0
 28 30  1  0
 28 31  2  0
 28 32  2  0
M  END
