SAD-SAT-c989feaa-3-acrylamide
     RDKit          3D

 22 23  0  0  0  0  0  0  0  0999 V2000
    7.6510   -2.8170   18.4340 C   0  0  0  0  0  0  0  0  0  0  0  0
    6.2100   -2.6660   18.8570 C   0  0  0  0  0  0  0  0  0  0  0  0
    5.8460   -3.3280   20.1330 C   0  0  0  0  0  0  0  0  0  0  0  0
    5.2480   -4.4040   20.0840 O   0  0  0  0  0  0  0  0  0  0  0  0
    6.2330   -2.6540   21.2830 N   0  0  0  0  0  0  0  0  0  0  0  0
    7.1360   -1.4980   21.2090 C   0  0  0  0  0  0  0  0  0  0  0  0
    5.8700   -3.1290   22.6080 C   0  0  0  0  0  0  0  0  0  0  0  0
    8.4360   -1.7130   21.9850 C   0  0  0  0  0  0  0  0  0  0  0  0
    7.0970   -3.2410   23.5600 C   0  0  2  0  0  0  0  0  0  0  0  0
    8.2460   -2.3390   23.2970 N   0  0  0  0  0  0  0  0  0  0  0  0
    7.6390   -4.5650   23.5450 N   0  0  0  0  0  0  0  0  0  0  0  0
    9.3010   -2.3540   24.1870 C   0  0  0  0  0  0  0  0  0  0  0  0
    6.7770   -5.6160   23.5710 C   0  0  0  0  0  0  0  0  0  0  0  0
   10.3810   -1.4470   23.8800 C   0  0  0  0  0  0  0  0  0  0  0  0
    6.8120   -6.5320   22.3300 C   0  0  0  0  0  0  0  0  0  0  0  0
    6.0170   -5.7950   24.5170 O   0  0  0  0  0  0  0  0  0  0  0  0
   10.6380   -0.1630   24.4990 C   0  0  0  0  0  0  0  0  0  0  0  0
   11.2280   -1.9040   22.8710 C   0  0  0  0  0  0  0  0  0  0  0  0
   11.7180    0.6000   24.0860 C   0  0  0  0  0  0  0  0  0  0  0  0
   12.4090   -1.0840   22.4120 C   0  0  0  0  0  0  0  0  0  0  0  0
   12.6050    0.2350   23.1050 C   0  0  0  0  0  0  0  0  0  0  0  0
   13.4020   -1.6660   21.1830 Cl  0  0  0  0  0  0  0  0  0  0  0  0
  1  2  1  0
  2  3  1  0
  3  4  2  0
  3  5  1  0
  5  6  1  0
  5  7  1  0
  6  8  1  0
  7  9  1  0
  8 10  1  0
  9 10  1  0
  9 11  1  6
 10 12  1  0
 11 13  1  0
 12 14  1  0
 13 15  1  0
 13 16  2  0
 14 17  2  0
 14 18  1  0
 17 19  1  0
 18 20  2  0
 19 21  2  0
 20 21  1  0
 20 22  1  0
M  END
