SAD-SAT-1f400d17-1-vinylsulfonamide
     RDKit          3D

 18 19  0  0  0  0  0  0  0  0999 V2000
    7.7510   -2.9490   18.7160 C   0  0  0  0  0  0  0  0  0  0  0  0
    6.4870   -2.6540   18.7110 C   0  0  0  0  0  0  0  0  0  0  0  0
    5.5910   -3.4060   20.0540 S   0  0  0  0  0  0  0  0  0  0  0  0
    4.3980   -2.8720   19.7370 O   0  0  0  0  0  0  0  0  0  0  0  0
    5.4840   -4.8460   20.0800 O   0  0  0  0  0  0  0  0  0  0  0  0
    6.2820   -2.7110   21.4720 N   0  0  0  0  0  0  0  0  0  0  0  0
    6.9740   -1.4320   21.2250 C   0  0  0  0  0  0  0  0  0  0  0  0
    7.0140   -3.6310   22.3560 C   0  0  0  0  0  0  0  0  0  0  0  0
    8.4300   -1.4800   21.6860 C   0  0  0  0  0  0  0  0  0  0  0  0
    7.6400   -3.0020   23.4390 C   0  0  0  0  0  0  0  0  0  0  0  0
    8.5830   -1.9470   23.0600 N   0  0  0  0  0  0  0  0  0  0  0  0
    9.8770   -2.1790   23.4950 C   0  0  0  0  0  0  0  0  0  0  0  0
   10.8080   -0.9940   23.2920 C   0  0  0  0  0  0  0  0  0  0  0  0
   10.1540    0.3610   23.2730 C   0  0  0  0  0  0  0  0  0  0  0  0
   12.1910   -1.1200   23.1240 C   0  0  0  0  0  0  0  0  0  0  0  0
   10.9120    1.5200   23.0910 C   0  0  0  0  0  0  0  0  0  0  0  0
   12.8730    0.0860   22.9600 C   0  0  0  0  0  0  0  0  0  0  0  0
   12.2750    1.3310   22.9460 C   0  0  0  0  0  0  0  0  0  0  0  0
  1  2  1  0
  3  2  1  0
  3  4  2  0
  3  5  2  0
  3  6  1  0
  6  7  1  0
  6  8  1  0
  7  9  1  0
  8 10  1  0
  9 11  1  0
 10 11  1  0
 11 12  1  0
 12 13  1  0
 13 14  2  0
 13 15  1  0
 14 16  1  0
 15 17  2  0
 16 18  2  0
 17 18  1  0
M  END
