SAD-SAT-c989feaa-4-vinylsulfonamide
     RDKit          3D

 22 23  0  0  0  0  0  0  0  0999 V2000
    7.7880   -3.0340   18.4440 C   0  0  0  0  0  0  0  0  0  0  0  0
    7.4410   -2.3470   19.7070 C   0  0  0  0  0  0  0  0  0  0  0  0
    5.7280   -2.5360   20.1090 S   0  0  0  0  0  0  0  0  0  0  0  0
    5.2500   -3.9200   20.2330 O   0  0  0  0  0  0  0  0  0  0  0  0
    4.9910   -1.5500   19.3600 O   0  0  0  0  0  0  0  0  0  0  0  0
    5.9530   -1.9010   21.6550 N   0  0  0  0  0  0  0  0  0  0  0  0
    6.9600   -0.8240   21.6940 C   0  0  0  0  0  0  0  0  0  0  0  0
    5.9800   -2.8540   22.7790 C   0  0  0  0  0  0  0  0  0  0  0  0
    8.3590   -1.3130   22.1100 C   0  0  0  0  0  0  0  0  0  0  0  0
    7.4010   -3.3230   23.1190 C   0  0  2  0  0  0  0  0  0  0  0  0
    8.2930   -2.1560   23.2920 N   0  0  0  0  0  0  0  0  0  0  0  0
    7.8870   -4.2850   22.0520 C   0  0  0  0  0  0  0  0  0  0  0  0
    9.4360   -2.2520   24.0780 C   0  0  0  0  0  0  0  0  0  0  0  0
    7.8130   -5.7740   22.3730 C   0  0  0  0  0  0  0  0  0  0  0  0
   10.6170   -1.5070   23.6850 C   0  0  0  0  0  0  0  0  0  0  0  0
    6.4280   -6.4270   22.5800 C   0  0  0  0  0  0  0  0  0  0  0  0
    8.7080   -6.0300   23.5820 C   0  0  0  0  0  0  0  0  0  0  0  0
   11.6910   -1.8660   22.7450 C   0  0  0  0  0  0  0  0  0  0  0  0
   10.7310   -0.2600   24.3020 C   0  0  0  0  0  0  0  0  0  0  0  0
   12.8570   -1.1000   22.3690 C   0  0  0  0  0  0  0  0  0  0  0  0
   11.9210    0.6200   23.9680 C   0  0  0  0  0  0  0  0  0  0  0  0
   12.9530    0.1210   22.9810 C   0  0  0  0  0  0  0  0  0  0  0  0
  1  2  1  0
  3  2  1  0
  3  4  2  0
  3  5  2  0
  3  6  1  0
  6  7  1  0
  6  8  1  0
  7  9  1  0
  8 10  1  0
  9 11  1  0
 10 11  1  0
 10 12  1  6
 11 13  1  0
 12 14  1  0
 13 15  1  0
 14 16  1  0
 14 17  1  0
 15 18  2  0
 15 19  1  0
 18 20  1  0
 19 21  2  0
 20 22  2  0
 21 22  1  0
M  END
