SAD-SAT-2ceae68f-7-nitrile
     RDKit          3D

 22 24  0  0  0  0  0  0  0  0999 V2000
    6.7380   -4.1030   20.1820 C   0  0  0  0  0  0  0  0  0  0  0  0
    5.8120   -3.5680   19.4710 N   0  0  0  0  0  0  0  0  0  0  0  0
    7.0560   -3.6880   21.4480 N   0  0  0  0  0  0  0  0  0  0  0  0
    6.7420   -4.4650   22.6680 C   0  0  0  0  0  0  0  0  0  0  0  0
    8.1530   -2.7260   21.6610 C   0  0  0  0  0  0  0  0  0  0  0  0
    6.1210   -3.3780   23.6180 C   0  0  0  0  0  0  0  0  0  0  0  0
    7.6940   -1.4990   22.1600 C   0  0  0  0  0  0  0  0  0  0  0  0
    7.4090   -2.6480   24.1210 C   0  0  0  0  0  0  0  0  0  0  0  0
    7.6760   -1.4420   23.4780 N   0  0  0  0  0  0  0  0  0  0  0  0
    8.4860   -0.1780   24.2330 S   0  0  0  0  0  0  0  0  0  0  0  0
    8.4640   -0.4700   25.6470 O   0  0  0  0  0  0  0  0  0  0  0  0
    7.9000    1.0350   23.7050 O   0  0  0  0  0  0  0  0  0  0  0  0
   10.1710   -0.3630   23.6680 C   0  0  0  0  0  0  0  0  0  0  0  0
   10.5640   -1.8240   23.4610 C   0  0  0  0  0  0  0  0  0  0  0  0
   11.0330    0.7340   23.4350 C   0  0  0  0  0  0  0  0  0  0  0  0
   11.9990   -2.0680   22.9550 C   0  0  0  0  0  0  0  0  0  0  0  0
   12.3300    0.4850   22.9870 C   0  0  0  0  0  0  0  0  0  0  0  0
   10.7100    2.0720   23.6110 C   0  0  0  0  0  0  0  0  0  0  0  0
   12.8360   -0.8040   22.7390 C   0  0  0  0  0  0  0  0  0  0  0  0
   13.1670    1.7130   22.7870 C   0  0  0  0  0  0  0  0  0  0  0  0
   11.4800    3.1450   23.4050 C   0  0  0  0  0  0  0  0  0  0  0  0
   12.7320    2.9940   22.9890 N   0  0  0  0  0  0  0  0  0  0  0  0
  1  2  2  3
  1  3  1  0
  3  4  1  0
  3  5  1  0
  4  6  1  0
  5  7  1  0
  6  8  1  0
  7  9  1  0
  8  9  1  0
  9 10  1  0
 10 11  2  0
 10 12  2  0
 10 13  1  0
 13 14  2  0
 13 15  1  0
 14 16  1  0
 15 17  2  0
 15 18  1  0
 16 19  2  0
 17 19  1  0
 17 20  1  0
 18 21  2  0
 20 22  2  0
 21 22  1  0
M  END
