SAD-SAT-9a6c5cf3-2-chloroacetamide
     RDKit          3D

 28 30  0  0  0  0  0  0  0  0999 V2000
    7.1480   -3.1690   19.1420 C   0  0  0  0  0  0  0  0  0  0  0  0
    6.3610   -3.7770   20.0320 C   0  0  0  0  0  0  0  0  0  0  0  0
    5.2720   -4.2600   19.7470 O   0  0  0  0  0  0  0  0  0  0  0  0
    6.8540   -3.9040   21.3330 N   0  0  0  0  0  0  0  0  0  0  0  0
    7.7400   -2.8730   21.9280 C   0  0  0  0  0  0  0  0  0  0  0  0
    6.5150   -5.0500   22.1800 C   0  0  0  0  0  0  0  0  0  0  0  0
    7.5990   -2.7940   23.4440 C   0  0  0  0  0  0  0  0  0  0  0  0
    5.8160   -4.6000   23.4620 C   0  0  0  0  0  0  0  0  0  0  0  0
    6.1780   -3.1550   23.8750 C   0  0  0  0  0  0  0  0  0  0  0  0
    5.9460   -3.0080   25.3680 C   0  0  0  0  0  0  0  0  0  0  0  0
    4.9460   -3.9520   25.7940 O   0  0  0  0  0  0  0  0  0  0  0  0
    6.5630   -2.0380   26.2970 N   0  0  0  0  0  0  0  0  0  0  0  0
    5.7500   -1.4150   27.1810 C   0  0  0  0  0  0  0  0  0  0  0  0
    7.5350   -0.9540   26.0990 C   0  0  0  0  0  0  0  0  0  0  0  0
    5.5020   -0.1060   26.7500 C   0  0  0  0  0  0  0  0  0  0  0  0
    7.8360   -0.5050   27.4390 C   0  0  0  0  0  0  0  0  0  0  0  0
    5.8190    0.8410   27.7160 C   0  0  0  0  0  0  0  0  0  0  0  0
    7.1730    0.7720   27.9160 N   0  0  0  0  0  0  0  0  0  0  0  0
    7.7290    1.2400   29.4790 S   0  0  0  0  0  0  0  0  0  0  0  0
    6.5360    1.5370   30.2400 O   0  0  0  0  0  0  0  0  0  0  0  0
    8.6730    0.2360   29.9070 O   0  0  0  0  0  0  0  0  0  0  0  0
    8.6380    2.6730   29.2180 C   0  0  0  0  0  0  0  0  0  0  0  0
    9.7540    2.9370   30.0480 C   0  0  0  0  0  0  0  0  0  0  0  0
    8.3250    3.5980   28.2220 C   0  0  0  0  0  0  0  0  0  0  0  0
   10.5510    4.0960   29.9030 C   0  0  0  0  0  0  0  0  0  0  0  0
    9.1920    4.8420   28.0780 C   0  0  0  0  0  0  0  0  0  0  0  0
   10.2900    5.0720   28.9190 C   0  0  0  0  0  0  0  0  0  0  0  0
   11.2210    6.2930   28.8420 C   0  0  0  0  0  0  0  0  0  0  0  0
  1  2  1  0
  2  3  2  0
  2  4  1  0
  4  5  1  0
  4  6  1  0
  5  7  1  0
  6  8  1  0
  7  9  1  0
  8  9  1  0
  9 10  1  0
 10 11  2  0
 10 12  1  0
 12 13  1  0
 12 14  1  0
 13 15  1  0
 14 16  1  0
 15 17  1  0
 16 18  1  0
 17 18  1  0
 18 19  1  0
 19 20  2  0
 19 21  2  0
 19 22  1  0
 22 23  2  0
 22 24  1  0
 23 25  1  0
 24 26  2  0
 25 27  2  0
 26 27  1  0
 27 28  1  0
M  END
