SAD-SAT-2ceae68f-5-vinylsulfonamide
     RDKit          3D

 29 30  0  0  0  0  0  0  0  0999 V2000
    6.5500   -5.4730   20.1620 C   0  0  0  0  0  0  0  0  0  0  0  0
    6.9740   -4.1640   20.7880 C   0  0  0  0  0  0  0  0  0  0  0  0
    5.5660   -3.1770   20.4740 S   0  0  0  0  0  0  0  0  0  0  0  0
    4.8310   -3.8480   19.4350 O   0  0  0  0  0  0  0  0  0  0  0  0
    4.9680   -2.8310   21.7470 O   0  0  0  0  0  0  0  0  0  0  0  0
    6.1790   -1.8230   19.7530 N   0  0  0  0  0  0  0  0  0  0  0  0
    6.2510   -1.7920   18.3200 C   0  0  0  0  0  0  0  0  0  0  0  0
    7.2700   -1.1440   20.3770 C   0  0  0  0  0  0  0  0  0  0  0  0
    6.9190    0.2700   19.8520 C   0  0  0  0  0  0  0  0  0  0  0  0
    6.9100    0.6270   18.6520 O   0  0  0  0  0  0  0  0  0  0  0  0
    6.5740    1.1090   21.0200 N   0  0  0  0  0  0  0  0  0  0  0  0
    7.2660    2.3490   21.2520 C   0  0  0  0  0  0  0  0  0  0  0  0
    6.1590    0.4310   22.2570 C   0  0  0  0  0  0  0  0  0  0  0  0
    8.4490    2.1170   22.1760 C   0  0  0  0  0  0  0  0  0  0  0  0
    7.2390    0.0950   23.0750 C   0  0  0  0  0  0  0  0  0  0  0  0
    8.0110    1.3440   23.3650 N   0  0  0  0  0  0  0  0  0  0  0  0
    9.1140    1.2670   24.5940 S   0  0  0  0  0  0  0  0  0  0  0  0
    9.0980    2.6360   25.0050 O   0  0  0  0  0  0  0  0  0  0  0  0
    8.7530    0.1860   25.4850 O   0  0  0  0  0  0  0  0  0  0  0  0
   10.6040    0.9400   23.8280 C   0  0  0  0  0  0  0  0  0  0  0  0
   11.0600   -0.5230   23.5940 C   0  0  0  0  0  0  0  0  0  0  0  0
   11.4950    1.9250   23.3600 C   0  0  0  0  0  0  0  0  0  0  0  0
   12.3730   -0.8620   22.9250 C   0  0  0  0  0  0  0  0  0  0  0  0
   12.6620    1.5310   22.7940 C   0  0  0  0  0  0  0  0  0  0  0  0
   11.3560    3.3330   23.3690 C   0  0  0  0  0  0  0  0  0  0  0  0
   12.8660   -2.1070   22.6490 N   0  0  0  0  0  0  0  0  0  0  0  0
   13.1050    0.2330   22.5750 C   0  0  0  0  0  0  0  0  0  0  0  0
   13.0810   -2.8570   23.6050 O   0  0  0  0  0  0  0  0  0  0  0  0
   13.3030   -2.2710   21.5010 O   0  0  0  0  0  0  0  0  0  0  0  0
  1  2  1  0
  2  3  1  0
  3  4  2  0
  3  5  2  0
  3  6  1  0
  6  7  1  0
  6  8  1  0
  8  9  1  0
  9 10  2  0
  9 11  1  0
 11 12  1  0
 11 13  1  0
 12 14  1  0
 13 15  1  0
 14 16  1  0
 15 16  1  0
 16 17  1  0
 17 18  2  0
 17 19  2  0
 17 20  1  0
 20 21  2  0
 20 22  1  0
 21 23  1  0
 22 24  2  0
 22 25  1  0
 23 26  1  0
 23 27  2  0
 24 27  1  0
 26 28  2  0
 26 29  1  0
M  CHG  2  26   1  29  -1
M  END
