SAD-SAT-c989feaa-7-vinylsulfonamide
     RDKit          3D

 23 24  0  0  0  0  0  0  0  0999 V2000
    7.5010   -2.9240   18.2630 C   0  0  0  0  0  0  0  0  0  0  0  0
    6.8780   -1.7910   19.0080 C   0  0  0  0  0  0  0  0  0  0  0  0
    5.5860   -2.3350   20.1040 S   0  0  0  0  0  0  0  0  0  0  0  0
    5.0040   -3.6580   19.7860 O   0  0  0  0  0  0  0  0  0  0  0  0
    4.7720   -1.1640   20.3210 O   0  0  0  0  0  0  0  0  0  0  0  0
    6.5530   -2.4670   21.4750 N   0  0  0  0  0  0  0  0  0  0  0  0
    6.0730   -3.1400   22.6740 C   0  0  0  0  0  0  0  0  0  0  0  0
    7.5450   -1.4080   21.6170 C   0  0  0  0  0  0  0  0  0  0  0  0
    7.2340   -3.4750   23.6250 C   0  0  0  0  0  0  0  0  0  0  0  0
    7.8480   -1.1280   23.0980 C   0  0  2  0  0  0  0  0  0  0  0  0
    8.1810   -2.3710   23.8330 N   0  0  0  0  0  0  0  0  0  0  0  0
    6.7200   -0.2830   23.7370 C   0  0  0  0  0  0  0  0  0  0  0  0
    9.5060   -2.7450   23.8200 C   0  0  0  0  0  0  0  0  0  0  0  0
    7.1130    1.0820   24.3650 C   0  0  0  0  0  0  0  0  0  0  0  0
   10.4950   -1.7110   23.6910 C   0  0  0  0  0  0  0  0  0  0  0  0
    7.7710    1.9620   23.5530 N   0  0  0  0  0  0  0  0  0  0  0  0
    6.8520    1.3830   25.5230 O   0  0  0  0  0  0  0  0  0  0  0  0
   10.7200   -0.4420   24.3900 C   0  0  0  0  0  0  0  0  0  0  0  0
   11.3690   -2.0190   22.6960 C   0  0  0  0  0  0  0  0  0  0  0  0
   11.7660    0.5180   24.1330 C   0  0  0  0  0  0  0  0  0  0  0  0
   12.4840   -1.1070   22.3470 C   0  0  0  0  0  0  0  0  0  0  0  0
   12.6300    0.1810   23.1300 C   0  0  0  0  0  0  0  0  0  0  0  0
   13.4820   -1.5990   21.0940 Cl  0  0  0  0  0  0  0  0  0  0  0  0
  1  2  1  0
  3  2  1  0
  3  4  2  0
  3  5  2  0
  3  6  1  0
  6  7  1  0
  6  8  1  0
  7  9  1  0
  8 10  1  0
  9 11  1  0
 10 11  1  0
 10 12  1  1
 11 13  1  0
 12 14  1  0
 13 15  1  0
 14 16  1  0
 14 17  2  0
 15 18  2  0
 15 19  1  0
 18 20  1  0
 19 21  2  0
 20 22  2  0
 21 22  1  0
 21 23  1  0
M  END
