SAD-SAT-89668ff1-3-chloroacetamide
     RDKit          3D

 22 23  0  0  0  0  0  0  0  0999 V2000
    7.3680   -3.6080   19.4070 C   0  0  0  0  0  0  0  0  0  0  0  0
    6.0980   -3.1930   19.9170 C   0  0  0  0  0  0  0  0  0  0  0  0
    5.0870   -3.4960   19.3020 O   0  0  0  0  0  0  0  0  0  0  0  0
    6.1940   -2.5900   21.1490 N   0  0  0  0  0  0  0  0  0  0  0  0
    7.4060   -1.7240   21.3620 C   0  0  0  0  0  0  0  0  0  0  0  0
    5.7960   -3.5730   22.1910 C   0  0  0  0  0  0  0  0  0  0  0  0
    8.0340   -1.7270   22.7570 C   0  0  0  0  0  0  0  0  0  0  0  0
    6.6690   -3.5900   23.4290 C   0  0  0  0  0  0  0  0  0  0  0  0
    6.8830   -2.1160   23.6510 C   0  0  0  0  0  0  0  0  0  0  0  0
    6.9100   -1.6250   25.0170 C   0  0  1  0  0  0  0  0  0  0  0  0
    6.1850   -2.5900   25.9790 C   0  0  0  0  0  0  0  0  0  0  0  0
    8.3040   -1.3630   25.5380 C   0  0  0  0  0  0  0  0  0  0  0  0
    9.0290   -2.2490   25.8830 O   0  0  0  0  0  0  0  0  0  0  0  0
    8.5980   -0.0280   25.5730 N   0  0  0  0  0  0  0  0  0  0  0  0
    8.1370    0.8360   26.5860 C   0  0  0  0  0  0  0  0  0  0  0  0
    7.7200    2.1500   26.3690 C   0  0  0  0  0  0  0  0  0  0  0  0
    8.0610    0.3900   27.9150 C   0  0  0  0  0  0  0  0  0  0  0  0
    7.2720    3.0080   27.3240 N   0  0  0  0  0  0  0  0  0  0  0  0
    7.6090    1.2480   28.9170 C   0  0  0  0  0  0  0  0  0  0  0  0
    8.4090   -0.9250   28.3270 C   0  0  0  0  0  0  0  0  0  0  0  0
    7.2280    2.5430   28.5800 C   0  0  0  0  0  0  0  0  0  0  0  0
    8.5620   -2.0070   28.6980 N   0  0  0  0  0  0  0  0  0  0  0  0
  1  2  1  0
  2  3  2  0
  2  4  1  0
  4  5  1  0
  4  6  1  0
  5  7  1  0
  6  8  1  0
  7  9  1  0
  8  9  1  0
  9 10  1  0
 10 11  1  1
 10 12  1  0
 12 13  2  0
 12 14  1  0
 14 15  1  0
 15 16  2  0
 15 17  1  0
 16 18  1  0
 17 19  2  0
 17 20  1  0
 18 21  2  0
 19 21  1  0
 20 22  3  0
M  END
