SAD-SAT-1b030f84-3
     RDKit          3D

 22 23  0  0  0  0  0  0  0  0999 V2000
    7.3430   -2.2770   20.3540 N   0  0  0  0  0  0  0  0  0  0  0  0
    7.0910   -3.8450   20.9490 S   0  0  0  0  0  0  0  0  0  0  0  0
    8.3850   -4.4700   21.0280 O   0  0  0  0  0  0  0  0  0  0  0  0
    5.9980   -4.4150   20.1610 O   0  0  0  0  0  0  0  0  0  0  0  0
    6.6980   -3.8050   22.6520 C   0  0  0  0  0  0  0  0  0  0  0  0
    5.4390   -3.3580   22.9670 C   0  0  0  0  0  0  0  0  0  0  0  0
    7.5940   -4.2240   23.7100 C   0  0  0  0  0  0  0  0  0  0  0  0
    5.0440   -3.3460   24.4350 C   0  0  0  0  0  0  0  0  0  0  0  0
    7.1130   -4.1780   24.9980 C   0  0  0  0  0  0  0  0  0  0  0  0
    8.8780   -4.6500   23.4930 N   0  0  0  0  0  0  0  0  0  0  0  0
    5.8190   -3.7420   25.4440 N   0  0  0  0  0  0  0  0  0  0  0  0
    9.8490   -3.7080   23.4440 C   0  0  0  0  0  0  0  0  0  0  0  0
   10.9670   -3.7650   23.9340 O   0  0  0  0  0  0  0  0  0  0  0  0
    9.3980   -2.4690   22.7190 C   0  0  0  0  0  0  0  0  0  0  0  0
    8.5170   -2.4640   21.8740 O   0  0  0  0  0  0  0  0  0  0  0  0
   10.1020   -1.2770   23.1090 C   0  0  0  0  0  0  0  0  0  0  0  0
    9.4830   -0.3340   23.9360 C   0  0  0  0  0  0  0  0  0  0  0  0
   11.3770   -1.0970   22.6680 C   0  0  0  0  0  0  0  0  0  0  0  0
   10.1720    0.8110   24.3170 C   0  0  0  0  0  0  0  0  0  0  0  0
   12.0230    0.0280   23.0590 C   0  0  0  0  0  0  0  0  0  0  0  0
   11.4630    0.9860   23.8650 C   0  0  0  0  0  0  0  0  0  0  0  0
   13.5640    0.2220   22.5220 Cl  0  0  0  0  0  0  0  0  0  0  0  0
  2  1  1  0
  2  3  2  0
  2  4  2  0
  2  5  1  0
  5  6  2  0
  5  7  1  0
  6  8  1  0
  7  9  2  0
  7 10  1  0
  8 11  2  0
  9 11  1  0
 10 12  1  0
 12 13  2  0
 12 14  1  0
 14 15  2  0
 14 16  1  0
 16 17  2  0
 16 18  1  0
 17 19  1  0
 18 20  2  0
 19 21  2  0
 20 21  1  0
 20 22  1  0
M  END
