SAD-SAT-89668ff1-9-acrylamide
     RDKit          3D

 22 23  0  0  0  0  0  0  0  0999 V2000
    8.0590   -3.4170   19.2510 C   0  0  0  0  0  0  0  0  0  0  0  0
    6.8750   -2.5250   19.0100 C   0  0  0  0  0  0  0  0  0  0  0  0
    5.8900   -2.9150   20.0470 C   0  0  0  0  0  0  0  0  0  0  0  0
    4.9710   -3.6760   19.7340 O   0  0  0  0  0  0  0  0  0  0  0  0
    6.1530   -2.4530   21.3340 N   0  0  0  0  0  0  0  0  0  0  0  0
    5.7410   -3.2360   22.4880 C   0  0  0  0  0  0  0  0  0  0  0  0
    7.3570   -1.6280   21.5300 C   0  0  0  0  0  0  0  0  0  0  0  0
    6.8100   -4.2020   22.9580 C   0  0  0  0  0  0  0  0  0  0  0  0
    8.2110   -2.0620   22.7270 C   0  0  0  0  0  0  0  0  0  0  0  0
    8.1720   -3.5730   22.9950 C   0  0  0  0  0  0  0  0  0  0  0  0
    8.9690   -4.1470   24.4590 S   0  0  0  0  0  0  0  0  0  0  0  0
   10.3870   -3.9590   24.2530 O   0  0  0  0  0  0  0  0  0  0  0  0
    8.4250   -5.4720   24.6780 O   0  0  0  0  0  0  0  0  0  0  0  0
    8.6340   -3.2490   25.9230 C   0  0  0  0  0  0  0  0  0  0  0  0
    8.5820   -1.8820   26.0050 C   0  0  0  0  0  0  0  0  0  0  0  0
    8.4270   -3.8970   27.1300 C   0  0  0  0  0  0  0  0  0  0  0  0
    8.3760   -1.2070   27.1650 N   0  0  0  0  0  0  0  0  0  0  0  0
    8.2160   -3.2410   28.3010 N   0  0  0  0  0  0  0  0  0  0  0  0
    8.4250   -5.3170   27.3040 C   0  0  0  0  0  0  0  0  0  0  0  0
    8.2140   -1.9160   28.2830 C   0  0  0  0  0  0  0  0  0  0  0  0
    8.4090   -6.4530   27.4780 N   0  0  0  0  0  0  0  0  0  0  0  0
    8.0290   -1.2380   29.4780 N   0  0  0  0  0  0  0  0  0  0  0  0
  1  2  1  0
  2  3  1  0
  3  4  2  0
  3  5  1  0
  5  6  1  0
  5  7  1  0
  6  8  1  0
  7  9  1  0
  8 10  1  0
  9 10  1  0
 10 11  1  0
 11 12  2  0
 11 13  2  0
 11 14  1  0
 14 15  2  0
 14 16  1  0
 15 17  1  0
 16 18  2  0
 16 19  1  0
 17 20  2  0
 18 20  1  0
 19 21  3  0
 20 22  1  0
M  END
