SAD-SAT-135344c3-4
     RDKit          3D

 26 28  0  0  0  0  0  0  0  0999 V2000
    8.9810    2.3110   21.1240 O   0  0  0  0  0  0  0  0  0  0  0  0
    8.5350    1.4950   21.9060 C   0  0  0  0  0  0  0  0  0  0  0  0
    7.3920    0.6540   21.6160 N   0  0  0  0  0  0  0  0  0  0  0  0
    9.0390    1.2430   23.1550 N   0  0  0  0  0  0  0  0  0  0  0  0
    6.6720    0.7870   20.4420 C   0  0  0  0  0  0  0  0  0  0  0  0
    9.8980    0.1000   23.3790 C   0  0  0  0  0  0  0  0  0  0  0  0
    5.5420    1.8050   20.4770 C   0  0  0  0  0  0  0  0  0  0  0  0
    6.9680    0.0310   19.3030 C   0  0  0  0  0  0  0  0  0  0  0  0
    9.9460   -0.7020   22.2290 C   0  0  0  0  0  0  0  0  0  0  0  0
    9.3710   -0.6160   24.6030 C   0  0  0  0  0  0  0  0  0  0  0  0
    4.7470    1.9560   19.1800 C   0  0  0  0  0  0  0  0  0  0  0  0
    6.2160    0.1730   18.0600 N   0  0  0  0  0  0  0  0  0  0  0  0
    8.8400   -1.5460   21.9620 C   0  0  0  0  0  0  0  0  0  0  0  0
    8.0320   -0.8680   24.2800 C   0  0  0  0  0  0  0  0  0  0  0  0
    5.1640    1.0780   17.9890 C   0  0  0  0  0  0  0  0  0  0  0  0
    7.9270   -1.7360   23.0370 N   0  0  0  0  0  0  0  0  0  0  0  0
    7.5870   -3.3570   23.4660 S   0  0  0  0  0  0  0  0  0  0  0  0
    7.5400   -4.2170   22.3150 O   0  0  0  0  0  0  0  0  0  0  0  0
    6.5610   -3.3210   24.4820 O   0  0  0  0  0  0  0  0  0  0  0  0
    9.1170   -3.3980   24.1130 C   0  0  0  0  0  0  0  0  0  0  0  0
    9.4970   -4.0610   25.3010 C   0  0  0  0  0  0  0  0  0  0  0  0
   10.0450   -2.6710   23.3740 C   0  0  0  0  0  0  0  0  0  0  0  0
   10.8170   -3.9710   25.7610 C   0  0  0  0  0  0  0  0  0  0  0  0
   11.3130   -2.5780   23.8160 C   0  0  0  0  0  0  0  0  0  0  0  0
   11.7760   -3.2260   25.0690 C   0  0  0  0  0  0  0  0  0  0  0  0
   13.7060   -2.9160   25.5810 I   0  0  0  0  0  0  0  0  0  0  0  0
  1  2  2  0
  2  3  1  0
  2  4  1  0
  3  5  1  0
  4  6  1  0
  5  7  2  0
  5  8  1  0
  6  9  1  0
  6 10  1  0
  7 11  1  0
  8 12  2  0
  9 13  1  0
 10 14  1  0
 11 15  2  0
 12 15  1  0
 13 16  1  0
 14 16  1  0
 16 17  1  0
 17 18  2  0
 17 19  2  0
 17 20  1  0
 20 21  2  0
 20 22  1  0
 21 23  1  0
 22 24  2  0
 23 25  2  0
 24 25  1  0
 25 26  1  0
M  END
