SAD-SAT-89668ff1-1-bromoalkyne
     RDKit          3D

 24 26  0  0  0  0  0  0  0  0999 V2000
    6.8860   -3.8810   20.0410 C   0  0  0  0  0  0  0  0  0  0  0  0
    5.6380   -3.4040   19.3350 C   0  0  0  0  0  0  0  0  0  0  0  0
    6.9620   -4.1230   21.4240 N   0  0  0  0  0  0  0  0  0  0  0  0
    8.0460   -3.4890   22.1930 C   0  0  0  0  0  0  0  0  0  0  0  0
    5.8970   -3.8370   22.3130 C   0  0  0  0  0  0  0  0  0  0  0  0
    7.4990   -2.1630   22.3890 N   0  0  0  0  0  0  0  0  0  0  0  0
    6.1900   -2.5860   22.9350 C   0  0  0  0  0  0  0  0  0  0  0  0
    4.7270   -4.5640   22.6050 C   0  0  0  0  0  0  0  0  0  0  0  0
    7.7260   -1.1530   21.4720 C   0  0  0  0  0  0  0  0  0  0  0  0
    5.3150   -1.9600   23.8980 C   0  0  0  0  0  0  0  0  0  0  0  0
    3.7810   -3.9500   23.6110 C   0  0  0  0  0  0  0  0  0  0  0  0
    7.1140   -0.9770   20.4240 O   0  0  0  0  0  0  0  0  0  0  0  0
    8.8650   -0.1490   21.8110 C   0  0  0  0  0  0  0  0  0  0  0  0
    4.1020   -2.6210   24.2540 C   0  0  0  0  0  0  0  0  0  0  0  0
    8.7390    1.0130   21.4270 O   0  0  0  0  0  0  0  0  0  0  0  0
   10.0210   -0.6690   22.5840 N   0  0  0  0  0  0  0  0  0  0  0  0
   10.5370    0.0440   23.6740 C   0  0  0  0  0  0  0  0  0  0  0  0
   10.8150   -1.6580   22.1030 C   0  0  0  0  0  0  0  0  0  0  0  0
   11.2820   -0.7630   24.7700 C   0  0  0  0  0  0  0  0  0  0  0  0
   11.9880   -1.7860   22.8580 C   0  0  0  0  0  0  0  0  0  0  0  0
   11.6020   -2.0390   24.3140 C   0  0  0  0  0  0  0  0  0  0  0  0
   10.5300   -2.9410   24.2700 C   0  0  0  0  0  0  0  0  0  0  0  0
   10.5190   -3.8250   25.3530 C   0  0  0  0  0  0  0  0  0  0  0  0
   10.4980   -4.5690   26.2400 N   0  0  0  0  0  0  0  0  0  0  0  0
  1  2  2  3
  1  3  1  0
  3  4  1  0
  3  5  1  0
  4  6  1  0
  5  7  2  0
  6  7  1  0
  5  8  1  0
  6  9  1  0
  7 10  1  0
  8 11  2  0
  9 12  2  0
  9 13  1  0
 10 14  2  0
 11 14  1  0
 13 15  2  0
 13 16  1  0
 16 17  1  0
 16 18  1  0
 17 19  1  0
 18 20  1  0
 19 21  1  0
 20 21  1  0
 21 22  1  0
 22 23  1  0
 23 24  3  0
M  END
