SAD-SAT-29425be4-4-acrylamide
     RDKit          3D

 28 30  0  0  0  0  0  0  0  0999 V2000
    7.3300   -2.7950   18.3680 C   0  0  0  0  0  0  0  0  0  0  0  0
    6.1780   -2.2990   19.2210 C   0  0  0  0  0  0  0  0  0  0  0  0
    5.7700   -3.2570   20.2940 C   0  0  0  0  0  0  0  0  0  0  0  0
    5.2300   -4.3410   20.0290 O   0  0  0  0  0  0  0  0  0  0  0  0
    6.0720   -2.8080   21.5670 N   0  0  0  0  0  0  0  0  0  0  0  0
    5.8470   -3.6040   22.7710 C   0  0  0  0  0  0  0  0  0  0  0  0
    6.8090   -1.5590   21.7780 C   0  0  0  0  0  0  0  0  0  0  0  0
    7.1390   -3.8120   23.5650 C   0  0  0  0  0  0  0  0  0  0  0  0
    8.1800   -1.8060   22.4010 C   0  0  0  0  0  0  0  0  0  0  0  0
    7.9520   -2.5160   23.7460 C   0  0  0  0  0  0  0  0  0  0  0  0
    9.2860   -2.8410   24.4360 C   0  0  0  0  0  0  0  0  0  0  0  0
    9.2660   -3.4270   25.5200 O   0  0  0  0  0  0  0  0  0  0  0  0
   10.4800   -2.4560   23.8150 N   0  0  0  0  0  0  0  0  0  0  0  0
   10.7550   -1.0640   23.5350 C   0  0  0  0  0  0  0  0  0  0  0  0
   12.1980   -0.7050   23.6360 C   0  0  0  0  0  0  0  0  0  0  0  0
   12.4520    0.6120   23.8380 C   0  0  0  0  0  0  0  0  0  0  0  0
   12.8870   -1.5020   24.7550 C   0  0  0  0  0  0  0  0  0  0  0  0
   12.8530   -1.0450   22.3240 C   0  0  0  0  0  0  0  0  0  0  0  0
   12.9360   -2.2820   21.4870 C   0  0  0  0  0  0  0  0  0  0  0  0
   13.5780   -0.0790   21.6130 N   0  0  0  0  0  0  0  0  0  0  0  0
   13.5800   -2.0820   20.4640 O   0  0  0  0  0  0  0  0  0  0  0  0
   13.9880   -0.7140   20.4640 C   0  0  0  0  0  0  0  0  0  0  0  0
   14.7770   -0.1310   19.3540 C   0  0  0  0  0  0  0  0  0  0  0  0
   15.4350   -0.8560   18.2300 C   0  0  0  0  0  0  0  0  0  0  0  0
   14.9970    1.2710   19.2570 C   0  0  0  0  0  0  0  0  0  0  0  0
   16.0870   -0.0860   17.1330 C   0  0  0  0  0  0  0  0  0  0  0  0
   15.6230    1.9700   18.2600 C   0  0  0  0  0  0  0  0  0  0  0  0
   16.1640    1.3670   17.1770 C   0  0  0  0  0  0  0  0  0  0  0  0
  1  2  1  0
  2  3  1  0
  3  4  2  0
  3  5  1  0
  5  6  1  0
  5  7  1  0
  6  8  1  0
  7  9  1  0
  8 10  1  0
  9 10  1  0
 10 11  1  0
 11 12  2  0
 11 13  1  0
 13 14  1  0
 15 14  1  0
 15 16  1  0
 15 17  1  0
 15 18  1  0
 18 19  2  0
 18 20  1  0
 19 21  1  0
 20 22  2  0
 21 22  1  0
 22 23  1  0
 23 24  2  0
 23 25  1  0
 24 26  1  0
 25 27  2  0
 26 28  2  0
 27 28  1  0
M  END
