SAD-SAT-f0a2747f-4-vinylsulfonamide
     RDKit          3D

 25 27  0  0  0  0  0  0  0  0999 V2000
    8.0120   -4.4510   20.8220 C   0  0  0  0  0  0  0  0  0  0  0  0
    6.5100   -4.8790   20.8710 C   0  0  0  0  0  0  0  0  0  0  0  0
    5.4280   -3.4900   20.9180 S   0  0  0  0  0  0  0  0  0  0  0  0
    4.8350   -3.5220   19.5990 O   0  0  0  0  0  0  0  0  0  0  0  0
    4.5130   -3.7000   22.0040 O   0  0  0  0  0  0  0  0  0  0  0  0
    6.4310   -2.1340   21.2070 N   0  0  0  0  0  0  0  0  0  0  0  0
    7.5690   -2.5230   21.9690 C   0  0  0  0  0  0  0  0  0  0  0  0
    8.8100   -1.8830   21.9130 C   0  0  0  0  0  0  0  0  0  0  0  0
    7.4810   -3.6200   22.8280 C   0  0  0  0  0  0  0  0  0  0  0  0
    9.9020   -2.3190   22.6610 C   0  0  0  0  0  0  0  0  0  0  0  0
    8.5760   -4.0720   23.5810 C   0  0  0  0  0  0  0  0  0  0  0  0
    9.8200   -3.4220   23.5120 C   0  0  0  0  0  0  0  0  0  0  0  0
    8.4020   -5.2490   24.4360 C   0  0  0  0  0  0  0  0  0  0  0  0
    7.9860   -6.3170   24.5830 N   0  0  0  0  0  0  0  0  0  0  0  0
    6.8480   -6.5320   23.6760 C   0  0  0  0  0  0  0  0  0  0  0  0
    8.9690   -7.2590   24.0910 C   0  0  0  0  0  0  0  0  0  0  0  0
    6.5560   -8.0430   23.4380 C   0  0  0  0  0  0  0  0  0  0  0  0
    8.6720   -7.8680   22.8740 C   0  0  0  0  0  0  0  0  0  0  0  0
    7.5690   -8.8810   22.8970 N   0  0  0  0  0  0  0  0  0  0  0  0
    7.8530  -10.5160   23.0640 C   0  0  0  0  0  0  0  0  0  0  0  0
    7.7590  -11.7890   22.1110 C   0  0  0  0  0  0  0  0  0  0  0  0
    8.3170  -11.1230   24.1840 N   0  0  0  0  0  0  0  0  0  0  0  0
    8.1590  -12.9870   22.3900 C   0  0  0  0  0  0  0  0  0  0  0  0
    8.5960  -12.4580   24.3820 C   0  0  0  0  0  0  0  0  0  0  0  0
    8.5480  -13.3530   23.3830 C   0  0  0  0  0  0  0  0  0  0  0  0
  1  2  1  0
  2  3  1  0
  3  4  2  0
  3  5  2  0
  3  6  1  0
  6  7  1  0
  7  8  2  0
  7  9  1  0
  8 10  1  0
  9 11  2  0
 10 12  2  0
 11 12  1  0
 11 13  1  0
 13 14  1  0
 14 15  1  0
 14 16  1  0
 15 17  1  0
 16 18  1  0
 17 19  1  0
 18 19  1  0
 19 20  1  0
 20 21  2  0
 20 22  1  0
 21 23  1  0
 22 24  2  0
 23 25  2  0
 24 25  1  0
M  END
