SAD-SAT-f2e2579e-7-vinylsulfonamide
     RDKit          3D

 33 36  0  0  0  0  0  0  0  0999 V2000
    7.9780   -3.4560   19.9040 C   0  0  0  0  0  0  0  0  0  0  0  0
    6.8250   -2.9370   19.5030 C   0  0  0  0  0  0  0  0  0  0  0  0
    5.7340   -3.8690   20.5040 S   0  0  0  0  0  0  0  0  0  0  0  0
    4.7990   -3.0130   21.1480 O   0  0  0  0  0  0  0  0  0  0  0  0
    5.3110   -5.0370   19.7920 O   0  0  0  0  0  0  0  0  0  0  0  0
    6.8270   -4.3390   21.7170 N   0  0  0  0  0  0  0  0  0  0  0  0
    6.2770   -5.3860   22.6050 C   0  0  0  0  0  0  0  0  0  0  0  0
    7.5880   -3.2310   22.3280 C   0  0  0  0  0  0  0  0  0  0  0  0
    5.4200   -4.7450   23.6990 C   0  0  0  0  0  0  0  0  0  0  0  0
    7.3560   -3.1300   23.6870 C   0  0  0  0  0  0  0  0  0  0  0  0
    5.8510   -3.2880   23.9260 C   0  0  0  0  0  0  0  0  0  0  0  0
    5.4560   -2.8080   25.3120 C   0  0  0  0  0  0  0  0  0  0  0  0
    4.6130   -3.4360   25.9540 O   0  0  0  0  0  0  0  0  0  0  0  0
    6.0740   -1.5780   25.8410 N   0  0  0  0  0  0  0  0  0  0  0  0
    5.3760   -0.8290   26.7760 C   0  0  0  0  0  0  0  0  0  0  0  0
    7.1570   -0.8700   25.1950 C   0  0  0  0  0  0  0  0  0  0  0  0
    5.3630    0.5550   26.6530 C   0  0  0  0  0  0  0  0  0  0  0  0
    7.6960    0.3780   25.9400 C   0  0  0  0  0  0  0  0  0  0  0  0
    6.7420    0.9620   26.9430 N   0  0  0  0  0  0  0  0  0  0  0  0
    7.1700    0.7250   28.5780 S   0  0  0  0  0  0  0  0  0  0  0  0
    6.1330    1.2950   29.4050 O   0  0  0  0  0  0  0  0  0  0  0  0
    8.5610    1.0970   28.6960 O   0  0  0  0  0  0  0  0  0  0  0  0
    7.0670   -1.0250   28.6790 C   0  0  0  0  0  0  0  0  0  0  0  0
    5.9300   -1.6740   29.1400 C   0  0  0  0  0  0  0  0  0  0  0  0
    8.1410   -1.8300   28.2850 C   0  0  0  0  0  0  0  0  0  0  0  0
    5.8190   -3.0690   29.2180 C   0  0  0  0  0  0  0  0  0  0  0  0
    8.0660   -3.3620   28.3560 C   0  0  0  0  0  0  0  0  0  0  0  0
    6.8640   -3.9170   28.8340 C   0  0  0  0  0  0  0  0  0  0  0  0
    9.0760   -4.2260   28.0030 O   0  0  0  0  0  0  0  0  0  0  0  0
    8.8590   -4.9120   26.7800 C   0  0  0  0  0  0  0  0  0  0  0  0
    6.5590   -5.2430   28.9990 O   0  0  0  0  0  0  0  0  0  0  0  0
    7.3880   -5.3090   26.6900 C   0  0  0  0  0  0  0  0  0  0  0  0
    6.9480   -6.0930   27.9290 C   0  0  0  0  0  0  0  0  0  0  0  0
  1  2  1  0
  3  2  1  0
  3  4  2  0
  3  5  2  0
  3  6  1  0
  6  7  1  0
  6  8  1  0
  7  9  1  0
  8 10  1  0
  9 11  1  0
 10 11  1  0
 11 12  1  0
 12 13  2  0
 12 14  1  0
 14 15  1  0
 14 16  1  0
 15 17  1  0
 16 18  1  0
 17 19  1  0
 18 19  1  0
 19 20  1  0
 20 21  2  0
 20 22  2  0
 20 23  1  0
 23 24  2  0
 23 25  1  0
 24 26  1  0
 25 27  2  0
 26 28  2  0
 27 28  1  0
 27 29  1  0
 29 30  1  0
 28 31  1  0
 30 32  1  0
 31 33  1  0
 32 33  1  0
M  END
