SAD-SAT-5b1897b2-7-nitrile
     RDKit          3D

 15 16  0  0  0  0  0  0  0  0999 V2000
    6.9790   -5.4460   20.1010 C   0  0  0  0  0  0  0  0  0  0  0  0
    5.9170   -6.1230   20.0110 N   0  0  0  0  0  0  0  0  0  0  0  0
    7.2750   -4.8610   21.3000 N   0  0  0  0  0  0  0  0  0  0  0  0
    7.1140   -5.5540   22.5760 C   0  0  0  0  0  0  0  0  0  0  0  0
    7.6500   -3.4760   21.5980 C   0  0  0  0  0  0  0  0  0  0  0  0
    7.4380   -4.5440   23.6490 C   0  0  0  0  0  0  0  0  0  0  0  0
    7.7730   -3.2020   22.9980 C   0  0  0  0  0  0  0  0  0  0  0  0
    7.8770   -2.5040   20.7530 C   0  0  0  0  0  0  0  0  0  0  0  0
    8.0930   -2.1360   24.1270 C   0  0  0  0  0  0  0  0  0  0  0  0
    8.1960   -1.3780   21.3190 C   0  0  0  0  0  0  0  0  0  0  0  0
    8.2770   -1.2640   22.8360 C   0  0  0  0  0  0  0  0  0  0  0  0
    8.7280    0.4080   23.2420 S   0  0  0  0  0  0  0  0  0  0  0  0
    7.4650    1.2550   22.5030 N   0  0  0  0  0  0  0  0  0  0  0  0
    8.6110    0.6040   24.6710 O   0  0  0  0  0  0  0  0  0  0  0  0
    9.9510    0.7360   22.5350 O   0  0  0  0  0  0  0  0  0  0  0  0
  1  2  2  3
  1  3  1  0
  3  4  1  0
  3  5  1  0
  4  6  1  0
  5  7  2  0
  6  7  1  0
  5  8  1  0
  7  9  1  0
  8 10  2  0
  9 11  2  0
 10 11  1  0
 11 12  1  0
 12 13  1  0
 12 14  2  0
 12 15  2  0
M  END
