SAD-SAT-2ceae68f-4-acrylamide
     RDKit          3D

 29 31  0  0  0  0  0  0  0  0999 V2000
    7.5800   -4.7460   20.8540 C   0  0  0  0  0  0  0  0  0  0  0  0
    6.2620   -5.5160   20.7780 C   0  0  0  0  0  0  0  0  0  0  0  0
    5.1650   -4.7870   21.4820 C   0  0  0  0  0  0  0  0  0  0  0  0
    4.3450   -5.3750   22.1790 O   0  0  0  0  0  0  0  0  0  0  0  0
    5.0550   -3.4440   21.3110 N   0  0  0  0  0  0  0  0  0  0  0  0
    4.9350   -2.6150   22.4920 C   0  0  0  0  0  0  0  0  0  0  0  0
    5.2950   -2.7310   20.0490 C   0  0  0  0  0  0  0  0  0  0  0  0
    6.4320   -2.3680   22.7010 C   0  0  0  0  0  0  0  0  0  0  0  0
    6.1560   -1.4860   20.2320 C   0  0  0  0  0  0  0  0  0  0  0  0
    6.5620   -1.2240   21.7010 C   0  0  0  0  0  0  0  0  0  0  0  0
    8.0740   -1.0980   21.7350 C   0  0  0  0  0  0  0  0  0  0  0  0
    8.9010   -2.2300   22.0890 O   0  0  0  0  0  0  0  0  0  0  0  0
    8.4320    0.2780   21.3790 N   0  0  0  0  0  0  0  0  0  0  0  0
    9.5440    0.7750   22.1310 C   0  0  0  0  0  0  0  0  0  0  0  0
    7.3420    1.2900   21.2640 C   0  0  0  0  0  0  0  0  0  0  0  0
    9.4170    2.2910   22.0570 C   0  0  0  0  0  0  0  0  0  0  0  0
    7.2050    2.0780   22.4340 C   0  0  0  0  0  0  0  0  0  0  0  0
    8.4320    2.8330   22.7060 N   0  0  0  0  0  0  0  0  0  0  0  0
    8.8360    2.9350   24.2950 S   0  0  0  0  0  0  0  0  0  0  0  0
    9.3080    4.2820   24.5210 O   0  0  0  0  0  0  0  0  0  0  0  0
    7.8070    2.3100   25.0980 O   0  0  0  0  0  0  0  0  0  0  0  0
   10.2240    1.8490   24.0220 C   0  0  0  0  0  0  0  0  0  0  0  0
   10.0490    0.4780   24.3330 C   0  0  0  0  0  0  0  0  0  0  0  0
   11.4390    2.2760   23.4980 C   0  0  0  0  0  0  0  0  0  0  0  0
   11.0510   -0.4590   24.1130 C   0  0  0  0  0  0  0  0  0  0  0  0
   12.4020    1.3420   23.2940 C   0  0  0  0  0  0  0  0  0  0  0  0
   11.8330    3.7460   23.0880 C   0  0  0  0  0  0  0  0  0  0  0  0
   12.2390   -0.0220   23.5790 C   0  0  0  0  0  0  0  0  0  0  0  0
   13.2500    3.9160   22.7610 N   0  0  0  0  0  0  0  0  0  0  0  0
  1  2  1  0
  2  3  1  0
  3  4  2  0
  3  5  1  0
  5  6  1  0
  5  7  1  0
  6  8  1  0
  7  9  1  0
  8 10  1  0
  9 10  1  0
 10 11  1  0
 11 12  2  0
 11 13  1  0
 13 14  1  0
 13 15  1  0
 14 16  1  0
 15 17  1  0
 16 18  1  0
 17 18  1  0
 18 19  1  0
 19 20  2  0
 19 21  2  0
 19 22  1  0
 22 23  2  0
 22 24  1  0
 23 25  1  0
 24 26  2  0
 24 27  1  0
 25 28  2  0
 26 28  1  0
 27 29  3  0
M  END
