SAD-SAT-c989feaa-3-bromoalkyne
     RDKit          3D

 20 21  0  0  0  0  0  0  0  0999 V2000
    6.8410   -3.3930   19.6570 C   0  0  0  0  0  0  0  0  0  0  0  0
    5.8780   -2.8400   18.6810 C   0  0  0  0  0  0  0  0  0  0  0  0
    6.7860   -2.9280   20.9540 N   0  0  0  0  0  0  0  0  0  0  0  0
    6.4410   -3.7050   22.1340 C   0  0  0  0  0  0  0  0  0  0  0  0
    7.0260   -1.5110   21.2150 C   0  0  0  0  0  0  0  0  0  0  0  0
    7.5090   -3.5720   23.2250 C   0  0  0  0  0  0  0  0  0  0  0  0
    8.2050   -1.3200   22.1860 C   0  0  2  0  0  0  0  0  0  0  0  0
    8.1980   -2.2690   23.3400 N   0  0  0  0  0  0  0  0  0  0  0  0
    8.2310    0.0980   22.7050 N   0  0  0  0  0  0  0  0  0  0  0  0
    9.2770   -2.2520   24.1980 C   0  0  0  0  0  0  0  0  0  0  0  0
    8.7490    1.1650   21.9740 C   0  0  0  0  0  0  0  0  0  0  0  0
   10.4080   -1.4350   23.8690 C   0  0  0  0  0  0  0  0  0  0  0  0
    9.9220    1.9110   22.6670 C   0  0  0  0  0  0  0  0  0  0  0  0
    8.3310    1.5290   20.8760 O   0  0  0  0  0  0  0  0  0  0  0  0
   10.7970   -0.1620   24.4700 C   0  0  0  0  0  0  0  0  0  0  0  0
   11.1940   -1.9380   22.8540 C   0  0  0  0  0  0  0  0  0  0  0  0
   11.9320    0.6480   24.1100 C   0  0  0  0  0  0  0  0  0  0  0  0
   12.3970   -1.1790   22.4070 C   0  0  0  0  0  0  0  0  0  0  0  0
   12.6930    0.1240   23.1050 C   0  0  0  0  0  0  0  0  0  0  0  0
   13.3510   -1.7940   21.1580 Cl  0  0  0  0  0  0  0  0  0  0  0  0
  1  2  2  3
  1  3  1  0
  3  4  1  0
  3  5  1  0
  4  6  1  0
  5  7  1  0
  6  8  1  0
  7  8  1  0
  7  9  1  1
  8 10  1  0
  9 11  1  0
 10 12  1  0
 11 13  1  0
 11 14  2  0
 12 15  2  0
 12 16  1  0
 15 17  1  0
 16 18  2  0
 17 19  2  0
 18 19  1  0
 18 20  1  0
M  END
