SAD-SAT-5b1897b2-2-nitrile
     RDKit          3D

 15 16  0  0  0  0  0  0  0  0999 V2000
    6.6220   -3.6190   19.6910 C   0  0  0  0  0  0  0  0  0  0  0  0
    6.3000   -3.1090   18.5630 N   0  0  0  0  0  0  0  0  0  0  0  0
    6.7780   -2.8510   20.8220 N   0  0  0  0  0  0  0  0  0  0  0  0
    7.3560   -1.5310   20.7530 C   0  0  0  0  0  0  0  0  0  0  0  0
    6.1540   -3.1710   22.1010 C   0  0  0  0  0  0  0  0  0  0  0  0
    8.3480   -1.3740   21.8820 C   0  0  0  0  0  0  0  0  0  0  0  0
    7.0520   -3.0820   23.1960 C   0  0  0  0  0  0  0  0  0  0  0  0
    8.3060   -2.5580   22.7930 N   0  0  0  0  0  0  0  0  0  0  0  0
    9.2500   -2.4830   23.8220 C   0  0  0  0  0  0  0  0  0  0  0  0
   10.2210   -1.3590   23.6150 C   0  0  0  0  0  0  0  0  0  0  0  0
   11.2970   -2.1280   24.1840 C   0  0  0  0  0  0  0  0  0  0  0  0
   10.3860   -0.0970   23.1500 N   0  0  0  0  0  0  0  0  0  0  0  0
   12.7330   -1.1460   24.1430 S   0  0  0  0  0  0  0  0  0  0  0  0
   11.7280    0.1180   23.3650 C   0  0  0  0  0  0  0  0  0  0  0  0
   12.5170    1.3660   22.9870 C   0  0  0  0  0  0  0  0  0  0  0  0
  1  2  2  3
  1  3  1  0
  3  4  1  0
  3  5  1  0
  4  6  1  0
  5  7  1  0
  6  8  1  0
  7  8  1  0
  8  9  1  0
  9 10  1  0
 10 11  2  0
 10 12  1  0
 11 13  1  0
 12 14  2  0
 13 14  1  0
 14 15  1  0
M  END
