SAD-SAT-1f400d17-1-chloroacetamide
     RDKit          3D

 16 17  0  0  0  0  0  0  0  0999 V2000
    7.0530   -3.0010   18.9690 C   0  0  0  0  0  0  0  0  0  0  0  0
    6.2820   -3.4290   19.9700 C   0  0  0  0  0  0  0  0  0  0  0  0
    5.3660   -4.2320   19.7770 O   0  0  0  0  0  0  0  0  0  0  0  0
    6.5580   -2.9590   21.2810 N   0  0  0  0  0  0  0  0  0  0  0  0
    6.9730   -3.8740   22.3550 C   0  0  0  0  0  0  0  0  0  0  0  0
    7.0130   -1.5860   21.5220 C   0  0  0  0  0  0  0  0  0  0  0  0
    7.6030   -3.1400   23.5470 C   0  0  0  0  0  0  0  0  0  0  0  0
    8.3740   -1.5670   21.8210 C   0  0  0  0  0  0  0  0  0  0  0  0
    8.5590   -2.0960   23.1730 N   0  0  0  0  0  0  0  0  0  0  0  0
    9.9050   -2.2830   23.4530 C   0  0  0  0  0  0  0  0  0  0  0  0
   10.7130   -1.0040   23.5060 C   0  0  0  0  0  0  0  0  0  0  0  0
   12.0730   -0.9940   22.8880 C   0  0  0  0  0  0  0  0  0  0  0  0
   10.2170    0.1540   24.0990 C   0  0  0  0  0  0  0  0  0  0  0  0
   12.8000    0.1850   22.9200 C   0  0  0  0  0  0  0  0  0  0  0  0
   11.0030    1.3100   24.0920 C   0  0  0  0  0  0  0  0  0  0  0  0
   12.2810    1.3340   23.5080 C   0  0  0  0  0  0  0  0  0  0  0  0
  1  2  1  0
  2  3  2  0
  2  4  1  0
  4  5  1  0
  4  6  1  0
  5  7  1  0
  6  8  1  0
  7  9  1  0
  8  9  1  0
  9 10  1  0
 10 11  1  0
 11 12  2  0
 11 13  1  0
 12 14  1  0
 13 15  2  0
 14 16  2  0
 15 16  1  0
M  END
