SAD-SAT-2ceae68f-3-chloroacetamide
     RDKit          3D

 30 32  0  0  0  0  0  0  0  0999 V2000
    6.5540   -4.0910   20.9520 C   0  0  0  0  0  0  0  0  0  0  0  0
    6.1440   -2.8570   20.1060 C   0  0  0  0  0  0  0  0  0  0  0  0
    5.4430   -3.7460   19.6010 O   0  0  0  0  0  0  0  0  0  0  0  0
    7.0470   -2.1440   20.9090 N   0  0  0  0  0  0  0  0  0  0  0  0
    6.9060   -0.7080   21.2670 C   0  0  0  0  0  0  0  0  0  0  0  0
    8.2970   -0.2610   21.8640 C   0  0  0  0  0  0  0  0  0  0  0  0
    9.2640   -1.4690   21.7840 C   0  0  0  0  0  0  0  0  0  0  0  0
    8.6200    0.9980   22.3780 C   0  0  0  0  0  0  0  0  0  0  0  0
   10.7000   -1.2250   22.3350 C   0  0  0  0  0  0  0  0  0  0  0  0
    9.8970    1.2420   22.8740 C   0  0  0  0  0  0  0  0  0  0  0  0
   10.8620    0.2240   22.8610 C   0  0  0  0  0  0  0  0  0  0  0  0
   12.3370    0.4020   23.3830 C   0  0  0  0  0  0  0  0  0  0  0  0
   12.3130    1.6750   22.7160 O   0  0  0  0  0  0  0  0  0  0  0  0
   11.9360   -0.9410   23.9190 N   0  0  0  0  0  0  0  0  0  0  0  0
   12.9820   -1.9280   24.2010 C   0  0  0  0  0  0  0  0  0  0  0  0
   10.7040   -1.5700   23.5780 C   0  0  0  0  0  0  0  0  0  0  0  0
   13.3570   -2.8400   23.0050 C   0  0  0  0  0  0  0  0  0  0  0  0
   10.9640   -2.4360   22.3380 C   0  0  0  0  0  0  0  0  0  0  0  0
   12.2770   -3.3040   22.2390 N   0  0  0  0  0  0  0  0  0  0  0  0
   12.1590   -4.5790   20.8830 S   0  0  0  0  0  0  0  0  0  0  0  0
   10.8990   -4.3060   20.3100 O   0  0  0  0  0  0  0  0  0  0  0  0
   12.6150   -5.9330   20.8670 O   0  0  0  0  0  0  0  0  0  0  0  0
   13.2100   -4.7130   19.6200 C   0  0  0  0  0  0  0  0  0  0  0  0
   14.5320   -4.7130   19.5560 C   0  0  0  0  0  0  0  0  0  0  0  0
   12.4590   -4.9460   18.5390 C   0  0  0  0  0  0  0  0  0  0  0  0
   15.1420   -4.9930   18.3280 C   0  0  0  0  0  0  0  0  0  0  0  0
   13.1900   -5.2120   16.9130 C   0  0  0  0  0  0  0  0  0  0  0  0
   10.9190   -5.0440   18.9490 C   0  0  0  0  0  0  0  0  0  0  0  0
   16.2890   -4.9920   18.4680 C   0  0  0  0  0  0  0  0  0  0  0  0
   14.6290   -5.2760   16.9740 C   0  0  0  0  0  0  0  0  0  0  0  0
  1  2  1  0
  2  3  2  0
  2  4  1  0
  4  5  1  0
  5  6  1  0
  6  7  2  0
  6  8  1  0
  7  9  1  0
  8 10  2  0
  9 11  2  0
 10 11  1  0
 11 12  1  0
 12 13  2  0
 12 14  1  0
 14 15  1  0
 14 16  1  0
 15 17  1  0
 16 18  1  0
 17 19  1  0
 18 19  1  0
 19 20  1  0
 20 21  2  0
 20 22  2  0
 20 23  1  0
 23 24  2  0
 23 25  1  0
 24 26  1  0
 25 27  2  0
 25 28  1  0
 26 29  1  0
 26 30  2  0
 27 30  1  0
M  END
