SAD-SAT-5b1897b2-10-nitrile
     RDKit          3D

 15 16  0  0  0  0  0  0  0  0999 V2000
    6.7740   -3.5880   19.8780 C   0  0  0  0  0  0  0  0  0  0  0  0
    5.7090   -3.4120   19.2080 N   0  0  0  0  0  0  0  0  0  0  0  0
    6.9930   -2.8480   21.0490 N   0  0  0  0  0  0  0  0  0  0  0  0
    7.7590   -1.6260   21.0130 C   0  0  0  0  0  0  0  0  0  0  0  0
    7.2260   -3.4810   22.2960 C   0  0  0  0  0  0  0  0  0  0  0  0
    9.1950   -1.9500   21.4030 C   0  0  0  0  0  0  0  0  0  0  0  0
    8.0170   -2.6920   23.2080 C   0  0  0  0  0  0  0  0  0  0  0  0
    9.3230   -2.4990   22.7250 N   0  0  0  0  0  0  0  0  0  0  0  0
   10.1680   -1.4970   23.2220 C   0  0  0  0  0  0  0  0  0  0  0  0
   11.5440   -1.3790   22.4330 C   0  0  0  0  0  0  0  0  0  0  0  0
    9.7320   -0.7380   24.2500 C   0  0  0  0  0  0  0  0  0  0  0  0
   12.1240   -0.1570   23.1700 C   0  0  0  0  0  0  0  0  0  0  0  0
   10.4180    0.2780   24.7340 C   0  0  0  0  0  0  0  0  0  0  0  0
    8.5670   -0.9580   24.8330 F   0  0  0  0  0  0  0  0  0  0  0  0
   11.5960    0.5740   24.1940 C   0  0  0  0  0  0  0  0  0  0  0  0
  1  2  2  3
  1  3  1  0
  3  4  1  0
  3  5  1  0
  4  6  1  0
  5  7  1  0
  6  8  1  0
  7  8  1  0
  8  9  1  0
  9 10  2  0
  9 11  1  0
 10 12  1  0
 11 13  2  0
 11 14  1  0
 12 15  2  0
 13 15  1  0
M  END
