SAD-SAT-3a925b8b-2-acrylamide
     RDKit          3D

 18 19  0  0  0  0  0  0  0  0999 V2000
    7.2580   -2.9910   18.8370 C   0  0  0  0  0  0  0  0  0  0  0  0
    6.6210   -2.9310   20.2090 C   0  0  0  0  0  0  0  0  0  0  0  0
    6.0910   -4.2830   20.6050 C   0  0  0  0  0  0  0  0  0  0  0  0
    5.1630   -4.7830   19.9760 O   0  0  0  0  0  0  0  0  0  0  0  0
    6.7070   -4.9290   21.6700 N   0  0  0  0  0  0  0  0  0  0  0  0
    6.1180   -6.1970   22.1070 C   0  0  0  0  0  0  0  0  0  0  0  0
    7.4330   -4.2120   22.7210 C   0  0  0  0  0  0  0  0  0  0  0  0
    5.2700   -6.0120   23.3660 C   0  0  0  0  0  0  0  0  0  0  0  0
    6.5440   -3.9540   23.9290 C   0  0  0  0  0  0  0  0  0  0  0  0
    5.9580   -5.2120   24.3870 N   0  0  0  0  0  0  0  0  0  0  0  0
    5.2250   -5.1780   25.9100 S   0  0  0  0  0  0  0  0  0  0  0  0
    4.5860   -6.4560   26.1240 O   0  0  0  0  0  0  0  0  0  0  0  0
    6.1500   -4.6230   26.8680 O   0  0  0  0  0  0  0  0  0  0  0  0
    3.9430   -4.0310   25.8860 C   0  0  0  0  0  0  0  0  0  0  0  0
    2.6480   -4.1500   25.3070 C   0  0  0  0  0  0  0  0  0  0  0  0
    3.8630   -2.7390   26.4180 C   0  0  0  0  0  0  0  0  0  0  0  0
    1.8630   -3.0170   25.4860 C   0  0  0  0  0  0  0  0  0  0  0  0
    2.6370   -2.1420   26.1820 O   0  0  0  0  0  0  0  0  0  0  0  0
  1  2  1  0
  2  3  1  0
  3  4  2  0
  3  5  1  0
  5  6  1  0
  5  7  1  0
  6  8  1  0
  7  9  1  0
  8 10  1  0
  9 10  1  0
 10 11  1  0
 11 12  2  0
 11 13  2  0
 11 14  1  0
 14 15  1  0
 14 16  2  0
 15 17  2  0
 16 18  1  0
 17 18  1  0
M  END
