SAD-SAT-29425be4-13-bromoalkyne
     RDKit          3D

 25 26  0  0  0  0  0  0  0  0999 V2000
    7.6390   -3.4100   19.4440 C   0  0  0  0  0  0  0  0  0  0  0  0
    6.3570   -3.0740   18.6930 C   0  0  0  0  0  0  0  0  0  0  0  0
    7.7560   -3.3850   20.7670 N   0  0  0  0  0  0  0  0  0  0  0  0
    7.8650   -2.1000   21.4140 C   0  0  0  0  0  0  0  0  0  0  0  0
    7.5020   -4.5440   21.6220 C   0  0  0  0  0  0  0  0  0  0  0  0
    6.3660   -1.8320   21.7740 C   0  0  0  0  0  0  0  0  0  0  0  0
    6.2070   -4.4480   22.0670 C   0  0  0  0  0  0  0  0  0  0  0  0
    5.9510   -3.0520   22.6720 C   0  0  0  0  0  0  0  0  0  0  0  0
    6.8660   -2.8010   23.8740 C   0  0  0  0  0  0  0  0  0  0  0  0
    6.5310   -2.0560   24.8010 O   0  0  0  0  0  0  0  0  0  0  0  0
    8.0590   -3.4570   23.8310 N   0  0  0  0  0  0  0  0  0  0  0  0
    9.0840   -3.2680   24.8450 C   0  0  2  0  0  0  0  0  0  0  0  0
   10.0260   -2.2700   24.2060 C   0  0  0  0  0  0  0  0  0  0  0  0
    9.7550   -4.6300   25.1910 C   0  0  0  0  0  0  0  0  0  0  0  0
   10.9950   -2.7470   23.1340 C   0  0  0  0  0  0  0  0  0  0  0  0
   10.0350   -0.9260   24.5520 C   0  0  0  0  0  0  0  0  0  0  0  0
    9.4530   -5.2020   26.5760 C   0  0  0  0  0  0  0  0  0  0  0  0
    9.3120   -5.6970   24.1660 C   0  0  0  0  0  0  0  0  0  0  0  0
   11.9120   -1.7810   22.4890 C   0  0  0  0  0  0  0  0  0  0  0  0
   10.9830   -0.0050   23.8570 C   0  0  0  0  0  0  0  0  0  0  0  0
   11.8750   -0.4870   22.8540 C   0  0  0  0  0  0  0  0  0  0  0  0
   12.6670    0.3430   22.3030 C   0  0  0  0  0  0  0  0  0  0  0  0
   13.1690    0.8120   23.2900 C   0  0  0  0  0  0  0  0  0  0  0  0
   12.8950   -0.2240   24.3910 C   0  0  0  0  0  0  0  0  0  0  0  0
   12.3340    2.0820   23.3630 C   0  0  0  0  0  0  0  0  0  0  0  0
  1  2  2  3
  1  3  1  0
  3  4  1  0
  3  5  1  0
  4  6  1  0
  5  7  1  0
  6  8  1  0
  7  8  1  0
  8  9  1  0
  9 10  2  0
  9 11  1  0
 12 11  1  6
 12 13  1  0
 12 14  1  0
 13 15  2  0
 13 16  1  0
 14 17  1  0
 14 18  1  0
 15 19  1  0
 16 20  2  0
 19 21  2  0
 20 21  1  0
 21 22  1  0
 22 23  1  0
 23 24  1  0
 23 25  1  0
M  END
