SAG-UNI-75aa781c-1
     RDKit          3D

 28 30  0  0  0  0  0  0  0  0999 V2000
    5.7680   -5.8500   21.1400 C   0  0  0  0  0  0  0  0  0  0  0  0
    7.0620   -5.9500   21.9030 C   0  0  0  0  0  0  0  0  0  0  0  0
    7.3680   -4.8650   22.6940 N   0  0  0  0  0  0  0  0  0  0  0  0
    7.6560   -3.5310   22.1330 C   0  0  0  0  0  0  0  0  0  0  0  0
    8.8620   -2.7560   22.1420 O   0  0  0  0  0  0  0  0  0  0  0  0
    6.4830   -2.8060   21.4310 C   0  0  1  0  0  0  0  0  0  0  0  0
    5.4140   -2.5110   22.5020 C   0  0  0  0  0  0  0  0  0  0  0  0
    6.8750   -1.6370   20.7890 N   0  0  0  0  0  0  0  0  0  0  0  0
    5.0510   -3.5760   23.5400 C   0  0  1  0  0  0  0  0  0  0  0  0
    6.4040   -1.4740   19.5000 C   0  0  0  0  0  0  0  0  0  0  0  0
    4.6900   -4.8520   23.1040 C   0  0  0  0  0  0  0  0  0  0  0  0
    5.9060   -3.8300   24.6590 C   0  0  0  0  0  0  0  0  0  0  0  0
    5.4260   -0.4740   19.4480 C   0  0  1  0  0  0  0  0  0  0  0  0
    5.2360   -5.7470   23.9310 C   0  0  0  0  0  0  0  0  0  0  0  0
    5.9530   -5.1950   24.9040 N   0  0  0  0  0  0  0  0  0  0  0  0
    6.5660   -2.8830   25.3880 O   0  0  0  0  0  0  0  0  0  0  0  0
    4.9150    0.0150   20.7570 C   0  0  0  0  0  0  0  0  0  0  0  0
    5.8320    0.8590   18.7680 C   0  0  0  0  0  0  0  0  0  0  0  0
    5.5640    1.2980   21.1360 C   0  0  1  0  0  0  0  0  0  0  0  0
    5.3970    1.9610   19.7800 C   0  0  2  0  0  0  0  0  0  0  0  0
    5.0540    2.1820   22.2660 C   0  0  0  0  0  0  0  0  0  0  0  0
    4.1210    2.6840   19.4690 C   0  0  2  0  0  0  0  0  0  0  0  0
    6.0580    2.7600   23.1430 N   0  0  0  0  0  0  0  0  0  0  0  0
    3.8450    2.3440   22.3490 O   0  0  0  0  0  0  0  0  0  0  0  0
    3.8940    3.9930   20.2260 C   0  0  0  0  0  0  0  0  0  0  0  0
    2.8960    1.8920   19.8910 C   0  0  0  0  0  0  0  0  0  0  0  0
    2.5060    4.5220   19.9700 C   0  0  0  0  0  0  0  0  0  0  0  0
    1.5000    3.0380   19.6710 S   0  0  0  0  0  0  0  0  0  0  0  0
  1  2  1  0
  2  3  1  0
  3  4  1  0
  4  5  2  0
  4  6  1  0
  6  7  1  1
  6  8  1  0
  9  7  1  6
  8 10  1  0
  9 11  1  0
  9 12  1  0
 13 10  1  1
 11 14  2  0
 12 15  1  0
 14 15  1  0
 12 16  2  0
 13 17  1  0
 13 18  1  0
 17 19  1  0
 20 18  1  6
 19 20  1  0
 19 21  1  1
 20 22  1  0
 21 23  1  0
 21 24  2  0
 22 25  1  1
 22 26  1  0
 25 27  1  0
 26 28  1  0
 27 28  1  0
M  END
