SAG-UNI-75aa781c-3
     RDKit          3D

 29 31  0  0  0  0  0  0  0  0999 V2000
    2.9420   -3.6720   24.9200 C   0  0  0  0  0  0  0  0  0  0  0  0
    3.8920   -2.5940   24.4850 C   0  0  0  0  0  0  0  0  0  0  0  0
    4.1530   -1.6390   25.2000 O   0  0  0  0  0  0  0  0  0  0  0  0
    4.4220   -2.8000   23.2300 N   0  0  0  0  0  0  0  0  0  0  0  0
    5.4200   -1.8930   22.6290 C   0  0  0  0  0  0  0  0  0  0  0  0
    5.5980   -0.6990   22.8310 O   0  0  0  0  0  0  0  0  0  0  0  0
    6.4060   -2.5470   21.6340 C   0  0  2  0  0  0  0  0  0  0  0  0
    7.4000   -3.3640   22.4720 C   0  0  0  0  0  0  0  0  0  0  0  0
    7.0480   -1.6570   20.8050 N   0  0  0  0  0  0  0  0  0  0  0  0
    6.8160   -4.6090   23.1100 C   0  0  1  0  0  0  0  0  0  0  0  0
    6.3590   -1.3010   19.6730 C   0  0  0  0  0  0  0  0  0  0  0  0
    5.7340   -5.0720   22.3610 C   0  0  0  0  0  0  0  0  0  0  0  0
    7.6830   -5.7390   23.1300 C   0  0  0  0  0  0  0  0  0  0  0  0
    6.4030    0.0950   19.5840 C   0  0  2  0  0  0  0  0  0  0  0  0
    5.9390   -6.3320   21.9850 C   0  0  0  0  0  0  0  0  0  0  0  0
    7.1020   -6.7760   22.4350 N   0  0  0  0  0  0  0  0  0  0  0  0
    8.9000   -5.7830   23.7530 O   0  0  0  0  0  0  0  0  0  0  0  0
    5.9500    0.8020   20.8210 C   0  0  0  0  0  0  0  0  0  0  0  0
    5.4360    0.7240   18.5500 C   0  0  0  0  0  0  0  0  0  0  0  0
    5.6750    2.2300   20.5050 C   0  0  1  0  0  0  0  0  0  0  0  0
    4.8810    2.0390   19.1990 C   0  0  2  0  0  0  0  0  0  0  0  0
    4.9510    3.1680   21.4620 C   0  0  0  0  0  0  0  0  0  0  0  0
    3.3980    2.1050   19.2220 C   0  0  2  0  0  0  0  0  0  0  0  0
    4.7190    4.5370   21.0510 N   0  0  0  0  0  0  0  0  0  0  0  0
    4.5820    2.6010   22.7180 O   0  0  0  0  0  0  0  0  0  0  0  0
    2.7900    3.4880   18.9670 C   0  0  0  0  0  0  0  0  0  0  0  0
    2.7580    1.6320   20.5050 C   0  0  0  0  0  0  0  0  0  0  0  0
    1.3630    3.6240   19.4390 C   0  0  0  0  0  0  0  0  0  0  0  0
    1.0160    2.1340   20.4070 S   0  0  0  0  0  0  0  0  0  0  0  0
  1  2  1  0
  2  3  2  0
  2  4  1  0
  4  5  1  0
  5  6  2  0
  5  7  1  0
  7  8  1  1
  7  9  1  0
 10  8  1  6
  9 11  1  0
 10 12  1  0
 10 13  1  0
 14 11  1  1
 12 15  2  0
 13 16  1  0
 15 16  1  0
 13 17  2  0
 14 18  1  0
 14 19  1  0
 18 20  1  0
 21 19  1  1
 20 21  1  0
 20 22  1  1
 21 23  1  0
 22 24  1  0
 22 25  2  0
 23 26  1  1
 23 27  1  0
 26 28  1  0
 27 29  1  0
 28 29  1  0
M  END
