SAL-INS-3161d1be-3
     RDKit          3D

 26 29  0  0  0  0  0  0  0  0999 V2000
    8.3860    0.3960   21.1150 O   0  0  0  0  0  0  0  0  0  0  0  0
    7.8310   -0.6570   21.4140 C   0  0  0  0  0  0  0  0  0  0  0  0
    6.6800   -1.0700   20.8150 N   0  0  0  0  0  0  0  0  0  0  0  0
    8.3350   -1.5230   22.3740 N   0  0  0  0  0  0  0  0  0  0  0  0
    6.1200   -0.2010   19.8850 C   0  0  0  0  0  0  0  0  0  0  0  0
    9.5930   -1.1320   22.5520 C   0  0  0  0  0  0  0  0  0  0  0  0
    4.8690    0.2980   20.1480 C   0  0  0  0  0  0  0  0  0  0  0  0
    6.8040    0.1260   18.7930 N   0  0  0  0  0  0  0  0  0  0  0  0
   10.8830   -2.1180   22.1130 S   0  0  0  0  0  0  0  0  0  0  0  0
    9.8420    0.1060   23.0430 C   0  0  0  0  0  0  0  0  0  0  0  0
    4.3520    1.1610   19.2180 C   0  0  0  0  0  0  0  0  0  0  0  0
    6.2050    0.9790   17.9620 C   0  0  0  0  0  0  0  0  0  0  0  0
   11.8920   -0.8110   22.5220 C   0  0  0  0  0  0  0  0  0  0  0  0
   11.2360    0.2950   22.9960 C   0  0  0  0  0  0  0  0  0  0  0  0
    8.7910    1.0890   23.4890 C   0  0  0  0  0  0  0  0  0  0  0  0
    5.0020    1.5180   18.1140 N   0  0  0  0  0  0  0  0  0  0  0  0
   13.2320   -0.5700   22.4830 C   0  0  0  0  0  0  0  0  0  0  0  0
   12.1550    1.2370   23.2540 N   0  0  0  0  0  0  0  0  0  0  0  0
    8.1770    0.9640   24.9230 C   0  0  1  0  0  0  0  0  0  0  0  0
   13.3470    0.6920   22.9190 C   0  0  0  0  0  0  0  0  0  0  0  0
    6.6710    0.5770   24.9510 C   0  0  0  0  0  0  0  0  0  0  0  0
    9.1080    0.2800   25.9640 C   0  0  0  0  0  0  0  0  0  0  0  0
    6.3510   -0.7990   25.5200 C   0  0  0  0  0  0  0  0  0  0  0  0
    8.6330   -1.0580   26.5260 C   0  0  0  0  0  0  0  0  0  0  0  0
    7.1370   -1.0630   26.7960 C   0  0  2  0  0  0  0  0  0  0  0  0
    6.7770   -2.3370   27.3300 O   0  0  0  0  0  0  0  0  0  0  0  0
  1  2  2  0
  2  3  1  0
  2  4  1  0
  3  5  1  0
  4  6  1  0
  5  7  2  0
  5  8  1  0
  6  9  1  0
  6 10  2  0
  7 11  1  0
  8 12  2  0
  9 13  1  0
 10 14  1  0
 13 14  2  0
 10 15  1  0
 11 16  2  0
 12 16  1  0
 13 17  1  0
 14 18  1  0
 19 15  1  6
 17 20  2  0
 18 20  1  0
 19 21  1  0
 19 22  1  0
 21 23  1  0
 22 24  1  0
 23 25  1  0
 24 25  1  0
 25 26  1  6
M  END
