SAL-INS-1ea6d4ee-4-nitrile
     RDKit          3D

 27 29  0  0  0  0  0  0  0  0999 V2000
    6.5680   -4.6600   20.4050 C   0  0  0  0  0  0  0  0  0  0  0  0
    6.1040   -3.7440   19.6350 N   0  0  0  0  0  0  0  0  0  0  0  0
    6.2990   -4.7140   21.7920 N   0  0  0  0  0  0  0  0  0  0  0  0
    7.3400   -5.2570   22.6880 C   0  0  0  0  0  0  0  0  0  0  0  0
    5.4520   -3.7370   22.4000 C   0  0  0  0  0  0  0  0  0  0  0  0
    6.9110   -5.1140   24.1020 C   0  0  0  0  0  0  0  0  0  0  0  0
    4.9400   -4.0480   23.8270 C   0  0  1  0  0  0  0  0  0  0  0  0
    5.4520   -5.2340   24.2280 N   0  0  0  0  0  0  0  0  0  0  0  0
    5.6970   -3.0330   24.7650 C   0  0  0  0  0  0  0  0  0  0  0  0
    4.8530   -5.6340   25.7620 S   0  0  0  0  0  0  0  0  0  0  0  0
    5.0610   -1.7810   25.0900 C   0  0  0  0  0  0  0  0  0  0  0  0
    4.1220   -6.8780   25.6930 O   0  0  0  0  0  0  0  0  0  0  0  0
    5.8500   -5.3650   26.7690 O   0  0  0  0  0  0  0  0  0  0  0  0
    3.6480   -4.4080   25.9490 C   0  0  0  0  0  0  0  0  0  0  0  0
    5.7330   -1.2830   26.3500 C   0  0  0  0  0  0  0  0  0  0  0  0
    3.8460   -3.2040   26.6580 C   0  0  0  0  0  0  0  0  0  0  0  0
    2.3620   -4.5290   25.3750 C   0  0  0  0  0  0  0  0  0  0  0  0
    5.2290   -1.0710   27.5920 C   0  0  0  0  0  0  0  0  0  0  0  0
    7.1270   -1.0540   26.1040 C   0  0  0  0  0  0  0  0  0  0  0  0
    2.8920   -2.1860   26.8050 C   0  0  0  0  0  0  0  0  0  0  0  0
    1.4310   -3.5120   25.5320 C   0  0  0  0  0  0  0  0  0  0  0  0
    6.1300   -0.6380   28.6790 C   0  0  0  0  0  0  0  0  0  0  0  0
    7.9770   -0.6670   27.1090 C   0  0  0  0  0  0  0  0  0  0  0  0
    7.5550   -1.2460   24.8420 O   0  0  0  0  0  0  0  0  0  0  0  0
    1.6510   -2.3470   26.2220 C   0  0  0  0  0  0  0  0  0  0  0  0
    7.5560   -0.4430   28.4170 C   0  0  0  0  0  0  0  0  0  0  0  0
    0.4510   -1.0580   26.4100 Cl  0  0  0  0  0  0  0  0  0  0  0  0
  1  2  2  3
  1  3  1  0
  3  4  1  0
  3  5  1  0
  4  6  1  0
  5  7  1  0
  6  8  1  0
  7  8  1  0
  7  9  1  1
  8 10  1  0
  9 11  1  0
 10 12  2  0
 10 13  2  0
 10 14  1  0
 11 15  1  0
 14 16  2  0
 14 17  1  0
 15 18  2  0
 15 19  1  0
 16 20  1  0
 17 21  2  0
 18 22  1  0
 19 23  2  0
 19 24  1  0
 20 25  2  0
 21 25  1  0
 22 26  2  0
 23 26  1  0
 25 27  1  0
M  END
