SAL-INS-68b48d12-3
     RDKit          3D

 40 41  0  0  0  0  0  0  0  0999 V2000
   12.9860    6.6750   22.5530 N   0  0  0  0  0  0  0  0  0  0  0  0
   13.3320    5.4460   21.8100 C   0  0  0  0  0  0  0  0  0  0  0  0
   13.7820    5.3760   20.5500 N   0  0  0  0  0  0  0  0  0  0  0  0
   13.1570    4.2870   22.5090 N   0  0  0  0  0  0  0  0  0  0  0  0
   11.8480    3.8470   22.9270 C   0  0  0  0  0  0  0  0  0  0  0  0
   11.1830    4.9380   23.7940 C   0  0  0  0  0  0  0  0  0  0  0  0
    9.8710    4.5030   24.4030 C   0  0  0  0  0  0  0  0  0  0  0  0
    8.9600    3.7830   23.6030 C   0  0  2  0  0  0  0  0  0  0  0  0
    9.3880    3.2780   22.4410 N   0  0  0  0  0  0  0  0  0  0  0  0
    7.6450    4.5660   23.3470 C   0  0  0  0  0  0  0  0  0  0  0  0
    8.9420    2.0150   22.2130 C   0  0  0  0  0  0  0  0  0  0  0  0
    6.8420    4.3500   22.4530 O   0  0  0  0  0  0  0  0  0  0  0  0
    7.4390    5.5640   24.2540 O   0  0  0  0  0  0  0  0  0  0  0  0
    8.7290    1.6110   21.0730 O   0  0  0  0  0  0  0  0  0  0  0  0
    8.7260    1.1670   23.3280 C   0  0  2  0  0  0  0  0  0  0  0  0
    9.5020   -0.1280   23.3140 C   0  0  0  0  0  0  0  0  0  0  0  0
    7.4200    0.8810   23.6150 N   0  0  0  0  0  0  0  0  0  0  0  0
   10.7390   -0.5360   22.7770 C   0  0  0  0  0  0  0  0  0  0  0  0
    6.8370   -0.3440   23.3050 C   0  0  0  0  0  0  0  0  0  0  0  0
   10.9500   -1.7640   21.9810 C   0  0  0  0  0  0  0  0  0  0  0  0
   11.7650    0.3300   23.0700 C   0  0  0  0  0  0  0  0  0  0  0  0
    5.8870   -0.4360   22.5320 O   0  0  0  0  0  0  0  0  0  0  0  0
    7.4100   -1.4640   23.9500 C   0  0  2  0  0  0  0  0  0  0  0  0
   12.3620   -1.9660   21.5380 C   0  0  0  0  0  0  0  0  0  0  0  0
   13.0450    0.0720   22.6340 C   0  0  0  0  0  0  0  0  0  0  0  0
    7.6420   -2.5450   23.1020 C   0  0  0  0  0  0  0  0  0  0  0  0
    6.6600   -2.0130   24.9850 N   0  0  0  0  0  0  0  0  0  0  0  0
   13.3010   -1.0680   21.8810 C   0  0  0  0  0  0  0  0  0  0  0  0
    7.1780   -2.4260   21.7660 C   0  0  0  0  0  0  0  0  0  0  0  0
    7.2260   -2.6060   26.0770 C   0  0  0  0  0  0  0  0  0  0  0  0
    7.8760   -1.6910   20.7900 C   0  0  0  0  0  0  0  0  0  0  0  0
    5.9810   -3.0450   21.3200 C   0  0  0  0  0  0  0  0  0  0  0  0
    7.3830   -2.0300   27.1640 O   0  0  0  0  0  0  0  0  0  0  0  0
    7.6610   -4.0580   25.8360 C   0  0  1  0  0  0  0  0  0  0  0  0
    7.4360   -1.5650   19.4750 C   0  0  0  0  0  0  0  0  0  0  0  0
    5.5540   -2.9090   19.9910 C   0  0  0  0  0  0  0  0  0  0  0  0
    7.8480   -4.6670   27.1830 N   0  0  0  0  0  0  0  0  0  0  0  0
    6.5170   -4.8260   25.2090 C   0  0  0  0  0  0  0  0  0  0  0  0
    6.2720   -2.1750   19.0740 C   0  0  0  0  0  0  0  0  0  0  0  0
    5.9360   -5.5010   26.0750 O   0  0  0  0  0  0  0  0  0  0  0  0
  1  2  2  3
  2  3  1  0
  2  4  1  0
  4  5  1  0
  5  6  1  0
  6  7  1  0
  8  7  1  6
  8  9  1  0
  8 10  1  0
  9 11  1  0
 10 12  2  0
 10 13  1  0
 11 14  2  0
 11 15  1  0
 15 16  1  6
 15 17  1  0
 16 18  1  0
 17 19  1  0
 18 20  2  0
 18 21  1  0
 19 22  2  0
 19 23  1  0
 20 24  1  0
 21 25  2  0
 23 26  1  6
 23 27  1  0
 24 28  2  0
 25 28  1  0
 26 29  1  0
 27 30  1  0
 29 31  2  0
 29 32  1  0
 30 33  2  0
 30 34  1  0
 31 35  1  0
 32 36  2  0
 34 37  1  1
 34 38  1  0
 35 39  2  0
 36 39  1  0
 38 40  1  0
M  END
