SAL-INS-1c7a5a55-3-acrylamide
     RDKit          3D

 26 28  0  0  0  0  0  0  0  0999 V2000
    7.5590   -2.9840   18.8460 C   0  0  0  0  0  0  0  0  0  0  0  0
    7.1600   -2.6070   20.2440 C   0  0  0  0  0  0  0  0  0  0  0  0
    5.9710   -3.4450   20.6120 C   0  0  0  0  0  0  0  0  0  0  0  0
    4.9270   -3.3310   19.9990 O   0  0  0  0  0  0  0  0  0  0  0  0
    6.1080   -4.3390   21.6530 N   0  0  0  0  0  0  0  0  0  0  0  0
    5.6930   -5.7070   21.6920 C   0  0  0  0  0  0  0  0  0  0  0  0
    7.2390   -4.2930   22.6690 C   0  0  0  0  0  0  0  0  0  0  0  0
    6.6200   -5.8430   22.6660 C   0  0  0  0  0  0  0  0  0  0  0  0
    7.3380   -5.5500   23.7000 C   0  0  2  0  0  0  0  0  0  0  0  0
    6.8000   -4.7720   23.5860 C   0  0  0  0  0  0  0  0  0  0  0  0
    7.4980   -6.7570   23.0070 C   0  0  0  0  0  0  0  0  0  0  0  0
    6.1930   -5.6340   24.5250 C   0  0  0  0  0  0  0  0  0  0  0  0
    7.7970   -4.8250   24.6350 C   0  0  0  0  0  0  0  0  0  0  0  0
    8.4800   -6.9970   23.9260 C   0  0  0  0  0  0  0  0  0  0  0  0
    5.3810   -6.7760   24.5050 C   0  0  0  0  0  0  0  0  0  0  0  0
    5.6780   -4.7210   25.4310 N   0  0  0  0  0  0  0  0  0  0  0  0
    7.9360   -3.6240   25.5760 C   0  0  0  0  0  0  0  0  0  0  0  0
    8.6490   -5.9480   24.8160 C   0  0  0  0  0  0  0  0  0  0  0  0
    4.3750   -6.5540   25.3980 N   0  0  0  0  0  0  0  0  0  0  0  0
    4.5970   -5.3020   25.9320 C   0  0  0  0  0  0  0  0  0  0  0  0
    8.4930   -2.6180   25.1320 O   0  0  0  0  0  0  0  0  0  0  0  0
    7.4400   -3.7300   26.8760 N   0  0  0  0  0  0  0  0  0  0  0  0
    6.3400   -2.9230   27.4060 C   0  0  0  0  0  0  0  0  0  0  0  0
    7.7960   -4.9660   27.5680 C   0  0  0  0  0  0  0  0  0  0  0  0
    6.8840   -5.2910   28.7460 C   0  0  0  0  0  0  0  0  0  0  0  0
    9.2580   -4.9160   27.9930 C   0  0  0  0  0  0  0  0  0  0  0  0
  1  2  1  0
  2  3  1  0
  3  4  2  0
  3  5  1  0
  5  6  1  0
  5  7  1  0
  6  8  1  0
  7  9  1  0
  8 10  1  0
  8 11  2  0
  9 11  1  0
  9 12  1  6
 10 13  2  0
 11 14  1  0
 12 15  2  0
 12 16  1  0
 13 17  1  0
 13 18  1  0
 14 18  2  0
 15 19  1  0
 16 20  2  0
 19 20  1  0
 17 21  2  0
 17 22  1  0
 22 23  1  0
 22 24  1  0
 24 25  1  0
 24 26  1  0
M  END
