SAL-INS-1c7a5a55-4-nitrile
     RDKit          3D

 26 29  0  0  0  0  0  0  0  0999 V2000
    7.0380   -3.3090   19.7010 C   0  0  0  0  0  0  0  0  0  0  0  0
    6.0120   -3.1690   18.9570 N   0  0  0  0  0  0  0  0  0  0  0  0
    7.1890   -2.7700   20.9910 N   0  0  0  0  0  0  0  0  0  0  0  0
    6.4200   -3.2680   22.1150 C   0  0  0  0  0  0  0  0  0  0  0  0
    8.2290   -1.8100   21.4420 C   0  0  0  0  0  0  0  0  0  0  0  0
    7.3730   -3.5610   23.2720 C   0  0  0  0  0  0  0  0  0  0  0  0
    9.3470   -2.5110   22.2700 C   0  0  2  0  0  0  0  0  0  0  0  0
    6.7280   -4.2790   24.3920 C   0  0  0  0  0  0  0  0  0  0  0  0
    8.7320   -3.2110   23.3330 C   0  0  0  0  0  0  0  0  0  0  0  0
   10.2810   -1.5380   22.6630 C   0  0  0  0  0  0  0  0  0  0  0  0
    7.4850   -4.6080   25.5050 C   0  0  0  0  0  0  0  0  0  0  0  0
    9.4630   -3.5790   24.4820 C   0  0  0  0  0  0  0  0  0  0  0  0
   10.1000   -0.4780   23.5120 C   0  0  0  0  0  0  0  0  0  0  0  0
   11.6100   -1.4690   22.2560 N   0  0  0  0  0  0  0  0  0  0  0  0
    6.8340   -5.2670   26.5420 C   0  0  0  0  0  0  0  0  0  0  0  0
    8.8540   -4.2660   25.5500 C   0  0  0  0  0  0  0  0  0  0  0  0
   11.2420    0.2520   23.6560 N   0  0  0  0  0  0  0  0  0  0  0  0
   12.1530   -0.4020   22.8560 C   0  0  0  0  0  0  0  0  0  0  0  0
    5.9140   -6.0060   26.2050 O   0  0  0  0  0  0  0  0  0  0  0  0
    7.1890   -5.0550   27.8670 N   0  0  0  0  0  0  0  0  0  0  0  0
    8.6130   -5.1240   28.2290 C   0  0  0  0  0  0  0  0  0  0  0  0
    6.2180   -5.5700   28.8700 C   0  0  0  0  0  0  0  0  0  0  0  0
    6.3510   -6.8730   29.3770 C   0  0  0  0  0  0  0  0  0  0  0  0
    5.1170   -4.9720   29.4310 N   0  0  0  0  0  0  0  0  0  0  0  0
    5.3250   -7.0790   30.2400 N   0  0  0  0  0  0  0  0  0  0  0  0
    4.6020   -5.9020   30.2490 C   0  0  0  0  0  0  0  0  0  0  0  0
  1  2  2  3
  1  3  1  0
  3  4  1  0
  3  5  1  0
  4  6  1  0
  5  7  1  0
  6  8  1  0
  6  9  2  0
  7  9  1  0
  7 10  1  1
  8 11  2  0
  9 12  1  0
 10 13  2  0
 10 14  1  0
 11 15  1  0
 11 16  1  0
 12 16  2  0
 13 17  1  0
 14 18  2  0
 17 18  1  0
 15 19  2  0
 15 20  1  0
 20 21  1  0
 20 22  1  0
 22 23  2  0
 22 24  1  0
 23 25  1  0
 24 26  2  0
 25 26  1  0
M  END
