SAL-INS-1c7a5a55-2-nitrile
     RDKit          3D

 27 30  0  0  0  0  0  0  0  0999 V2000
    7.1060   -3.3920   19.6360 C   0  0  0  0  0  0  0  0  0  0  0  0
    6.0750   -3.1890   18.9150 N   0  0  0  0  0  0  0  0  0  0  0  0
    7.3170   -2.8910   20.9070 N   0  0  0  0  0  0  0  0  0  0  0  0
    6.3470   -3.1310   21.9650 C   0  0  0  0  0  0  0  0  0  0  0  0
    8.5940   -2.2330   21.2820 C   0  0  0  0  0  0  0  0  0  0  0  0
    7.1140   -3.3530   23.2520 C   0  0  0  0  0  0  0  0  0  0  0  0
    8.7330   -1.6610   22.7000 C   0  0  1  0  0  0  0  0  0  0  0  0
    6.5370   -4.3860   24.1460 C   0  0  0  0  0  0  0  0  0  0  0  0
    8.2710   -2.6450   23.5910 C   0  0  0  0  0  0  0  0  0  0  0  0
   10.0070   -1.1130   22.8810 C   0  0  0  0  0  0  0  0  0  0  0  0
    7.1820   -4.6240   25.3440 C   0  0  0  0  0  0  0  0  0  0  0  0
    8.8960   -2.9290   24.8050 C   0  0  0  0  0  0  0  0  0  0  0  0
   11.1830   -1.6430   22.2980 C   0  0  0  0  0  0  0  0  0  0  0  0
   10.0730    0.0350   23.6790 C   0  0  0  0  0  0  0  0  0  0  0  0
    6.6980   -5.5630   26.2400 C   0  0  0  0  0  0  0  0  0  0  0  0
    8.3550   -3.8980   25.6680 C   0  0  0  0  0  0  0  0  0  0  0  0
   12.4520   -1.0850   22.4620 C   0  0  0  0  0  0  0  0  0  0  0  0
   11.4140    0.7020   23.8990 C   0  0  0  0  0  0  0  0  0  0  0  0
    5.5250   -5.9270   26.1640 O   0  0  0  0  0  0  0  0  0  0  0  0
    7.6340   -5.9800   27.1410 N   0  0  0  0  0  0  0  0  0  0  0  0
   12.6210    0.0700   23.2370 C   0  0  0  0  0  0  0  0  0  0  0  0
    7.3910   -5.7810   28.5690 C   0  0  0  0  0  0  0  0  0  0  0  0
    8.9120   -5.4580   26.6810 C   0  0  0  0  0  0  0  0  0  0  0  0
    9.9270   -5.0480   27.5360 C   0  0  0  0  0  0  0  0  0  0  0  0
    9.2660   -5.2820   25.3800 N   0  0  0  0  0  0  0  0  0  0  0  0
   10.9130   -4.6000   26.7020 N   0  0  0  0  0  0  0  0  0  0  0  0
   10.4700   -4.7540   25.4330 C   0  0  0  0  0  0  0  0  0  0  0  0
  1  2  2  3
  1  3  1  0
  3  4  1  0
  3  5  1  0
  4  6  1  0
  5  7  1  0
  6  8  1  0
  6  9  2  0
  7  9  1  0
  7 10  1  1
  8 11  2  0
  9 12  1  0
 10 13  2  0
 10 14  1  0
 11 15  1  0
 11 16  1  0
 12 16  2  0
 13 17  1  0
 14 18  2  0
 15 19  2  0
 15 20  1  0
 17 21  2  0
 18 21  1  0
 20 22  1  0
 20 23  1  0
 23 24  2  0
 23 25  1  0
 24 26  1  0
 25 27  2  0
 26 27  1  0
M  END
