SAL-INS-1c7a5a55-1-nitrile
     RDKit          3D

 25 27  0  0  0  0  0  0  0  0999 V2000
    7.1050   -3.4810   19.7680 C   0  0  0  0  0  0  0  0  0  0  0  0
    6.0360   -3.2820   19.1010 N   0  0  0  0  0  0  0  0  0  0  0  0
    7.3920   -2.9820   21.0440 N   0  0  0  0  0  0  0  0  0  0  0  0
    6.5380   -3.2650   22.2130 C   0  0  0  0  0  0  0  0  0  0  0  0
    8.6690   -2.2610   21.3120 C   0  0  0  0  0  0  0  0  0  0  0  0
    7.4500   -3.5360   23.4160 C   0  0  0  0  0  0  0  0  0  0  0  0
    9.0140   -1.8570   22.7480 C   0  0  1  0  0  0  0  0  0  0  0  0
    7.0070   -4.5830   24.3810 C   0  0  0  0  0  0  0  0  0  0  0  0
    8.6430   -2.8570   23.6400 C   0  0  0  0  0  0  0  0  0  0  0  0
   10.2210   -1.1970   22.8750 C   0  0  0  0  0  0  0  0  0  0  0  0
    7.8290   -4.8400   25.4860 C   0  0  0  0  0  0  0  0  0  0  0  0
    9.4340   -3.1700   24.7490 C   0  0  0  0  0  0  0  0  0  0  0  0
   10.2550   -0.0330   23.6500 C   0  0  0  0  0  0  0  0  0  0  0  0
   11.3800   -1.6810   22.2370 C   0  0  0  0  0  0  0  0  0  0  0  0
    7.4790   -5.7750   26.4390 C   0  0  0  0  0  0  0  0  0  0  0  0
    9.0320   -4.1500   25.6610 C   0  0  0  0  0  0  0  0  0  0  0  0
   11.3980    0.7210   23.8400 C   0  0  0  0  0  0  0  0  0  0  0  0
   12.6770   -0.9090   22.4010 C   0  0  0  0  0  0  0  0  0  0  0  0
    8.4060   -6.3320   27.0090 O   0  0  0  0  0  0  0  0  0  0  0  0
    6.1160   -6.0020   26.7000 N   0  0  0  0  0  0  0  0  0  0  0  0
   12.6080    0.3450   23.2540 C   0  0  0  0  0  0  0  0  0  0  0  0
    5.0520   -5.9630   25.6730 C   0  0  0  0  0  0  0  0  0  0  0  0
    5.6380   -5.9900   28.0900 C   0  0  0  0  0  0  0  0  0  0  0  0
    4.8800   -7.1700   28.3880 C   0  0  0  0  0  0  0  0  0  0  0  0
    6.8210   -5.9010   29.0440 C   0  0  0  0  0  0  0  0  0  0  0  0
  1  2  2  3
  1  3  1  0
  3  4  1  0
  3  5  1  0
  4  6  1  0
  5  7  1  0
  6  8  1  0
  6  9  2  0
  7  9  1  0
  7 10  1  6
  8 11  2  0
  9 12  1  0
 10 13  2  0
 10 14  1  0
 11 15  1  0
 11 16  1  0
 12 16  2  0
 13 17  1  0
 14 18  2  0
 15 19  2  0
 15 20  1  0
 17 21  2  0
 18 21  1  0
 20 22  1  0
 20 23  1  0
 23 24  1  0
 23 25  1  0
M  END
