SAL-INS-1c7a5a55-3-chloroacetamide
     RDKit          3D

 25 27  0  0  0  0  0  0  0  0999 V2000
    7.4670   -3.0160   18.6990 C   0  0  0  0  0  0  0  0  0  0  0  0
    6.6600   -3.3220   19.8980 C   0  0  0  0  0  0  0  0  0  0  0  0
    5.6880   -4.1050   19.7840 O   0  0  0  0  0  0  0  0  0  0  0  0
    7.0740   -2.7200   21.0820 N   0  0  0  0  0  0  0  0  0  0  0  0
    6.2340   -2.7120   22.2740 C   0  0  0  0  0  0  0  0  0  0  0  0
    8.4720   -2.2050   21.2680 C   0  0  0  0  0  0  0  0  0  0  0  0
    7.0520   -3.2550   23.3860 C   0  0  0  0  0  0  0  0  0  0  0  0
    8.7750   -1.8180   22.7040 C   0  0  1  0  0  0  0  0  0  0  0  0
    6.5240   -4.2050   24.2380 C   0  0  0  0  0  0  0  0  0  0  0  0
    8.3560   -2.8000   23.5770 C   0  0  0  0  0  0  0  0  0  0  0  0
    9.9710   -1.1380   22.9230 C   0  0  0  0  0  0  0  0  0  0  0  0
    7.2520   -4.7120   25.2630 C   0  0  0  0  0  0  0  0  0  0  0  0
    9.1180   -3.3250   24.6030 C   0  0  0  0  0  0  0  0  0  0  0  0
   11.2020   -1.3340   22.3540 C   0  0  0  0  0  0  0  0  0  0  0  0
   10.0220   -0.0960   23.8270 N   0  0  0  0  0  0  0  0  0  0  0  0
    6.6760   -5.6280   26.1090 C   0  0  0  0  0  0  0  0  0  0  0  0
    8.5850   -4.2800   25.4570 C   0  0  0  0  0  0  0  0  0  0  0  0
   12.0530   -0.3050   22.9820 N   0  0  0  0  0  0  0  0  0  0  0  0
   11.2540    0.3680   23.8320 C   0  0  0  0  0  0  0  0  0  0  0  0
    5.5810   -6.1430   25.8830 O   0  0  0  0  0  0  0  0  0  0  0  0
    7.5700   -5.8070   27.2550 N   0  0  0  0  0  0  0  0  0  0  0  0
    6.8860   -5.7980   28.5760 C   0  0  0  0  0  0  0  0  0  0  0  0
    8.8330   -5.1440   27.0270 C   0  0  0  0  0  0  0  0  0  0  0  0
    9.5650   -5.0840   28.2530 C   0  0  0  0  0  0  0  0  0  0  0  0
    9.6370   -5.9920   26.0650 C   0  0  0  0  0  0  0  0  0  0  0  0
  1  2  1  0
  2  3  2  0
  2  4  1  0
  4  5  1  0
  4  6  1  0
  5  7  1  0
  6  8  1  0
  7  9  1  0
  7 10  2  0
  8 10  1  0
  8 11  1  6
  9 12  2  0
 10 13  1  0
 11 14  2  0
 11 15  1  0
 12 16  1  0
 12 17  1  0
 13 17  2  0
 14 18  1  0
 15 19  2  0
 18 19  1  0
 16 20  2  0
 16 21  1  0
 21 22  1  0
 21 23  1  0
 23 24  1  0
 23 25  1  0
M  END
