SAL-INS-1c7a5a55-7-bromoalkyne
     RDKit          3D

 24 26  0  0  0  0  0  0  0  0999 V2000
    7.1720   -4.4910   20.4140 C   0  0  0  0  0  0  0  0  0  0  0  0
    6.0560   -5.5080   20.1500 C   0  0  0  0  0  0  0  0  0  0  0  0
    7.1520   -3.7040   21.5680 N   0  0  0  0  0  0  0  0  0  0  0  0
    7.8520   -3.9850   22.8560 C   0  0  0  0  0  0  0  0  0  0  0  0
    6.5990   -2.3870   21.3570 C   0  0  2  0  0  0  0  0  0  0  0  0
    7.1210   -4.8380   23.8630 C   0  0  0  0  0  0  0  0  0  0  0  0
    9.1390   -3.4940   23.1480 C   0  0  0  0  0  0  0  0  0  0  0  0
    6.0080   -2.5010   20.0890 C   0  0  0  0  0  0  0  0  0  0  0  0
    7.5200   -1.1460   21.2730 C   0  0  0  0  0  0  0  0  0  0  0  0
    7.7920   -5.1120   25.0710 C   0  0  0  0  0  0  0  0  0  0  0  0
    9.7180   -3.8370   24.3960 C   0  0  0  0  0  0  0  0  0  0  0  0
    9.8140   -2.6510   22.1290 C   0  0  0  0  0  0  0  0  0  0  0  0
    5.9460   -1.3580   19.3310 C   0  0  0  0  0  0  0  0  0  0  0  0
    6.5990   -0.0680   20.2530 S   0  0  0  0  0  0  0  0  0  0  0  0
    9.0710   -4.6360   25.3560 C   0  0  0  0  0  0  0  0  0  0  0  0
   10.5620   -1.4860   22.7240 C   0  0  0  0  0  0  0  0  0  0  0  0
    5.5310    0.5120   21.0390 O   0  0  0  0  0  0  0  0  0  0  0  0
    7.4200    0.7680   19.4200 O   0  0  0  0  0  0  0  0  0  0  0  0
    9.7000   -4.9440   26.5690 C   0  0  0  0  0  0  0  0  0  0  0  0
   10.0400   -0.6190   23.6550 C   0  0  0  0  0  0  0  0  0  0  0  0
   11.8350   -1.3770   22.2320 C   0  0  0  0  0  0  0  0  0  0  0  0
   10.8840    0.4990   24.1570 C   0  0  0  0  0  0  0  0  0  0  0  0
   12.6300   -0.3370   22.6940 C   0  0  0  0  0  0  0  0  0  0  0  0
   12.1730    0.5840   23.6320 C   0  0  0  0  0  0  0  0  0  0  0  0
  1  2  2  3
  1  3  1  0
  3  4  1  0
  5  3  1  6
  4  6  2  0
  4  7  1  0
  5  8  1  0
  5  9  1  0
  6 10  1  0
  7 11  2  0
  7 12  1  0
  8 13  2  0
  9 14  1  0
 14 13  1  0
 10 15  2  0
 11 15  1  0
 12 16  1  0
 14 17  2  0
 14 18  2  0
 15 19  1  0
 16 20  2  0
 16 21  1  0
 20 22  1  0
 21 23  2  0
 22 24  2  0
 23 24  1  0
M  END
