SAL-INS-1ea6d4ee-3-vinylsulfonamide
     RDKit          3D

 29 31  0  0  0  0  0  0  0  0999 V2000
    8.2790   -3.3910   19.6230 C   0  0  0  0  0  0  0  0  0  0  0  0
    6.7830   -3.4880   19.8140 C   0  0  0  0  0  0  0  0  0  0  0  0
    5.9840   -4.5890   20.9370 S   0  0  0  0  0  0  0  0  0  0  0  0
    5.0300   -3.7610   21.6230 O   0  0  0  0  0  0  0  0  0  0  0  0
    5.4720   -5.6560   20.1330 O   0  0  0  0  0  0  0  0  0  0  0  0
    7.1990   -4.9700   22.0500 N   0  0  0  0  0  0  0  0  0  0  0  0
    7.4870   -3.7710   22.7890 C   0  0  0  0  0  0  0  0  0  0  0  0
    7.0000   -6.0060   22.9810 C   0  0  0  0  0  0  0  0  0  0  0  0
    6.5230   -3.4860   23.7690 C   0  0  0  0  0  0  0  0  0  0  0  0
    7.5910   -5.4370   24.3240 C   0  0  2  0  0  0  0  0  0  0  0  0
    6.6330   -4.4820   24.7920 N   0  0  0  0  0  0  0  0  0  0  0  0
    9.0850   -4.9240   24.1390 C   0  0  0  0  0  0  0  0  0  0  0  0
    5.3140   -5.0100   25.7510 S   0  0  0  0  0  0  0  0  0  0  0  0
    9.4080   -3.5120   24.8080 C   0  0  0  0  0  0  0  0  0  0  0  0
    5.8370   -5.2240   27.0790 O   0  0  0  0  0  0  0  0  0  0  0  0
    4.5340   -6.0460   25.1020 O   0  0  0  0  0  0  0  0  0  0  0  0
    4.2180   -3.6850   25.9180 C   0  0  0  0  0  0  0  0  0  0  0  0
   10.0400   -2.4570   24.0810 C   0  0  0  0  0  0  0  0  0  0  0  0
    4.5170   -2.3280   26.0700 C   0  0  0  0  0  0  0  0  0  0  0  0
    2.5050   -3.9370   25.9160 S   0  0  0  0  0  0  0  0  0  0  0  0
    9.0650   -1.8390   23.1900 C   0  0  0  0  0  0  0  0  0  0  0  0
   11.4830   -1.9070   24.0850 C   0  0  0  0  0  0  0  0  0  0  0  0
    3.4010   -1.5320   26.1850 C   0  0  0  0  0  0  0  0  0  0  0  0
    2.2420   -2.2690   26.1240 C   0  0  0  0  0  0  0  0  0  0  0  0
    9.3970   -0.8640   22.4080 C   0  0  0  0  0  0  0  0  0  0  0  0
   11.7320   -0.8790   23.2150 C   0  0  0  0  0  0  0  0  0  0  0  0
   12.6400   -2.2880   24.8560 O   0  0  0  0  0  0  0  0  0  0  0  0
    0.6650   -1.4770   26.2670 Cl  0  0  0  0  0  0  0  0  0  0  0  0
   10.7550   -0.3650   22.4070 C   0  0  0  0  0  0  0  0  0  0  0  0
  1  2  1  0
  3  2  1  0
  3  4  2  0
  3  5  2  0
  3  6  1  0
  6  7  1  0
  6  8  1  0
  7  9  1  0
  8 10  1  0
  9 11  1  0
 10 11  1  0
 10 12  1  6
 11 13  1  0
 12 14  1  0
 13 15  2  0
 13 16  2  0
 13 17  1  0
 14 18  1  0
 17 19  2  0
 17 20  1  0
 18 21  2  0
 18 22  1  0
 19 23  1  0
 20 24  1  0
 23 24  2  0
 21 25  1  0
 22 26  2  0
 22 27  1  0
 24 28  1  0
 25 29  2  0
 26 29  1  0
M  END
