SAL-INS-1c7a5a55-3-nitrile
     RDKit          3D

 24 26  0  0  0  0  0  0  0  0999 V2000
    7.0340   -3.3060   19.6930 C   0  0  0  0  0  0  0  0  0  0  0  0
    6.0070   -3.1710   18.9510 N   0  0  0  0  0  0  0  0  0  0  0  0
    7.1980   -2.7500   20.9710 N   0  0  0  0  0  0  0  0  0  0  0  0
    6.4180   -3.2070   22.1040 C   0  0  0  0  0  0  0  0  0  0  0  0
    8.2360   -1.7700   21.3890 C   0  0  0  0  0  0  0  0  0  0  0  0
    7.3810   -3.5690   23.2260 C   0  0  0  0  0  0  0  0  0  0  0  0
    9.3200   -2.4220   22.3000 C   0  0  2  0  0  0  0  0  0  0  0  0
    6.7570   -4.3770   24.2840 C   0  0  0  0  0  0  0  0  0  0  0  0
    8.7340   -3.2050   23.3110 C   0  0  0  0  0  0  0  0  0  0  0  0
   10.3040   -1.4840   22.6660 C   0  0  0  0  0  0  0  0  0  0  0  0
    7.5300   -4.7700   25.3570 C   0  0  0  0  0  0  0  0  0  0  0  0
    9.4800   -3.6390   24.4240 C   0  0  0  0  0  0  0  0  0  0  0  0
   10.1560   -0.4210   23.5140 C   0  0  0  0  0  0  0  0  0  0  0  0
   11.6240   -1.4570   22.2430 N   0  0  0  0  0  0  0  0  0  0  0  0
    6.8740   -5.5060   26.3120 C   0  0  0  0  0  0  0  0  0  0  0  0
    8.8880   -4.4150   25.4380 C   0  0  0  0  0  0  0  0  0  0  0  0
   11.3200    0.2780   23.6480 N   0  0  0  0  0  0  0  0  0  0  0  0
   12.2040   -0.4040   22.8370 C   0  0  0  0  0  0  0  0  0  0  0  0
    5.8970   -6.1300   25.9180 O   0  0  0  0  0  0  0  0  0  0  0  0
    7.2430   -5.4660   27.6310 N   0  0  0  0  0  0  0  0  0  0  0  0
    8.6120   -5.1680   28.1000 C   0  0  0  0  0  0  0  0  0  0  0  0
    6.1190   -5.1520   28.5170 C   0  0  0  0  0  0  0  0  0  0  0  0
    6.0570   -6.0870   29.5950 C   0  0  0  0  0  0  0  0  0  0  0  0
    6.1630   -3.6910   28.9680 C   0  0  0  0  0  0  0  0  0  0  0  0
  1  2  2  3
  1  3  1  0
  3  4  1  0
  3  5  1  0
  4  6  1  0
  5  7  1  0
  6  8  1  0
  6  9  2  0
  7  9  1  0
  7 10  1  1
  8 11  2  0
  9 12  1  0
 10 13  2  0
 10 14  1  0
 11 15  1  0
 11 16  1  0
 12 16  2  0
 13 17  1  0
 14 18  2  0
 17 18  1  0
 15 19  2  0
 15 20  1  0
 20 21  1  0
 20 22  1  0
 22 23  1  0
 22 24  1  0
M  END
