SAL-INS-1c7a5a55-6-nitrile
     RDKit          3D

 24 27  0  0  0  0  0  0  0  0999 V2000
    6.9570   -3.4000   19.8250 C   0  0  0  0  0  0  0  0  0  0  0  0
    5.9070   -3.2770   19.1200 N   0  0  0  0  0  0  0  0  0  0  0  0
    7.1240   -2.7760   21.0700 N   0  0  0  0  0  0  0  0  0  0  0  0
    6.4160   -3.2060   22.2780 C   0  0  0  0  0  0  0  0  0  0  0  0
    8.1700   -1.7680   21.4020 C   0  0  0  0  0  0  0  0  0  0  0  0
    7.4380   -3.5230   23.3710 C   0  0  0  0  0  0  0  0  0  0  0  0
    9.2880   -2.4000   22.2690 C   0  0  2  0  0  0  0  0  0  0  0  0
    6.8870   -4.3010   24.5230 C   0  0  0  0  0  0  0  0  0  0  0  0
    8.7810   -3.1420   23.3470 C   0  0  0  0  0  0  0  0  0  0  0  0
   10.2610   -1.4690   22.6670 C   0  0  0  0  0  0  0  0  0  0  0  0
    7.7390   -4.6460   25.5820 C   0  0  0  0  0  0  0  0  0  0  0  0
    9.6010   -3.5110   24.4150 C   0  0  0  0  0  0  0  0  0  0  0  0
   10.1260   -0.4130   23.5270 C   0  0  0  0  0  0  0  0  0  0  0  0
   11.5850   -1.4580   22.2470 N   0  0  0  0  0  0  0  0  0  0  0  0
    7.2720   -5.3650   26.6970 C   0  0  0  0  0  0  0  0  0  0  0  0
    9.1130   -4.2420   25.5090 C   0  0  0  0  0  0  0  0  0  0  0  0
   11.3020    0.2650   23.6660 N   0  0  0  0  0  0  0  0  0  0  0  0
   12.1770   -0.4200   22.8540 C   0  0  0  0  0  0  0  0  0  0  0  0
    5.9420   -5.7840   26.8470 N   0  0  0  0  0  0  0  0  0  0  0  0
    8.0930   -5.7190   27.7580 C   0  0  0  0  0  0  0  0  0  0  0  0
   10.0000   -4.5640   26.5340 C   0  0  0  0  0  0  0  0  0  0  0  0
    5.3770   -5.3980   27.8790 O   0  0  0  0  0  0  0  0  0  0  0  0
    5.3370   -6.1010   25.8130 O   0  0  0  0  0  0  0  0  0  0  0  0
    9.5120   -5.2760   27.6250 C   0  0  0  0  0  0  0  0  0  0  0  0
  1  2  2  3
  1  3  1  0
  3  4  1  0
  3  5  1  0
  4  6  1  0
  5  7  1  0
  6  8  1  0
  6  9  2  0
  7  9  1  0
  7 10  1  1
  8 11  2  0
  9 12  1  0
 10 13  2  0
 10 14  1  0
 11 15  1  0
 11 16  1  0
 12 16  2  0
 13 17  1  0
 14 18  2  0
 17 18  1  0
 15 19  1  0
 15 20  2  0
 16 21  1  0
 19 22  2  0
 19 23  1  0
 20 24  1  0
 21 24  2  0
M  CHG  2  19   1  23  -1
M  END
