SAL-INS-1c7a5a55-1-acrylamide
     RDKit          3D

 27 29  0  0  0  0  0  0  0  0999 V2000
    7.4120   -3.3790   19.2020 C   0  0  0  0  0  0  0  0  0  0  0  0
    6.0560   -2.7330   19.1770 C   0  0  0  0  0  0  0  0  0  0  0  0
    5.7440   -2.4240   20.6030 C   0  0  0  0  0  0  0  0  0  0  0  0
    4.8500   -3.0710   21.1990 O   0  0  0  0  0  0  0  0  0  0  0  0
    6.5990   -1.4140   21.1120 N   0  0  0  0  0  0  0  0  0  0  0  0
    6.8620   -1.0330   22.5650 C   0  0  0  0  0  0  0  0  0  0  0  0
    7.9050   -1.5890   20.5440 C   0  0  0  0  0  0  0  0  0  0  0  0
    7.0340   -2.2530   23.1170 C   0  0  0  0  0  0  0  0  0  0  0  0
    8.6360   -2.3460   21.6340 C   0  0  2  0  0  0  0  0  0  0  0  0
    6.4850   -2.7880   24.1060 C   0  0  0  0  0  0  0  0  0  0  0  0
    7.8900   -3.1060   22.5730 C   0  0  0  0  0  0  0  0  0  0  0  0
    9.9510   -1.8670   21.9180 C   0  0  0  0  0  0  0  0  0  0  0  0
    6.3690   -3.8660   24.7970 C   0  0  0  0  0  0  0  0  0  0  0  0
    7.8180   -4.4770   23.0880 C   0  0  0  0  0  0  0  0  0  0  0  0
   11.1370   -2.3910   21.3910 C   0  0  0  0  0  0  0  0  0  0  0  0
   10.1010   -0.7760   22.7930 C   0  0  0  0  0  0  0  0  0  0  0  0
    5.5990   -3.9030   26.0300 C   0  0  0  0  0  0  0  0  0  0  0  0
    7.0540   -4.8620   24.2100 C   0  0  0  0  0  0  0  0  0  0  0  0
   12.3990   -1.8880   21.7040 C   0  0  0  0  0  0  0  0  0  0  0  0
   11.3670   -0.2640   23.1030 C   0  0  0  0  0  0  0  0  0  0  0  0
    4.4020   -4.1380   26.0360 O   0  0  0  0  0  0  0  0  0  0  0  0
    6.4820   -3.5840   27.0890 N   0  0  0  0  0  0  0  0  0  0  0  0
   12.5170   -0.8180   22.5640 C   0  0  0  0  0  0  0  0  0  0  0  0
    7.2700   -2.3470   27.0210 C   0  0  0  0  0  0  0  0  0  0  0  0
    7.2560   -4.7310   27.6270 C   0  0  0  0  0  0  0  0  0  0  0  0
    6.4010   -5.9610   27.8320 C   0  0  0  0  0  0  0  0  0  0  0  0
    8.4870   -5.1150   26.7800 C   0  0  0  0  0  0  0  0  0  0  0  0
  1  2  1  0
  2  3  1  0
  3  4  2  0
  3  5  1  0
  5  6  1  0
  5  7  1  0
  6  8  1  0
  7  9  1  0
  8 10  1  0
  8 11  2  0
  9 11  1  0
  9 12  1  1
 10 13  2  0
 11 14  1  0
 12 15  2  0
 12 16  1  0
 13 17  1  0
 13 18  1  0
 14 18  2  0
 15 19  1  0
 16 20  2  0
 17 21  2  0
 17 22  1  0
 19 23  2  0
 20 23  1  0
 22 24  1  0
 22 25  1  0
 25 26  1  0
 25 27  1  0
M  END
