SAL-INS-1c7a5a55-7-nitrile
     RDKit          3D

 24 26  0  0  0  0  0  0  0  0999 V2000
    6.8830   -4.5700   20.4670 C   0  0  0  0  0  0  0  0  0  0  0  0
    5.8190   -5.2040   20.1030 N   0  0  0  0  0  0  0  0  0  0  0  0
    6.9250   -3.7580   21.6250 N   0  0  0  0  0  0  0  0  0  0  0  0
    7.7000   -4.0030   22.8880 C   0  0  0  0  0  0  0  0  0  0  0  0
    6.4030   -2.4240   21.3750 C   0  0  2  0  0  0  0  0  0  0  0  0
    7.0130   -4.9310   23.9060 C   0  0  0  0  0  0  0  0  0  0  0  0
    8.9720   -3.4480   23.1670 C   0  0  0  0  0  0  0  0  0  0  0  0
    5.7510   -2.3180   20.1810 C   0  0  0  0  0  0  0  0  0  0  0  0
    7.4560   -1.2820   21.3630 C   0  0  0  0  0  0  0  0  0  0  0  0
    7.7820   -5.2000   25.1800 C   0  0  0  0  0  0  0  0  0  0  0  0
    9.5740   -3.7910   24.4020 C   0  0  0  0  0  0  0  0  0  0  0  0
    9.5320   -2.5950   22.1800 C   0  0  0  0  0  0  0  0  0  0  0  0
    5.7670   -1.1000   19.5410 C   0  0  0  0  0  0  0  0  0  0  0  0
    6.6140    0.0060   20.5530 S   0  0  0  0  0  0  0  0  0  0  0  0
    9.0430   -4.6230   25.3890 C   0  0  0  0  0  0  0  0  0  0  0  0
   10.5160   -1.6370   22.7090 C   0  0  0  0  0  0  0  0  0  0  0  0
    5.6820    0.5970   21.4880 O   0  0  0  0  0  0  0  0  0  0  0  0
    7.5100    0.8360   19.7920 O   0  0  0  0  0  0  0  0  0  0  0  0
    9.7650   -4.8690   26.5590 C   0  0  0  0  0  0  0  0  0  0  0  0
   11.8460   -1.4100   22.0420 C   0  0  0  0  0  0  0  0  0  0  0  0
   10.1110   -0.9960   23.8330 C   0  0  0  0  0  0  0  0  0  0  0  0
   12.6710   -0.4760   22.6340 C   0  0  0  0  0  0  0  0  0  0  0  0
   10.9570   -0.0730   24.4080 C   0  0  0  0  0  0  0  0  0  0  0  0
   12.2230    0.2440   23.8790 C   0  0  0  0  0  0  0  0  0  0  0  0
  1  2  2  3
  1  3  1  0
  3  4  1  0
  5  3  1  6
  4  6  2  0
  4  7  1  0
  5  8  1  0
  5  9  1  0
  6 10  1  0
  7 11  2  0
  7 12  1  0
  8 13  2  0
  9 14  1  0
 14 13  1  0
 10 15  2  0
 11 15  1  0
 12 16  1  0
 14 17  2  0
 14 18  2  0
 15 19  1  0
 16 20  2  0
 16 21  1  0
 20 22  1  0
 21 23  2  0
 22 24  2  0
 23 24  1  0
M  END
