SAL-INS-1c7a5a55-5-chloroacetamide
     RDKit          3D

 26 29  0  0  0  0  0  0  0  0999 V2000
    7.4750   -2.9500   18.6590 C   0  0  0  0  0  0  0  0  0  0  0  0
    6.6000   -3.2190   19.8060 C   0  0  0  0  0  0  0  0  0  0  0  0
    5.5410   -3.8510   19.6170 O   0  0  0  0  0  0  0  0  0  0  0  0
    7.0380   -2.8730   21.0640 N   0  0  0  0  0  0  0  0  0  0  0  0
    7.1950   -4.0310   21.8530 C   0  0  0  0  0  0  0  0  0  0  0  0
    8.2200   -1.9900   21.2300 C   0  0  0  0  0  0  0  0  0  0  0  0
    7.7610   -3.7210   23.1550 C   0  0  0  0  0  0  0  0  0  0  0  0
    8.4230   -1.4270   22.6750 C   0  0  1  0  0  0  0  0  0  0  0  0
    7.7370   -4.7390   24.0250 C   0  0  0  0  0  0  0  0  0  0  0  0
    8.2960   -2.5020   23.5440 C   0  0  0  0  0  0  0  0  0  0  0  0
    9.6960   -0.8500   22.8550 C   0  0  0  0  0  0  0  0  0  0  0  0
    8.1770   -4.6040   25.2730 C   0  0  0  0  0  0  0  0  0  0  0  0
    8.7270   -2.3580   24.8770 C   0  0  0  0  0  0  0  0  0  0  0  0
   10.8880   -1.3500   22.2610 C   0  0  0  0  0  0  0  0  0  0  0  0
    9.7510    0.2760   23.6810 C   0  0  0  0  0  0  0  0  0  0  0  0
    8.1130   -5.6760   26.0050 C   0  0  0  0  0  0  0  0  0  0  0  0
    8.6550   -3.4230   25.7700 C   0  0  0  0  0  0  0  0  0  0  0  0
   12.1530   -0.7770   22.4530 C   0  0  0  0  0  0  0  0  0  0  0  0
   11.0740    0.9610   23.9360 C   0  0  0  0  0  0  0  0  0  0  0  0
    7.6120   -6.7810   25.1650 N   0  0  0  0  0  0  0  0  0  0  0  0
    8.5170   -5.6060   27.4350 C   0  0  0  0  0  0  0  0  0  0  0  0
    9.0460   -3.3280   27.1190 C   0  0  0  0  0  0  0  0  0  0  0  0
   12.3010    0.3620   23.2660 C   0  0  0  0  0  0  0  0  0  0  0  0
    6.3820   -6.8050   24.9900 O   0  0  0  0  0  0  0  0  0  0  0  0
    8.4170   -7.3340   24.4180 O   0  0  0  0  0  0  0  0  0  0  0  0
    8.9570   -4.4370   27.9360 C   0  0  0  0  0  0  0  0  0  0  0  0
  1  2  1  0
  2  3  2  0
  2  4  1  0
  4  5  1  0
  4  6  1  0
  5  7  1  0
  6  8  1  0
  7  9  1  0
  7 10  2  0
  8 10  1  0
  8 11  1  6
  9 12  2  0
 10 13  1  0
 11 14  2  0
 11 15  1  0
 12 16  1  0
 12 17  1  0
 13 17  2  0
 14 18  1  0
 15 19  2  0
 16 20  1  0
 16 21  2  0
 17 22  1  0
 18 23  2  0
 19 23  1  0
 20 24  2  0
 20 25  1  0
 21 26  1  0
 22 26  2  0
M  CHG  2  20   1  25  -1
M  END
