SAL-INS-1ea6d4ee-3-chloroacetamide
     RDKit          3D

 27 29  0  0  0  0  0  0  0  0999 V2000
    7.8010   -3.9130   20.5730 C   0  0  0  0  0  0  0  0  0  0  0  0
    6.5650   -4.7540   20.7930 C   0  0  0  0  0  0  0  0  0  0  0  0
    5.6290   -4.7080   19.9770 O   0  0  0  0  0  0  0  0  0  0  0  0
    6.5060   -5.5590   21.9260 N   0  0  0  0  0  0  0  0  0  0  0  0
    7.5580   -5.5140   22.9830 C   0  0  0  0  0  0  0  0  0  0  0  0
    5.2030   -5.7310   22.3670 C   0  0  0  0  0  0  0  0  0  0  0  0
    7.1640   -5.1350   24.2890 C   0  0  0  0  0  0  0  0  0  0  0  0
    5.0570   -4.7270   23.4770 C   0  0  1  0  0  0  0  0  0  0  0  0
    5.7560   -5.4260   24.4890 N   0  0  0  0  0  0  0  0  0  0  0  0
    5.7580   -3.4150   23.0740 C   0  0  0  0  0  0  0  0  0  0  0  0
    5.0940   -5.2730   26.0450 S   0  0  0  0  0  0  0  0  0  0  0  0
    4.7030   -2.4670   22.5270 C   0  0  0  0  0  0  0  0  0  0  0  0
    4.1300   -6.3380   26.1850 O   0  0  0  0  0  0  0  0  0  0  0  0
    6.1770   -5.0720   26.9740 O   0  0  0  0  0  0  0  0  0  0  0  0
    4.1370   -3.8380   26.0810 C   0  0  0  0  0  0  0  0  0  0  0  0
    5.1560   -1.6720   21.4430 C   0  0  0  0  0  0  0  0  0  0  0  0
    4.5410   -2.5020   26.1140 C   0  0  0  0  0  0  0  0  0  0  0  0
    2.4060   -3.9300   26.0820 S   0  0  0  0  0  0  0  0  0  0  0  0
    5.4850   -2.2820   20.1220 C   0  0  0  0  0  0  0  0  0  0  0  0
    5.2960   -0.1900   21.6320 C   0  0  0  0  0  0  0  0  0  0  0  0
    3.5190   -1.5800   26.1470 C   0  0  0  0  0  0  0  0  0  0  0  0
    2.2930   -2.2080   26.1410 C   0  0  0  0  0  0  0  0  0  0  0  0
    5.9100   -1.4780   19.1240 C   0  0  0  0  0  0  0  0  0  0  0  0
    5.7440    0.5850   20.5500 C   0  0  0  0  0  0  0  0  0  0  0  0
    5.0100    0.3110   22.7130 O   0  0  0  0  0  0  0  0  0  0  0  0
    0.7900   -1.2730   26.2000 Cl  0  0  0  0  0  0  0  0  0  0  0  0
    6.0500   -0.0210   19.3190 C   0  0  0  0  0  0  0  0  0  0  0  0
  1  2  1  0
  2  3  2  0
  2  4  1  0
  4  5  1  0
  4  6  1  0
  5  7  1  0
  6  8  1  0
  7  9  1  0
  8  9  1  0
  8 10  1  6
  9 11  1  0
 10 12  1  0
 11 13  2  0
 11 14  2  0
 11 15  1  0
 12 16  1  0
 15 17  2  0
 15 18  1  0
 16 19  2  0
 16 20  1  0
 17 21  1  0
 18 22  1  0
 21 22  2  0
 19 23  1  0
 20 24  2  0
 20 25  1  0
 22 26  1  0
 23 27  2  0
 24 27  1  0
M  END
