SAL-INS-68b48d12-12
     RDKit          3D

 38 38  0  0  0  0  0  0  0  0999 V2000
   12.0130    6.7190   24.0450 C   0  0  0  0  0  0  0  0  0  0  0  0
   12.0940    6.0620   22.6900 C   0  0  0  0  0  0  0  0  0  0  0  0
   13.0500    6.2740   21.9520 O   0  0  0  0  0  0  0  0  0  0  0  0
   11.0020    5.2490   22.4150 N   0  0  0  0  0  0  0  0  0  0  0  0
   11.0660    3.8300   22.3380 C   0  0  1  0  0  0  0  0  0  0  0  0
   12.0280    3.1590   23.0300 C   0  0  0  0  0  0  0  0  0  0  0  0
    9.7110    3.2140   22.7300 C   0  0  0  0  0  0  0  0  0  0  0  0
   11.3650    2.5120   24.1170 O   0  0  0  0  0  0  0  0  0  0  0  0
    8.7680    3.9400   23.5500 O   0  0  0  0  0  0  0  0  0  0  0  0
    9.5160    1.8350   22.1850 N   0  0  0  0  0  0  0  0  0  0  0  0
    8.7310    0.8000   22.9250 C   0  0  1  0  0  0  0  0  0  0  0  0
    9.5600   -0.1400   23.7840 C   0  0  0  0  0  0  0  0  0  0  0  0
    7.4740    1.0080   23.5190 C   0  0  0  0  0  0  0  0  0  0  0  0
   10.8370   -0.4500   23.1350 C   0  0  0  0  0  0  0  0  0  0  0  0
    6.6860   -0.0390   23.8970 O   0  0  0  0  0  0  0  0  0  0  0  0
    6.9670    2.3830   23.7330 N   0  0  0  0  0  0  0  0  0  0  0  0
   11.9440    0.4610   23.4180 C   0  0  0  0  0  0  0  0  0  0  0  0
   10.9460   -1.5650   22.3000 C   0  0  0  0  0  0  0  0  0  0  0  0
    5.5170    2.1710   24.0500 C   0  0  2  0  0  0  0  0  0  0  0  0
   13.2450    0.0870   22.6980 C   0  0  0  0  0  0  0  0  0  0  0  0
   12.1190   -1.9060   21.6550 C   0  0  0  0  0  0  0  0  0  0  0  0
    4.7620    2.1220   22.8820 C   0  0  0  0  0  0  0  0  0  0  0  0
    5.0110    3.3890   24.8490 C   0  0  0  0  0  0  0  0  0  0  0  0
   13.2580   -1.1680   21.7920 C   0  0  0  0  0  0  0  0  0  0  0  0
    5.1620    3.1330   21.9570 O   0  0  0  0  0  0  0  0  0  0  0  0
    5.4020    4.5350   24.6250 O   0  0  0  0  0  0  0  0  0  0  0  0
    4.1010    3.0940   25.8120 N   0  0  0  0  0  0  0  0  0  0  0  0
    3.5550    4.0980   26.5340 C   0  0  1  0  0  0  0  0  0  0  0  0
    2.4570    4.9610   25.9640 C   0  0  0  0  0  0  0  0  0  0  0  0
    3.0460    3.3970   27.8170 C   0  0  0  0  0  0  0  0  0  0  0  0
    2.3730    6.3780   26.5480 C   0  0  0  0  0  0  0  0  0  0  0  0
    3.8260    3.4850   28.9320 N   0  0  0  0  0  0  0  0  0  0  0  0
    1.9810    2.7770   27.8560 O   0  0  0  0  0  0  0  0  0  0  0  0
    1.6770    7.3430   25.5840 C   0  0  0  0  0  0  0  0  0  0  0  0
    1.5780    8.6850   26.1280 N   0  0  0  0  0  0  0  0  0  0  0  0
    1.1930    9.7260   25.3340 C   0  0  0  0  0  0  0  0  0  0  0  0
    2.1720   10.6570   25.2020 N   0  0  0  0  0  0  0  0  0  0  0  0
    0.1060    9.8420   24.7820 O   0  0  0  0  0  0  0  0  0  0  0  0
  1  2  1  0
  2  3  2  0
  2  4  1  0
  4  5  1  0
  5  6  1  1
  5  7  1  0
  6  8  1  0
  7  9  2  0
  7 10  1  0
 10 11  1  0
 11 12  1  1
 11 13  1  0
 12 14  1  0
 13 15  2  0
 13 16  1  0
 14 17  2  0
 14 18  1  0
 16 19  1  0
 17 20  1  0
 18 21  2  0
 19 22  1  6
 19 23  1  0
 20 24  2  0
 21 24  1  0
 22 25  1  0
 23 26  2  0
 23 27  1  0
 27 28  1  0
 28 29  1  6
 28 30  1  0
 29 31  1  0
 30 32  1  0
 30 33  2  0
 31 34  1  0
 34 35  1  0
 35 36  1  0
 36 37  1  0
 36 38  2  0
M  END
