SAL-INS-1ea6d4ee-3-acrylamide
     RDKit          3D

 28 30  0  0  0  0  0  0  0  0999 V2000
    8.1390   -3.6780   20.2960 C   0  0  0  0  0  0  0  0  0  0  0  0
    6.7370   -3.1900   20.2460 C   0  0  0  0  0  0  0  0  0  0  0  0
    5.9890   -4.4280   20.6140 C   0  0  0  0  0  0  0  0  0  0  0  0
    5.1110   -4.8260   19.8810 O   0  0  0  0  0  0  0  0  0  0  0  0
    6.4070   -5.0930   21.7610 N   0  0  0  0  0  0  0  0  0  0  0  0
    5.6380   -6.2450   22.2050 C   0  0  0  0  0  0  0  0  0  0  0  0
    7.0670   -4.4380   22.8180 C   0  0  0  0  0  0  0  0  0  0  0  0
    5.0000   -6.0770   23.4560 C   0  0  0  0  0  0  0  0  0  0  0  0
    5.9480   -4.0030   23.7320 C   0  0  1  0  0  0  0  0  0  0  0  0
    5.5810   -5.2770   24.3870 N   0  0  0  0  0  0  0  0  0  0  0  0
    6.4910   -2.7200   24.3900 C   0  0  0  0  0  0  0  0  0  0  0  0
    4.8090   -5.2550   25.9070 S   0  0  0  0  0  0  0  0  0  0  0  0
    6.9810   -2.8660   25.6790 C   0  0  0  0  0  0  0  0  0  0  0  0
    5.8360   -5.1460   26.9120 O   0  0  0  0  0  0  0  0  0  0  0  0
    3.8380   -6.3250   25.9190 O   0  0  0  0  0  0  0  0  0  0  0  0
    3.8630   -3.8380   26.0130 C   0  0  0  0  0  0  0  0  0  0  0  0
    8.3550   -3.3760   25.8120 C   0  0  0  0  0  0  0  0  0  0  0  0
    4.3620   -2.5500   26.2150 C   0  0  0  0  0  0  0  0  0  0  0  0
    2.0720   -3.8160   25.8830 S   0  0  0  0  0  0  0  0  0  0  0  0
    9.3170   -2.8270   25.0560 C   0  0  0  0  0  0  0  0  0  0  0  0
    8.6840   -4.4750   26.7630 C   0  0  0  0  0  0  0  0  0  0  0  0
    3.4240   -1.5830   26.2740 C   0  0  0  0  0  0  0  0  0  0  0  0
    2.0100   -2.1000   26.1120 C   0  0  0  0  0  0  0  0  0  0  0  0
   10.7000   -3.3040   25.1640 C   0  0  0  0  0  0  0  0  0  0  0  0
   10.0000   -4.9420   26.8770 C   0  0  0  0  0  0  0  0  0  0  0  0
    7.7770   -5.1820   27.6570 O   0  0  0  0  0  0  0  0  0  0  0  0
    0.5810   -1.1560   26.1530 Cl  0  0  0  0  0  0  0  0  0  0  0  0
   11.0400   -4.3910   26.1040 C   0  0  0  0  0  0  0  0  0  0  0  0
  1  2  1  0
  2  3  1  0
  3  4  2  0
  3  5  1  0
  5  6  1  0
  5  7  1  0
  6  8  1  0
  7  9  1  0
  8 10  1  0
  9 10  1  0
  9 11  1  1
 10 12  1  0
 11 13  1  0
 12 14  2  0
 12 15  2  0
 12 16  1  0
 13 17  1  0
 16 18  2  0
 16 19  1  0
 17 20  2  0
 17 21  1  0
 18 22  1  0
 19 23  1  0
 22 23  2  0
 20 24  1  0
 21 25  2  0
 21 26  1  0
 23 27  1  0
 24 28  2  0
 25 28  1  0
M  END
