SAL-INS-1c7a5a55-4-vinylsulfonamide
     RDKit          3D

 29 32  0  0  0  0  0  0  0  0999 V2000
    7.9810   -3.6640   19.8650 C   0  0  0  0  0  0  0  0  0  0  0  0
    7.2150   -2.6350   19.0730 C   0  0  0  0  0  0  0  0  0  0  0  0
    5.9230   -2.2740   20.1830 S   0  0  0  0  0  0  0  0  0  0  0  0
    5.0940   -3.4630   20.2840 O   0  0  0  0  0  0  0  0  0  0  0  0
    5.3850   -0.9530   19.9450 O   0  0  0  0  0  0  0  0  0  0  0  0
    6.8390   -2.2460   21.5730 N   0  0  0  0  0  0  0  0  0  0  0  0
    6.2300   -2.5060   22.8370 C   0  0  0  0  0  0  0  0  0  0  0  0
    8.1860   -1.6430   21.5760 C   0  0  0  0  0  0  0  0  0  0  0  0
    7.2220   -3.2400   23.6650 C   0  0  0  0  0  0  0  0  0  0  0  0
    9.2260   -2.3880   22.4650 C   0  0  2  0  0  0  0  0  0  0  0  0
    6.7190   -4.0300   24.6870 C   0  0  0  0  0  0  0  0  0  0  0  0
    8.6240   -3.1840   23.4850 C   0  0  0  0  0  0  0  0  0  0  0  0
   10.1060   -1.3780   22.8880 C   0  0  0  0  0  0  0  0  0  0  0  0
    7.4350   -4.7850   25.5680 C   0  0  0  0  0  0  0  0  0  0  0  0
    9.3690   -3.9700   24.3870 C   0  0  0  0  0  0  0  0  0  0  0  0
   11.3970   -1.2150   22.4450 C   0  0  0  0  0  0  0  0  0  0  0  0
    9.8020   -0.3950   23.8100 N   0  0  0  0  0  0  0  0  0  0  0  0
    6.6770   -5.4870   26.5190 C   0  0  0  0  0  0  0  0  0  0  0  0
    8.8350   -4.7700   25.4220 C   0  0  0  0  0  0  0  0  0  0  0  0
   11.8940   -0.1170   23.1050 N   0  0  0  0  0  0  0  0  0  0  0  0
   10.8880    0.3420   23.9170 C   0  0  0  0  0  0  0  0  0  0  0  0
    5.7510   -6.1700   26.1070 O   0  0  0  0  0  0  0  0  0  0  0  0
    7.0210   -5.3000   27.9710 N   0  0  0  0  0  0  0  0  0  0  0  0
    8.4910   -5.3150   28.1850 C   0  0  0  0  0  0  0  0  0  0  0  0
    6.0470   -5.7640   28.9810 C   0  0  0  0  0  0  0  0  0  0  0  0
    6.1610   -7.1030   29.5610 C   0  0  0  0  0  0  0  0  0  0  0  0
    4.9510   -5.1770   29.5520 N   0  0  0  0  0  0  0  0  0  0  0  0
    5.1470   -7.2820   30.4290 N   0  0  0  0  0  0  0  0  0  0  0  0
    4.4380   -6.0920   30.3990 C   0  0  0  0  0  0  0  0  0  0  0  0
  1  2  1  0
  3  2  1  0
  3  4  2  0
  3  5  2  0
  3  6  1  0
  6  7  1  0
  6  8  1  0
  7  9  1  0
  8 10  1  0
  9 11  1  0
  9 12  2  0
 10 12  1  0
 10 13  1  1
 11 14  2  0
 12 15  1  0
 13 16  2  0
 13 17  1  0
 14 18  1  0
 14 19  1  0
 15 19  2  0
 16 20  1  0
 17 21  2  0
 20 21  1  0
 18 22  2  0
 18 23  1  0
 23 24  1  0
 23 25  1  0
 25 26  2  0
 25 27  1  0
 26 28  1  0
 27 29  2  0
 28 29  1  0
M  END
