SAL-INS-1c7a5a55-6-chloroacetamide
     RDKit          3D

 25 28  0  0  0  0  0  0  0  0999 V2000
    7.3950   -2.9470   18.7730 C   0  0  0  0  0  0  0  0  0  0  0  0
    6.5440   -3.2990   19.9270 C   0  0  0  0  0  0  0  0  0  0  0  0
    5.5580   -4.0410   19.7350 O   0  0  0  0  0  0  0  0  0  0  0  0
    6.8720   -2.8450   21.2050 N   0  0  0  0  0  0  0  0  0  0  0  0
    6.3250   -3.5030   22.3490 C   0  0  0  0  0  0  0  0  0  0  0  0
    7.9510   -1.8650   21.4920 C   0  0  0  0  0  0  0  0  0  0  0  0
    7.3700   -3.7540   23.3740 C   0  0  0  0  0  0  0  0  0  0  0  0
    9.1690   -2.4530   22.2760 C   0  0  2  0  0  0  0  0  0  0  0  0
    6.9790   -4.5440   24.4330 C   0  0  0  0  0  0  0  0  0  0  0  0
    8.6890   -3.2480   23.3360 C   0  0  0  0  0  0  0  0  0  0  0  0
   10.0110   -1.4210   22.7290 C   0  0  0  0  0  0  0  0  0  0  0  0
    7.8140   -4.8420   25.4580 C   0  0  0  0  0  0  0  0  0  0  0  0
    9.5590   -3.5560   24.4140 C   0  0  0  0  0  0  0  0  0  0  0  0
   11.3500   -1.2670   22.3710 C   0  0  0  0  0  0  0  0  0  0  0  0
    9.6390   -0.4250   23.6050 N   0  0  0  0  0  0  0  0  0  0  0  0
    7.3610   -5.6280   26.4770 C   0  0  0  0  0  0  0  0  0  0  0  0
    9.1250   -4.3520   25.4900 C   0  0  0  0  0  0  0  0  0  0  0  0
   11.8150   -0.1550   23.0390 N   0  0  0  0  0  0  0  0  0  0  0  0
   10.7720    0.3310   23.7700 C   0  0  0  0  0  0  0  0  0  0  0  0
    5.9850   -6.1580   26.4350 N   0  0  0  0  0  0  0  0  0  0  0  0
    8.2150   -5.9380   27.6050 C   0  0  0  0  0  0  0  0  0  0  0  0
    9.9720   -4.6550   26.5790 C   0  0  0  0  0  0  0  0  0  0  0  0
    5.3770   -6.1880   27.5120 O   0  0  0  0  0  0  0  0  0  0  0  0
    5.4160   -6.1630   25.3360 O   0  0  0  0  0  0  0  0  0  0  0  0
    9.4850   -5.4430   27.6280 C   0  0  0  0  0  0  0  0  0  0  0  0
  1  2  1  0
  2  3  2  0
  2  4  1  0
  4  5  1  0
  4  6  1  0
  5  7  1  0
  6  8  1  0
  7  9  1  0
  7 10  2  0
  8 10  1  0
  8 11  1  1
  9 12  2  0
 10 13  1  0
 11 14  2  0
 11 15  1  0
 12 16  1  0
 12 17  1  0
 13 17  2  0
 14 18  1  0
 15 19  2  0
 18 19  1  0
 16 20  1  0
 16 21  2  0
 17 22  1  0
 20 23  2  0
 20 24  1  0
 21 25  1  0
 22 25  2  0
M  CHG  2  20   1  24  -1
M  END
