SAL-INS-1c7a5a55-1-bromoalkyne
     RDKit          3D

 25 27  0  0  0  0  0  0  0  0999 V2000
    7.2190   -3.2160   19.6670 C   0  0  0  0  0  0  0  0  0  0  0  0
    5.9710   -2.9670   18.8800 C   0  0  0  0  0  0  0  0  0  0  0  0
    7.3500   -2.8910   21.0030 N   0  0  0  0  0  0  0  0  0  0  0  0
    6.5060   -3.3570   22.0670 C   0  0  0  0  0  0  0  0  0  0  0  0
    8.2590   -1.8390   21.4830 C   0  0  0  0  0  0  0  0  0  0  0  0
    7.3790   -3.6250   23.2560 C   0  0  0  0  0  0  0  0  0  0  0  0
    9.3520   -2.4500   22.3880 C   0  0  2  0  0  0  0  0  0  0  0  0
    6.8070   -4.3420   24.2770 C   0  0  0  0  0  0  0  0  0  0  0  0
    8.7260   -3.1980   23.3970 C   0  0  0  0  0  0  0  0  0  0  0  0
   10.2730   -1.4810   22.7660 C   0  0  0  0  0  0  0  0  0  0  0  0
    7.4590   -4.6760   25.4230 C   0  0  0  0  0  0  0  0  0  0  0  0
    9.4040   -3.5490   24.5760 C   0  0  0  0  0  0  0  0  0  0  0  0
    9.8880   -0.5080   23.6690 C   0  0  0  0  0  0  0  0  0  0  0  0
   11.5780   -1.5140   22.2260 C   0  0  0  0  0  0  0  0  0  0  0  0
    6.6900   -5.3820   26.3150 C   0  0  0  0  0  0  0  0  0  0  0  0
    8.7940   -4.2860   25.6010 C   0  0  0  0  0  0  0  0  0  0  0  0
   10.8050    0.4780   24.0650 C   0  0  0  0  0  0  0  0  0  0  0  0
   12.5240   -0.5650   22.5840 C   0  0  0  0  0  0  0  0  0  0  0  0
    5.7590   -6.0400   25.8660 O   0  0  0  0  0  0  0  0  0  0  0  0
    6.9910   -5.2280   27.7550 N   0  0  0  0  0  0  0  0  0  0  0  0
   12.1030    0.5120   23.5760 C   0  0  0  0  0  0  0  0  0  0  0  0
    8.4060   -5.5000   28.1210 C   0  0  0  0  0  0  0  0  0  0  0  0
    5.8410   -5.3210   28.6410 C   0  0  0  0  0  0  0  0  0  0  0  0
    6.0140   -6.4020   29.6650 C   0  0  0  0  0  0  0  0  0  0  0  0
    5.5910   -3.9510   29.2730 C   0  0  0  0  0  0  0  0  0  0  0  0
  1  2  2  3
  1  3  1  0
  3  4  1  0
  3  5  1  0
  4  6  1  0
  5  7  1  0
  6  8  1  0
  6  9  2  0
  7  9  1  0
  7 10  1  1
  8 11  2  0
  9 12  1  0
 10 13  2  0
 10 14  1  0
 11 15  1  0
 11 16  1  0
 12 16  2  0
 13 17  1  0
 14 18  2  0
 15 19  2  0
 15 20  1  0
 17 21  2  0
 18 21  1  0
 20 22  1  0
 20 23  1  0
 23 24  1  0
 23 25  1  0
M  END
