SAL-INS-1c7a5a55-1-vinylsulfonamide
     RDKit          3D

 28 30  0  0  0  0  0  0  0  0999 V2000
    6.8040   -3.2620   18.5490 C   0  0  0  0  0  0  0  0  0  0  0  0
    6.8700   -1.8820   18.9440 C   0  0  0  0  0  0  0  0  0  0  0  0
    5.5180   -1.8330   20.0320 S   0  0  0  0  0  0  0  0  0  0  0  0
    4.9810   -3.2000   20.3530 O   0  0  0  0  0  0  0  0  0  0  0  0
    4.6680   -0.7240   19.6760 O   0  0  0  0  0  0  0  0  0  0  0  0
    6.5060   -1.2910   21.2210 N   0  0  0  0  0  0  0  0  0  0  0  0
    6.0490   -1.4720   22.5560 C   0  0  0  0  0  0  0  0  0  0  0  0
    7.9600   -1.1470   20.9320 C   0  0  0  0  0  0  0  0  0  0  0  0
    6.9780   -2.3590   23.1920 C   0  0  0  0  0  0  0  0  0  0  0  0
    8.8260   -1.5180   22.1350 C   0  0  1  0  0  0  0  0  0  0  0  0
    6.4660   -3.1280   24.0880 C   0  0  0  0  0  0  0  0  0  0  0  0
    8.2910   -2.4560   22.9690 C   0  0  0  0  0  0  0  0  0  0  0  0
   10.2010   -1.2180   22.1940 C   0  0  0  0  0  0  0  0  0  0  0  0
    7.0470   -4.0230   24.7890 C   0  0  0  0  0  0  0  0  0  0  0  0
    8.9890   -3.4450   23.6280 C   0  0  0  0  0  0  0  0  0  0  0  0
   10.5760   -0.0570   22.8530 C   0  0  0  0  0  0  0  0  0  0  0  0
   11.1830   -2.0370   21.6430 C   0  0  0  0  0  0  0  0  0  0  0  0
    6.2660   -4.5810   25.7090 C   0  0  0  0  0  0  0  0  0  0  0  0
    8.3540   -4.2680   24.5640 C   0  0  0  0  0  0  0  0  0  0  0  0
   11.9290    0.3100   22.9830 C   0  0  0  0  0  0  0  0  0  0  0  0
   12.5430   -1.7410   21.7340 C   0  0  0  0  0  0  0  0  0  0  0  0
    5.3160   -5.2920   25.4560 O   0  0  0  0  0  0  0  0  0  0  0  0
    6.8020   -4.0450   27.0130 N   0  0  0  0  0  0  0  0  0  0  0  0
   12.9460   -0.4610   22.4650 C   0  0  0  0  0  0  0  0  0  0  0  0
    7.2080   -2.6010   26.9470 C   0  0  0  0  0  0  0  0  0  0  0  0
    7.5840   -4.9440   27.8010 C   0  0  0  0  0  0  0  0  0  0  0  0
    6.7010   -6.0800   28.1520 C   0  0  0  0  0  0  0  0  0  0  0  0
    8.7790   -5.4400   26.9680 C   0  0  0  0  0  0  0  0  0  0  0  0
  1  2  1  0
  3  2  1  0
  3  4  2  0
  3  5  2  0
  3  6  1  0
  6  7  1  0
  6  8  1  0
  7  9  1  0
  8 10  1  0
  9 11  1  0
  9 12  2  0
 10 12  1  0
 10 13  1  6
 11 14  2  0
 12 15  1  0
 13 16  2  0
 13 17  1  0
 14 18  1  0
 14 19  1  0
 15 19  2  0
 16 20  1  0
 17 21  2  0
 18 22  2  0
 18 23  1  0
 20 24  2  0
 21 24  1  0
 23 25  1  0
 23 26  1  0
 26 27  1  0
 26 28  1  0
M  END
