SAL-INS-1c7a5a55-2-vinylsulfonamide
     RDKit          3D

 30 33  0  0  0  0  0  0  0  0999 V2000
    8.0350   -3.4000   19.3440 C   0  0  0  0  0  0  0  0  0  0  0  0
    6.9810   -2.4200   18.9230 C   0  0  0  0  0  0  0  0  0  0  0  0
    5.9110   -2.2400   20.2970 S   0  0  0  0  0  0  0  0  0  0  0  0
    5.0540   -3.3970   20.2800 O   0  0  0  0  0  0  0  0  0  0  0  0
    5.3940   -0.8910   20.3590 O   0  0  0  0  0  0  0  0  0  0  0  0
    6.9400   -2.4830   21.5860 N   0  0  0  0  0  0  0  0  0  0  0  0
    6.4110   -3.1900   22.7380 C   0  0  0  0  0  0  0  0  0  0  0  0
    8.1240   -1.6370   21.7780 C   0  0  0  0  0  0  0  0  0  0  0  0
    7.5210   -3.5840   23.6610 C   0  0  0  0  0  0  0  0  0  0  0  0
    9.3050   -2.4350   22.3950 C   0  0  2  0  0  0  0  0  0  0  0  0
    7.2290   -4.3650   24.7920 C   0  0  0  0  0  0  0  0  0  0  0  0
    8.8700   -3.2140   23.4770 C   0  0  0  0  0  0  0  0  0  0  0  0
   10.3060   -1.5390   22.7400 C   0  0  0  0  0  0  0  0  0  0  0  0
    8.1560   -4.7910   25.7310 C   0  0  0  0  0  0  0  0  0  0  0  0
    9.7880   -3.6540   24.4320 C   0  0  0  0  0  0  0  0  0  0  0  0
   10.0250   -0.6290   23.7310 C   0  0  0  0  0  0  0  0  0  0  0  0
   11.5610   -1.5780   22.0970 C   0  0  0  0  0  0  0  0  0  0  0  0
    7.7860   -5.5550   26.8300 C   0  0  0  0  0  0  0  0  0  0  0  0
    9.4840   -4.4280   25.5500 C   0  0  0  0  0  0  0  0  0  0  0  0
   11.0030    0.2900   24.1200 C   0  0  0  0  0  0  0  0  0  0  0  0
   12.5650   -0.6840   22.4490 C   0  0  0  0  0  0  0  0  0  0  0  0
    8.4880   -6.4890   27.1500 O   0  0  0  0  0  0  0  0  0  0  0  0
    6.5230   -5.1100   27.5200 N   0  0  0  0  0  0  0  0  0  0  0  0
   12.2590    0.3270   23.5410 C   0  0  0  0  0  0  0  0  0  0  0  0
    6.7670   -4.0160   28.5000 C   0  0  0  0  0  0  0  0  0  0  0  0
    5.3740   -6.0090   27.6050 C   0  0  0  0  0  0  0  0  0  0  0  0
    4.6260   -6.3920   26.3920 C   0  0  0  0  0  0  0  0  0  0  0  0
    4.7900   -6.6290   28.6690 N   0  0  0  0  0  0  0  0  0  0  0  0
    3.6340   -7.2220   26.7980 N   0  0  0  0  0  0  0  0  0  0  0  0
    3.7700   -7.3380   28.1690 C   0  0  0  0  0  0  0  0  0  0  0  0
  1  2  1  0
  3  2  1  0
  3  4  2  0
  3  5  2  0
  3  6  1  0
  6  7  1  0
  6  8  1  0
  7  9  1  0
  8 10  1  0
  9 11  1  0
  9 12  2  0
 10 12  1  0
 10 13  1  1
 11 14  2  0
 12 15  1  0
 13 16  2  0
 13 17  1  0
 14 18  1  0
 14 19  1  0
 15 19  2  0
 16 20  1  0
 17 21  2  0
 18 22  2  0
 18 23  1  0
 20 24  2  0
 21 24  1  0
 23 25  1  0
 23 26  1  0
 26 27  2  0
 26 28  1  0
 27 29  1  0
 28 30  2  0
 29 30  1  0
M  END
