SAM-UNK-903735bd-2
     RDKit          3D

 23 24  0  0  0  0  0  0  0  0999 V2000
    9.1510    6.5730   22.5750 C   0  0  0  0  0  0  0  0  0  0  0  0
   10.3560    6.1380   23.3790 C   0  0  0  0  0  0  0  0  0  0  0  0
   10.3050    6.1790   24.6030 O   0  0  0  0  0  0  0  0  0  0  0  0
   11.5100    5.6970   22.5760 N   0  0  0  0  0  0  0  0  0  0  0  0
   12.4650    4.9160   23.3620 C   0  0  0  0  0  0  0  0  0  0  0  0
   12.5830    3.5130   22.8040 C   0  0  0  0  0  0  0  0  0  0  0  0
   11.6180    2.5420   23.1730 C   0  0  0  0  0  0  0  0  0  0  0  0
   10.4040    2.8750   23.7450 C   0  0  0  0  0  0  0  0  0  0  0  0
   11.7010    1.1110   23.0100 C   0  0  0  0  0  0  0  0  0  0  0  0
    9.6630    1.6110   23.9490 N   0  0  0  0  0  0  0  0  0  0  0  0
   10.5280    0.5210   23.4460 C   0  0  0  0  0  0  0  0  0  0  0  0
   12.6830    0.2840   22.5140 C   0  0  0  0  0  0  0  0  0  0  0  0
   10.2410   -0.9560   23.3870 C   0  0  0  0  0  0  0  0  0  0  0  0
   12.4890   -1.0990   22.4150 C   0  0  0  0  0  0  0  0  0  0  0  0
    9.0750   -1.6930   23.7920 C   0  0  0  0  0  0  0  0  0  0  0  0
   11.2900   -1.7200   22.8340 C   0  0  0  0  0  0  0  0  0  0  0  0
   13.4550   -1.8660   21.9080 F   0  0  0  0  0  0  0  0  0  0  0  0
    9.2210   -3.1760   23.9670 C   0  0  0  0  0  0  0  0  0  0  0  0
    8.1190   -3.5230   24.7120 N   0  0  0  0  0  0  0  0  0  0  0  0
    8.1190   -4.4440   26.1510 S   0  0  0  0  0  0  0  0  0  0  0  0
    6.5150   -5.2000   26.1760 C   0  0  0  0  0  0  0  0  0  0  0  0
    9.0980   -5.4980   26.0390 O   0  0  0  0  0  0  0  0  0  0  0  0
    8.1640   -3.4910   27.2390 O   0  0  0  0  0  0  0  0  0  0  0  0
  1  2  1  0
  2  3  2  0
  2  4  1  0
  4  5  1  0
  5  6  1  0
  6  7  1  0
  7  8  2  0
  7  9  1  0
  8 10  1  0
  9 11  2  0
 10 11  1  0
  9 12  1  0
 11 13  1  0
 12 14  2  0
 13 15  1  0
 13 16  2  0
 14 16  1  0
 14 17  1  0
 15 18  1  0
 18 19  1  0
 20 19  1  0
 20 21  1  0
 20 22  2  0
 20 23  2  0
M  END
