SAM-UNK-83e03154-2
     RDKit          3D

 23 24  0  0  0  0  0  0  0  0999 V2000
   17.7030    4.4230   22.2530 C   0  0  0  0  0  0  0  0  0  0  0  0
   16.3540    4.4520   22.8610 C   0  0  0  0  0  0  0  0  0  0  0  0
   16.2760    4.9000   23.9710 O   0  0  0  0  0  0  0  0  0  0  0  0
   15.3210    3.9200   22.0660 N   0  0  0  0  0  0  0  0  0  0  0  0
   14.1210    3.2820   22.3810 C   0  0  0  0  0  0  0  0  0  0  0  0
   12.7800    3.6840   22.8740 C   0  0  0  0  0  0  0  0  0  0  0  0
   11.7510    2.5570   23.1730 C   0  0  0  0  0  0  0  0  0  0  0  0
   10.3760    2.8270   23.7880 C   0  0  0  0  0  0  0  0  0  0  0  0
   11.7990    1.1370   22.9810 C   0  0  0  0  0  0  0  0  0  0  0  0
    9.7460    1.6190   23.8920 N   0  0  0  0  0  0  0  0  0  0  0  0
   10.5670    0.5860   23.4050 C   0  0  0  0  0  0  0  0  0  0  0  0
   12.7530    0.2910   22.4910 C   0  0  0  0  0  0  0  0  0  0  0  0
   10.2900   -0.8980   23.2980 C   0  0  0  0  0  0  0  0  0  0  0  0
   12.5140   -1.0740   22.3720 C   0  0  0  0  0  0  0  0  0  0  0  0
    9.0110   -1.5910   23.7170 C   0  0  0  0  0  0  0  0  0  0  0  0
   11.3280   -1.6600   22.7520 C   0  0  0  0  0  0  0  0  0  0  0  0
   13.4670   -1.8560   21.8650 F   0  0  0  0  0  0  0  0  0  0  0  0
    9.1620   -3.0930   24.0150 C   0  0  0  0  0  0  0  0  0  0  0  0
    7.9610   -3.5990   24.7010 N   0  0  0  0  0  0  0  0  0  0  0  0
    8.1060   -4.4210   26.1570 S   0  0  0  0  0  0  0  0  0  0  0  0
    6.5340   -5.2380   26.3220 C   0  0  0  0  0  0  0  0  0  0  0  0
    9.1120   -5.4400   25.9630 O   0  0  0  0  0  0  0  0  0  0  0  0
    8.1880   -3.4440   27.2150 O   0  0  0  0  0  0  0  0  0  0  0  0
  1  2  1  0
  2  3  2  0
  2  4  1  0
  4  5  1  0
  5  6  2  3
  6  7  1  0
  7  8  2  0
  7  9  1  0
  8 10  1  0
  9 11  2  0
 10 11  1  0
  9 12  1  0
 11 13  1  0
 12 14  2  0
 13 15  1  0
 13 16  2  0
 14 16  1  0
 14 17  1  0
 15 18  1  0
 18 19  1  0
 20 19  1  0
 20 21  1  0
 20 22  2  0
 20 23  2  0
M  END
