SAN-PRS-c955de36-1
     RDKit          3D

 13 13  0  0  0  0  0  0  0  0999 V2000
   12.9610    1.5880   22.9810 C   0  0  0  0  0  0  0  0  0  0  0  0
   13.9270    0.5340   23.0750 O   0  0  0  0  0  0  0  0  0  0  0  0
   13.4110   -0.5870   23.6220 C   0  0  0  0  0  0  0  0  0  0  0  0
   13.8760   -1.4820   24.2960 O   0  0  0  0  0  0  0  0  0  0  0  0
   12.0450   -0.6050   23.2570 C   0  0  0  0  0  0  0  0  0  0  0  0
   11.6960   -1.6350   22.2330 C   0  0  0  0  0  0  0  0  0  0  0  0
   11.1820    0.2900   23.8480 C   0  0  0  0  0  0  0  0  0  0  0  0
   10.2570   -1.6400   21.8740 C   0  0  0  0  0  0  0  0  0  0  0  0
    9.8600    0.2630   23.4920 C   0  0  0  0  0  0  0  0  0  0  0  0
    9.3730   -0.6440   22.5540 C   0  0  0  0  0  0  0  0  0  0  0  0
    8.0530   -0.6630   22.2040 C   0  0  0  0  0  0  0  0  0  0  0  0
    7.6800    0.0730   21.1060 N   0  0  0  0  0  0  0  0  0  0  0  0
    7.2320   -1.3090   22.8420 O   0  0  0  0  0  0  0  0  0  0  0  0
  1  2  1  0
  2  3  1  0
  3  4  2  0
  3  5  1  0
  5  6  2  0
  5  7  1  0
  6  8  1  0
  7  9  2  0
  8 10  2  0
  9 10  1  0
 10 11  1  0
 11 12  1  0
 11 13  2  0
M  END
