SAN-PRS-3c4a6997-6
     RDKit          3D

 16 17  0  0  0  0  0  0  0  0999 V2000
    8.7980    1.3080   24.7730 C   0  0  0  0  0  0  0  0  0  0  0  0
   10.0930    1.3830   24.1170 N   0  0  0  0  0  0  0  0  0  0  0  0
   10.6790    2.6700   23.8640 C   0  0  0  0  0  0  0  0  0  0  0  0
   10.9340    0.3910   23.6500 C   0  0  0  0  0  0  0  0  0  0  0  0
   10.2470    3.7980   24.1180 O   0  0  0  0  0  0  0  0  0  0  0  0
   12.0120    2.4280   23.1860 C   0  0  0  0  0  0  0  0  0  0  0  0
   12.1020    0.9960   23.0900 C   0  0  0  0  0  0  0  0  0  0  0  0
   10.7760   -1.0050   23.6660 C   0  0  0  0  0  0  0  0  0  0  0  0
   12.7640    3.3500   22.8430 O   0  0  0  0  0  0  0  0  0  0  0  0
   13.1280    0.0480   22.5410 C   0  0  0  0  0  0  0  0  0  0  0  0
   11.7490   -1.8610   23.1290 C   0  0  0  0  0  0  0  0  0  0  0  0
   12.1570    4.6230   22.9750 N   0  0  0  0  0  0  0  0  0  0  0  0
   12.9130   -1.3340   22.5720 C   0  0  0  0  0  0  0  0  0  0  0  0
   10.7790    4.6470   22.7430 C   0  0  0  0  0  0  0  0  0  0  0  0
   10.2100    5.8550   23.0840 N   0  0  0  0  0  0  0  0  0  0  0  0
    9.7410    3.3310   22.1140 S   0  0  0  0  0  0  0  0  0  0  0  0
  1  2  1  0
  2  3  1  0
  2  4  1  0
  3  5  1  0
  3  6  2  0
  4  7  2  0
  6  7  1  0
  4  8  1  0
  6  9  1  0
  7 10  1  0
  8 11  2  0
  9 12  1  0
 10 13  2  0
 11 13  1  0
 12 14  1  0
 14 15  1  0
 14 16  2  0
M  END
