SAN-PRS-3c4a6997-1
     RDKit          3D

 16 17  0  0  0  0  0  0  0  0999 V2000
    9.0630    6.6050   22.6020 C   0  0  0  0  0  0  0  0  0  0  0  0
   10.2970    6.1920   23.3580 C   0  0  0  0  0  0  0  0  0  0  0  0
   10.3970    6.3080   24.5760 O   0  0  0  0  0  0  0  0  0  0  0  0
   11.2750    5.6830   22.5480 N   0  0  0  0  0  0  0  0  0  0  0  0
   12.4870    5.0550   23.1080 C   0  0  0  0  0  0  0  0  0  0  0  0
   12.6740    3.6330   22.5460 C   0  0  0  0  0  0  0  0  0  0  0  0
   11.6840    2.6030   23.1360 C   0  0  0  0  0  0  0  0  0  0  0  0
   10.4450    2.9650   23.8590 C   0  0  0  0  0  0  0  0  0  0  0  0
   11.7130    1.1820   23.1120 C   0  0  0  0  0  0  0  0  0  0  0  0
    9.8240    1.7850   24.2240 N   0  0  0  0  0  0  0  0  0  0  0  0
   10.5680    0.7180   23.7790 C   0  0  0  0  0  0  0  0  0  0  0  0
   12.6010    0.2640   22.5790 C   0  0  0  0  0  0  0  0  0  0  0  0
   10.2370   -0.5990   23.9560 C   0  0  0  0  0  0  0  0  0  0  0  0
   12.2670   -1.0990   22.7230 C   0  0  0  0  0  0  0  0  0  0  0  0
   11.1230   -1.5470   23.3960 C   0  0  0  0  0  0  0  0  0  0  0  0
   13.2490   -2.2820   22.0570 Cl  0  0  0  0  0  0  0  0  0  0  0  0
  1  2  1  0
  2  3  2  0
  2  4  1  0
  4  5  1  0
  5  6  1  0
  6  7  1  0
  7  8  2  0
  7  9  1  0
  8 10  1  0
  9 11  2  0
 10 11  1  0
  9 12  1  0
 11 13  1  0
 12 14  2  0
 13 15  2  0
 14 15  1  0
 14 16  1  0
M  END
