SAN-PRS-3c4a6997-11
     RDKit          3D

 16 17  0  0  0  0  0  0  0  0999 V2000
    8.3070    1.4410   23.6350 C   0  0  0  0  0  0  0  0  0  0  0  0
    9.7350    1.5010   23.3480 N   0  0  0  0  0  0  0  0  0  0  0  0
   10.3710    2.7870   23.2690 C   0  0  0  0  0  0  0  0  0  0  0  0
   10.7270    0.4690   23.1060 C   0  0  0  0  0  0  0  0  0  0  0  0
    9.8950    3.8990   23.4070 O   0  0  0  0  0  0  0  0  0  0  0  0
   11.8360    2.5450   22.9660 C   0  0  0  0  0  0  0  0  0  0  0  0
   11.9920    1.0940   22.8780 C   0  0  0  0  0  0  0  0  0  0  0  0
   10.5910   -0.9270   23.0740 C   0  0  0  0  0  0  0  0  0  0  0  0
   12.8470    3.7050   22.8070 C   0  0  0  0  0  0  0  0  0  0  0  0
   13.0820    0.2760   22.6250 C   0  0  0  0  0  0  0  0  0  0  0  0
   11.7030   -1.7320   22.8050 C   0  0  0  0  0  0  0  0  0  0  0  0
   12.5020    5.2090   22.8090 C   0  0  0  0  0  0  0  0  0  0  0  0
   12.9470   -1.1420   22.5770 C   0  0  0  0  0  0  0  0  0  0  0  0
   11.1120    5.8050   22.9510 C   0  0  0  0  0  0  0  0  0  0  0  0
   10.1390    5.5300   23.9080 N   0  0  0  0  0  0  0  0  0  0  0  0
   10.8340    6.7330   22.0120 O   0  0  0  0  0  0  0  0  0  0  0  0
  1  2  1  0
  2  3  1  0
  2  4  1  0
  3  5  1  0
  3  6  2  0
  4  7  2  0
  6  7  1  0
  4  8  1  0
  6  9  1  0
  7 10  1  0
  8 11  2  0
  9 12  2  3
 10 13  2  0
 11 13  1  0
 12 14  1  0
 14 15  1  0
 14 16  2  0
M  END
