SAN-PRS-3c4a6997-7
     RDKit          3D

 16 17  0  0  0  0  0  0  0  0999 V2000
    8.6490    1.2060   24.6900 C   0  0  0  0  0  0  0  0  0  0  0  0
    9.9600    1.3180   24.0660 N   0  0  0  0  0  0  0  0  0  0  0  0
   10.4950    2.6230   23.8020 C   0  0  0  0  0  0  0  0  0  0  0  0
   10.8610    0.3520   23.6360 C   0  0  0  0  0  0  0  0  0  0  0  0
   10.0150    3.7330   24.0070 O   0  0  0  0  0  0  0  0  0  0  0  0
   11.8480    2.4160   23.1780 C   0  0  0  0  0  0  0  0  0  0  0  0
   12.0220    0.9940   23.0940 C   0  0  0  0  0  0  0  0  0  0  0  0
   10.7660   -1.0460   23.6700 C   0  0  0  0  0  0  0  0  0  0  0  0
   12.6540    3.5850   22.8030 N   0  0  0  0  0  0  0  0  0  0  0  0
   13.1050    0.0920   22.5830 C   0  0  0  0  0  0  0  0  0  0  0  0
   11.7910   -1.8620   23.1690 C   0  0  0  0  0  0  0  0  0  0  0  0
   12.2820    4.6900   23.5440 N   0  0  0  0  0  0  0  0  0  0  0  0
   12.9480   -1.2980   22.6290 C   0  0  0  0  0  0  0  0  0  0  0  0
   11.6300    5.7050   22.7250 C   0  0  0  0  0  0  0  0  0  0  0  0
   10.4480    6.1790   23.2590 N   0  0  0  0  0  0  0  0  0  0  0  0
   12.0500    6.1320   21.6740 O   0  0  0  0  0  0  0  0  0  0  0  0
  1  2  1  0
  2  3  1  0
  2  4  1  0
  3  5  1  0
  3  6  2  0
  4  7  2  0
  6  7  1  0
  4  8  1  0
  6  9  1  0
  7 10  1  0
  8 11  2  0
  9 12  2  3
 10 13  2  0
 11 13  1  0
 12 14  1  0
 14 15  1  0
 14 16  2  0
M  END
