SAN-PRS-52b81272-1
     RDKit          3D

 16 17  0  0  0  0  0  0  0  0999 V2000
    6.9660   -1.2750   22.2290 O   0  0  0  0  0  0  0  0  0  0  0  0
    7.4670   -0.3730   21.5700 C   0  0  0  0  0  0  0  0  0  0  0  0
    8.7790    0.2170   21.8050 N   0  0  0  0  0  0  0  0  0  0  0  0
    6.7030    0.1830   20.4320 C   0  0  0  0  0  0  0  0  0  0  0  0
    9.4310    0.0700   23.0350 C   0  0  0  0  0  0  0  0  0  0  0  0
    5.6120    1.0470   20.5480 C   0  0  0  0  0  0  0  0  0  0  0  0
    7.0850   -0.1700   19.1290 C   0  0  0  0  0  0  0  0  0  0  0  0
   10.2940   -1.0030   23.2480 C   0  0  0  0  0  0  0  0  0  0  0  0
    4.9540    1.5240   19.4400 C   0  0  0  0  0  0  0  0  0  0  0  0
    6.4970    0.2550   17.9660 N   0  0  0  0  0  0  0  0  0  0  0  0
   11.2860   -1.1210   22.2940 C   0  0  0  0  0  0  0  0  0  0  0  0
   11.0230   -0.7790   24.5870 C   0  0  0  0  0  0  0  0  0  0  0  0
    5.4510    1.0860   18.1010 C   0  0  0  0  0  0  0  0  0  0  0  0
   12.4080   -1.8300   22.6340 C   0  0  0  0  0  0  0  0  0  0  0  0
   12.4820   -0.3500   24.4890 C   0  0  0  0  0  0  0  0  0  0  0  0
   13.2680   -1.1850   23.6920 C   0  0  0  0  0  0  0  0  0  0  0  0
  1  2  2  0
  2  3  1  0
  2  4  1  0
  3  5  1  0
  4  6  2  0
  4  7  1  0
  5  8  1  0
  6  9  1  0
  7 10  2  0
  8 11  1  0
  8 12  1  0
  9 13  2  0
 10 13  1  0
 11 14  1  0
 12 15  1  0
 14 16  1  0
 15 16  1  0
M  END
