SAN-PRI-c9355cc8-1
     RDKit          3D

 15 17  0  0  0  0  0  0  0  0999 V2000
    2.1830  -24.9020    1.0180 C   0  0  0  0  0  0  0  0  0  0  0  0
    3.5940  -25.3930    0.7920 C   0  0  0  0  0  0  0  0  0  0  0  0
    4.4870  -24.5460    0.1830 C   0  0  0  0  0  0  0  0  0  0  0  0
    1.9410  -23.6060    0.5660 C   0  0  0  0  0  0  0  0  0  0  0  0
    2.8780  -22.8010   -0.0410 N   0  0  0  0  0  0  0  0  0  0  0  0
    4.1410  -23.2660   -0.2310 C   0  0  0  0  0  0  0  0  0  0  0  0
    5.0610  -22.4360   -0.8420 N   0  0  0  0  0  0  0  0  0  0  0  0
    6.3920  -22.9670   -1.1490 C   0  0  0  0  0  0  0  0  0  0  0  0
    5.0500  -20.9710   -0.7450 C   0  0  0  0  0  0  0  0  0  0  0  0
    7.1770  -21.6830   -1.4110 C   0  0  0  0  0  0  0  0  0  0  0  0
    6.2130  -20.5530   -1.6450 C   0  0  2  0  0  0  0  0  0  0  0  0
    6.7790  -19.2970   -1.4470 C   0  0  0  0  0  0  0  0  0  0  0  0
    5.8410  -20.4270   -3.1260 C   0  0  0  0  0  0  0  0  0  0  0  0
    7.4680  -18.8760   -2.5810 C   0  0  0  0  0  0  0  0  0  0  0  0
    6.6850  -19.3890   -3.6640 O   0  0  0  0  0  0  0  0  0  0  0  0
  1  2  2  0
  2  3  1  0
  1  4  1  0
  4  5  2  0
  3  6  2  0
  5  6  1  0
  6  7  1  0
  7  8  1  0
  7  9  1  0
  8 10  1  0
 11  9  1  1
 10 11  1  0
 11 12  1  0
 11 13  1  0
 12 14  1  0
 13 15  1  0
 14 15  1  0
M  END
