SAN-PRS-3c4a6997-12
     RDKit          3D

 16 17  0  0  0  0  0  0  0  0999 V2000
    8.6480    1.1630   24.8280 C   0  0  0  0  0  0  0  0  0  0  0  0
    9.9320    1.2710   24.1510 N   0  0  0  0  0  0  0  0  0  0  0  0
   10.4550    2.5580   23.8170 C   0  0  0  0  0  0  0  0  0  0  0  0
   10.8670    0.2640   23.7010 C   0  0  0  0  0  0  0  0  0  0  0  0
    9.9840    3.6770   23.9980 O   0  0  0  0  0  0  0  0  0  0  0  0
   11.7920    2.3390   23.1440 C   0  0  0  0  0  0  0  0  0  0  0  0
   11.9910    0.9060   23.1000 C   0  0  0  0  0  0  0  0  0  0  0  0
   10.8200   -1.1280   23.7680 C   0  0  0  0  0  0  0  0  0  0  0  0
   12.6330    3.5250   22.6560 C   0  0  0  0  0  0  0  0  0  0  0  0
   13.0150    0.1080   22.6030 C   0  0  0  0  0  0  0  0  0  0  0  0
   11.8420   -1.9270   23.2530 C   0  0  0  0  0  0  0  0  0  0  0  0
   12.3340    4.7820   23.4670 C   0  0  0  0  0  0  0  0  0  0  0  0
   12.9500   -1.3110   22.6640 C   0  0  0  0  0  0  0  0  0  0  0  0
   11.6170    5.8630   22.7650 C   0  0  0  0  0  0  0  0  0  0  0  0
   10.3840    6.4080   23.2030 N   0  0  0  0  0  0  0  0  0  0  0  0
   12.3270    6.2250   21.6640 O   0  0  0  0  0  0  0  0  0  0  0  0
  1  2  1  0
  2  3  1  0
  2  4  1  0
  3  5  1  0
  3  6  2  0
  4  7  2  0
  6  7  1  0
  4  8  1  0
  6  9  1  0
  7 10  1  0
  8 11  2  0
  9 12  1  0
 10 13  2  0
 11 13  1  0
 12 14  1  0
 14 15  1  0
 14 16  2  0
M  END
