SAN-PRS-3c4a6997-9
     RDKit          3D

 16 17  0  0  0  0  0  0  0  0999 V2000
    8.6970    1.0720   24.7100 C   0  0  0  0  0  0  0  0  0  0  0  0
    9.9880    1.2810   24.0740 N   0  0  0  0  0  0  0  0  0  0  0  0
   10.5070    2.5920   23.8020 C   0  0  0  0  0  0  0  0  0  0  0  0
   10.9100    0.3560   23.6250 C   0  0  0  0  0  0  0  0  0  0  0  0
   10.0240    3.7030   24.0100 O   0  0  0  0  0  0  0  0  0  0  0  0
   11.8830    2.3690   23.1510 C   0  0  0  0  0  0  0  0  0  0  0  0
   12.0820    0.9360   23.0570 C   0  0  0  0  0  0  0  0  0  0  0  0
   10.7570   -1.0310   23.6950 C   0  0  0  0  0  0  0  0  0  0  0  0
   12.6730    3.5460   22.7730 N   0  0  0  0  0  0  0  0  0  0  0  0
   13.0850    0.0910   22.5690 C   0  0  0  0  0  0  0  0  0  0  0  0
   11.7710   -1.8540   23.1870 C   0  0  0  0  0  0  0  0  0  0  0  0
   12.3430    4.7260   23.4350 C   0  0  0  0  0  0  0  0  0  0  0  0
   12.9230   -1.2850   22.6280 C   0  0  0  0  0  0  0  0  0  0  0  0
   11.6850    5.8240   22.6270 C   0  0  0  0  0  0  0  0  0  0  0  0
   10.4760    6.2490   23.1400 N   0  0  0  0  0  0  0  0  0  0  0  0
   12.2980    6.1850   21.6500 O   0  0  0  0  0  0  0  0  0  0  0  0
  1  2  1  0
  2  3  1  0
  2  4  1  0
  3  5  1  0
  3  6  2  0
  4  7  2  0
  6  7  1  0
  4  8  1  0
  6  9  1  0
  7 10  1  0
  8 11  2  0
  9 12  1  0
 10 13  2  0
 11 13  1  0
 12 14  1  0
 14 15  1  0
 14 16  2  0
M  END
