SCO-VAN-260d9628-4-nitrile
     RDKit          3D

 25 26  0  0  0  0  0  0  0  0999 V2000
    7.5210   -3.3900   19.8140 C   0  0  0  0  0  0  0  0  0  0  0  0
    6.2780   -3.6450   19.4450 N   0  0  0  0  0  0  0  0  0  0  0  0
    7.9600   -1.9170   20.6520 C   0  0  0  0  0  0  0  0  0  0  0  0
    8.7860   -2.1260   21.5840 C   0  0  0  0  0  0  0  0  0  0  0  0
    7.5820   -0.6860   20.2360 C   0  0  0  0  0  0  0  0  0  0  0  0
    7.8360   -3.0250   21.1470 C   0  0  0  0  0  0  0  0  0  0  0  0
    6.6450   -1.1510   19.5650 C   0  0  0  0  0  0  0  0  0  0  0  0
    6.7300   -2.5070   20.1370 C   0  0  0  0  0  0  0  0  0  0  0  0
    5.6490   -0.4630   18.6130 C   0  0  0  0  0  0  0  0  0  0  0  0
    5.6700   -3.2660   19.7190 C   0  0  0  0  0  0  0  0  0  0  0  0
    5.7670    1.0440   18.5920 C   0  0  0  0  0  0  0  0  0  0  0  0
    5.3080   -4.0920   20.7950 N   0  0  0  0  0  0  0  0  0  0  0  0
    4.6170    1.9150   18.9280 N   0  0  0  0  0  0  0  0  0  0  0  0
    5.6720   -5.4890   20.7700 C   0  0  0  0  0  0  0  0  0  0  0  0
    3.8810    1.7880   20.4440 S   0  0  0  0  0  0  0  0  0  0  0  0
    5.4270   -6.2600   19.8700 O   0  0  0  0  0  0  0  0  0  0  0  0
    6.3560   -5.8700   21.8800 N   0  0  0  0  0  0  0  0  0  0  0  0
    4.3500    0.1520   20.9560 C   0  0  0  0  0  0  0  0  0  0  0  0
    2.4450    1.8390   20.2590 O   0  0  0  0  0  0  0  0  0  0  0  0
    4.5560    2.7500   21.2870 O   0  0  0  0  0  0  0  0  0  0  0  0
    5.6430   -6.4540   22.8450 C   0  0  0  0  0  0  0  0  0  0  0  0
    7.3660   -5.0260   22.4350 C   0  0  0  0  0  0  0  0  0  0  0  0
    5.8560   -5.7320   24.1550 C   0  0  0  0  0  0  0  0  0  0  0  0
    7.8760   -5.7460   23.6440 C   0  0  0  0  0  0  0  0  0  0  0  0
    7.0270   -5.7460   24.5450 O   0  0  0  0  0  0  0  0  0  0  0  0
  1  2  2  3
  1  3  1  0
  3  4  2  0
  3  5  1  0
  4  6  1  0
  5  7  2  0
  6  8  2  0
  7  8  1  0
  7  9  1  0
  8 10  1  0
  9 11  1  0
 10 12  1  0
 11 13  1  0
 12 14  1  0
 15 13  1  0
 14 16  2  0
 14 17  1  0
 15 18  1  0
 15 19  2  0
 15 20  2  0
 17 21  1  0
 17 22  1  0
 21 23  1  0
 22 24  1  0
 23 25  1  0
 24 25  1  0
M  END
