SCO-CSI-e30c12ee-1
     RDKit          3D

 35 38  0  0  0  0  0  0  0  0999 V2000
    6.7960    0.9990   18.0180 O   0  0  0  0  0  0  0  0  0  0  0  0
    6.7490    0.2700   18.9820 C   0  0  0  0  0  0  0  0  0  0  0  0
    7.0510    0.6900   20.3760 C   0  0  0  0  0  0  0  0  0  0  0  0
    6.4030   -1.0320   18.7470 N   0  0  0  0  0  0  0  0  0  0  0  0
    6.4810   -0.1270   21.3920 N   0  0  0  0  0  0  0  0  0  0  0  0
    5.2440   -1.5200   19.1580 C   0  0  0  0  0  0  0  0  0  0  0  0
    7.3610   -2.0680   18.5920 C   0  0  0  0  0  0  0  0  0  0  0  0
    5.3310    0.4100   22.1440 C   0  0  0  0  0  0  0  0  0  0  0  0
    7.2290   -1.1750   22.1390 C   0  0  0  0  0  0  0  0  0  0  0  0
    5.4000   -2.2570   20.3360 C   0  0  0  0  0  0  0  0  0  0  0  0
    7.7670   -2.4080   19.8590 C   0  0  0  0  0  0  0  0  0  0  0  0
    4.3360    1.2730   21.3370 C   0  0  0  0  0  0  0  0  0  0  0  0
    8.4820   -0.9550   22.6270 O   0  0  0  0  0  0  0  0  0  0  0  0
    6.5290   -2.4680   22.3520 N   0  0  0  0  0  0  0  0  0  0  0  0
    6.6730   -2.8450   20.6420 O   0  0  0  0  0  0  0  0  0  0  0  0
    4.5770    1.5250   19.8660 C   0  0  0  0  0  0  0  0  0  0  0  0
    3.1790    1.8810   21.8430 C   0  0  0  0  0  0  0  0  0  0  0  0
    7.2230   -3.6730   22.5430 C   0  0  0  0  0  0  0  0  0  0  0  0
    3.7580    2.3030   18.9930 C   0  0  0  0  0  0  0  0  0  0  0  0
    2.2390    2.7210   21.0000 N   0  0  0  0  0  0  0  0  0  0  0  0
    6.4560   -4.9120   22.1540 C   0  0  0  0  0  0  0  0  0  0  0  0
    7.6000   -3.7830   24.0100 C   0  0  0  0  0  0  0  0  0  0  0  0
    2.5710    2.9110   19.5630 C   0  0  0  0  0  0  0  0  0  0  0  0
    5.6770   -5.6420   23.2770 C   0  0  0  0  0  0  0  0  0  0  0  0
    6.2660   -3.9770   24.7500 C   0  0  0  0  0  0  0  0  0  0  0  0
    5.8980   -5.2870   24.5650 N   0  0  0  0  0  0  0  0  0  0  0  0
    4.8040   -5.8650   25.7380 S   0  0  0  0  0  0  0  0  0  0  0  0
    4.2180   -7.0610   25.1650 O   0  0  0  0  0  0  0  0  0  0  0  0
    5.5070   -5.8700   26.9980 O   0  0  0  0  0  0  0  0  0  0  0  0
    3.6080   -4.6680   25.7840 C   0  0  0  0  0  0  0  0  0  0  0  0
    2.1720   -4.8660   25.2590 C   0  0  0  0  0  0  0  0  0  0  0  0
    3.8700   -3.2600   26.3690 C   0  0  0  0  0  0  0  0  0  0  0  0
    1.0860   -3.7850   25.3030 C   0  0  0  0  0  0  0  0  0  0  0  0
    2.7610   -2.2090   26.3930 C   0  0  0  0  0  0  0  0  0  0  0  0
    1.4530   -2.4270   25.9030 C   0  0  0  0  0  0  0  0  0  0  0  0
  1  2  2  0
  2  3  1  0
  2  4  1  0
  3  5  1  0
  4  6  1  0
  4  7  1  0
  5  8  1  0
  5  9  1  0
  6 10  1  0
  7 11  1  0
  8 12  1  0
  9 13  2  0
  9 14  1  0
 10 15  1  0
 11 15  1  0
 12 16  2  0
 12 17  1  0
 14 18  1  0
 16 19  1  0
 17 20  2  0
 18 21  1  0
 18 22  1  0
 19 23  2  0
 20 23  1  0
 21 24  1  0
 22 25  1  0
 24 26  1  0
 25 26  1  0
 26 27  1  0
 27 28  2  0
 27 29  2  0
 27 30  1  0
 30 31  2  0
 30 32  1  0
 31 33  1  0
 32 34  2  0
 33 35  2  0
 34 35  1  0
M  END
