SCO-VAN-260d9628-5-acrylamide
     RDKit          3D

 18 19  0  0  0  0  0  0  0  0999 V2000
    6.7730   -3.2590   19.0630 C   0  0  0  0  0  0  0  0  0  0  0  0
    6.8340   -2.1190   20.0230 C   0  0  0  0  0  0  0  0  0  0  0  0
    5.4780   -1.9710   20.7050 C   0  0  0  0  0  0  0  0  0  0  0  0
    4.7810   -2.9600   21.0740 O   0  0  0  0  0  0  0  0  0  0  0  0
    5.0180   -0.5750   20.9090 C   0  0  0  0  0  0  0  0  0  0  0  0
    4.6410   -0.0950   19.7700 C   0  0  0  0  0  0  0  0  0  0  0  0
    5.1710   -0.2980   22.2050 C   0  0  0  0  0  0  0  0  0  0  0  0
    5.0680   -1.4610   19.7380 C   0  0  0  0  0  0  0  0  0  0  0  0
    5.5960   -1.4970   22.4330 C   0  0  0  0  0  0  0  0  0  0  0  0
    5.5410   -2.1320   21.1410 C   0  0  0  0  0  0  0  0  0  0  0  0
    6.0780   -2.4420   23.3650 C   0  0  0  0  0  0  0  0  0  0  0  0
    5.9950   -3.4820   21.3850 N   0  0  0  0  0  0  0  0  0  0  0  0
    6.3050   -3.6500   22.6850 C   0  0  0  0  0  0  0  0  0  0  0  0
    6.3530   -2.2880   24.8510 C   0  0  0  0  0  0  0  0  0  0  0  0
    7.7810   -2.1260   24.8460 N   0  0  0  0  0  0  0  0  0  0  0  0
    8.5300   -2.9290   24.0060 C   0  0  0  0  0  0  0  0  0  0  0  0
    9.6680   -2.3080   23.1430 C   0  0  0  0  0  0  0  0  0  0  0  0
    8.3950   -4.3330   23.8030 O   0  0  0  0  0  0  0  0  0  0  0  0
  1  2  1  0
  2  3  1  0
  3  4  2  0
  3  5  1  0
  5  6  2  0
  5  7  1  0
  6  8  1  0
  7  9  2  0
  8 10  2  0
  9 10  1  0
  9 11  1  0
 10 12  1  0
 11 13  2  0
 12 13  1  0
 11 14  1  0
 14 15  1  0
 15 16  1  0
 16 17  1  0
 16 18  2  0
M  END
