SCO-VAN-260d9628-4-acrylamide
     RDKit          3D

 27 28  0  0  0  0  0  0  0  0999 V2000
    7.1200   -3.0830   19.0520 C   0  0  0  0  0  0  0  0  0  0  0  0
    6.7220   -2.5200   20.4020 C   0  0  0  0  0  0  0  0  0  0  0  0
    6.3520   -3.5950   21.4100 C   0  0  0  0  0  0  0  0  0  0  0  0
    5.2000   -4.1270   21.4650 O   0  0  0  0  0  0  0  0  0  0  0  0
    7.4770   -3.9480   22.3340 C   0  0  0  0  0  0  0  0  0  0  0  0
    8.0370   -3.5700   23.5270 C   0  0  0  0  0  0  0  0  0  0  0  0
    7.3140   -3.0830   23.3200 C   0  0  0  0  0  0  0  0  0  0  0  0
    8.1150   -2.7480   24.7420 C   0  0  0  0  0  0  0  0  0  0  0  0
    8.4680   -3.3820   24.2700 C   0  0  0  0  0  0  0  0  0  0  0  0
    9.2380   -3.1670   25.4730 C   0  0  0  0  0  0  0  0  0  0  0  0
    7.7660   -2.3210   24.9260 C   0  0  0  0  0  0  0  0  0  0  0  0
   10.2760   -4.0880   25.3870 C   0  0  0  0  0  0  0  0  0  0  0  0
    6.8450   -2.7260   25.9240 C   0  0  0  0  0  0  0  0  0  0  0  0
   11.3030   -3.5340   24.5180 N   0  0  0  0  0  0  0  0  0  0  0  0
    7.1530   -4.0640   26.4680 N   0  0  0  0  0  0  0  0  0  0  0  0
   12.4900   -3.0220   24.9780 C   0  0  0  0  0  0  0  0  0  0  0  0
    7.5120   -4.3320   28.0920 S   0  0  0  0  0  0  0  0  0  0  0  0
   13.1620   -3.5670   25.8550 O   0  0  0  0  0  0  0  0  0  0  0  0
   12.8650   -1.8510   24.3650 N   0  0  0  0  0  0  0  0  0  0  0  0
    7.2900   -6.0780   28.2030 C   0  0  0  0  0  0  0  0  0  0  0  0
    6.4750   -3.6830   28.8730 O   0  0  0  0  0  0  0  0  0  0  0  0
    8.9170   -4.0820   28.3040 O   0  0  0  0  0  0  0  0  0  0  0  0
   12.1450   -0.6370   24.7190 C   0  0  0  0  0  0  0  0  0  0  0  0
   13.0410   -2.0040   22.9190 C   0  0  0  0  0  0  0  0  0  0  0  0
   12.0800    0.3320   23.5290 C   0  0  0  0  0  0  0  0  0  0  0  0
   11.8390   -1.6570   22.1910 C   0  0  0  0  0  0  0  0  0  0  0  0
   11.4410   -0.2940   22.4030 O   0  0  0  0  0  0  0  0  0  0  0  0
  1  2  1  0
  2  3  1  0
  3  4  2  0
  3  5  1  0
  5  6  2  0
  5  7  1  0
  6  8  1  0
  7  9  2  0
  8 10  2  0
  9 10  1  0
  9 11  1  0
 10 12  1  0
 11 13  1  0
 12 14  1  0
 13 15  1  0
 14 16  1  0
 17 15  1  0
 16 18  2  0
 16 19  1  0
 17 20  1  0
 17 21  2  0
 17 22  2  0
 19 23  1  0
 19 24  1  0
 23 25  1  0
 24 26  1  0
 25 27  1  0
 26 27  1  0
M  END
