SCO-VAN-260d9628-1
     RDKit          3D

 17 18  0  0  0  0  0  0  0  0999 V2000
    5.8110   -5.9430   20.9170 C   0  0  0  0  0  0  0  0  0  0  0  0
    5.7240   -5.4800   22.3200 C   0  0  0  0  0  0  0  0  0  0  0  0
    5.1830   -6.3220   23.2810 C   0  0  0  0  0  0  0  0  0  0  0  0
    6.1660   -4.2260   22.7400 C   0  0  0  0  0  0  0  0  0  0  0  0
    5.0760   -5.9640   24.6130 C   0  0  0  0  0  0  0  0  0  0  0  0
    6.0230   -3.9140   24.2030 C   0  0  0  0  0  0  0  0  0  0  0  0
    6.7380   -3.2190   21.9470 N   0  0  0  0  0  0  0  0  0  0  0  0
    5.4900   -4.7740   25.0900 N   0  0  0  0  0  0  0  0  0  0  0  0
    6.3080   -3.0400   20.5600 C   0  0  0  0  0  0  0  0  0  0  0  0
    5.5860   -3.8440   19.9450 O   0  0  0  0  0  0  0  0  0  0  0  0
    6.7930   -1.8960   19.9150 N   0  0  0  0  0  0  0  0  0  0  0  0
    7.2110   -0.7680   20.5720 C   0  0  0  0  0  0  0  0  0  0  0  0
    6.7150   -1.7380   18.4870 C   0  0  0  0  0  0  0  0  0  0  0  0
    6.6660    0.5880   20.0020 C   0  0  0  0  0  0  0  0  0  0  0  0
    5.8020   -0.6270   18.2460 C   0  0  0  0  0  0  0  0  0  0  0  0
    6.4110    0.5990   18.5230 N   0  0  0  0  0  0  0  0  0  0  0  0
    5.4040    1.5330   18.0350 C   0  0  0  0  0  0  0  0  0  0  0  0
  1  2  1  0
  2  3  2  0
  2  4  1  0
  3  5  1  0
  4  6  2  0
  4  7  1  0
  5  8  2  0
  6  8  1  0
  7  9  1  0
  9 10  2  0
  9 11  1  0
 11 12  1  0
 11 13  1  0
 12 14  1  0
 13 15  1  0
 14 16  1  0
 15 16  1  0
 16 17  1  0
M  END
