SEA-TRI-67e8f1c7-1-nitrile
     RDKit          3D

 29 32  0  0  0  0  0  0  0  0999 V2000
    7.1380   -3.2590   19.4220 C   0  0  0  0  0  0  0  0  0  0  0  0
    6.3120   -3.0750   18.4910 N   0  0  0  0  0  0  0  0  0  0  0  0
    6.9870   -2.7030   20.6650 N   0  0  0  0  0  0  0  0  0  0  0  0
    7.5320   -1.3780   20.9460 C   0  0  0  0  0  0  0  0  0  0  0  0
    6.7040   -3.5290   21.8380 C   0  0  0  0  0  0  0  0  0  0  0  0
    8.6430   -1.5120   21.9750 C   0  0  0  0  0  0  0  0  0  0  0  0
    7.8450   -3.6120   22.6610 C   0  0  0  0  0  0  0  0  0  0  0  0
    8.2600   -2.3460   23.1280 N   0  0  0  0  0  0  0  0  0  0  0  0
    9.3420   -2.4320   24.0950 C   0  0  0  0  0  0  0  0  0  0  0  0
   10.3760   -1.4500   23.6340 C   0  0  0  0  0  0  0  0  0  0  0  0
   11.4460   -1.9380   22.7470 C   0  0  0  0  0  0  0  0  0  0  0  0
   10.3330   -0.0700   23.9850 C   0  0  0  0  0  0  0  0  0  0  0  0
   12.3680   -1.0580   22.2880 C   0  0  0  0  0  0  0  0  0  0  0  0
   11.3640    0.7860   23.4500 C   0  0  0  0  0  0  0  0  0  0  0  0
    9.2410    0.5910   24.8920 C   0  0  0  0  0  0  0  0  0  0  0  0
   13.4820   -1.7010   21.2410 Cl  0  0  0  0  0  0  0  0  0  0  0  0
   12.3620    0.2880   22.6360 C   0  0  0  0  0  0  0  0  0  0  0  0
   11.3890    2.1440   23.7040 C   0  0  0  0  0  0  0  0  0  0  0  0
    9.3690    2.1080   25.0840 C   0  0  0  0  0  0  0  0  0  0  0  0
    8.3520   -0.1240   25.3780 O   0  0  0  0  0  0  0  0  0  0  0  0
   10.4200    2.7700   24.4800 C   0  0  0  0  0  0  0  0  0  0  0  0
    7.3680    0.5390   26.2070 C   0  0  0  0  0  0  0  0  0  0  0  0
    7.3500    0.0250   27.6730 C   0  0  0  0  0  0  0  0  0  0  0  0
    6.1860   -0.6310   27.9420 N   0  0  0  0  0  0  0  0  0  0  0  0
    5.5020   -0.0490   28.9630 C   0  0  0  0  0  0  0  0  0  0  0  0
    6.3100   -2.0870   28.1830 C   0  0  0  0  0  0  0  0  0  0  0  0
    5.7120   -0.7810   30.1380 C   0  0  0  0  0  0  0  0  0  0  0  0
    5.1270   -2.4600   28.8060 C   0  0  0  0  0  0  0  0  0  0  0  0
    5.1030   -1.8490   30.0910 O   0  0  0  0  0  0  0  0  0  0  0  0
  1  2  2  3
  1  3  1  0
  3  4  1  0
  3  5  1  0
  4  6  1  0
  5  7  1  0
  6  8  1  0
  7  8  1  0
  8  9  1  0
  9 10  1  0
 10 11  2  0
 10 12  1  0
 11 13  1  0
 12 14  2  0
 12 15  1  0
 13 16  1  0
 13 17  2  0
 14 17  1  0
 14 18  1  0
 15 19  2  0
 15 20  1  0
 18 21  2  0
 19 21  1  0
 20 22  1  0
 22 23  1  0
 23 24  1  0
 24 25  1  0
 24 26  1  0
 25 27  1  0
 26 28  1  0
 27 29  1  0
 28 29  1  0
M  END
