SEA-TRI-8252c13b-1-nitrile
     RDKit          3D

 23 25  0  0  0  0  0  0  0  0999 V2000
    6.9400   -2.6630   19.9800 C   0  0  0  0  0  0  0  0  0  0  0  0
    5.8410   -2.8060   19.2890 N   0  0  0  0  0  0  0  0  0  0  0  0
    7.0830   -1.9050   21.2520 N   0  0  0  0  0  0  0  0  0  0  0  0
    7.1240   -2.6520   22.5180 C   0  0  0  0  0  0  0  0  0  0  0  0
    7.5040   -0.4520   21.5400 C   0  0  2  0  0  0  0  0  0  0  0  0
    8.5370   -2.4820   23.0420 C   0  0  0  0  0  0  0  0  0  0  0  0
    8.6550   -0.3020   22.2930 C   0  0  0  0  0  0  0  0  0  0  0  0
    6.3500    0.3980   22.0290 C   0  0  0  0  0  0  0  0  0  0  0  0
    9.1660   -1.5060   22.1090 N   0  0  0  0  0  0  0  0  0  0  0  0
    5.9460    0.7840   20.8140 C   0  0  0  0  0  0  0  0  0  0  0  0
   10.6010   -1.5460   22.0370 C   0  0  0  0  0  0  0  0  0  0  0  0
    4.9210    1.7180   20.3010 C   0  0  0  0  0  0  0  0  0  0  0  0
    6.7620    0.0680   19.9950 C   0  0  0  0  0  0  0  0  0  0  0  0
   10.9580   -2.2950   23.1120 C   0  0  0  0  0  0  0  0  0  0  0  0
    4.8670    1.8020   18.9250 C   0  0  0  0  0  0  0  0  0  0  0  0
    6.6610    0.1900   18.6550 C   0  0  0  0  0  0  0  0  0  0  0  0
   12.0610   -1.4000   22.9360 C   0  0  0  0  0  0  0  0  0  0  0  0
   11.6870   -3.1150   24.5410 S   0  0  0  0  0  0  0  0  0  0  0  0
    5.7240    1.0530   18.1190 C   0  0  0  0  0  0  0  0  0  0  0  0
   13.1710   -1.3480   23.6990 C   0  0  0  0  0  0  0  0  0  0  0  0
   13.1850   -2.2970   24.7550 C   0  0  0  0  0  0  0  0  0  0  0  0
    5.6500    1.1590   16.9390 O   0  0  0  0  0  0  0  0  0  0  0  0
   14.2430   -2.6960   25.9890 Cl  0  0  0  0  0  0  0  0  0  0  0  0
  1  2  2  3
  1  3  1  0
  3  4  1  0
  3  5  1  0
  4  6  1  0
  5  7  1  0
  5  8  1  1
  6  9  1  0
  7  9  1  0
  8 10  1  0
  9 11  1  0
 10 12  2  0
 10 13  1  0
 11 14  1  0
 12 15  1  0
 13 16  2  0
 14 17  2  0
 14 18  1  0
 15 19  2  0
 16 19  1  0
 17 20  1  0
 18 21  1  0
 20 21  2  0
 19 22  1  0
 21 23  1  0
M  END
