SEA-TRI-67e8f1c7-1-acrylamide
     RDKit          3D

 31 34  0  0  0  0  0  0  0  0999 V2000
    7.4100   -2.8470   18.2920 C   0  0  0  0  0  0  0  0  0  0  0  0
    6.8330   -2.0580   19.1610 C   0  0  0  0  0  0  0  0  0  0  0  0
    5.9680   -2.7680   20.1710 C   0  0  0  0  0  0  0  0  0  0  0  0
    5.0370   -3.5770   19.9130 O   0  0  0  0  0  0  0  0  0  0  0  0
    6.2840   -2.4390   21.4560 N   0  0  0  0  0  0  0  0  0  0  0  0
    6.3390   -3.5240   22.4110 C   0  0  0  0  0  0  0  0  0  0  0  0
    7.1550   -1.2790   21.7190 C   0  0  0  0  0  0  0  0  0  0  0  0
    7.4020   -3.2940   23.4730 C   0  0  0  0  0  0  0  0  0  0  0  0
    8.5850   -1.7580   21.9580 C   0  0  0  0  0  0  0  0  0  0  0  0
    8.6730   -2.7610   22.9840 N   0  0  0  0  0  0  0  0  0  0  0  0
    9.5500   -2.3360   24.0690 C   0  0  0  0  0  0  0  0  0  0  0  0
   10.4690   -1.4250   23.6200 C   0  0  0  0  0  0  0  0  0  0  0  0
   11.4370   -1.9170   22.7960 C   0  0  0  0  0  0  0  0  0  0  0  0
   10.4200   -0.0240   23.9540 C   0  0  0  0  0  0  0  0  0  0  0  0
   12.3750   -1.1170   22.2800 C   0  0  0  0  0  0  0  0  0  0  0  0
   11.4710    0.7810   23.3690 C   0  0  0  0  0  0  0  0  0  0  0  0
    9.4110    0.6190   24.7960 C   0  0  0  0  0  0  0  0  0  0  0  0
   13.4360   -1.8650   21.2390 Cl  0  0  0  0  0  0  0  0  0  0  0  0
   12.4290    0.2280   22.5690 C   0  0  0  0  0  0  0  0  0  0  0  0
   11.5170    2.2800   23.6120 C   0  0  0  0  0  0  0  0  0  0  0  0
    9.3880    1.9900   25.0520 C   0  0  0  0  0  0  0  0  0  0  0  0
    8.4070   -0.0950   25.3800 O   0  0  0  0  0  0  0  0  0  0  0  0
   10.4590    2.9250   24.4540 C   0  0  0  0  0  0  0  0  0  0  0  0
    8.3420    0.0640   26.8100 C   0  0  0  0  0  0  0  0  0  0  0  0
    7.3320    0.9790   27.0960 C   0  0  0  0  0  0  0  0  0  0  0  0
    6.5280    0.6380   28.1340 N   0  0  0  0  0  0  0  0  0  0  0  0
    7.0200   -0.3910   29.0470 C   0  0  0  0  0  0  0  0  0  0  0  0
    6.0890    1.8250   28.9060 C   0  0  0  0  0  0  0  0  0  0  0  0
    6.3820   -0.4000   30.2890 C   0  0  0  0  0  0  0  0  0  0  0  0
    5.1580    1.4210   29.8610 C   0  0  0  0  0  0  0  0  0  0  0  0
    5.6270    0.7320   30.7550 O   0  0  0  0  0  0  0  0  0  0  0  0
  1  2  1  0
  2  3  1  0
  3  4  2  0
  3  5  1  0
  5  6  1  0
  5  7  1  0
  6  8  1  0
  7  9  1  0
  8 10  1  0
  9 10  1  0
 10 11  1  0
 11 12  1  0
 12 13  2  0
 12 14  1  0
 13 15  1  0
 14 16  2  0
 14 17  1  0
 15 18  1  0
 15 19  2  0
 16 19  1  0
 16 20  1  0
 17 21  2  0
 17 22  1  0
 20 23  2  0
 21 23  1  0
 22 24  1  0
 24 25  1  0
 25 26  1  0
 26 27  1  0
 26 28  1  0
 27 29  1  0
 28 30  1  0
 29 31  1  0
 30 31  1  0
M  END
