SEA-TRI-8252c13b-1-bromoalkyne
     RDKit          3D

 23 25  0  0  0  0  0  0  0  0999 V2000
    6.6690   -3.1750   20.1150 C   0  0  0  0  0  0  0  0  0  0  0  0
    5.5570   -2.8220   19.1610 C   0  0  0  0  0  0  0  0  0  0  0  0
    7.3190   -2.1030   20.8230 N   0  0  0  0  0  0  0  0  0  0  0  0
    7.6020   -0.8210   20.2050 C   0  0  0  0  0  0  0  0  0  0  0  0
    6.9460   -1.8280   22.1250 C   0  0  1  0  0  0  0  0  0  0  0  0
    8.1450    0.1880   21.2230 C   0  0  0  0  0  0  0  0  0  0  0  0
    8.0370   -1.3030   22.8440 C   0  0  0  0  0  0  0  0  0  0  0  0
    5.7860   -1.0120   22.1360 C   0  0  0  0  0  0  0  0  0  0  0  0
    8.8930   -0.4570   22.3180 N   0  0  0  0  0  0  0  0  0  0  0  0
    5.5910    0.0070   21.0180 C   0  0  0  0  0  0  0  0  0  0  0  0
    9.9410   -1.2080   21.8210 C   0  0  0  0  0  0  0  0  0  0  0  0
    5.5790   -0.1790   19.7010 C   0  0  0  0  0  0  0  0  0  0  0  0
    5.3750    1.3360   20.9300 C   0  0  0  0  0  0  0  0  0  0  0  0
   11.0460   -1.6020   22.5620 C   0  0  0  0  0  0  0  0  0  0  0  0
    5.5940   -0.5330   18.4310 C   0  0  0  0  0  0  0  0  0  0  0  0
    5.2590    1.7980   19.5720 C   0  0  0  0  0  0  0  0  0  0  0  0
   12.2880   -1.8600   22.0320 C   0  0  0  0  0  0  0  0  0  0  0  0
   11.1200   -1.8690   24.3580 S   0  0  0  0  0  0  0  0  0  0  0  0
    5.3660    0.9010   18.4070 C   0  0  0  0  0  0  0  0  0  0  0  0
   13.2220   -2.2520   23.0690 C   0  0  0  0  0  0  0  0  0  0  0  0
   12.8210   -2.3250   24.3690 C   0  0  0  0  0  0  0  0  0  0  0  0
    5.2350    1.5220   17.2090 O   0  0  0  0  0  0  0  0  0  0  0  0
   13.7660   -2.7650   25.7060 Cl  0  0  0  0  0  0  0  0  0  0  0  0
  1  2  2  3
  1  3  1  0
  3  4  1  0
  3  5  1  0
  4  6  1  0
  5  7  1  0
  5  8  1  6
  6  9  1  0
  7  9  1  0
  8 10  1  0
  9 11  1  0
 10 12  2  0
 10 13  1  0
 11 14  1  0
 12 15  1  0
 13 16  2  0
 14 17  2  0
 14 18  1  0
 15 19  2  0
 16 19  1  0
 17 20  1  0
 18 21  1  0
 20 21  2  0
 19 22  1  0
 21 23  1  0
M  END
