SEA-TRI-38830027-1-chloroacetamide
     RDKit          3D

 28 31  0  0  0  0  0  0  0  0999 V2000
    7.3680   -2.9790   18.7880 C   0  0  0  0  0  0  0  0  0  0  0  0
    6.5160   -3.3140   19.9720 C   0  0  0  0  0  0  0  0  0  0  0  0
    5.6130   -4.1770   19.8480 O   0  0  0  0  0  0  0  0  0  0  0  0
    6.8360   -2.6140   21.1760 N   0  0  0  0  0  0  0  0  0  0  0  0
    6.2760   -3.0090   22.4500 C   0  0  0  0  0  0  0  0  0  0  0  0
    7.9930   -1.7250   21.3670 C   0  0  0  0  0  0  0  0  0  0  0  0
    7.3860   -3.6900   23.2400 C   0  0  0  0  0  0  0  0  0  0  0  0
    9.1890   -2.4430   22.0460 C   0  0  2  0  0  0  0  0  0  0  0  0
    6.9600   -4.7170   24.2800 C   0  0  0  0  0  0  0  0  0  0  0  0
    8.7610   -3.3980   23.0180 C   0  0  0  0  0  0  0  0  0  0  0  0
   10.1950   -1.4030   22.5160 C   0  0  0  0  0  0  0  0  0  0  0  0
    5.5280   -4.8470   24.3620 O   0  0  0  0  0  0  0  0  0  0  0  0
    7.9250   -5.3910   25.0020 C   0  0  0  0  0  0  0  0  0  0  0  0
    9.6980   -4.1020   23.7740 C   0  0  0  0  0  0  0  0  0  0  0  0
    9.8820   -0.3080   23.3080 C   0  0  0  0  0  0  0  0  0  0  0  0
   11.6160   -1.1770   22.3360 C   0  0  0  0  0  0  0  0  0  0  0  0
    5.0930   -5.0080   25.6470 C   0  0  0  0  0  0  0  0  0  0  0  0
    9.3880   -5.0690   24.7180 C   0  0  0  0  0  0  0  0  0  0  0  0
   10.8880    0.5350   23.6210 O   0  0  0  0  0  0  0  0  0  0  0  0
   11.9420   -0.0190   23.0170 C   0  0  0  0  0  0  0  0  0  0  0  0
   12.8450   -1.9990   21.5020 Cl  0  0  0  0  0  0  0  0  0  0  0  0
    4.3500   -6.1760   25.8270 C   0  0  0  0  0  0  0  0  0  0  0  0
    2.9400   -5.8910   25.6270 N   0  0  0  0  0  0  0  0  0  0  0  0
    2.2060   -4.7300   25.8900 C   0  0  0  0  0  0  0  0  0  0  0  0
    2.2850   -6.6730   24.6650 C   0  0  0  0  0  0  0  0  0  0  0  0
    0.9160   -4.5380   25.1470 C   0  0  0  0  0  0  0  0  0  0  0  0
    1.6180   -5.8980   23.7010 C   0  0  0  0  0  0  0  0  0  0  0  0
    0.6640   -5.2890   24.2000 O   0  0  0  0  0  0  0  0  0  0  0  0
  1  2  1  0
  2  3  2  0
  2  4  1  0
  4  5  1  0
  4  6  1  0
  5  7  1  0
  6  8  1  0
  7  9  1  0
  7 10  2  0
  8 10  1  0
  8 11  1  1
  9 12  1  0
  9 13  2  0
 10 14  1  0
 11 15  2  0
 11 16  1  0
 12 17  1  0
 13 18  1  0
 14 18  2  0
 15 19  1  0
 16 20  2  0
 19 20  1  0
 16 21  1  0
 17 22  1  0
 22 23  1  0
 23 24  1  0
 23 25  1  0
 24 26  1  0
 25 27  1  0
 26 28  1  0
 27 28  1  0
M  END
