SEA-TRI-38830027-1-vinylsulfonamide
     RDKit          3D

 30 33  0  0  0  0  0  0  0  0999 V2000
    8.9100   -4.0710   20.2180 C   0  0  0  0  0  0  0  0  0  0  0  0
    7.6720   -3.3210   19.7020 C   0  0  0  0  0  0  0  0  0  0  0  0
    6.4240   -3.6060   20.9000 S   0  0  0  0  0  0  0  0  0  0  0  0
    5.1080   -3.4720   20.3000 O   0  0  0  0  0  0  0  0  0  0  0  0
    6.7740   -4.8130   21.6080 O   0  0  0  0  0  0  0  0  0  0  0  0
    6.7430   -2.3060   21.9080 N   0  0  0  0  0  0  0  0  0  0  0  0
    6.4270   -2.5530   23.2710 C   0  0  0  0  0  0  0  0  0  0  0  0
    8.0460   -1.6340   21.7380 C   0  0  0  0  0  0  0  0  0  0  0  0
    7.5510   -3.3590   23.8820 C   0  0  0  0  0  0  0  0  0  0  0  0
    9.2690   -2.3830   22.3610 C   0  0  2  0  0  0  0  0  0  0  0  0
    7.1770   -4.2940   25.0010 C   0  0  0  0  0  0  0  0  0  0  0  0
    8.8930   -3.2530   23.4350 C   0  0  0  0  0  0  0  0  0  0  0  0
   10.2720   -1.3130   22.7910 C   0  0  0  0  0  0  0  0  0  0  0  0
    5.7720   -4.2640   25.3150 O   0  0  0  0  0  0  0  0  0  0  0  0
    8.1560   -5.0590   25.6020 C   0  0  0  0  0  0  0  0  0  0  0  0
    9.8870   -4.0400   24.0560 C   0  0  0  0  0  0  0  0  0  0  0  0
   10.0050   -0.2160   23.6380 C   0  0  0  0  0  0  0  0  0  0  0  0
   11.6670   -1.0860   22.5010 C   0  0  0  0  0  0  0  0  0  0  0  0
    5.3540   -5.1890   26.3160 C   0  0  0  0  0  0  0  0  0  0  0  0
    9.6190   -4.9340   25.1040 C   0  0  0  0  0  0  0  0  0  0  0  0
   11.0310    0.6280   23.8910 O   0  0  0  0  0  0  0  0  0  0  0  0
   12.0240    0.0660   23.1770 C   0  0  0  0  0  0  0  0  0  0  0  0
   12.8100   -1.9340   21.5570 Cl  0  0  0  0  0  0  0  0  0  0  0  0
    4.5000   -4.5990   27.2520 C   0  0  0  0  0  0  0  0  0  0  0  0
    3.5810   -5.5880   27.7900 N   0  0  0  0  0  0  0  0  0  0  0  0
    3.9030   -6.7560   28.5090 C   0  0  0  0  0  0  0  0  0  0  0  0
    2.3450   -5.0580   28.1920 C   0  0  0  0  0  0  0  0  0  0  0  0
    2.7970   -7.3430   29.3520 C   0  0  0  0  0  0  0  0  0  0  0  0
    1.3450   -6.0320   28.3340 C   0  0  0  0  0  0  0  0  0  0  0  0
    1.5430   -6.8200   29.2600 O   0  0  0  0  0  0  0  0  0  0  0  0
  1  2  1  0
  3  2  1  0
  3  4  2  0
  3  5  2  0
  3  6  1  0
  6  7  1  0
  6  8  1  0
  7  9  1  0
  8 10  1  0
  9 11  1  0
  9 12  2  0
 10 12  1  0
 10 13  1  1
 11 14  1  0
 11 15  2  0
 12 16  1  0
 13 17  2  0
 13 18  1  0
 14 19  1  0
 15 20  1  0
 16 20  2  0
 17 21  1  0
 18 22  2  0
 21 22  1  0
 18 23  1  0
 19 24  1  0
 24 25  1  0
 25 26  1  0
 25 27  1  0
 26 28  1  0
 27 29  1  0
 28 30  1  0
 29 30  1  0
M  END
