SEA-TRI-ec70a9dd-1-chloroacetamide
     RDKit          3D

 27 29  0  0  0  0  0  0  0  0999 V2000
    6.3240   -4.8260   20.2070 C   0  0  0  0  0  0  0  0  0  0  0  0
    6.6650   -3.4180   19.8730 C   0  0  0  0  0  0  0  0  0  0  0  0
    6.1870   -2.9760   18.8380 O   0  0  0  0  0  0  0  0  0  0  0  0
    7.5640   -2.5970   20.7550 C   0  0  0  0  0  0  0  0  0  0  0  0
    7.9360   -1.3320   20.5100 C   0  0  0  0  0  0  0  0  0  0  0  0
    8.0550   -3.1600   21.9130 C   0  0  0  0  0  0  0  0  0  0  0  0
    8.7680   -0.7290   21.4460 C   0  0  0  0  0  0  0  0  0  0  0  0
    8.8880   -2.4760   22.8070 C   0  0  0  0  0  0  0  0  0  0  0  0
    9.4270   -0.9950   22.6810 C   0  0  0  0  0  0  0  0  0  0  0  0
    9.2970   -3.1680   23.9520 C   0  0  0  0  0  0  0  0  0  0  0  0
    8.1420   -3.5450   24.7610 N   0  0  0  0  0  0  0  0  0  0  0  0
    7.7840   -4.8610   24.9280 C   0  0  0  0  0  0  0  0  0  0  0  0
    7.2510   -2.4030   25.1200 C   0  0  0  0  0  0  0  0  0  0  0  0
    6.2650   -5.1210   24.7590 C   0  0  0  0  0  0  0  0  0  0  0  0
    5.9930   -2.8910   25.5200 C   0  0  0  0  0  0  0  0  0  0  0  0
    5.5610   -3.8780   24.5130 N   0  0  0  0  0  0  0  0  0  0  0  0
    4.8980   -3.3860   23.0290 S   0  0  0  0  0  0  0  0  0  0  0  0
    3.7060   -4.1500   22.7450 O   0  0  0  0  0  0  0  0  0  0  0  0
    5.9500   -3.4220   22.0690 O   0  0  0  0  0  0  0  0  0  0  0  0
    4.5340   -1.6500   23.2320 C   0  0  0  0  0  0  0  0  0  0  0  0
    5.2700   -0.6000   22.3400 C   0  0  0  0  0  0  0  0  0  0  0  0
    5.0470    0.9220   22.4170 C   0  0  0  0  0  0  0  0  0  0  0  0
    5.2970    1.6100   21.2950 N   0  0  0  0  0  0  0  0  0  0  0  0
    4.8550    1.0070   20.0890 C   0  0  0  0  0  0  0  0  0  0  0  0
    6.6390    1.7350   20.6190 C   0  0  0  0  0  0  0  0  0  0  0  0
    6.0240    1.0500   19.4060 C   0  0  0  0  0  0  0  0  0  0  0  0
    7.9190    2.1970   20.8110 O   0  0  0  0  0  0  0  0  0  0  0  0
  1  2  1  0
  2  3  2  0
  2  4  1  0
  4  5  2  0
  4  6  1  0
  5  7  1  0
  6  8  2  0
  7  9  2  0
  8  9  1  0
  8 10  1  0
 10 11  1  0
 11 12  1  0
 11 13  1  0
 12 14  1  0
 13 15  1  0
 14 16  1  0
 15 16  1  0
 16 17  1  0
 17 18  2  0
 17 19  2  0
 17 20  1  0
 20 21  2  3
 21 22  1  0
 22 23  1  0
 23 24  1  0
 23 25  1  0
 24 26  1  0
 25 26  1  0
 25 27  2  0
M  END
