SEA-TRI-74689dea-1-chloroacetamide
     RDKit          3D

 21 22  0  0  0  0  0  0  0  0999 V2000
    7.3740   -3.1760   18.7770 C   0  0  0  0  0  0  0  0  0  0  0  0
    6.6410   -3.5290   19.9840 C   0  0  0  0  0  0  0  0  0  0  0  0
    5.6820   -4.3300   19.9050 O   0  0  0  0  0  0  0  0  0  0  0  0
    7.2500   -2.8290   21.1720 C   0  0  0  0  0  0  0  0  0  0  0  0
    7.5680   -3.3690   22.5340 C   0  0  0  0  0  0  0  0  0  0  0  0
    8.1660   -2.4430   23.4080 C   0  0  0  0  0  0  0  0  0  0  0  0
    9.4180   -2.8190   23.8260 C   0  0  1  0  0  0  0  0  0  0  0  0
   10.3300   -1.7330   23.7350 C   0  0  0  0  0  0  0  0  0  0  0  0
    9.2530   -3.7770   25.0250 C   0  0  0  0  0  0  0  0  0  0  0  0
   10.4070   -0.3650   24.4420 C   0  0  0  0  0  0  0  0  0  0  0  0
   11.3170   -1.9380   22.8060 C   0  0  0  0  0  0  0  0  0  0  0  0
    9.9560   -4.8670   25.4900 C   0  0  0  0  0  0  0  0  0  0  0  0
    7.8800   -3.6350   26.1450 S   0  0  0  0  0  0  0  0  0  0  0  0
   11.4280    0.6030   24.1440 C   0  0  0  0  0  0  0  0  0  0  0  0
   12.3870   -0.8850   22.5160 C   0  0  0  0  0  0  0  0  0  0  0  0
    9.5260   -5.5730   26.5800 C   0  0  0  0  0  0  0  0  0  0  0  0
    8.3830   -5.0460   27.0870 C   0  0  0  0  0  0  0  0  0  0  0  0
   12.4610    0.3260   23.1440 C   0  0  0  0  0  0  0  0  0  0  0  0
   13.2340   -1.2630   21.5620 C   0  0  0  0  0  0  0  0  0  0  0  0
    7.4700   -5.5850   28.4270 Cl  0  0  0  0  0  0  0  0  0  0  0  0
   13.9290   -1.5490   20.5030 N   0  0  0  0  0  0  0  0  0  0  0  0
  1  2  1  0
  2  3  2  0
  2  4  1  0
  4  5  2  3
  5  6  1  0
  7  6  1  1
  7  8  1  0
  7  9  1  0
  8 10  2  0
  8 11  1  0
  9 12  2  0
  9 13  1  0
 10 14  1  0
 11 15  2  0
 12 16  1  0
 13 17  1  0
 16 17  2  0
 14 18  2  0
 15 18  1  0
 15 19  1  0
 17 20  1  0
 19 21  3  0
M  END
