SEA-TRI-6388eba6-1
     RDKit          3D

 22 23  0  0  0  0  0  0  0  0999 V2000
    5.5550   -0.7640   23.5460 O   0  0  0  0  0  0  0  0  0  0  0  0
    5.6710   -1.7420   22.8210 C   0  0  0  0  0  0  0  0  0  0  0  0
    4.8460   -2.9660   23.1420 C   0  0  0  0  0  0  0  0  0  0  0  0
    6.6130   -1.7720   21.6090 C   0  0  0  0  0  0  0  0  0  0  0  0
    5.4790   -4.3530   22.2480 Cl  0  0  0  0  0  0  0  0  0  0  0  0
    7.0490   -0.4410   21.1540 N   0  0  0  0  0  0  0  0  0  0  0  0
    8.2100    0.1720   21.8000 C   0  0  0  0  0  0  0  0  0  0  0  0
    6.4950    0.0940   20.0700 C   0  0  0  0  0  0  0  0  0  0  0  0
    8.8720    1.3010   21.1810 O   0  0  0  0  0  0  0  0  0  0  0  0
    8.7240   -0.3030   23.0910 N   0  0  0  0  0  0  0  0  0  0  0  0
    5.3660    0.8790   20.2680 C   0  0  0  0  0  0  0  0  0  0  0  0
    6.9030   -0.0160   18.7410 C   0  0  0  0  0  0  0  0  0  0  0  0
   10.0260   -0.6700   22.9490 C   0  0  0  0  0  0  0  0  0  0  0  0
    4.6880    1.5200   19.2470 N   0  0  0  0  0  0  0  0  0  0  0  0
    6.2270    0.6340   17.6490 N   0  0  0  0  0  0  0  0  0  0  0  0
   10.6720   -1.1070   21.8130 C   0  0  0  0  0  0  0  0  0  0  0  0
   10.7700   -0.5870   24.1250 C   0  0  0  0  0  0  0  0  0  0  0  0
    5.1240    1.4000   17.9460 C   0  0  0  0  0  0  0  0  0  0  0  0
   12.0060   -1.4610   21.7700 C   0  0  0  0  0  0  0  0  0  0  0  0
   12.0990   -0.9360   24.1310 C   0  0  0  0  0  0  0  0  0  0  0  0
   12.7460   -1.3580   23.0110 C   0  0  0  0  0  0  0  0  0  0  0  0
   12.9800   -0.8920   25.4880 Cl  0  0  0  0  0  0  0  0  0  0  0  0
  1  2  2  0
  2  3  1  0
  2  4  1  0
  3  5  1  0
  4  6  1  0
  6  7  1  0
  6  8  1  0
  7  9  2  0
  7 10  1  0
  8 11  2  0
  8 12  1  0
 10 13  1  0
 11 14  1  0
 12 15  2  0
 13 16  2  0
 13 17  1  0
 14 18  2  0
 15 18  1  0
 16 19  1  0
 17 20  2  0
 19 21  2  0
 20 21  1  0
 20 22  1  0
M  END
