SEA-TRI-74689dea-1-vinylsulfonamide
     RDKit          3D

 23 24  0  0  0  0  0  0  0  0999 V2000
    7.5020   -3.0010   18.9440 C   0  0  0  0  0  0  0  0  0  0  0  0
    6.1650   -3.4450   19.5300 C   0  0  0  0  0  0  0  0  0  0  0  0
    6.1160   -3.1590   21.2480 S   0  0  0  0  0  0  0  0  0  0  0  0
    4.7050   -3.1190   21.5970 O   0  0  0  0  0  0  0  0  0  0  0  0
    6.9220   -4.1530   21.8940 O   0  0  0  0  0  0  0  0  0  0  0  0
    6.9680   -1.5850   21.4050 C   0  0  0  0  0  0  0  0  0  0  0  0
    7.8460   -1.3440   22.5940 C   0  0  0  0  0  0  0  0  0  0  0  0
    8.0470   -2.2580   23.6360 C   0  0  0  0  0  0  0  0  0  0  0  0
    9.3120   -2.7580   23.7720 C   0  0  1  0  0  0  0  0  0  0  0  0
   10.2920   -1.7330   23.6640 C   0  0  0  0  0  0  0  0  0  0  0  0
    9.2180   -3.8130   24.8940 C   0  0  0  0  0  0  0  0  0  0  0  0
   10.4420   -0.3720   24.3640 C   0  0  0  0  0  0  0  0  0  0  0  0
   11.2800   -1.9580   22.7400 C   0  0  0  0  0  0  0  0  0  0  0  0
    9.8450   -5.0510   25.0920 C   0  0  0  0  0  0  0  0  0  0  0  0
    8.0790   -3.5790   26.2660 S   0  0  0  0  0  0  0  0  0  0  0  0
   11.4680    0.5930   24.1270 C   0  0  0  0  0  0  0  0  0  0  0  0
   12.3860   -0.9160   22.4850 C   0  0  0  0  0  0  0  0  0  0  0  0
    9.4660   -5.7470   26.2090 C   0  0  0  0  0  0  0  0  0  0  0  0
    8.5370   -5.0980   26.9200 C   0  0  0  0  0  0  0  0  0  0  0  0
   12.4930    0.2910   23.1350 C   0  0  0  0  0  0  0  0  0  0  0  0
   13.2390   -1.2840   21.5390 C   0  0  0  0  0  0  0  0  0  0  0  0
    7.7780   -5.6210   28.3570 Cl  0  0  0  0  0  0  0  0  0  0  0  0
   13.9450   -1.5500   20.4860 N   0  0  0  0  0  0  0  0  0  0  0  0
  1  2  1  0
  2  3  1  0
  3  4  2  0
  3  5  2  0
  3  6  1  0
  6  7  2  3
  7  8  1  0
  9  8  1  1
  9 10  1  0
  9 11  1  0
 10 12  2  0
 10 13  1  0
 11 14  2  0
 11 15  1  0
 12 16  1  0
 13 17  2  0
 14 18  1  0
 15 19  1  0
 18 19  2  0
 16 20  2  0
 17 20  1  0
 17 21  1  0
 19 22  1  0
 21 23  3  0
M  END
