SEA-TRI-67e8f1c7-1-chloroacetamide
     RDKit          3D

 30 33  0  0  0  0  0  0  0  0999 V2000
    7.3060   -2.9620   18.7810 C   0  0  0  0  0  0  0  0  0  0  0  0
    6.3750   -3.0970   19.7090 C   0  0  0  0  0  0  0  0  0  0  0  0
    5.4070   -3.8440   19.5610 O   0  0  0  0  0  0  0  0  0  0  0  0
    6.5240   -2.3690   20.8840 N   0  0  0  0  0  0  0  0  0  0  0  0
    7.4380   -1.2110   20.8580 C   0  0  0  0  0  0  0  0  0  0  0  0
    6.2180   -2.9190   22.2190 C   0  0  0  0  0  0  0  0  0  0  0  0
    8.6210   -1.5200   21.7760 C   0  0  0  0  0  0  0  0  0  0  0  0
    7.4240   -3.3030   22.8030 C   0  0  0  0  0  0  0  0  0  0  0  0
    8.1730   -2.1330   23.0360 N   0  0  0  0  0  0  0  0  0  0  0  0
    9.2580   -2.2990   23.9900 C   0  0  0  0  0  0  0  0  0  0  0  0
   10.3850   -1.4580   23.5020 C   0  0  0  0  0  0  0  0  0  0  0  0
   11.3500   -2.0050   22.7290 C   0  0  0  0  0  0  0  0  0  0  0  0
   10.4260   -0.0790   23.8070 C   0  0  0  0  0  0  0  0  0  0  0  0
   12.3650   -1.2580   22.2480 C   0  0  0  0  0  0  0  0  0  0  0  0
   11.5380    0.6910   23.2820 C   0  0  0  0  0  0  0  0  0  0  0  0
    9.3990    0.5470   24.5850 C   0  0  0  0  0  0  0  0  0  0  0  0
   13.3840   -2.1240   21.2600 Cl  0  0  0  0  0  0  0  0  0  0  0  0
   12.5070    0.0760   22.5240 C   0  0  0  0  0  0  0  0  0  0  0  0
   11.6620    2.0540   23.4890 C   0  0  0  0  0  0  0  0  0  0  0  0
    9.4530    2.0520   24.8340 C   0  0  0  0  0  0  0  0  0  0  0  0
    8.4730   -0.1360   25.0300 O   0  0  0  0  0  0  0  0  0  0  0  0
   10.6350    2.8510   24.2570 C   0  0  0  0  0  0  0  0  0  0  0  0
    7.6680    0.5260   25.9130 C   0  0  0  0  0  0  0  0  0  0  0  0
    8.4480    0.6080   27.2330 C   0  0  0  0  0  0  0  0  0  0  0  0
    7.6600    0.6020   28.3730 N   0  0  0  0  0  0  0  0  0  0  0  0
    7.8540    1.8260   29.1460 C   0  0  0  0  0  0  0  0  0  0  0  0
    7.7450   -0.5530   29.1280 C   0  0  0  0  0  0  0  0  0  0  0  0
    6.7820    2.0190   30.0160 C   0  0  0  0  0  0  0  0  0  0  0  0
    7.1160   -0.3100   30.3490 C   0  0  0  0  0  0  0  0  0  0  0  0
    6.1670    0.7620   30.2710 O   0  0  0  0  0  0  0  0  0  0  0  0
  1  2  1  0
  2  3  2  0
  2  4  1  0
  4  5  1  0
  4  6  1  0
  5  7  1  0
  6  8  1  0
  7  9  1  0
  8  9  1  0
  9 10  1  0
 10 11  1  0
 11 12  2  0
 11 13  1  0
 12 14  1  0
 13 15  2  0
 13 16  1  0
 14 17  1  0
 14 18  2  0
 15 18  1  0
 15 19  1  0
 16 20  2  0
 16 21  1  0
 19 22  2  0
 20 22  1  0
 21 23  1  0
 23 24  1  0
 24 25  1  0
 25 26  1  0
 25 27  1  0
 26 28  1  0
 27 29  1  0
 28 30  1  0
 29 30  1  0
M  END
