SEA-TRI-2c7f3de8-1-acrylamide
     RDKit          3D

 24 26  0  0  0  0  0  0  0  0999 V2000
    7.7690   -2.7960   18.5340 C   0  0  0  0  0  0  0  0  0  0  0  0
    6.2830   -2.7570   18.8400 C   0  0  0  0  0  0  0  0  0  0  0  0
    5.8230   -3.4510   20.0710 C   0  0  0  0  0  0  0  0  0  0  0  0
    5.2040   -4.5050   19.9600 O   0  0  0  0  0  0  0  0  0  0  0  0
    6.1070   -2.8520   21.2840 N   0  0  0  0  0  0  0  0  0  0  0  0
    6.9280   -1.6560   21.3250 C   0  0  0  0  0  0  0  0  0  0  0  0
    6.0260   -3.5560   22.5420 C   0  0  0  0  0  0  0  0  0  0  0  0
    8.2700   -1.8510   22.0150 C   0  0  0  0  0  0  0  0  0  0  0  0
    7.4280   -3.9290   22.9970 C   0  0  0  0  0  0  0  0  0  0  0  0
    8.2490   -2.7270   23.1970 N   0  0  0  0  0  0  0  0  0  0  0  0
    9.4550   -3.1090   23.7150 C   0  0  1  0  0  0  0  0  0  0  0  0
   10.4730   -1.9650   23.6880 C   0  0  0  0  0  0  0  0  0  0  0  0
    9.2350   -4.0110   24.9330 C   0  0  0  0  0  0  0  0  0  0  0  0
   10.5680   -0.7410   24.5340 C   0  0  0  0  0  0  0  0  0  0  0  0
   11.4100   -2.1170   22.6940 C   0  0  0  0  0  0  0  0  0  0  0  0
    9.8350   -5.2400   25.1540 C   0  0  0  0  0  0  0  0  0  0  0  0
    8.1330   -3.6300   26.2190 S   0  0  0  0  0  0  0  0  0  0  0  0
   11.6190    0.1690   24.2350 C   0  0  0  0  0  0  0  0  0  0  0  0
   12.4030   -1.2130   22.4540 C   0  0  0  0  0  0  0  0  0  0  0  0
    9.4330   -5.8870   26.3270 C   0  0  0  0  0  0  0  0  0  0  0  0
    8.4350   -5.0830   27.0610 C   0  0  0  0  0  0  0  0  0  0  0  0
   12.5160   -0.0760   23.2150 C   0  0  0  0  0  0  0  0  0  0  0  0
   13.4540   -1.5560   21.1900 Cl  0  0  0  0  0  0  0  0  0  0  0  0
    7.8190   -5.5620   28.3570 C   0  0  0  0  0  0  0  0  0  0  0  0
  1  2  1  0
  2  3  1  0
  3  4  2  0
  3  5  1  0
  5  6  1  0
  5  7  1  0
  6  8  1  0
  7  9  1  0
  8 10  1  0
  9 10  1  0
 10 11  1  0
 11 12  1  1
 11 13  1  0
 12 14  2  0
 12 15  1  0
 13 16  2  0
 13 17  1  0
 14 18  1  0
 15 19  2  0
 16 20  1  0
 17 21  1  0
 20 21  2  0
 18 22  2  0
 19 22  1  0
 19 23  1  0
 21 24  1  0
M  END
