SEA-TRI-f62e8c25-1
     RDKit          3D

 23 25  0  0  0  0  0  0  0  0999 V2000
    8.9390   -5.3260   25.7650 C   0  0  0  0  0  0  0  0  0  0  0  0
    8.7150   -3.8960   25.2470 C   0  0  0  0  0  0  0  0  0  0  0  0
    8.1520   -2.9150   26.0070 N   0  0  0  0  0  0  0  0  0  0  0  0
    9.1660   -3.4400   23.6920 S   0  0  0  0  0  0  0  0  0  0  0  0
    8.0950   -1.7130   25.3220 N   0  0  0  0  0  0  0  0  0  0  0  0
    8.6350   -1.8130   24.0130 C   0  0  0  0  0  0  0  0  0  0  0  0
    8.8110   -0.7030   23.0110 N   0  0  0  0  0  0  0  0  0  0  0  0
    8.0830   -0.3450   21.8260 C   0  0  0  0  0  0  0  0  0  0  0  0
   10.1440   -0.3440   23.0160 C   0  0  0  0  0  0  0  0  0  0  0  0
    8.6270    0.8740   21.2810 O   0  0  0  0  0  0  0  0  0  0  0  0
    7.0400   -0.9880   21.2420 N   0  0  0  0  0  0  0  0  0  0  0  0
   10.6460    0.7810   23.6810 C   0  0  0  0  0  0  0  0  0  0  0  0
   11.0100   -1.1600   22.3170 C   0  0  0  0  0  0  0  0  0  0  0  0
    6.4110   -0.2610   20.2590 C   0  0  0  0  0  0  0  0  0  0  0  0
   12.0010    1.0530   23.6180 C   0  0  0  0  0  0  0  0  0  0  0  0
   12.3400   -0.8500   22.2860 C   0  0  0  0  0  0  0  0  0  0  0  0
    5.1470    0.5340   20.4630 C   0  0  0  0  0  0  0  0  0  0  0  0
    6.9250   -0.2080   18.9640 C   0  0  0  0  0  0  0  0  0  0  0  0
   12.8660    0.2470   22.9260 C   0  0  0  0  0  0  0  0  0  0  0  0
   13.2870   -1.9100   21.3920 Cl  0  0  0  0  0  0  0  0  0  0  0  0
    4.6170    1.2260   19.4120 N   0  0  0  0  0  0  0  0  0  0  0  0
    6.4160    0.4780   17.9000 N   0  0  0  0  0  0  0  0  0  0  0  0
    5.2990    1.1690   18.1260 C   0  0  0  0  0  0  0  0  0  0  0  0
  1  2  1  0
  2  3  2  0
  2  4  1  0
  3  5  1  0
  4  6  1  0
  5  6  2  0
  6  7  1  0
  7  8  1  0
  7  9  1  0
  8 10  2  0
  8 11  1  0
  9 12  2  0
  9 13  1  0
 11 14  1  0
 12 15  1  0
 13 16  2  0
 14 17  2  0
 14 18  1  0
 15 19  2  0
 16 19  1  0
 16 20  1  0
 17 21  1  0
 18 22  2  0
 21 23  2  0
 22 23  1  0
M  END
