SEA-TRI-38830027-1-bromoalkyne
     RDKit          3D

 27 30  0  0  0  0  0  0  0  0999 V2000
    7.0510   -3.3430   19.7950 C   0  0  0  0  0  0  0  0  0  0  0  0
    5.7730   -3.0570   19.0290 C   0  0  0  0  0  0  0  0  0  0  0  0
    7.2540   -3.0100   21.1430 N   0  0  0  0  0  0  0  0  0  0  0  0
    6.5560   -3.5900   22.2720 C   0  0  0  0  0  0  0  0  0  0  0  0
    8.1320   -1.9040   21.5480 C   0  0  0  0  0  0  0  0  0  0  0  0
    7.5600   -3.8360   23.4050 C   0  0  0  0  0  0  0  0  0  0  0  0
    9.3210   -2.4810   22.3350 C   0  0  2  0  0  0  0  0  0  0  0  0
    7.0850   -4.7130   24.5560 C   0  0  0  0  0  0  0  0  0  0  0  0
    8.8760   -3.2920   23.4050 C   0  0  0  0  0  0  0  0  0  0  0  0
   10.3040   -1.4420   22.7950 C   0  0  0  0  0  0  0  0  0  0  0  0
    5.9240   -5.1020   24.4050 O   0  0  0  0  0  0  0  0  0  0  0  0
    7.9610   -4.9780   25.6100 C   0  0  0  0  0  0  0  0  0  0  0  0
    9.7310   -3.5820   24.4890 C   0  0  0  0  0  0  0  0  0  0  0  0
   10.0240   -0.4010   23.6730 C   0  0  0  0  0  0  0  0  0  0  0  0
   11.6980   -1.2060   22.5170 C   0  0  0  0  0  0  0  0  0  0  0  0
    5.3000   -5.6270   25.5840 C   0  0  0  0  0  0  0  0  0  0  0  0
    9.3780   -4.3700   25.5690 C   0  0  0  0  0  0  0  0  0  0  0  0
   11.0520    0.4390   23.9720 O   0  0  0  0  0  0  0  0  0  0  0  0
   12.0670   -0.0810   23.2460 C   0  0  0  0  0  0  0  0  0  0  0  0
   12.8200   -2.0400   21.5280 Cl  0  0  0  0  0  0  0  0  0  0  0  0
    4.6670   -4.6080   26.2940 C   0  0  0  0  0  0  0  0  0  0  0  0
    3.6310   -5.1990   27.1260 N   0  0  0  0  0  0  0  0  0  0  0  0
    3.7030   -6.3460   27.9390 C   0  0  0  0  0  0  0  0  0  0  0  0
    2.3210   -4.8790   26.7760 C   0  0  0  0  0  0  0  0  0  0  0  0
    2.4650   -6.9700   28.5510 C   0  0  0  0  0  0  0  0  0  0  0  0
    1.4830   -4.8340   27.8910 C   0  0  0  0  0  0  0  0  0  0  0  0
    1.2980   -6.1460   28.4290 O   0  0  0  0  0  0  0  0  0  0  0  0
  1  2  2  3
  1  3  1  0
  3  4  1  0
  3  5  1  0
  4  6  1  0
  5  7  1  0
  6  8  1  0
  6  9  2  0
  7  9  1  0
  7 10  1  1
  8 11  1  0
  8 12  2  0
  9 13  1  0
 10 14  2  0
 10 15  1  0
 11 16  1  0
 12 17  1  0
 13 17  2  0
 14 18  1  0
 15 19  2  0
 18 19  1  0
 15 20  1  0
 16 21  1  0
 21 22  1  0
 22 23  1  0
 22 24  1  0
 23 25  1  0
 24 26  1  0
 25 27  1  0
 26 27  1  0
M  END
