SEA-TRI-67e8f1c7-1-vinylsulfonamide
     RDKit          3D

 32 35  0  0  0  0  0  0  0  0999 V2000
    7.1130   -5.1920   20.2040 C   0  0  0  0  0  0  0  0  0  0  0  0
    6.9730   -4.4650   21.2620 C   0  0  0  0  0  0  0  0  0  0  0  0
    5.5260   -3.5200   20.9990 S   0  0  0  0  0  0  0  0  0  0  0  0
    4.9670   -3.6910   19.6720 O   0  0  0  0  0  0  0  0  0  0  0  0
    4.6210   -3.9000   22.0520 O   0  0  0  0  0  0  0  0  0  0  0  0
    6.1110   -1.9760   21.3970 N   0  0  0  0  0  0  0  0  0  0  0  0
    6.0430   -1.8450   22.8310 C   0  0  0  0  0  0  0  0  0  0  0  0
    7.3880   -1.4110   20.8870 C   0  0  0  0  0  0  0  0  0  0  0  0
    7.0760   -2.8080   23.3970 C   0  0  0  0  0  0  0  0  0  0  0  0
    8.4670   -1.5640   21.8150 C   0  0  0  0  0  0  0  0  0  0  0  0
    8.3850   -2.6490   22.7750 N   0  0  0  0  0  0  0  0  0  0  0  0
    9.3800   -2.4900   23.8430 C   0  0  0  0  0  0  0  0  0  0  0  0
   10.4080   -1.4750   23.4610 C   0  0  0  0  0  0  0  0  0  0  0  0
   11.4190   -1.9010   22.6660 C   0  0  0  0  0  0  0  0  0  0  0  0
   10.3400   -0.1000   23.8670 C   0  0  0  0  0  0  0  0  0  0  0  0
   12.3790   -1.0530   22.2500 C   0  0  0  0  0  0  0  0  0  0  0  0
   11.4090    0.7760   23.3930 C   0  0  0  0  0  0  0  0  0  0  0  0
    9.2810    0.4440   24.6850 C   0  0  0  0  0  0  0  0  0  0  0  0
   13.4850   -1.7590   21.2280 Cl  0  0  0  0  0  0  0  0  0  0  0  0
   12.4200    0.2720   22.6060 C   0  0  0  0  0  0  0  0  0  0  0  0
   11.4770    2.1480   23.6660 C   0  0  0  0  0  0  0  0  0  0  0  0
    9.2780    1.9430   25.0210 C   0  0  0  0  0  0  0  0  0  0  0  0
    8.3670   -0.2750   25.1050 O   0  0  0  0  0  0  0  0  0  0  0  0
   10.3960    2.8290   24.4920 C   0  0  0  0  0  0  0  0  0  0  0  0
    7.5180    0.3600   25.9700 C   0  0  0  0  0  0  0  0  0  0  0  0
    6.4330    1.0550   25.1350 C   0  0  0  0  0  0  0  0  0  0  0  0
    5.2610    1.4530   25.7540 N   0  0  0  0  0  0  0  0  0  0  0  0
    5.5370    2.3550   26.8640 C   0  0  0  0  0  0  0  0  0  0  0  0
    4.3900    0.4210   26.0500 C   0  0  0  0  0  0  0  0  0  0  0  0
    4.3690    2.6040   27.5790 C   0  0  0  0  0  0  0  0  0  0  0  0
    3.3060    0.8980   26.7920 C   0  0  0  0  0  0  0  0  0  0  0  0
    3.7780    1.5680   27.8660 O   0  0  0  0  0  0  0  0  0  0  0  0
  1  2  1  0
  3  2  1  0
  3  4  2  0
  3  5  2  0
  3  6  1  0
  6  7  1  0
  6  8  1  0
  7  9  1  0
  8 10  1  0
  9 11  1  0
 10 11  1  0
 11 12  1  0
 12 13  1  0
 13 14  2  0
 13 15  1  0
 14 16  1  0
 15 17  2  0
 15 18  1  0
 16 19  1  0
 16 20  2  0
 17 20  1  0
 17 21  1  0
 18 22  2  0
 18 23  1  0
 21 24  2  0
 22 24  1  0
 23 25  1  0
 25 26  1  0
 26 27  1  0
 27 28  1  0
 27 29  1  0
 28 30  1  0
 29 31  1  0
 30 32  1  0
 31 32  1  0
M  END
