SEA-TRI-04ff6e57-1
     RDKit          3D

 23 25  0  0  0  0  0  0  0  0999 V2000
    8.8480    1.1000   21.2460 O   0  0  0  0  0  0  0  0  0  0  0  0
    8.2930    0.0400   21.6100 C   0  0  0  0  0  0  0  0  0  0  0  0
    7.2000   -0.5350   20.9930 N   0  0  0  0  0  0  0  0  0  0  0  0
    8.7200   -0.7350   22.7200 N   0  0  0  0  0  0  0  0  0  0  0  0
    6.5180    0.0920   19.9950 C   0  0  0  0  0  0  0  0  0  0  0  0
    9.9970   -0.8720   22.8380 C   0  0  0  0  0  0  0  0  0  0  0  0
    8.0060   -2.0030   22.9640 C   0  0  0  0  0  0  0  0  0  0  0  0
    5.2770    0.8780   20.3620 C   0  0  0  0  0  0  0  0  0  0  0  0
    6.9430    0.0150   18.6960 C   0  0  0  0  0  0  0  0  0  0  0  0
   10.7350   -1.2770   21.7810 C   0  0  0  0  0  0  0  0  0  0  0  0
   10.7020   -0.6440   24.0140 C   0  0  0  0  0  0  0  0  0  0  0  0
    8.7690   -3.2320   23.4970 C   0  0  0  0  0  0  0  0  0  0  0  0
    6.3100   -2.3600   22.7170 S   0  0  0  0  0  0  0  0  0  0  0  0
    4.6220    1.4940   19.3920 N   0  0  0  0  0  0  0  0  0  0  0  0
    6.2940    0.6220   17.7560 N   0  0  0  0  0  0  0  0  0  0  0  0
   12.2540   -1.5110   21.7190 C   0  0  0  0  0  0  0  0  0  0  0  0
   12.0870   -0.8390   24.0610 C   0  0  0  0  0  0  0  0  0  0  0  0
    7.7730   -4.3840   23.6320 C   0  0  0  0  0  0  0  0  0  0  0  0
    6.3920   -4.0040   23.2240 C   0  0  0  0  0  0  0  0  0  0  0  0
    5.1330    1.3680   18.0940 C   0  0  0  0  0  0  0  0  0  0  0  0
   12.8540   -1.2390   22.9960 C   0  0  0  0  0  0  0  0  0  0  0  0
   12.7910   -0.6000   25.4600 Cl  0  0  0  0  0  0  0  0  0  0  0  0
    4.9930   -4.9950   23.2200 Cl  0  0  0  0  0  0  0  0  0  0  0  0
  1  2  2  0
  2  3  1  0
  2  4  1  0
  3  5  1  0
  4  6  1  0
  4  7  1  0
  5  8  2  0
  5  9  1  0
  6 10  2  0
  6 11  1  0
  7 12  2  0
  7 13  1  0
  8 14  1  0
  9 15  2  0
 10 16  1  0
 11 17  2  0
 12 18  1  0
 13 19  1  0
 18 19  2  0
 14 20  2  0
 15 20  1  0
 16 21  2  0
 17 21  1  0
 17 22  1  0
 19 23  1  0
M  END
