SEA-TRI-f744d433-1-nitrile
     RDKit          3D

 23 25  0  0  0  0  0  0  0  0999 V2000
    6.5860   -4.4900   20.0760 C   0  0  0  0  0  0  0  0  0  0  0  0
    6.4310   -3.4990   19.2930 N   0  0  0  0  0  0  0  0  0  0  0  0
    6.3560   -4.3670   21.4210 N   0  0  0  0  0  0  0  0  0  0  0  0
    5.8390   -5.4660   22.2640 C   0  0  0  0  0  0  0  0  0  0  0  0
    7.0780   -3.4370   22.0980 C   0  0  0  0  0  0  0  0  0  0  0  0
    6.7930   -5.9240   23.4020 C   0  0  0  0  0  0  0  0  0  0  0  0
    8.1530   -4.2560   22.6990 C   0  0  2  0  0  0  0  0  0  0  0  0
    7.8750   -4.9150   23.8430 C   0  0  0  0  0  0  0  0  0  0  0  0
    9.2700   -3.6660   23.4240 C   0  0  0  0  0  0  0  0  0  0  0  0
    9.5530   -2.3770   23.4180 N   0  0  0  0  0  0  0  0  0  0  0  0
   10.3730   -4.5950   24.2790 S   0  0  0  0  0  0  0  0  0  0  0  0
   10.7210   -2.0620   24.0290 C   0  0  0  0  0  0  0  0  0  0  0  0
   11.4050   -3.2400   24.5730 C   0  0  0  0  0  0  0  0  0  0  0  0
   11.4390   -0.7460   24.2460 C   0  0  0  0  0  0  0  0  0  0  0  0
   12.6430   -3.1540   25.1980 C   0  0  0  0  0  0  0  0  0  0  0  0
   11.2360    0.7230   23.9770 C   0  0  0  0  0  0  0  0  0  0  0  0
   12.7770   -0.7580   24.9320 C   0  0  0  0  0  0  0  0  0  0  0  0
   13.2950   -1.9760   25.3600 C   0  0  0  0  0  0  0  0  0  0  0  0
   10.9100    1.1530   22.7030 C   0  0  0  0  0  0  0  0  0  0  0  0
    9.5490    2.3040   22.5720 S   0  0  0  0  0  0  0  0  0  0  0  0
   10.3330    3.7990   22.5050 N   0  0  0  0  0  0  0  0  0  0  0  0
    8.8190    2.3300   23.8230 O   0  0  0  0  0  0  0  0  0  0  0  0
    8.8580    2.1880   21.2970 O   0  0  0  0  0  0  0  0  0  0  0  0
  1  2  2  3
  1  3  1  0
  3  4  1  0
  3  5  1  0
  4  6  1  0
  5  7  1  0
  6  8  1  0
  7  8  1  0
  7  9  1  1
  9 10  2  0
  9 11  1  0
 10 12  1  0
 11 13  1  0
 12 13  2  0
 12 14  1  0
 13 15  1  0
 14 16  1  0
 14 17  2  0
 15 18  2  0
 17 18  1  0
 16 19  1  0
 19 20  1  0
 20 21  1  0
 20 22  2  0
 20 23  2  0
M  END
