SEA-TRI-f93fcab4-1-nitrile
     RDKit          3D

 25 27  0  0  0  0  0  0  0  0999 V2000
    7.5450   -3.6080   19.8520 C   0  0  0  0  0  0  0  0  0  0  0  0
    6.3740   -4.1540   19.8030 N   0  0  0  0  0  0  0  0  0  0  0  0
    7.7490   -2.2160   20.6640 C   0  0  0  0  0  0  0  0  0  0  0  0
    7.7670   -0.9650   20.1380 C   0  0  0  0  0  0  0  0  0  0  0  0
    7.9910   -1.5710   22.0820 C   0  0  0  0  0  0  0  0  0  0  0  0
    7.9490   -1.3970   21.6760 C   0  0  0  0  0  0  0  0  0  0  0  0
    7.8870   -2.7110   22.2360 C   0  0  0  0  0  0  0  0  0  0  0  0
    7.6330   -2.8710   20.9950 C   0  0  0  0  0  0  0  0  0  0  0  0
    7.9810   -3.5320   23.3500 C   0  0  0  0  0  0  0  0  0  0  0  0
    6.6400   -3.5730   23.8880 N   0  0  0  0  0  0  0  0  0  0  0  0
    5.6740   -4.5180   23.5960 C   0  0  0  0  0  0  0  0  0  0  0  0
    5.9920   -2.2420   23.8980 C   0  0  0  0  0  0  0  0  0  0  0  0
    4.6750   -4.1090   22.5630 C   0  0  0  0  0  0  0  0  0  0  0  0
    5.4750   -1.8940   22.6300 C   0  0  0  0  0  0  0  0  0  0  0  0
    5.1190   -2.9720   21.8450 N   0  0  0  0  0  0  0  0  0  0  0  0
    5.1830   -2.9470   20.4340 C   0  0  0  0  0  0  0  0  0  0  0  0
    5.0360   -3.9850   19.7560 O   0  0  0  0  0  0  0  0  0  0  0  0
    5.4250   -1.7230   19.7350 C   0  0  0  0  0  0  0  0  0  0  0  0
    6.0020   -1.7810   18.4730 C   0  0  0  0  0  0  0  0  0  0  0  0
    5.0570   -0.3770   20.3350 C   0  0  0  0  0  0  0  0  0  0  0  0
    5.4140    0.7030   19.2520 C   0  0  0  0  0  0  0  0  0  0  0  0
    4.8440    1.9490   18.6670 C   0  0  0  0  0  0  0  0  0  0  0  0
    4.2370    1.4380   19.4860 O   0  0  0  0  0  0  0  0  0  0  0  0
    3.5090    2.6100   19.0650 C   0  0  0  0  0  0  0  0  0  0  0  0
    3.0400    1.7620   20.0540 N   0  0  0  0  0  0  0  0  0  0  0  0
  1  2  2  3
  1  3  1  0
  3  4  2  0
  3  5  1  0
  4  6  1  0
  5  7  2  0
  6  8  2  0
  7  8  1  0
  7  9  1  0
  9 10  1  0
 10 11  1  0
 10 12  1  0
 11 13  1  0
 12 14  1  0
 13 15  1  0
 14 15  1  0
 15 16  1  0
 16 17  2  0
 16 18  1  0
 18 19  2  3
 18 20  1  0
 20 21  1  0
 21 22  2  0
 21 23  1  0
 22 24  1  0
 23 25  1  0
 24 25  2  0
M  END
