SEA-TRI-8252c13b-1-chloroacetamide
     RDKit          3D

 24 26  0  0  0  0  0  0  0  0999 V2000
    7.8310   -3.0130   19.7610 C   0  0  0  0  0  0  0  0  0  0  0  0
    6.6170   -2.2450   19.9750 C   0  0  0  0  0  0  0  0  0  0  0  0
    5.6460   -2.7870   19.2660 O   0  0  0  0  0  0  0  0  0  0  0  0
    6.7340   -1.0760   20.8480 N   0  0  0  0  0  0  0  0  0  0  0  0
    7.6010    0.0410   20.5190 C   0  0  0  0  0  0  0  0  0  0  0  0
    6.3180   -0.8550   22.1190 C   0  0  1  0  0  0  0  0  0  0  0  0
    8.8690    0.0160   21.3530 C   0  0  0  0  0  0  0  0  0  0  0  0
    7.4370   -0.7000   22.9680 C   0  0  0  0  0  0  0  0  0  0  0  0
    5.5860    0.3110   21.9280 C   0  0  0  0  0  0  0  0  0  0  0  0
    8.7260   -0.7140   22.5910 N   0  0  0  0  0  0  0  0  0  0  0  0
    5.4900    0.5340   20.4390 C   0  0  0  0  0  0  0  0  0  0  0  0
    9.3620   -1.9340   22.4400 C   0  0  0  0  0  0  0  0  0  0  0  0
    5.0350    1.7810   19.9800 C   0  0  0  0  0  0  0  0  0  0  0  0
    5.8570   -0.4810   19.5250 C   0  0  0  0  0  0  0  0  0  0  0  0
   10.6690   -2.0560   22.8880 C   0  0  0  0  0  0  0  0  0  0  0  0
    4.9150    2.1150   18.6260 C   0  0  0  0  0  0  0  0  0  0  0  0
    5.8270   -0.3810   18.1360 C   0  0  0  0  0  0  0  0  0  0  0  0
   11.8420   -1.9130   22.1660 C   0  0  0  0  0  0  0  0  0  0  0  0
   11.0830   -2.4350   24.5840 S   0  0  0  0  0  0  0  0  0  0  0  0
    5.3840    0.8280   18.5870 C   0  0  0  0  0  0  0  0  0  0  0  0
   13.0160   -2.1130   23.0270 C   0  0  0  0  0  0  0  0  0  0  0  0
   12.8130   -2.4070   24.3730 C   0  0  0  0  0  0  0  0  0  0  0  0
    5.3300    1.0270   17.3780 O   0  0  0  0  0  0  0  0  0  0  0  0
   13.8900   -2.7020   25.6500 Cl  0  0  0  0  0  0  0  0  0  0  0  0
  1  2  1  0
  2  3  2  0
  2  4  1  0
  4  5  1  0
  4  6  1  0
  5  7  1  0
  6  8  1  0
  6  9  1  6
  7 10  1  0
  8 10  1  0
  9 11  1  0
 10 12  1  0
 11 13  2  0
 11 14  1  0
 12 15  1  0
 13 16  1  0
 14 17  2  0
 15 18  2  0
 15 19  1  0
 16 20  2  0
 17 20  1  0
 18 21  1  0
 19 22  1  0
 21 22  2  0
 20 23  1  0
 22 24  1  0
M  END
