SEA-TRI-38830027-1-acrylamide
     RDKit          3D

 29 32  0  0  0  0  0  0  0  0999 V2000
    7.2810   -2.8140   18.3800 C   0  0  0  0  0  0  0  0  0  0  0  0
    6.6340   -2.0840   19.5220 C   0  0  0  0  0  0  0  0  0  0  0  0
    6.2340   -3.0120   20.6170 C   0  0  0  0  0  0  0  0  0  0  0  0
    5.2670   -3.8000   20.4990 O   0  0  0  0  0  0  0  0  0  0  0  0
    7.0120   -2.9170   21.7630 N   0  0  0  0  0  0  0  0  0  0  0  0
    6.5160   -3.5630   22.9690 C   0  0  0  0  0  0  0  0  0  0  0  0
    8.1410   -1.9030   21.8990 C   0  0  0  0  0  0  0  0  0  0  0  0
    7.7310   -3.7410   23.7790 C   0  0  0  0  0  0  0  0  0  0  0  0
    9.3480   -2.3670   22.5550 C   0  0  2  0  0  0  0  0  0  0  0  0
    7.0860   -4.6470   24.7680 C   0  0  0  0  0  0  0  0  0  0  0  0
    8.9870   -3.2140   23.6030 C   0  0  0  0  0  0  0  0  0  0  0  0
   10.3790   -1.4510   22.8750 C   0  0  0  0  0  0  0  0  0  0  0  0
    5.9020   -4.9090   24.5950 O   0  0  0  0  0  0  0  0  0  0  0  0
    7.9670   -5.0690   25.7710 C   0  0  0  0  0  0  0  0  0  0  0  0
    9.8630   -3.6370   24.6130 C   0  0  0  0  0  0  0  0  0  0  0  0
   10.2540   -0.4290   23.8150 C   0  0  0  0  0  0  0  0  0  0  0  0
   11.7390   -1.2710   22.4260 C   0  0  0  0  0  0  0  0  0  0  0  0
    5.2010   -5.3970   25.6660 C   0  0  0  0  0  0  0  0  0  0  0  0
    9.4390   -4.5060   25.6500 C   0  0  0  0  0  0  0  0  0  0  0  0
   11.3580    0.3680   23.9970 O   0  0  0  0  0  0  0  0  0  0  0  0
   12.2330   -0.1800   23.1340 C   0  0  0  0  0  0  0  0  0  0  0  0
   12.7110   -2.1050   21.2970 Cl  0  0  0  0  0  0  0  0  0  0  0  0
    3.8520   -6.1680   25.4290 C   0  0  0  0  0  0  0  0  0  0  0  0
    2.9650   -5.6500   26.3290 N   0  0  0  0  0  0  0  0  0  0  0  0
    1.8300   -4.8100   25.9890 C   0  0  0  0  0  0  0  0  0  0  0  0
    2.6410   -6.5960   27.4200 C   0  0  0  0  0  0  0  0  0  0  0  0
    0.6390   -5.5540   26.0110 C   0  0  0  0  0  0  0  0  0  0  0  0
    1.4960   -7.3540   27.1110 C   0  0  0  0  0  0  0  0  0  0  0  0
    0.6750   -6.7750   26.0990 O   0  0  0  0  0  0  0  0  0  0  0  0
  1  2  1  0
  2  3  1  0
  3  4  2  0
  3  5  1  0
  5  6  1  0
  5  7  1  0
  6  8  1  0
  7  9  1  0
  8 10  1  0
  8 11  2  0
  9 11  1  0
  9 12  1  1
 10 13  1  0
 10 14  2  0
 11 15  1  0
 12 16  2  0
 12 17  1  0
 13 18  1  0
 14 19  1  0
 15 19  2  0
 16 20  1  0
 17 21  2  0
 20 21  1  0
 17 22  1  0
 18 23  1  0
 23 24  1  0
 24 25  1  0
 24 26  1  0
 25 27  1  0
 26 28  1  0
 27 29  1  0
 28 29  1  0
M  END
