SEA-TRI-ec70a9dd-1-bromoalkyne
     RDKit          3D

 26 28  0  0  0  0  0  0  0  0999 V2000
    7.6210   -3.5780   19.8530 C   0  0  0  0  0  0  0  0  0  0  0  0
    6.1220   -3.7510   19.5690 C   0  0  0  0  0  0  0  0  0  0  0  0
    8.1000   -3.6790   21.2420 C   0  0  0  0  0  0  0  0  0  0  0  0
    9.2840   -3.0090   21.6340 C   0  0  0  0  0  0  0  0  0  0  0  0
    7.3450   -4.4530   22.1570 C   0  0  0  0  0  0  0  0  0  0  0  0
    9.6720   -3.1570   22.9300 C   0  0  0  0  0  0  0  0  0  0  0  0
    7.7370   -4.5940   23.4880 C   0  0  0  0  0  0  0  0  0  0  0  0
    9.0260   -3.8760   23.8760 C   0  0  0  0  0  0  0  0  0  0  0  0
    7.0190   -5.3200   24.4080 C   0  0  0  0  0  0  0  0  0  0  0  0
    6.3290   -4.3790   25.2740 N   0  0  0  0  0  0  0  0  0  0  0  0
    6.9010   -3.1580   25.5510 C   0  0  0  0  0  0  0  0  0  0  0  0
    4.8630   -4.5680   25.3390 C   0  0  0  0  0  0  0  0  0  0  0  0
    6.2280   -2.0210   24.8130 C   0  0  0  0  0  0  0  0  0  0  0  0
    4.2740   -3.3330   25.0330 C   0  0  0  0  0  0  0  0  0  0  0  0
    5.1850   -2.6500   24.0940 N   0  0  0  0  0  0  0  0  0  0  0  0
    4.6960   -2.3180   22.5430 S   0  0  0  0  0  0  0  0  0  0  0  0
    4.1180   -3.5860   22.1390 O   0  0  0  0  0  0  0  0  0  0  0  0
    3.9630   -1.0980   22.6770 O   0  0  0  0  0  0  0  0  0  0  0  0
    6.0480   -1.9760   21.4500 C   0  0  0  0  0  0  0  0  0  0  0  0
    5.6800   -1.6410   19.9720 C   0  0  0  0  0  0  0  0  0  0  0  0
    6.6770   -1.3250   18.8590 C   0  0  0  0  0  0  0  0  0  0  0  0
    6.1790   -0.6960   17.8160 N   0  0  0  0  0  0  0  0  0  0  0  0
    7.1040   -0.5510   16.7620 C   0  0  0  0  0  0  0  0  0  0  0  0
    5.9940    0.7820   17.7600 C   0  0  0  0  0  0  0  0  0  0  0  0
    7.0610    0.7880   16.6960 C   0  0  0  0  0  0  0  0  0  0  0  0
    5.2660    1.7780   18.3310 O   0  0  0  0  0  0  0  0  0  0  0  0
  1  2  2  3
  1  3  1  0
  3  4  2  0
  3  5  1  0
  4  6  1  0
  5  7  2  0
  6  8  2  0
  7  8  1  0
  7  9  1  0
  9 10  1  0
 10 11  1  0
 10 12  1  0
 11 13  1  0
 12 14  1  0
 13 15  1  0
 14 15  1  0
 15 16  1  0
 16 17  2  0
 16 18  2  0
 16 19  1  0
 19 20  2  3
 20 21  1  0
 21 22  1  0
 22 23  1  0
 22 24  1  0
 23 25  1  0
 24 25  1  0
 24 26  2  0
M  END
