SEB-HKI-06b43755-1
     RDKit          3D

 23 26  0  0  0  0  0  0  0  0999 V2000
    5.4390   -4.3180   19.6300 O   0  0  0  0  0  0  0  0  0  0  0  0
    6.2290   -3.7190   20.3500 C   0  0  0  0  0  0  0  0  0  0  0  0
    6.8210   -2.3780   19.9850 C   0  0  0  0  0  0  0  0  0  0  0  0
    6.7270   -4.2070   21.6150 N   0  0  0  0  0  0  0  0  0  0  0  0
    5.8770   -1.5030   18.7730 Cl  0  0  0  0  0  0  0  0  0  0  0  0
    7.9750   -3.6600   22.1190 C   0  0  0  0  0  0  0  0  0  0  0  0
    6.2790   -5.1850   22.6170 C   0  0  0  0  0  0  0  0  0  0  0  0
    8.2540   -4.3230   23.4560 C   0  0  0  0  0  0  0  0  0  0  0  0
    7.2650   -5.2290   23.7790 C   0  0  0  0  0  0  0  0  0  0  0  0
    5.1500   -5.9580   22.5660 C   0  0  0  0  0  0  0  0  0  0  0  0
    9.5320   -3.7570   23.9750 C   0  0  0  0  0  0  0  0  0  0  0  0
    6.9700   -6.1650   24.9200 C   0  0  0  0  0  0  0  0  0  0  0  0
    4.8640   -6.8290   23.6320 C   0  0  0  0  0  0  0  0  0  0  0  0
    9.8610   -2.4090   23.5620 N   0  0  0  0  0  0  0  0  0  0  0  0
   10.4830   -4.3100   24.7860 N   0  0  0  0  0  0  0  0  0  0  0  0
    5.6630   -6.9760   24.7580 C   0  0  0  0  0  0  0  0  0  0  0  0
    3.7570   -7.6270   23.6610 O   0  0  0  0  0  0  0  0  0  0  0  0
   11.1230   -2.2220   24.1860 C   0  0  0  0  0  0  0  0  0  0  0  0
   11.5530   -3.3150   24.9240 C   0  0  0  0  0  0  0  0  0  0  0  0
   11.8180   -1.0650   24.0450 C   0  0  0  0  0  0  0  0  0  0  0  0
   12.7660   -3.2590   25.5640 C   0  0  0  0  0  0  0  0  0  0  0  0
   13.0270   -1.0120   24.6820 C   0  0  0  0  0  0  0  0  0  0  0  0
   13.4980   -2.1030   25.4330 C   0  0  0  0  0  0  0  0  0  0  0  0
  1  2  2  0
  2  3  1  0
  2  4  1  0
  3  5  1  0
  4  6  1  0
  4  7  1  0
  6  8  2  0
  7  9  2  0
  8  9  1  0
  7 10  1  0
  8 11  1  0
  9 12  1  0
 10 13  2  0
 11 14  2  0
 11 15  1  0
 12 16  2  0
 13 16  1  0
 13 17  1  0
 14 18  1  0
 15 19  1  0
 18 19  2  0
 18 20  1  0
 19 21  1  0
 20 22  2  0
 21 23  2  0
 22 23  1  0
M  END
