SEB-HKI-06b43755-2
     RDKit          3D

 24 27  0  0  0  0  0  0  0  0999 V2000
    9.2770   -1.6940   22.4140 C   0  0  0  0  0  0  0  0  0  0  0  0
    9.9730   -2.4940   23.4120 N   0  0  0  0  0  0  0  0  0  0  0  0
    9.4950   -3.7730   23.9660 C   0  0  0  0  0  0  0  0  0  0  0  0
   11.2040   -2.3130   24.0590 C   0  0  0  0  0  0  0  0  0  0  0  0
    8.1960   -4.3140   23.4190 C   0  0  0  0  0  0  0  0  0  0  0  0
   10.2830   -4.3560   24.8950 N   0  0  0  0  0  0  0  0  0  0  0  0
   11.4330   -3.4560   24.9830 C   0  0  0  0  0  0  0  0  0  0  0  0
   11.9990   -1.2590   23.8230 C   0  0  0  0  0  0  0  0  0  0  0  0
    7.9270   -3.6160   22.0900 C   0  0  0  0  0  0  0  0  0  0  0  0
    7.1820   -5.1990   23.6600 C   0  0  0  0  0  0  0  0  0  0  0  0
   12.7400   -3.4080   25.7390 C   0  0  0  0  0  0  0  0  0  0  0  0
   13.1800   -1.2170   24.5030 C   0  0  0  0  0  0  0  0  0  0  0  0
    6.6760   -4.1570   21.5900 N   0  0  0  0  0  0  0  0  0  0  0  0
    6.2740   -5.1390   22.6060 C   0  0  0  0  0  0  0  0  0  0  0  0
    6.9890   -6.0570   24.7280 C   0  0  0  0  0  0  0  0  0  0  0  0
   13.6300   -2.1950   25.4390 C   0  0  0  0  0  0  0  0  0  0  0  0
    6.1280   -3.6820   20.3200 C   0  0  0  0  0  0  0  0  0  0  0  0
    5.1520   -5.9320   22.5860 C   0  0  0  0  0  0  0  0  0  0  0  0
    5.8270   -6.8300   24.6510 C   0  0  0  0  0  0  0  0  0  0  0  0
    5.1940   -4.3720   19.6350 O   0  0  0  0  0  0  0  0  0  0  0  0
    6.6720   -2.3850   19.7390 C   0  0  0  0  0  0  0  0  0  0  0  0
    4.9160   -6.7960   23.6320 C   0  0  0  0  0  0  0  0  0  0  0  0
    5.7730   -1.0430   20.4730 Cl  0  0  0  0  0  0  0  0  0  0  0  0
    3.7710   -7.6410   23.6750 O   0  0  0  0  0  0  0  0  0  0  0  0
  1  2  1  0
  2  3  1  0
  2  4  1  0
  3  5  1  0
  3  6  2  0
  4  7  2  0
  6  7  1  0
  4  8  1  0
  5  9  2  0
  5 10  1  0
  7 11  1  0
  8 12  2  0
  9 13  1  0
 10 14  2  0
 13 14  1  0
 10 15  1  0
 11 16  2  0
 12 16  1  0
 13 17  1  0
 14 18  1  0
 15 19  2  0
 17 20  2  0
 17 21  1  0
 18 22  2  0
 19 22  1  0
 21 23  1  0
 22 24  1  0
M  END
