SEL-UNI-cd366922-9-acrylamide
     RDKit          3D

 24 25  0  0  0  0  0  0  0  0999 V2000
    8.6470   -3.7400   20.0980 C   0  0  0  0  0  0  0  0  0  0  0  0
    7.4620   -3.0530   19.3370 C   0  0  0  0  0  0  0  0  0  0  0  0
    6.1340   -3.1420   20.1100 C   0  0  0  0  0  0  0  0  0  0  0  0
    5.1650   -3.9700   19.9050 O   0  0  0  0  0  0  0  0  0  0  0  0
    6.1060   -2.1970   21.0980 N   0  0  0  0  0  0  0  0  0  0  0  0
    5.6490   -2.4070   22.4530 C   0  0  0  0  0  0  0  0  0  0  0  0
    7.0820   -1.0920   21.0030 C   0  0  0  0  0  0  0  0  0  0  0  0
    6.9570   -2.9100   23.1200 C   0  0  0  0  0  0  0  0  0  0  0  0
    8.3580   -1.3270   21.8220 C   0  0  0  0  0  0  0  0  0  0  0  0
    8.0540   -1.9070   23.1360 N   0  0  0  0  0  0  0  0  0  0  0  0
    9.1540   -2.2470   23.9130 C   0  0  1  0  0  0  0  0  0  0  0  0
    9.5390   -3.7210   23.7620 C   0  0  0  0  0  0  0  0  0  0  0  0
   10.3660   -1.3540   23.6420 C   0  0  0  0  0  0  0  0  0  0  0  0
    8.4070   -4.6110   24.0780 N   0  0  0  0  0  0  0  0  0  0  0  0
   11.7540   -1.8160   23.2700 C   0  0  0  0  0  0  0  0  0  0  0  0
   10.2460    0.0390   23.7320 C   0  0  0  0  0  0  0  0  0  0  0  0
    7.9650   -5.8420   23.0010 S   0  0  0  0  0  0  0  0  0  0  0  0
   12.7770   -0.9050   23.0480 C   0  0  0  0  0  0  0  0  0  0  0  0
   11.3200    0.9400   23.4920 C   0  0  0  0  0  0  0  0  0  0  0  0
    9.3750   -6.8650   23.1930 C   0  0  0  0  0  0  0  0  0  0  0  0
    8.0060   -5.3370   21.6740 O   0  0  0  0  0  0  0  0  0  0  0  0
    6.7540   -6.4430   23.5020 O   0  0  0  0  0  0  0  0  0  0  0  0
   12.6070    0.4760   23.1470 C   0  0  0  0  0  0  0  0  0  0  0  0
   11.0530    2.4130   23.6030 C   0  0  0  0  0  0  0  0  0  0  0  0
  1  2  1  0
  2  3  1  0
  3  4  2  0
  3  5  1  0
  5  6  1  0
  5  7  1  0
  6  8  1  0
  7  9  1  0
  8 10  1  0
  9 10  1  0
 10 11  1  0
 11 12  1  6
 11 13  1  0
 12 14  1  0
 13 15  2  0
 13 16  1  0
 17 14  1  0
 15 18  1  0
 16 19  2  0
 17 20  1  0
 17 21  2  0
 17 22  2  0
 18 23  2  0
 19 23  1  0
 19 24  1  0
M  END
