SEL-UNI-cd366922-6-nitrile
     RDKit          3D

 18 19  0  0  0  0  0  0  0  0999 V2000
    6.8540   -3.3570   19.1470 C   0  0  0  0  0  0  0  0  0  0  0  0
    6.3510   -3.3240   18.1320 N   0  0  0  0  0  0  0  0  0  0  0  0
    7.4990   -3.3990   20.4510 N   0  0  0  0  0  0  0  0  0  0  0  0
    6.6810   -3.8840   21.5940 C   0  0  0  0  0  0  0  0  0  0  0  0
    8.1870   -2.1260   20.7940 C   0  0  0  0  0  0  0  0  0  0  0  0
    7.6920   -4.0150   22.7850 C   0  0  0  0  0  0  0  0  0  0  0  0
    9.1660   -2.3980   21.7530 C   0  0  0  0  0  0  0  0  0  0  0  0
    8.4900   -2.7770   22.8870 N   0  0  0  0  0  0  0  0  0  0  0  0
    9.3870   -2.8080   24.0800 C   0  0  0  0  0  0  0  0  0  0  0  0
   10.5880   -1.8170   23.9990 C   0  0  0  0  0  0  0  0  0  0  0  0
   11.8130   -2.6260   23.5430 C   0  0  0  0  0  0  0  0  0  0  0  0
   10.5990   -0.4350   24.2820 C   0  0  0  0  0  0  0  0  0  0  0  0
   13.1090   -1.7870   23.3980 C   0  0  0  0  0  0  0  0  0  0  0  0
   11.7540    0.3150   24.1520 C   0  0  0  0  0  0  0  0  0  0  0  0
    9.3970    0.2440   24.7150 N   0  0  0  0  0  0  0  0  0  0  0  0
   12.9320   -0.2860   23.7420 C   0  0  0  0  0  0  0  0  0  0  0  0
    9.3860    1.7150   24.9100 C   0  0  0  0  0  0  0  0  0  0  0  0
    8.9070    1.9240   26.2020 C   0  0  0  0  0  0  0  0  0  0  0  0
  1  2  2  3
  1  3  1  0
  3  4  1  0
  3  5  1  0
  4  6  1  0
  5  7  1  0
  6  8  1  0
  7  8  1  0
  8  9  1  0
  9 10  1  0
 10 11  2  0
 10 12  1  0
 11 13  1  0
 12 14  2  0
 12 15  1  0
 13 16  2  0
 14 16  1  0
 15 17  1  0
 17 18  1  0
M  END
