SEL-UNI-cd366922-1-chloroacetamide
     RDKit          3D

 22 23  0  0  0  0  0  0  0  0999 V2000
    7.1600   -2.9980   18.8270 C   0  0  0  0  0  0  0  0  0  0  0  0
    6.2280   -3.3210   19.9590 C   0  0  0  0  0  0  0  0  0  0  0  0
    5.3810   -4.2130   19.7940 O   0  0  0  0  0  0  0  0  0  0  0  0
    6.3800   -2.6070   21.1360 N   0  0  0  0  0  0  0  0  0  0  0  0
    7.0050   -1.2840   21.2790 C   0  0  0  0  0  0  0  0  0  0  0  0
    6.1440   -3.2740   22.3480 C   0  0  1  0  0  0  0  0  0  0  0  0
    8.4430   -1.6360   21.7680 C   0  0  0  0  0  0  0  0  0  0  0  0
    7.3790   -3.6680   22.8770 C   0  0  0  0  0  0  0  0  0  0  0  0
    5.0610   -2.6360   23.2300 C   0  0  0  0  0  0  0  0  0  0  0  0
    8.2770   -2.5150   22.9570 N   0  0  0  0  0  0  0  0  0  0  0  0
    5.2240   -3.1180   24.6830 C   0  0  0  0  0  0  0  0  0  0  0  0
    9.5250   -2.7390   23.7250 C   0  0  0  0  0  0  0  0  0  0  0  0
    4.2720   -4.1090   25.2780 N   0  0  0  0  0  0  0  0  0  0  0  0
    6.3900   -2.5190   25.4140 N   0  0  0  0  0  0  0  0  0  0  0  0
    9.8490   -3.7630   24.3140 O   0  0  0  0  0  0  0  0  0  0  0  0
   10.3520   -1.4700   23.6220 C   0  0  0  0  0  0  0  0  0  0  0  0
   11.6040   -1.7890   22.7530 C   0  0  0  0  0  0  0  0  0  0  0  0
   10.1990   -0.1450   24.1110 C   0  0  0  0  0  0  0  0  0  0  0  0
   12.4850   -0.5290   22.5400 C   0  0  0  0  0  0  0  0  0  0  0  0
   10.9840    0.9530   23.9160 C   0  0  0  0  0  0  0  0  0  0  0  0
   12.1070    0.8300   23.1380 C   0  0  0  0  0  0  0  0  0  0  0  0
   12.9590    2.0300   22.8490 C   0  0  0  0  0  0  0  0  0  0  0  0
  1  2  1  0
  2  3  2  0
  2  4  1  0
  4  5  1  0
  4  6  1  0
  5  7  1  0
  6  8  1  0
  6  9  1  1
  7 10  1  0
  8 10  1  0
  9 11  1  0
 10 12  1  0
 11 13  2  3
 11 14  1  0
 12 15  2  0
 12 16  1  0
 16 17  2  0
 16 18  1  0
 17 19  1  0
 18 20  2  0
 19 21  2  0
 20 21  1  0
 21 22  1  0
M  END
