SEL-UNI-cd366922-2-nitrile
     RDKit          3D

 21 22  0  0  0  0  0  0  0  0999 V2000
    7.5530   -3.3520   19.5440 C   0  0  0  0  0  0  0  0  0  0  0  0
    6.6960   -3.2040   18.5920 N   0  0  0  0  0  0  0  0  0  0  0  0
    7.3410   -2.7730   20.7640 N   0  0  0  0  0  0  0  0  0  0  0  0
    6.4500   -3.2890   21.8060 C   0  0  0  0  0  0  0  0  0  0  0  0
    7.5340   -1.3320   20.8940 C   0  0  0  0  0  0  0  0  0  0  0  0
    6.9230   -2.5860   23.1420 C   0  0  0  0  0  0  0  0  0  0  0  0
    8.5670   -1.2260   21.7910 C   0  0  0  0  0  0  0  0  0  0  0  0
    8.1650   -1.7720   22.9920 N   0  0  0  0  0  0  0  0  0  0  0  0
    9.3380   -2.2710   23.7650 C   0  0  1  0  0  0  0  0  0  0  0  0
    9.7030   -3.7070   23.3370 C   0  0  0  0  0  0  0  0  0  0  0  0
   10.4080   -1.4050   23.6080 C   0  0  0  0  0  0  0  0  0  0  0  0
    8.5220   -4.3420   22.7010 N   0  0  0  0  0  0  0  0  0  0  0  0
   10.2850    0.0480   24.1190 C   0  0  0  0  0  0  0  0  0  0  0  0
   11.6460   -1.7820   22.9780 C   0  0  0  0  0  0  0  0  0  0  0  0
    7.8910   -5.7510   23.3490 S   0  0  0  0  0  0  0  0  0  0  0  0
   11.4240    1.0080   23.9460 C   0  0  0  0  0  0  0  0  0  0  0  0
   12.7130   -0.8610   22.8250 C   0  0  0  0  0  0  0  0  0  0  0  0
    9.4620   -6.3830   23.7850 C   0  0  0  0  0  0  0  0  0  0  0  0
    7.1720   -5.3950   24.5530 O   0  0  0  0  0  0  0  0  0  0  0  0
    7.3090   -6.5340   22.2830 O   0  0  0  0  0  0  0  0  0  0  0  0
   12.6500    0.4680   23.2660 C   0  0  0  0  0  0  0  0  0  0  0  0
  1  2  2  3
  1  3  1  0
  3  4  1  0
  3  5  1  0
  4  6  1  0
  5  7  1  0
  6  8  1  0
  7  8  1  0
  8  9  1  0
  9 10  1  6
  9 11  1  0
 10 12  1  0
 11 13  2  0
 11 14  1  0
 15 12  1  0
 13 16  1  0
 14 17  2  0
 15 18  1  0
 15 19  2  0
 15 20  2  0
 16 21  2  0
 17 21  1  0
M  END
