SEL-UNI-cd366922-6-bromoalkyne
     RDKit          3D

 18 19  0  0  0  0  0  0  0  0999 V2000
    6.9200   -3.3240   19.5950 C   0  0  0  0  0  0  0  0  0  0  0  0
    5.9220   -2.8230   18.6320 C   0  0  0  0  0  0  0  0  0  0  0  0
    6.8670   -2.9370   20.9050 N   0  0  0  0  0  0  0  0  0  0  0  0
    6.5410   -3.7700   22.0640 C   0  0  0  0  0  0  0  0  0  0  0  0
    7.1810   -1.5430   21.2430 C   0  0  0  0  0  0  0  0  0  0  0  0
    7.1280   -2.9590   23.2600 C   0  0  0  0  0  0  0  0  0  0  0  0
    8.4430   -1.4630   21.8130 C   0  0  0  0  0  0  0  0  0  0  0  0
    8.4800   -2.4870   22.8540 N   0  0  0  0  0  0  0  0  0  0  0  0
    9.5110   -2.5250   23.8970 C   0  0  0  0  0  0  0  0  0  0  0  0
   10.4840   -1.3500   23.7390 C   0  0  0  0  0  0  0  0  0  0  0  0
   11.7500   -1.8980   23.0480 C   0  0  0  0  0  0  0  0  0  0  0  0
   10.3290    0.0000   24.1270 C   0  0  0  0  0  0  0  0  0  0  0  0
   12.7790   -0.7780   22.8530 C   0  0  0  0  0  0  0  0  0  0  0  0
   11.3230    0.9740   23.9180 C   0  0  0  0  0  0  0  0  0  0  0  0
    9.1660    0.5140   24.7600 N   0  0  0  0  0  0  0  0  0  0  0  0
   12.5340    0.6570   23.3010 C   0  0  0  0  0  0  0  0  0  0  0  0
    8.7080    0.1230   26.1210 C   0  0  0  0  0  0  0  0  0  0  0  0
    7.6370   -0.7390   25.9350 C   0  0  0  0  0  0  0  0  0  0  0  0
  1  2  2  3
  1  3  1  0
  3  4  1  0
  3  5  1  0
  4  6  1  0
  5  7  1  0
  6  8  1  0
  7  8  1  0
  8  9  1  0
  9 10  1  0
 10 11  2  0
 10 12  1  0
 11 13  1  0
 12 14  2  0
 12 15  1  0
 13 16  2  0
 14 16  1  0
 15 17  1  0
 17 18  1  0
M  END
