SEL-UNI-cd366922-5-vinylsulfonamide
     RDKit          3D

 25 27  0  0  0  0  0  0  0  0999 V2000
    8.4140   -3.4150   19.1590 C   0  0  0  0  0  0  0  0  0  0  0  0
    6.9470   -3.2940   18.8870 C   0  0  0  0  0  0  0  0  0  0  0  0
    5.8070   -3.5990   20.1320 S   0  0  0  0  0  0  0  0  0  0  0  0
    4.5650   -3.1910   19.5610 O   0  0  0  0  0  0  0  0  0  0  0  0
    5.9620   -4.9270   20.6300 O   0  0  0  0  0  0  0  0  0  0  0  0
    6.2130   -2.4980   21.2960 N   0  0  0  0  0  0  0  0  0  0  0  0
    5.9460   -2.8320   22.6850 C   0  0  0  0  0  0  0  0  0  0  0  0
    7.2780   -1.5060   20.9790 C   0  0  0  0  0  0  0  0  0  0  0  0
    7.3490   -3.3320   23.0720 C   0  0  0  0  0  0  0  0  0  0  0  0
    8.5620   -1.6360   21.8340 C   0  0  0  0  0  0  0  0  0  0  0  0
    8.1400   -2.0930   23.1650 N   0  0  0  0  0  0  0  0  0  0  0  0
    9.1080   -1.9490   24.2670 C   0  0  2  0  0  0  0  0  0  0  0  0
   10.3180   -1.0790   23.8770 C   0  0  0  0  0  0  0  0  0  0  0  0
    9.3960   -3.2020   24.6930 N   0  0  0  0  0  0  0  0  0  0  0  0
   11.3800   -1.8840   23.0670 C   0  0  0  0  0  0  0  0  0  0  0  0
   10.4370    0.2730   24.2210 C   0  0  0  0  0  0  0  0  0  0  0  0
   10.8060   -3.4940   25.0390 C   0  0  0  0  0  0  0  0  0  0  0  0
    8.4360   -3.6940   25.7120 C   0  0  0  0  0  0  0  0  0  0  0  0
   12.5570   -0.9390   22.7310 C   0  0  0  0  0  0  0  0  0  0  0  0
   11.5470    1.0330   23.8580 C   0  0  0  0  0  0  0  0  0  0  0  0
   10.7810   -4.5750   25.9050 C   0  0  0  0  0  0  0  0  0  0  0  0
    8.4140   -5.1960   25.6060 C   0  0  0  0  0  0  0  0  0  0  0  0
   12.6160    0.5250   23.1400 C   0  0  0  0  0  0  0  0  0  0  0  0
    9.7300   -5.5780   25.4850 C   0  0  0  0  0  0  0  0  0  0  0  0
    9.7820   -6.5960   26.3650 O   0  0  0  0  0  0  0  0  0  0  0  0
  1  2  1  0
  3  2  1  0
  3  4  2  0
  3  5  2  0
  3  6  1  0
  6  7  1  0
  6  8  1  0
  7  9  1  0
  8 10  1  0
  9 11  1  0
 10 11  1  0
 11 12  1  0
 12 13  1  6
 12 14  1  0
 13 15  2  0
 13 16  1  0
 14 17  1  0
 14 18  1  0
 15 19  1  0
 16 20  2  0
 17 21  1  0
 18 22  1  0
 19 23  2  0
 20 23  1  0
 21 24  1  0
 22 24  1  0
 24 25  1  0
M  END
