SEL-UNI-cd366922-1-acrylamide
     RDKit          3D

 23 24  0  0  0  0  0  0  0  0999 V2000
    7.9430   -3.2890   19.0720 C   0  0  0  0  0  0  0  0  0  0  0  0
    6.7510   -2.3890   18.9370 C   0  0  0  0  0  0  0  0  0  0  0  0
    5.7900   -2.7860   19.9960 C   0  0  0  0  0  0  0  0  0  0  0  0
    4.8860   -3.5500   19.6910 O   0  0  0  0  0  0  0  0  0  0  0  0
    6.0510   -2.3330   21.2710 N   0  0  0  0  0  0  0  0  0  0  0  0
    5.7310   -3.0520   22.5110 C   0  0  0  0  0  0  0  0  0  0  0  0
    7.0380   -1.2470   21.4340 C   0  0  2  0  0  0  0  0  0  0  0  0
    7.1100   -3.5840   23.0350 C   0  0  0  0  0  0  0  0  0  0  0  0
    8.2870   -1.7700   21.8130 C   0  0  0  0  0  0  0  0  0  0  0  0
    6.6010   -0.2120   22.4880 C   0  0  0  0  0  0  0  0  0  0  0  0
    8.1450   -2.5410   23.0680 N   0  0  0  0  0  0  0  0  0  0  0  0
    5.7930    0.9520   21.8570 C   0  0  0  0  0  0  0  0  0  0  0  0
    9.2910   -2.6870   23.8530 C   0  0  0  0  0  0  0  0  0  0  0  0
    6.2330    1.5560   20.5700 N   0  0  0  0  0  0  0  0  0  0  0  0
    4.6240    1.4280   22.5320 N   0  0  0  0  0  0  0  0  0  0  0  0
    9.4420   -3.5220   24.7420 O   0  0  0  0  0  0  0  0  0  0  0  0
   10.4170   -1.7020   23.5560 C   0  0  0  0  0  0  0  0  0  0  0  0
    9.9990   -0.3560   24.1360 C   0  0  0  0  0  0  0  0  0  0  0  0
   11.6450   -1.8130   22.8850 C   0  0  0  0  0  0  0  0  0  0  0  0
   11.0190    0.7080   23.8580 C   0  0  0  0  0  0  0  0  0  0  0  0
   12.5850   -0.8270   22.6360 C   0  0  0  0  0  0  0  0  0  0  0  0
   12.2950    0.4660   23.1020 C   0  0  0  0  0  0  0  0  0  0  0  0
   13.0880    1.5470   22.9090 C   0  0  0  0  0  0  0  0  0  0  0  0
  1  2  1  0
  2  3  1  0
  3  4  2  0
  3  5  1  0
  5  6  1  0
  5  7  1  0
  6  8  1  0
  7  9  1  0
  7 10  1  1
  8 11  1  0
  9 11  1  0
 10 12  1  0
 11 13  1  0
 12 14  2  3
 12 15  1  0
 13 16  2  0
 13 17  1  0
 17 18  2  0
 17 19  1  0
 18 20  1  0
 19 21  2  0
 20 22  2  0
 21 22  1  0
 22 23  1  0
M  END
