SEL-UNI-cd366922-3-acrylamide
     RDKit          3D

 25 27  0  0  0  0  0  0  0  0999 V2000
    6.9660   -3.1930   19.2850 C   0  0  0  0  0  0  0  0  0  0  0  0
    6.8630   -2.6820   20.7120 C   0  0  0  0  0  0  0  0  0  0  0  0
    5.5880   -3.2370   21.2870 C   0  0  0  0  0  0  0  0  0  0  0  0
    4.7640   -3.7600   22.0260 O   0  0  0  0  0  0  0  0  0  0  0  0
    6.4660   -3.4960   22.3210 N   0  0  0  0  0  0  0  0  0  0  0  0
    6.9130   -2.3870   23.1070 N   0  0  0  0  0  0  0  0  0  0  0  0
    6.8830   -2.5120   24.4750 C   0  0  0  0  0  0  0  0  0  0  0  0
    7.1970   -1.5650   25.2220 O   0  0  0  0  0  0  0  0  0  0  0  0
    6.4290   -3.8590   25.0300 C   0  0  0  0  0  0  0  0  0  0  0  0
    5.5220   -2.7650   24.5140 C   0  0  0  0  0  0  0  0  0  0  0  0
    8.1060   -3.9680   25.2020 S   0  0  0  0  0  0  0  0  0  0  0  0
    6.6330   -1.6970   24.1780 C   0  0  0  0  0  0  0  0  0  0  0  0
    8.0550   -2.2960   24.5320 C   0  0  0  0  0  0  0  0  0  0  0  0
    9.2640   -1.3800   24.2800 C   0  0  1  0  0  0  0  0  0  0  0  0
    6.4860   -0.3890   23.6520 C   0  0  0  0  0  0  0  0  0  0  0  0
   10.2600   -1.8370   23.2170 C   0  0  0  0  0  0  0  0  0  0  0  0
    8.9520    0.0040   24.1980 C   0  0  2  0  0  0  0  0  0  0  0  0
    7.7960    0.2860   23.2010 C   0  0  0  0  0  0  0  0  0  0  0  0
   11.2550   -0.9030   22.9220 C   0  0  2  0  0  0  0  0  0  0  0  0
   10.0690    0.7990   23.9000 C   0  0  0  0  0  0  0  0  0  0  0  0
   12.6860   -1.6910   22.4030 S   0  0  0  0  0  0  0  0  0  0  0  0
   11.2590    0.0730   23.9190 C   0  0  0  0  0  0  0  0  0  0  0  0
   12.1640   -2.7400   21.1610 N   0  0  0  0  0  0  0  0  0  0  0  0
   13.1630   -2.5010   23.4970 O   0  0  0  0  0  0  0  0  0  0  0  0
   13.5180   -0.6750   21.8150 O   0  0  0  0  0  0  0  0  0  0  0  0
  1  2  1  0
  2  3  1  0
  3  4  2  0
  3  5  1  0
  5  6  1  0
  6  7  1  0
  7  8  2  0
  7  9  1  0
  9 10  2  0
  9 11  1  0
 10 12  1  0
 11 13  1  0
 12 13  2  0
 13 14  1  0
 12 15  1  0
 14 16  1  6
 14 17  1  0
 15 18  1  0
 17 18  1  6
 16 19  1  0
 17 20  1  0
 19 21  1  1
 19 22  1  0
 20 22  1  0
 21 23  1  0
 21 24  2  0
 21 25  2  0
M  END
