SEL-UNI-cd366922-1-vinylsulfonamide
     RDKit          3D

 24 25  0  0  0  0  0  0  0  0999 V2000
    7.4510   -2.8780   18.1620 C   0  0  0  0  0  0  0  0  0  0  0  0
    6.9220   -1.8330   19.0630 C   0  0  0  0  0  0  0  0  0  0  0  0
    5.6260   -2.4280   20.1200 S   0  0  0  0  0  0  0  0  0  0  0  0
    5.0750   -3.7750   19.8300 O   0  0  0  0  0  0  0  0  0  0  0  0
    4.7800   -1.2640   20.2220 O   0  0  0  0  0  0  0  0  0  0  0  0
    6.4980   -2.4210   21.5150 N   0  0  0  0  0  0  0  0  0  0  0  0
    7.2640   -1.2280   21.8630 C   0  0  0  0  0  0  0  0  0  0  0  0
    6.3250   -3.4500   22.4490 C   0  0  2  0  0  0  0  0  0  0  0  0
    8.6690   -1.8440   22.0110 C   0  0  0  0  0  0  0  0  0  0  0  0
    7.1850   -3.2340   23.5480 C   0  0  0  0  0  0  0  0  0  0  0  0
    6.2140   -4.8480   21.8200 C   0  0  0  0  0  0  0  0  0  0  0  0
    8.5280   -2.8640   23.0750 N   0  0  0  0  0  0  0  0  0  0  0  0
    5.8380   -5.8540   22.9030 C   0  0  0  0  0  0  0  0  0  0  0  0
    9.5980   -2.8100   24.1020 C   0  0  0  0  0  0  0  0  0  0  0  0
    4.9810   -5.4720   24.0750 N   0  0  0  0  0  0  0  0  0  0  0  0
    6.4100   -7.2080   22.6450 N   0  0  0  0  0  0  0  0  0  0  0  0
    9.9200   -3.6750   25.1920 O   0  0  0  0  0  0  0  0  0  0  0  0
   10.4370   -1.5650   23.8610 C   0  0  0  0  0  0  0  0  0  0  0  0
   11.6660   -1.9080   22.9640 C   0  0  0  0  0  0  0  0  0  0  0  0
   10.3060   -0.2090   24.2620 C   0  0  0  0  0  0  0  0  0  0  0  0
   12.5350   -0.6680   22.6460 C   0  0  0  0  0  0  0  0  0  0  0  0
   11.1110    0.8500   23.9470 C   0  0  0  0  0  0  0  0  0  0  0  0
   12.2040    0.7250   23.1630 C   0  0  0  0  0  0  0  0  0  0  0  0
   13.0040    1.9530   22.8410 C   0  0  0  0  0  0  0  0  0  0  0  0
  1  2  1  0
  3  2  1  0
  3  4  2  0
  3  5  2  0
  3  6  1  0
  6  7  1  0
  6  8  1  0
  7  9  1  0
  8 10  1  0
  8 11  1  6
  9 12  1  0
 10 12  1  0
 11 13  1  0
 12 14  1  0
 13 15  2  3
 13 16  1  0
 14 17  2  0
 14 18  1  0
 18 19  2  0
 18 20  1  0
 19 21  1  0
 20 22  2  0
 21 23  2  0
 22 23  1  0
 23 24  1  0
M  END
