SEL-UNI-49ab05bd-1-nitrile
     RDKit          3D

 38 41  0  0  0  0  0  0  0  0999 V2000
    6.8180   -3.8430   20.1610 C   0  0  0  0  0  0  0  0  0  0  0  0
    5.7370   -4.4920   19.9210 N   0  0  0  0  0  0  0  0  0  0  0  0
    6.8890   -2.8060   21.1000 N   0  0  0  0  0  0  0  0  0  0  0  0
    8.0200   -2.7760   22.0860 C   0  0  0  0  0  0  0  0  0  0  0  0
    6.4370   -1.4450   20.7730 C   0  0  1  0  0  0  0  0  0  0  0  0
    9.0590   -1.6280   21.8250 C   0  0  2  0  0  0  0  0  0  0  0  0
    7.4970   -0.8160   19.9870 C   0  0  0  0  0  0  0  0  0  0  0  0
    5.1440   -1.2540   20.0080 C   0  0  0  0  0  0  0  0  0  0  0  0
   10.5580   -2.0140   22.0100 C   0  0  0  0  0  0  0  0  0  0  0  0
    8.7570   -0.3550   22.4220 O   0  0  0  0  0  0  0  0  0  0  0  0
    7.1100    0.0480   19.0460 C   0  0  0  0  0  0  0  0  0  0  0  0
    5.4190    0.1720   18.9710 S   0  0  0  0  0  0  0  0  0  0  0  0
   11.5060   -0.8320   22.2770 C   0  0  0  0  0  0  0  0  0  0  0  0
    9.1930   -0.1300   23.7560 C   0  0  0  0  0  0  0  0  0  0  0  0
    4.9770    1.3630   19.6670 O   0  0  0  0  0  0  0  0  0  0  0  0
    5.1450   -0.1080   17.5930 O   0  0  0  0  0  0  0  0  0  0  0  0
   11.5770   -0.5410   23.6710 N   0  0  0  0  0  0  0  0  0  0  0  0
   10.5510    0.4060   23.8400 N   0  0  0  0  0  0  0  0  0  0  0  0
   11.3660   -1.6970   24.3370 C   0  0  0  0  0  0  0  0  0  0  0  0
   10.7330    1.5900   23.1260 C   0  0  0  0  0  0  0  0  0  0  0  0
   12.2730   -2.4690   25.0290 C   0  0  0  0  0  0  0  0  0  0  0  0
   10.0820   -2.1400   24.2760 C   0  0  0  0  0  0  0  0  0  0  0  0
    9.7850    2.2020   22.6210 O   0  0  0  0  0  0  0  0  0  0  0  0
   12.1440    2.0830   22.9640 C   0  0  0  0  0  0  0  0  0  0  0  0
   11.8140   -3.6390   25.6010 C   0  0  0  0  0  0  0  0  0  0  0  0
    9.5780   -3.2310   24.7840 N   0  0  0  0  0  0  0  0  0  0  0  0
   12.1410    3.8180   22.5620 Cl  0  0  0  0  0  0  0  0  0  0  0  0
   10.4560   -3.9730   25.4350 C   0  0  0  0  0  0  0  0  0  0  0  0
    9.7790   -5.1900   25.9350 C   0  0  0  0  0  0  0  0  0  0  0  0
    9.8290   -5.5080   27.1140 O   0  0  0  0  0  0  0  0  0  0  0  0
    9.1120   -5.7990   24.8680 N   0  0  0  0  0  0  0  0  0  0  0  0
    7.7310   -5.6890   24.5460 C   0  0  0  0  0  0  0  0  0  0  0  0
    6.7560   -5.2110   25.3900 C   0  0  0  0  0  0  0  0  0  0  0  0
    7.2880   -6.0980   23.2790 C   0  0  0  0  0  0  0  0  0  0  0  0
    5.4330   -5.1070   25.0880 N   0  0  0  0  0  0  0  0  0  0  0  0
    5.9470   -6.0140   22.9040 C   0  0  0  0  0  0  0  0  0  0  0  0
    5.0660   -5.5110   23.8520 C   0  0  0  0  0  0  0  0  0  0  0  0
    5.5300   -6.4200   21.6310 N   0  0  0  0  0  0  0  0  0  0  0  0
  1  2  2  3
  1  3  1  0
  3  4  1  0
  5  3  1  6
  6  4  1  1
  5  7  1  0
  5  8  1  0
  6  9  1  0
  6 10  1  0
  7 11  2  0
  8 12  1  0
 12 11  1  0
  9 13  1  0
 10 14  1  0
 12 15  2  0
 12 16  2  0
 13 17  1  0
 14 18  1  0
 17 18  1  0
 17 19  1  0
 18 20  1  0
 19 21  2  0
 19 22  1  0
 20 23  2  0
 20 24  1  0
 21 25  1  0
 22 26  2  0
 24 27  1  0
 25 28  2  0
 26 28  1  0
 28 29  1  0
 29 30  2  0
 29 31  1  0
 31 32  1  0
 32 33  2  0
 32 34  1  0
 33 35  1  0
 34 36  2  0
 35 37  2  0
 36 37  1  0
 36 38  1  0
M  END
