SEL-UNI-cd366922-3-chloroacetamide
     RDKit          3D

 24 26  0  0  0  0  0  0  0  0999 V2000
    7.3380   -4.1950   20.6320 C   0  0  0  0  0  0  0  0  0  0  0  0
    5.9520   -3.6140   20.5320 C   0  0  0  0  0  0  0  0  0  0  0  0
    5.1470   -4.0880   19.7130 O   0  0  0  0  0  0  0  0  0  0  0  0
    5.6240   -2.5480   21.3400 N   0  0  0  0  0  0  0  0  0  0  0  0
    5.6810   -1.2740   20.7240 N   0  0  0  0  0  0  0  0  0  0  0  0
    6.2150   -0.1420   21.4790 C   0  0  0  0  0  0  0  0  0  0  0  0
    5.3620    0.8750   21.8180 O   0  0  0  0  0  0  0  0  0  0  0  0
    7.7280   -0.2520   21.7980 C   0  0  0  0  0  0  0  0  0  0  0  0
    8.3090    1.0950   22.3380 C   0  0  0  0  0  0  0  0  0  0  0  0
    8.7350   -1.6090   21.6240 S   0  0  0  0  0  0  0  0  0  0  0  0
    9.8060    0.8340   22.6190 C   0  0  0  0  0  0  0  0  0  0  0  0
   10.0690   -0.6400   22.2360 C   0  0  0  0  0  0  0  0  0  0  0  0
   11.5300   -0.9880   22.4960 C   0  0  2  0  0  0  0  0  0  0  0  0
   10.7620    1.7380   23.1260 C   0  0  0  0  0  0  0  0  0  0  0  0
   11.7230   -2.4680   22.6610 C   0  0  0  0  0  0  0  0  0  0  0  0
   12.1500   -0.2270   23.4690 C   0  0  1  0  0  0  0  0  0  0  0  0
   12.0740    1.2500   23.1520 C   0  0  0  0  0  0  0  0  0  0  0  0
   11.6180   -2.7470   24.1140 C   0  0  1  0  0  0  0  0  0  0  0  0
   11.5520   -0.4470   24.6850 C   0  0  0  0  0  0  0  0  0  0  0  0
   13.2260   -2.7620   24.6540 S   0  0  0  0  0  0  0  0  0  0  0  0
   10.9810   -1.7100   24.7860 C   0  0  0  0  0  0  0  0  0  0  0  0
   13.2310   -1.2680   25.4170 N   0  0  0  0  0  0  0  0  0  0  0  0
   14.0120   -2.6820   23.4610 O   0  0  0  0  0  0  0  0  0  0  0  0
   13.5130   -3.7400   25.6740 O   0  0  0  0  0  0  0  0  0  0  0  0
  1  2  1  0
  2  3  2  0
  2  4  1  0
  4  5  1  0
  5  6  1  0
  6  7  2  0
  6  8  1  0
  8  9  2  0
  8 10  1  0
  9 11  1  0
 10 12  1  0
 11 12  2  0
 12 13  1  0
 11 14  1  0
 13 15  1  1
 13 16  1  0
 14 17  1  0
 16 17  1  6
 15 18  1  0
 16 19  1  0
 18 20  1  1
 18 21  1  0
 19 21  1  0
 20 22  1  0
 20 23  2  0
 20 24  2  0
M  END
