SEL-UNI-cd366922-5-bromoalkyne
     RDKit          3D

 22 24  0  0  0  0  0  0  0  0999 V2000
    7.0410   -3.3890   19.7380 C   0  0  0  0  0  0  0  0  0  0  0  0
    6.2460   -2.7970   18.6040 C   0  0  0  0  0  0  0  0  0  0  0  0
    6.8060   -2.7950   20.9620 N   0  0  0  0  0  0  0  0  0  0  0  0
    7.2910   -1.4480   21.2310 C   0  0  0  0  0  0  0  0  0  0  0  0
    6.3810   -3.4650   22.1740 C   0  0  0  0  0  0  0  0  0  0  0  0
    8.6930   -1.7980   21.7940 C   0  0  0  0  0  0  0  0  0  0  0  0
    7.5920   -3.6120   23.0890 C   0  0  0  0  0  0  0  0  0  0  0  0
    8.4510   -2.3950   23.1430 N   0  0  0  0  0  0  0  0  0  0  0  0
    9.6710   -2.7520   23.8900 C   0  0  1  0  0  0  0  0  0  0  0  0
   10.7510   -1.6780   23.6190 C   0  0  0  0  0  0  0  0  0  0  0  0
    9.3710   -2.9670   25.2210 N   0  0  0  0  0  0  0  0  0  0  0  0
   10.3040   -0.2990   24.2190 C   0  0  0  0  0  0  0  0  0  0  0  0
   11.9620   -1.8920   22.9350 C   0  0  0  0  0  0  0  0  0  0  0  0
    8.0120   -2.5240   25.7330 C   0  0  0  0  0  0  0  0  0  0  0  0
   10.0410   -4.1760   25.7890 C   0  0  0  0  0  0  0  0  0  0  0  0
   11.4000    0.7860   23.9330 C   0  0  0  0  0  0  0  0  0  0  0  0
   12.8730   -0.8790   22.7280 C   0  0  0  0  0  0  0  0  0  0  0  0
    7.2820   -3.5220   26.4090 C   0  0  0  0  0  0  0  0  0  0  0  0
    9.0710   -5.2450   26.2420 C   0  0  0  0  0  0  0  0  0  0  0  0
   12.6590    0.3940   23.1760 C   0  0  0  0  0  0  0  0  0  0  0  0
    8.1250   -4.6090   27.0130 C   0  0  0  0  0  0  0  0  0  0  0  0
    7.3070   -5.6260   27.4040 O   0  0  0  0  0  0  0  0  0  0  0  0
  1  2  2  3
  1  3  1  0
  3  4  1  0
  3  5  1  0
  4  6  1  0
  5  7  1  0
  6  8  1  0
  7  8  1  0
  8  9  1  0
  9 10  1  1
  9 11  1  0
 10 12  2  0
 10 13  1  0
 11 14  1  0
 11 15  1  0
 12 16  1  0
 13 17  2  0
 14 18  1  0
 15 19  1  0
 16 20  2  0
 17 20  1  0
 18 21  1  0
 19 21  1  0
 21 22  1  0
M  END
