SEL-UNI-49ab05bd-7-acrylamide
     RDKit          3D

 32 35  0  0  0  0  0  0  0  0999 V2000
    8.5870   -3.7600   20.0220 C   0  0  0  0  0  0  0  0  0  0  0  0
    7.4970   -4.2600   20.9650 C   0  0  0  0  0  0  0  0  0  0  0  0
    6.1770   -4.4270   20.2540 C   0  0  0  0  0  0  0  0  0  0  0  0
    5.0970   -4.2040   19.7490 O   0  0  0  0  0  0  0  0  0  0  0  0
    6.0900   -3.0800   20.5770 N   0  0  0  0  0  0  0  0  0  0  0  0
    6.6790   -1.9760   19.8390 C   0  0  0  0  0  0  0  0  0  0  0  0
    5.2730   -2.6430   21.7100 C   0  0  0  0  0  0  0  0  0  0  0  0
    7.5530   -1.1260   20.7580 C   0  0  0  0  0  0  0  0  0  0  0  0
    6.1160   -2.0020   22.7950 C   0  0  2  0  0  0  0  0  0  0  0  0
    6.9920   -0.8810   22.1810 C   0  0  0  0  0  0  0  0  0  0  0  0
    6.9130   -3.0260   23.5480 C   0  0  0  0  0  0  0  0  0  0  0  0
    6.8930   -4.3240   23.3180 N   0  0  0  0  0  0  0  0  0  0  0  0
    7.7750   -2.7390   24.5720 N   0  0  0  0  0  0  0  0  0  0  0  0
    7.7790   -4.8690   24.2100 C   0  0  0  0  0  0  0  0  0  0  0  0
    8.3280   -3.9010   25.0070 C   0  0  0  0  0  0  0  0  0  0  0  0
    8.1180   -1.4870   25.1490 C   0  0  0  0  0  0  0  0  0  0  0  0
    8.2240   -6.1400   24.4670 C   0  0  0  0  0  0  0  0  0  0  0  0
    9.2190   -4.0490   25.9980 N   0  0  0  0  0  0  0  0  0  0  0  0
    9.6220   -1.4390   25.1720 C   0  0  0  0  0  0  0  0  0  0  0  0
    7.7420   -7.2180   23.7200 C   0  0  0  0  0  0  0  0  0  0  0  0
    9.1260   -6.3800   25.4350 N   0  0  0  0  0  0  0  0  0  0  0  0
    9.5650   -5.3340   26.1450 C   0  0  0  0  0  0  0  0  0  0  0  0
   10.2880   -2.4420   25.4330 O   0  0  0  0  0  0  0  0  0  0  0  0
   10.2780   -0.1340   24.8440 C   0  0  0  0  0  0  0  0  0  0  0  0
    7.3240   -8.1320   23.1110 C   0  0  0  0  0  0  0  0  0  0  0  0
   10.5380   -0.0510   23.4240 N   0  0  0  0  0  0  0  0  0  0  0  0
   11.2300   -1.0650   22.8060 C   0  0  0  0  0  0  0  0  0  0  0  0
   10.8870    1.2870   23.0090 C   0  0  0  0  0  0  0  0  0  0  0  0
   12.4750   -0.9180   22.3840 C   0  0  0  0  0  0  0  0  0  0  0  0
   12.3160    1.5230   22.9350 N   0  0  0  0  0  0  0  0  0  0  0  0
   13.2630   -1.8450   21.7560 N   0  0  0  0  0  0  0  0  0  0  0  0
   12.9880    0.4620   22.6580 C   0  0  0  0  0  0  0  0  0  0  0  0
  1  2  1  0
  2  3  1  0
  3  4  2  0
  3  5  1  0
  5  6  1  0
  5  7  1  0
  6  8  1  0
  7  9  1  0
  8 10  1  0
  9 10  1  0
  9 11  1  6
 11 12  2  0
 11 13  1  0
 12 14  1  0
 13 15  1  0
 14 15  2  0
 13 16  1  0
 14 17  1  0
 15 18  1  0
 16 19  1  0
 17 20  1  0
 17 21  2  0
 18 22  2  0
 21 22  1  0
 19 23  2  0
 19 24  1  0
 20 25  3  0
 24 26  1  0
 26 27  1  0
 26 28  1  0
 27 29  2  0
 28 30  1  0
 29 31  1  0
 29 32  1  0
 30 32  2  0
M  END
