SEL-UNI-cd366922-8-vinylsulfonamide
     RDKit          3D

 28 30  0  0  0  0  0  0  0  0999 V2000
    7.8250   -3.0940   18.7020 C   0  0  0  0  0  0  0  0  0  0  0  0
    6.4360   -2.6360   18.6610 C   0  0  0  0  0  0  0  0  0  0  0  0
    5.5300   -3.3360   20.0080 S   0  0  0  0  0  0  0  0  0  0  0  0
    4.3320   -2.9140   19.6050 O   0  0  0  0  0  0  0  0  0  0  0  0
    5.4290   -4.7730   20.1670 O   0  0  0  0  0  0  0  0  0  0  0  0
    6.1270   -2.5590   21.3410 N   0  0  0  0  0  0  0  0  0  0  0  0
    7.0590   -1.4120   21.2220 C   0  0  0  0  0  0  0  0  0  0  0  0
    5.9900   -3.2060   22.6350 C   0  0  0  0  0  0  0  0  0  0  0  0
    8.4400   -1.9910   21.6790 C   0  0  0  0  0  0  0  0  0  0  0  0
    7.3460   -3.5760   23.2140 C   0  0  0  0  0  0  0  0  0  0  0  0
    8.2890   -2.4680   23.0730 N   0  0  0  0  0  0  0  0  0  0  0  0
    9.4860   -2.6590   23.8980 C   0  0  0  0  0  0  0  0  0  0  0  0
   10.3420   -1.4440   23.6460 C   0  0  0  0  0  0  0  0  0  0  0  0
   11.5930   -1.8780   22.8450 C   0  0  0  0  0  0  0  0  0  0  0  0
   10.0440   -0.1490   24.0520 C   0  0  0  0  0  0  0  0  0  0  0  0
   12.4510   -0.6440   22.5440 C   0  0  0  0  0  0  0  0  0  0  0  0
   10.8670    0.9080   23.7400 C   0  0  0  0  0  0  0  0  0  0  0  0
   12.0340    0.7500   23.0110 C   0  0  0  0  0  0  0  0  0  0  0  0
   10.5150    2.2440   24.1660 N   0  0  0  0  0  0  0  0  0  0  0  0
   10.8890    3.3360   23.2580 C   0  0  0  0  0  0  0  0  0  0  0  0
   12.7720    1.8960   22.7380 C   0  0  0  0  0  0  0  0  0  0  0  0
   12.0540    3.0810   22.5600 C   0  0  0  0  0  0  0  0  0  0  0  0
   12.5760    4.1210   21.6120 C   0  0  0  0  0  0  0  0  0  0  0  0
   12.8510    5.5300   22.0960 C   0  0  0  0  0  0  0  0  0  0  0  0
   14.2180    5.5400   22.5940 N   0  0  0  0  0  0  0  0  0  0  0  0
   15.3010    4.6530   22.0860 C   0  0  0  0  0  0  0  0  0  0  0  0
   16.5720    4.4640   22.9610 C   0  0  0  0  0  0  0  0  0  0  0  0
   15.1440    4.0190   20.8180 O   0  0  0  0  0  0  0  0  0  0  0  0
  1  2  1  0
  3  2  1  0
  3  4  2  0
  3  5  2  0
  3  6  1  0
  6  7  1  0
  6  8  1  0
  7  9  1  0
  8 10  1  0
  9 11  1  0
 10 11  1  0
 11 12  1  0
 12 13  1  0
 13 14  2  0
 13 15  1  0
 14 16  1  0
 15 17  2  0
 16 18  2  0
 17 18  1  0
 17 19  1  0
 19 20  1  0
 18 21  1  0
 20 22  2  0
 21 22  1  0
 22 23  1  0
 23 24  1  0
 24 25  1  0
 25 26  1  0
 26 27  1  0
 26 28  2  0
M  END
