SEL-UNI-cd366922-9-chloroacetamide
     RDKit          3D

 23 24  0  0  0  0  0  0  0  0999 V2000
    7.5780   -3.0930   18.7680 C   0  0  0  0  0  0  0  0  0  0  0  0
    6.4780   -3.2480   19.8060 C   0  0  0  0  0  0  0  0  0  0  0  0
    5.6090   -4.1300   19.7360 O   0  0  0  0  0  0  0  0  0  0  0  0
    6.4650   -2.3450   20.8300 N   0  0  0  0  0  0  0  0  0  0  0  0
    7.2180   -1.0990   20.8680 C   0  0  0  0  0  0  0  0  0  0  0  0
    5.9420   -2.6780   22.1410 C   0  0  0  0  0  0  0  0  0  0  0  0
    8.5450   -1.5880   21.5080 C   0  0  0  0  0  0  0  0  0  0  0  0
    7.0370   -2.7780   23.1860 C   0  0  0  0  0  0  0  0  0  0  0  0
    8.2290   -1.9390   22.9150 N   0  0  0  0  0  0  0  0  0  0  0  0
    9.3690   -2.2720   23.7650 C   0  0  1  0  0  0  0  0  0  0  0  0
    9.8490   -3.6910   23.4380 C   0  0  0  0  0  0  0  0  0  0  0  0
   10.5050   -1.3020   23.5380 C   0  0  0  0  0  0  0  0  0  0  0  0
    8.8950   -4.4690   24.2210 N   0  0  0  0  0  0  0  0  0  0  0  0
   11.9100   -1.7040   23.1310 C   0  0  0  0  0  0  0  0  0  0  0  0
   10.2900    0.0800   23.7010 C   0  0  0  0  0  0  0  0  0  0  0  0
    8.1760   -5.8440   23.5680 S   0  0  0  0  0  0  0  0  0  0  0  0
   12.9230   -0.6250   22.9400 C   0  0  0  0  0  0  0  0  0  0  0  0
   11.2820    1.0750   23.5060 C   0  0  0  0  0  0  0  0  0  0  0  0
    7.8850   -5.4220   21.8960 C   0  0  0  0  0  0  0  0  0  0  0  0
    9.1820   -6.8750   23.5460 O   0  0  0  0  0  0  0  0  0  0  0  0
    6.8850   -5.9480   24.2130 O   0  0  0  0  0  0  0  0  0  0  0  0
   12.5840    0.7090   23.1310 C   0  0  0  0  0  0  0  0  0  0  0  0
   10.9340    2.4020   23.6800 C   0  0  0  0  0  0  0  0  0  0  0  0
  1  2  1  0
  2  3  2  0
  2  4  1  0
  4  5  1  0
  4  6  1  0
  5  7  1  0
  6  8  1  0
  7  9  1  0
  8  9  1  0
  9 10  1  0
 10 11  1  6
 10 12  1  0
 11 13  1  0
 12 14  2  0
 12 15  1  0
 16 13  1  0
 14 17  1  0
 15 18  2  0
 16 19  1  0
 16 20  2  0
 16 21  2  0
 17 22  2  0
 18 22  1  0
 18 23  1  0
M  END
