SEL-UNI-cd366922-6-vinylsulfonamide
     RDKit          3D

 21 22  0  0  0  0  0  0  0  0999 V2000
    7.9820   -3.3310   19.0500 C   0  0  0  0  0  0  0  0  0  0  0  0
    6.8170   -2.4850   18.6000 C   0  0  0  0  0  0  0  0  0  0  0  0
    5.6070   -2.5300   19.8380 S   0  0  0  0  0  0  0  0  0  0  0  0
    4.9500   -3.7870   19.6560 O   0  0  0  0  0  0  0  0  0  0  0  0
    4.8790   -1.3290   19.7420 O   0  0  0  0  0  0  0  0  0  0  0  0
    6.5240   -2.4490   21.2110 N   0  0  0  0  0  0  0  0  0  0  0  0
    6.0870   -2.9280   22.5180 C   0  0  0  0  0  0  0  0  0  0  0  0
    7.4240   -1.2940   21.2500 C   0  0  0  0  0  0  0  0  0  0  0  0
    7.4390   -3.4380   23.1060 C   0  0  0  0  0  0  0  0  0  0  0  0
    8.6490   -1.7570   21.7360 C   0  0  0  0  0  0  0  0  0  0  0  0
    8.4120   -2.3130   23.0720 N   0  0  0  0  0  0  0  0  0  0  0  0
    9.4020   -2.2550   24.1550 C   0  0  0  0  0  0  0  0  0  0  0  0
   10.4840   -1.2090   23.8660 C   0  0  0  0  0  0  0  0  0  0  0  0
   11.6580   -1.9140   23.1250 C   0  0  0  0  0  0  0  0  0  0  0  0
   10.4530    0.1620   24.2040 C   0  0  0  0  0  0  0  0  0  0  0  0
   12.7730   -0.8920   22.8170 C   0  0  0  0  0  0  0  0  0  0  0  0
   11.4950    1.0420   23.8990 C   0  0  0  0  0  0  0  0  0  0  0  0
    9.3760    0.7860   24.8750 N   0  0  0  0  0  0  0  0  0  0  0  0
   12.6070    0.5540   23.2390 C   0  0  0  0  0  0  0  0  0  0  0  0
    8.5280    1.8110   24.1950 C   0  0  0  0  0  0  0  0  0  0  0  0
    9.2840    2.3580   23.1600 C   0  0  0  0  0  0  0  0  0  0  0  0
  1  2  1  0
  3  2  1  0
  3  4  2  0
  3  5  2  0
  3  6  1  0
  6  7  1  0
  6  8  1  0
  7  9  1  0
  8 10  1  0
  9 11  1  0
 10 11  1  0
 11 12  1  0
 12 13  1  0
 13 14  2  0
 13 15  1  0
 14 16  1  0
 15 17  2  0
 15 18  1  0
 16 19  2  0
 17 19  1  0
 18 20  1  0
 20 21  1  0
M  END
