SEL-UNI-cd366922-2-acrylamide
     RDKit          3D

 23 24  0  0  0  0  0  0  0  0999 V2000
    8.8710   -3.8340   20.2440 C   0  0  0  0  0  0  0  0  0  0  0  0
    7.6220   -3.1600   19.5090 C   0  0  0  0  0  0  0  0  0  0  0  0
    6.2550   -3.2650   20.2550 C   0  0  0  0  0  0  0  0  0  0  0  0
    5.2180   -4.0190   19.9970 O   0  0  0  0  0  0  0  0  0  0  0  0
    6.2640   -2.3820   21.2940 N   0  0  0  0  0  0  0  0  0  0  0  0
    7.0450   -1.1370   21.2710 C   0  0  0  0  0  0  0  0  0  0  0  0
    5.9700   -2.8040   22.6520 C   0  0  0  0  0  0  0  0  0  0  0  0
    8.4200   -1.5490   21.9010 C   0  0  0  0  0  0  0  0  0  0  0  0
    7.2310   -3.1120   23.4500 C   0  0  0  0  0  0  0  0  0  0  0  0
    8.2840   -2.0880   23.2820 N   0  0  0  0  0  0  0  0  0  0  0  0
    9.4060   -2.3200   24.0920 C   0  0  1  0  0  0  0  0  0  0  0  0
    9.9890   -3.7490   24.0520 C   0  0  0  0  0  0  0  0  0  0  0  0
   10.5370   -1.3470   23.7570 C   0  0  0  0  0  0  0  0  0  0  0  0
    9.4150   -4.5860   22.9920 N   0  0  0  0  0  0  0  0  0  0  0  0
   10.5210    0.0920   24.1750 C   0  0  0  0  0  0  0  0  0  0  0  0
   11.6910   -1.7340   23.0270 C   0  0  0  0  0  0  0  0  0  0  0  0
    8.8010   -6.1080   23.4110 S   0  0  0  0  0  0  0  0  0  0  0  0
   11.5520    0.9430   23.8610 C   0  0  0  0  0  0  0  0  0  0  0  0
   12.7290   -0.8080   22.7350 C   0  0  0  0  0  0  0  0  0  0  0  0
    7.3280   -6.2790   22.4400 C   0  0  0  0  0  0  0  0  0  0  0  0
    8.3910   -5.9770   24.7920 O   0  0  0  0  0  0  0  0  0  0  0  0
    9.7740   -7.0810   22.9800 O   0  0  0  0  0  0  0  0  0  0  0  0
   12.6670    0.5360   23.1480 C   0  0  0  0  0  0  0  0  0  0  0  0
  1  2  1  0
  2  3  1  0
  3  4  2  0
  3  5  1  0
  5  6  1  0
  5  7  1  0
  6  8  1  0
  7  9  1  0
  8 10  1  0
  9 10  1  0
 10 11  1  0
 11 12  1  6
 11 13  1  0
 12 14  1  0
 13 15  2  0
 13 16  1  0
 17 14  1  0
 15 18  1  0
 16 19  2  0
 17 20  1  0
 17 21  2  0
 17 22  2  0
 18 23  2  0
 19 23  1  0
M  END
