SEL-UNI-cd366922-2-chloroacetamide
     RDKit          3D

 22 23  0  0  0  0  0  0  0  0999 V2000
    9.2600   -3.9970   20.3930 C   0  0  0  0  0  0  0  0  0  0  0  0
    7.7940   -3.4720   20.0090 C   0  0  0  0  0  0  0  0  0  0  0  0
    7.0650   -3.7580   19.0520 O   0  0  0  0  0  0  0  0  0  0  0  0
    7.2070   -2.5800   20.8700 N   0  0  0  0  0  0  0  0  0  0  0  0
    7.3990   -1.1410   20.9490 C   0  0  0  0  0  0  0  0  0  0  0  0
    6.5310   -3.1280   22.0390 C   0  0  0  0  0  0  0  0  0  0  0  0
    8.6330   -1.0720   21.8880 C   0  0  0  0  0  0  0  0  0  0  0  0
    7.0260   -2.5300   23.1970 C   0  0  0  0  0  0  0  0  0  0  0  0
    8.4140   -2.0930   22.9540 N   0  0  0  0  0  0  0  0  0  0  0  0
    9.4930   -2.2690   23.9350 C   0  0  1  0  0  0  0  0  0  0  0  0
   10.1460   -3.6290   23.6980 C   0  0  0  0  0  0  0  0  0  0  0  0
   10.5360   -1.1900   23.7100 C   0  0  0  0  0  0  0  0  0  0  0  0
    9.0060   -4.3660   23.1750 N   0  0  0  0  0  0  0  0  0  0  0  0
   11.8170   -1.4540   22.9520 C   0  0  0  0  0  0  0  0  0  0  0  0
   10.3950    0.1350   24.1830 C   0  0  0  0  0  0  0  0  0  0  0  0
    9.1550   -6.0450   23.0980 S   0  0  0  0  0  0  0  0  0  0  0  0
   12.8100   -0.3580   22.7530 C   0  0  0  0  0  0  0  0  0  0  0  0
   11.3630    1.1350   23.9650 C   0  0  0  0  0  0  0  0  0  0  0  0
    7.5440   -6.5510   22.5280 C   0  0  0  0  0  0  0  0  0  0  0  0
   10.1720   -6.3600   22.1260 O   0  0  0  0  0  0  0  0  0  0  0  0
    9.3180   -6.4140   24.4610 O   0  0  0  0  0  0  0  0  0  0  0  0
   12.5480    0.9000   23.2650 C   0  0  0  0  0  0  0  0  0  0  0  0
  1  2  1  0
  2  3  2  0
  2  4  1  0
  4  5  1  0
  4  6  1  0
  5  7  1  0
  6  8  1  0
  7  9  1  0
  8  9  1  0
  9 10  1  0
 10 11  1  6
 10 12  1  0
 11 13  1  0
 12 14  2  0
 12 15  1  0
 16 13  1  0
 14 17  1  0
 15 18  2  0
 16 19  1  0
 16 20  2  0
 16 21  2  0
 17 22  2  0
 18 22  1  0
M  END
