SEL-UNI-c5c112eb-1
     RDKit          3D

 32 34  0  0  0  0  0  0  0  0999 V2000
    5.1910   -3.7240   29.4190 C   0  0  0  0  0  0  0  0  0  0  0  0
    5.9910   -4.9710   29.0580 C   0  0  0  0  0  0  0  0  0  0  0  0
    5.7290   -6.0520   29.5720 O   0  0  0  0  0  0  0  0  0  0  0  0
    6.9960   -4.7270   28.1240 C   0  0  0  0  0  0  0  0  0  0  0  0
    8.1390   -5.5190   28.0020 C   0  0  0  0  0  0  0  0  0  0  0  0
    6.8480   -3.6280   27.2700 C   0  0  0  0  0  0  0  0  0  0  0  0
    9.1370   -5.2700   27.0860 C   0  0  0  0  0  0  0  0  0  0  0  0
    7.8230   -3.2990   26.3010 C   0  0  0  0  0  0  0  0  0  0  0  0
    8.9890   -4.0770   26.1640 C   0  0  0  0  0  0  0  0  0  0  0  0
    7.4760   -1.8560   25.3000 S   0  0  0  0  0  0  0  0  0  0  0  0
   10.1280   -3.8610   25.1990 C   0  0  0  0  0  0  0  0  0  0  0  0
    8.5970   -0.9460   25.3610 O   0  0  0  0  0  0  0  0  0  0  0  0
    6.1400   -1.4050   25.6300 O   0  0  0  0  0  0  0  0  0  0  0  0
    7.4520   -2.5410   23.7530 N   0  0  0  0  0  0  0  0  0  0  0  0
    6.3720   -3.4060   23.4280 C   0  0  0  0  0  0  0  0  0  0  0  0
    7.8600   -1.6660   22.6270 C   0  0  0  0  0  0  0  0  0  0  0  0
    6.6080   -4.0750   22.2300 C   0  0  0  0  0  0  0  0  0  0  0  0
    8.2270   -2.4660   21.5550 C   0  0  0  0  0  0  0  0  0  0  0  0
    7.1700   -3.4330   21.1900 N   0  0  0  0  0  0  0  0  0  0  0  0
    6.3360   -3.1130   20.1840 C   0  0  0  0  0  0  0  0  0  0  0  0
    5.4170   -4.0640   19.7240 O   0  0  0  0  0  0  0  0  0  0  0  0
    6.4510   -1.9180   19.6750 N   0  0  0  0  0  0  0  0  0  0  0  0
    6.8150   -1.7240   18.3500 C   0  0  0  0  0  0  0  0  0  0  0  0
    5.7770   -0.9030   20.2780 C   0  0  0  0  0  0  0  0  0  0  0  0
    5.9680   -0.6730   17.6630 C   0  0  0  0  0  0  0  0  0  0  0  0
    7.7110   -2.3070   17.7170 O   0  0  0  0  0  0  0  0  0  0  0  0
    4.9580   -1.0810   21.3880 C   0  0  0  0  0  0  0  0  0  0  0  0
    5.8190    0.5070   19.8490 C   0  0  0  0  0  0  0  0  0  0  0  0
    4.2800   -0.0470   21.9500 N   0  0  0  0  0  0  0  0  0  0  0  0
    4.8460    1.3930   20.3280 C   0  0  0  0  0  0  0  0  0  0  0  0
    6.7960    0.9870   19.0030 C   0  0  0  0  0  0  0  0  0  0  0  0
    3.8430    0.9890   21.1980 C   0  0  0  0  0  0  0  0  0  0  0  0
  1  2  1  0
  2  3  2  0
  2  4  1  0
  4  5  2  0
  4  6  1  0
  5  7  1  0
  6  8  2  0
  7  9  2  0
  8  9  1  0
 10  8  1  0
  9 11  1  0
 10 12  2  0
 10 13  2  0
 10 14  1  0
 14 15  1  0
 14 16  1  0
 15 17  1  0
 16 18  1  0
 17 19  1  0
 18 19  1  0
 19 20  1  0
 20 21  2  0
 20 22  1  0
 22 23  1  0
 22 24  1  0
 23 25  1  0
 23 26  2  0
 24 27  2  0
 24 28  1  0
 27 29  1  0
 28 30  2  0
 28 31  1  0
 29 32  1  0
 30 32  1  0
M  END
