SEL-UNI-cd366922-1-bromoalkyne
     RDKit          3D

 21 22  0  0  0  0  0  0  0  0999 V2000
    6.9190   -3.3850   19.6960 C   0  0  0  0  0  0  0  0  0  0  0  0
    5.8360   -2.8970   18.7980 C   0  0  0  0  0  0  0  0  0  0  0  0
    6.9960   -2.9160   20.9910 N   0  0  0  0  0  0  0  0  0  0  0  0
    6.2170   -3.3930   22.1270 C   0  0  0  0  0  0  0  0  0  0  0  0
    7.3620   -1.5790   21.1490 C   0  0  2  0  0  0  0  0  0  0  0  0
    7.3460   -3.7100   23.1500 C   0  0  0  0  0  0  0  0  0  0  0  0
    8.3680   -1.4980   22.1160 C   0  0  0  0  0  0  0  0  0  0  0  0
    6.1820   -0.5950   21.0540 C   0  0  0  0  0  0  0  0  0  0  0  0
    8.3240   -2.5800   23.1300 N   0  0  0  0  0  0  0  0  0  0  0  0
    5.8990    0.0800   22.4030 C   0  0  0  0  0  0  0  0  0  0  0  0
    9.6490   -2.8340   23.7540 C   0  0  0  0  0  0  0  0  0  0  0  0
    6.6590    1.2980   22.8350 N   0  0  0  0  0  0  0  0  0  0  0  0
    4.8140   -0.5740   23.1980 N   0  0  0  0  0  0  0  0  0  0  0  0
    9.9950   -3.8190   24.3770 O   0  0  0  0  0  0  0  0  0  0  0  0
   10.5930   -1.6720   23.4890 C   0  0  0  0  0  0  0  0  0  0  0  0
   10.0290   -0.4000   24.1940 C   0  0  0  0  0  0  0  0  0  0  0  0
   11.8010   -1.5430   22.7560 C   0  0  0  0  0  0  0  0  0  0  0  0
   10.9100    0.8540   23.9270 C   0  0  0  0  0  0  0  0  0  0  0  0
   12.5670   -0.4380   22.5360 C   0  0  0  0  0  0  0  0  0  0  0  0
   12.1640    0.7740   23.0710 C   0  0  0  0  0  0  0  0  0  0  0  0
   12.9130    2.0550   22.8280 C   0  0  0  0  0  0  0  0  0  0  0  0
  1  2  2  3
  1  3  1  0
  3  4  1  0
  3  5  1  0
  4  6  1  0
  5  7  1  0
  5  8  1  1
  6  9  1  0
  7  9  1  0
  8 10  1  0
  9 11  1  0
 10 12  2  3
 10 13  1  0
 11 14  2  0
 11 15  1  0
 15 16  2  0
 15 17  1  0
 16 18  1  0
 17 19  2  0
 18 20  2  0
 19 20  1  0
 20 21  1  0
M  END
