SEL-UNI-cd366922-9-nitrile
     RDKit          3D

 22 23  0  0  0  0  0  0  0  0999 V2000
    6.7800   -3.3050   19.4910 C   0  0  0  0  0  0  0  0  0  0  0  0
    5.9980   -3.0190   18.5280 N   0  0  0  0  0  0  0  0  0  0  0  0
    6.7090   -2.6230   20.6790 N   0  0  0  0  0  0  0  0  0  0  0  0
    7.2120   -1.2530   20.8100 C   0  0  0  0  0  0  0  0  0  0  0  0
    6.2850   -3.2030   21.9530 C   0  0  0  0  0  0  0  0  0  0  0  0
    8.4940   -1.4690   21.6670 C   0  0  0  0  0  0  0  0  0  0  0  0
    7.4350   -3.3210   22.7330 C   0  0  0  0  0  0  0  0  0  0  0  0
    8.1280   -2.1550   22.9100 N   0  0  0  0  0  0  0  0  0  0  0  0
    9.3710   -2.4630   23.6490 C   0  0  2  0  0  0  0  0  0  0  0  0
    9.1180   -2.6110   25.1540 C   0  0  0  0  0  0  0  0  0  0  0  0
   10.3630   -1.5140   23.4470 C   0  0  0  0  0  0  0  0  0  0  0  0
    7.8050   -2.0970   25.6110 N   0  0  0  0  0  0  0  0  0  0  0  0
   11.7370   -1.8980   22.8670 C   0  0  0  0  0  0  0  0  0  0  0  0
   10.1770   -0.1370   23.7600 C   0  0  0  0  0  0  0  0  0  0  0  0
    7.8570   -1.0200   26.9070 S   0  0  0  0  0  0  0  0  0  0  0  0
   12.7890   -0.8360   22.6730 C   0  0  0  0  0  0  0  0  0  0  0  0
   11.1560    0.8930   23.5740 C   0  0  0  0  0  0  0  0  0  0  0  0
    9.4530   -0.3010   26.6090 C   0  0  0  0  0  0  0  0  0  0  0  0
    7.9360   -1.8340   28.0990 O   0  0  0  0  0  0  0  0  0  0  0  0
    6.8260   -0.0210   26.7080 O   0  0  0  0  0  0  0  0  0  0  0  0
   12.4160    0.5710   23.0600 C   0  0  0  0  0  0  0  0  0  0  0  0
   10.8130    2.1950   23.9070 C   0  0  0  0  0  0  0  0  0  0  0  0
  1  2  2  3
  1  3  1  0
  3  4  1  0
  3  5  1  0
  4  6  1  0
  5  7  1  0
  6  8  1  0
  7  8  1  0
  8  9  1  0
  9 10  1  1
  9 11  1  0
 10 12  1  0
 11 13  2  0
 11 14  1  0
 15 12  1  0
 13 16  1  0
 14 17  2  0
 15 18  1  0
 15 19  2  0
 15 20  2  0
 16 21  2  0
 17 21  1  0
 17 22  1  0
M  END
