SER-UNI-400afb01-1
     RDKit          3D

 36 40  0  0  0  0  0  0  0  0999 V2000
    8.9850   -2.0930   21.5810 C   0  0  0  0  0  0  0  0  0  0  0  0
    7.9450   -1.1840   20.9590 C   0  0  0  0  0  0  0  0  0  0  0  0
    7.4470   -1.5760   19.6960 C   0  0  0  0  0  0  0  0  0  0  0  0
    7.1730   -0.2970   18.6490 S   0  0  0  0  0  0  0  0  0  0  0  0
    6.7810    0.7120   19.9700 C   0  0  0  0  0  0  0  0  0  0  0  0
    7.5530    1.9390   20.1050 N   0  0  0  0  0  0  0  0  0  0  0  0
    5.8100    0.2280   20.7380 N   0  0  0  0  0  0  0  0  0  0  0  0
    7.1960    2.7620   21.2680 C   0  0  0  0  0  0  0  0  0  0  0  0
    5.5590    1.0410   21.7560 C   0  0  0  0  0  0  0  0  0  0  0  0
    7.7960    4.0980   21.7690 N   0  0  0  0  0  0  0  0  0  0  0  0
    6.1790    2.2410   22.0370 C   0  0  0  0  0  0  0  0  0  0  0  0
    4.6570    0.9260   22.8030 N   0  0  0  0  0  0  0  0  0  0  0  0
    9.2310    4.0230   22.2790 C   0  0  1  0  0  0  0  0  0  0  0  0
    5.6010    2.8240   23.2440 N   0  0  0  0  0  0  0  0  0  0  0  0
    4.6890    1.9770   23.6560 N   0  0  0  0  0  0  0  0  0  0  0  0
    3.7700   -0.0110   23.1610 C   0  0  2  0  0  0  0  0  0  0  0  0
    9.9070    5.1960   22.7130 C   0  0  0  0  0  0  0  0  0  0  0  0
    9.9450    4.2770   23.7510 C   0  0  2  0  0  0  0  0  0  0  0  0
    2.5300    0.5140   23.8340 C   0  0  0  0  0  0  0  0  0  0  0  0
    4.4510   -0.7900   24.3290 C   0  0  1  0  0  0  0  0  0  0  0  0
   10.7630    3.0810   23.6660 C   0  0  0  0  0  0  0  0  0  0  0  0
    2.1770   -0.3820   24.9690 C   0  0  1  0  0  0  0  0  0  0  0  0
    3.5290   -0.9890   25.3790 C   0  0  1  0  0  0  0  0  0  0  0  0
    4.8930   -2.0900   23.9230 O   0  0  0  0  0  0  0  0  0  0  0  0
   10.0200    1.8740   24.2020 C   0  0  0  0  0  0  0  0  0  0  0  0
   12.0690    2.9540   23.1390 C   0  0  0  0  0  0  0  0  0  0  0  0
    1.5900    0.4160   26.0000 O   0  0  0  0  0  0  0  0  0  0  0  0
    3.3530   -2.4080   25.5290 O   0  0  0  0  0  0  0  0  0  0  0  0
   10.7050    0.5330   24.1500 C   0  0  0  0  0  0  0  0  0  0  0  0
   12.7830    1.5480   23.0950 C   0  0  0  0  0  0  0  0  0  0  0  0
    0.1870    0.1880   26.1790 C   0  0  0  0  0  0  0  0  0  0  0  0
   12.1070    0.4480   23.5710 C   0  0  0  0  0  0  0  0  0  0  0  0
   13.9760    1.2750   22.6520 F   0  0  0  0  0  0  0  0  0  0  0  0
   -0.3400    0.6830   27.5290 C   0  0  0  0  0  0  0  0  0  0  0  0
   12.6960   -0.7820   23.5320 F   0  0  0  0  0  0  0  0  0  0  0  0
   -1.3300    1.6880   27.3530 O   0  0  0  0  0  0  0  0  0  0  0  0
  1  2  1  0
  2  3  1  0
  3  4  1  0
  4  5  1  0
  5  6  2  0
  5  7  1  0
  6  8  1  0
  7  9  2  0
  8 10  1  0
  8 11  2  0
  9 11  1  0
  9 12  1  0
 13 10  1  1
 11 14  1  0
 12 15  1  0
 14 15  2  0
 16 12  1  1
 13 17  1  0
 13 18  1  0
 17 18  1  0
 16 19  1  0
 16 20  1  0
 18 21  1  6
 19 22  1  0
 20 23  1  0
 22 23  1  0
 20 24  1  6
 21 25  2  0
 21 26  1  0
 22 27  1  1
 23 28  1  6
 25 29  1  0
 26 30  2  0
 27 31  1  0
 29 32  2  0
 30 32  1  0
 30 33  1  0
 31 34  1  0
 32 35  1  0
 34 36  1  0
M  END
