SER-UNI-400afb01-2
     RDKit          3D

 37 41  0  0  0  0  0  0  0  0999 V2000
    5.1500    1.5770   17.3470 C   0  0  0  0  0  0  0  0  0  0  0  0
    5.4530    1.1100   18.6640 C   0  0  0  0  0  0  0  0  0  0  0  0
    6.6900    0.4870   18.7320 C   0  0  0  0  0  0  0  0  0  0  0  0
    4.5730    1.2690   19.7510 C   0  0  0  0  0  0  0  0  0  0  0  0
    7.2240   -0.0440   19.8530 C   0  0  0  0  0  0  0  0  0  0  0  0
    5.1320    0.7030   21.0420 C   0  0  0  0  0  0  0  0  0  0  0  0
    3.3400    1.8380   19.8250 N   0  0  0  0  0  0  0  0  0  0  0  0
    6.4910    0.0640   20.9830 C   0  0  0  0  0  0  0  0  0  0  0  0
    2.3580    1.7510   20.7600 C   0  0  0  0  0  0  0  0  0  0  0  0
    7.2520   -0.4860   22.0180 N   0  0  0  0  0  0  0  0  0  0  0  0
    2.6880    1.4940   22.1620 N   0  0  0  0  0  0  0  0  0  0  0  0
    1.0850    1.9080   20.3120 N   0  0  0  0  0  0  0  0  0  0  0  0
    8.3260    0.3470   22.0470 C   0  0  0  0  0  0  0  0  0  0  0  0
    1.6960    1.3960   23.0880 C   0  0  0  0  0  0  0  0  0  0  0  0
    0.0480    1.8120   21.1830 C   0  0  0  0  0  0  0  0  0  0  0  0
    8.2710    1.5590   21.8410 O   0  0  0  0  0  0  0  0  0  0  0  0
    9.6350   -0.2050   22.2640 C   0  0  0  0  0  0  0  0  0  0  0  0
    0.2470    1.5460   22.6760 C   0  0  0  0  0  0  0  0  0  0  0  0
   -1.3870    1.9650   20.6840 C   0  0  0  0  0  0  0  0  0  0  0  0
    9.9240   -1.4880   21.6370 C   0  0  0  0  0  0  0  0  0  0  0  0
   10.5350    0.4780   23.0150 C   0  0  0  0  0  0  0  0  0  0  0  0
   -1.8090    3.2520   20.3290 C   0  0  0  0  0  0  0  0  0  0  0  0
   -2.3050    0.9250   20.5530 C   0  0  0  0  0  0  0  0  0  0  0  0
   11.2370   -2.0600   21.8270 C   0  0  0  0  0  0  0  0  0  0  0  0
   11.7510   -0.0110   23.2100 C   0  0  0  0  0  0  0  0  0  0  0  0
   -3.1100    3.4420   19.8620 C   0  0  0  0  0  0  0  0  0  0  0  0
   -3.5760    1.0790   20.1040 N   0  0  0  0  0  0  0  0  0  0  0  0
   12.1340   -1.1940   22.6890 C   0  0  0  0  0  0  0  0  0  0  0  0
   -3.9450    2.3360   19.7680 C   0  0  0  0  0  0  0  0  0  0  0  0
   13.4870   -1.5050   23.0900 C   0  0  0  0  0  0  0  0  0  0  0  0
   13.3440   -1.5510   24.5250 N   0  0  0  0  0  0  0  0  0  0  0  0
   13.0050   -2.8240   24.8640 C   0  0  0  0  0  0  0  0  0  0  0  0
   12.4730   -0.4660   25.0120 C   0  0  0  0  0  0  0  0  0  0  0  0
   11.7130   -3.0590   24.4240 C   0  0  0  0  0  0  0  0  0  0  0  0
   11.0990   -0.7780   25.0380 C   0  0  0  0  0  0  0  0  0  0  0  0
   10.8170   -1.9350   24.1720 N   0  0  0  0  0  0  0  0  0  0  0  0
    9.4070   -2.4580   24.1910 C   0  0  0  0  0  0  0  0  0  0  0  0
  1  2  1  0
  2  3  2  0
  2  4  1  0
  3  5  1  0
  4  6  2  0
  4  7  1  0
  5  8  2  0
  6  8  1  0
  7  9  1  0
  8 10  1  0
  9 11  2  0
  9 12  1  0
 10 13  1  0
 11 14  1  0
 12 15  2  0
 13 16  2  0
 13 17  1  0
 14 18  2  0
 15 18  1  0
 15 19  1  0
 17 20  2  0
 17 21  1  0
 19 22  2  0
 19 23  1  0
 20 24  1  0
 21 25  2  0
 22 26  1  0
 23 27  2  0
 24 28  2  0
 25 28  1  0
 26 29  2  0
 27 29  1  0
 28 30  1  0
 30 31  1  0
 31 32  1  0
 31 33  1  0
 32 34  1  0
 33 35  1  0
 34 36  1  0
 35 36  1  0
 36 37  1  0
M  END
