SER-UNI-985a0e14-3
     RDKit          3D

 34 37  0  0  0  0  0  0  0  0999 V2000
    8.3410    6.9390   21.5700 C   0  0  0  0  0  0  0  0  0  0  0  0
    7.9420    6.9490   22.9900 C   0  0  0  0  0  0  0  0  0  0  0  0
    6.6740    7.4770   23.1950 C   0  0  0  0  0  0  0  0  0  0  0  0
    8.6990    6.4890   24.1090 C   0  0  0  0  0  0  0  0  0  0  0  0
    6.0700    7.5980   24.4250 C   0  0  0  0  0  0  0  0  0  0  0  0
    8.0710    6.6190   25.3690 C   0  0  0  0  0  0  0  0  0  0  0  0
   10.0770    5.8870   24.0760 N   0  0  0  0  0  0  0  0  0  0  0  0
    6.7840    7.1610   25.5350 C   0  0  0  0  0  0  0  0  0  0  0  0
   11.1580    5.7190   23.0400 C   0  0  0  0  0  0  0  0  0  0  0  0
    6.0750    7.3060   27.0900 S   0  0  0  0  0  0  0  0  0  0  0  0
   11.2540    6.3490   21.8050 O   0  0  0  0  0  0  0  0  0  0  0  0
   12.1470    4.8300   23.4870 C   0  0  0  0  0  0  0  0  0  0  0  0
    4.7430    6.7340   27.0680 O   0  0  0  0  0  0  0  0  0  0  0  0
    7.0520    6.9110   28.0870 O   0  0  0  0  0  0  0  0  0  0  0  0
    5.9510    8.9740   27.1700 N   0  0  0  0  0  0  0  0  0  0  0  0
   12.3800    3.6820   22.7200 C   0  0  0  0  0  0  0  0  0  0  0  0
    6.4430    9.6950   26.0910 C   0  0  0  0  0  0  0  0  0  0  0  0
   11.7240    2.5340   23.4190 N   0  0  0  0  0  0  0  0  0  0  0  0
    7.8770   10.0740   25.8980 C   0  0  0  0  0  0  0  0  0  0  0  0
    5.4730   10.0580   25.1470 C   0  0  0  0  0  0  0  0  0  0  0  0
   10.4010    2.6000   23.9620 C   0  0  0  0  0  0  0  0  0  0  0  0
   11.9170    1.1490   23.1940 C   0  0  0  0  0  0  0  0  0  0  0  0
    8.2250   10.8270   24.7050 C   0  0  0  0  0  0  0  0  0  0  0  0
    5.8390   10.7910   23.9960 C   0  0  0  0  0  0  0  0  0  0  0  0
    9.7890    3.7590   24.3410 O   0  0  0  0  0  0  0  0  0  0  0  0
    9.8230    1.3920   24.0490 N   0  0  0  0  0  0  0  0  0  0  0  0
   10.7410    0.4650   23.5800 C   0  0  0  0  0  0  0  0  0  0  0  0
   13.0700    0.2900   22.6470 C   0  0  0  0  0  0  0  0  0  0  0  0
    7.1710   11.1820   23.7470 C   0  0  0  0  0  0  0  0  0  0  0  0
    4.7230   11.2840   22.7780 Cl  0  0  0  0  0  0  0  0  0  0  0  0
    9.1280    1.0540   25.1550 C   0  0  0  0  0  0  0  0  0  0  0  0
   10.6220   -1.0650   23.4500 C   0  0  0  0  0  0  0  0  0  0  0  0
   12.9740   -1.0870   22.5140 C   0  0  0  0  0  0  0  0  0  0  0  0
   11.8390   -1.7780   22.8810 C   0  0  0  0  0  0  0  0  0  0  0  0
  1  2  1  0
  2  3  2  0
  2  4  1  0
  3  5  1  0
  4  6  2  0
  4  7  1  0
  5  8  2  0
  6  8  1  0
  7  9  1  0
  8 10  1  0
  9 11  2  0
  9 12  1  0
 10 13  2  0
 10 14  2  0
 10 15  1  0
 12 16  1  0
 15 17  1  0
 16 18  1  0
 17 19  2  0
 17 20  1  0
 18 21  1  0
 18 22  1  0
 19 23  1  0
 20 24  2  0
 21 25  2  0
 21 26  1  0
 22 27  2  0
 26 27  1  0
 22 28  1  0
 23 29  2  0
 24 29  1  0
 24 30  1  0
 26 31  1  0
 27 32  1  0
 28 33  2  0
 32 34  2  0
 33 34  1  0
M  END
