SHR-UNK-cde60afe-1
     RDKit          3D

 34 37  0  0  0  0  0  0  0  0999 V2000
   19.2550   -1.7320   24.4600 C   0  0  0  0  0  0  0  0  0  0  0  0
   18.4210   -2.4420   25.5780 C   0  0  0  0  0  0  0  0  0  0  0  0
   19.3300   -3.0790   26.1090 O   0  0  0  0  0  0  0  0  0  0  0  0
   16.8280   -2.2550   26.0100 N   0  0  0  0  0  0  0  0  0  0  0  0
   15.2210   -2.8360   25.9130 C   0  0  0  0  0  0  0  0  0  0  0  0
   14.1620   -2.5830   24.7260 C   0  0  0  0  0  0  0  0  0  0  0  0
   12.6650   -2.6750   24.7160 C   0  0  0  0  0  0  0  0  0  0  0  0
   12.8120   -1.5770   23.7650 C   0  0  0  0  0  0  0  0  0  0  0  0
   11.3490   -3.0730   24.9780 C   0  0  0  0  0  0  0  0  0  0  0  0
   11.5110   -1.3210   23.4460 N   0  0  0  0  0  0  0  0  0  0  0  0
   10.6320   -2.1820   24.1340 C   0  0  0  0  0  0  0  0  0  0  0  0
   10.6490   -4.0030   25.7490 C   0  0  0  0  0  0  0  0  0  0  0  0
    9.0790   -2.2230   24.0360 C   0  0  0  0  0  0  0  0  0  0  0  0
    9.2330   -4.0560   25.6740 C   0  0  0  0  0  0  0  0  0  0  0  0
    8.4140   -1.2100   23.0790 C   0  0  0  0  0  0  0  0  0  0  0  0
    8.4470   -3.2040   24.8450 C   0  0  0  0  0  0  0  0  0  0  0  0
    9.2730   -0.1140   22.7680 O   0  0  0  0  0  0  0  0  0  0  0  0
    7.1120   -1.3320   22.5190 C   0  0  0  0  0  0  0  0  0  0  0  0
    7.0800   -3.3990   24.8780 C   0  0  0  0  0  0  0  0  0  0  0  0
    6.8210   -0.7620   21.2470 C   0  0  0  0  0  0  0  0  0  0  0  0
    6.7650   -4.6370   24.3320 C   0  0  0  0  0  0  0  0  0  0  0  0
    7.5200   -1.0750   20.0960 C   0  0  0  0  0  0  0  0  0  0  0  0
    5.8310    0.1930   20.8250 C   0  0  0  0  0  0  0  0  0  0  0  0
    5.3100   -4.8310   24.3450 N   0  0  0  0  0  0  0  0  0  0  0  0
    7.0180   -0.3930   19.0110 N   0  0  0  0  0  0  0  0  0  0  0  0
    5.9870    0.3920   19.4340 C   0  0  0  0  0  0  0  0  0  0  0  0
    4.8040    0.9410   21.3950 C   0  0  0  0  0  0  0  0  0  0  0  0
    4.6060   -5.3570   22.9120 S   0  0  0  0  0  0  0  0  0  0  0  0
    5.2690    1.2050   18.6150 N   0  0  0  0  0  0  0  0  0  0  0  0
    4.0310    1.7920   20.6110 C   0  0  0  0  0  0  0  0  0  0  0  0
    5.9320   -6.2750   22.1410 C   0  0  0  0  0  0  0  0  0  0  0  0
    3.5270   -6.2600   23.2400 O   0  0  0  0  0  0  0  0  0  0  0  0
    4.3710   -4.1680   22.1260 O   0  0  0  0  0  0  0  0  0  0  0  0
    4.2890    1.8970   19.2390 C   0  0  0  0  0  0  0  0  0  0  0  0
  1  2  1  0
  2  3  2  0
  2  4  1  0
  4  5  1  0
  5  6  1  0
  6  7  1  0
  7  8  2  0
  7  9  1  0
  8 10  1  0
  9 11  2  0
 10 11  1  0
  9 12  1  0
 11 13  1  0
 12 14  2  0
 13 15  1  0
 13 16  2  0
 14 16  1  0
 15 17  2  0
 15 18  1  0
 16 19  1  0
 18 20  1  0
 19 21  1  0
 20 22  2  0
 20 23  1  0
 21 24  1  0
 22 25  1  0
 23 26  2  0
 25 26  1  0
 23 27  1  0
 28 24  1  0
 26 29  1  0
 27 30  2  0
 28 31  1  0
 28 32  2  0
 28 33  2  0
 29 34  2  0
 30 34  1  0
M  END
