SID-ELM-2583a2cd-15
     RDKit          3D

 19 20  0  0  0  0  0  0  0  0999 V2000
    2.5630    1.5360   20.4870 C   0  0  0  0  0  0  0  0  0  0  0  0
    3.7650    2.1610   19.9880 N   0  0  0  0  0  0  0  0  0  0  0  0
    3.5430    3.4000   19.2510 C   0  0  0  0  0  0  0  0  0  0  0  0
    4.8660    1.3640   19.6500 C   0  0  0  0  0  0  0  0  0  0  0  0
    5.1640    0.9790   18.3500 C   0  0  0  0  0  0  0  0  0  0  0  0
    5.7710    0.8850   20.6210 C   0  0  0  0  0  0  0  0  0  0  0  0
    6.2070    0.2120   17.9650 N   0  0  0  0  0  0  0  0  0  0  0  0
    6.8720    0.0990   20.2850 C   0  0  0  0  0  0  0  0  0  0  0  0
    7.0310   -0.2060   18.9380 C   0  0  0  0  0  0  0  0  0  0  0  0
    7.8210   -0.3910   21.2100 N   0  0  0  0  0  0  0  0  0  0  0  0
    8.7580    0.3680   21.8270 C   0  0  0  0  0  0  0  0  0  0  0  0
    9.2280    1.4210   21.3750 O   0  0  0  0  0  0  0  0  0  0  0  0
    9.1620   -0.2100   23.1840 C   0  0  0  0  0  0  0  0  0  0  0  0
   10.3480   -0.9730   23.3360 C   0  0  0  0  0  0  0  0  0  0  0  0
   11.2240   -1.0740   22.2730 C   0  0  0  0  0  0  0  0  0  0  0  0
   10.9810   -0.6080   24.5350 C   0  0  0  0  0  0  0  0  0  0  0  0
   12.4620   -1.6560   22.5080 C   0  0  0  0  0  0  0  0  0  0  0  0
   12.4900   -0.4260   24.4890 C   0  0  0  0  0  0  0  0  0  0  0  0
   13.1870   -1.0950   23.4690 C   0  0  0  0  0  0  0  0  0  0  0  0
  1  2  1  0
  2  3  1  0
  2  4  1  0
  4  5  2  0
  4  6  1  0
  5  7  1  0
  6  8  2  0
  7  9  2  0
  8  9  1  0
  8 10  1  0
 10 11  1  0
 11 12  2  0
 11 13  1  0
 13 14  1  0
 14 15  1  0
 14 16  1  0
 15 17  1  0
 16 18  1  0
 17 19  1  0
 18 19  1  0
M  END
