SID-ELM-8b394441-4
     RDKit          3D

 17 18  0  0  0  0  0  0  0  0999 V2000
    9.1720    1.5310   21.3390 O   0  0  0  0  0  0  0  0  0  0  0  0
    8.6160    0.5160   21.7790 C   0  0  0  0  0  0  0  0  0  0  0  0
    9.1800   -0.2100   22.9840 C   0  0  0  0  0  0  0  0  0  0  0  0
    7.3970   -0.0820   21.2370 N   0  0  0  0  0  0  0  0  0  0  0  0
   10.6930   -0.4950   22.9840 C   0  0  0  0  0  0  0  0  0  0  0  0
    6.6080    0.4920   20.1490 C   0  0  0  0  0  0  0  0  0  0  0  0
   10.9130   -0.5380   24.4930 C   0  0  0  0  0  0  0  0  0  0  0  0
   11.1820   -1.6090   22.2890 C   0  0  0  0  0  0  0  0  0  0  0  0
    5.8660    1.6250   20.4540 C   0  0  0  0  0  0  0  0  0  0  0  0
    6.6760   -0.1370   18.9280 C   0  0  0  0  0  0  0  0  0  0  0  0
   12.4040   -0.2370   24.4470 C   0  0  0  0  0  0  0  0  0  0  0  0
   12.5290   -1.9120   22.4630 C   0  0  0  0  0  0  0  0  0  0  0  0
    5.1050    2.2230   19.4480 C   0  0  0  0  0  0  0  0  0  0  0  0
    5.9410    0.4040   17.7710 N   0  0  0  0  0  0  0  0  0  0  0  0
    7.5360   -1.5210   18.5980 Cl  0  0  0  0  0  0  0  0  0  0  0  0
   13.2280   -0.9130   23.3670 C   0  0  0  0  0  0  0  0  0  0  0  0
    5.1510    1.5960   18.0600 C   0  0  0  0  0  0  0  0  0  0  0  0
  1  2  2  0
  2  3  1  0
  2  4  1  0
  3  5  1  0
  4  6  1  0
  5  7  1  0
  5  8  1  0
  6  9  2  0
  6 10  1  0
  7 11  1  0
  8 12  1  0
  9 13  1  0
 10 14  2  0
 10 15  1  0
 11 16  1  0
 12 16  1  0
 13 17  2  0
 14 17  1  0
M  END
