SID-ELM-433ea7f3-4-chloroacetamide
     RDKit          3D

 29 31  0  0  0  0  0  0  0  0999 V2000
    7.8490   -4.1790   20.2380 C   0  0  0  0  0  0  0  0  0  0  0  0
    6.8740   -3.1730   20.0030 C   0  0  0  0  0  0  0  0  0  0  0  0
    5.7460   -3.4190   19.4620 O   0  0  0  0  0  0  0  0  0  0  0  0
    7.5580   -2.0060   20.4020 N   0  0  0  0  0  0  0  0  0  0  0  0
    7.0750   -0.9320   21.1800 C   0  0  1  0  0  0  0  0  0  0  0  0
    8.1830   -0.0450   21.7690 C   0  0  0  0  0  0  0  0  0  0  0  0
    6.4730   -0.2020   20.0560 C   0  0  0  0  0  0  0  0  0  0  0  0
    8.5480    0.9860   21.1920 O   0  0  0  0  0  0  0  0  0  0  0  0
    8.7150   -0.5170   23.0650 N   0  0  0  0  0  0  0  0  0  0  0  0
    6.9090   -0.4760   18.6360 C   0  0  0  0  0  0  0  0  0  0  0  0
    5.5390    0.7210   20.0360 C   0  0  0  0  0  0  0  0  0  0  0  0
   10.0240   -0.5090   23.2040 C   0  0  0  0  0  0  0  0  0  0  0  0
    7.8250   -1.3610   18.2950 F   0  0  0  0  0  0  0  0  0  0  0  0
    6.1680    0.3530   17.8710 N   0  0  0  0  0  0  0  0  0  0  0  0
    5.3310    1.0790   18.7060 C   0  0  0  0  0  0  0  0  0  0  0  0
    4.8560    1.2670   21.0860 C   0  0  0  0  0  0  0  0  0  0  0  0
   10.8210   -1.1930   22.1920 C   0  0  0  0  0  0  0  0  0  0  0  0
   10.6610    0.1460   24.2780 C   0  0  0  0  0  0  0  0  0  0  0  0
    4.4080    2.0270   18.3150 N   0  0  0  0  0  0  0  0  0  0  0  0
    3.9430    2.1990   20.7160 C   0  0  0  0  0  0  0  0  0  0  0  0
   12.1070   -1.0780   22.4160 C   0  0  0  0  0  0  0  0  0  0  0  0
   12.0450    0.2380   24.4430 N   0  0  0  0  0  0  0  0  0  0  0  0
    9.7400    0.7080   25.1970 N   0  0  0  0  0  0  0  0  0  0  0  0
    3.7380    2.5570   19.3730 C   0  0  0  0  0  0  0  0  0  0  0  0
   13.4850   -1.4500   21.9050 C   0  0  0  0  0  0  0  0  0  0  0  0
   12.8130   -0.3790   23.4960 C   0  0  0  0  0  0  0  0  0  0  0  0
    8.9440   -0.2150   25.7960 C   0  0  0  0  0  0  0  0  0  0  0  0
   13.7650   -1.4940   20.5780 N   0  0  0  0  0  0  0  0  0  0  0  0
    8.9370   -0.3890   27.1790 C   0  0  0  0  0  0  0  0  0  0  0  0
  1  2  1  0
  2  3  2  0
  2  4  1  0
  5  4  1  6
  5  6  1  0
  5  7  1  0
  6  8  2  0
  6  9  1  0
  7 10  2  0
  7 11  1  0
  9 12  1  0
 10 13  1  0
 10 14  1  0
 11 15  2  0
 14 15  1  0
 11 16  1  0
 12 17  2  0
 12 18  1  0
 15 19  1  0
 16 20  2  0
 17 21  1  0
 18 22  2  0
 18 23  1  0
 19 24  2  0
 20 24  1  0
 21 25  1  0
 21 26  2  0
 22 26  1  0
 23 27  1  0
 25 28  3  0
 27 29  1  0
M  END
