SID-ELM-8b394441-2
     RDKit          3D

 17 18  0  0  0  0  0  0  0  0999 V2000
    9.1880    1.5310   21.3340 O   0  0  0  0  0  0  0  0  0  0  0  0
    8.6650    0.5110   21.7970 C   0  0  0  0  0  0  0  0  0  0  0  0
    9.2310   -0.1630   23.0260 C   0  0  0  0  0  0  0  0  0  0  0  0
    7.4750   -0.1420   21.2620 N   0  0  0  0  0  0  0  0  0  0  0  0
   10.7410   -0.4520   23.0260 C   0  0  0  0  0  0  0  0  0  0  0  0
    6.6860    0.3590   20.1480 C   0  0  0  0  0  0  0  0  0  0  0  0
   10.9400   -0.5860   24.5380 C   0  0  0  0  0  0  0  0  0  0  0  0
   11.2210   -1.5240   22.2650 C   0  0  0  0  0  0  0  0  0  0  0  0
    5.7760    1.3710   20.4490 C   0  0  0  0  0  0  0  0  0  0  0  0
    6.9250   -0.2130   18.9150 C   0  0  0  0  0  0  0  0  0  0  0  0
   12.4450   -0.3690   24.5520 C   0  0  0  0  0  0  0  0  0  0  0  0
   12.5370   -1.9010   22.4660 C   0  0  0  0  0  0  0  0  0  0  0  0
    4.9960    1.9130   19.4270 C   0  0  0  0  0  0  0  0  0  0  0  0
    6.1640    0.2850   17.7500 N   0  0  0  0  0  0  0  0  0  0  0  0
    7.8000   -1.1800   18.7460 F   0  0  0  0  0  0  0  0  0  0  0  0
   13.2530   -0.9490   23.4050 C   0  0  0  0  0  0  0  0  0  0  0  0
    5.2030    1.3520   18.0290 C   0  0  0  0  0  0  0  0  0  0  0  0
  1  2  2  0
  2  3  1  0
  2  4  1  0
  3  5  1  0
  4  6  1  0
  5  7  1  0
  5  8  1  0
  6  9  2  0
  6 10  1  0
  7 11  1  0
  8 12  1  0
  9 13  1  0
 10 14  2  0
 10 15  1  0
 11 16  1  0
 12 16  1  0
 13 17  2  0
 14 17  1  0
M  END
