SID-ELM-433ea7f3-1-nitrile
     RDKit          3D

 25 26  0  0  0  0  0  0  0  0999 V2000
    7.4950   -3.5400   19.7960 C   0  0  0  0  0  0  0  0  0  0  0  0
    6.2460   -3.8310   19.5710 N   0  0  0  0  0  0  0  0  0  0  0  0
    8.0790   -2.5180   20.5140 N   0  0  0  0  0  0  0  0  0  0  0  0
    7.4150   -1.4230   21.2010 C   0  0  1  0  0  0  0  0  0  0  0  0
    8.3460   -0.5190   21.9830 C   0  0  0  0  0  0  0  0  0  0  0  0
    6.7090   -0.5740   20.2340 C   0  0  0  0  0  0  0  0  0  0  0  0
    8.6370    0.6270   21.6160 O   0  0  0  0  0  0  0  0  0  0  0  0
    8.8580   -1.1290   23.2240 N   0  0  0  0  0  0  0  0  0  0  0  0
    7.0530   -0.4510   18.7320 C   0  0  0  0  0  0  0  0  0  0  0  0
    5.6830    0.1480   20.7470 C   0  0  0  0  0  0  0  0  0  0  0  0
   10.1990   -0.8670   23.2570 C   0  0  0  0  0  0  0  0  0  0  0  0
    6.2820    0.4010   17.9800 N   0  0  0  0  0  0  0  0  0  0  0  0
    4.9350    0.9820   19.9910 C   0  0  0  0  0  0  0  0  0  0  0  0
   10.8550   -1.6470   22.0990 C   0  0  0  0  0  0  0  0  0  0  0  0
   10.7110    0.0160   24.2530 C   0  0  0  0  0  0  0  0  0  0  0  0
    5.2640    1.0790   18.6270 C   0  0  0  0  0  0  0  0  0  0  0  0
    3.9040    1.6670   20.6250 N   0  0  0  0  0  0  0  0  0  0  0  0
   12.1630   -1.0900   22.4300 C   0  0  0  0  0  0  0  0  0  0  0  0
   12.0040    0.4080   24.3790 N   0  0  0  0  0  0  0  0  0  0  0  0
    9.7490    0.4960   25.1720 N   0  0  0  0  0  0  0  0  0  0  0  0
   13.4430   -1.1540   21.9840 C   0  0  0  0  0  0  0  0  0  0  0  0
   12.8230   -0.1860   23.3800 C   0  0  0  0  0  0  0  0  0  0  0  0
    8.9000   -0.5270   25.7980 C   0  0  0  0  0  0  0  0  0  0  0  0
   13.5880   -1.7150   20.7490 N   0  0  0  0  0  0  0  0  0  0  0  0
    8.9710   -0.3970   27.1860 C   0  0  0  0  0  0  0  0  0  0  0  0
  1  2  2  3
  1  3  1  0
  4  3  1  6
  4  5  1  0
  4  6  1  0
  5  7  2  0
  5  8  1  0
  6  9  2  0
  6 10  1  0
  8 11  1  0
  9 12  1  0
 10 13  2  0
 11 14  2  0
 11 15  1  0
 12 16  2  0
 13 16  1  0
 13 17  1  0
 14 18  1  0
 15 19  2  0
 15 20  1  0
 18 21  1  0
 18 22  2  0
 19 22  1  0
 20 23  1  0
 21 24  3  0
 23 25  1  0
M  END
