SID-ELM-b654bfa2-10
     RDKit          3D

 21 23  0  0  0  0  0  0  0  0999 V2000
    8.8550    0.8200   21.4980 O   0  0  0  0  0  0  0  0  0  0  0  0
    8.5720   -0.3780   21.5320 C   0  0  0  0  0  0  0  0  0  0  0  0
    9.1940   -1.4350   22.4490 C   0  0  0  0  0  0  0  0  0  0  0  0
    7.5850   -1.0050   20.7090 N   0  0  0  0  0  0  0  0  0  0  0  0
   10.2360   -1.0280   23.2390 C   0  0  0  0  0  0  0  0  0  0  0  0
    6.7560   -0.3060   19.8110 C   0  0  0  0  0  0  0  0  0  0  0  0
   11.4360   -1.7460   23.1890 C   0  0  0  0  0  0  0  0  0  0  0  0
   10.3930    0.4710   22.9710 C   0  0  0  0  0  0  0  0  0  0  0  0
    6.9670   -0.5250   18.4700 C   0  0  0  0  0  0  0  0  0  0  0  0
    5.7250    0.5960   20.1480 C   0  0  0  0  0  0  0  0  0  0  0  0
   12.6110   -1.0400   23.0170 C   0  0  0  0  0  0  0  0  0  0  0  0
   11.6100    1.1610   23.5170 C   0  0  0  0  0  0  0  0  0  0  0  0
    7.9020   -1.3710   18.0930 F   0  0  0  0  0  0  0  0  0  0  0  0
    6.2960    0.0500   17.4830 N   0  0  0  0  0  0  0  0  0  0  0  0
    4.9970    1.2110   19.1050 C   0  0  0  0  0  0  0  0  0  0  0  0
    5.3230    0.9650   21.4400 C   0  0  0  0  0  0  0  0  0  0  0  0
   12.7210    0.3370   23.6350 C   0  0  0  0  0  0  0  0  0  0  0  0
    5.3510    0.8850   17.8450 C   0  0  0  0  0  0  0  0  0  0  0  0
    3.9990    2.0760   19.2450 N   0  0  0  0  0  0  0  0  0  0  0  0
    4.2650    1.8800   21.6050 C   0  0  0  0  0  0  0  0  0  0  0  0
    3.6400    2.4010   20.4820 C   0  0  0  0  0  0  0  0  0  0  0  0
  1  2  2  0
  2  3  1  0
  2  4  1  0
  3  5  1  0
  4  6  1  0
  5  7  1  0
  5  8  1  0
  6  9  2  0
  6 10  1  0
  7 11  1  0
  8 12  1  0
  9 13  1  0
  9 14  1  0
 10 15  2  0
 10 16  1  0
 11 17  1  0
 12 17  1  0
 14 18  2  0
 15 18  1  0
 15 19  1  0
 16 20  2  0
 19 21  2  0
 20 21  1  0
M  END
