SID-ELM-b654bfa2-6
     RDKit          3D

 20 22  0  0  0  0  0  0  0  0999 V2000
    8.6750    0.8830   21.2450 O   0  0  0  0  0  0  0  0  0  0  0  0
    8.2960   -0.2550   21.4800 C   0  0  0  0  0  0  0  0  0  0  0  0
    9.0050   -1.1700   22.3430 N   0  0  0  0  0  0  0  0  0  0  0  0
    7.1210   -0.7910   20.9470 N   0  0  0  0  0  0  0  0  0  0  0  0
   10.3150   -0.7670   22.6310 C   0  0  0  0  0  0  0  0  0  0  0  0
    6.4580   -0.0490   19.9240 C   0  0  0  0  0  0  0  0  0  0  0  0
   11.4620   -1.4080   22.1610 C   0  0  0  0  0  0  0  0  0  0  0  0
   10.4510    0.3710   23.4420 C   0  0  0  0  0  0  0  0  0  0  0  0
    5.4640    0.8910   20.2380 C   0  0  0  0  0  0  0  0  0  0  0  0
    6.8090   -0.1770   18.5850 N   0  0  0  0  0  0  0  0  0  0  0  0
   12.7220   -0.9160   22.4880 C   0  0  0  0  0  0  0  0  0  0  0  0
   11.7130    0.8560   23.7620 C   0  0  0  0  0  0  0  0  0  0  0  0
    5.1140    1.0490   21.5280 F   0  0  0  0  0  0  0  0  0  0  0  0
    4.8470    1.6790   19.3330 N   0  0  0  0  0  0  0  0  0  0  0  0
    6.2630    0.6160   17.6900 C   0  0  0  0  0  0  0  0  0  0  0  0
    7.6610   -0.9910   17.8650 C   0  0  0  0  0  0  0  0  0  0  0  0
   12.8370    0.2100   23.2800 C   0  0  0  0  0  0  0  0  0  0  0  0
    5.2970    1.5330   18.0620 C   0  0  0  0  0  0  0  0  0  0  0  0
    6.7450    0.3920   16.4730 N   0  0  0  0  0  0  0  0  0  0  0  0
    7.5990   -0.5930   16.5430 C   0  0  0  0  0  0  0  0  0  0  0  0
  1  2  2  0
  2  3  1  0
  2  4  1  0
  3  5  1  0
  4  6  1  0
  5  7  2  0
  5  8  1  0
  6  9  2  0
  6 10  1  0
  7 11  1  0
  8 12  2  0
  9 13  1  0
  9 14  1  0
 10 15  1  0
 10 16  1  0
 11 17  2  0
 12 17  1  0
 14 18  2  0
 15 18  1  0
 15 19  2  0
 16 20  2  0
 19 20  1  0
M  END
