SID-ELM-8b394441-20
     RDKit          3D

 21 23  0  0  0  0  0  0  0  0999 V2000
    8.9560    0.9630   21.6460 O   0  0  0  0  0  0  0  0  0  0  0  0
    8.7730   -0.2540   21.5540 C   0  0  0  0  0  0  0  0  0  0  0  0
    9.8300   -1.2250   22.0180 C   0  0  0  0  0  0  0  0  0  0  0  0
    7.5810   -0.9030   21.0020 N   0  0  0  0  0  0  0  0  0  0  0  0
   10.1530   -1.2630   23.5140 C   0  0  0  0  0  0  0  0  0  0  0  0
    6.7130   -0.2700   20.0080 C   0  0  0  0  0  0  0  0  0  0  0  0
   11.4700   -2.0800   23.4210 C   0  0  0  0  0  0  0  0  0  0  0  0
   10.1610   -0.0300   24.1890 C   0  0  0  0  0  0  0  0  0  0  0  0
    6.7430   -0.7330   18.7190 C   0  0  0  0  0  0  0  0  0  0  0  0
    5.8070    0.7990   20.2450 C   0  0  0  0  0  0  0  0  0  0  0  0
   12.4970   -1.0140   23.8400 C   0  0  0  0  0  0  0  0  0  0  0  0
   10.9390    0.9610   23.6080 C   0  0  0  0  0  0  0  0  0  0  0  0
    7.6680   -2.0370   18.2810 Cl  0  0  0  0  0  0  0  0  0  0  0  0
    6.0570   -0.2430   17.7040 N   0  0  0  0  0  0  0  0  0  0  0  0
    5.0260    1.3410   19.1440 C   0  0  0  0  0  0  0  0  0  0  0  0
    5.5910    1.3860   21.4860 C   0  0  0  0  0  0  0  0  0  0  0  0
   12.3030    0.3860   23.2830 C   0  0  0  0  0  0  0  0  0  0  0  0
    5.1570    0.8410   17.8980 C   0  0  0  0  0  0  0  0  0  0  0  0
    4.1140    2.3290   19.1190 N   0  0  0  0  0  0  0  0  0  0  0  0
    4.6930    2.4050   21.6610 C   0  0  0  0  0  0  0  0  0  0  0  0
    3.9400    2.8780   20.4260 C   0  0  0  0  0  0  0  0  0  0  0  0
  1  2  2  0
  2  3  1  0
  2  4  1  0
  3  5  1  0
  4  6  1  0
  5  7  1  0
  5  8  1  0
  6  9  2  0
  6 10  1  0
  7 11  1  0
  8 12  1  0
  9 13  1  0
  9 14  1  0
 10 15  2  0
 10 16  1  0
 11 17  1  0
 12 17  1  0
 14 18  2  0
 15 18  1  0
 15 19  1  0
 16 20  2  0
 19 21  2  0
 20 21  1  0
M  END
