SID-ELM-8b394441-25
     RDKit          3D

 20 22  0  0  0  0  0  0  0  0999 V2000
    9.2240    1.2980   21.4080 O   0  0  0  0  0  0  0  0  0  0  0  0
    8.6350    0.3220   21.9170 C   0  0  0  0  0  0  0  0  0  0  0  0
    9.0940   -0.2400   23.2540 C   0  0  0  0  0  0  0  0  0  0  0  0
    7.4670   -0.3520   21.3370 N   0  0  0  0  0  0  0  0  0  0  0  0
   10.3660   -1.1260   23.2840 C   0  0  0  0  0  0  0  0  0  0  0  0
    6.6410    0.2920   20.3290 C   0  0  0  0  0  0  0  0  0  0  0  0
   10.9070   -0.7690   24.6900 C   0  0  0  0  0  0  0  0  0  0  0  0
   11.2480   -1.0860   22.2180 C   0  0  0  0  0  0  0  0  0  0  0  0
    6.6500   -0.1200   19.0000 C   0  0  0  0  0  0  0  0  0  0  0  0
    5.7880    1.3410   20.5450 C   0  0  0  0  0  0  0  0  0  0  0  0
   12.3160   -0.2110   24.4110 C   0  0  0  0  0  0  0  0  0  0  0  0
   12.4600   -1.7180   22.3920 C   0  0  0  0  0  0  0  0  0  0  0  0
    7.5660   -1.4270   18.5450 Cl  0  0  0  0  0  0  0  0  0  0  0  0
    5.9550    0.4320   17.9650 N   0  0  0  0  0  0  0  0  0  0  0  0
    4.9790    2.0030   19.4800 C   0  0  0  0  0  0  0  0  0  0  0  0
    5.3220    2.1900   21.6980 C   0  0  0  0  0  0  0  0  0  0  0  0
   13.2100   -0.9040   23.4030 C   0  0  0  0  0  0  0  0  0  0  0  0
    5.0490    1.5770   18.1770 C   0  0  0  0  0  0  0  0  0  0  0  0
    4.2430    3.0170   20.0370 N   0  0  0  0  0  0  0  0  0  0  0  0
    4.4190    3.1730   21.4180 N   0  0  0  0  0  0  0  0  0  0  0  0
  1  2  2  0
  2  3  1  0
  2  4  1  0
  3  5  1  0
  4  6  1  0
  5  7  1  0
  5  8  1  0
  6  9  2  0
  6 10  1  0
  7 11  1  0
  8 12  1  0
  9 13  1  0
  9 14  1  0
 10 15  2  0
 10 16  1  0
 11 17  1  0
 12 17  1  0
 14 18  2  0
 15 18  1  0
 15 19  1  0
 16 20  2  0
 19 20  1  0
M  END
