SID-ELM-b654bfa2-5
     RDKit          3D

 20 22  0  0  0  0  0  0  0  0999 V2000
    9.0000    1.4050   21.3010 O   0  0  0  0  0  0  0  0  0  0  0  0
    8.4030    0.4280   21.7640 C   0  0  0  0  0  0  0  0  0  0  0  0
    9.0090   -0.7060   22.4360 N   0  0  0  0  0  0  0  0  0  0  0  0
    7.0410    0.2540   21.6980 N   0  0  0  0  0  0  0  0  0  0  0  0
   10.3570   -0.5410   22.6510 C   0  0  0  0  0  0  0  0  0  0  0  0
    6.6130   -0.0530   20.4490 C   0  0  0  0  0  0  0  0  0  0  0  0
   11.3910   -1.3510   22.1790 C   0  0  0  0  0  0  0  0  0  0  0  0
   10.6530    0.5710   23.4100 C   0  0  0  0  0  0  0  0  0  0  0  0
    7.1190   -1.2370   19.9990 C   0  0  0  0  0  0  0  0  0  0  0  0
    5.8140    0.7060   19.6370 C   0  0  0  0  0  0  0  0  0  0  0  0
   12.7080   -1.0220   22.4730 C   0  0  0  0  0  0  0  0  0  0  0  0
   11.9510    0.8970   23.7000 C   0  0  0  0  0  0  0  0  0  0  0  0
    7.9040   -1.9290   20.8370 F   0  0  0  0  0  0  0  0  0  0  0  0
    6.8850   -1.7170   18.7970 N   0  0  0  0  0  0  0  0  0  0  0  0
    5.6150    0.2280   18.4400 N   0  0  0  0  0  0  0  0  0  0  0  0
    5.1100    1.8810   19.6650 C   0  0  0  0  0  0  0  0  0  0  0  0
   12.9710    0.1040   23.2290 C   0  0  0  0  0  0  0  0  0  0  0  0
    6.1250   -0.9330   18.0540 C   0  0  0  0  0  0  0  0  0  0  0  0
    4.8630    0.9920   17.6410 N   0  0  0  0  0  0  0  0  0  0  0  0
    4.5410    2.0370   18.4170 C   0  0  0  0  0  0  0  0  0  0  0  0
  1  2  2  0
  2  3  1  0
  2  4  1  0
  3  5  1  0
  4  6  1  0
  5  7  2  0
  5  8  1  0
  6  9  2  0
  6 10  1  0
  7 11  1  0
  8 12  2  0
  9 13  1  0
  9 14  1  0
 10 15  1  0
 10 16  2  0
 11 17  2  0
 12 17  1  0
 14 18  2  0
 15 18  1  0
 15 19  1  0
 16 20  1  0
 19 20  2  0
M  END
