SID-ELM-b654bfa2-12
     RDKit          3D

 20 22  0  0  0  0  0  0  0  0999 V2000
    9.2690    1.7670   21.4820 O   0  0  0  0  0  0  0  0  0  0  0  0
    8.6530    0.8950   22.0930 C   0  0  0  0  0  0  0  0  0  0  0  0
    9.2280   -0.0110   23.1820 C   0  0  0  0  0  0  0  0  0  0  0  0
    7.2720    0.5550   21.8860 N   0  0  0  0  0  0  0  0  0  0  0  0
   10.5820   -0.3030   23.1620 C   0  0  0  0  0  0  0  0  0  0  0  0
    6.9810   -0.2070   20.7640 C   0  0  0  0  0  0  0  0  0  0  0  0
   11.0790   -1.3600   22.4150 C   0  0  0  0  0  0  0  0  0  0  0  0
   11.0920   -0.5260   24.5710 C   0  0  0  0  0  0  0  0  0  0  0  0
    7.3280   -1.5450   20.6800 C   0  0  0  0  0  0  0  0  0  0  0  0
    6.3200    0.3380   19.5310 C   0  0  0  0  0  0  0  0  0  0  0  0
   12.3690   -1.7840   22.7080 C   0  0  0  0  0  0  0  0  0  0  0  0
   12.5770   -0.2820   24.6150 C   0  0  0  0  0  0  0  0  0  0  0  0
    7.9220   -2.1250   21.7370 F   0  0  0  0  0  0  0  0  0  0  0  0
    7.1350   -2.3220   19.6020 N   0  0  0  0  0  0  0  0  0  0  0  0
    6.1640   -0.4420   18.4730 N   0  0  0  0  0  0  0  0  0  0  0  0
    5.8130    1.5730   19.2720 C   0  0  0  0  0  0  0  0  0  0  0  0
   13.2600   -0.9440   23.6010 C   0  0  0  0  0  0  0  0  0  0  0  0
    6.5740   -1.7590   18.4940 C   0  0  0  0  0  0  0  0  0  0  0  0
    5.5710    0.2040   17.4520 N   0  0  0  0  0  0  0  0  0  0  0  0
    5.3610    1.4410   17.9690 C   0  0  0  0  0  0  0  0  0  0  0  0
  1  2  2  0
  2  3  1  0
  2  4  1  0
  3  5  1  0
  4  6  1  0
  5  7  1  0
  5  8  1  0
  6  9  2  0
  6 10  1  0
  7 11  1  0
  8 12  1  0
  9 13  1  0
  9 14  1  0
 10 15  1  0
 10 16  2  0
 11 17  1  0
 12 17  1  0
 14 18  2  0
 15 18  1  0
 15 19  1  0
 16 20  1  0
 19 20  2  0
M  END
