SID-ELM-b654bfa2-8
     RDKit          3D

 19 20  0  0  0  0  0  0  0  0999 V2000
    2.4580    1.9630   20.2240 C   0  0  0  0  0  0  0  0  0  0  0  0
    3.7240    2.4810   19.7500 N   0  0  0  0  0  0  0  0  0  0  0  0
    4.7730    1.5960   19.5000 C   0  0  0  0  0  0  0  0  0  0  0  0
    5.0870    1.1540   18.2130 C   0  0  0  0  0  0  0  0  0  0  0  0
    5.5930    1.0860   20.5210 C   0  0  0  0  0  0  0  0  0  0  0  0
    6.0690    0.2970   17.8830 N   0  0  0  0  0  0  0  0  0  0  0  0
    6.6310    0.2020   20.2180 C   0  0  0  0  0  0  0  0  0  0  0  0
    6.8010   -0.1520   18.8980 C   0  0  0  0  0  0  0  0  0  0  0  0
    7.4660   -0.2980   21.2390 N   0  0  0  0  0  0  0  0  0  0  0  0
    7.7630   -1.0050   18.5930 F   0  0  0  0  0  0  0  0  0  0  0  0
    8.5820    0.3240   21.7930 C   0  0  0  0  0  0  0  0  0  0  0  0
    9.0650    1.3730   21.3260 O   0  0  0  0  0  0  0  0  0  0  0  0
    9.2160   -0.3130   23.0220 C   0  0  0  0  0  0  0  0  0  0  0  0
   10.6130   -0.4760   22.9810 C   0  0  0  0  0  0  0  0  0  0  0  0
   11.1500   -1.5780   22.3030 C   0  0  0  0  0  0  0  0  0  0  0  0
   11.0760   -0.3820   24.2840 C   0  0  0  0  0  0  0  0  0  0  0  0
   12.5220   -1.7690   22.4890 C   0  0  0  0  0  0  0  0  0  0  0  0
   12.4480   -0.3550   24.4260 C   0  0  0  0  0  0  0  0  0  0  0  0
   13.1900   -1.0330   23.4640 C   0  0  0  0  0  0  0  0  0  0  0  0
  1  2  1  0
  2  3  1  0
  3  4  2  0
  3  5  1  0
  4  6  1  0
  5  7  2  0
  6  8  2  0
  7  8  1  0
  7  9  1  0
  8 10  1  0
  9 11  1  0
 11 12  2  0
 11 13  1  0
 13 14  1  0
 14 15  1  0
 14 16  1  0
 15 17  1  0
 16 18  1  0
 17 19  1  0
 18 19  1  0
M  END
