SID-ELM-8b394441-7
     RDKit          3D

 20 21  0  0  0  0  0  0  0  0999 V2000
    4.2690    4.1780   20.6710 C   0  0  0  0  0  0  0  0  0  0  0  0
    3.7390    2.9090   20.1910 N   0  0  0  0  0  0  0  0  0  0  0  0
    2.7250    3.1000   19.1540 C   0  0  0  0  0  0  0  0  0  0  0  0
    4.7440    1.8720   19.9620 C   0  0  0  0  0  0  0  0  0  0  0  0
    4.8650    1.4690   18.4910 C   0  0  0  0  0  0  0  0  0  0  0  0
    5.5350    1.2790   20.9340 C   0  0  0  0  0  0  0  0  0  0  0  0
    5.7860    0.4310   18.0400 N   0  0  0  0  0  0  0  0  0  0  0  0
    6.4310    0.3030   20.5810 C   0  0  0  0  0  0  0  0  0  0  0  0
    6.5530   -0.1540   19.1390 C   0  0  0  0  0  0  0  0  0  0  0  0
    7.4010   -0.4700   21.4250 N   0  0  0  0  0  0  0  0  0  0  0  0
    7.5980   -1.4290   18.6360 Cl  0  0  0  0  0  0  0  0  0  0  0  0
    8.5400    0.3750   21.8760 C   0  0  0  0  0  0  0  0  0  0  0  0
    8.9700    1.5600   21.1930 O   0  0  0  0  0  0  0  0  0  0  0  0
    9.1280   -0.0910   23.0170 N   0  0  0  0  0  0  0  0  0  0  0  0
   10.5060   -0.6000   23.1550 C   0  0  0  0  0  0  0  0  0  0  0  0
   11.0990   -0.2950   24.3910 C   0  0  0  0  0  0  0  0  0  0  0  0
   11.2270   -1.3330   22.2000 C   0  0  0  0  0  0  0  0  0  0  0  0
   12.4130   -0.7040   24.7160 C   0  0  0  0  0  0  0  0  0  0  0  0
   12.6450   -1.7670   22.5710 C   0  0  0  0  0  0  0  0  0  0  0  0
   13.1650   -1.4410   23.7930 C   0  0  0  0  0  0  0  0  0  0  0  0
  1  2  1  0
  2  3  1  0
  2  4  1  0
  4  5  2  0
  4  6  1  0
  5  7  1  0
  6  8  2  0
  7  9  2  0
  8  9  1  0
  8 10  1  0
  9 11  1  0
 10 12  1  0
 12 13  2  0
 12 14  1  0
 14 15  1  0
 15 16  2  0
 15 17  1  0
 16 18  1  0
 17 19  2  0
 18 20  2  0
 19 20  1  0
M  END
