SID-ELM-8b394441-14
     RDKit          3D

 20 22  0  0  0  0  0  0  0  0999 V2000
    9.1040    1.2970   21.3350 O   0  0  0  0  0  0  0  0  0  0  0  0
    8.5630    0.3460   21.9380 C   0  0  0  0  0  0  0  0  0  0  0  0
    8.9700   -0.1440   23.2560 N   0  0  0  0  0  0  0  0  0  0  0  0
    7.4610   -0.3200   21.3690 N   0  0  0  0  0  0  0  0  0  0  0  0
   10.3900   -0.5450   23.3680 C   0  0  0  0  0  0  0  0  0  0  0  0
    6.6930    0.1890   20.2460 C   0  0  0  0  0  0  0  0  0  0  0  0
   11.0040   -0.3340   24.7510 C   0  0  0  0  0  0  0  0  0  0  0  0
   11.1200   -1.1260   22.1500 C   0  0  0  0  0  0  0  0  0  0  0  0
    6.6960   -0.4180   19.0070 C   0  0  0  0  0  0  0  0  0  0  0  0
    5.9180    1.3280   20.4140 C   0  0  0  0  0  0  0  0  0  0  0  0
   12.4880   -0.7530   24.8860 C   0  0  0  0  0  0  0  0  0  0  0  0
   12.5640   -1.5510   22.2300 C   0  0  0  0  0  0  0  0  0  0  0  0
    7.5060   -1.8500   18.6330 Cl  0  0  0  0  0  0  0  0  0  0  0  0
    5.9170    0.2410   17.9480 N   0  0  0  0  0  0  0  0  0  0  0  0
    5.1790    1.9220   19.4220 C   0  0  0  0  0  0  0  0  0  0  0  0
    5.6430    2.2210   21.6170 C   0  0  0  0  0  0  0  0  0  0  0  0
   13.1290   -1.3260   23.6150 C   0  0  0  0  0  0  0  0  0  0  0  0
    5.1650    1.4030   18.1520 C   0  0  0  0  0  0  0  0  0  0  0  0
    4.5400    3.0230   19.9230 N   0  0  0  0  0  0  0  0  0  0  0  0
    4.8000    3.2320   21.2570 N   0  0  0  0  0  0  0  0  0  0  0  0
  1  2  2  0
  2  3  1  0
  2  4  1  0
  3  5  1  0
  4  6  1  0
  5  7  2  0
  5  8  1  0
  6  9  2  0
  6 10  1  0
  7 11  1  0
  8 12  2  0
  9 13  1  0
  9 14  1  0
 10 15  2  0
 10 16  1  0
 11 17  2  0
 12 17  1  0
 14 18  2  0
 15 18  1  0
 15 19  1  0
 16 20  2  0
 19 20  1  0
M  END
