SID-ELM-8b394441-18
     RDKit          3D

 20 21  0  0  0  0  0  0  0  0999 V2000
    4.5350    4.0450   20.6630 C   0  0  0  0  0  0  0  0  0  0  0  0
    3.9610    2.7920   20.1900 N   0  0  0  0  0  0  0  0  0  0  0  0
    2.8950    2.9880   19.2110 C   0  0  0  0  0  0  0  0  0  0  0  0
    4.9120    1.7010   19.9640 C   0  0  0  0  0  0  0  0  0  0  0  0
    4.9450    1.2070   18.5190 C   0  0  0  0  0  0  0  0  0  0  0  0
    5.7230    1.1290   20.9330 C   0  0  0  0  0  0  0  0  0  0  0  0
    5.7950    0.1020   18.0910 N   0  0  0  0  0  0  0  0  0  0  0  0
    6.5630    0.0830   20.6010 C   0  0  0  0  0  0  0  0  0  0  0  0
    6.6000   -0.4820   19.1760 C   0  0  0  0  0  0  0  0  0  0  0  0
    7.5310   -0.6730   21.4760 N   0  0  0  0  0  0  0  0  0  0  0  0
    7.5490   -1.8620   18.6760 Cl  0  0  0  0  0  0  0  0  0  0  0  0
    8.6170    0.2150   21.9830 C   0  0  0  0  0  0  0  0  0  0  0  0
    9.1120    1.3610   21.2680 O   0  0  0  0  0  0  0  0  0  0  0  0
    9.1310   -0.1200   23.2750 C   0  0  0  0  0  0  0  0  0  0  0  0
   10.2100   -1.0210   23.2810 C   0  0  0  0  0  0  0  0  0  0  0  0
   10.9310   -0.9470   24.4990 C   0  0  0  0  0  0  0  0  0  0  0  0
   11.0580   -0.9170   22.1880 C   0  0  0  0  0  0  0  0  0  0  0  0
   12.1220   -0.1800   24.4740 C   0  0  0  0  0  0  0  0  0  0  0  0
   12.4930   -1.4740   22.3740 C   0  0  0  0  0  0  0  0  0  0  0  0
   13.1740   -0.7120   23.4910 C   0  0  0  0  0  0  0  0  0  0  0  0
  1  2  1  0
  2  3  1  0
  2  4  1  0
  4  5  2  0
  4  6  1  0
  5  7  1  0
  6  8  2  0
  7  9  2  0
  8  9  1  0
  8 10  1  0
  9 11  1  0
 10 12  1  0
 12 13  2  0
 12 14  1  0
 14 15  1  0
 15 16  1  0
 15 17  1  0
 16 18  1  0
 17 19  1  0
 18 20  1  0
 19 20  1  0
M  END
