SID-ELM-433ea7f3-1-bromoalkyne
     RDKit          3D

 25 26  0  0  0  0  0  0  0  0999 V2000
    7.4520   -3.4570   19.7160 C   0  0  0  0  0  0  0  0  0  0  0  0
    5.9670   -3.5900   19.3700 C   0  0  0  0  0  0  0  0  0  0  0  0
    8.0600   -2.4690   20.4510 N   0  0  0  0  0  0  0  0  0  0  0  0
    7.3540   -1.4920   21.2060 C   0  0  1  0  0  0  0  0  0  0  0  0
    8.2510   -0.5910   22.0000 C   0  0  0  0  0  0  0  0  0  0  0  0
    6.6400   -0.5500   20.3070 C   0  0  0  0  0  0  0  0  0  0  0  0
    8.5410    0.7130   21.4350 O   0  0  0  0  0  0  0  0  0  0  0  0
    8.7650   -1.0690   23.2820 N   0  0  0  0  0  0  0  0  0  0  0  0
    6.9870   -0.3130   18.8070 C   0  0  0  0  0  0  0  0  0  0  0  0
    5.6270    0.1280   20.8870 C   0  0  0  0  0  0  0  0  0  0  0  0
   10.0350   -0.7690   23.4010 C   0  0  0  0  0  0  0  0  0  0  0  0
    6.2350    0.5980   18.1110 N   0  0  0  0  0  0  0  0  0  0  0  0
    4.9000    1.0180   20.1760 C   0  0  0  0  0  0  0  0  0  0  0  0
   10.8860   -1.3810   22.3830 C   0  0  0  0  0  0  0  0  0  0  0  0
   10.6070    0.0780   24.3780 C   0  0  0  0  0  0  0  0  0  0  0  0
    5.2520    1.1950   18.8270 C   0  0  0  0  0  0  0  0  0  0  0  0
    3.9190    1.6330   20.8410 N   0  0  0  0  0  0  0  0  0  0  0  0
   12.1380   -1.0370   22.4980 C   0  0  0  0  0  0  0  0  0  0  0  0
   11.9710    0.4050   24.4270 N   0  0  0  0  0  0  0  0  0  0  0  0
    9.6700    0.5800   25.3200 N   0  0  0  0  0  0  0  0  0  0  0  0
   13.5200   -1.2080   21.9100 C   0  0  0  0  0  0  0  0  0  0  0  0
   12.7810   -0.1500   23.4720 C   0  0  0  0  0  0  0  0  0  0  0  0
    8.9490   -0.3770   25.9480 C   0  0  0  0  0  0  0  0  0  0  0  0
   13.7010   -1.6070   20.6300 N   0  0  0  0  0  0  0  0  0  0  0  0
    8.8590   -0.4170   27.3330 C   0  0  0  0  0  0  0  0  0  0  0  0
  1  2  2  3
  1  3  1  0
  4  3  1  6
  4  5  1  0
  4  6  1  0
  5  7  2  0
  5  8  1  0
  6  9  2  0
  6 10  1  0
  8 11  1  0
  9 12  1  0
 10 13  2  0
 11 14  2  0
 11 15  1  0
 12 16  2  0
 13 16  1  0
 13 17  1  0
 14 18  1  0
 15 19  2  0
 15 20  1  0
 18 21  1  0
 18 22  2  0
 19 22  1  0
 20 23  1  0
 21 24  3  0
 23 25  1  0
M  END
