SID-ELM-8b394441-1
     RDKit          3D

 17 18  0  0  0  0  0  0  0  0999 V2000
    9.2240    1.4370   21.3430 O   0  0  0  0  0  0  0  0  0  0  0  0
    8.7250    0.4510   21.9040 C   0  0  0  0  0  0  0  0  0  0  0  0
    9.1210   -0.0770   23.2080 N   0  0  0  0  0  0  0  0  0  0  0  0
    7.6640   -0.2250   21.2920 N   0  0  0  0  0  0  0  0  0  0  0  0
   10.5050   -0.5870   23.3150 C   0  0  0  0  0  0  0  0  0  0  0  0
    6.8320    0.3080   20.2330 C   0  0  0  0  0  0  0  0  0  0  0  0
   11.1410   -0.3300   24.6800 C   0  0  0  0  0  0  0  0  0  0  0  0
   11.1800   -1.3070   22.1390 C   0  0  0  0  0  0  0  0  0  0  0  0
    5.8920    1.3000   20.4270 C   0  0  0  0  0  0  0  0  0  0  0  0
    6.9110   -0.1630   18.8120 C   0  0  0  0  0  0  0  0  0  0  0  0
   12.5870   -0.8510   24.8510 C   0  0  0  0  0  0  0  0  0  0  0  0
   12.5880   -1.8380   22.2510 C   0  0  0  0  0  0  0  0  0  0  0  0
    5.1210    1.8000   19.3980 C   0  0  0  0  0  0  0  0  0  0  0  0
    6.1860    0.2950   17.7770 N   0  0  0  0  0  0  0  0  0  0  0  0
    7.7710   -1.1270   18.5220 F   0  0  0  0  0  0  0  0  0  0  0  0
   13.1760   -1.5600   23.6210 C   0  0  0  0  0  0  0  0  0  0  0  0
    5.2350    1.3430   18.0970 C   0  0  0  0  0  0  0  0  0  0  0  0
  1  2  2  0
  2  3  1  0
  2  4  1  0
  3  5  1  0
  4  6  1  0
  5  7  2  0
  5  8  1  0
  6  9  2  0
  6 10  1  0
  7 11  1  0
  8 12  2  0
  9 13  1  0
 10 14  2  0
 10 15  1  0
 11 16  2  0
 12 16  1  0
 13 17  2  0
 14 17  1  0
M  END
