SID-ELM-433ea7f3-3-vinylsulfonamide
     RDKit          3D

 30 32  0  0  0  0  0  0  0  0999 V2000
    7.1140   -2.9630   18.6960 C   0  0  0  0  0  0  0  0  0  0  0  0
    5.7790   -3.3560   19.3130 C   0  0  0  0  0  0  0  0  0  0  0  0
    5.5660   -2.5570   20.8500 S   0  0  0  0  0  0  0  0  0  0  0  0
    4.9200   -3.5500   21.6990 O   0  0  0  0  0  0  0  0  0  0  0  0
    4.8870   -1.3240   20.5660 O   0  0  0  0  0  0  0  0  0  0  0  0
    7.1160   -2.0760   21.3220 N   0  0  0  0  0  0  0  0  0  0  0  0
    7.1460   -0.6310   21.4240 C   0  0  1  0  0  0  0  0  0  0  0  0
    8.3620    0.1290   21.9000 C   0  0  0  0  0  0  0  0  0  0  0  0
    6.6400    0.0590   20.2050 C   0  0  0  0  0  0  0  0  0  0  0  0
    8.8400    1.2320   21.0970 O   0  0  0  0  0  0  0  0  0  0  0  0
    8.8550   -0.2890   23.1910 N   0  0  0  0  0  0  0  0  0  0  0  0
    7.1740    0.0230   18.7890 C   0  0  0  0  0  0  0  0  0  0  0  0
    5.5850    0.8630   20.1740 C   0  0  0  0  0  0  0  0  0  0  0  0
   10.1210   -0.5140   23.3250 C   0  0  0  0  0  0  0  0  0  0  0  0
    6.3730    0.8480   18.0670 N   0  0  0  0  0  0  0  0  0  0  0  0
    5.4140    1.3460   18.8850 C   0  0  0  0  0  0  0  0  0  0  0  0
    4.7530    1.2090   21.2050 C   0  0  0  0  0  0  0  0  0  0  0  0
   10.8260   -1.2350   22.2890 C   0  0  0  0  0  0  0  0  0  0  0  0
   10.7920   -0.0460   24.4510 C   0  0  0  0  0  0  0  0  0  0  0  0
    4.4070    2.2100   18.5020 N   0  0  0  0  0  0  0  0  0  0  0  0
    3.7400    2.0560   20.8760 C   0  0  0  0  0  0  0  0  0  0  0  0
   12.0970   -1.3700   22.5160 C   0  0  0  0  0  0  0  0  0  0  0  0
   12.1670   -0.2030   24.6860 N   0  0  0  0  0  0  0  0  0  0  0  0
    9.8690    0.6080   25.3140 N   0  0  0  0  0  0  0  0  0  0  0  0
    3.6140    2.5120   19.5550 C   0  0  0  0  0  0  0  0  0  0  0  0
   13.3760   -1.9340   21.9390 C   0  0  0  0  0  0  0  0  0  0  0  0
   12.8430   -0.8780   23.6960 C   0  0  0  0  0  0  0  0  0  0  0  0
    9.3110   -0.2200   26.2010 C   0  0  0  0  0  0  0  0  0  0  0  0
   13.7320   -1.5700   20.6700 N   0  0  0  0  0  0  0  0  0  0  0  0
    8.0820    0.0620   26.7810 C   0  0  0  0  0  0  0  0  0  0  0  0
  1  2  1  0
  2  3  1  0
  3  4  2  0
  3  5  2  0
  3  6  1  0
  7  6  1  6
  7  8  1  0
  7  9  1  0
  8 10  2  0
  8 11  1  0
  9 12  2  0
  9 13  1  0
 11 14  1  0
 12 15  1  0
 13 16  2  0
 15 16  1  0
 13 17  1  0
 14 18  2  0
 14 19  1  0
 16 20  1  0
 17 21  2  0
 18 22  1  0
 19 23  2  0
 19 24  1  0
 20 25  2  0
 21 25  1  0
 22 26  1  0
 22 27  2  0
 23 27  1  0
 24 28  1  0
 26 29  3  0
 28 30  1  0
M  END
