SID-UNK-90efdc9b-2-chloroacetamide
     RDKit          3D

 41 45  0  0  0  0  0  0  0  0999 V2000
    8.2480   -4.5460   20.2050 C   0  0  0  0  0  0  0  0  0  0  0  0
    7.3300   -3.3690   20.2080 C   0  0  0  0  0  0  0  0  0  0  0  0
    6.5090   -3.2620   19.2700 O   0  0  0  0  0  0  0  0  0  0  0  0
    7.5700   -2.4730   21.4220 C   0  0  0  0  0  0  0  0  0  0  0  0
    7.5760   -3.2150   22.7300 C   0  0  0  0  0  0  0  0  0  0  0  0
    7.7870   -1.1060   21.5370 C   0  0  0  0  0  0  0  0  0  0  0  0
    7.7980   -2.4150   23.9990 C   0  0  0  0  0  0  0  0  0  0  0  0
    7.9930   -0.5300   22.8790 C   0  0  0  0  0  0  0  0  0  0  0  0
    7.8130   -0.2640   20.4390 C   0  0  0  0  0  0  0  0  0  0  0  0
    7.6660   -3.5900   25.0030 C   0  0  1  0  0  0  0  0  0  0  0  0
    8.0320   -1.0390   24.2390 C   0  0  0  0  0  0  0  0  0  0  0  0
    8.2140    0.8390   22.9520 C   0  0  0  0  0  0  0  0  0  0  0  0
    8.0320    1.0970   20.5820 C   0  0  0  0  0  0  0  0  0  0  0  0
    8.8530   -3.4970   25.9540 C   0  0  0  0  0  0  0  0  0  0  0  0
    6.4050   -3.9440   25.5220 C   0  0  0  0  0  0  0  0  0  0  0  0
    7.6930   -4.7040   23.9460 C   0  0  2  0  0  0  0  0  0  0  0  0
    8.2370    1.6400   21.8210 C   0  0  0  0  0  0  0  0  0  0  0  0
    5.6390   -3.7430   24.2510 C   0  0  1  0  0  0  0  0  0  0  0  0
    6.5550   -4.2090   23.2560 C   0  0  0  0  0  0  0  0  0  0  0  0
    7.7350   -5.9950   24.4790 C   0  0  0  0  0  0  0  0  0  0  0  0
    8.5340    3.3570   22.0200 S   0  0  0  0  0  0  0  0  0  0  0  0
    4.4850   -4.3360   23.7430 C   0  0  0  0  0  0  0  0  0  0  0  0
    5.4260   -2.1920   24.3900 C   0  0  0  0  0  0  0  0  0  0  0  0
    8.2800   -6.0270   25.7770 C   0  0  0  0  0  0  0  0  0  0  0  0
    8.4560    3.6100   23.6880 N   0  0  0  0  0  0  0  0  0  0  0  0
    7.4530    4.1120   21.4380 O   0  0  0  0  0  0  0  0  0  0  0  0
    9.9410    3.5500   21.6880 O   0  0  0  0  0  0  0  0  0  0  0  0
    4.7730   -4.6810   22.4070 C   0  0  0  0  0  0  0  0  0  0  0  0
    5.6870   -1.5410   25.5860 O   0  0  0  0  0  0  0  0  0  0  0  0
    4.9700   -1.3310   23.4120 C   0  0  0  0  0  0  0  0  0  0  0  0
    9.7490   -5.8690   25.6950 N   0  0  0  0  0  0  0  0  0  0  0  0
    7.6240   -6.1950   26.9720 N   0  0  0  0  0  0  0  0  0  0  0  0
    4.9240   -5.9370   21.8970 C   0  0  0  0  0  0  0  0  0  0  0  0
    5.0030   -3.7210   21.2970 C   0  0  0  0  0  0  0  0  0  0  0  0
    4.4960    0.2150   24.0560 Cl  0  0  0  0  0  0  0  0  0  0  0  0
    5.2530   -5.8330   20.5490 N   0  0  0  0  0  0  0  0  0  0  0  0
    5.3080   -4.4620   20.1770 C   0  0  0  0  0  0  0  0  0  0  0  0
    4.9710   -2.3360   21.2340 C   0  0  0  0  0  0  0  0  0  0  0  0
    5.6130   -3.8550   18.9040 N   0  0  0  0  0  0  0  0  0  0  0  0
    5.2480   -1.6970   20.0010 C   0  0  0  0  0  0  0  0  0  0  0  0
    5.5660   -2.3880   18.8260 C   0  0  0  0  0  0  0  0  0  0  0  0
  1  2  1  0
  2  3  2  0
  2  4  1  0
  4  5  2  0
  4  6  1  0
  5  7  1  0
  6  8  2  0
  6  9  1  0
  7 10  1  0
  7 11  2  0
  8 11  1  0
  8 12  1  0
  9 13  2  0
 10 14  1  1
 10 15  1  0
 10 16  1  0
 12 17  2  0
 13 17  1  0
 15 18  1  0
 16 19  1  0
 18 19  1  0
 16 20  1  1
 17 21  1  0
 18 22  1  1
 18 23  1  0
 20 24  1  0
 21 25  1  0
 21 26  2  0
 21 27  2  0
 22 28  1  0
 23 29  2  0
 23 30  1  0
 24 31  2  3
 24 32  1  0
 28 33  2  0
 28 34  1  0
 30 35  1  0
 33 36  1  0
 34 37  2  0
 36 37  1  0
 34 38  1  0
 37 39  1  0
 38 40  2  0
 39 41  2  0
 40 41  1  0
M  END
