SID-UNK-90efdc9b-2-acrylamide
     RDKit          3D

 42 46  0  0  0  0  0  0  0  0999 V2000
    6.4260   -4.8380   20.3140 C   0  0  0  0  0  0  0  0  0  0  0  0
    6.3950   -5.0250   21.8330 C   0  0  0  0  0  0  0  0  0  0  0  0
    5.7340   -3.8200   22.4240 C   0  0  0  0  0  0  0  0  0  0  0  0
    4.5300   -3.6020   22.1990 O   0  0  0  0  0  0  0  0  0  0  0  0
    6.5840   -2.8980   23.2600 C   0  0  0  0  0  0  0  0  0  0  0  0
    6.4070   -3.0990   24.8790 C   0  0  0  0  0  0  0  0  0  0  0  0
    7.4620   -1.9510   22.6210 C   0  0  0  0  0  0  0  0  0  0  0  0
    7.4610   -1.8980   25.1430 C   0  0  0  0  0  0  0  0  0  0  0  0
    8.1250   -1.2250   23.4050 C   0  0  0  0  0  0  0  0  0  0  0  0
    8.0220   -1.3580   21.3800 C   0  0  0  0  0  0  0  0  0  0  0  0
    8.3710   -0.8230   24.4900 C   0  0  2  0  0  0  0  0  0  0  0  0
    7.2380   -2.1730   23.9110 C   0  0  0  0  0  0  0  0  0  0  0  0
    8.6820   -0.6120   24.4470 C   0  0  0  0  0  0  0  0  0  0  0  0
    8.9750   -0.3250   21.7990 C   0  0  0  0  0  0  0  0  0  0  0  0
    9.4470   -0.5430   25.5730 C   0  0  0  0  0  0  0  0  0  0  0  0
    7.7440    0.4240   24.2930 C   0  0  0  0  0  0  0  0  0  0  0  0
    8.8780   -1.1400   23.0070 C   0  0  2  0  0  0  0  0  0  0  0  0
    9.2910    0.0340   23.2250 C   0  0  0  0  0  0  0  0  0  0  0  0
    7.1830    0.4240   23.0240 C   0  0  2  0  0  0  0  0  0  0  0  0
    7.7280   -0.6340   22.2500 C   0  0  0  0  0  0  0  0  0  0  0  0
    9.3100   -2.4790   22.6820 C   0  0  0  0  0  0  0  0  0  0  0  0
   10.5060    1.3560   23.4550 S   0  0  0  0  0  0  0  0  0  0  0  0
    7.2910    1.5930   22.2630 C   0  0  0  0  0  0  0  0  0  0  0  0
    5.6570    0.1660   23.1980 C   0  0  0  0  0  0  0  0  0  0  0  0
   10.0920   -3.1070   23.6720 C   0  0  0  0  0  0  0  0  0  0  0  0
   10.1150    2.5500   22.3300 N   0  0  0  0  0  0  0  0  0  0  0  0
   10.2380    2.0090   24.7070 O   0  0  0  0  0  0  0  0  0  0  0  0
   11.8300    0.8880   23.0890 O   0  0  0  0  0  0  0  0  0  0  0  0
    6.7790    1.4710   20.9750 C   0  0  0  0  0  0  0  0  0  0  0  0
    5.0050   -1.0400   22.7660 O   0  0  0  0  0  0  0  0  0  0  0  0
    4.8100    1.0950   23.8070 C   0  0  0  0  0  0  0  0  0  0  0  0
   11.3940   -2.5210   24.1270 N   0  0  0  0  0  0  0  0  0  0  0  0
    9.6270   -4.2950   24.1890 N   0  0  0  0  0  0  0  0  0  0  0  0
    7.2150    0.8540   19.8940 C   0  0  0  0  0  0  0  0  0  0  0  0
    5.5240    2.0280   20.3920 C   0  0  0  0  0  0  0  0  0  0  0  0
    4.1930    0.6790   25.3660 Cl  0  0  0  0  0  0  0  0  0  0  0  0
    6.6130    0.7960   18.6180 N   0  0  0  0  0  0  0  0  0  0  0  0
    5.4210    1.6370   19.0070 C   0  0  0  0  0  0  0  0  0  0  0  0
    4.5560    2.8010   20.9870 C   0  0  0  0  0  0  0  0  0  0  0  0
    4.4200    1.9790   18.2130 N   0  0  0  0  0  0  0  0  0  0  0  0
    3.4730    3.1910   20.2050 C   0  0  0  0  0  0  0  0  0  0  0  0
    3.3740    2.8110   18.8540 C   0  0  0  0  0  0  0  0  0  0  0  0
  1  2  1  0
  2  3  1  0
  3  4  2  0
  3  5  1  0
  5  6  2  0
  5  7  1  0
  6  8  1  0
  7  9  2  0
  7 10  1  0
  8 11  1  0
  8 12  2  0
  9 12  1  0
  9 13  1  0
 10 14  2  0
 11 15  1  1
 11 16  1  0
 11 17  1  0
 13 18  2  0
 14 18  1  0
 16 19  1  0
 17 20  1  0
 19 20  1  0
 17 21  1  1
 18 22  1  0
 19 23  1  6
 19 24  1  0
 21 25  1  0
 22 26  1  0
 22 27  2  0
 22 28  2  0
 23 29  1  0
 24 30  2  0
 24 31  1  0
 25 32  2  3
 25 33  1  0
 29 34  2  0
 29 35  1  0
 31 36  1  0
 34 37  1  0
 35 38  2  0
 37 38  1  0
 35 39  1  0
 38 40  1  0
 39 41  2  0
 40 42  2  0
 41 42  1  0
M  END
