SID-ELM-433ea7f3-2-bromoalkyne
     RDKit          3D

 26 27  0  0  0  0  0  0  0  0999 V2000
    6.8640   -3.7820   19.9850 C   0  0  0  0  0  0  0  0  0  0  0  0
    5.6280   -3.2460   19.2760 C   0  0  0  0  0  0  0  0  0  0  0  0
    7.8510   -2.8830   20.4180 N   0  0  0  0  0  0  0  0  0  0  0  0
    7.3420   -1.7270   21.1560 C   0  0  1  0  0  0  0  0  0  0  0  0
    8.3070   -0.8250   21.8980 C   0  0  0  0  0  0  0  0  0  0  0  0
    6.6410   -0.7790   20.2300 C   0  0  0  0  0  0  0  0  0  0  0  0
    8.6440    0.4360   21.2670 O   0  0  0  0  0  0  0  0  0  0  0  0
    8.7980   -1.2160   23.2260 N   0  0  0  0  0  0  0  0  0  0  0  0
    5.6080    0.1320   20.9000 C   0  0  0  0  0  0  0  0  0  0  0  0
    6.8470   -0.6660   18.8630 C   0  0  0  0  0  0  0  0  0  0  0  0
   10.0510   -0.8580   23.3900 C   0  0  0  0  0  0  0  0  0  0  0  0
    4.8840    1.0780   20.0740 C   0  0  0  0  0  0  0  0  0  0  0  0
    6.2090    0.2080   18.0400 N   0  0  0  0  0  0  0  0  0  0  0  0
    7.7350   -1.4840   18.3170 F   0  0  0  0  0  0  0  0  0  0  0  0
   10.9260   -1.4320   22.3780 C   0  0  0  0  0  0  0  0  0  0  0  0
   10.6040   -0.0010   24.3850 C   0  0  0  0  0  0  0  0  0  0  0  0
    3.9500    1.9040   20.5880 N   0  0  0  0  0  0  0  0  0  0  0  0
    5.2860    1.0240   18.6170 C   0  0  0  0  0  0  0  0  0  0  0  0
   12.1640   -1.0620   22.5020 C   0  0  0  0  0  0  0  0  0  0  0  0
   11.9630    0.3530   24.4410 N   0  0  0  0  0  0  0  0  0  0  0  0
    9.6850    0.4940   25.3430 N   0  0  0  0  0  0  0  0  0  0  0  0
   13.5430   -1.1990   21.9120 C   0  0  0  0  0  0  0  0  0  0  0  0
   12.7840   -0.1730   23.4860 C   0  0  0  0  0  0  0  0  0  0  0  0
    8.9380   -0.4500   25.9570 C   0  0  0  0  0  0  0  0  0  0  0  0
   13.7110   -1.6130   20.6330 N   0  0  0  0  0  0  0  0  0  0  0  0
    8.7820   -0.4530   27.3370 C   0  0  0  0  0  0  0  0  0  0  0  0
  1  2  2  3
  1  3  1  0
  4  3  1  6
  4  5  1  0
  4  6  1  0
  5  7  2  0
  5  8  1  0
  6  9  2  0
  6 10  1  0
  8 11  1  0
  9 12  1  0
 10 13  2  0
 10 14  1  0
 11 15  2  0
 11 16  1  0
 12 17  1  0
 12 18  2  0
 13 18  1  0
 15 19  1  0
 16 20  2  0
 16 21  1  0
 19 22  1  0
 19 23  2  0
 20 23  1  0
 21 24  1  0
 22 25  3  0
 24 26  1  0
M  END
