SID-ELM-8b394441-3
     RDKit          3D

 17 18  0  0  0  0  0  0  0  0999 V2000
    9.2210    1.4870   21.3500 O   0  0  0  0  0  0  0  0  0  0  0  0
    8.6910    0.5310   21.9320 C   0  0  0  0  0  0  0  0  0  0  0  0
    9.1120   -0.0260   23.2220 N   0  0  0  0  0  0  0  0  0  0  0  0
    7.5680   -0.0910   21.3800 N   0  0  0  0  0  0  0  0  0  0  0  0
   10.4910   -0.5400   23.3160 C   0  0  0  0  0  0  0  0  0  0  0  0
    6.7740    0.4210   20.2770 C   0  0  0  0  0  0  0  0  0  0  0  0
   11.1220   -0.3120   24.6900 C   0  0  0  0  0  0  0  0  0  0  0  0
   11.1710   -1.2360   22.1340 C   0  0  0  0  0  0  0  0  0  0  0  0
    6.0730    1.6010   20.3130 C   0  0  0  0  0  0  0  0  0  0  0  0
    6.6390   -0.3010   18.9780 C   0  0  0  0  0  0  0  0  0  0  0  0
   12.5660   -0.8370   24.8580 C   0  0  0  0  0  0  0  0  0  0  0  0
   12.5760   -1.7700   22.2390 C   0  0  0  0  0  0  0  0  0  0  0  0
    5.3370    2.0520   19.2380 C   0  0  0  0  0  0  0  0  0  0  0  0
    5.9520    0.0940   17.8910 N   0  0  0  0  0  0  0  0  0  0  0  0
    7.3870   -1.7960   18.7620 Cl  0  0  0  0  0  0  0  0  0  0  0  0
   13.1630   -1.5200   23.6180 C   0  0  0  0  0  0  0  0  0  0  0  0
    5.2580    1.3570   18.0440 C   0  0  0  0  0  0  0  0  0  0  0  0
  1  2  2  0
  2  3  1  0
  2  4  1  0
  3  5  1  0
  4  6  1  0
  5  7  2  0
  5  8  1  0
  6  9  2  0
  6 10  1  0
  7 11  1  0
  8 12  2  0
  9 13  1  0
 10 14  2  0
 10 15  1  0
 11 16  2  0
 12 16  1  0
 13 17  2  0
 14 17  1  0
M  END
