SID-ELM-433ea7f3-2-vinylsulfonamide
     RDKit          3D

 29 30  0  0  0  0  0  0  0  0999 V2000
    7.1610   -3.8520   20.1330 C   0  0  0  0  0  0  0  0  0  0  0  0
    5.7380   -3.4180   20.3770 C   0  0  0  0  0  0  0  0  0  0  0  0
    5.5470   -3.2300   22.1200 S   0  0  0  0  0  0  0  0  0  0  0  0
    4.1940   -3.6030   22.4240 O   0  0  0  0  0  0  0  0  0  0  0  0
    6.6610   -3.8790   22.7780 O   0  0  0  0  0  0  0  0  0  0  0  0
    5.7380   -1.5660   22.2420 N   0  0  0  0  0  0  0  0  0  0  0  0
    6.7810   -1.0090   21.3960 C   0  0  2  0  0  0  0  0  0  0  0  0
    7.7390   -0.1560   22.2320 C   0  0  0  0  0  0  0  0  0  0  0  0
    6.1640   -0.2700   20.1890 C   0  0  0  0  0  0  0  0  0  0  0  0
    7.8380    1.2210   21.8470 O   0  0  0  0  0  0  0  0  0  0  0  0
    8.4600   -0.8580   23.3410 N   0  0  0  0  0  0  0  0  0  0  0  0
    5.1150    0.8740   20.4010 C   0  0  0  0  0  0  0  0  0  0  0  0
    6.4980   -0.5830   18.8890 C   0  0  0  0  0  0  0  0  0  0  0  0
    9.8260   -0.8140   23.4790 C   0  0  0  0  0  0  0  0  0  0  0  0
    4.5490    1.5380   19.2330 C   0  0  0  0  0  0  0  0  0  0  0  0
    6.0030    0.0110   17.8160 N   0  0  0  0  0  0  0  0  0  0  0  0
    7.3850   -1.5590   18.6720 F   0  0  0  0  0  0  0  0  0  0  0  0
   10.6500   -1.4430   22.4220 C   0  0  0  0  0  0  0  0  0  0  0  0
   10.5460   -0.1940   24.5680 C   0  0  0  0  0  0  0  0  0  0  0  0
    3.6280    2.5370   19.2610 N   0  0  0  0  0  0  0  0  0  0  0  0
    5.1010    0.9950   17.9750 C   0  0  0  0  0  0  0  0  0  0  0  0
   11.9700   -1.3640   22.5680 C   0  0  0  0  0  0  0  0  0  0  0  0
   11.9570   -0.1400   24.6710 N   0  0  0  0  0  0  0  0  0  0  0  0
    9.7560    0.3990   25.5860 N   0  0  0  0  0  0  0  0  0  0  0  0
   13.3480   -1.7200   21.9830 C   0  0  0  0  0  0  0  0  0  0  0  0
   12.6850   -0.7170   23.6750 C   0  0  0  0  0  0  0  0  0  0  0  0
    8.5760   -0.1860   25.8640 C   0  0  0  0  0  0  0  0  0  0  0  0
   13.6780   -1.5170   20.6690 N   0  0  0  0  0  0  0  0  0  0  0  0
    8.1540   -0.2100   27.1860 C   0  0  0  0  0  0  0  0  0  0  0  0
  1  2  1  0
  2  3  1  0
  3  4  2  0
  3  5  2  0
  3  6  1  0
  7  6  1  1
  7  8  1  0
  7  9  1  0
  8 10  2  0
  8 11  1  0
  9 12  2  0
  9 13  1  0
 11 14  1  0
 12 15  1  0
 13 16  2  0
 13 17  1  0
 14 18  2  0
 14 19  1  0
 15 20  1  0
 15 21  2  0
 16 21  1  0
 18 22  1  0
 19 23  2  0
 19 24  1  0
 22 25  1  0
 22 26  2  0
 23 26  1  0
 24 27  1  0
 25 28  3  0
 27 29  1  0
M  END
