SID-ELM-8b394441-23
     RDKit          3D

 20 22  0  0  0  0  0  0  0  0999 V2000
    9.3760    1.5110   21.3980 O   0  0  0  0  0  0  0  0  0  0  0  0
    8.6970    0.7760   22.1070 C   0  0  0  0  0  0  0  0  0  0  0  0
    9.2910   -0.0870   23.1880 C   0  0  0  0  0  0  0  0  0  0  0  0
    7.2710    0.6460   22.0280 N   0  0  0  0  0  0  0  0  0  0  0  0
   10.7810   -0.4160   23.0930 C   0  0  0  0  0  0  0  0  0  0  0  0
    6.5150    0.8300   20.8250 C   0  0  0  0  0  0  0  0  0  0  0  0
   11.0080   -0.6180   24.5910 C   0  0  0  0  0  0  0  0  0  0  0  0
   11.2050   -1.4730   22.2820 C   0  0  0  0  0  0  0  0  0  0  0  0
    5.6300    1.8760   20.6140 C   0  0  0  0  0  0  0  0  0  0  0  0
    6.6500   -0.1090   19.7690 N   0  0  0  0  0  0  0  0  0  0  0  0
   12.5080   -0.4000   24.5690 C   0  0  0  0  0  0  0  0  0  0  0  0
   12.5210   -1.8750   22.4380 C   0  0  0  0  0  0  0  0  0  0  0  0
    5.3520    3.0840   21.8080 Cl  0  0  0  0  0  0  0  0  0  0  0  0
    4.9250    2.0380   19.4760 N   0  0  0  0  0  0  0  0  0  0  0  0
    5.9340    0.0440   18.5990 C   0  0  0  0  0  0  0  0  0  0  0  0
    7.3430   -1.2110   19.5890 C   0  0  0  0  0  0  0  0  0  0  0  0
   13.2740   -0.9660   23.3870 C   0  0  0  0  0  0  0  0  0  0  0  0
    5.0790    1.0870   18.3770 C   0  0  0  0  0  0  0  0  0  0  0  0
    6.0750   -0.8830   17.6390 N   0  0  0  0  0  0  0  0  0  0  0  0
    7.0280   -1.7620   18.2550 C   0  0  0  0  0  0  0  0  0  0  0  0
  1  2  2  0
  2  3  1  0
  2  4  1  0
  3  5  1  0
  4  6  1  0
  5  7  1  0
  5  8  1  0
  6  9  2  0
  6 10  1  0
  7 11  1  0
  8 12  1  0
  9 13  1  0
  9 14  1  0
 10 15  1  0
 10 16  1  0
 11 17  1  0
 12 17  1  0
 14 18  2  0
 15 18  1  0
 15 19  2  0
 16 20  2  0
 19 20  1  0
M  END
