SIM-SYN-f15aaa3a-2-bromoalkyne
     RDKit          3D

 22 24  0  0  0  0  0  0  0  0999 V2000
    6.8250   -3.4070   19.6270 C   0  0  0  0  0  0  0  0  0  0  0  0
    5.9360   -2.8190   18.5840 C   0  0  0  0  0  0  0  0  0  0  0  0
    6.6030   -3.0590   20.9540 N   0  0  0  0  0  0  0  0  0  0  0  0
    6.5440   -4.0140   21.9750 C   0  0  0  0  0  0  0  0  0  0  0  0
    7.1080   -1.7660   21.4160 C   0  0  0  0  0  0  0  0  0  0  0  0
    7.6290   -4.1080   22.8270 C   0  0  0  0  0  0  0  0  0  0  0  0
    8.3910   -1.8630   21.9460 C   0  0  0  0  0  0  0  0  0  0  0  0
    8.3050   -2.8020   23.0860 N   0  0  0  0  0  0  0  0  0  0  0  0
    9.5540   -3.1400   23.7350 C   0  0  1  0  0  0  0  0  0  0  0  0
   10.4460   -2.0100   23.7110 C   0  0  0  0  0  0  0  0  0  0  0  0
    9.3400   -4.0140   24.8480 C   0  0  0  0  0  0  0  0  0  0  0  0
   11.8980   -2.2110   23.4610 C   0  0  0  0  0  0  0  0  0  0  0  0
   10.0540   -0.6610   23.8840 C   0  0  0  0  0  0  0  0  0  0  0  0
    9.9210   -5.2320   25.1730 C   0  0  0  0  0  0  0  0  0  0  0  0
    8.1500   -3.6910   26.0790 S   0  0  0  0  0  0  0  0  0  0  0  0
   12.8760   -1.1260   23.3900 C   0  0  0  0  0  0  0  0  0  0  0  0
   11.0240    0.5290   23.8280 C   0  0  0  0  0  0  0  0  0  0  0  0
    9.4490   -5.8400   26.3140 C   0  0  0  0  0  0  0  0  0  0  0  0
    8.4640   -5.1350   26.9470 C   0  0  0  0  0  0  0  0  0  0  0  0
   12.3840    0.2510   23.5840 C   0  0  0  0  0  0  0  0  0  0  0  0
   10.4500    1.9550   24.0390 C   0  0  0  0  0  0  0  0  0  0  0  0
    7.6010   -5.5280   28.3690 Cl  0  0  0  0  0  0  0  0  0  0  0  0
  1  2  2  3
  1  3  1  0
  3  4  1  0
  3  5  1  0
  4  6  1  0
  5  7  1  0
  6  8  1  0
  7  8  1  0
  8  9  1  0
  9 10  1  1
  9 11  1  0
 10 12  2  0
 10 13  1  0
 11 14  2  0
 11 15  1  0
 12 16  1  0
 13 17  2  0
 14 18  1  0
 15 19  1  0
 18 19  2  0
 16 20  2  0
 17 20  1  0
 17 21  1  0
 19 22  1  0
M  END
