SIM-DEM-f31d0e65-1
     RDKit          3D

 24 25  0  0  0  0  0  0  0  0999 V2000
    5.4750    0.9600   22.3070 C   0  0  0  0  0  0  0  0  0  0  0  0
    5.7140    0.6890   20.8500 C   0  0  0  0  0  0  0  0  0  0  0  0
    4.6600    1.0670   19.8350 C   0  0  0  0  0  0  0  0  0  0  0  0
    6.8890    0.0920   20.3470 C   0  0  0  0  0  0  0  0  0  0  0  0
    4.9840    0.7580   18.4020 C   0  0  0  0  0  0  0  0  0  0  0  0
    7.0140   -0.1330   18.9630 C   0  0  0  0  0  0  0  0  0  0  0  0
    7.9780   -0.2890   21.2510 N   0  0  0  0  0  0  0  0  0  0  0  0
    6.1010    0.1860   18.0030 N   0  0  0  0  0  0  0  0  0  0  0  0
    8.8370    0.7030   21.7660 C   0  0  0  0  0  0  0  0  0  0  0  0
    9.0780    1.7830   21.2290 O   0  0  0  0  0  0  0  0  0  0  0  0
    9.4780    0.4570   22.9610 N   0  0  0  0  0  0  0  0  0  0  0  0
   10.6610   -0.2420   23.0870 C   0  0  0  0  0  0  0  0  0  0  0  0
   11.8380    0.5000   23.1350 C   0  0  0  0  0  0  0  0  0  0  0  0
   10.6760   -1.6100   23.1460 C   0  0  0  0  0  0  0  0  0  0  0  0
   13.0510   -0.1590   23.2270 C   0  0  0  0  0  0  0  0  0  0  0  0
   11.8780   -2.2520   23.2410 C   0  0  0  0  0  0  0  0  0  0  0  0
    9.3900   -2.4430   23.1000 C   0  0  0  0  0  0  0  0  0  0  0  0
   13.0710   -1.5590   23.2790 C   0  0  0  0  0  0  0  0  0  0  0  0
    9.2930   -3.6240   24.0760 C   0  0  0  0  0  0  0  0  0  0  0  0
    8.1670   -3.5970   24.9830 N   0  0  0  0  0  0  0  0  0  0  0  0
    8.2310   -4.6030   26.3380 S   0  0  0  0  0  0  0  0  0  0  0  0
    6.5490   -5.1680   26.4970 C   0  0  0  0  0  0  0  0  0  0  0  0
    8.5140   -3.7860   27.4810 O   0  0  0  0  0  0  0  0  0  0  0  0
    9.0930   -5.6910   25.9520 O   0  0  0  0  0  0  0  0  0  0  0  0
  1  2  1  0
  2  3  2  0
  2  4  1  0
  3  5  1  0
  4  6  2  0
  4  7  1  0
  5  8  2  0
  6  8  1  0
  7  9  1  0
  9 10  2  0
  9 11  1  0
 11 12  1  0
 12 13  2  0
 12 14  1  0
 13 15  1  0
 14 16  2  0
 14 17  1  0
 15 18  2  0
 16 18  1  0
 17 19  1  0
 19 20  1  0
 21 20  1  0
 21 22  1  0
 21 23  2  0
 21 24  2  0
M  END
