SIM-SYN-a98e6a07-2
     RDKit          3D

 23 25  0  0  0  0  0  0  0  0999 V2000
    5.3990    0.3060   20.5670 O   0  0  0  0  0  0  0  0  0  0  0  0
    4.8150    1.3210   20.1780 C   0  0  0  0  0  0  0  0  0  0  0  0
    3.9410    2.1030   21.1180 C   0  0  0  0  0  0  0  0  0  0  0  0
    4.9210    1.7980   18.8980 N   0  0  0  0  0  0  0  0  0  0  0  0
    3.7730    1.5410   22.3480 N   0  0  0  0  0  0  0  0  0  0  0  0
    5.7760    0.9970   18.0570 C   0  0  0  0  0  0  0  0  0  0  0  0
    3.3430    2.4080   23.4300 C   0  0  0  0  0  0  0  0  0  0  0  0
    4.7620    0.9800   23.0430 C   0  0  0  0  0  0  0  0  0  0  0  0
    6.8460    0.4350   18.6290 C   0  0  0  0  0  0  0  0  0  0  0  0
    5.8060   -0.5490   18.3120 C   0  0  0  0  0  0  0  0  0  0  0  0
    3.9020    3.4500   23.7690 O   0  0  0  0  0  0  0  0  0  0  0  0
    2.1560    1.8510   24.0360 N   0  0  0  0  0  0  0  0  0  0  0  0
    5.9110    1.8460   23.5650 C   0  0  0  0  0  0  0  0  0  0  0  0
    4.7980   -0.4020   23.3310 C   0  0  0  0  0  0  0  0  0  0  0  0
    1.1040    2.5560   24.6370 C   0  0  0  0  0  0  0  0  0  0  0  0
    6.8980    1.1760   24.2870 C   0  0  0  0  0  0  0  0  0  0  0  0
    5.7600   -1.0440   24.0330 N   0  0  0  0  0  0  0  0  0  0  0  0
    1.4110    3.8020   25.2490 C   0  0  0  0  0  0  0  0  0  0  0  0
   -0.2330    2.1150   24.6770 C   0  0  0  0  0  0  0  0  0  0  0  0
    6.7810   -0.2940   24.5010 C   0  0  0  0  0  0  0  0  0  0  0  0
    0.4110    4.5730   25.8770 C   0  0  0  0  0  0  0  0  0  0  0  0
   -1.1900    2.8920   25.2990 C   0  0  0  0  0  0  0  0  0  0  0  0
   -0.8980    4.0980   25.8930 C   0  0  0  0  0  0  0  0  0  0  0  0
  1  2  2  0
  2  3  1  0
  2  4  1  0
  3  5  1  0
  4  6  1  0
  5  7  1  0
  5  8  1  0
  6  9  1  0
  6 10  1  0
  9 10  1  0
  7 11  2  0
  7 12  1  0
  8 13  2  0
  8 14  1  0
 12 15  1  0
 13 16  1  0
 14 17  2  0
 15 18  2  0
 15 19  1  0
 16 20  2  0
 17 20  1  0
 18 21  1  0
 19 22  2  0
 21 23  2  0
 22 23  1  0
M  END
