SIM-SYN-a98e6a07-1
     RDKit          3D

 34 37  0  0  0  0  0  0  0  0999 V2000
    5.4990   -4.0970   19.8260 O   0  0  0  0  0  0  0  0  0  0  0  0
    6.4390   -3.8200   20.5990 C   0  0  0  0  0  0  0  0  0  0  0  0
    7.3260   -2.5560   20.3790 C   0  0  0  0  0  0  0  0  0  0  0  0
    6.7930   -4.6330   21.6700 N   0  0  0  0  0  0  0  0  0  0  0  0
    6.9660   -1.3200   20.8990 N   0  0  0  0  0  0  0  0  0  0  0  0
    6.0810   -5.8820   21.9640 C   0  0  0  0  0  0  0  0  0  0  0  0
    7.4940   -4.1080   22.8460 C   0  0  0  0  0  0  0  0  0  0  0  0
    8.0540   -0.4050   21.3370 C   0  0  0  0  0  0  0  0  0  0  0  0
    6.3850   -0.4250   20.0750 C   0  0  0  0  0  0  0  0  0  0  0  0
    5.3620   -5.8580   23.2560 C   0  0  0  0  0  0  0  0  0  0  0  0
    6.6390   -3.9640   23.9410 C   0  0  0  0  0  0  0  0  0  0  0  0
    8.2120    0.7490   20.9340 O   0  0  0  0  0  0  0  0  0  0  0  0
    8.9350   -1.0290   22.3140 N   0  0  0  0  0  0  0  0  0  0  0  0
    5.0750    0.2580   20.4910 C   0  0  0  0  0  0  0  0  0  0  0  0
    6.9090   -0.0670   18.8180 C   0  0  0  0  0  0  0  0  0  0  0  0
    6.0560   -5.2890   24.3070 N   0  0  0  0  0  0  0  0  0  0  0  0
   10.2410   -0.6130   22.6190 C   0  0  0  0  0  0  0  0  0  0  0  0
    4.5220    1.1670   19.5830 C   0  0  0  0  0  0  0  0  0  0  0  0
    6.3620    0.8200   17.9610 N   0  0  0  0  0  0  0  0  0  0  0  0
    5.3470   -5.3170   25.8600 S   0  0  0  0  0  0  0  0  0  0  0  0
   10.3940    0.5100   23.4660 C   0  0  0  0  0  0  0  0  0  0  0  0
   11.4130   -1.2310   22.1370 C   0  0  0  0  0  0  0  0  0  0  0  0
    5.2170    1.4210   18.3010 C   0  0  0  0  0  0  0  0  0  0  0  0
    4.6690   -6.5820   26.0090 O   0  0  0  0  0  0  0  0  0  0  0  0
    6.3830   -4.8920   26.7700 O   0  0  0  0  0  0  0  0  0  0  0  0
    4.0910   -4.0600   25.8340 C   0  0  0  0  0  0  0  0  0  0  0  0
   11.6640    0.9940   23.8010 C   0  0  0  0  0  0  0  0  0  0  0  0
   12.6430   -0.7330   22.4870 C   0  0  0  0  0  0  0  0  0  0  0  0
    2.8150   -4.3740   25.3230 C   0  0  0  0  0  0  0  0  0  0  0  0
    4.4020   -2.6670   26.3670 C   0  0  0  0  0  0  0  0  0  0  0  0
   12.7830    0.3500   23.2920 C   0  0  0  0  0  0  0  0  0  0  0  0
    1.6840   -3.3570   25.2790 C   0  0  0  0  0  0  0  0  0  0  0  0
    3.2390   -1.6900   26.2990 C   0  0  0  0  0  0  0  0  0  0  0  0
    1.9780   -1.9680   25.8100 C   0  0  0  0  0  0  0  0  0  0  0  0
  1  2  2  0
  2  3  1  0
  2  4  1  0
  3  5  1  0
  4  6  1  0
  4  7  1  0
  5  8  1  0
  5  9  1  0
  6 10  1  0
  7 11  1  0
  8 12  2  0
  8 13  1  0
  9 14  2  0
  9 15  1  0
 10 16  1  0
 11 16  1  0
 13 17  1  0
 14 18  1  0
 15 19  2  0
 16 20  1  0
 17 21  2  0
 17 22  1  0
 18 23  2  0
 19 23  1  0
 20 24  2  0
 20 25  2  0
 20 26  1  0
 21 27  1  0
 22 28  2  0
 26 29  2  0
 26 30  1  0
 27 31  2  0
 28 31  1  0
 29 32  1  0
 30 33  2  0
 32 34  2  0
 33 34  1  0
M  END
