SIM-DEM-1d7050d3-1
     RDKit          3D

 24 26  0  0  0  0  0  0  0  0999 V2000
    6.7670   -0.8880   20.5520 O   0  0  0  0  0  0  0  0  0  0  0  0
    7.7300   -1.5000   20.0890 C   0  0  0  0  0  0  0  0  0  0  0  0
    8.6700   -2.1640   21.0780 C   0  0  0  0  0  0  0  0  0  0  0  0
    8.0080   -1.6210   18.5950 N   0  0  0  0  0  0  0  0  0  0  0  0
    9.7600   -1.3730   21.8320 C   0  0  0  0  0  0  0  0  0  0  0  0
    7.6200   -0.5430   17.7390 C   0  0  0  0  0  0  0  0  0  0  0  0
   11.1260   -2.0090   21.9920 C   0  0  0  0  0  0  0  0  0  0  0  0
    9.4590   -0.1000   22.3480 C   0  0  0  0  0  0  0  0  0  0  0  0
    6.4840   -0.0750   18.3890 C   0  0  0  0  0  0  0  0  0  0  0  0
    8.1170    0.1180   16.4570 C   0  0  0  0  0  0  0  0  0  0  0  0
   12.1280   -1.1610   22.7530 C   0  0  0  0  0  0  0  0  0  0  0  0
   10.4430    0.6640   23.0590 C   0  0  0  0  0  0  0  0  0  0  0  0
    5.7700    0.9600   17.9630 C   0  0  0  0  0  0  0  0  0  0  0  0
    7.3430    1.2190   16.0290 N   0  0  0  0  0  0  0  0  0  0  0  0
    9.2370   -0.0710   15.4530 C   0  0  0  0  0  0  0  0  0  0  0  0
   11.7250    0.1630   23.2600 C   0  0  0  0  0  0  0  0  0  0  0  0
    6.2800    1.5650   16.7540 C   0  0  0  0  0  0  0  0  0  0  0  0
   10.6580    0.7410   15.2350 N   0  0  0  0  0  0  0  0  0  0  0  0
   12.5290    1.5830   16.7540 C   0  0  0  0  0  0  0  0  0  0  0  0
   12.5250    2.9080   17.4940 O   0  0  0  0  0  0  0  0  0  0  0  0
   13.6820    0.7080   16.9160 N   0  0  0  0  0  0  0  0  0  0  0  0
   15.0070    0.9970   17.4080 C   0  0  0  0  0  0  0  0  0  0  0  0
   15.3430    1.5550   18.5410 C   0  0  0  0  0  0  0  0  0  0  0  0
   15.4310    0.2940   18.8120 C   0  0  0  0  0  0  0  0  0  0  0  0
  1  2  2  0
  2  3  1  0
  2  4  1  0
  3  5  1  0
  4  6  1  0
  5  7  2  0
  5  8  1  0
  6  9  2  0
  6 10  1  0
  7 11  1  0
  8 12  2  0
  9 13  1  0
 10 14  2  0
 10 15  1  0
 11 16  2  0
 12 16  1  0
 13 17  2  0
 14 17  1  0
 15 18  1  0
 18 19  1  0
 19 20  2  0
 19 21  1  0
 21 22  1  0
 22 23  1  0
 22 24  1  0
 23 24  1  0
M  END
