SIM-SYN-a98e6a07-6
     RDKit          3D

 26 29  0  0  0  0  0  0  0  0999 V2000
    5.5870   -4.9820   19.9300 O   0  0  0  0  0  0  0  0  0  0  0  0
    6.3820   -4.2810   20.5740 C   0  0  0  0  0  0  0  0  0  0  0  0
    6.9670   -3.0330   20.0520 N   0  0  0  0  0  0  0  0  0  0  0  0
    6.9020   -4.5890   21.9990 C   0  0  2  0  0  0  0  0  0  0  0  0
    5.9740   -2.0030   19.7130 C   0  0  0  0  0  0  0  0  0  0  0  0
    6.6900   -5.9560   22.3850 C   0  0  0  0  0  0  0  0  0  0  0  0
    6.2920   -3.7380   22.7980 N   0  0  0  0  0  0  0  0  0  0  0  0
    6.4210   -1.2030   18.6870 C   0  0  0  0  0  0  0  0  0  0  0  0
    6.2570   -0.3550   19.6380 C   0  0  0  0  0  0  0  0  0  0  0  0
    5.6280   -6.2150   23.2950 C   0  0  0  0  0  0  0  0  0  0  0  0
    4.9210   -3.9730   23.0170 C   0  0  0  0  0  0  0  0  0  0  0  0
    6.9310   -2.7710   23.7030 C   0  0  0  0  0  0  0  0  0  0  0  0
    5.7010   -5.5010   24.5090 C   0  0  0  0  0  0  0  0  0  0  0  0
    4.7460   -4.5560   24.3140 N   0  0  0  0  0  0  0  0  0  0  0  0
    4.0180   -3.7400   22.2280 O   0  0  0  0  0  0  0  0  0  0  0  0
    6.5940   -2.7790   25.0510 C   0  0  0  0  0  0  0  0  0  0  0  0
    7.8790   -1.8000   23.2730 C   0  0  0  0  0  0  0  0  0  0  0  0
    3.9210   -3.7270   25.1030 C   0  0  0  0  0  0  0  0  0  0  0  0
    7.1610   -1.8740   25.8860 C   0  0  0  0  0  0  0  0  0  0  0  0
    8.4270   -0.9760   23.9290 N   0  0  0  0  0  0  0  0  0  0  0  0
    4.2180   -2.6680   26.1690 C   0  0  0  0  0  0  0  0  0  0  0  0
    2.5660   -3.8810   24.8240 C   0  0  0  0  0  0  0  0  0  0  0  0
    8.1300   -0.9360   25.2410 C   0  0  0  0  0  0  0  0  0  0  0  0
    3.0670   -1.8890   26.7830 C   0  0  0  0  0  0  0  0  0  0  0  0
    1.5470   -3.1470   25.4150 C   0  0  0  0  0  0  0  0  0  0  0  0
    1.7820   -2.1600   26.3700 C   0  0  0  0  0  0  0  0  0  0  0  0
  1  2  2  0
  2  3  1  0
  4  2  1  6
  3  5  1  0
  4  6  1  0
  4  7  1  0
  5  8  1  0
  5  9  1  0
  8  9  1  0
  6 10  1  0
  7 11  1  0
  7 12  1  0
 10 13  1  0
 11 14  1  0
 13 14  1  0
 11 15  2  0
 12 16  2  0
 12 17  1  0
 14 18  1  0
 16 19  1  0
 17 20  2  0
 18 21  2  0
 18 22  1  0
 19 23  2  0
 20 23  1  0
 21 24  1  0
 22 25  2  0
 24 26  2  0
 25 26  1  0
M  END
