SIM-DEM-5935bd74-3
     RDKit          3D

 20 21  0  0  0  0  0  0  0  0999 V2000
    9.0260    6.4760   22.7330 C   0  0  0  0  0  0  0  0  0  0  0  0
   10.4030    6.2290   23.2360 C   0  0  0  0  0  0  0  0  0  0  0  0
   10.6160    6.2540   24.4460 O   0  0  0  0  0  0  0  0  0  0  0  0
   11.3540    5.9960   22.3520 N   0  0  0  0  0  0  0  0  0  0  0  0
   12.2530    5.1110   22.8930 C   0  0  0  0  0  0  0  0  0  0  0  0
   12.3050    3.7440   22.6650 C   0  0  0  0  0  0  0  0  0  0  0  0
   11.3260    2.8560   23.2840 C   0  0  0  0  0  0  0  0  0  0  0  0
   10.1240    3.3590   23.7540 C   0  0  0  0  0  0  0  0  0  0  0  0
   11.5910    1.4960   23.4120 C   0  0  0  0  0  0  0  0  0  0  0  0
    9.1610    2.5800   24.3560 C   0  0  0  0  0  0  0  0  0  0  0  0
   10.6250    0.6590   24.0420 C   0  0  0  0  0  0  0  0  0  0  0  0
   12.7890    0.9520   22.9300 C   0  0  0  0  0  0  0  0  0  0  0  0
    9.4280    1.1390   24.5160 C   0  0  0  0  0  0  0  0  0  0  0  0
   10.9150   -0.7620   24.1980 C   0  0  0  0  0  0  0  0  0  0  0  0
   13.1100   -0.5070   23.0530 C   0  0  0  0  0  0  0  0  0  0  0  0
   12.2040   -1.2810   23.6800 C   0  0  0  0  0  0  0  0  0  0  0  0
   12.5720   -2.8940   23.8810 S   0  0  0  0  0  0  0  0  0  0  0  0
   13.1160   -3.0080   22.2910 N   0  0  0  0  0  0  0  0  0  0  0  0
   13.7100   -3.0000   24.7580 O   0  0  0  0  0  0  0  0  0  0  0  0
   11.2970   -3.5040   24.1310 O   0  0  0  0  0  0  0  0  0  0  0  0
  1  2  1  0
  2  3  2  0
  2  4  1  0
  4  5  1  0
  5  6  1  0
  6  7  1  0
  7  8  2  0
  7  9  1  0
  8 10  1  0
  9 11  2  0
  9 12  1  0
 10 13  2  0
 11 13  1  0
 11 14  1  0
 12 15  2  0
 14 16  2  0
 15 16  1  0
 16 17  1  0
 17 18  1  0
 17 19  2  0
 17 20  2  0
M  END
