SIM-DEM-4fb93ec7-1
     RDKit          3D

 22 23  0  0  0  0  0  0  0  0999 V2000
   13.2060    0.2390   22.7990 C   0  0  0  0  0  0  0  0  0  0  0  0
   13.4110   -0.8000   21.8260 N   0  0  0  0  0  0  0  0  0  0  0  0
   12.6160   -1.9240   21.6750 C   0  0  0  0  0  0  0  0  0  0  0  0
   13.0360   -2.8800   21.0450 O   0  0  0  0  0  0  0  0  0  0  0  0
   11.2170   -1.8870   22.3120 C   0  0  0  0  0  0  0  0  0  0  0  0
   10.8370   -0.5270   22.7550 N   0  0  0  0  0  0  0  0  0  0  0  0
   11.4040   -0.2170   24.0710 C   0  0  0  0  0  0  0  0  0  0  0  0
    9.3740   -0.4010   22.7800 C   0  0  1  0  0  0  0  0  0  0  0  0
   10.5390   -0.8580   25.1450 C   0  0  0  0  0  0  0  0  0  0  0  0
    8.9410    0.1720   23.9810 C   0  0  0  0  0  0  0  0  0  0  0  0
    8.8430    0.2020   21.6520 C   0  0  0  0  0  0  0  0  0  0  0  0
    9.1860   -0.5960   25.0720 N   0  0  0  0  0  0  0  0  0  0  0  0
    9.2040    1.3270   21.2600 O   0  0  0  0  0  0  0  0  0  0  0  0
    7.8580   -0.5750   21.0670 N   0  0  0  0  0  0  0  0  0  0  0  0
    8.3970   -0.1690   26.2250 C   0  0  0  0  0  0  0  0  0  0  0  0
    6.9560   -0.0720   20.1260 C   0  0  0  0  0  0  0  0  0  0  0  0
    7.1390   -0.2450   18.7690 C   0  0  0  0  0  0  0  0  0  0  0  0
    5.8310    0.6450   20.5730 C   0  0  0  0  0  0  0  0  0  0  0  0
    6.2280    0.2990   17.7790 N   0  0  0  0  0  0  0  0  0  0  0  0
    4.8390    1.2370   19.5680 C   0  0  0  0  0  0  0  0  0  0  0  0
    5.5250    0.8830   22.0600 C   0  0  0  0  0  0  0  0  0  0  0  0
    5.0340    1.0760   18.2160 C   0  0  0  0  0  0  0  0  0  0  0  0
  1  2  1  0
  2  3  1  0
  3  4  2  0
  3  5  1  0
  5  6  1  0
  6  7  1  0
  6  8  1  0
  7  9  1  0
  8 10  1  0
  8 11  1  6
  9 12  1  0
 10 12  1  0
 11 13  2  0
 11 14  1  0
 12 15  1  0
 14 16  1  0
 16 17  2  0
 16 18  1  0
 17 19  1  0
 18 20  2  0
 18 21  1  0
 19 22  2  0
 20 22  1  0
M  END
