SIM-SYN-f15aaa3a-1-nitrile
     RDKit          3D

 21 23  0  0  0  0  0  0  0  0999 V2000
    6.8410   -3.5220   19.7150 C   0  0  0  0  0  0  0  0  0  0  0  0
    6.3890   -3.0280   18.6270 N   0  0  0  0  0  0  0  0  0  0  0  0
    6.7990   -2.8600   20.9340 N   0  0  0  0  0  0  0  0  0  0  0  0
    6.4820   -3.4730   22.1690 C   0  0  0  0  0  0  0  0  0  0  0  0
    7.6520   -1.6770   21.1340 C   0  0  0  0  0  0  0  0  0  0  0  0
    7.5570   -3.6330   23.0590 C   0  0  0  0  0  0  0  0  0  0  0  0
    8.8240   -2.0150   21.8060 C   0  0  0  0  0  0  0  0  0  0  0  0
    8.4420   -2.5940   23.1200 N   0  0  0  0  0  0  0  0  0  0  0  0
    9.6160   -2.9720   23.9150 C   0  0  0  0  0  0  0  0  0  0  0  0
   10.5650   -1.9070   23.8090 C   0  0  0  0  0  0  0  0  0  0  0  0
    9.2850   -3.6820   25.1060 C   0  0  0  0  0  0  0  0  0  0  0  0
   11.8000   -2.1770   23.2080 C   0  0  0  0  0  0  0  0  0  0  0  0
   10.3730   -0.5770   24.2300 C   0  0  0  0  0  0  0  0  0  0  0  0
    9.9650   -5.0250   25.4770 C   0  0  0  0  0  0  0  0  0  0  0  0
    8.2980   -3.2070   25.9790 C   0  0  0  0  0  0  0  0  0  0  0  0
   12.8090   -1.0690   23.0450 C   0  0  0  0  0  0  0  0  0  0  0  0
   11.3110    0.4680   24.0810 C   0  0  0  0  0  0  0  0  0  0  0  0
    9.5460   -5.6700   26.6360 C   0  0  0  0  0  0  0  0  0  0  0  0
    7.9420   -3.9080   27.1250 C   0  0  0  0  0  0  0  0  0  0  0  0
   12.5640    0.2990   23.4890 C   0  0  0  0  0  0  0  0  0  0  0  0
    8.5540   -5.1110   27.4390 C   0  0  0  0  0  0  0  0  0  0  0  0
  1  2  2  3
  1  3  1  0
  3  4  1  0
  3  5  1  0
  4  6  1  0
  5  7  1  0
  6  8  1  0
  7  8  1  0
  8  9  1  0
  9 10  1  0
  9 11  1  0
 10 12  2  0
 10 13  1  0
 11 14  2  0
 11 15  1  0
 12 16  1  0
 13 17  2  0
 14 18  1  0
 15 19  2  0
 16 20  2  0
 17 20  1  0
 18 21  2  0
 19 21  1  0
M  END
