STE-NAN-bafe64f0-1
     RDKit          3D

 26 29  0  0  0  0  0  0  0  0999 V2000
    8.5890   -0.3110   25.7870 C   0  0  0  0  0  0  0  0  0  0  0  0
    8.8310   -0.6240   24.3830 N   0  0  0  0  0  0  0  0  0  0  0  0
    9.8910    0.3090   23.9020 C   0  0  0  0  0  0  0  0  0  0  0  0
    8.7500   -2.1880   24.1600 C   0  0  2  0  0  0  0  0  0  0  0  0
    9.7130    1.7330   23.9460 C   0  0  0  0  0  0  0  0  0  0  0  0
   11.1260   -0.1080   23.3830 C   0  0  0  0  0  0  0  0  0  0  0  0
    9.9090   -2.3860   23.0490 C   0  0  0  0  0  0  0  0  0  0  0  0
    7.2750   -3.2560   24.3060 C   0  0  0  0  0  0  0  0  0  0  0  0
   10.6700    2.6910   23.5190 C   0  0  0  0  0  0  0  0  0  0  0  0
   12.1340    0.8480   22.9540 C   0  0  0  0  0  0  0  0  0  0  0  0
   11.2900   -1.6190   23.3170 C   0  0  0  0  0  0  0  0  0  0  0  0
    5.7700   -3.2040   24.8810 C   0  0  0  0  0  0  0  0  0  0  0  0
    7.2290   -4.6090   23.8380 N   0  0  0  0  0  0  0  0  0  0  0  0
   10.2200    4.4370   23.6250 S   0  0  0  0  0  0  0  0  0  0  0  0
   11.9090    2.2470   23.0210 C   0  0  0  0  0  0  0  0  0  0  0  0
    5.1030   -4.3790   24.7080 C   0  0  0  0  0  0  0  0  0  0  0  0
    5.9260   -5.1730   24.1060 N   0  0  0  0  0  0  0  0  0  0  0  0
   11.6350    5.3200   23.4250 N   0  0  0  0  0  0  0  0  0  0  0  0
    9.4110    4.7330   22.4860 O   0  0  0  0  0  0  0  0  0  0  0  0
    9.6660    4.8450   24.8900 O   0  0  0  0  0  0  0  0  0  0  0  0
    5.3360   -6.4510   23.7890 C   0  0  0  0  0  0  0  0  0  0  0  0
    4.3200   -5.7470   23.0070 C   0  0  2  0  0  0  0  0  0  0  0  0
    5.1860   -5.1950   21.8990 C   0  0  0  0  0  0  0  0  0  0  0  0
    3.7850   -4.5300   23.7740 C   0  0  0  0  0  0  0  0  0  0  0  0
    5.2450   -3.7100   22.1390 C   0  0  0  0  0  0  0  0  0  0  0  0
    4.2560   -3.3580   23.1050 O   0  0  0  0  0  0  0  0  0  0  0  0
  1  2  1  0
  2  3  1  0
  2  4  1  0
  3  5  1  0
  3  6  2  0
  4  7  1  0
  4  8  1  6
  5  9  2  0
  6 10  1  0
  6 11  1  0
  7 11  1  0
  8 12  1  0
  8 13  2  0
  9 14  1  0
  9 15  1  0
 10 15  2  0
 12 16  2  0
 13 17  1  0
 16 17  1  0
 14 18  1  0
 14 19  2  0
 14 20  2  0
 17 21  1  0
 22 21  1  1
 22 23  1  0
 22 24  1  0
 23 25  1  0
 24 26  1  0
 25 26  1  0
M  END
