STE-KUL-2e0d2e88-3-bromoalkyne
     RDKit          3D

 19 20  0  0  0  0  0  0  0  0999 V2000
    7.4460   -3.6530   20.0000 C   0  0  0  0  0  0  0  0  0  0  0  0
    5.9890   -3.5650   19.4860 C   0  0  0  0  0  0  0  0  0  0  0  0
    7.7270   -3.9490   21.3280 N   0  0  0  0  0  0  0  0  0  0  0  0
    8.6770   -3.0990   22.0470 C   0  0  0  0  0  0  0  0  0  0  0  0
    6.6040   -4.2580   22.2180 C   0  0  0  0  0  0  0  0  0  0  0  0
    8.1650   -1.8050   22.1710 C   0  0  0  0  0  0  0  0  0  0  0  0
    6.0400   -2.9360   22.7160 C   0  0  0  0  0  0  0  0  0  0  0  0
    6.6880   -1.7790   22.0650 N   0  0  0  0  0  0  0  0  0  0  0  0
    6.1460   -1.4500   20.7330 C   0  0  0  0  0  0  0  0  0  0  0  0
    6.7260   -0.3590   20.0840 C   0  0  0  0  0  0  0  0  0  0  0  0
    6.0590    0.9070   20.4010 N   0  0  0  0  0  0  0  0  0  0  0  0
    5.2400    1.6360   19.5710 C   0  0  0  0  0  0  0  0  0  0  0  0
    5.4100    1.6070   18.3590 O   0  0  0  0  0  0  0  0  0  0  0  0
    4.2050    2.4140   20.1160 C   0  0  0  0  0  0  0  0  0  0  0  0
    4.4570    3.8390   20.6420 C   0  0  0  0  0  0  0  0  0  0  0  0
    2.9120    1.8900   20.1870 C   0  0  0  0  0  0  0  0  0  0  0  0
    3.2680    4.5920   21.2120 C   0  0  0  0  0  0  0  0  0  0  0  0
    1.7270    2.5940   20.7370 N   0  0  0  0  0  0  0  0  0  0  0  0
    1.9200    3.8470   21.2060 C   0  0  0  0  0  0  0  0  0  0  0  0
  1  2  2  3
  1  3  1  0
  3  4  1  0
  3  5  1  0
  4  6  1  0
  5  7  1  0
  6  8  1  0
  7  8  1  0
  8  9  1  0
  9 10  1  0
 10 11  1  0
 11 12  1  0
 12 13  2  0
 12 14  1  0
 14 15  2  0
 14 16  1  0
 15 17  1  0
 16 18  2  0
 17 19  2  0
 18 19  1  0
M  END
