STE-UNK-a3cce3f2-1
     RDKit          3D

 31 35  0  0  0  0  0  0  0  0999 V2000
   10.5900   -3.5450   24.7590 C   0  0  0  0  0  0  0  0  0  0  0  0
    9.1190   -3.2450   24.8970 C   0  0  0  0  0  0  0  0  0  0  0  0
    8.5420   -2.4720   23.7140 C   0  0  0  0  0  0  0  0  0  0  0  0
    7.1700   -2.5170   23.1570 C   0  0  0  0  0  0  0  0  0  0  0  0
    9.2940   -1.5620   22.9860 C   0  0  0  0  0  0  0  0  0  0  0  0
    6.3160   -3.3620   23.8020 C   0  0  0  0  0  0  0  0  0  0  0  0
    6.6770   -1.8030   22.0910 N   0  0  0  0  0  0  0  0  0  0  0  0
    8.7850   -0.7860   21.8590 C   0  0  0  0  0  0  0  0  0  0  0  0
   10.6160   -1.2180   23.1770 C   0  0  0  0  0  0  0  0  0  0  0  0
    6.7990   -3.7000   25.0520 C   0  0  0  0  0  0  0  0  0  0  0  0
    7.4220   -0.9240   21.4010 C   0  0  0  0  0  0  0  0  0  0  0  0
    9.7810   -0.0260   21.4440 N   0  0  0  0  0  0  0  0  0  0  0  0
   10.8350   -0.2940   22.2240 N   0  0  0  0  0  0  0  0  0  0  0  0
   11.7080   -1.6090   24.1090 C   0  0  0  0  0  0  0  0  0  0  0  0
    7.9650   -4.7070   25.2760 C   0  0  0  0  0  0  0  0  0  0  0  0
    6.1540   -3.0130   26.2810 C   0  0  0  0  0  0  0  0  0  0  0  0
    6.7900   -0.2410   20.3420 C   0  0  0  0  0  0  0  0  0  0  0  0
    8.4150   -4.9550   26.6830 C   0  0  0  0  0  0  0  0  0  0  0  0
    6.6460   -3.3210   27.5620 C   0  0  0  0  0  0  0  0  0  0  0  0
    5.1440   -2.1330   26.1580 N   0  0  0  0  0  0  0  0  0  0  0  0
    7.1670   -0.3670   18.9980 C   0  0  0  0  0  0  0  0  0  0  0  0
    5.7000    0.6230   20.5820 C   0  0  0  0  0  0  0  0  0  0  0  0
    9.5610   -5.9120   26.9060 C   0  0  0  0  0  0  0  0  0  0  0  0
    7.8000   -4.3140   27.7480 C   0  0  0  0  0  0  0  0  0  0  0  0
    6.0170   -2.6510   28.7140 C   0  0  0  0  0  0  0  0  0  0  0  0
    4.5390   -1.4910   27.2250 N   0  0  0  0  0  0  0  0  0  0  0  0
    6.6230    0.2260   17.9960 N   0  0  0  0  0  0  0  0  0  0  0  0
    5.0950    1.2700   19.5100 C   0  0  0  0  0  0  0  0  0  0  0  0
    5.2240    0.8280   21.8700 C   0  0  0  0  0  0  0  0  0  0  0  0
    4.9770   -1.7510   28.5010 C   0  0  0  0  0  0  0  0  0  0  0  0
    5.5840    1.0470   18.2350 C   0  0  0  0  0  0  0  0  0  0  0  0
  1  2  3  0
  2  3  1  0
  3  4  2  0
  3  5  1  0
  4  6  1  0
  4  7  1  0
  5  8  1  0
  5  9  2  0
  6 10  1  0
  7 11  2  0
  8 11  1  0
  8 12  2  0
  9 13  1  0
 12 13  1  0
  9 14  1  0
 10 15  2  0
 10 16  1  0
 11 17  1  0
 15 18  1  0
 16 19  2  0
 16 20  1  0
 17 21  2  0
 17 22  1  0
 18 23  1  0
 18 24  2  0
 19 24  1  0
 19 25  1  0
 20 26  2  0
 21 27  1  0
 22 28  2  0
 22 29  1  0
 25 30  2  0
 26 30  1  0
 27 31  2  0
 28 31  1  0
M  END
