STE-UNK-07e72928-1
     RDKit          3D

 26 30  0  0  0  0  0  0  0  0999 V2000
    5.2760    0.8260   22.0340 C   0  0  0  0  0  0  0  0  0  0  0  0
    5.7300    0.5470   20.6250 C   0  0  0  0  0  0  0  0  0  0  0  0
    4.9310    1.1550   19.4540 C   0  0  0  0  0  0  0  0  0  0  0  0
    6.8430   -0.2410   20.3570 C   0  0  0  0  0  0  0  0  0  0  0  0
    5.4650    0.8170   18.0620 C   0  0  0  0  0  0  0  0  0  0  0  0
    7.2030   -0.4640   18.8920 C   0  0  0  0  0  0  0  0  0  0  0  0
    7.6130   -0.8140   21.3840 C   0  0  0  0  0  0  0  0  0  0  0  0
    6.5860    0.0170   17.7670 N   0  0  0  0  0  0  0  0  0  0  0  0
    7.1170   -2.0770   21.7880 C   0  0  0  0  0  0  0  0  0  0  0  0
    5.8490   -2.3870   21.0630 N   0  0  0  0  0  0  0  0  0  0  0  0
    7.6760   -3.0990   22.8110 C   0  0  0  0  0  0  0  0  0  0  0  0
    5.5700   -3.5470   21.5670 N   0  0  0  0  0  0  0  0  0  0  0  0
    6.5830   -3.9640   22.5490 C   0  0  0  0  0  0  0  0  0  0  0  0
    8.8100   -3.1480   23.6510 C   0  0  0  0  0  0  0  0  0  0  0  0
   10.0320   -2.2460   23.3220 C   0  0  0  0  0  0  0  0  0  0  0  0
    8.7090   -4.0570   24.7450 C   0  0  0  0  0  0  0  0  0  0  0  0
   10.2700   -1.2290   22.1920 C   0  0  0  0  0  0  0  0  0  0  0  0
   11.1180   -2.5420   24.4000 C   0  0  0  0  0  0  0  0  0  0  0  0
    9.7930   -4.1890   25.6260 C   0  0  0  0  0  0  0  0  0  0  0  0
    7.6050   -4.8610   25.0450 N   0  0  0  0  0  0  0  0  0  0  0  0
   12.4950   -1.8430   24.3960 C   0  0  0  0  0  0  0  0  0  0  0  0
   10.9410   -3.4590   25.4410 C   0  0  0  0  0  0  0  0  0  0  0  0
    9.5070   -5.3340   26.9030 S   0  0  0  0  0  0  0  0  0  0  0  0
    7.9740   -5.6120   26.2520 C   0  0  0  0  0  0  0  0  0  0  0  0
   13.0610   -2.0210   23.1550 C   0  0  0  0  0  0  0  0  0  0  0  0
   12.6740   -0.6370   23.3440 C   0  0  0  0  0  0  0  0  0  0  0  0
  1  2  1  0
  2  3  2  0
  2  4  1  0
  3  5  1  0
  4  6  2  0
  4  7  1  0
  5  8  2  0
  6  8  1  0
  7  9  1  0
  9 10  2  0
  9 11  1  0
 10 12  1  0
 11 13  2  0
 12 13  1  0
 11 14  1  0
 14 15  2  0
 14 16  1  0
 15 17  1  0
 15 18  1  0
 16 19  2  0
 16 20  1  0
 18 21  1  0
 18 22  2  0
 19 22  1  0
 19 23  1  0
 20 24  2  0
 23 24  1  0
 21 25  1  0
 21 26  1  0
 25 26  1  0
M  END
