STE-UNK-28609fce-1-bromoalkyne
     RDKit          3D

 27 30  0  0  0  0  0  0  0  0999 V2000
    8.1850   -3.7000   19.9790 C   0  0  0  0  0  0  0  0  0  0  0  0
    6.6890   -4.2070   19.8780 C   0  0  0  0  0  0  0  0  0  0  0  0
    8.2320   -2.3320   20.6070 C   0  0  0  0  0  0  0  0  0  0  0  0
    8.7770   -2.0950   21.9690 C   0  0  0  0  0  0  0  0  0  0  0  0
    7.8190   -0.8870   20.3780 N   0  0  0  0  0  0  0  0  0  0  0  0
    9.2300   -3.3180   22.7140 C   0  0  0  0  0  0  0  0  0  0  0  0
    8.8790   -0.7570   22.4540 N   0  0  0  0  0  0  0  0  0  0  0  0
    8.4940   -0.0330   21.3380 C   0  0  0  0  0  0  0  0  0  0  0  0
    6.7320   -0.2240   19.7290 C   0  0  0  0  0  0  0  0  0  0  0  0
   10.3690   -3.0110   23.6380 C   0  0  0  0  0  0  0  0  0  0  0  0
    8.7090   -4.5020   22.5860 N   0  0  0  0  0  0  0  0  0  0  0  0
   10.2010   -0.3250   22.7630 C   0  0  0  0  0  0  0  0  0  0  0  0
    8.7570    1.3690   21.1540 O   0  0  0  0  0  0  0  0  0  0  0  0
    5.4630   -0.0730   20.2920 C   0  0  0  0  0  0  0  0  0  0  0  0
    6.9560    0.3260   18.4970 C   0  0  0  0  0  0  0  0  0  0  0  0
   10.5960   -4.2400   24.1710 O   0  0  0  0  0  0  0  0  0  0  0  0
    9.6430   -5.0420   23.5370 C   0  0  0  0  0  0  0  0  0  0  0  0
   10.5170    0.8860   23.5620 C   0  0  0  0  0  0  0  0  0  0  0  0
   11.3530   -1.1710   22.1940 C   0  0  0  0  0  0  0  0  0  0  0  0
    4.4750    0.6280   19.6060 C   0  0  0  0  0  0  0  0  0  0  0  0
    6.0560    1.0280   17.7580 N   0  0  0  0  0  0  0  0  0  0  0  0
    9.4250   -6.5090   23.7070 C   0  0  0  0  0  0  0  0  0  0  0  0
   11.8060    1.2370   23.7680 C   0  0  0  0  0  0  0  0  0  0  0  0
   12.6250   -0.7450   22.4550 C   0  0  0  0  0  0  0  0  0  0  0  0
    4.8530    1.1750   18.3010 C   0  0  0  0  0  0  0  0  0  0  0  0
   12.8960    0.3970   23.1940 C   0  0  0  0  0  0  0  0  0  0  0  0
   13.6860   -1.4330   21.9830 F   0  0  0  0  0  0  0  0  0  0  0  0
  1  2  2  3
  1  3  1  0
  3  4  2  0
  3  5  1  0
  4  6  1  0
  4  7  1  0
  5  8  1  0
  7  8  1  0
  5  9  1  0
  6 10  2  0
  6 11  1  0
  7 12  1  0
  8 13  2  0
  9 14  2  0
  9 15  1  0
 10 16  1  0
 11 17  2  0
 16 17  1  0
 12 18  2  0
 12 19  1  0
 14 20  1  0
 15 21  2  0
 17 22  1  0
 18 23  1  0
 19 24  2  0
 20 25  2  0
 21 25  1  0
 23 26  2  0
 24 26  1  0
 24 27  1  0
M  END
