STU-CHA-0f79177c-1-vinylsulfonamide
     RDKit          3D

 26 28  0  0  0  0  0  0  0  0999 V2000
    7.3980   -2.8600   18.2650 C   0  0  0  0  0  0  0  0  0  0  0  0
    6.4120   -2.2360   19.2400 C   0  0  0  0  0  0  0  0  0  0  0  0
    5.8080   -3.3780   20.4390 S   0  0  0  0  0  0  0  0  0  0  0  0
    4.6930   -2.8940   21.1480 O   0  0  0  0  0  0  0  0  0  0  0  0
    5.6710   -4.7020   19.8780 O   0  0  0  0  0  0  0  0  0  0  0  0
    7.0440   -3.1750   21.5470 N   0  0  0  0  0  0  0  0  0  0  0  0
    6.6670   -3.5550   22.8830 C   0  0  0  0  0  0  0  0  0  0  0  0
    7.5640   -1.7980   21.4610 C   0  0  0  0  0  0  0  0  0  0  0  0
    7.4250   -2.8850   23.7970 C   0  0  0  0  0  0  0  0  0  0  0  0
    8.7050   -1.6500   22.2360 C   0  0  0  0  0  0  0  0  0  0  0  0
    8.7460   -2.5960   23.2680 N   0  0  0  0  0  0  0  0  0  0  0  0
    9.6440   -2.2780   24.1990 C   0  0  0  0  0  0  0  0  0  0  0  0
   10.5950   -1.3040   23.8820 C   0  0  0  0  0  0  0  0  0  0  0  0
   11.8830   -1.7260   23.4660 C   0  0  0  0  0  0  0  0  0  0  0  0
   10.3300    0.0970   23.9600 C   0  0  0  0  0  0  0  0  0  0  0  0
   12.8850   -0.8230   23.1390 C   0  0  0  0  0  0  0  0  0  0  0  0
   11.3150    1.0400   23.6430 C   0  0  0  0  0  0  0  0  0  0  0  0
    9.3200    0.7090   24.2720 N   0  0  0  0  0  0  0  0  0  0  0  0
   12.5750    0.6680   23.2400 C   0  0  0  0  0  0  0  0  0  0  0  0
   10.8560    2.2770   23.7820 N   0  0  0  0  0  0  0  0  0  0  0  0
    9.4930    2.0970   24.1980 C   0  0  0  0  0  0  0  0  0  0  0  0
    8.5900    3.1470   24.4450 C   0  0  0  0  0  0  0  0  0  0  0  0
    7.0590    2.8190   25.2940 S   0  0  0  0  0  0  0  0  0  0  0  0
    5.8930    3.3260   24.2020 N   0  0  0  0  0  0  0  0  0  0  0  0
    6.9690    3.7370   26.4110 O   0  0  0  0  0  0  0  0  0  0  0  0
    6.9030    1.3940   25.4680 O   0  0  0  0  0  0  0  0  0  0  0  0
  1  2  1  0
  3  2  1  0
  3  4  2  0
  3  5  2  0
  3  6  1  0
  6  7  1  0
  6  8  1  0
  7  9  1  0
  8 10  1  0
  9 11  1  0
 10 11  1  0
 11 12  1  0
 12 13  1  0
 13 14  2  0
 13 15  1  0
 14 16  1  0
 15 17  2  0
 15 18  1  0
 16 19  2  0
 17 19  1  0
 17 20  1  0
 18 21  1  0
 20 21  2  0
 21 22  1  0
 22 23  1  0
 23 24  1  0
 23 25  2  0
 23 26  2  0
M  END
