STU-CHA-545e7bd3-1-nitrile
     RDKit          3D

 23 25  0  0  0  0  0  0  0  0999 V2000
    7.0350   -3.3560   19.5090 C   0  0  0  0  0  0  0  0  0  0  0  0
    6.2720   -3.1060   18.5090 N   0  0  0  0  0  0  0  0  0  0  0  0
    6.8210   -2.6940   20.7160 N   0  0  0  0  0  0  0  0  0  0  0  0
    6.4140   -3.4390   21.8970 C   0  0  0  0  0  0  0  0  0  0  0  0
    7.5350   -1.4610   21.0720 C   0  0  0  0  0  0  0  0  0  0  0  0
    7.5810   -3.5050   22.8210 C   0  0  0  0  0  0  0  0  0  0  0  0
    8.6190   -1.7980   21.9010 C   0  0  0  0  0  0  0  0  0  0  0  0
    8.3010   -2.2060   22.9610 N   0  0  0  0  0  0  0  0  0  0  0  0
    9.5390   -2.4000   23.7410 C   0  0  1  0  0  0  0  0  0  0  0  0
   10.5150   -1.4250   23.4470 C   0  0  0  0  0  0  0  0  0  0  0  0
    9.4460   -2.4570   25.2160 C   0  0  0  0  0  0  0  0  0  0  0  0
    9.9850   -3.8800   24.0280 C   0  0  0  0  0  0  0  0  0  0  0  0
   10.2280   -0.0680   23.6690 C   0  0  0  0  0  0  0  0  0  0  0  0
   11.7570   -1.8000   22.9180 C   0  0  0  0  0  0  0  0  0  0  0  0
    9.9980   -3.6530   25.5860 C   0  0  2  0  0  0  0  0  0  0  0  0
   11.2020    0.9380   23.6090 C   0  0  0  0  0  0  0  0  0  0  0  0
   12.6800   -0.8060   22.6080 C   0  0  0  0  0  0  0  0  0  0  0  0
    9.2290   -4.6190   26.4240 C   0  0  0  0  0  0  0  0  0  0  0  0
   10.9300    2.2790   23.7900 C   0  0  0  0  0  0  0  0  0  0  0  0
   12.4640    0.4510   23.3240 N   0  0  0  0  0  0  0  0  0  0  0  0
   13.5460   -1.0280   21.7790 O   0  0  0  0  0  0  0  0  0  0  0  0
    9.0860   -5.5090   27.1510 N   0  0  0  0  0  0  0  0  0  0  0  0
    8.0440   -4.2930   26.3030 O   0  0  0  0  0  0  0  0  0  0  0  0
  1  2  2  3
  1  3  1  0
  3  4  1  0
  3  5  1  0
  4  6  1  0
  5  7  1  0
  6  8  1  0
  7  8  1  0
  8  9  1  0
  9 10  1  1
  9 11  1  0
  9 12  1  0
 10 13  1  0
 10 14  2  0
 11 15  1  0
 12 15  1  0
 13 16  2  0
 14 17  1  0
 15 18  1  1
 16 19  1  0
 16 20  1  0
 17 20  1  0
 17 21  2  0
 18 22  1  0
 18 23  2  0
M  END
