STU-CHA-7e77017b-1-acrylamide
     RDKit          3D

 26 28  0  0  0  0  0  0  0  0999 V2000
    7.3610   -4.2420   20.5310 C   0  0  0  0  0  0  0  0  0  0  0  0
    6.2530   -3.2400   20.3680 C   0  0  0  0  0  0  0  0  0  0  0  0
    5.6670   -3.0160   21.7350 C   0  0  0  0  0  0  0  0  0  0  0  0
    4.5600   -3.4360   22.0670 O   0  0  0  0  0  0  0  0  0  0  0  0
    6.4360   -2.3210   22.6470 N   0  0  0  0  0  0  0  0  0  0  0  0
    7.0820   -2.9840   23.6800 C   0  0  0  0  0  0  0  0  0  0  0  0
    6.9480   -1.0290   22.4070 C   0  0  0  0  0  0  0  0  0  0  0  0
    8.5960   -2.7240   23.7320 C   0  0  0  0  0  0  0  0  0  0  0  0
    8.1940   -1.0090   21.7900 C   0  0  0  0  0  0  0  0  0  0  0  0
    8.9490   -2.2280   22.3410 C   0  0  0  0  0  0  0  0  0  0  0  0
   10.4490   -1.9480   22.3450 C   0  0  0  0  0  0  0  0  0  0  0  0
   11.0940   -1.4910   23.3950 N   0  0  0  0  0  0  0  0  0  0  0  0
   10.4640   -0.3730   23.8980 C   0  0  0  0  0  0  0  0  0  0  0  0
   12.5590   -1.3640   23.4590 C   0  0  1  0  0  0  0  0  0  0  0  0
   11.0160    0.9920   23.6070 C   0  0  0  0  0  0  0  0  0  0  0  0
   13.0500   -0.1820   22.8870 C   0  0  0  0  0  0  0  0  0  0  0  0
   13.0360   -1.7290   24.8680 C   0  0  0  0  0  0  0  0  0  0  0  0
   10.3380    2.2010   23.7840 C   0  0  0  0  0  0  0  0  0  0  0  0
   12.3150    1.0000   23.1110 C   0  0  0  0  0  0  0  0  0  0  0  0
   11.0020    3.4430   23.4430 C   0  0  0  0  0  0  0  0  0  0  0  0
   12.9370    2.2110   22.8070 C   0  0  0  0  0  0  0  0  0  0  0  0
   10.1440    4.9270   23.6430 S   0  0  0  0  0  0  0  0  0  0  0  0
   12.3090    3.4160   22.9590 C   0  0  0  0  0  0  0  0  0  0  0  0
   11.3450    6.0730   23.3500 N   0  0  0  0  0  0  0  0  0  0  0  0
    9.6520    5.1160   24.9760 O   0  0  0  0  0  0  0  0  0  0  0  0
    9.2130    5.0270   22.5650 O   0  0  0  0  0  0  0  0  0  0  0  0
  1  2  1  0
  2  3  1  0
  3  4  2  0
  3  5  1  0
  5  6  1  0
  5  7  1  0
  6  8  1  0
  7  9  1  0
  8 10  1  0
  9 10  1  0
 10 11  1  0
 11 12  1  0
 12 13  1  0
 12 14  1  0
 13 15  1  0
 14 16  1  0
 14 17  1  1
 15 18  2  0
 15 19  1  0
 16 19  1  0
 18 20  1  0
 19 21  2  0
 20 22  1  0
 20 23  2  0
 21 23  1  0
 22 24  1  0
 22 25  2  0
 22 26  2  0
M  END
