STU-CHA-7e77017b-1-vinylsulfonamide
     RDKit          3D

 27 29  0  0  0  0  0  0  0  0999 V2000
    6.8360   -3.3550   19.5450 C   0  0  0  0  0  0  0  0  0  0  0  0
    6.4030   -3.9930   20.8350 C   0  0  0  0  0  0  0  0  0  0  0  0
    5.5150   -2.7570   21.7280 S   0  0  0  0  0  0  0  0  0  0  0  0
    4.3190   -3.3830   22.2340 O   0  0  0  0  0  0  0  0  0  0  0  0
    5.4180   -1.5930   20.8740 O   0  0  0  0  0  0  0  0  0  0  0  0
    6.5410   -2.2920   22.9520 N   0  0  0  0  0  0  0  0  0  0  0  0
    7.0940   -3.1690   23.8850 C   0  0  0  0  0  0  0  0  0  0  0  0
    7.3900   -1.1140   22.6890 C   0  0  0  0  0  0  0  0  0  0  0  0
    8.4630   -3.6340   23.4800 C   0  0  0  0  0  0  0  0  0  0  0  0
    8.6600   -1.4600   22.2070 C   0  0  0  0  0  0  0  0  0  0  0  0
    9.3240   -2.6010   22.7300 C   0  0  0  0  0  0  0  0  0  0  0  0
   10.5250   -2.4640   23.6980 C   0  0  0  0  0  0  0  0  0  0  0  0
   11.2520   -1.3500   23.5210 N   0  0  0  0  0  0  0  0  0  0  0  0
   10.6290   -0.1500   24.1030 C   0  0  0  0  0  0  0  0  0  0  0  0
   12.1240   -1.1180   22.4860 C   0  0  1  0  0  0  0  0  0  0  0  0
   11.3170    1.1050   23.6000 C   0  0  0  0  0  0  0  0  0  0  0  0
   13.0890   -0.1700   22.8490 C   0  0  0  0  0  0  0  0  0  0  0  0
   12.7190   -2.2580   21.7170 C   0  0  0  0  0  0  0  0  0  0  0  0
   10.6460    2.4260   23.7760 C   0  0  0  0  0  0  0  0  0  0  0  0
   12.5360    1.0840   22.9760 C   0  0  0  0  0  0  0  0  0  0  0  0
   11.2560    3.5480   23.3170 C   0  0  0  0  0  0  0  0  0  0  0  0
   13.2140    2.2100   22.4810 C   0  0  0  0  0  0  0  0  0  0  0  0
   10.4080    5.0210   23.5580 S   0  0  0  0  0  0  0  0  0  0  0  0
   12.5470    3.4350   22.6660 C   0  0  0  0  0  0  0  0  0  0  0  0
   11.2270    6.0660   22.5420 N   0  0  0  0  0  0  0  0  0  0  0  0
   10.6280    5.5440   24.8780 O   0  0  0  0  0  0  0  0  0  0  0  0
    9.0660    4.8820   23.0570 O   0  0  0  0  0  0  0  0  0  0  0  0
  1  2  1  0
  3  2  1  0
  3  4  2  0
  3  5  2  0
  3  6  1  0
  6  7  1  0
  6  8  1  0
  7  9  1  0
  8 10  1  0
  9 11  1  0
 10 11  1  0
 11 12  1  0
 12 13  1  0
 13 14  1  0
 13 15  1  0
 14 16  1  0
 15 17  1  0
 15 18  1  1
 16 19  2  0
 16 20  1  0
 17 20  1  0
 19 21  1  0
 20 22  2  0
 21 23  1  0
 21 24  2  0
 22 24  1  0
 23 25  1  0
 23 26  2  0
 23 27  2  0
M  END
