STU-CHA-07310c75-1-nitrile
     RDKit          3D

 22 24  0  0  0  0  0  0  0  0999 V2000
    6.8190   -3.2320   19.4800 C   0  0  0  0  0  0  0  0  0  0  0  0
    5.9420   -3.0480   18.5700 N   0  0  0  0  0  0  0  0  0  0  0  0
    6.6840   -2.6080   20.7140 N   0  0  0  0  0  0  0  0  0  0  0  0
    6.3180   -3.3950   21.8740 C   0  0  0  0  0  0  0  0  0  0  0  0
    7.4270   -1.3940   21.0480 C   0  0  0  0  0  0  0  0  0  0  0  0
    7.5070   -3.4850   22.7710 C   0  0  0  0  0  0  0  0  0  0  0  0
    8.5270   -1.7270   21.8540 C   0  0  0  0  0  0  0  0  0  0  0  0
    8.2870   -2.2150   22.8920 N   0  0  0  0  0  0  0  0  0  0  0  0
    9.4230   -2.3990   23.8160 C   0  0  2  0  0  0  0  0  0  0  0  0
   10.5030   -1.5160   23.5670 C   0  0  0  0  0  0  0  0  0  0  0  0
    9.7160   -3.8110   24.0360 C   0  0  0  0  0  0  0  0  0  0  0  0
    8.9310   -2.2570   25.2960 C   0  0  0  0  0  0  0  0  0  0  0  0
   11.8240   -1.9730   23.2940 C   0  0  0  0  0  0  0  0  0  0  0  0
   10.3020   -0.1030   23.5800 C   0  0  0  0  0  0  0  0  0  0  0  0
    8.9680   -3.6230   25.2730 C   0  0  2  0  0  0  0  0  0  0  0  0
   12.8630   -1.0610   23.0540 C   0  0  0  0  0  0  0  0  0  0  0  0
   11.4710    0.8570   23.3030 C   0  0  0  0  0  0  0  0  0  0  0  0
    9.5150   -4.2480   26.3380 C   0  0  0  0  0  0  0  0  0  0  0  0
   12.6890    0.2990   23.0590 C   0  0  0  0  0  0  0  0  0  0  0  0
   11.2450    2.3490   23.2920 C   0  0  0  0  0  0  0  0  0  0  0  0
    9.5370   -4.8840   27.5490 N   0  0  0  0  0  0  0  0  0  0  0  0
   10.7210   -4.2650   26.1060 O   0  0  0  0  0  0  0  0  0  0  0  0
  1  2  2  3
  1  3  1  0
  3  4  1  0
  3  5  1  0
  4  6  1  0
  5  7  1  0
  6  8  1  0
  7  8  1  0
  8  9  1  0
  9 10  1  6
  9 11  1  0
  9 12  1  0
 10 13  2  0
 10 14  1  0
 11 15  1  0
 12 15  1  0
 13 16  1  0
 14 17  2  0
 15 18  1  1
 16 19  2  0
 17 19  1  0
 17 20  1  0
 18 21  1  0
 18 22  2  0
M  END
