STU-CHA-545e7bd3-1-acrylamide
     RDKit          3D

 25 27  0  0  0  0  0  0  0  0999 V2000
    7.8820   -3.2190   19.0180 C   0  0  0  0  0  0  0  0  0  0  0  0
    6.6550   -2.3890   18.7780 C   0  0  0  0  0  0  0  0  0  0  0  0
    5.7380   -2.7310   19.8960 C   0  0  0  0  0  0  0  0  0  0  0  0
    4.8650   -3.5620   19.6480 O   0  0  0  0  0  0  0  0  0  0  0  0
    5.9980   -2.1640   21.1440 N   0  0  0  0  0  0  0  0  0  0  0  0
    7.0440   -1.1510   21.1260 C   0  0  0  0  0  0  0  0  0  0  0  0
    6.0350   -2.9350   22.3440 C   0  0  0  0  0  0  0  0  0  0  0  0
    8.2000   -1.4960   21.8450 C   0  0  0  0  0  0  0  0  0  0  0  0
    7.2590   -3.1980   23.0370 C   0  0  0  0  0  0  0  0  0  0  0  0
    8.0810   -2.0540   23.0780 N   0  0  0  0  0  0  0  0  0  0  0  0
    9.2510   -2.1860   23.7490 C   0  0  2  0  0  0  0  0  0  0  0  0
   10.3290   -1.3690   23.3960 C   0  0  0  0  0  0  0  0  0  0  0  0
    9.6010   -3.5800   23.8770 C   0  0  0  0  0  0  0  0  0  0  0  0
    9.0480   -2.0860   25.2940 C   0  0  0  0  0  0  0  0  0  0  0  0
   10.2010   -0.0050   23.3620 C   0  0  0  0  0  0  0  0  0  0  0  0
   11.6910   -1.8420   22.9920 C   0  0  0  0  0  0  0  0  0  0  0  0
    9.1860   -3.5740   25.1300 C   0  0  2  0  0  0  0  0  0  0  0  0
   11.4450    0.8830   23.3300 C   0  0  0  0  0  0  0  0  0  0  0  0
   12.6920   -0.9460   22.6010 C   0  0  0  0  0  0  0  0  0  0  0  0
   10.1210   -4.2030   26.0900 C   0  0  0  0  0  0  0  0  0  0  0  0
   11.2820    2.3770   23.2270 C   0  0  0  0  0  0  0  0  0  0  0  0
   12.7780    0.2890   23.3740 N   0  0  0  0  0  0  0  0  0  0  0  0
   13.5520   -1.2390   21.4890 O   0  0  0  0  0  0  0  0  0  0  0  0
    9.5550   -4.9080   27.1120 N   0  0  0  0  0  0  0  0  0  0  0  0
   11.3500   -4.1440   26.0280 O   0  0  0  0  0  0  0  0  0  0  0  0
  1  2  1  0
  2  3  1  0
  3  4  2  0
  3  5  1  0
  5  6  1  0
  5  7  1  0
  6  8  1  0
  7  9  1  0
  8 10  1  0
  9 10  1  0
 10 11  1  0
 11 12  1  6
 11 13  1  0
 11 14  1  0
 12 15  1  0
 12 16  2  0
 13 17  1  0
 14 17  1  0
 15 18  2  0
 16 19  1  0
 17 20  1  1
 18 21  1  0
 18 22  1  0
 19 22  1  0
 19 23  2  0
 20 24  1  0
 20 25  2  0
M  END
