STU-CHA-91df9a40-1-bromoalkyne
     RDKit          3D

 23 24  0  0  0  0  0  0  0  0999 V2000
    7.1820   -3.3740   19.9660 C   0  0  0  0  0  0  0  0  0  0  0  0
    6.3950   -2.6590   18.8530 C   0  0  0  0  0  0  0  0  0  0  0  0
    8.3450   -2.7640   20.6920 N   0  0  0  0  0  0  0  0  0  0  0  0
    8.3560   -1.8800   21.9320 C   0  0  1  0  0  0  0  0  0  0  0  0
    7.6940   -2.2620   23.1000 C   0  0  0  0  0  0  0  0  0  0  0  0
    9.8420   -1.5080   22.2840 C   0  0  0  0  0  0  0  0  0  0  0  0
   10.8100   -2.2100   21.6550 C   0  0  0  0  0  0  0  0  0  0  0  0
   10.3510   -0.5070   23.1750 C   0  0  0  0  0  0  0  0  0  0  0  0
   12.2600   -1.9560   21.8680 C   0  0  0  0  0  0  0  0  0  0  0  0
   11.7050   -0.2610   23.3980 C   0  0  0  0  0  0  0  0  0  0  0  0
    9.7320    0.2670   23.8280 O   0  0  0  0  0  0  0  0  0  0  0  0
   13.2800   -2.9320   20.9630 Cl  0  0  0  0  0  0  0  0  0  0  0  0
   12.7320   -0.9270   22.7910 C   0  0  0  0  0  0  0  0  0  0  0  0
   10.5460    1.3600   23.5850 C   0  0  0  0  0  0  0  0  0  0  0  0
   12.0330    1.2240   23.1370 C   0  0  0  0  0  0  0  0  0  0  0  0
   10.0520    2.6410   23.7270 C   0  0  0  0  0  0  0  0  0  0  0  0
   12.7660    2.3690   22.9020 C   0  0  0  0  0  0  0  0  0  0  0  0
   10.8620    3.7350   23.4680 C   0  0  0  0  0  0  0  0  0  0  0  0
   12.1840    3.6220   23.0610 C   0  0  0  0  0  0  0  0  0  0  0  0
   10.1330    5.3220   23.6810 S   0  0  0  0  0  0  0  0  0  0  0  0
   11.3870    6.3540   23.1720 N   0  0  0  0  0  0  0  0  0  0  0  0
    9.9040    5.5670   25.0870 O   0  0  0  0  0  0  0  0  0  0  0  0
    9.0270    5.4240   22.7620 O   0  0  0  0  0  0  0  0  0  0  0  0
  1  2  2  3
  1  3  1  0
  3  4  1  0
  4  5  1  1
  4  6  1  0
  6  7  2  0
  6  8  1  0
  7  9  1  0
  8 10  2  0
  8 11  1  0
  9 12  1  0
  9 13  2  0
 10 13  1  0
 11 14  1  0
 14 15  2  0
 14 16  1  0
 15 17  1  0
 16 18  2  0
 17 19  2  0
 18 19  1  0
 18 20  1  0
 20 21  1  0
 20 22  2  0
 20 23  2  0
M  END
