STU-CHA-545e7bd3-1-chloroacetamide
     RDKit          3D

 24 26  0  0  0  0  0  0  0  0999 V2000
    7.1250   -2.9510   18.7330 C   0  0  0  0  0  0  0  0  0  0  0  0
    6.1970   -3.2530   19.8810 C   0  0  0  0  0  0  0  0  0  0  0  0
    5.3630   -4.1560   19.7220 O   0  0  0  0  0  0  0  0  0  0  0  0
    6.3400   -2.5220   21.0660 N   0  0  0  0  0  0  0  0  0  0  0  0
    7.2550   -1.3740   21.1360 C   0  0  0  0  0  0  0  0  0  0  0  0
    6.2260   -3.1880   22.4000 C   0  0  0  0  0  0  0  0  0  0  0  0
    8.4860   -1.7230   21.6680 C   0  0  0  0  0  0  0  0  0  0  0  0
    7.5000   -3.5210   22.8590 C   0  0  0  0  0  0  0  0  0  0  0  0
    8.2550   -2.3910   22.9400 N   0  0  0  0  0  0  0  0  0  0  0  0
    9.2790   -2.4400   23.7930 C   0  0  2  0  0  0  0  0  0  0  0  0
   10.2910   -1.4910   23.5390 C   0  0  0  0  0  0  0  0  0  0  0  0
    9.8360   -3.7640   24.3030 C   0  0  0  0  0  0  0  0  0  0  0  0
    8.5300   -2.4710   25.2280 C   0  0  0  0  0  0  0  0  0  0  0  0
   10.0920   -0.1290   23.7410 C   0  0  0  0  0  0  0  0  0  0  0  0
   11.5370   -1.8840   23.0260 C   0  0  0  0  0  0  0  0  0  0  0  0
    9.4480   -3.4640   25.6310 C   0  0  1  0  0  0  0  0  0  0  0  0
   11.0780    0.8260   23.6580 C   0  0  0  0  0  0  0  0  0  0  0  0
   12.5630   -0.7720   22.7040 C   0  0  0  0  0  0  0  0  0  0  0  0
    9.0200   -4.5350   26.3230 C   0  0  0  0  0  0  0  0  0  0  0  0
   10.8250    2.3280   23.8420 C   0  0  0  0  0  0  0  0  0  0  0  0
   12.3610    0.4040   23.3710 N   0  0  0  0  0  0  0  0  0  0  0  0
   13.5930   -0.9970   21.7440 O   0  0  0  0  0  0  0  0  0  0  0  0
    9.1220   -5.7250   26.9850 N   0  0  0  0  0  0  0  0  0  0  0  0
    7.8180   -4.3660   26.4800 O   0  0  0  0  0  0  0  0  0  0  0  0
  1  2  1  0
  2  3  2  0
  2  4  1  0
  4  5  1  0
  4  6  1  0
  5  7  1  0
  6  8  1  0
  7  9  1  0
  8  9  1  0
  9 10  1  0
 10 11  1  1
 10 12  1  0
 10 13  1  0
 11 14  1  0
 11 15  2  0
 12 16  1  0
 13 16  1  0
 14 17  2  0
 15 18  1  0
 16 19  1  6
 17 20  1  0
 17 21  1  0
 18 21  1  0
 18 22  2  0
 19 23  1  0
 19 24  2  0
M  END
