STU-CHA-0be58c98-1-nitrile
     RDKit          3D

 20 21  0  0  0  0  0  0  0  0999 V2000
    7.1180   -3.3610   19.5180 C   0  0  0  0  0  0  0  0  0  0  0  0
    6.3190   -3.1700   18.5330 N   0  0  0  0  0  0  0  0  0  0  0  0
    6.9550   -2.6670   20.6910 N   0  0  0  0  0  0  0  0  0  0  0  0
    7.6820   -1.4320   20.9110 C   0  0  0  0  0  0  0  0  0  0  0  0
    6.3090   -3.2010   21.8880 C   0  0  0  0  0  0  0  0  0  0  0  0
    8.7490   -1.6920   21.7690 C   0  0  0  0  0  0  0  0  0  0  0  0
    7.2740   -3.2230   23.1240 C   0  0  2  0  0  0  0  0  0  0  0  0
    8.2670   -2.0840   23.1220 N   0  0  0  0  0  0  0  0  0  0  0  0
    7.8550   -4.5140   23.1540 C   0  0  0  0  0  0  0  0  0  0  0  0
    9.4390   -2.3280   23.9740 C   0  0  0  0  0  0  0  0  0  0  0  0
    7.0510   -5.7340   23.1000 C   0  0  0  0  0  0  0  0  0  0  0  0
   10.5630   -1.3680   23.6900 C   0  0  0  0  0  0  0  0  0  0  0  0
    5.9090   -5.6890   23.8420 N   0  0  0  0  0  0  0  0  0  0  0  0
    7.3290   -6.7360   22.4670 O   0  0  0  0  0  0  0  0  0  0  0  0
   11.8840   -1.8160   23.2610 C   0  0  0  0  0  0  0  0  0  0  0  0
   10.3340   -0.0020   23.8350 C   0  0  0  0  0  0  0  0  0  0  0  0
   12.8760   -0.8570   23.0080 C   0  0  0  0  0  0  0  0  0  0  0  0
   11.3350    0.9340   23.5730 C   0  0  0  0  0  0  0  0  0  0  0  0
   12.6060    0.5060   23.1630 C   0  0  0  0  0  0  0  0  0  0  0  0
   11.0160    2.3890   23.7330 C   0  0  0  0  0  0  0  0  0  0  0  0
  1  2  2  3
  1  3  1  0
  3  4  1  0
  3  5  1  0
  4  6  1  0
  5  7  1  0
  6  8  1  0
  7  8  1  0
  7  9  1  6
  8 10  1  0
  9 11  1  0
 10 12  1  0
 11 13  1  0
 11 14  2  0
 12 15  2  0
 12 16  1  0
 15 17  1  0
 16 18  2  0
 17 19  2  0
 18 19  1  0
 18 20  1  0
M  END
