STU-CHA-5350f95a-1-chloroacetamide
     RDKit          3D

 28 30  0  0  0  0  0  0  0  0999 V2000
    7.1000   -2.9850   18.7650 C   0  0  0  0  0  0  0  0  0  0  0  0
    6.1510   -3.3560   19.8740 C   0  0  0  0  0  0  0  0  0  0  0  0
    5.3010   -4.2340   19.7570 O   0  0  0  0  0  0  0  0  0  0  0  0
    6.3050   -2.6510   21.0680 N   0  0  0  0  0  0  0  0  0  0  0  0
    6.1090   -3.3460   22.3420 C   0  0  0  0  0  0  0  0  0  0  0  0
    7.2470   -1.6060   21.1880 C   0  0  0  0  0  0  0  0  0  0  0  0
    7.4170   -3.5610   23.1060 C   0  0  0  0  0  0  0  0  0  0  0  0
    8.4120   -1.6590   21.9170 C   0  0  0  0  0  0  0  0  0  0  0  0
    8.1450   -2.3040   23.2170 N   0  0  0  0  0  0  0  0  0  0  0  0
    9.0860   -2.0360   24.1520 C   0  0  0  0  0  0  0  0  0  0  0  0
   10.2170   -1.2240   23.6990 C   0  0  0  0  0  0  0  0  0  0  0  0
   11.1870   -1.8720   22.7730 C   0  0  0  0  0  0  0  0  0  0  0  0
   10.3610    0.0900   24.1210 C   0  0  0  0  0  0  0  0  0  0  0  0
   12.2280   -1.1050   22.3690 C   0  0  0  0  0  0  0  0  0  0  0  0
   11.4660    0.8800   23.7050 C   0  0  0  0  0  0  0  0  0  0  0  0
    9.4010    0.6420   24.9510 C   0  0  0  0  0  0  0  0  0  0  0  0
   13.3130   -1.8150   21.2980 Cl  0  0  0  0  0  0  0  0  0  0  0  0
   12.3700    0.2200   22.8260 C   0  0  0  0  0  0  0  0  0  0  0  0
    8.3360    0.9880   25.2380 N   0  0  0  0  0  0  0  0  0  0  0  0
    7.5210    1.6860   24.2410 C   0  0  0  0  0  0  0  0  0  0  0  0
    7.9160    2.7050   23.6800 O   0  0  0  0  0  0  0  0  0  0  0  0
    6.2810    1.0840   23.9850 N   0  0  0  0  0  0  0  0  0  0  0  0
    5.3350    0.9760   25.0990 C   0  0  0  0  0  0  0  0  0  0  0  0
    5.6510    1.5030   22.7250 C   0  0  0  0  0  0  0  0  0  0  0  0
    4.1170    0.3090   24.7270 C   0  0  0  0  0  0  0  0  0  0  0  0
    4.1380    1.2690   22.6960 C   0  0  0  0  0  0  0  0  0  0  0  0
    3.4180    1.0830   23.8440 N   0  0  0  0  0  0  0  0  0  0  0  0
    3.5800    1.2810   21.3840 O   0  0  0  0  0  0  0  0  0  0  0  0
  1  2  1  0
  2  3  2  0
  2  4  1  0
  4  5  1  0
  4  6  1  0
  5  7  1  0
  6  8  1  0
  7  9  1  0
  8  9  1  0
  9 10  1  0
 10 11  1  0
 11 12  2  0
 11 13  1  0
 12 14  1  0
 13 15  2  0
 13 16  1  0
 14 17  1  0
 14 18  2  0
 15 18  1  0
 16 19  1  0
 19 20  1  0
 20 21  2  0
 20 22  1  0
 22 23  1  0
 22 24  1  0
 23 25  1  0
 24 26  1  0
 25 27  1  0
 26 27  1  0
 26 28  2  0
M  END
