STU-CHA-5350f95a-1-nitrile
     RDKit          3D

 27 29  0  0  0  0  0  0  0  0999 V2000
    6.7300   -3.3640   19.5320 C   0  0  0  0  0  0  0  0  0  0  0  0
    5.8950   -3.0620   18.6270 N   0  0  0  0  0  0  0  0  0  0  0  0
    6.6690   -2.7800   20.7760 N   0  0  0  0  0  0  0  0  0  0  0  0
    7.2630   -1.4580   20.9500 C   0  0  0  0  0  0  0  0  0  0  0  0
    6.3430   -3.5020   22.0260 C   0  0  0  0  0  0  0  0  0  0  0  0
    8.3730   -1.5350   21.9660 C   0  0  0  0  0  0  0  0  0  0  0  0
    7.4460   -3.6160   22.9020 C   0  0  0  0  0  0  0  0  0  0  0  0
    7.9980   -2.3390   23.1370 N   0  0  0  0  0  0  0  0  0  0  0  0
    9.0010   -2.1720   24.1940 C   0  0  0  0  0  0  0  0  0  0  0  0
   10.1570   -1.2620   23.7720 C   0  0  0  0  0  0  0  0  0  0  0  0
   11.0960   -1.8790   22.8720 C   0  0  0  0  0  0  0  0  0  0  0  0
   10.2950    0.0490   24.2000 C   0  0  0  0  0  0  0  0  0  0  0  0
   12.2880   -1.0690   22.3760 C   0  0  0  0  0  0  0  0  0  0  0  0
   11.4210    0.7450   23.7300 C   0  0  0  0  0  0  0  0  0  0  0  0
    9.3450    0.6260   25.0320 C   0  0  0  0  0  0  0  0  0  0  0  0
   13.3530   -1.7960   21.2950 Cl  0  0  0  0  0  0  0  0  0  0  0  0
   12.4010    0.2450   22.8580 C   0  0  0  0  0  0  0  0  0  0  0  0
    8.2920    1.0520   25.2380 N   0  0  0  0  0  0  0  0  0  0  0  0
    7.5400    1.7390   24.2810 C   0  0  0  0  0  0  0  0  0  0  0  0
    7.9890    2.7110   23.6810 O   0  0  0  0  0  0  0  0  0  0  0  0
    6.2620    1.2050   24.0750 N   0  0  0  0  0  0  0  0  0  0  0  0
    5.4780    1.7710   22.9570 C   0  0  0  0  0  0  0  0  0  0  0  0
    5.4970    0.7390   25.1210 C   0  0  0  0  0  0  0  0  0  0  0  0
    4.3520    0.9190   22.6530 C   0  0  0  0  0  0  0  0  0  0  0  0
    4.0060    0.5740   24.8300 C   0  0  0  0  0  0  0  0  0  0  0  0
    3.4510    1.0560   23.6770 N   0  0  0  0  0  0  0  0  0  0  0  0
    3.3000   -0.1100   25.8660 O   0  0  0  0  0  0  0  0  0  0  0  0
  1  2  2  3
  1  3  1  0
  3  4  1  0
  3  5  1  0
  4  6  1  0
  5  7  1  0
  6  8  1  0
  7  8  1  0
  8  9  1  0
  9 10  1  0
 10 11  2  0
 10 12  1  0
 11 13  1  0
 12 14  2  0
 12 15  1  0
 13 16  1  0
 13 17  2  0
 14 17  1  0
 15 18  1  0
 18 19  1  0
 19 20  2  0
 19 21  1  0
 21 22  1  0
 21 23  1  0
 22 24  1  0
 23 25  1  0
 24 26  1  0
 25 26  1  0
 25 27  2  0
M  END
