STU-CHA-545e7bd3-2-vinylsulfonamide
     RDKit          3D

 26 28  0  0  0  0  0  0  0  0999 V2000
    7.9580   -2.9870   18.5750 C   0  0  0  0  0  0  0  0  0  0  0  0
    6.4990   -2.7560   18.4560 C   0  0  0  0  0  0  0  0  0  0  0  0
    5.6290   -3.1250   19.9010 S   0  0  0  0  0  0  0  0  0  0  0  0
    5.1500   -4.4870   19.8390 O   0  0  0  0  0  0  0  0  0  0  0  0
    4.7540   -2.0430   19.9220 O   0  0  0  0  0  0  0  0  0  0  0  0
    6.7000   -2.8200   21.1590 N   0  0  0  0  0  0  0  0  0  0  0  0
    6.2630   -3.1580   22.4710 C   0  0  0  0  0  0  0  0  0  0  0  0
    7.4500   -1.5280   21.1520 C   0  0  0  0  0  0  0  0  0  0  0  0
    7.3550   -3.4400   23.2300 C   0  0  0  0  0  0  0  0  0  0  0  0
    8.3940   -1.4900   22.1850 C   0  0  0  0  0  0  0  0  0  0  0  0
    8.5650   -2.6990   22.8430 N   0  0  0  0  0  0  0  0  0  0  0  0
    9.4440   -2.6280   23.8470 C   0  0  2  0  0  0  0  0  0  0  0  0
   10.4320   -1.6260   23.7560 C   0  0  0  0  0  0  0  0  0  0  0  0
    9.8660   -3.9530   24.5030 C   0  0  0  0  0  0  0  0  0  0  0  0
    8.4400   -2.5890   25.1390 C   0  0  0  0  0  0  0  0  0  0  0  0
   11.7570   -1.9230   23.4040 C   0  0  0  0  0  0  0  0  0  0  0  0
   10.0970   -0.2960   23.9950 C   0  0  0  0  0  0  0  0  0  0  0  0
    8.7570   -3.9420   25.3950 C   0  0  2  0  0  0  0  0  0  0  0  0
   12.8250   -0.8950   23.2880 N   0  0  0  0  0  0  0  0  0  0  0  0
   11.1210    0.8030   23.7110 C   0  0  0  0  0  0  0  0  0  0  0  0
    8.9130   -4.3720   26.6560 C   0  0  0  0  0  0  0  0  0  0  0  0
   12.3830    0.5290   23.2430 C   0  0  0  0  0  0  0  0  0  0  0  0
   10.6860    2.2350   23.9420 C   0  0  0  0  0  0  0  0  0  0  0  0
    9.4660   -4.9910   27.7360 N   0  0  0  0  0  0  0  0  0  0  0  0
    7.8820   -3.9960   27.2160 O   0  0  0  0  0  0  0  0  0  0  0  0
   13.1120    1.3960   22.8160 O   0  0  0  0  0  0  0  0  0  0  0  0
  1  2  1  0
  3  2  1  0
  3  4  2  0
  3  5  2  0
  3  6  1  0
  6  7  1  0
  6  8  1  0
  7  9  1  0
  8 10  1  0
  9 11  1  0
 10 11  1  0
 11 12  1  0
 12 13  1  6
 12 14  1  0
 12 15  1  0
 13 16  2  0
 13 17  1  0
 14 18  1  0
 15 18  1  0
 16 19  1  0
 17 20  2  0
 18 21  1  1
 19 22  1  0
 20 22  1  0
 20 23  1  0
 21 24  1  0
 21 25  2  0
 22 26  2  0
M  END
