STU-CHA-128b80be-1-vinylsulfonamide
     RDKit          3D

 33 35  0  0  0  0  0  0  0  0999 V2000
    8.1600   -3.5280   20.2530 C   0  0  0  0  0  0  0  0  0  0  0  0
    7.3350   -4.4620   21.1090 C   0  0  0  0  0  0  0  0  0  0  0  0
    5.6800   -4.0090   20.7470 S   0  0  0  0  0  0  0  0  0  0  0  0
    4.8940   -3.9900   21.9430 O   0  0  0  0  0  0  0  0  0  0  0  0
    5.2260   -4.7880   19.6400 O   0  0  0  0  0  0  0  0  0  0  0  0
    5.7760   -2.3420   20.1310 C   0  0  0  0  0  0  0  0  0  0  0  0
    6.2000   -1.2040   21.0390 C   0  0  0  0  0  0  0  0  0  0  0  0
    5.9050   -0.0620   20.7710 O   0  0  0  0  0  0  0  0  0  0  0  0
    6.9210   -1.4320   22.1630 N   0  0  0  0  0  0  0  0  0  0  0  0
    6.4160   -2.2550   23.1080 C   0  0  0  0  0  0  0  0  0  0  0  0
    8.3140   -1.2620   22.1560 C   0  0  0  0  0  0  0  0  0  0  0  0
    7.1330   -2.4680   24.4420 C   0  0  0  0  0  0  0  0  0  0  0  0
    8.9220   -2.0200   23.1470 C   0  0  0  0  0  0  0  0  0  0  0  0
    8.3410   -1.9020   24.4040 N   0  0  0  0  0  0  0  0  0  0  0  0
    8.4660   -0.5630   25.0220 C   0  0  0  0  0  0  0  0  0  0  0  0
    9.5590    0.2940   24.3860 C   0  0  0  0  0  0  0  0  0  0  0  0
   10.7640   -0.4080   23.8820 C   0  0  0  0  0  0  0  0  0  0  0  0
    9.5660    1.6810   24.2160 C   0  0  0  0  0  0  0  0  0  0  0  0
   11.8050    0.1970   23.2950 C   0  0  0  0  0  0  0  0  0  0  0  0
   10.6380    2.3830   23.6070 C   0  0  0  0  0  0  0  0  0  0  0  0
    8.4580    2.4250   24.6770 C   0  0  0  0  0  0  0  0  0  0  0  0
   13.1270   -0.7450   22.7480 Cl  0  0  0  0  0  0  0  0  0  0  0  0
   11.7550    1.6400   23.1460 C   0  0  0  0  0  0  0  0  0  0  0  0
    7.3620    2.6340   23.8200 N   0  0  0  0  0  0  0  0  0  0  0  0
    6.0960    3.5750   24.3730 S   0  0  0  0  0  0  0  0  0  0  0  0
    5.9310    4.6790   23.4580 O   0  0  0  0  0  0  0  0  0  0  0  0
    6.2600    3.7870   25.7960 O   0  0  0  0  0  0  0  0  0  0  0  0
    4.7610    2.5480   24.1540 N   0  0  0  0  0  0  0  0  0  0  0  0
    4.6190    2.0880   22.7730 C   0  0  0  0  0  0  0  0  0  0  0  0
    4.4920    1.6920   25.1590 C   0  0  0  0  0  0  0  0  0  0  0  0
    3.2360    1.4460   22.6620 C   0  0  0  0  0  0  0  0  0  0  0  0
    3.1760    1.2700   25.0430 C   0  0  0  0  0  0  0  0  0  0  0  0
    2.9350    0.6110   23.7890 O   0  0  0  0  0  0  0  0  0  0  0  0
  1  2  1  0
  3  2  1  0
  3  4  2  0
  3  5  2  0
  3  6  1  0
  6  7  1  0
  7  8  2  0
  7  9  1  0
  9 10  1  0
  9 11  1  0
 10 12  1  0
 11 13  1  0
 12 14  1  0
 13 14  1  0
 14 15  1  0
 15 16  1  0
 16 17  2  0
 16 18  1  0
 17 19  1  0
 18 20  2  0
 18 21  1  0
 19 22  1  0
 19 23  2  0
 20 23  1  0
 21 24  1  0
 25 24  1  0
 25 26  2  0
 25 27  2  0
 25 28  1  0
 28 29  1  0
 28 30  1  0
 29 31  1  0
 30 32  1  0
 31 33  1  0
 32 33  1  0
M  END
