STU-CHA-6cae54d3-1-nitrile
     RDKit          3D

 26 28  0  0  0  0  0  0  0  0999 V2000
    6.7940   -3.3570   19.5140 C   0  0  0  0  0  0  0  0  0  0  0  0
    5.9720   -3.0480   18.5970 N   0  0  0  0  0  0  0  0  0  0  0  0
    6.7420   -2.8410   20.7860 N   0  0  0  0  0  0  0  0  0  0  0  0
    6.4130   -3.6370   21.9850 C   0  0  0  0  0  0  0  0  0  0  0  0
    7.3220   -1.5160   21.0380 C   0  0  0  0  0  0  0  0  0  0  0  0
    7.5400   -3.5760   23.0340 C   0  0  0  0  0  0  0  0  0  0  0  0
    8.4370   -1.6070   21.8770 C   0  0  0  0  0  0  0  0  0  0  0  0
    8.0720   -2.1890   23.1720 N   0  0  0  0  0  0  0  0  0  0  0  0
    9.1520   -2.0630   24.1430 C   0  0  0  0  0  0  0  0  0  0  0  0
   10.2360   -1.2920   23.7010 C   0  0  0  0  0  0  0  0  0  0  0  0
   11.1400   -1.8410   22.7970 C   0  0  0  0  0  0  0  0  0  0  0  0
   10.4320    0.0630   24.1680 C   0  0  0  0  0  0  0  0  0  0  0  0
   12.2280   -1.1470   22.3220 C   0  0  0  0  0  0  0  0  0  0  0  0
   11.5150    0.8360   23.7440 C   0  0  0  0  0  0  0  0  0  0  0  0
    9.5050    0.7750   25.1420 C   0  0  0  0  0  0  0  0  0  0  0  0
   13.2760   -1.8630   21.2160 Cl  0  0  0  0  0  0  0  0  0  0  0  0
   12.3720    0.2350   22.8550 C   0  0  0  0  0  0  0  0  0  0  0  0
    8.1450    0.6570   25.0330 N   0  0  0  0  0  0  0  0  0  0  0  0
    7.3910    1.3450   24.2050 C   0  0  0  0  0  0  0  0  0  0  0  0
    7.8990    2.3070   23.6260 O   0  0  0  0  0  0  0  0  0  0  0  0
    6.1010    1.0060   23.9990 N   0  0  0  0  0  0  0  0  0  0  0  0
    5.5550    1.5580   22.8760 C   0  0  0  0  0  0  0  0  0  0  0  0
    5.2700    0.9460   25.0230 C   0  0  0  0  0  0  0  0  0  0  0  0
    4.1980    1.3640   22.6570 C   0  0  0  0  0  0  0  0  0  0  0  0
    4.0370    0.4920   24.5220 C   0  0  0  0  0  0  0  0  0  0  0  0
    3.4610    1.0770   23.5990 O   0  0  0  0  0  0  0  0  0  0  0  0
  1  2  2  3
  1  3  1  0
  3  4  1  0
  3  5  1  0
  4  6  1  0
  5  7  1  0
  6  8  1  0
  7  8  1  0
  8  9  1  0
  9 10  1  0
 10 11  2  0
 10 12  1  0
 11 13  1  0
 12 14  2  0
 12 15  1  0
 13 16  1  0
 13 17  2  0
 14 17  1  0
 15 18  1  0
 18 19  1  0
 19 20  2  0
 19 21  1  0
 21 22  1  0
 21 23  1  0
 22 24  1  0
 23 25  1  0
 24 26  1  0
 25 26  1  0
M  END
