STU-CHA-5350f95a-1-acrylamide
     RDKit          3D

 29 31  0  0  0  0  0  0  0  0999 V2000
    7.3760   -2.8000   18.2250 C   0  0  0  0  0  0  0  0  0  0  0  0
    6.2210   -2.2810   19.0410 C   0  0  0  0  0  0  0  0  0  0  0  0
    5.8080   -3.1950   20.1320 C   0  0  0  0  0  0  0  0  0  0  0  0
    5.1970   -4.2610   19.9450 O   0  0  0  0  0  0  0  0  0  0  0  0
    6.2070   -2.7120   21.3460 N   0  0  0  0  0  0  0  0  0  0  0  0
    7.1320   -1.5620   21.3810 C   0  0  0  0  0  0  0  0  0  0  0  0
    6.1610   -3.5390   22.5790 C   0  0  0  0  0  0  0  0  0  0  0  0
    7.9080   -1.7700   22.6350 C   0  0  0  0  0  0  0  0  0  0  0  0
    7.4680   -3.5970   23.4230 C   0  0  0  0  0  0  0  0  0  0  0  0
    8.0290   -2.2580   23.6310 N   0  0  0  0  0  0  0  0  0  0  0  0
    9.3040   -2.2190   24.3460 C   0  0  0  0  0  0  0  0  0  0  0  0
   10.3950   -1.2860   23.8300 C   0  0  0  0  0  0  0  0  0  0  0  0
   11.2640   -1.8030   22.9120 C   0  0  0  0  0  0  0  0  0  0  0  0
   10.5680    0.0450   24.2330 C   0  0  0  0  0  0  0  0  0  0  0  0
   12.2950   -1.0910   22.3750 C   0  0  0  0  0  0  0  0  0  0  0  0
   11.6220    0.8100   23.7120 C   0  0  0  0  0  0  0  0  0  0  0  0
    9.6680    0.6260   25.1780 C   0  0  0  0  0  0  0  0  0  0  0  0
   13.2780   -1.8630   21.2360 Cl  0  0  0  0  0  0  0  0  0  0  0  0
   12.4910    0.2340   22.7810 C   0  0  0  0  0  0  0  0  0  0  0  0
    8.2620    0.5060   24.8260 N   0  0  0  0  0  0  0  0  0  0  0  0
    7.5100    1.4910   24.0470 C   0  0  0  0  0  0  0  0  0  0  0  0
    7.9360    2.5480   23.5860 O   0  0  0  0  0  0  0  0  0  0  0  0
    6.4140    1.1040   23.9310 N   0  0  0  0  0  0  0  0  0  0  0  0
    5.5220    1.1880   25.0880 C   0  0  0  0  0  0  0  0  0  0  0  0
    5.6860    1.4930   22.7180 C   0  0  0  0  0  0  0  0  0  0  0  0
    4.2930    0.5740   24.8210 C   0  0  0  0  0  0  0  0  0  0  0  0
    4.4000    1.9420   23.0250 C   0  0  0  0  0  0  0  0  0  0  0  0
    3.5750    1.2760   23.8870 N   0  0  0  0  0  0  0  0  0  0  0  0
    4.0340    3.1540   22.3660 O   0  0  0  0  0  0  0  0  0  0  0  0
  1  2  1  0
  2  3  1  0
  3  4  2  0
  3  5  1  0
  5  6  1  0
  5  7  1  0
  6  8  1  0
  7  9  1  0
  8 10  1  0
  9 10  1  0
 10 11  1  0
 11 12  1  0
 12 13  2  0
 12 14  1  0
 13 15  1  0
 14 16  2  0
 14 17  1  0
 15 18  1  0
 15 19  2  0
 16 19  1  0
 17 20  1  0
 20 21  1  0
 21 22  2  0
 21 23  1  0
 23 24  1  0
 23 25  1  0
 24 26  1  0
 25 27  1  0
 26 28  1  0
 27 28  1  0
 27 29  2  0
M  END
