STU-CHA-0f79177c-1-chloroacetamide
     RDKit          3D

 24 26  0  0  0  0  0  0  0  0999 V2000
    7.2080   -2.9800   18.7610 C   0  0  0  0  0  0  0  0  0  0  0  0
    6.2590   -3.2410   19.8990 C   0  0  0  0  0  0  0  0  0  0  0  0
    5.4100   -4.1370   19.7400 O   0  0  0  0  0  0  0  0  0  0  0  0
    6.4230   -2.4600   21.0610 N   0  0  0  0  0  0  0  0  0  0  0  0
    6.2220   -3.0410   22.3820 C   0  0  0  0  0  0  0  0  0  0  0  0
    7.3660   -1.3380   21.0980 C   0  0  0  0  0  0  0  0  0  0  0  0
    7.4350   -3.4120   22.9340 C   0  0  0  0  0  0  0  0  0  0  0  0
    8.5470   -1.7220   21.7470 C   0  0  0  0  0  0  0  0  0  0  0  0
    8.2810   -2.2280   23.0290 N   0  0  0  0  0  0  0  0  0  0  0  0
    9.4240   -2.4290   23.7070 C   0  0  0  0  0  0  0  0  0  0  0  0
   10.4190   -1.4460   23.5700 C   0  0  0  0  0  0  0  0  0  0  0  0
   11.6740   -1.7660   23.0120 C   0  0  0  0  0  0  0  0  0  0  0  0
   10.2470   -0.0880   23.9680 C   0  0  0  0  0  0  0  0  0  0  0  0
   12.6900   -0.8480   22.8420 C   0  0  0  0  0  0  0  0  0  0  0  0
   11.2690    0.8850   23.8050 C   0  0  0  0  0  0  0  0  0  0  0  0
    9.2850    0.4640   24.4770 N   0  0  0  0  0  0  0  0  0  0  0  0
   12.5170    0.6070   23.2560 C   0  0  0  0  0  0  0  0  0  0  0  0
   10.8490    2.0640   24.2460 N   0  0  0  0  0  0  0  0  0  0  0  0
    9.5140    1.8180   24.7130 C   0  0  0  0  0  0  0  0  0  0  0  0
    8.6630    2.7820   25.2790 C   0  0  0  0  0  0  0  0  0  0  0  0
    8.1490    2.1530   26.8890 S   0  0  0  0  0  0  0  0  0  0  0  0
    6.5840    1.6340   26.5760 N   0  0  0  0  0  0  0  0  0  0  0  0
    8.9320    0.9830   27.2020 O   0  0  0  0  0  0  0  0  0  0  0  0
    8.0440    3.2410   27.8330 O   0  0  0  0  0  0  0  0  0  0  0  0
  1  2  1  0
  2  3  2  0
  2  4  1  0
  4  5  1  0
  4  6  1  0
  5  7  1  0
  6  8  1  0
  7  9  1  0
  8  9  1  0
  9 10  1  0
 10 11  1  0
 11 12  2  0
 11 13  1  0
 12 14  1  0
 13 15  2  0
 13 16  1  0
 14 17  2  0
 15 17  1  0
 15 18  1  0
 16 19  1  0
 18 19  2  0
 19 20  1  0
 20 21  1  0
 21 22  1  0
 21 23  2  0
 21 24  2  0
M  END
