STU-CHA-7e77017b-1-bromoalkyne
     RDKit          3D

 24 26  0  0  0  0  0  0  0  0999 V2000
    6.8180   -4.4580   20.4170 C   0  0  0  0  0  0  0  0  0  0  0  0
    5.8230   -3.6200   19.6370 C   0  0  0  0  0  0  0  0  0  0  0  0
    7.6580   -3.9460   21.3790 N   0  0  0  0  0  0  0  0  0  0  0  0
    7.7640   -4.4330   22.7200 C   0  0  0  0  0  0  0  0  0  0  0  0
    8.5270   -2.8130   20.9910 C   0  0  0  0  0  0  0  0  0  0  0  0
    8.8710   -3.8810   23.6020 C   0  0  0  0  0  0  0  0  0  0  0  0
    9.0640   -2.0860   22.0450 C   0  0  0  0  0  0  0  0  0  0  0  0
    9.7890   -2.9110   22.8880 C   0  0  0  0  0  0  0  0  0  0  0  0
   10.7590   -2.4170   23.9640 C   0  0  0  0  0  0  0  0  0  0  0  0
   11.3130   -1.2450   23.6630 N   0  0  0  0  0  0  0  0  0  0  0  0
   10.4750   -0.1070   24.0720 C   0  0  0  0  0  0  0  0  0  0  0  0
   12.1530   -0.9760   22.6200 C   0  0  1  0  0  0  0  0  0  0  0  0
   11.1530    1.1940   23.6620 C   0  0  0  0  0  0  0  0  0  0  0  0
   13.0330    0.0180   23.0290 C   0  0  0  0  0  0  0  0  0  0  0  0
   12.8640   -2.0790   21.9010 C   0  0  0  0  0  0  0  0  0  0  0  0
   10.4190    2.4890   23.8130 C   0  0  0  0  0  0  0  0  0  0  0  0
   12.4110    1.2380   23.1530 C   0  0  0  0  0  0  0  0  0  0  0  0
   11.0470    3.6450   23.4290 C   0  0  0  0  0  0  0  0  0  0  0  0
   13.0430    2.4150   22.7720 C   0  0  0  0  0  0  0  0  0  0  0  0
   10.1520    5.0910   23.6200 S   0  0  0  0  0  0  0  0  0  0  0  0
   12.3920    3.6410   22.8910 C   0  0  0  0  0  0  0  0  0  0  0  0
   11.2690    6.2390   23.1160 N   0  0  0  0  0  0  0  0  0  0  0  0
    9.8980    5.3950   24.9970 O   0  0  0  0  0  0  0  0  0  0  0  0
    9.0800    5.0750   22.6750 O   0  0  0  0  0  0  0  0  0  0  0  0
  1  2  2  3
  1  3  1  0
  3  4  1  0
  3  5  1  0
  4  6  1  0
  5  7  1  0
  6  8  1  0
  7  8  1  0
  8  9  1  0
  9 10  1  0
 10 11  1  0
 10 12  1  0
 11 13  1  0
 12 14  1  0
 12 15  1  1
 13 16  2  0
 13 17  1  0
 14 17  1  0
 16 18  1  0
 17 19  2  0
 18 20  1  0
 18 21  2  0
 19 21  1  0
 20 22  1  0
 20 23  2  0
 20 24  2  0
M  END
