STU-CHA-5350f95a-1-vinylsulfonamide
     RDKit          3D

 30 32  0  0  0  0  0  0  0  0999 V2000
    7.8570   -3.1090   18.8280 C   0  0  0  0  0  0  0  0  0  0  0  0
    6.4570   -2.6700   18.7320 C   0  0  0  0  0  0  0  0  0  0  0  0
    5.4520   -3.4270   19.9730 S   0  0  0  0  0  0  0  0  0  0  0  0
    4.2830   -2.9220   19.5480 O   0  0  0  0  0  0  0  0  0  0  0  0
    5.3600   -4.8630   20.0410 O   0  0  0  0  0  0  0  0  0  0  0  0
    5.9770   -2.7390   21.4350 N   0  0  0  0  0  0  0  0  0  0  0  0
    6.9140   -1.6290   21.2160 C   0  0  0  0  0  0  0  0  0  0  0  0
    6.2950   -3.6130   22.5020 C   0  0  0  0  0  0  0  0  0  0  0  0
    8.2800   -1.8850   21.8410 C   0  0  0  0  0  0  0  0  0  0  0  0
    7.3520   -3.5210   23.4010 C   0  0  0  0  0  0  0  0  0  0  0  0
    8.0930   -2.2470   23.2310 N   0  0  0  0  0  0  0  0  0  0  0  0
    9.0470   -2.0810   24.1850 C   0  0  0  0  0  0  0  0  0  0  0  0
   10.1960   -1.2890   23.7410 C   0  0  0  0  0  0  0  0  0  0  0  0
   11.1470   -1.9470   22.7870 C   0  0  0  0  0  0  0  0  0  0  0  0
   10.3810    0.0110   24.1840 C   0  0  0  0  0  0  0  0  0  0  0  0
   12.2010   -1.1940   22.3860 C   0  0  0  0  0  0  0  0  0  0  0  0
   11.4960    0.7820   23.7660 C   0  0  0  0  0  0  0  0  0  0  0  0
    9.4600    0.5860   25.0420 C   0  0  0  0  0  0  0  0  0  0  0  0
   13.2720   -1.9030   21.2910 Cl  0  0  0  0  0  0  0  0  0  0  0  0
   12.3750    0.1190   22.8630 C   0  0  0  0  0  0  0  0  0  0  0  0
    8.4080    0.9510   25.3490 N   0  0  0  0  0  0  0  0  0  0  0  0
    7.6400    1.7960   24.4450 C   0  0  0  0  0  0  0  0  0  0  0  0
    8.0720    2.8420   23.9710 O   0  0  0  0  0  0  0  0  0  0  0  0
    6.3750    1.2780   24.1800 N   0  0  0  0  0  0  0  0  0  0  0  0
    5.3810    1.3510   25.2530 C   0  0  0  0  0  0  0  0  0  0  0  0
    5.7950    1.7170   22.9260 C   0  0  0  0  0  0  0  0  0  0  0  0
    4.1630    0.6670   24.9040 C   0  0  0  0  0  0  0  0  0  0  0  0
    4.3520    2.1210   23.1740 C   0  0  0  0  0  0  0  0  0  0  0  0
    3.5030    1.3430   23.9020 N   0  0  0  0  0  0  0  0  0  0  0  0
    3.9940    3.3630   22.5790 O   0  0  0  0  0  0  0  0  0  0  0  0
  1  2  1  0
  3  2  1  0
  3  4  2  0
  3  5  2  0
  3  6  1  0
  6  7  1  0
  6  8  1  0
  7  9  1  0
  8 10  1  0
  9 11  1  0
 10 11  1  0
 11 12  1  0
 12 13  1  0
 13 14  2  0
 13 15  1  0
 14 16  1  0
 15 17  2  0
 15 18  1  0
 16 19  1  0
 16 20  2  0
 17 20  1  0
 18 21  1  0
 21 22  1  0
 22 23  2  0
 22 24  1  0
 24 25  1  0
 24 26  1  0
 25 27  1  0
 26 28  1  0
 27 29  1  0
 28 29  1  0
 28 30  2  0
M  END
