STU-CHA-83dacf15-1-acrylamide
     RDKit          3D

 25 27  0  0  0  0  0  0  0  0999 V2000
    7.9630   -3.8530   20.8410 C   0  0  0  0  0  0  0  0  0  0  0  0
    7.0800   -3.0240   19.9330 C   0  0  0  0  0  0  0  0  0  0  0  0
    5.7210   -3.1910   20.5460 C   0  0  0  0  0  0  0  0  0  0  0  0
    4.8080   -3.1130   21.3480 O   0  0  0  0  0  0  0  0  0  0  0  0
    6.3710   -2.4560   21.5310 N   0  0  0  0  0  0  0  0  0  0  0  0
    6.5560   -2.9630   22.9000 C   0  0  0  0  0  0  0  0  0  0  0  0
    6.8130   -1.0810   21.3210 C   0  0  0  0  0  0  0  0  0  0  0  0
    7.3670   -2.0460   23.8240 C   0  0  0  0  0  0  0  0  0  0  0  0
    8.2830   -0.9490   21.6770 C   0  0  0  0  0  0  0  0  0  0  0  0
    8.5250   -1.2560   23.1680 C   0  0  0  0  0  0  0  0  0  0  0  0
    9.8910   -1.8340   23.4830 C   0  0  0  0  0  0  0  0  0  0  0  0
   10.8770   -1.0910   23.8750 N   0  0  0  0  0  0  0  0  0  0  0  0
   11.9680   -1.1190   22.9900 C   0  0  0  0  0  0  0  0  0  0  0  0
   10.2450    0.2080   23.9020 C   0  0  0  0  0  0  0  0  0  0  0  0
   12.9100   -0.0690   22.9530 C   0  0  0  0  0  0  0  0  0  0  0  0
   11.0930    1.3500   23.5450 C   0  0  0  0  0  0  0  0  0  0  0  0
   12.3850    1.2250   23.0830 C   0  0  0  0  0  0  0  0  0  0  0  0
   10.4690    2.6830   23.7090 C   0  0  0  0  0  0  0  0  0  0  0  0
   13.0760    2.3890   22.7780 C   0  0  0  0  0  0  0  0  0  0  0  0
   11.1930    3.7970   23.3950 C   0  0  0  0  0  0  0  0  0  0  0  0
   12.5090    3.6670   22.9180 C   0  0  0  0  0  0  0  0  0  0  0  0
   10.3990    5.3530   23.6220 S   0  0  0  0  0  0  0  0  0  0  0  0
   11.5470    6.4290   23.0520 N   0  0  0  0  0  0  0  0  0  0  0  0
    9.2600    5.4260   22.7430 O   0  0  0  0  0  0  0  0  0  0  0  0
   10.2470    5.6330   25.0250 O   0  0  0  0  0  0  0  0  0  0  0  0
  1  2  1  0
  2  3  1  0
  3  4  2  0
  3  5  1  0
  5  6  1  0
  5  7  1  0
  6  8  1  0
  7  9  1  0
  8 10  1  0
  9 10  1  0
 10 11  1  0
 11 12  1  0
 12 13  1  0
 12 14  1  0
 13 15  1  0
 14 16  1  0
 15 17  1  0
 16 17  2  0
 16 18  1  0
 17 19  1  0
 18 20  2  0
 19 21  2  0
 20 21  1  0
 20 22  1  0
 22 23  1  0
 22 24  2  0
 22 25  2  0
M  END
