STU-CHA-6cae54d3-1-vinylsulfonamide
     RDKit          3D

 29 31  0  0  0  0  0  0  0  0999 V2000
    7.9290   -3.3930   19.5260 C   0  0  0  0  0  0  0  0  0  0  0  0
    6.8730   -2.6490   18.8130 C   0  0  0  0  0  0  0  0  0  0  0  0
    5.5340   -2.9840   19.8470 S   0  0  0  0  0  0  0  0  0  0  0  0
    5.1400   -4.3770   19.8010 O   0  0  0  0  0  0  0  0  0  0  0  0
    4.6470   -1.9620   19.5340 O   0  0  0  0  0  0  0  0  0  0  0  0
    6.2310   -2.6320   21.3020 N   0  0  0  0  0  0  0  0  0  0  0  0
    6.3470   -3.6490   22.3670 C   0  0  0  0  0  0  0  0  0  0  0  0
    7.0900   -1.4360   21.2630 C   0  0  0  0  0  0  0  0  0  0  0  0
    7.6600   -3.5870   23.1220 C   0  0  0  0  0  0  0  0  0  0  0  0
    8.3990   -1.6100   22.0080 C   0  0  0  0  0  0  0  0  0  0  0  0
    8.0910   -2.1900   23.3010 N   0  0  0  0  0  0  0  0  0  0  0  0
    9.1500   -2.0600   24.1430 C   0  0  0  0  0  0  0  0  0  0  0  0
   10.2370   -1.3150   23.7560 C   0  0  0  0  0  0  0  0  0  0  0  0
   11.0870   -1.9020   22.8500 C   0  0  0  0  0  0  0  0  0  0  0  0
   10.5020    0.0060   24.2330 C   0  0  0  0  0  0  0  0  0  0  0  0
   12.2530   -1.1140   22.4130 C   0  0  0  0  0  0  0  0  0  0  0  0
   11.6290    0.7470   23.8130 C   0  0  0  0  0  0  0  0  0  0  0  0
    9.6250    0.5990   25.1390 C   0  0  0  0  0  0  0  0  0  0  0  0
   13.3170   -1.7730   21.2870 Cl  0  0  0  0  0  0  0  0  0  0  0  0
   12.5090    0.1860   22.9010 C   0  0  0  0  0  0  0  0  0  0  0  0
    8.2670    0.5260   24.9050 N   0  0  0  0  0  0  0  0  0  0  0  0
    7.6910    1.5110   24.1400 C   0  0  0  0  0  0  0  0  0  0  0  0
    8.3630    2.4050   23.6440 O   0  0  0  0  0  0  0  0  0  0  0  0
    6.3220    1.4080   23.9900 N   0  0  0  0  0  0  0  0  0  0  0  0
    5.4920    1.0430   25.1440 C   0  0  0  0  0  0  0  0  0  0  0  0
    5.6740    2.1360   23.0180 C   0  0  0  0  0  0  0  0  0  0  0  0
    4.1920    0.6280   24.8720 C   0  0  0  0  0  0  0  0  0  0  0  0
    4.4890    1.4860   22.6890 C   0  0  0  0  0  0  0  0  0  0  0  0
    3.5950    1.3570   23.7980 O   0  0  0  0  0  0  0  0  0  0  0  0
  1  2  1  0
  3  2  1  0
  3  4  2  0
  3  5  2  0
  3  6  1  0
  6  7  1  0
  6  8  1  0
  7  9  1  0
  8 10  1  0
  9 11  1  0
 10 11  1  0
 11 12  1  0
 12 13  1  0
 13 14  2  0
 13 15  1  0
 14 16  1  0
 15 17  2  0
 15 18  1  0
 16 19  1  0
 16 20  2  0
 17 20  1  0
 18 21  1  0
 21 22  1  0
 22 23  2  0
 22 24  1  0
 24 25  1  0
 24 26  1  0
 25 27  1  0
 26 28  1  0
 27 29  1  0
 28 29  1  0
M  END
