STU-CHA-6d5cfe2b-1-acrylamide
     RDKit          3D

 29 31  0  0  0  0  0  0  0  0999 V2000
    7.3470   -2.8160   18.3000 C   0  0  0  0  0  0  0  0  0  0  0  0
    6.2190   -2.3110   19.1220 C   0  0  0  0  0  0  0  0  0  0  0  0
    5.7910   -3.2370   20.1980 C   0  0  0  0  0  0  0  0  0  0  0  0
    5.2230   -4.3210   20.0050 O   0  0  0  0  0  0  0  0  0  0  0  0
    6.1150   -2.7660   21.4280 N   0  0  0  0  0  0  0  0  0  0  0  0
    6.8720   -1.6070   21.4500 C   0  0  0  0  0  0  0  0  0  0  0  0
    6.1230   -3.5200   22.6160 C   0  0  0  0  0  0  0  0  0  0  0  0
    8.2150   -1.8040   22.1170 C   0  0  0  0  0  0  0  0  0  0  0  0
    7.3510   -3.6180   23.2600 C   0  0  0  0  0  0  0  0  0  0  0  0
    8.0370   -2.3410   23.2940 N   0  0  0  0  0  0  0  0  0  0  0  0
    9.1390   -2.1800   24.2440 C   0  0  0  0  0  0  0  0  0  0  0  0
   10.2670   -1.2680   23.8310 C   0  0  0  0  0  0  0  0  0  0  0  0
   11.1570   -1.9100   22.8440 C   0  0  0  0  0  0  0  0  0  0  0  0
   10.5270    0.0410   24.2630 C   0  0  0  0  0  0  0  0  0  0  0  0
   12.2900   -1.0920   22.3860 C   0  0  0  0  0  0  0  0  0  0  0  0
   11.6340    0.7750   23.7910 C   0  0  0  0  0  0  0  0  0  0  0  0
    9.6700    0.6530   25.1860 C   0  0  0  0  0  0  0  0  0  0  0  0
   13.3010   -1.8220   21.2450 Cl  0  0  0  0  0  0  0  0  0  0  0  0
   12.5070    0.1940   22.8550 C   0  0  0  0  0  0  0  0  0  0  0  0
    8.3050    0.5860   24.9090 N   0  0  0  0  0  0  0  0  0  0  0  0
    7.4800    1.9580   24.4240 S   0  0  0  0  0  0  0  0  0  0  0  0
    8.1010    2.4550   23.2290 O   0  0  0  0  0  0  0  0  0  0  0  0
    7.2750    2.7740   25.5940 O   0  0  0  0  0  0  0  0  0  0  0  0
    5.9960    1.3160   24.0090 N   0  0  0  0  0  0  0  0  0  0  0  0
    5.4160    1.6750   22.7070 C   0  0  0  0  0  0  0  0  0  0  0  0
    5.1670    1.0140   25.0370 C   0  0  0  0  0  0  0  0  0  0  0  0
    4.1130    1.1990   22.5220 C   0  0  0  0  0  0  0  0  0  0  0  0
    4.0140    0.3680   24.6160 C   0  0  0  0  0  0  0  0  0  0  0  0
    3.3320    0.9820   23.6110 O   0  0  0  0  0  0  0  0  0  0  0  0
  1  2  1  0
  2  3  1  0
  3  4  2  0
  3  5  1  0
  5  6  1  0
  5  7  1  0
  6  8  1  0
  7  9  1  0
  8 10  1  0
  9 10  1  0
 10 11  1  0
 11 12  1  0
 12 13  2  0
 12 14  1  0
 13 15  1  0
 14 16  2  0
 14 17  1  0
 15 18  1  0
 15 19  2  0
 16 19  1  0
 17 20  1  0
 21 20  1  0
 21 22  2  0
 21 23  2  0
 21 24  1  0
 24 25  1  0
 24 26  1  0
 25 27  1  0
 26 28  1  0
 27 29  1  0
 28 29  1  0
M  END
