STU-CHA-0f79177c-1-bromoalkyne
     RDKit          3D

 23 25  0  0  0  0  0  0  0  0999 V2000
    6.6020   -3.8590   19.9920 C   0  0  0  0  0  0  0  0  0  0  0  0
    5.7390   -3.5400   18.9880 C   0  0  0  0  0  0  0  0  0  0  0  0
    7.5350   -4.2040   21.0800 N   0  0  0  0  0  0  0  0  0  0  0  0
    7.0630   -4.7060   22.3960 C   0  0  0  0  0  0  0  0  0  0  0  0
    8.2320   -2.9490   21.1380 C   0  0  0  0  0  0  0  0  0  0  0  0
    7.8780   -4.3740   23.5090 C   0  0  0  0  0  0  0  0  0  0  0  0
    9.0970   -2.8230   22.1850 C   0  0  0  0  0  0  0  0  0  0  0  0
    8.4130   -3.0030   23.3530 N   0  0  0  0  0  0  0  0  0  0  0  0
    9.2680   -2.6060   24.3030 C   0  0  0  0  0  0  0  0  0  0  0  0
   10.1680   -1.5830   23.9200 C   0  0  0  0  0  0  0  0  0  0  0  0
   11.3240   -1.8570   23.1570 C   0  0  0  0  0  0  0  0  0  0  0  0
    9.9750   -0.1930   24.2630 C   0  0  0  0  0  0  0  0  0  0  0  0
   12.2170   -0.8990   22.7490 C   0  0  0  0  0  0  0  0  0  0  0  0
   10.8920    0.8040   23.8450 C   0  0  0  0  0  0  0  0  0  0  0  0
    9.1050    0.3490   24.9000 N   0  0  0  0  0  0  0  0  0  0  0  0
   12.0430    0.5620   23.0980 C   0  0  0  0  0  0  0  0  0  0  0  0
   10.5090    1.9970   24.3000 N   0  0  0  0  0  0  0  0  0  0  0  0
    9.2950    1.7140   25.0170 C   0  0  0  0  0  0  0  0  0  0  0  0
    8.5310    2.7260   25.6550 C   0  0  0  0  0  0  0  0  0  0  0  0
    7.0630    1.9740   26.3660 S   0  0  0  0  0  0  0  0  0  0  0  0
    6.4620    3.2340   27.3190 N   0  0  0  0  0  0  0  0  0  0  0  0
    6.1160    1.7810   25.2850 O   0  0  0  0  0  0  0  0  0  0  0  0
    7.4340    0.8700   27.2310 O   0  0  0  0  0  0  0  0  0  0  0  0
  1  2  2  3
  1  3  1  0
  3  4  1  0
  3  5  1  0
  4  6  1  0
  5  7  1  0
  6  8  1  0
  7  8  1  0
  8  9  1  0
  9 10  1  0
 10 11  2  0
 10 12  1  0
 11 13  1  0
 12 14  2  0
 12 15  1  0
 13 16  2  0
 14 16  1  0
 14 17  1  0
 15 18  1  0
 17 18  2  0
 18 19  1  0
 19 20  1  0
 20 21  1  0
 20 22  2  0
 20 23  2  0
M  END
