STU-CHA-814c6126-1-nitrile
     RDKit          3D

 26 28  0  0  0  0  0  0  0  0999 V2000
    7.5380   -3.8740   20.0680 C   0  0  0  0  0  0  0  0  0  0  0  0
    6.3730   -3.8610   19.5190 N   0  0  0  0  0  0  0  0  0  0  0  0
    7.8190   -3.3760   21.2940 N   0  0  0  0  0  0  0  0  0  0  0  0
    7.5800   -4.1650   22.5160 C   0  0  0  0  0  0  0  0  0  0  0  0
    8.6290   -2.2720   21.6100 C   0  0  0  0  0  0  0  0  0  0  0  0
    8.7930   -4.2900   23.4410 C   0  0  0  0  0  0  0  0  0  0  0  0
    8.7900   -1.7320   23.0040 C   0  0  0  0  0  0  0  0  0  0  0  0
    9.2500   -2.8940   23.8830 C   0  0  0  0  0  0  0  0  0  0  0  0
   10.7890   -2.8960   23.9720 C   0  0  0  0  0  0  0  0  0  0  0  0
   11.4440   -1.5950   23.7910 N   0  0  0  0  0  0  0  0  0  0  0  0
   12.2860   -1.3310   22.7220 C   0  0  0  0  0  0  0  0  0  0  0  0
   10.6110   -0.4080   24.1140 C   0  0  0  0  0  0  0  0  0  0  0  0
   13.1920   -0.1170   22.9460 C   0  0  0  0  0  0  0  0  0  0  0  0
   11.2060    0.9540   23.6930 C   0  0  0  0  0  0  0  0  0  0  0  0
   12.4710    1.0650   23.1220 C   0  0  0  0  0  0  0  0  0  0  0  0
   10.5200    2.1870   23.8510 C   0  0  0  0  0  0  0  0  0  0  0  0
   13.0040    2.2980   22.7400 C   0  0  0  0  0  0  0  0  0  0  0  0
   11.0500    3.4320   23.4680 C   0  0  0  0  0  0  0  0  0  0  0  0
   12.3230    3.4920   22.8930 C   0  0  0  0  0  0  0  0  0  0  0  0
   10.0980    4.9280   23.7200 S   0  0  0  0  0  0  0  0  0  0  0  0
   12.9210    4.7000   22.4810 C   0  0  0  0  0  0  0  0  0  0  0  0
   11.2790    6.1220   23.9080 N   0  0  0  0  0  0  0  0  0  0  0  0
    9.3520    5.2180   22.5410 O   0  0  0  0  0  0  0  0  0  0  0  0
    9.3920    4.9220   24.9740 O   0  0  0  0  0  0  0  0  0  0  0  0
   13.6840    4.5020   21.3790 F   0  0  0  0  0  0  0  0  0  0  0  0
   12.0380    5.6560   22.0950 F   0  0  0  0  0  0  0  0  0  0  0  0
  1  2  2  3
  1  3  1  0
  3  4  1  0
  3  5  1  0
  4  6  1  0
  5  7  1  0
  6  8  1  0
  7  8  1  0
  8  9  1  0
  9 10  1  0
 10 11  1  0
 10 12  1  0
 11 13  1  0
 12 14  1  0
 13 15  1  0
 14 15  2  0
 14 16  1  0
 15 17  1  0
 16 18  2  0
 17 19  2  0
 18 19  1  0
 18 20  1  0
 19 21  1  0
 20 22  1  0
 20 23  2  0
 20 24  2  0
 21 25  1  0
 21 26  1  0
M  END
