STU-CHA-09bcc2f6-1-acrylamide
     RDKit          3D

 26 28  0  0  0  0  0  0  0  0999 V2000
    7.1000   -3.2730   19.4030 C   0  0  0  0  0  0  0  0  0  0  0  0
    6.8030   -2.5560   20.7080 C   0  0  0  0  0  0  0  0  0  0  0  0
    5.5130   -3.1120   21.2580 C   0  0  0  0  0  0  0  0  0  0  0  0
    4.6340   -3.4870   22.0200 O   0  0  0  0  0  0  0  0  0  0  0  0
    6.1610   -2.7990   22.4520 N   0  0  0  0  0  0  0  0  0  0  0  0
    6.5050   -1.4390   22.8440 C   0  0  0  0  0  0  0  0  0  0  0  0
    6.8550   -3.5790   23.3830 C   0  0  0  0  0  0  0  0  0  0  0  0
    8.0400   -1.2260   22.8820 C   0  0  0  0  0  0  0  0  0  0  0  0
    8.2220   -3.6540   23.4950 C   0  0  0  0  0  0  0  0  0  0  0  0
    8.8310   -2.3890   23.3820 C   0  0  0  0  0  0  0  0  0  0  0  0
   10.1800   -2.4400   22.5980 C   0  0  0  0  0  0  0  0  0  0  0  0
   11.2160   -1.5630   23.1040 N   0  0  0  0  0  0  0  0  0  0  0  0
   12.4500   -1.4190   22.4450 C   0  0  0  0  0  0  0  0  0  0  0  0
   10.5980   -0.3330   23.2720 C   0  0  0  0  0  0  0  0  0  0  0  0
   13.1850   -0.2190   22.5200 C   0  0  0  0  0  0  0  0  0  0  0  0
   11.2730    0.9870   23.0740 C   0  0  0  0  0  0  0  0  0  0  0  0
   12.5790    1.0180   22.6870 C   0  0  0  0  0  0  0  0  0  0  0  0
   10.5780    2.2870   23.2970 C   0  0  0  0  0  0  0  0  0  0  0  0
   13.2420    2.2600   22.4800 C   0  0  0  0  0  0  0  0  0  0  0  0
   11.2730    3.5910   23.1270 C   0  0  0  0  0  0  0  0  0  0  0  0
   12.6180    3.5260   22.6910 C   0  0  0  0  0  0  0  0  0  0  0  0
   10.3520    5.0600   23.5120 S   0  0  0  0  0  0  0  0  0  0  0  0
   13.3700    4.7230   22.4680 C   0  0  0  0  0  0  0  0  0  0  0  0
   11.3460    6.3740   23.1860 N   0  0  0  0  0  0  0  0  0  0  0  0
    9.1950    5.1260   22.6660 O   0  0  0  0  0  0  0  0  0  0  0  0
   10.1840    5.0580   24.9500 O   0  0  0  0  0  0  0  0  0  0  0  0
  1  2  1  0
  2  3  1  0
  3  4  2  0
  3  5  1  0
  5  6  1  0
  5  7  1  0
  6  8  1  0
  7  9  1  0
  8 10  1  0
  9 10  1  0
 10 11  1  0
 11 12  1  0
 12 13  1  0
 12 14  1  0
 13 15  1  0
 14 16  1  0
 15 17  1  0
 16 17  2  0
 16 18  1  0
 17 19  1  0
 18 20  2  0
 19 21  2  0
 20 21  1  0
 20 22  1  0
 21 23  1  0
 22 24  1  0
 22 25  2  0
 22 26  2  0
M  END
