STU-CHA-128b80be-2-chloroacetamide
     RDKit          3D

 28 30  0  0  0  0  0  0  0  0999 V2000
    7.0740   -2.9930   18.8210 C   0  0  0  0  0  0  0  0  0  0  0  0
    6.1630   -3.4160   19.9370 C   0  0  0  0  0  0  0  0  0  0  0  0
    5.2880   -4.2470   19.7470 O   0  0  0  0  0  0  0  0  0  0  0  0
    6.4090   -2.8200   21.1450 N   0  0  0  0  0  0  0  0  0  0  0  0
    6.2690   -3.5070   22.3590 C   0  0  0  0  0  0  0  0  0  0  0  0
    7.2610   -1.6170   21.1730 C   0  0  0  0  0  0  0  0  0  0  0  0
    7.5100   -3.5400   23.2140 C   0  0  0  0  0  0  0  0  0  0  0  0
    8.4100   -1.8690   21.9050 C   0  0  0  0  0  0  0  0  0  0  0  0
    8.0590   -2.3500   23.2620 N   0  0  0  0  0  0  0  0  0  0  0  0
    9.1170   -2.1410   24.2460 C   0  0  0  0  0  0  0  0  0  0  0  0
   10.2230   -1.1950   23.8540 C   0  0  0  0  0  0  0  0  0  0  0  0
   11.1100   -1.8950   22.8630 C   0  0  0  0  0  0  0  0  0  0  0  0
   10.4330    0.1130   24.2950 C   0  0  0  0  0  0  0  0  0  0  0  0
   12.2850   -1.1150   22.3390 C   0  0  0  0  0  0  0  0  0  0  0  0
   11.5200    0.8180   23.8150 C   0  0  0  0  0  0  0  0  0  0  0  0
    9.5690    0.7270   25.2100 C   0  0  0  0  0  0  0  0  0  0  0  0
   13.3170   -1.8270   21.2090 Cl  0  0  0  0  0  0  0  0  0  0  0  0
   12.4240    0.2940   22.8980 C   0  0  0  0  0  0  0  0  0  0  0  0
    8.2710    0.5390   24.9440 N   0  0  0  0  0  0  0  0  0  0  0  0
    7.4730    1.9210   24.4450 S   0  0  0  0  0  0  0  0  0  0  0  0
    7.2190    2.7380   25.6000 O   0  0  0  0  0  0  0  0  0  0  0  0
    8.1440    2.4110   23.2700 O   0  0  0  0  0  0  0  0  0  0  0  0
    6.0040    1.2740   23.9830 N   0  0  0  0  0  0  0  0  0  0  0  0
    5.4250    1.7660   22.7300 C   0  0  0  0  0  0  0  0  0  0  0  0
    5.1830    1.0150   25.0250 C   0  0  0  0  0  0  0  0  0  0  0  0
    4.1800    1.1380   22.5440 C   0  0  0  0  0  0  0  0  0  0  0  0
    4.0160    0.3820   24.6210 C   0  0  0  0  0  0  0  0  0  0  0  0
    3.3490    1.0060   23.6120 O   0  0  0  0  0  0  0  0  0  0  0  0
  1  2  1  0
  2  3  2  0
  2  4  1  0
  4  5  1  0
  4  6  1  0
  5  7  1  0
  6  8  1  0
  7  9  1  0
  8  9  1  0
  9 10  1  0
 10 11  1  0
 11 12  2  0
 11 13  1  0
 12 14  1  0
 13 15  2  0
 13 16  1  0
 14 17  1  0
 14 18  2  0
 15 18  1  0
 16 19  1  0
 20 19  1  0
 20 21  2  0
 20 22  2  0
 20 23  1  0
 23 24  1  0
 23 25  1  0
 24 26  1  0
 25 27  1  0
 26 28  1  0
 27 28  1  0
M  END
