STU-CHA-6d5cfe2b-1-nitrile
     RDKit          3D

 27 29  0  0  0  0  0  0  0  0999 V2000
    6.5380   -3.7590   19.8950 C   0  0  0  0  0  0  0  0  0  0  0  0
    5.5970   -3.4090   19.1190 N   0  0  0  0  0  0  0  0  0  0  0  0
    6.3850   -3.1200   21.0660 N   0  0  0  0  0  0  0  0  0  0  0  0
    6.6650   -1.8030   21.2580 C   0  0  0  0  0  0  0  0  0  0  0  0
    6.4350   -3.8730   22.3270 C   0  0  0  0  0  0  0  0  0  0  0  0
    7.9670   -1.6130   22.0030 C   0  0  0  0  0  0  0  0  0  0  0  0
    7.6690   -3.6560   22.9310 C   0  0  0  0  0  0  0  0  0  0  0  0
    7.9440   -2.2960   23.1750 N   0  0  0  0  0  0  0  0  0  0  0  0
    8.8580   -2.1070   24.1460 C   0  0  0  0  0  0  0  0  0  0  0  0
   10.0540   -1.2200   23.8050 C   0  0  0  0  0  0  0  0  0  0  0  0
   10.9510   -1.9240   22.8270 C   0  0  0  0  0  0  0  0  0  0  0  0
   10.3060    0.0600   24.3000 C   0  0  0  0  0  0  0  0  0  0  0  0
   12.2000   -1.2200   22.3450 C   0  0  0  0  0  0  0  0  0  0  0  0
   11.4470    0.7570   23.8980 C   0  0  0  0  0  0  0  0  0  0  0  0
    9.3610    0.6340   25.2220 C   0  0  0  0  0  0  0  0  0  0  0  0
   13.2210   -1.9720   21.2340 Cl  0  0  0  0  0  0  0  0  0  0  0  0
   12.4710    0.1860   22.9100 C   0  0  0  0  0  0  0  0  0  0  0  0
    8.1010    0.7140   24.6860 N   0  0  0  0  0  0  0  0  0  0  0  0
    7.7300    2.1600   23.9270 S   0  0  0  0  0  0  0  0  0  0  0  0
    8.2680    3.1940   24.7660 O   0  0  0  0  0  0  0  0  0  0  0  0
    8.0730    2.0360   22.5340 O   0  0  0  0  0  0  0  0  0  0  0  0
    6.0590    2.1390   24.0770 N   0  0  0  0  0  0  0  0  0  0  0  0
    5.2360    2.8400   23.0980 C   0  0  0  0  0  0  0  0  0  0  0  0
    5.4710    1.5400   25.1760 C   0  0  0  0  0  0  0  0  0  0  0  0
    4.1140    2.0770   22.7600 C   0  0  0  0  0  0  0  0  0  0  0  0
    4.2080    1.0750   24.7940 C   0  0  0  0  0  0  0  0  0  0  0  0
    3.4780    1.7670   23.7770 O   0  0  0  0  0  0  0  0  0  0  0  0
  1  2  2  3
  1  3  1  0
  3  4  1  0
  3  5  1  0
  4  6  1  0
  5  7  1  0
  6  8  1  0
  7  8  1  0
  8  9  1  0
  9 10  1  0
 10 11  2  0
 10 12  1  0
 11 13  1  0
 12 14  2  0
 12 15  1  0
 13 16  1  0
 13 17  2  0
 14 17  1  0
 15 18  1  0
 19 18  1  0
 19 20  2  0
 19 21  2  0
 19 22  1  0
 22 23  1  0
 22 24  1  0
 23 25  1  0
 24 26  1  0
 25 27  1  0
 26 27  1  0
M  END
