STU-CHA-814c6126-1-vinylsulfonamide
     RDKit          3D

 29 31  0  0  0  0  0  0  0  0999 V2000
    7.1530   -4.5030   20.6030 C   0  0  0  0  0  0  0  0  0  0  0  0
    5.7030   -4.1840   20.8260 C   0  0  0  0  0  0  0  0  0  0  0  0
    5.3940   -3.8280   22.5190 S   0  0  0  0  0  0  0  0  0  0  0  0
    3.9660   -3.8850   22.6260 O   0  0  0  0  0  0  0  0  0  0  0  0
    6.2670   -4.6140   23.3660 O   0  0  0  0  0  0  0  0  0  0  0  0
    5.8920   -2.2110   22.6150 N   0  0  0  0  0  0  0  0  0  0  0  0
    6.3950   -1.8380   23.9490 C   0  0  0  0  0  0  0  0  0  0  0  0
    6.7810   -1.7320   21.6090 C   0  0  0  0  0  0  0  0  0  0  0  0
    7.9010   -2.0540   24.1510 C   0  0  0  0  0  0  0  0  0  0  0  0
    8.1700   -1.9180   21.5640 C   0  0  0  0  0  0  0  0  0  0  0  0
    8.6660   -1.5130   22.9400 C   0  0  0  0  0  0  0  0  0  0  0  0
   10.1080   -1.7530   23.1060 C   0  0  0  0  0  0  0  0  0  0  0  0
   11.1580   -1.5210   23.5160 N   0  0  0  0  0  0  0  0  0  0  0  0
   12.3390   -1.3920   22.7290 C   0  0  0  0  0  0  0  0  0  0  0  0
   10.8700   -0.3470   24.3560 C   0  0  0  0  0  0  0  0  0  0  0  0
   13.1460   -0.2430   22.8720 C   0  0  0  0  0  0  0  0  0  0  0  0
   11.3750    0.9510   23.7570 C   0  0  0  0  0  0  0  0  0  0  0  0
   12.5270    0.9940   23.0130 C   0  0  0  0  0  0  0  0  0  0  0  0
   10.7060    2.3190   23.8820 C   0  0  0  0  0  0  0  0  0  0  0  0
   12.9820    2.2080   22.4640 C   0  0  0  0  0  0  0  0  0  0  0  0
   11.1670    3.5060   23.3240 C   0  0  0  0  0  0  0  0  0  0  0  0
   12.3630    3.4800   22.5720 C   0  0  0  0  0  0  0  0  0  0  0  0
   10.2210    5.0100   23.5670 S   0  0  0  0  0  0  0  0  0  0  0  0
   12.8950    4.6200   21.9660 C   0  0  0  0  0  0  0  0  0  0  0  0
   11.2680    6.2820   23.2290 N   0  0  0  0  0  0  0  0  0  0  0  0
    9.8790    5.2330   24.9400 O   0  0  0  0  0  0  0  0  0  0  0  0
    9.1620    5.0250   22.5980 O   0  0  0  0  0  0  0  0  0  0  0  0
   13.4520    5.4400   22.8840 F   0  0  0  0  0  0  0  0  0  0  0  0
   13.9000    4.3230   21.1090 F   0  0  0  0  0  0  0  0  0  0  0  0
  1  2  1  0
  3  2  1  0
  3  4  2  0
  3  5  2  0
  3  6  1  0
  6  7  1  0
  6  8  1  0
  7  9  1  0
  8 10  1  0
  9 11  1  0
 10 11  1  0
 11 12  1  0
 12 13  1  0
 13 14  1  0
 13 15  1  0
 14 16  1  0
 15 17  1  0
 16 18  1  0
 17 18  2  0
 17 19  1  0
 18 20  1  0
 19 21  2  0
 20 22  2  0
 21 22  1  0
 21 23  1  0
 22 24  1  0
 23 25  1  0
 23 26  2  0
 23 27  2  0
 24 28  1  0
 24 29  1  0
M  END
