STU-CHA-6cae54d3-1-acrylamide
     RDKit          3D

 28 30  0  0  0  0  0  0  0  0999 V2000
    7.6650   -2.6680   18.6120 C   0  0  0  0  0  0  0  0  0  0  0  0
    6.1920   -2.7590   18.7980 C   0  0  0  0  0  0  0  0  0  0  0  0
    5.8380   -3.4440   20.0520 C   0  0  0  0  0  0  0  0  0  0  0  0
    5.2140   -4.4990   20.0030 O   0  0  0  0  0  0  0  0  0  0  0  0
    6.2580   -2.8310   21.2070 N   0  0  0  0  0  0  0  0  0  0  0  0
    7.0970   -1.6070   21.2010 C   0  0  0  0  0  0  0  0  0  0  0  0
    6.0620   -3.4420   22.5190 C   0  0  0  0  0  0  0  0  0  0  0  0
    8.3310   -1.7290   21.8680 C   0  0  0  0  0  0  0  0  0  0  0  0
    7.3460   -3.4960   23.3480 C   0  0  0  0  0  0  0  0  0  0  0  0
    8.0850   -2.2390   23.2480 N   0  0  0  0  0  0  0  0  0  0  0  0
    9.1110   -2.0110   24.2300 C   0  0  0  0  0  0  0  0  0  0  0  0
   10.1820   -1.2590   23.7950 C   0  0  0  0  0  0  0  0  0  0  0  0
   11.1220   -1.8500   22.8130 C   0  0  0  0  0  0  0  0  0  0  0  0
   10.4670    0.0590   24.2220 C   0  0  0  0  0  0  0  0  0  0  0  0
   12.2360   -1.1860   22.3200 C   0  0  0  0  0  0  0  0  0  0  0  0
   11.6000    0.7520   23.7370 C   0  0  0  0  0  0  0  0  0  0  0  0
    9.5550    0.7310   25.2030 C   0  0  0  0  0  0  0  0  0  0  0  0
   13.2640   -1.9040   21.1960 Cl  0  0  0  0  0  0  0  0  0  0  0  0
   12.4910    0.1960   22.8200 C   0  0  0  0  0  0  0  0  0  0  0  0
    8.1480    0.6010   24.8920 N   0  0  0  0  0  0  0  0  0  0  0  0
    7.5170    1.4820   24.0610 C   0  0  0  0  0  0  0  0  0  0  0  0
    8.0740    2.4920   23.6340 O   0  0  0  0  0  0  0  0  0  0  0  0
    6.1370    1.1480   23.7070 N   0  0  0  0  0  0  0  0  0  0  0  0
    5.3240    0.9360   24.9020 C   0  0  0  0  0  0  0  0  0  0  0  0
    5.4540    1.7820   22.7730 C   0  0  0  0  0  0  0  0  0  0  0  0
    3.9930    0.5500   24.7410 C   0  0  0  0  0  0  0  0  0  0  0  0
    4.2810    1.0190   22.5950 C   0  0  0  0  0  0  0  0  0  0  0  0
    3.4270    0.9730   23.7450 O   0  0  0  0  0  0  0  0  0  0  0  0
  1  2  1  0
  2  3  1  0
  3  4  2  0
  3  5  1  0
  5  6  1  0
  5  7  1  0
  6  8  1  0
  7  9  1  0
  8 10  1  0
  9 10  1  0
 10 11  1  0
 11 12  1  0
 12 13  2  0
 12 14  1  0
 13 15  1  0
 14 16  2  0
 14 17  1  0
 15 18  1  0
 15 19  2  0
 16 19  1  0
 17 20  1  0
 20 21  1  0
 21 22  2  0
 21 23  1  0
 23 24  1  0
 23 25  1  0
 24 26  1  0
 25 27  1  0
 26 28  1  0
 27 28  1  0
M  END
