STU-CHA-0be58c98-1-acrylamide
     RDKit          3D

 22 23  0  0  0  0  0  0  0  0999 V2000
    8.0260   -3.0220   18.6960 C   0  0  0  0  0  0  0  0  0  0  0  0
    6.5140   -2.9220   18.8100 C   0  0  0  0  0  0  0  0  0  0  0  0
    5.9310   -3.4090   20.0680 C   0  0  0  0  0  0  0  0  0  0  0  0
    5.2400   -4.4300   20.0640 O   0  0  0  0  0  0  0  0  0  0  0  0
    6.2240   -2.5940   21.1590 N   0  0  0  0  0  0  0  0  0  0  0  0
    7.0920   -1.5230   21.0770 C   0  0  0  0  0  0  0  0  0  0  0  0
    6.0390   -3.1010   22.5100 C   0  0  0  0  0  0  0  0  0  0  0  0
    8.4260   -1.5690   21.8370 C   0  0  0  0  0  0  0  0  0  0  0  0
    7.3890   -3.3160   23.2470 C   0  0  2  0  0  0  0  0  0  0  0  0
    8.3290   -2.1530   23.2000 N   0  0  0  0  0  0  0  0  0  0  0  0
    8.0470   -4.6040   22.7710 C   0  0  0  0  0  0  0  0  0  0  0  0
    9.6730   -2.4860   23.7000 C   0  0  0  0  0  0  0  0  0  0  0  0
    8.1400   -5.5890   23.7210 C   0  0  0  0  0  0  0  0  0  0  0  0
   10.6080   -1.4710   23.5370 C   0  0  0  0  0  0  0  0  0  0  0  0
    9.3110   -6.2740   23.7170 N   0  0  0  0  0  0  0  0  0  0  0  0
    7.2530   -5.8260   24.5200 O   0  0  0  0  0  0  0  0  0  0  0  0
   11.8950   -1.7770   23.1020 C   0  0  0  0  0  0  0  0  0  0  0  0
   10.2550   -0.1250   23.8050 C   0  0  0  0  0  0  0  0  0  0  0  0
   12.9070   -0.8600   22.8950 C   0  0  0  0  0  0  0  0  0  0  0  0
   11.1680    0.9310   23.6370 C   0  0  0  0  0  0  0  0  0  0  0  0
   12.5790    0.6070   23.1650 C   0  0  0  0  0  0  0  0  0  0  0  0
   10.7730    2.2420   23.8940 C   0  0  0  0  0  0  0  0  0  0  0  0
  1  2  1  0
  2  3  1  0
  3  4  2  0
  3  5  1  0
  5  6  1  0
  5  7  1  0
  6  8  1  0
  7  9  1  0
  8 10  1  0
  9 10  1  0
  9 11  1  6
 10 12  1  0
 11 13  1  0
 12 14  1  0
 13 15  1  0
 13 16  2  0
 14 17  2  0
 14 18  1  0
 17 19  1  0
 18 20  2  0
 19 21  2  0
 20 21  1  0
 20 22  1  0
M  END
