SUG-SAT-424020ef-1
     RDKit          3D

 11 11  0  0  0  0  0  0  0  0999 V2000
    0.4270    2.0940   20.4310 C   0  0  0  0  0  0  0  0  0  0  0  0
    1.7460    2.0820   20.6580 C   0  0  0  0  0  0  0  0  0  0  0  0
    2.7240    3.0490   19.9870 C   0  0  0  0  0  0  0  0  0  0  0  0
    2.4980    4.4540   19.9050 N   0  0  0  0  0  0  0  0  0  0  0  0
    3.9900    2.7780   19.3420 N   0  0  0  0  0  0  0  0  0  0  0  0
    4.7000    1.6200   19.1230 C   0  0  0  0  0  0  0  0  0  0  0  0
    4.8220    0.5360   20.1980 C   0  0  0  0  0  0  0  0  0  0  0  0
    5.3600    1.3430   17.9520 C   0  0  0  0  0  0  0  0  0  0  0  0
    5.6050   -0.6460   19.8970 N   0  0  0  0  0  0  0  0  0  0  0  0
    6.0890    0.2300   17.6980 N   0  0  0  0  0  0  0  0  0  0  0  0
    6.1940   -0.7160   18.6470 C   0  0  0  0  0  0  0  0  0  0  0  0
  1  2  1  0
  2  3  1  0
  3  4  1  0
  3  5  2  3
  5  6  1  0
  6  7  2  0
  6  8  1  0
  7  9  1  0
  8 10  2  0
  9 11  2  0
 10 11  1  0
M  END
