SUG-SAT-424020ef-2
     RDKit          3D

 11 11  0  0  0  0  0  0  0  0999 V2000
    3.5690    3.5830   18.5660 N   0  0  0  0  0  0  0  0  0  0  0  0
    4.2680    2.9230   17.9000 C   0  0  0  0  0  0  0  0  0  0  0  0
    4.3990    3.6510   16.7530 N   0  0  0  0  0  0  0  0  0  0  0  0
    5.0180    1.8710   17.5790 C   0  0  0  0  0  0  0  0  0  0  0  0
    5.4680    0.9030   18.5510 C   0  0  0  0  0  0  0  0  0  0  0  0
    6.6490    0.1700   18.1340 N   0  0  0  0  0  0  0  0  0  0  0  0
    4.7690    0.7520   19.7210 C   0  0  0  0  0  0  0  0  0  0  0  0
    6.9900   -0.7820   19.1900 C   0  0  0  0  0  0  0  0  0  0  0  0
    5.3730   -0.3260   20.6110 C   0  0  0  0  0  0  0  0  0  0  0  0
    3.6310    1.5020   20.0490 N   0  0  0  0  0  0  0  0  0  0  0  0
    6.3100   -0.9700   20.3870 N   0  0  0  0  0  0  0  0  0  0  0  0
  1  2  2  3
  2  3  1  0
  2  4  1  0
  4  5  1  0
  5  6  2  0
  5  7  1  0
  6  8  1  0
  7  9  2  0
  7 10  1  0
  8 11  2  0
  9 11  1  0
M  END
