SUN-DEP-1496052a-1
     RDKit          3D

 11 11  0  0  0  0  0  0  0  0999 V2000
   13.3350    0.6380   22.5320 C   0  0  0  0  0  0  0  0  0  0  0  0
   12.3780   -0.1720   23.2460 C   0  0  0  0  0  0  0  0  0  0  0  0
   11.4680    0.2160   24.1800 C   0  0  0  0  0  0  0  0  0  0  0  0
   12.4380   -1.6060   22.8250 C   0  0  0  0  0  0  0  0  0  0  0  0
   10.6440   -0.7520   24.6400 C   0  0  0  0  0  0  0  0  0  0  0  0
   11.1950   -2.2360   22.8820 C   0  0  0  0  0  0  0  0  0  0  0  0
   10.1080   -1.3280   23.5080 C   0  0  1  0  0  0  0  0  0  0  0  0
    8.8650   -1.9230   23.5790 C   0  0  0  0  0  0  0  0  0  0  0  0
    7.8310   -1.3110   24.5140 C   0  0  0  0  0  0  0  0  0  0  0  0
    8.9930   -3.3890   23.9660 C   0  0  0  0  0  0  0  0  0  0  0  0
    8.2870   -1.9000   22.2730 O   0  0  0  0  0  0  0  0  0  0  0  0
  1  2  1  0
  2  3  2  0
  2  4  1  0
  3  5  1  0
  4  6  1  0
  5  7  1  0
  6  7  1  0
  7  8  1  1
  8  9  1  0
  8 10  1  0
  8 11  1  0
M  END
