SUN-DEP-1496052a-2
     RDKit          3D

 11 11  0  0  0  0  0  0  0  0999 V2000
   13.0560    1.4250   22.9160 C   0  0  0  0  0  0  0  0  0  0  0  0
   12.3930    0.1670   23.2540 C   0  0  0  0  0  0  0  0  0  0  0  0
   11.4330    0.1990   24.1330 C   0  0  0  0  0  0  0  0  0  0  0  0
   12.7940   -1.1050   22.5680 C   0  0  0  0  0  0  0  0  0  0  0  0
   10.6800   -1.0040   24.4650 C   0  0  0  0  0  0  0  0  0  0  0  0
   11.6060   -2.0480   22.3900 C   0  0  0  0  0  0  0  0  0  0  0  0
   10.3050   -1.6300   23.1190 C   0  0  2  0  0  0  0  0  0  0  0  0
    9.7740   -0.5390   22.3260 O   0  0  0  0  0  0  0  0  0  0  0  0
    9.1840   -2.7000   23.1470 C   0  0  0  0  0  0  0  0  0  0  0  0
    7.7660   -2.2270   22.8400 C   0  0  0  0  0  0  0  0  0  0  0  0
    9.1850   -3.4980   24.4600 C   0  0  0  0  0  0  0  0  0  0  0  0
  1  2  1  0
  2  3  2  0
  2  4  1  0
  3  5  1  0
  4  6  1  0
  5  7  1  0
  6  7  1  0
  7  8  1  6
  7  9  1  0
  9 10  1  0
  9 11  1  0
M  END
