TAM-UNI-d1c3dd9f-1-nitrile
     RDKit          3D

 27 29  0  0  0  0  0  0  0  0999 V2000
    7.4400   -3.9840   20.1910 C   0  0  0  0  0  0  0  0  0  0  0  0
    6.2120   -4.3040   19.8750 N   0  0  0  0  0  0  0  0  0  0  0  0
    7.9640   -3.8270   21.4830 N   0  0  0  0  0  0  0  0  0  0  0  0
    9.0540   -2.8330   21.7390 C   0  0  0  0  0  0  0  0  0  0  0  0
    7.0750   -3.9250   22.5360 C   0  0  0  0  0  0  0  0  0  0  0  0
    9.5820   -2.8400   23.1770 C   0  0  0  0  0  0  0  0  0  0  0  0
    7.7680   -4.0530   23.7450 C   0  0  0  0  0  0  0  0  0  0  0  0
    8.5230   -2.9610   24.1750 N   0  0  0  0  0  0  0  0  0  0  0  0
    7.9120   -1.6390   24.4230 C   0  0  0  0  0  0  0  0  0  0  0  0
    6.5560   -1.6910   25.1440 C   0  0  0  0  0  0  0  0  0  0  0  0
    6.4570   -2.5140   26.4240 C   0  0  0  0  0  0  0  0  0  0  0  0
    5.2670   -0.9150   24.5980 C   0  0  0  0  0  0  0  0  0  0  0  0
    5.2870   -2.6500   27.1910 C   0  0  0  0  0  0  0  0  0  0  0  0
    4.1960   -1.1440   25.4510 C   0  0  0  0  0  0  0  0  0  0  0  0
    5.3150   -0.0500   23.2980 C   0  0  0  0  0  0  0  0  0  0  0  0
    5.3450   -3.4370   28.3490 C   0  0  0  0  0  0  0  0  0  0  0  0
    4.1980   -1.9200   26.6140 C   0  0  0  0  0  0  0  0  0  0  0  0
    5.8770   -0.7650   22.2860 N   0  0  0  0  0  0  0  0  0  0  0  0
    5.4090   -2.5530   29.5220 N   0  0  0  0  0  0  0  0  0  0  0  0
    5.2090   -1.5590   21.3760 C   0  0  0  0  0  0  0  0  0  0  0  0
    4.7220   -2.6790   21.6670 O   0  0  0  0  0  0  0  0  0  0  0  0
    5.1510   -1.1070   20.2810 N   0  0  0  0  0  0  0  0  0  0  0  0
    4.7220    0.1650   20.0850 C   0  0  0  0  0  0  0  0  0  0  0  0
    6.0540   -1.4810   19.2000 C   0  0  0  0  0  0  0  0  0  0  0  0
    5.0870    0.7890   18.7070 C   0  0  0  0  0  0  0  0  0  0  0  0
    6.9120   -0.4140   18.9790 C   0  0  0  0  0  0  0  0  0  0  0  0
    6.3550    0.4600   18.2920 O   0  0  0  0  0  0  0  0  0  0  0  0
  1  2  2  3
  1  3  1  0
  3  4  1  0
  3  5  1  0
  4  6  1  0
  5  7  1  0
  6  8  1  0
  7  8  1  0
  8  9  1  0
  9 10  1  0
 10 11  2  0
 10 12  1  0
 11 13  1  0
 12 14  2  0
 12 15  1  0
 13 16  1  0
 13 17  2  0
 14 17  1  0
 15 18  1  0
 16 19  3  0
 18 20  1  0
 20 21  2  0
 20 22  1  0
 22 23  1  0
 22 24  1  0
 23 25  1  0
 24 26  1  0
 25 27  1  0
 26 27  1  0
M  END
