TAM-UNI-d1c3dd9f-15-vinylsulfonamide
     RDKit          3D

 24 26  0  0  0  0  0  0  0  0999 V2000
    7.3630   -2.8090   18.1490 C   0  0  0  0  0  0  0  0  0  0  0  0
    6.3550   -2.2380   19.1420 C   0  0  0  0  0  0  0  0  0  0  0  0
    5.8260   -3.3640   20.4040 S   0  0  0  0  0  0  0  0  0  0  0  0
    4.7070   -2.8980   21.1270 O   0  0  0  0  0  0  0  0  0  0  0  0
    5.7190   -4.7030   19.8890 O   0  0  0  0  0  0  0  0  0  0  0  0
    7.0560   -3.0940   21.4790 N   0  0  0  0  0  0  0  0  0  0  0  0
    6.8260   -3.4430   22.8890 C   0  0  0  0  0  0  0  0  0  0  0  0
    7.7030   -1.7590   21.3780 C   0  0  0  0  0  0  0  0  0  0  0  0
    8.1840   -3.4890   23.6060 C   0  0  0  0  0  0  0  0  0  0  0  0
    9.0770   -1.8590   22.0090 C   0  0  0  0  0  0  0  0  0  0  0  0
    8.9890   -2.2470   23.4300 N   0  0  0  0  0  0  0  0  0  0  0  0
   10.3870   -2.3770   23.8780 C   0  0  0  0  0  0  0  0  0  0  0  0
   11.0830   -1.2070   23.6350 C   0  0  0  0  0  0  0  0  0  0  0  0
   12.3750   -1.2790   23.1280 C   0  0  0  0  0  0  0  0  0  0  0  0
   10.4990    0.0790   23.8810 C   0  0  0  0  0  0  0  0  0  0  0  0
   13.0890   -0.1190   22.8590 C   0  0  0  0  0  0  0  0  0  0  0  0
   11.2310    1.2470   23.5910 C   0  0  0  0  0  0  0  0  0  0  0  0
    9.0990    0.1790   24.4350 C   0  0  0  0  0  0  0  0  0  0  0  0
   12.5280    1.1190   23.0850 C   0  0  0  0  0  0  0  0  0  0  0  0
    8.7770   -0.2560   25.5360 O   0  0  0  0  0  0  0  0  0  0  0  0
    8.1510    0.8240   23.6660 N   0  0  0  0  0  0  0  0  0  0  0  0
   10.7180    2.6680   23.7670 C   0  0  0  0  0  0  0  0  0  0  0  0
    8.2570    2.2570   23.5620 C   0  0  0  0  0  0  0  0  0  0  0  0
    9.3610    2.8200   24.4300 C   0  0  0  0  0  0  0  0  0  0  0  0
  1  2  1  0
  3  2  1  0
  3  4  2  0
  3  5  2  0
  3  6  1  0
  6  7  1  0
  6  8  1  0
  7  9  1  0
  8 10  1  0
  9 11  1  0
 10 11  1  0
 11 12  1  0
 12 13  1  0
 13 14  2  0
 13 15  1  0
 14 16  1  0
 15 17  2  0
 15 18  1  0
 16 19  2  0
 17 19  1  0
 18 20  2  0
 18 21  1  0
 17 22  1  0
 21 23  1  0
 22 24  1  0
 23 24  1  0
M  END
