TAM-UNI-c140e31a-22
     RDKit          3D

 33 36  0  0  0  0  0  0  0  0999 V2000
    9.0380    6.6870   22.5980 C   0  0  0  0  0  0  0  0  0  0  0  0
   10.1490    6.2590   23.3390 C   0  0  0  0  0  0  0  0  0  0  0  0
   10.2000    6.3220   24.5680 O   0  0  0  0  0  0  0  0  0  0  0  0
   11.2020    5.7510   22.5000 N   0  0  0  0  0  0  0  0  0  0  0  0
   12.5530    5.5270   22.9510 C   0  0  0  0  0  0  0  0  0  0  0  0
   12.9450    4.0510   22.8960 C   0  0  0  0  0  0  0  0  0  0  0  0
   11.9760    2.8740   22.9670 C   0  0  0  0  0  0  0  0  0  0  0  0
   10.5180    3.0730   23.2030 C   0  0  0  0  0  0  0  0  0  0  0  0
   12.0850    1.4390   22.8310 C   0  0  0  0  0  0  0  0  0  0  0  0
    9.9040    1.8840   23.1670 N   0  0  0  0  0  0  0  0  0  0  0  0
   10.7750    0.9470   22.9420 C   0  0  0  0  0  0  0  0  0  0  0  0
   13.0690    0.5420   22.6210 C   0  0  0  0  0  0  0  0  0  0  0  0
   10.3220   -0.4370   22.8250 C   0  0  0  0  0  0  0  0  0  0  0  0
   12.7500   -0.9570   22.4760 C   0  0  0  0  0  0  0  0  0  0  0  0
    8.9760   -0.6960   22.9220 C   0  0  2  0  0  0  0  0  0  0  0  0
   11.3080   -1.3670   22.5900 C   0  0  0  0  0  0  0  0  0  0  0  0
   13.6710   -1.8660   22.2510 F   0  0  0  0  0  0  0  0  0  0  0  0
    8.6390   -2.1040   22.6980 N   0  0  0  0  0  0  0  0  0  0  0  0
    8.3890   -0.0260   21.8420 C   0  0  0  0  0  0  0  0  0  0  0  0
    8.6370   -3.0430   23.8540 C   0  0  0  0  0  0  0  0  0  0  0  0
    8.8270    1.0650   21.4460 O   0  0  0  0  0  0  0  0  0  0  0  0
    7.3370   -0.6840   21.2700 N   0  0  0  0  0  0  0  0  0  0  0  0
    9.3050   -4.2360   23.6390 C   0  0  0  0  0  0  0  0  0  0  0  0
    8.0460   -2.8690   25.1170 C   0  0  0  0  0  0  0  0  0  0  0  0
    6.5560    0.0090   20.2670 C   0  0  0  0  0  0  0  0  0  0  0  0
    9.3500   -5.2080   24.7150 C   0  0  0  0  0  0  0  0  0  0  0  0
    8.0790   -3.7820   26.1470 N   0  0  0  0  0  0  0  0  0  0  0  0
    7.0590   -0.0990   18.8510 C   0  0  0  0  0  0  0  0  0  0  0  0
    5.3900    0.7670   20.4780 C   0  0  0  0  0  0  0  0  0  0  0  0
    8.7380   -4.9320   25.9050 C   0  0  0  0  0  0  0  0  0  0  0  0
    6.0130    0.7360   18.1710 C   0  0  0  0  0  0  0  0  0  0  0  0
    4.7010    1.4490   19.2430 C   0  0  0  0  0  0  0  0  0  0  0  0
    5.0870    1.3760   18.1430 N   0  0  0  0  0  0  0  0  0  0  0  0
  1  2  1  0
  2  3  2  0
  2  4  1  0
  4  5  1  0
  5  6  1  0
  6  7  1  0
  7  8  2  0
  7  9  1  0
  8 10  1  0
  9 11  2  0
 10 11  1  0
  9 12  1  0
 11 13  1  0
 12 14  2  0
 13 15  1  0
 13 16  2  0
 14 16  1  0
 14 17  1  0
 15 18  1  6
 15 19  1  0
 18 20  1  0
 19 21  2  0
 19 22  1  0
 20 23  2  0
 20 24  1  0
 22 25  1  0
 23 26  1  0
 24 27  2  0
 25 28  2  0
 25 29  1  0
 26 30  2  0
 27 30  1  0
 28 31  1  0
 29 32  2  0
 31 33  2  0
 32 33  1  0
M  END
