TAM-UNI-c140e31a-20
     RDKit          3D

 26 28  0  0  0  0  0  0  0  0999 V2000
   10.6430    6.4830   23.5200 C   0  0  0  0  0  0  0  0  0  0  0  0
   11.8060    5.5930   22.5140 S   0  0  0  0  0  0  0  0  0  0  0  0
   11.1170    4.4490   21.9970 O   0  0  0  0  0  0  0  0  0  0  0  0
   12.6320    6.4470   21.7290 O   0  0  0  0  0  0  0  0  0  0  0  0
   12.8860    4.8600   23.4780 N   0  0  0  0  0  0  0  0  0  0  0  0
   13.0040    3.6350   22.8370 C   0  0  0  0  0  0  0  0  0  0  0  0
   11.9240    2.6100   23.0780 C   0  0  0  0  0  0  0  0  0  0  0  0
   10.5160    2.8980   23.5420 C   0  0  0  0  0  0  0  0  0  0  0  0
   11.9380    1.1590   22.9130 C   0  0  0  0  0  0  0  0  0  0  0  0
    9.7800    1.7090   23.5980 N   0  0  0  0  0  0  0  0  0  0  0  0
   10.6600    0.6680   23.1950 C   0  0  0  0  0  0  0  0  0  0  0  0
   12.9340    0.1110   22.5170 C   0  0  0  0  0  0  0  0  0  0  0  0
   10.2300   -0.7220   23.0920 C   0  0  0  0  0  0  0  0  0  0  0  0
   12.6230   -1.2020   22.4130 C   0  0  0  0  0  0  0  0  0  0  0  0
    8.8020   -1.0080   23.3740 C   0  0  0  0  0  0  0  0  0  0  0  0
   11.1890   -1.6530   22.7120 C   0  0  0  0  0  0  0  0  0  0  0  0
   13.5190   -2.0950   22.0500 F   0  0  0  0  0  0  0  0  0  0  0  0
    8.0130   -0.8240   22.1090 C   0  0  0  0  0  0  0  0  0  0  0  0
    8.5130    0.2000   21.6090 O   0  0  0  0  0  0  0  0  0  0  0  0
    7.0590   -1.2140   21.2420 N   0  0  0  0  0  0  0  0  0  0  0  0
    6.5460   -0.2960   20.3520 C   0  0  0  0  0  0  0  0  0  0  0  0
    5.4380    0.5210   20.6680 C   0  0  0  0  0  0  0  0  0  0  0  0
    7.1050   -0.0810   18.9330 C   0  0  0  0  0  0  0  0  0  0  0  0
    4.8620    1.4580   19.8160 C   0  0  0  0  0  0  0  0  0  0  0  0
    6.4410    0.8930   18.1950 C   0  0  0  0  0  0  0  0  0  0  0  0
    5.4140    1.6040   18.5830 N   0  0  0  0  0  0  0  0  0  0  0  0
  1  2  1  0
  2  3  2  0
  2  4  2  0
  2  5  1  0
  5  6  1  0
  6  7  1  0
  7  8  2  0
  7  9  1  0
  8 10  1  0
  9 11  2  0
 10 11  1  0
  9 12  1  0
 11 13  1  0
 12 14  2  0
 13 15  1  0
 13 16  2  0
 14 16  1  0
 14 17  1  0
 15 18  1  0
 18 19  2  0
 18 20  1  0
 20 21  1  0
 21 22  2  0
 21 23  1  0
 22 24  1  0
 23 25  2  0
 24 26  2  0
 25 26  1  0
M  END
