TAM-UNI-c140e31a-3
     RDKit          3D

 27 29  0  0  0  0  0  0  0  0999 V2000
   13.0560    5.9880   22.3410 C   0  0  0  0  0  0  0  0  0  0  0  0
   12.0580    5.0020   22.3460 C   0  0  0  0  0  0  0  0  0  0  0  0
   10.9490    5.2080   22.8440 O   0  0  0  0  0  0  0  0  0  0  0  0
   12.4800    3.7600   21.7300 N   0  0  0  0  0  0  0  0  0  0  0  0
   13.8770    3.4090   21.7910 C   0  0  0  0  0  0  0  0  0  0  0  0
   14.2770    1.8980   21.8250 C   0  0  0  0  0  0  0  0  0  0  0  0
   13.3970    0.7230   22.1960 C   0  0  0  0  0  0  0  0  0  0  0  0
   13.4600   -0.7430   21.9240 C   0  0  0  0  0  0  0  0  0  0  0  0
   12.2970    0.9540   22.8810 C   0  0  0  0  0  0  0  0  0  0  0  0
   12.3950   -1.2390   22.4840 N   0  0  0  0  0  0  0  0  0  0  0  0
   11.7240   -0.2650   23.0190 C   0  0  0  0  0  0  0  0  0  0  0  0
   11.6600    2.1870   23.4270 C   0  0  0  0  0  0  0  0  0  0  0  0
   10.5190   -0.6200   23.6290 C   0  0  0  0  0  0  0  0  0  0  0  0
   10.4390    1.9980   24.0610 C   0  0  0  0  0  0  0  0  0  0  0  0
    9.6660   -1.4810   23.9510 N   0  0  0  0  0  0  0  0  0  0  0  0
    9.9680    0.5780   24.1120 C   0  0  0  0  0  0  0  0  0  0  0  0
    9.7100    2.9890   24.5820 F   0  0  0  0  0  0  0  0  0  0  0  0
    8.5020   -1.3020   23.2190 C   0  0  0  0  0  0  0  0  0  0  0  0
    8.3270   -0.2300   22.3030 C   0  0  0  0  0  0  0  0  0  0  0  0
    9.4060   -0.1860   21.7080 O   0  0  0  0  0  0  0  0  0  0  0  0
    7.7190    0.6290   21.8000 N   0  0  0  0  0  0  0  0  0  0  0  0
    6.9420    0.6500   20.5950 C   0  0  0  0  0  0  0  0  0  0  0  0
    5.7780    1.5160   20.3820 C   0  0  0  0  0  0  0  0  0  0  0  0
    7.1480   -0.1850   19.3100 C   0  0  0  0  0  0  0  0  0  0  0  0
    5.0320    1.5530   19.2210 C   0  0  0  0  0  0  0  0  0  0  0  0
    6.3690   -0.1060   18.1630 N   0  0  0  0  0  0  0  0  0  0  0  0
    5.3210    0.7670   18.1480 C   0  0  0  0  0  0  0  0  0  0  0  0
  1  2  1  0
  2  3  2  0
  2  4  1  0
  4  5  1  0
  5  6  1  0
  6  7  1  0
  7  8  2  0
  7  9  1  0
  8 10  1  0
  9 11  2  0
 10 11  1  0
  9 12  1  0
 11 13  1  0
 12 14  2  0
 13 15  1  0
 13 16  2  0
 14 16  1  0
 14 17  1  0
 15 18  1  0
 18 19  1  0
 19 20  2  0
 19 21  1  0
 21 22  1  0
 22 23  2  0
 22 24  1  0
 23 25  1  0
 24 26  2  0
 25 27  2  0
 26 27  1  0
M  END
