TAM-UNI-d1c3dd9f-3-vinylsulfonamide
     RDKit          3D

 29 32  0  0  0  0  0  0  0  0999 V2000
    7.7420   -2.9840   18.2720 C   0  0  0  0  0  0  0  0  0  0  0  0
    7.2710   -2.3220   19.4860 C   0  0  0  0  0  0  0  0  0  0  0  0
    6.4300   -3.4760   20.5350 S   0  0  0  0  0  0  0  0  0  0  0  0
    5.0910   -3.6150   20.0530 O   0  0  0  0  0  0  0  0  0  0  0  0
    7.1820   -4.6100   21.0720 O   0  0  0  0  0  0  0  0  0  0  0  0
    6.5180   -2.4020   21.7790 N   0  0  0  0  0  0  0  0  0  0  0  0
    5.9120   -2.9390   22.9810 C   0  0  0  0  0  0  0  0  0  0  0  0
    7.9300   -1.9600   21.7820 C   0  0  0  0  0  0  0  0  0  0  0  0
    6.9500   -3.4960   23.9140 C   0  0  0  0  0  0  0  0  0  0  0  0
    8.4080   -1.6640   23.1910 C   0  0  1  0  0  0  0  0  0  0  0  0
    6.5350   -4.7350   24.6950 C   0  0  0  0  0  0  0  0  0  0  0  0
    8.1870   -2.9030   24.0450 C   0  0  0  0  0  0  0  0  0  0  0  0
    9.6510   -1.0530   23.0530 C   0  0  0  0  0  0  0  0  0  0  0  0
    7.5390   -5.3410   25.6700 C   0  0  0  0  0  0  0  0  0  0  0  0
    9.1140   -3.4450   24.9310 C   0  0  0  0  0  0  0  0  0  0  0  0
   10.8930   -1.6300   22.8410 C   0  0  0  0  0  0  0  0  0  0  0  0
    9.5850    0.3500   23.1480 C   0  0  0  0  0  0  0  0  0  0  0  0
    8.8410   -4.5780   25.6990 C   0  0  0  0  0  0  0  0  0  0  0  0
   12.1040   -0.7930   22.7470 C   0  0  0  0  0  0  0  0  0  0  0  0
   10.6950    1.2010   23.0530 C   0  0  0  0  0  0  0  0  0  0  0  0
   12.0150    0.6750   22.8620 C   0  0  0  0  0  0  0  0  0  0  0  0
   10.4680    2.5880   23.1540 C   0  0  0  0  0  0  0  0  0  0  0  0
   13.0440    1.5020   22.7940 C   0  0  0  0  0  0  0  0  0  0  0  0
   11.5140    3.4890   23.0770 C   0  0  0  0  0  0  0  0  0  0  0  0
   12.7840    3.0000   22.9000 C   0  0  0  0  0  0  0  0  0  0  0  0
   11.3900    5.2190   23.1950 S   0  0  0  0  0  0  0  0  0  0  0  0
    9.7860    5.4740   22.7640 N   0  0  0  0  0  0  0  0  0  0  0  0
   12.2060    5.8370   22.1760 O   0  0  0  0  0  0  0  0  0  0  0  0
   11.5050    5.5870   24.5930 O   0  0  0  0  0  0  0  0  0  0  0  0
  1  2  1  0
  3  2  1  0
  3  4  2  0
  3  5  2  0
  3  6  1  0
  6  7  1  0
  6  8  1  0
  7  9  1  0
  8 10  1  0
  9 11  1  0
  9 12  2  0
 10 12  1  0
 10 13  1  6
 11 14  2  0
 12 15  1  0
 13 16  2  0
 13 17  1  0
 14 18  1  0
 15 18  2  0
 16 19  1  0
 17 20  2  0
 19 21  2  0
 20 21  1  0
 20 22  1  0
 21 23  1  0
 22 24  2  0
 23 25  2  0
 24 25  1  0
 24 26  1  0
 26 27  1  0
 26 28  2  0
 26 29  2  0
M  END
