TAM-UNI-d1c3dd9f-12-chloroacetamide
     RDKit          3D

 26 28  0  0  0  0  0  0  0  0999 V2000
    7.5430   -3.0140   18.8140 C   0  0  0  0  0  0  0  0  0  0  0  0
    6.5050   -3.2600   19.9100 C   0  0  0  0  0  0  0  0  0  0  0  0
    5.5500   -4.0380   19.7180 O   0  0  0  0  0  0  0  0  0  0  0  0
    6.6590   -2.6050   21.1170 N   0  0  0  0  0  0  0  0  0  0  0  0
    6.5680   -3.4190   22.3310 C   0  0  0  0  0  0  0  0  0  0  0  0
    7.4780   -1.3980   21.2710 C   0  0  0  0  0  0  0  0  0  0  0  0
    7.9460   -3.7080   22.9580 C   0  0  0  0  0  0  0  0  0  0  0  0
    8.8570   -1.7460   21.8460 C   0  0  0  0  0  0  0  0  0  0  0  0
    8.8180   -2.5280   23.0940 N   0  0  0  0  0  0  0  0  0  0  0  0
   10.2040   -2.8340   23.4690 C   0  0  0  0  0  0  0  0  0  0  0  0
   11.0180   -1.5740   23.4060 C   0  0  0  0  0  0  0  0  0  0  0  0
   12.3440   -1.5400   22.9660 C   0  0  0  0  0  0  0  0  0  0  0  0
   10.4050   -0.3850   23.7930 C   0  0  0  0  0  0  0  0  0  0  0  0
   13.0240   -0.3290   22.9160 C   0  0  0  0  0  0  0  0  0  0  0  0
   11.0710    0.8280   23.7420 C   0  0  0  0  0  0  0  0  0  0  0  0
   12.3980    0.8550   23.3000 C   0  0  0  0  0  0  0  0  0  0  0  0
   10.3250    2.0680   24.1530 C   0  0  0  0  0  0  0  0  0  0  0  0
    9.3610    1.7600   25.2110 N   0  0  0  0  0  0  0  0  0  0  0  0
    8.0760    1.3430   24.9880 C   0  0  0  0  0  0  0  0  0  0  0  0
    7.3820    1.8140   24.0870 O   0  0  0  0  0  0  0  0  0  0  0  0
    7.6080    0.3560   25.8620 N   0  0  0  0  0  0  0  0  0  0  0  0
    7.1530   -0.9130   25.2800 C   0  0  0  0  0  0  0  0  0  0  0  0
    7.8830    0.3020   27.3060 C   0  0  0  0  0  0  0  0  0  0  0  0
    6.1160   -1.6480   26.1430 C   0  0  0  0  0  0  0  0  0  0  0  0
    6.9150   -0.6050   28.0730 C   0  0  0  0  0  0  0  0  0  0  0  0
    5.7480   -0.8840   27.3000 O   0  0  0  0  0  0  0  0  0  0  0  0
  1  2  1  0
  2  3  2  0
  2  4  1  0
  4  5  1  0
  4  6  1  0
  5  7  1  0
  6  8  1  0
  7  9  1  0
  8  9  1  0
  9 10  1  0
 10 11  1  0
 11 12  2  0
 11 13  1  0
 12 14  1  0
 13 15  2  0
 14 16  2  0
 15 16  1  0
 15 17  1  0
 17 18  1  0
 18 19  1  0
 19 20  2  0
 19 21  1  0
 21 22  1  0
 21 23  1  0
 22 24  1  0
 23 25  1  0
 24 26  1  0
 25 26  1  0
M  END
