TAM-UNI-d1c3dd9f-18-bromoalkyne
     RDKit          3D

 21 22  0  0  0  0  0  0  0  0999 V2000
    6.5100   -3.8130   19.9230 C   0  0  0  0  0  0  0  0  0  0  0  0
    6.1770   -2.9240   18.7290 C   0  0  0  0  0  0  0  0  0  0  0  0
    7.0400   -3.1790   20.9680 N   0  0  0  0  0  0  0  0  0  0  0  0
    7.5400   -1.8240   20.8960 C   0  0  0  0  0  0  0  0  0  0  0  0
    6.5310   -3.4470   22.3090 C   0  0  0  0  0  0  0  0  0  0  0  0
    8.6710   -1.6910   21.8750 C   0  0  0  0  0  0  0  0  0  0  0  0
    7.5570   -3.3740   23.2500 C   0  0  0  0  0  0  0  0  0  0  0  0
    8.2720   -2.0750   23.2340 N   0  0  0  0  0  0  0  0  0  0  0  0
    9.4420   -2.0870   24.1060 C   0  0  0  0  0  0  0  0  0  0  0  0
   10.3720   -0.8960   23.8950 C   0  0  0  0  0  0  0  0  0  0  0  0
    9.8360    0.4450   24.1190 C   0  0  0  0  0  0  0  0  0  0  0  0
   11.7150   -0.9950   23.4920 C   0  0  0  0  0  0  0  0  0  0  0  0
   10.6960    1.5650   23.9150 C   0  0  0  0  0  0  0  0  0  0  0  0
   12.4900    0.1290   23.3210 C   0  0  0  0  0  0  0  0  0  0  0  0
   12.3380   -2.1850   23.2260 N   0  0  0  0  0  0  0  0  0  0  0  0
   10.0780    2.9690   24.1570 C   0  0  0  0  0  0  0  0  0  0  0  0
   11.9950    1.3900   23.5250 C   0  0  0  0  0  0  0  0  0  0  0  0
   13.0260   -1.8340   22.0540 C   0  0  0  0  0  0  0  0  0  0  0  0
    8.6060    2.9960   24.2800 N   0  0  0  0  0  0  0  0  0  0  0  0
   13.1980   -2.6080   20.9700 C   0  0  0  0  0  0  0  0  0  0  0  0
   13.6260   -0.5980   21.7450 O   0  0  0  0  0  0  0  0  0  0  0  0
  1  2  2  3
  1  3  1  0
  3  4  1  0
  3  5  1  0
  4  6  1  0
  5  7  1  0
  6  8  1  0
  7  8  1  0
  8  9  1  0
  9 10  1  0
 10 11  2  0
 10 12  1  0
 11 13  1  0
 12 14  2  0
 12 15  1  0
 13 16  1  0
 13 17  2  0
 14 17  1  0
 15 18  1  0
 16 19  3  0
 18 20  1  0
 18 21  2  0
M  END
