TAM-UNI-c140e31a-9
     RDKit          3D

 29 32  0  0  0  0  0  0  0  0999 V2000
    6.3650   -4.3470   24.4590 N   0  0  0  0  0  0  0  0  0  0  0  0
    6.6060   -2.6830   24.5420 S   0  0  0  0  0  0  0  0  0  0  0  0
    6.7560   -2.4010   25.9500 O   0  0  0  0  0  0  0  0  0  0  0  0
    5.5460   -2.1090   23.7520 O   0  0  0  0  0  0  0  0  0  0  0  0
    8.1510   -2.4820   23.6950 C   0  0  0  0  0  0  0  0  0  0  0  0
    8.2420   -3.0100   22.4070 C   0  0  0  0  0  0  0  0  0  0  0  0
    9.2820   -1.8160   24.2650 C   0  0  0  0  0  0  0  0  0  0  0  0
    9.5890   -2.8130   21.7570 C   0  0  0  0  0  0  0  0  0  0  0  0
   10.5740   -1.6260   23.6540 C   0  0  0  0  0  0  0  0  0  0  0  0
   10.7610   -2.1220   22.4070 C   0  0  0  0  0  0  0  0  0  0  0  0
   11.6290   -0.8910   24.4100 C   0  0  0  0  0  0  0  0  0  0  0  0
   11.7610    0.3820   23.8600 N   0  0  0  0  0  0  0  0  0  0  0  0
   12.0900   -2.0080   21.6770 C   0  0  0  0  0  0  0  0  0  0  0  0
   10.6440    1.3290   23.5670 C   0  0  0  0  0  0  0  0  0  0  0  0
   12.7230    0.3510   22.7780 C   0  0  0  0  0  0  0  0  0  0  0  0
   13.1260   -0.9680   22.1410 C   0  0  0  0  0  0  0  0  0  0  0  0
    9.4500    0.6470   23.2090 C   0  0  0  0  0  0  0  0  0  0  0  0
    8.6860    0.1260   24.2860 O   0  0  0  0  0  0  0  0  0  0  0  0
    9.0520    0.5760   21.7870 N   0  0  0  0  0  0  0  0  0  0  0  0
    8.1410   -0.5410   21.3660 C   0  0  0  0  0  0  0  0  0  0  0  0
    7.2680   -0.1890   20.3250 C   0  0  0  0  0  0  0  0  0  0  0  0
    7.3680   -0.6030   18.9570 C   0  0  0  0  0  0  0  0  0  0  0  0
    6.1090    0.6120   20.2600 C   0  0  0  0  0  0  0  0  0  0  0  0
    6.4240   -0.1020   18.2060 N   0  0  0  0  0  0  0  0  0  0  0  0
    5.5930    0.6640   18.9400 C   0  0  0  0  0  0  0  0  0  0  0  0
    5.3170    1.4090   21.2610 C   0  0  0  0  0  0  0  0  0  0  0  0
    4.4800    1.3660   18.5630 N   0  0  0  0  0  0  0  0  0  0  0  0
    4.2080    2.1090   20.9190 C   0  0  0  0  0  0  0  0  0  0  0  0
    3.7550    2.0850   19.4500 C   0  0  0  0  0  0  0  0  0  0  0  0
  2  1  1  0
  2  3  2  0
  2  4  2  0
  2  5  1  0
  5  6  2  0
  5  7  1  0
  6  8  1  0
  7  9  2  0
  8 10  2  0
  9 10  1  0
  9 11  1  0
 11 12  1  0
 10 13  1  0
 12 14  1  0
 12 15  1  0
 13 16  1  0
 15 16  1  0
 14 17  1  0
 17 18  2  0
 17 19  1  0
 19 20  1  0
 20 21  1  0
 21 22  2  0
 21 23  1  0
 22 24  1  0
 23 25  2  0
 24 25  1  0
 23 26  1  0
 25 27  1  0
 26 28  2  0
 27 29  2  0
 28 29  1  0
M  END
