TAM-UNI-c140e31a-12
     RDKit          3D

 24 26  0  0  0  0  0  0  0  0999 V2000
   14.6490   -5.5650   20.7220 N   0  0  0  0  0  0  0  0  0  0  0  0
   13.7580   -4.2410   20.2680 S   0  0  0  0  0  0  0  0  0  0  0  0
   14.7030   -3.4130   19.7900 O   0  0  0  0  0  0  0  0  0  0  0  0
   12.6960   -4.6420   19.4000 O   0  0  0  0  0  0  0  0  0  0  0  0
   12.9630   -3.2790   21.4580 C   0  0  0  0  0  0  0  0  0  0  0  0
   11.7900   -2.9530   20.8990 C   0  0  0  0  0  0  0  0  0  0  0  0
   13.3090   -2.8570   22.7390 C   0  0  0  0  0  0  0  0  0  0  0  0
   10.8430   -2.0940   21.6730 C   0  0  0  0  0  0  0  0  0  0  0  0
   12.4370   -2.0570   23.5140 C   0  0  0  0  0  0  0  0  0  0  0  0
   11.2260   -1.6600   23.0090 C   0  0  0  0  0  0  0  0  0  0  0  0
   12.8760   -1.6880   24.8370 C   0  0  0  0  0  0  0  0  0  0  0  0
   12.3270   -0.3610   25.0970 C   0  0  0  0  0  0  0  0  0  0  0  0
   10.3160   -0.8270   23.7600 N   0  0  0  0  0  0  0  0  0  0  0  0
   10.9030   -0.2710   24.9580 C   0  0  0  0  0  0  0  0  0  0  0  0
    9.0160   -0.2940   23.2710 C   0  0  0  0  0  0  0  0  0  0  0  0
    8.8260    0.3200   22.0090 C   0  0  0  0  0  0  0  0  0  0  0  0
    9.3130    1.4390   21.7330 O   0  0  0  0  0  0  0  0  0  0  0  0
    8.0220   -0.3800   21.0900 N   0  0  0  0  0  0  0  0  0  0  0  0
    7.0810    0.1890   20.1980 C   0  0  0  0  0  0  0  0  0  0  0  0
    6.3440    1.3350   20.5460 C   0  0  0  0  0  0  0  0  0  0  0  0
    6.8440   -0.3580   18.9320 C   0  0  0  0  0  0  0  0  0  0  0  0
    5.4190    1.9250   19.7130 C   0  0  0  0  0  0  0  0  0  0  0  0
    5.9600    0.1140   17.9930 N   0  0  0  0  0  0  0  0  0  0  0  0
    5.2380    1.3090   18.4460 C   0  0  0  0  0  0  0  0  0  0  0  0
  2  1  1  0
  2  3  2  0
  2  4  2  0
  2  5  1  0
  5  6  2  0
  5  7  1  0
  6  8  1  0
  7  9  2  0
  8 10  2  0
  9 10  1  0
  9 11  1  0
 11 12  1  0
 10 13  1  0
 12 14  1  0
 13 14  1  0
 13 15  1  0
 15 16  1  0
 16 17  2  0
 16 18  1  0
 18 19  1  0
 19 20  2  0
 19 21  1  0
 20 22  1  0
 21 23  2  0
 22 24  2  0
 23 24  1  0
M  END
