TAM-UNI-d1c3dd9f-14-vinylsulfonamide
     RDKit          3D

 24 26  0  0  0  0  0  0  0  0999 V2000
    7.9830   -3.3210   19.1120 C   0  0  0  0  0  0  0  0  0  0  0  0
    6.8490   -2.4470   18.6370 C   0  0  0  0  0  0  0  0  0  0  0  0
    5.6540   -2.4420   19.8990 S   0  0  0  0  0  0  0  0  0  0  0  0
    4.9800   -3.7010   19.7560 O   0  0  0  0  0  0  0  0  0  0  0  0
    4.9330   -1.2300   19.7840 O   0  0  0  0  0  0  0  0  0  0  0  0
    6.6200   -2.3460   21.2660 N   0  0  0  0  0  0  0  0  0  0  0  0
    6.4030   -3.1860   22.4520 C   0  0  0  0  0  0  0  0  0  0  0  0
    7.7320   -1.3670   21.3230 C   0  0  0  0  0  0  0  0  0  0  0  0
    7.4590   -2.9730   23.5560 C   0  0  0  0  0  0  0  0  0  0  0  0
    8.9990   -2.0600   21.8260 C   0  0  0  0  0  0  0  0  0  0  0  0
    8.8420   -2.8220   23.0830 N   0  0  0  0  0  0  0  0  0  0  0  0
    9.8000   -2.3740   24.1100 C   0  0  0  0  0  0  0  0  0  0  0  0
   10.7070   -1.3780   23.7760 C   0  0  0  0  0  0  0  0  0  0  0  0
   12.0170   -1.6960   23.3670 C   0  0  0  0  0  0  0  0  0  0  0  0
   10.3410    0.1250   23.8280 C   0  0  0  0  0  0  0  0  0  0  0  0
   12.9200   -0.6910   23.0280 C   0  0  0  0  0  0  0  0  0  0  0  0
   11.3200    1.0970   23.4570 C   0  0  0  0  0  0  0  0  0  0  0  0
    9.0060    0.4130   24.2510 C   0  0  0  0  0  0  0  0  0  0  0  0
   12.5770    0.6450   23.0750 C   0  0  0  0  0  0  0  0  0  0  0  0
    8.2190    1.3940   23.6470 C   0  0  0  0  0  0  0  0  0  0  0  0
   11.0600    2.5930   23.4410 C   0  0  0  0  0  0  0  0  0  0  0  0
    7.1270    1.1710   23.1210 O   0  0  0  0  0  0  0  0  0  0  0  0
    8.6820    2.6590   23.6500 N   0  0  0  0  0  0  0  0  0  0  0  0
    9.9630    2.9890   24.1960 C   0  0  0  0  0  0  0  0  0  0  0  0
  1  2  1  0
  3  2  1  0
  3  4  2  0
  3  5  2  0
  3  6  1  0
  6  7  1  0
  6  8  1  0
  7  9  1  0
  8 10  1  0
  9 11  1  0
 10 11  1  0
 11 12  1  0
 12 13  1  0
 13 14  2  0
 13 15  1  0
 14 16  1  0
 15 17  2  0
 15 18  1  0
 16 19  2  0
 17 19  1  0
 18 20  1  0
 17 21  1  0
 20 22  2  0
 20 23  1  0
 21 24  1  0
 23 24  1  0
M  END
