TAM-UNI-d1c3dd9f-11-bromoalkyne
     RDKit          3D

 29 32  0  0  0  0  0  0  0  0999 V2000
    7.5380   -3.6010   19.8150 C   0  0  0  0  0  0  0  0  0  0  0  0
    6.3770   -3.4280   19.2000 C   0  0  0  0  0  0  0  0  0  0  0  0
    7.7490   -3.6210   21.1620 N   0  0  0  0  0  0  0  0  0  0  0  0
    6.7930   -3.7740   22.2640 C   0  0  0  0  0  0  0  0  0  0  0  0
    8.6340   -2.5780   21.5640 C   0  0  0  0  0  0  0  0  0  0  0  0
    7.5430   -4.2130   23.3670 C   0  0  0  0  0  0  0  0  0  0  0  0
    9.6950   -3.1110   22.5060 C   0  0  2  0  0  0  0  0  0  0  0  0
    6.9190   -4.9560   24.3770 C   0  0  0  0  0  0  0  0  0  0  0  0
    8.9350   -3.9390   23.5190 C   0  0  0  0  0  0  0  0  0  0  0  0
   10.2000   -1.8940   22.6600 C   0  0  0  0  0  0  0  0  0  0  0  0
    7.6420   -5.4110   25.4800 C   0  0  0  0  0  0  0  0  0  0  0  0
    9.6220   -4.4150   24.6120 C   0  0  0  0  0  0  0  0  0  0  0  0
    9.0690   -1.1420   22.9400 C   0  0  0  0  0  0  0  0  0  0  0  0
   11.4650   -1.3950   22.5750 C   0  0  0  0  0  0  0  0  0  0  0  0
    8.9990   -5.1470   25.6000 C   0  0  0  0  0  0  0  0  0  0  0  0
    9.2030    0.1610   23.1290 C   0  0  0  0  0  0  0  0  0  0  0  0
   11.5110   -0.0420   22.7860 C   0  0  0  0  0  0  0  0  0  0  0  0
   10.4410    0.7570   23.0520 C   0  0  0  0  0  0  0  0  0  0  0  0
   12.5460    0.7210   22.7700 N   0  0  0  0  0  0  0  0  0  0  0  0
   10.9330    2.0870   23.1860 C   0  0  0  0  0  0  0  0  0  0  0  0
   12.2810    2.0090   23.0020 C   0  0  0  0  0  0  0  0  0  0  0  0
   13.7380    0.1410   22.5260 C   0  0  0  0  0  0  0  0  0  0  0  0
   10.1540    3.3170   23.4820 C   0  0  0  0  0  0  0  0  0  0  0  0
   11.0160    4.5350   23.8330 C   0  0  0  0  0  0  0  0  0  0  0  0
   10.3880    5.8820   23.4700 C   0  0  0  0  0  0  0  0  0  0  0  0
    9.8340    6.5430   24.6400 N   0  0  0  0  0  0  0  0  0  0  0  0
   10.4440    6.4090   25.8680 C   0  0  0  0  0  0  0  0  0  0  0  0
   11.9290    6.6620   25.8510 C   0  0  0  0  0  0  0  0  0  0  0  0
    9.8560    6.1140   26.9030 O   0  0  0  0  0  0  0  0  0  0  0  0
  1  2  2  3
  1  3  1  0
  3  4  1  0
  3  5  1  0
  4  6  1  0
  5  7  1  0
  6  8  1  0
  6  9  2  0
  7  9  1  0
  7 10  1  1
  8 11  2  0
  9 12  1  0
 10 13  2  0
 10 14  1  0
 11 15  1  0
 12 15  2  0
 13 16  1  0
 14 17  2  0
 16 18  2  0
 17 18  1  0
 17 19  1  0
 18 20  1  0
 19 21  1  0
 20 21  2  0
 19 22  1  0
 20 23  1  0
 23 24  1  0
 24 25  1  0
 25 26  1  0
 26 27  1  0
 27 28  1  0
 27 29  2  0
M  END
