TAM-UNI-c140e31a-21
     RDKit          3D

 32 35  0  0  0  0  0  0  0  0999 V2000
   10.7630    5.7940   22.6460 C   0  0  0  0  0  0  0  0  0  0  0  0
   12.4170    5.7320   23.2230 S   0  0  0  0  0  0  0  0  0  0  0  0
   13.1790    6.6250   22.3850 O   0  0  0  0  0  0  0  0  0  0  0  0
   12.2960    5.8930   24.6520 O   0  0  0  0  0  0  0  0  0  0  0  0
   12.9710    4.0550   22.9080 C   0  0  0  0  0  0  0  0  0  0  0  0
   11.7960    3.0540   23.0220 C   0  0  0  0  0  0  0  0  0  0  0  0
   10.3010    3.1870   23.2680 C   0  0  0  0  0  0  0  0  0  0  0  0
   11.9180    1.5040   22.8600 C   0  0  0  0  0  0  0  0  0  0  0  0
    9.7530    1.9480   23.2000 N   0  0  0  0  0  0  0  0  0  0  0  0
   10.6560    0.9180   22.9440 C   0  0  0  0  0  0  0  0  0  0  0  0
   13.1440    0.6500   22.6230 C   0  0  0  0  0  0  0  0  0  0  0  0
   10.3520   -0.5300   22.7780 C   0  0  0  0  0  0  0  0  0  0  0  0
   12.8330   -0.8590   22.4500 C   0  0  0  0  0  0  0  0  0  0  0  0
    8.9660   -1.0430   22.8350 C   0  0  1  0  0  0  0  0  0  0  0  0
   11.4020   -1.3660   22.5360 C   0  0  0  0  0  0  0  0  0  0  0  0
   13.7550   -1.7510   22.2180 F   0  0  0  0  0  0  0  0  0  0  0  0
    8.2010   -1.1310   24.0000 N   0  0  0  0  0  0  0  0  0  0  0  0
    8.2930   -0.1650   21.7540 C   0  0  0  0  0  0  0  0  0  0  0  0
    8.1020   -2.4230   24.7170 C   0  0  0  0  0  0  0  0  0  0  0  0
    8.7250    0.9510   21.4440 O   0  0  0  0  0  0  0  0  0  0  0  0
    7.1420   -0.8180   21.1480 N   0  0  0  0  0  0  0  0  0  0  0  0
    8.2080   -3.6090   23.9400 C   0  0  0  0  0  0  0  0  0  0  0  0
    7.8950   -2.5980   26.2420 C   0  0  0  0  0  0  0  0  0  0  0  0
    6.5230   -0.1080   20.2120 C   0  0  0  0  0  0  0  0  0  0  0  0
    8.1360   -4.8860   24.4970 C   0  0  0  0  0  0  0  0  0  0  0  0
    7.8220   -3.9350   26.7940 N   0  0  0  0  0  0  0  0  0  0  0  0
    5.2980    0.5580   20.5320 C   0  0  0  0  0  0  0  0  0  0  0  0
    6.9870    0.1060   18.7360 C   0  0  0  0  0  0  0  0  0  0  0  0
    7.9540   -5.0360   25.8530 C   0  0  0  0  0  0  0  0  0  0  0  0
    4.5690    1.3710   19.5240 C   0  0  0  0  0  0  0  0  0  0  0  0
    6.1430    0.9210   17.9630 C   0  0  0  0  0  0  0  0  0  0  0  0
    4.9410    1.5720   18.2840 N   0  0  0  0  0  0  0  0  0  0  0  0
  2  1  1  0
  2  3  2  0
  2  4  2  0
  2  5  1  0
  5  6  1  0
  6  7  2  0
  6  8  1  0
  7  9  1  0
  8 10  2  0
  9 10  1  0
  8 11  1  0
 10 12  1  0
 11 13  2  0
 12 14  1  0
 12 15  2  0
 13 15  1  0
 13 16  1  0
 14 17  1  1
 14 18  1  0
 17 19  1  0
 18 20  2  0
 18 21  1  0
 19 22  2  0
 19 23  1  0
 21 24  1  0
 22 25  1  0
 23 26  2  0
 24 27  2  0
 24 28  1  0
 25 29  2  0
 26 29  1  0
 27 30  1  0
 28 31  2  0
 30 32  2  0
 31 32  1  0
M  END
