TAM-UNI-d1c3dd9f-3-bromoalkyne
     RDKit          3D

 26 29  0  0  0  0  0  0  0  0999 V2000
    7.0510   -3.5080   19.8940 C   0  0  0  0  0  0  0  0  0  0  0  0
    6.3000   -2.7930   18.7930 C   0  0  0  0  0  0  0  0  0  0  0  0
    6.8140   -3.0770   21.2240 N   0  0  0  0  0  0  0  0  0  0  0  0
    5.9880   -3.7330   22.2450 C   0  0  0  0  0  0  0  0  0  0  0  0
    7.4730   -1.8170   21.6570 C   0  0  0  0  0  0  0  0  0  0  0  0
    6.8650   -3.9570   23.4500 C   0  0  0  0  0  0  0  0  0  0  0  0
    7.5610   -1.6270   23.2160 C   0  0  1  0  0  0  0  0  0  0  0  0
    6.8160   -5.3410   24.0760 C   0  0  0  0  0  0  0  0  0  0  0  0
    7.6460   -2.9520   23.9210 C   0  0  0  0  0  0  0  0  0  0  0  0
    8.6030   -0.7920   23.4400 C   0  0  0  0  0  0  0  0  0  0  0  0
    7.7300   -5.5500   25.3040 C   0  0  0  0  0  0  0  0  0  0  0  0
    8.4770   -3.1560   25.0200 C   0  0  0  0  0  0  0  0  0  0  0  0
    8.6910    0.4000   24.1470 C   0  0  0  0  0  0  0  0  0  0  0  0
    9.6860   -1.2490   22.8600 C   0  0  0  0  0  0  0  0  0  0  0  0
    8.5370   -4.3580   25.6830 C   0  0  0  0  0  0  0  0  0  0  0  0
    9.9670    1.1570   24.2350 C   0  0  0  0  0  0  0  0  0  0  0  0
   10.8210   -0.6040   22.9210 C   0  0  0  0  0  0  0  0  0  0  0  0
   11.1460    0.6080   23.5510 C   0  0  0  0  0  0  0  0  0  0  0  0
   11.5650   -1.3330   22.2660 C   0  0  0  0  0  0  0  0  0  0  0  0
   12.3910    1.0750   23.4510 C   0  0  0  0  0  0  0  0  0  0  0  0
   12.7350   -0.9890   22.1190 C   0  0  0  0  0  0  0  0  0  0  0  0
   13.2950    0.1630   22.6330 C   0  0  0  0  0  0  0  0  0  0  0  0
   13.3830   -2.2000   21.1860 S   0  0  0  0  0  0  0  0  0  0  0  0
   11.9950   -2.7870   20.4890 N   0  0  0  0  0  0  0  0  0  0  0  0
   13.6910   -3.2480   22.1160 O   0  0  0  0  0  0  0  0  0  0  0  0
   14.2020   -1.5060   20.2340 O   0  0  0  0  0  0  0  0  0  0  0  0
  1  2  2  3
  1  3  1  0
  3  4  1  0
  3  5  1  0
  4  6  1  0
  5  7  1  0
  6  8  1  0
  6  9  2  0
  7  9  1  0
  7 10  1  6
  8 11  2  0
  9 12  1  0
 10 13  2  0
 10 14  1  0
 11 15  1  0
 12 15  2  0
 13 16  1  0
 14 17  2  0
 16 18  2  0
 17 18  1  0
 17 19  1  0
 18 20  1  0
 19 21  2  0
 20 22  2  0
 21 22  1  0
 21 23  1  0
 23 24  1  0
 23 25  2  0
 23 26  2  0
M  END
