THO-SYG-4e0386bb-3-vinylsulfonamide
     RDKit          3D

 24 26  0  0  0  0  0  0  0  0999 V2000
    7.2250   -3.1190   18.8210 C   0  0  0  0  0  0  0  0  0  0  0  0
    5.9790   -3.6050   19.5810 C   0  0  0  0  0  0  0  0  0  0  0  0
    6.2130   -3.7460   21.2930 S   0  0  0  0  0  0  0  0  0  0  0  0
    4.9240   -3.9730   21.8960 O   0  0  0  0  0  0  0  0  0  0  0  0
    7.2770   -4.6780   21.5870 O   0  0  0  0  0  0  0  0  0  0  0  0
    6.6970   -2.2480   21.7380 N   0  0  0  0  0  0  0  0  0  0  0  0
    8.0970   -2.2310   22.1180 C   0  0  0  0  0  0  0  0  0  0  0  0
    5.8900   -1.8840   22.9510 C   0  0  0  0  0  0  0  0  0  0  0  0
    7.7950   -2.5060   23.5050 C   0  0  0  0  0  0  0  0  0  0  0  0
    6.6860   -1.8980   24.3040 C   0  0  0  0  0  0  0  0  0  0  0  0
    8.9430   -3.2460   23.6000 C   0  0  0  0  0  0  0  0  0  0  0  0
    7.7500   -2.9180   24.7490 C   0  0  0  0  0  0  0  0  0  0  0  0
    6.3920   -0.8560   25.3270 C   0  0  0  0  0  0  0  0  0  0  0  0
    9.2590   -3.8490   24.8460 C   0  0  0  0  0  0  0  0  0  0  0  0
    7.2780   -3.0470   26.0290 C   0  0  0  0  0  0  0  0  0  0  0  0
    5.2000   -0.6290   25.9010 N   0  0  0  0  0  0  0  0  0  0  0  0
    7.3750    0.0280   25.7970 C   0  0  0  0  0  0  0  0  0  0  0  0
   10.5130   -4.5710   24.9270 C   0  0  0  0  0  0  0  0  0  0  0  0
    8.4660   -3.7830   26.0130 C   0  0  0  0  0  0  0  0  0  0  0  0
    5.4210    0.4370   26.7630 O   0  0  0  0  0  0  0  0  0  0  0  0
    6.7260    0.8280   26.6920 C   0  0  0  0  0  0  0  0  0  0  0  0
    8.7490    0.0490   25.3950 C   0  0  0  0  0  0  0  0  0  0  0  0
   11.4500   -3.7190   24.2400 O   0  0  0  0  0  0  0  0  0  0  0  0
    9.8620   -0.0020   25.0670 N   0  0  0  0  0  0  0  0  0  0  0  0
  1  2  1  0
  3  2  1  0
  3  4  2  0
  3  5  2  0
  3  6  1  0
  6  7  1  0
  6  8  1  0
  7  9  1  0
  8 10  1  0
  9 11  1  0
  9 12  2  0
 10 12  1  0
 10 13  1  0
 11 14  2  0
 12 15  1  0
 13 16  2  0
 13 17  1  0
 14 18  1  0
 14 19  1  0
 15 19  2  0
 16 20  1  0
 17 21  2  0
 20 21  1  0
 17 22  1  0
 18 23  1  0
 22 24  3  0
M  END
