THO-SYG-f9b2970d-5-acrylamide
     RDKit          3D

 27 28  0  0  0  0  0  0  0  0999 V2000
    7.0470   -3.5800   19.9650 C   0  0  0  0  0  0  0  0  0  0  0  0
    6.9530   -4.1010   21.2090 C   0  0  0  0  0  0  0  0  0  0  0  0
    6.0820   -3.2190   22.0990 C   0  0  0  0  0  0  0  0  0  0  0  0
    5.1400   -3.7700   21.4270 O   0  0  0  0  0  0  0  0  0  0  0  0
    7.3980   -2.8630   22.6010 N   0  0  0  0  0  0  0  0  0  0  0  0
    8.1540   -3.8610   23.1640 C   0  0  0  0  0  0  0  0  0  0  0  0
    7.8580   -1.4770   23.0750 C   0  0  1  0  0  0  0  0  0  0  0  0
    9.5230   -3.4110   23.5080 C   0  0  0  0  0  0  0  0  0  0  0  0
    8.4610   -1.6130   24.2900 C   0  0  0  0  0  0  0  0  0  0  0  0
    8.8680   -0.9200   22.2580 C   0  0  0  0  0  0  0  0  0  0  0  0
    9.7710   -2.0970   23.7240 C   0  0  1  0  0  0  0  0  0  0  0  0
    8.4880    0.0360   21.4040 C   0  0  0  0  0  0  0  0  0  0  0  0
   10.9890   -1.6700   24.2900 C   0  0  0  0  0  0  0  0  0  0  0  0
    9.0270    1.1480   21.2410 O   0  0  0  0  0  0  0  0  0  0  0  0
    7.4040   -0.4970   20.8080 N   0  0  0  0  0  0  0  0  0  0  0  0
   11.2870   -1.7390   25.4380 O   0  0  0  0  0  0  0  0  0  0  0  0
   11.7880   -1.2000   23.3460 N   0  0  0  0  0  0  0  0  0  0  0  0
    6.5940    0.1210   20.0200 C   0  0  0  0  0  0  0  0  0  0  0  0
   12.4730    0.0910   23.3500 C   0  0  0  0  0  0  0  0  0  0  0  0
   12.5710   -2.2490   22.7600 C   0  0  0  0  0  0  0  0  0  0  0  0
    5.4720    0.8160   20.4390 C   0  0  0  0  0  0  0  0  0  0  0  0
    6.9160    0.0540   18.6900 C   0  0  0  0  0  0  0  0  0  0  0  0
   13.5400   -2.6400   23.6770 C   0  0  0  0  0  0  0  0  0  0  0  0
   13.0240   -1.9250   21.3410 C   0  0  0  0  0  0  0  0  0  0  0  0
    4.6160    1.5080   19.4010 C   0  0  0  0  0  0  0  0  0  0  0  0
    6.2440    0.6190   17.6830 N   0  0  0  0  0  0  0  0  0  0  0  0
    5.1460    1.3260   17.9790 C   0  0  0  0  0  0  0  0  0  0  0  0
  1  2  1  0
  2  3  1  0
  3  4  2  0
  3  5  1  0
  5  6  1  0
  5  7  1  0
  6  8  1  0
  7  9  1  0
  7 10  1  6
  8 11  1  0
  9 11  1  0
 10 12  1  0
 11 13  1  1
 12 14  2  0
 12 15  1  0
 13 16  2  0
 13 17  1  0
 15 18  1  0
 17 19  1  0
 17 20  1  0
 18 21  2  0
 18 22  1  0
 20 23  1  0
 20 24  1  0
 21 25  1  0
 22 26  2  0
 25 27  2  0
 26 27  1  0
M  END
