THO-SYG-cc9e9a11-8
     RDKit          3D

 26 28  0  0  0  0  0  0  0  0999 V2000
    4.5530   -4.3690   22.4280 N   0  0  0  0  0  0  0  0  0  0  0  0
    5.6500   -4.0530   22.6010 C   0  0  0  0  0  0  0  0  0  0  0  0
    7.0000   -3.6680   22.8560 C   0  0  0  0  0  0  0  0  0  0  0  0
    7.9240   -4.6400   23.2290 C   0  0  0  0  0  0  0  0  0  0  0  0
    7.3980   -2.3240   22.7410 C   0  0  0  0  0  0  0  0  0  0  0  0
    9.2340   -4.2660   23.4890 C   0  0  0  0  0  0  0  0  0  0  0  0
    8.7340   -1.9450   23.0050 C   0  0  0  0  0  0  0  0  0  0  0  0
    9.6460   -2.9310   23.3840 C   0  0  0  0  0  0  0  0  0  0  0  0
    9.1880   -0.4920   22.8930 C   0  0  0  0  0  0  0  0  0  0  0  0
   11.0170   -2.5920   23.6900 C   0  0  0  0  0  0  0  0  0  0  0  0
    8.7360    0.2050   21.6300 C   0  0  0  0  0  0  0  0  0  0  0  0
   11.6990   -1.5310   23.1030 C   0  0  0  0  0  0  0  0  0  0  0  0
   11.5540   -3.3980   24.6060 N   0  0  0  0  0  0  0  0  0  0  0  0
    9.1850    1.3080   21.2900 O   0  0  0  0  0  0  0  0  0  0  0  0
    7.7900   -0.5340   20.9750 N   0  0  0  0  0  0  0  0  0  0  0  0
   12.9980   -1.3000   23.5100 C   0  0  0  0  0  0  0  0  0  0  0  0
   12.8020   -3.1440   24.9710 C   0  0  0  0  0  0  0  0  0  0  0  0
    6.8740   -0.0010   20.0700 C   0  0  0  0  0  0  0  0  0  0  0  0
   13.5370   -2.1390   24.4700 C   0  0  0  0  0  0  0  0  0  0  0  0
    7.0430   -0.1540   18.7140 C   0  0  0  0  0  0  0  0  0  0  0  0
    5.7440    0.7170   20.5150 C   0  0  0  0  0  0  0  0  0  0  0  0
    6.2110    0.3440   17.7810 N   0  0  0  0  0  0  0  0  0  0  0  0
    4.8730    1.2370   19.5440 C   0  0  0  0  0  0  0  0  0  0  0  0
    5.4530    0.9400   21.9850 C   0  0  0  0  0  0  0  0  0  0  0  0
    5.1480    1.0320   18.2120 C   0  0  0  0  0  0  0  0  0  0  0  0
    4.2620    1.6850   22.2100 O   0  0  0  0  0  0  0  0  0  0  0  0
  1  2  3  0
  2  3  1  0
  3  4  2  0
  3  5  1  0
  4  6  1  0
  5  7  2  0
  6  8  2  0
  7  8  1  0
  7  9  1  0
  8 10  1  0
  9 11  1  0
 10 12  2  0
 10 13  1  0
 11 14  2  0
 11 15  1  0
 12 16  1  0
 13 17  2  0
 15 18  1  0
 16 19  2  0
 17 19  1  0
 18 20  2  0
 18 21  1  0
 20 22  1  0
 21 23  2  0
 21 24  1  0
 22 25  2  0
 23 25  1  0
 24 26  1  0
M  END
