THO-SYG-f9b2970d-1-bromoalkyne
     RDKit          3D

 21 22  0  0  0  0  0  0  0  0999 V2000
    7.2210   -3.7510   20.2200 C   0  0  0  0  0  0  0  0  0  0  0  0
    5.7710   -4.0010   19.8390 C   0  0  0  0  0  0  0  0  0  0  0  0
    7.7130   -4.0630   21.5170 N   0  0  0  0  0  0  0  0  0  0  0  0
    7.2930   -5.2570   22.2640 C   0  0  0  0  0  0  0  0  0  0  0  0
    8.3980   -3.0160   22.4860 C   0  0  1  0  0  0  0  0  0  0  0  0
    7.1420   -4.9370   23.6200 C   0  0  0  0  0  0  0  0  0  0  0  0
    9.1010   -3.6610   23.5320 C   0  0  0  0  0  0  0  0  0  0  0  0
    9.2140   -1.9980   21.9210 C   0  0  0  0  0  0  0  0  0  0  0  0
    8.4900   -4.8250   24.2000 N   0  0  0  0  0  0  0  0  0  0  0  0
    8.6210   -0.7890   21.5920 C   0  0  0  0  0  0  0  0  0  0  0  0
    8.5750   -4.6850   25.6930 C   0  0  0  0  0  0  0  0  0  0  0  0
    9.3300    0.2140   21.4460 O   0  0  0  0  0  0  0  0  0  0  0  0
    7.1750   -0.7900   21.4630 N   0  0  0  0  0  0  0  0  0  0  0  0
    9.6610   -5.4180   26.2330 C   0  0  0  0  0  0  0  0  0  0  0  0
    7.3070   -5.1120   26.4520 C   0  0  0  0  0  0  0  0  0  0  0  0
    6.6060   -0.1330   20.2910 C   0  0  0  0  0  0  0  0  0  0  0  0
    5.4020    0.7610   20.5290 C   0  0  0  0  0  0  0  0  0  0  0  0
    7.0650   -0.2630   18.9940 C   0  0  0  0  0  0  0  0  0  0  0  0
    4.8440    1.3880   19.4220 C   0  0  0  0  0  0  0  0  0  0  0  0
    6.4970    0.3670   17.9330 N   0  0  0  0  0  0  0  0  0  0  0  0
    5.4270    1.1540   18.1780 C   0  0  0  0  0  0  0  0  0  0  0  0
  1  2  2  3
  1  3  1  0
  3  4  1  0
  3  5  1  0
  4  6  1  0
  5  7  1  0
  5  8  1  6
  6  9  1  0
  7  9  1  0
  8 10  1  0
  9 11  1  0
 10 12  2  0
 10 13  1  0
 11 14  1  0
 11 15  1  0
 13 16  1  0
 16 17  2  0
 16 18  1  0
 17 19  1  0
 18 20  2  0
 19 21  2  0
 20 21  1  0
M  END
