THO-SYG-f9b2970d-7-vinylsulfonamide
     RDKit          3D

 29 30  0  0  0  0  0  0  0  0999 V2000
    7.3400   -4.6050   21.1610 C   0  0  0  0  0  0  0  0  0  0  0  0
    6.1810   -3.8390   21.6740 C   0  0  0  0  0  0  0  0  0  0  0  0
    5.4410   -4.8310   22.9410 S   0  0  0  0  0  0  0  0  0  0  0  0
    4.1280   -5.1730   22.4250 O   0  0  0  0  0  0  0  0  0  0  0  0
    6.3350   -5.8600   23.4100 O   0  0  0  0  0  0  0  0  0  0  0  0
    5.2030   -3.6610   24.1150 N   0  0  0  0  0  0  0  0  0  0  0  0
    6.0370   -3.7650   25.3520 C   0  0  0  0  0  0  0  0  0  0  0  0
    5.0070   -2.2570   23.7200 C   0  0  1  0  0  0  0  0  0  0  0  0
    5.6620   -2.8220   26.4880 C   0  0  0  0  0  0  0  0  0  0  0  0
    3.9920   -1.7560   24.8360 C   0  0  0  0  0  0  0  0  0  0  0  0
    6.3480   -1.4080   23.2960 C   0  0  0  0  0  0  0  0  0  0  0  0
    4.3730   -2.0530   26.3150 C   0  0  1  0  0  0  0  0  0  0  0  0
    7.0430   -0.9920   21.9460 N   0  0  0  0  0  0  0  0  0  0  0  0
    3.2610   -2.4460   27.3180 C   0  0  0  0  0  0  0  0  0  0  0  0
    8.4290   -0.6270   22.0340 C   0  0  0  0  0  0  0  0  0  0  0  0
    6.4340   -0.3880   20.7720 C   0  0  0  0  0  0  0  0  0  0  0  0
    2.5190   -1.5280   27.6900 O   0  0  0  0  0  0  0  0  0  0  0  0
    3.0770   -3.7360   27.7980 N   0  0  0  0  0  0  0  0  0  0  0  0
    9.4560   -1.5480   22.6600 C   0  0  0  0  0  0  0  0  0  0  0  0
    8.8430    0.4620   21.5830 O   0  0  0  0  0  0  0  0  0  0  0  0
    5.2900    0.3990   20.8300 C   0  0  0  0  0  0  0  0  0  0  0  0
    6.9830   -0.5520   19.4880 C   0  0  0  0  0  0  0  0  0  0  0  0
    4.1040   -4.5610   28.4250 C   0  0  0  0  0  0  0  0  0  0  0  0
    1.7000   -4.1580   28.1410 C   0  0  0  0  0  0  0  0  0  0  0  0
    4.7460    0.9720   19.6690 C   0  0  0  0  0  0  0  0  0  0  0  0
    6.4780   -0.0050   18.3580 N   0  0  0  0  0  0  0  0  0  0  0  0
    1.4820   -4.2810   29.6510 C   0  0  0  0  0  0  0  0  0  0  0  0
    1.2520   -5.4120   27.3850 C   0  0  0  0  0  0  0  0  0  0  0  0
    5.3710    0.7430   18.4610 C   0  0  0  0  0  0  0  0  0  0  0  0
  1  2  1  0
  3  2  1  0
  3  4  2  0
  3  5  2  0
  3  6  1  0
  6  7  1  0
  6  8  1  0
  7  9  1  0
  8 10  1  0
  8 11  1  1
  9 12  1  0
 10 12  1  0
 11 13  1  0
 12 14  1  6
 13 15  1  0
 13 16  1  0
 14 17  2  0
 14 18  1  0
 15 19  1  0
 15 20  2  0
 16 21  2  0
 16 22  1  0
 18 23  1  0
 18 24  1  0
 21 25  1  0
 22 26  2  0
 24 27  1  0
 24 28  1  0
 25 29  2  0
 26 29  1  0
M  END
