THO-SYG-f9b2970d-4-nitrile
     RDKit          3D

 22 23  0  0  0  0  0  0  0  0999 V2000
    6.3750   -4.4890   20.4330 C   0  0  0  0  0  0  0  0  0  0  0  0
    5.5530   -3.9710   19.6190 N   0  0  0  0  0  0  0  0  0  0  0  0
    6.1870   -4.3600   21.8490 N   0  0  0  0  0  0  0  0  0  0  0  0
    7.4130   -4.4750   22.5970 C   0  0  0  0  0  0  0  0  0  0  0  0
    5.5110   -3.1570   22.4550 C   0  0  0  0  0  0  0  0  0  0  0  0
    8.2720   -3.4380   21.8490 C   0  0  0  0  0  0  0  0  0  0  0  0
    6.5860   -2.0300   22.5990 C   0  0  1  0  0  0  0  0  0  0  0  0
    7.4980   -2.2510   21.5210 N   0  0  0  0  0  0  0  0  0  0  0  0
    6.2440   -0.5160   22.5740 C   0  0  0  0  0  0  0  0  0  0  0  0
    6.8460   -2.0360   20.1830 C   0  0  0  0  0  0  0  0  0  0  0  0
    7.0690    0.2100   21.5420 N   0  0  0  0  0  0  0  0  0  0  0  0
    5.3390   -2.2740   20.1130 C   0  0  0  0  0  0  0  0  0  0  0  0
    7.5150   -2.5010   18.9260 C   0  0  0  0  0  0  0  0  0  0  0  0
    8.4530    0.4360   21.7250 C   0  0  0  0  0  0  0  0  0  0  0  0
    6.4050    0.5740   20.3330 C   0  0  0  0  0  0  0  0  0  0  0  0
    9.3310   -0.5940   22.4100 C   0  0  0  0  0  0  0  0  0  0  0  0
    8.9990    1.4780   21.2970 O   0  0  0  0  0  0  0  0  0  0  0  0
    5.2070    1.2620   20.3760 C   0  0  0  0  0  0  0  0  0  0  0  0
    6.8870    0.2790   19.0570 C   0  0  0  0  0  0  0  0  0  0  0  0
    4.5630    1.6270   19.2010 C   0  0  0  0  0  0  0  0  0  0  0  0
    6.2990    0.6150   17.8960 N   0  0  0  0  0  0  0  0  0  0  0  0
    5.1460    1.2860   17.9970 C   0  0  0  0  0  0  0  0  0  0  0  0
  1  2  2  3
  1  3  1  0
  3  4  1  0
  3  5  1  0
  4  6  1  0
  5  7  1  0
  6  8  1  0
  7  8  1  0
  7  9  1  6
  8 10  1  0
  9 11  1  0
 10 12  1  0
 10 13  1  0
 11 14  1  0
 11 15  1  0
 14 16  1  0
 14 17  2  0
 15 18  2  0
 15 19  1  0
 18 20  1  0
 19 21  2  0
 20 22  2  0
 21 22  1  0
M  END
