THO-SYG-f9b2970d-8-vinylsulfonamide
     RDKit          3D

 29 30  0  0  0  0  0  0  0  0999 V2000
    6.7290   -3.7440   20.5540 C   0  0  0  0  0  0  0  0  0  0  0  0
    6.7810   -4.5670   21.6260 C   0  0  0  0  0  0  0  0  0  0  0  0
    5.1590   -4.4240   22.3410 S   0  0  0  0  0  0  0  0  0  0  0  0
    4.3770   -5.5780   21.9940 O   0  0  0  0  0  0  0  0  0  0  0  0
    4.6040   -3.2110   21.8440 O   0  0  0  0  0  0  0  0  0  0  0  0
    5.2970   -4.3210   24.0570 N   0  0  0  0  0  0  0  0  0  0  0  0
    4.0470   -4.0760   24.6080 C   0  0  0  0  0  0  0  0  0  0  0  0
    6.2380   -3.3460   24.7030 C   0  0  0  0  0  0  0  0  0  0  0  0
    4.0100   -3.5010   25.8390 C   0  0  0  0  0  0  0  0  0  0  0  0
    5.6060   -1.9560   24.8460 C   0  0  2  0  0  0  0  0  0  0  0  0
    4.3180   -2.0730   25.7820 C   0  0  1  0  0  0  0  0  0  0  0  0
    5.6900   -1.1500   23.4110 C   0  0  0  0  0  0  0  0  0  0  0  0
    3.4200   -1.0210   25.6220 C   0  0  0  0  0  0  0  0  0  0  0  0
    6.8420   -0.8600   22.3250 N   0  0  0  0  0  0  0  0  0  0  0  0
    3.8160   -0.0320   25.0000 O   0  0  0  0  0  0  0  0  0  0  0  0
    2.1930   -1.0100   26.1220 N   0  0  0  0  0  0  0  0  0  0  0  0
    8.2390   -0.5960   22.5770 C   0  0  0  0  0  0  0  0  0  0  0  0
    6.4230   -0.3010   21.0260 C   0  0  0  0  0  0  0  0  0  0  0  0
    1.8510    0.2720   26.5170 C   0  0  0  0  0  0  0  0  0  0  0  0
    1.5500   -2.2340   26.6020 C   0  0  0  0  0  0  0  0  0  0  0  0
    9.0750   -1.5430   23.1760 C   0  0  0  0  0  0  0  0  0  0  0  0
    8.7750    0.4770   22.2220 O   0  0  0  0  0  0  0  0  0  0  0  0
    5.2750    0.5010   20.9620 C   0  0  0  0  0  0  0  0  0  0  0  0
    7.1050   -0.5050   19.7960 C   0  0  0  0  0  0  0  0  0  0  0  0
    1.3070   -3.1740   25.5830 C   0  0  0  0  0  0  0  0  0  0  0  0
    0.1980   -1.9720   27.3080 C   0  0  0  0  0  0  0  0  0  0  0  0
    4.8390    1.0550   19.7460 C   0  0  0  0  0  0  0  0  0  0  0  0
    6.7450    0.0010   18.5700 N   0  0  0  0  0  0  0  0  0  0  0  0
    5.6470    0.7640   18.5030 C   0  0  0  0  0  0  0  0  0  0  0  0
  1  2  1  0
  3  2  1  0
  3  4  2  0
  3  5  2  0
  3  6  1  0
  6  7  1  0
  6  8  1  0
  7  9  1  0
  8 10  1  0
  9 11  1  0
 10 11  1  0
 10 12  1  6
 11 13  1  6
 12 14  1  0
 13 15  2  0
 13 16  1  0
 14 17  1  0
 14 18  1  0
 16 19  1  0
 16 20  1  0
 17 21  1  0
 17 22  2  0
 18 23  2  0
 18 24  1  0
 20 25  1  0
 20 26  1  0
 23 27  1  0
 24 28  2  0
 27 29  2  0
 28 29  1  0
M  END
