THO-SYG-4e0386bb-2-vinylsulfonamide
     RDKit          3D

 24 26  0  0  0  0  0  0  0  0999 V2000
    7.7600   -3.7240   20.3050 C   0  0  0  0  0  0  0  0  0  0  0  0
    6.8350   -2.6180   19.8700 C   0  0  0  0  0  0  0  0  0  0  0  0
    5.7050   -2.3040   21.2050 S   0  0  0  0  0  0  0  0  0  0  0  0
    5.0050   -3.5380   21.5040 O   0  0  0  0  0  0  0  0  0  0  0  0
    4.9780   -1.1030   20.8650 O   0  0  0  0  0  0  0  0  0  0  0  0
    6.6380   -1.9380   22.5850 N   0  0  0  0  0  0  0  0  0  0  0  0
    5.8990   -2.1240   23.8440 C   0  0  0  0  0  0  0  0  0  0  0  0
    7.8990   -2.7010   22.8030 C   0  0  0  0  0  0  0  0  0  0  0  0
    6.5800   -3.1560   24.7370 C   0  0  0  0  0  0  0  0  0  0  0  0
    8.3160   -2.6460   24.3160 C   0  0  2  0  0  0  0  0  0  0  0  0
    7.8960   -2.7930   24.4400 C   0  0  0  0  0  0  0  0  0  0  0  0
    7.6960   -3.7370   25.2490 C   0  0  0  0  0  0  0  0  0  0  0  0
    8.1320   -1.2630   24.9580 C   0  0  0  0  0  0  0  0  0  0  0  0
    8.8450   -3.6420   25.1810 C   0  0  0  0  0  0  0  0  0  0  0  0
    6.9110   -4.5920   25.9760 C   0  0  0  0  0  0  0  0  0  0  0  0
    7.0180   -0.9680   25.6670 N   0  0  0  0  0  0  0  0  0  0  0  0
    9.0000   -0.1310   24.9490 C   0  0  0  0  0  0  0  0  0  0  0  0
    8.2880   -4.6590   26.0560 C   0  0  0  0  0  0  0  0  0  0  0  0
    7.1560    0.3340   26.1080 O   0  0  0  0  0  0  0  0  0  0  0  0
    8.3390    0.8260   25.6760 C   0  0  0  0  0  0  0  0  0  0  0  0
   10.2760    0.0210   24.3380 C   0  0  0  0  0  0  0  0  0  0  0  0
    9.0510   -5.6310   26.9190 C   0  0  0  0  0  0  0  0  0  0  0  0
   11.3290    0.1150   23.8520 N   0  0  0  0  0  0  0  0  0  0  0  0
    8.1820   -6.1850   27.8980 O   0  0  0  0  0  0  0  0  0  0  0  0
  1  2  1  0
  3  2  1  0
  3  4  2  0
  3  5  2  0
  3  6  1  0
  6  7  1  0
  6  8  1  0
  7  9  1  0
  8 10  1  0
  9 11  1  0
  9 12  2  0
 10 12  1  0
 10 13  1  1
 11 14  2  0
 12 15  1  0
 13 16  2  0
 13 17  1  0
 14 18  1  0
 15 18  2  0
 16 19  1  0
 17 20  2  0
 19 20  1  0
 17 21  1  0
 18 22  1  0
 21 23  3  0
 22 24  1  0
M  END
