THO-SYG-f9b2970d-1-chloroacetamide
     RDKit          3D

 22 23  0  0  0  0  0  0  0  0999 V2000
    6.9860   -3.2920   19.2830 C   0  0  0  0  0  0  0  0  0  0  0  0
    6.2990   -3.9850   20.1840 C   0  0  0  0  0  0  0  0  0  0  0  0
    5.2710   -4.5710   19.8740 O   0  0  0  0  0  0  0  0  0  0  0  0
    6.8320   -4.0480   21.4770 N   0  0  0  0  0  0  0  0  0  0  0  0
    6.4440   -5.2300   22.2730 C   0  0  0  0  0  0  0  0  0  0  0  0
    6.9640   -2.7180   22.1460 C   0  0  1  0  0  0  0  0  0  0  0  0
    5.2170   -4.9060   23.1360 C   0  0  0  0  0  0  0  0  0  0  0  0
    5.8810   -2.5170   23.2380 C   0  0  0  0  0  0  0  0  0  0  0  0
    8.2910   -2.4070   22.4510 C   0  0  0  0  0  0  0  0  0  0  0  0
    5.3520   -3.6790   23.9560 N   0  0  0  0  0  0  0  0  0  0  0  0
    8.7780   -1.1500   22.0900 C   0  0  0  0  0  0  0  0  0  0  0  0
    5.9160   -3.9120   25.2760 C   0  0  0  0  0  0  0  0  0  0  0  0
    8.0870   -0.1350   22.1050 O   0  0  0  0  0  0  0  0  0  0  0  0
   10.1110   -1.2200   21.7240 N   0  0  0  0  0  0  0  0  0  0  0  0
    7.0820   -4.8630   25.1960 C   0  0  0  0  0  0  0  0  0  0  0  0
    4.9170   -4.4710   26.2790 C   0  0  0  0  0  0  0  0  0  0  0  0
   11.1680   -1.4810   22.6190 C   0  0  0  0  0  0  0  0  0  0  0  0
   12.2830   -2.2620   22.3430 C   0  0  0  0  0  0  0  0  0  0  0  0
   11.0990   -0.9150   23.8920 C   0  0  0  0  0  0  0  0  0  0  0  0
   13.2530   -2.4450   23.3300 C   0  0  0  0  0  0  0  0  0  0  0  0
   12.0210   -1.0710   24.8640 N   0  0  0  0  0  0  0  0  0  0  0  0
   13.0830   -1.8390   24.5610 C   0  0  0  0  0  0  0  0  0  0  0  0
  1  2  1  0
  2  3  2  0
  2  4  1  0
  4  5  1  0
  4  6  1  0
  5  7  1  0
  6  8  1  0
  6  9  1  1
  7 10  1  0
  8 10  1  0
  9 11  1  0
 10 12  1  0
 11 13  2  0
 11 14  1  0
 12 15  1  0
 12 16  1  0
 14 17  1  0
 17 18  2  0
 17 19  1  0
 18 20  1  0
 19 21  2  0
 20 22  2  0
 21 22  1  0
M  END
