THO-SYG-98fc3427-1-bromoalkyne
     RDKit          3D

 19 20  0  0  0  0  0  0  0  0999 V2000
    6.6840   -4.3750   20.3790 C   0  0  0  0  0  0  0  0  0  0  0  0
    6.0910   -3.3570   19.4220 C   0  0  0  0  0  0  0  0  0  0  0  0
    6.3560   -4.4250   21.7680 N   0  0  0  0  0  0  0  0  0  0  0  0
    7.3650   -4.3830   22.8230 C   0  0  0  0  0  0  0  0  0  0  0  0
    5.1350   -4.9240   22.4570 C   0  0  2  0  0  0  0  0  0  0  0  0
    8.2890   -3.1740   22.9580 C   0  0  0  0  0  0  0  0  0  0  0  0
    7.4960   -5.4150   23.7200 C   0  0  0  0  0  0  0  0  0  0  0  0
    4.9430   -4.4320   23.7730 C   0  0  0  0  0  0  0  0  0  0  0  0
    5.0440   -6.4410   22.5510 C   0  0  0  0  0  0  0  0  0  0  0  0
    9.2900   -3.2210   24.1070 C   0  0  0  0  0  0  0  0  0  0  0  0
    8.4190   -5.3940   24.7390 C   0  0  0  0  0  0  0  0  0  0  0  0
    4.2700   -5.2530   24.6680 C   0  0  0  0  0  0  0  0  0  0  0  0
    3.8550   -6.7270   23.8630 S   0  0  0  0  0  0  0  0  0  0  0  0
    9.2960   -4.3420   24.9490 C   0  0  0  0  0  0  0  0  0  0  0  0
    2.5080   -6.6610   23.3410 O   0  0  0  0  0  0  0  0  0  0  0  0
    4.2880   -7.8400   24.6850 O   0  0  0  0  0  0  0  0  0  0  0  0
   10.1390   -4.4940   26.0280 C   0  0  0  0  0  0  0  0  0  0  0  0
    9.5920   -5.2890   27.0480 C   0  0  0  0  0  0  0  0  0  0  0  0
    9.9600   -4.8200   28.3250 O   0  0  0  0  0  0  0  0  0  0  0  0
  1  2  2  3
  1  3  1  0
  3  4  1  0
  5  3  1  1
  4  6  2  0
  4  7  1  0
  5  8  1  0
  5  9  1  0
  6 10  1  0
  7 11  2  0
  8 12  2  0
  9 13  1  0
 13 12  1  0
 10 14  2  0
 11 14  1  0
 13 15  2  0
 13 16  2  0
 14 17  1  0
 17 18  1  0
 18 19  1  0
M  END
