THO-SYG-f9b2970d-1-vinylsulfonamide
     RDKit          3D

 24 25  0  0  0  0  0  0  0  0999 V2000
    8.4770   -3.7150   20.0330 C   0  0  0  0  0  0  0  0  0  0  0  0
    7.1620   -4.3250   20.5220 C   0  0  0  0  0  0  0  0  0  0  0  0
    6.2890   -3.2490   21.6160 S   0  0  0  0  0  0  0  0  0  0  0  0
    4.9510   -3.8300   21.8240 O   0  0  0  0  0  0  0  0  0  0  0  0
    6.3980   -1.9070   21.1200 O   0  0  0  0  0  0  0  0  0  0  0  0
    7.2560   -3.3220   23.0120 N   0  0  0  0  0  0  0  0  0  0  0  0
    8.2750   -4.4610   23.0440 C   0  0  0  0  0  0  0  0  0  0  0  0
    7.8910   -2.0440   23.6110 C   0  0  1  0  0  0  0  0  0  0  0  0
    8.8190   -4.7220   24.4600 C   0  0  0  0  0  0  0  0  0  0  0  0
    8.2410   -2.4560   25.1070 C   0  0  0  0  0  0  0  0  0  0  0  0
    9.1260   -1.4390   22.8580 C   0  0  0  0  0  0  0  0  0  0  0  0
    8.0540   -3.9150   25.4090 N   0  0  0  0  0  0  0  0  0  0  0  0
    8.8460   -0.3270   21.8220 C   0  0  0  0  0  0  0  0  0  0  0  0
    8.0890   -4.3560   26.8280 C   0  0  0  0  0  0  0  0  0  0  0  0
    9.2930    0.8280   21.9000 O   0  0  0  0  0  0  0  0  0  0  0  0
    8.0700   -0.8010   20.7800 N   0  0  0  0  0  0  0  0  0  0  0  0
    7.9190   -3.1880   27.8150 C   0  0  0  0  0  0  0  0  0  0  0  0
    7.1250   -5.4810   27.2070 C   0  0  0  0  0  0  0  0  0  0  0  0
    7.0390   -0.1150   20.0770 C   0  0  0  0  0  0  0  0  0  0  0  0
    5.9590    0.6050   20.5980 C   0  0  0  0  0  0  0  0  0  0  0  0
    7.1170   -0.1740   18.7030 C   0  0  0  0  0  0  0  0  0  0  0  0
    5.0460    1.2150   19.7290 C   0  0  0  0  0  0  0  0  0  0  0  0
    6.2570    0.4030   17.8400 N   0  0  0  0  0  0  0  0  0  0  0  0
    5.2340    1.0900   18.3650 C   0  0  0  0  0  0  0  0  0  0  0  0
  1  2  1  0
  3  2  1  0
  3  4  2  0
  3  5  2  0
  3  6  1  0
  6  7  1  0
  6  8  1  0
  7  9  1  0
  8 10  1  0
  8 11  1  6
  9 12  1  0
 10 12  1  0
 11 13  1  0
 12 14  1  0
 13 15  2  0
 13 16  1  0
 14 17  1  0
 14 18  1  0
 16 19  1  0
 19 20  2  0
 19 21  1  0
 20 22  1  0
 21 23  2  0
 22 24  2  0
 23 24  1  0
M  END
