THO-SYG-4e0386bb-2-chloroacetamide
     RDKit          3D

 22 24  0  0  0  0  0  0  0  0999 V2000
    7.5130   -3.0130   18.7750 C   0  0  0  0  0  0  0  0  0  0  0  0
    6.6570   -3.3310   19.9320 C   0  0  0  0  0  0  0  0  0  0  0  0
    5.6820   -4.1090   19.8230 O   0  0  0  0  0  0  0  0  0  0  0  0
    7.0400   -2.7210   21.1550 N   0  0  0  0  0  0  0  0  0  0  0  0
    6.3080   -3.1180   22.3550 C   0  0  0  0  0  0  0  0  0  0  0  0
    8.4030   -2.2190   21.3390 C   0  0  0  0  0  0  0  0  0  0  0  0
    7.2800   -3.5610   23.4360 C   0  0  0  0  0  0  0  0  0  0  0  0
    8.8030   -1.8850   22.6750 C   0  0  1  0  0  0  0  0  0  0  0  0
    6.8370   -4.7080   24.3550 C   0  0  0  0  0  0  0  0  0  0  0  0
    8.5270   -2.9320   23.5760 C   0  0  0  0  0  0  0  0  0  0  0  0
   10.0760   -1.2610   22.8470 C   0  0  0  0  0  0  0  0  0  0  0  0
    7.8130   -5.1400   25.4350 C   0  0  0  0  0  0  0  0  0  0  0  0
    9.4790   -3.4160   24.6900 C   0  0  0  0  0  0  0  0  0  0  0  0
   11.3350   -1.5770   22.1330 N   0  0  0  0  0  0  0  0  0  0  0  0
   10.3760   -0.2050   23.7460 C   0  0  0  0  0  0  0  0  0  0  0  0
    9.1540   -4.4510   25.5710 C   0  0  0  0  0  0  0  0  0  0  0  0
   12.3090   -0.7000   22.6220 O   0  0  0  0  0  0  0  0  0  0  0  0
   11.7220    0.0800   23.5540 C   0  0  0  0  0  0  0  0  0  0  0  0
    9.5910    0.4770   24.6580 C   0  0  0  0  0  0  0  0  0  0  0  0
   10.0440   -4.9510   26.6720 C   0  0  0  0  0  0  0  0  0  0  0  0
    8.9070    1.0240   25.4190 N   0  0  0  0  0  0  0  0  0  0  0  0
   11.3820   -4.5750   26.3740 O   0  0  0  0  0  0  0  0  0  0  0  0
  1  2  1  0
  2  3  2  0
  2  4  1  0
  4  5  1  0
  4  6  1  0
  5  7  1  0
  6  8  1  0
  7  9  1  0
  7 10  2  0
  8 10  1  0
  8 11  1  6
  9 12  2  0
 10 13  1  0
 11 14  2  0
 11 15  1  0
 12 16  1  0
 13 16  2  0
 14 17  1  0
 15 18  2  0
 17 18  1  0
 15 19  1  0
 16 20  1  0
 19 21  3  0
 20 22  1  0
M  END
