THO-SYG-f9b2970d-8-chloroacetamide
     RDKit          3D

 27 28  0  0  0  0  0  0  0  0999 V2000
    6.1620   -5.6930   19.8590 C   0  0  0  0  0  0  0  0  0  0  0  0
    5.9990   -4.4720   20.2360 C   0  0  0  0  0  0  0  0  0  0  0  0
    5.5490   -3.6180   19.5100 O   0  0  0  0  0  0  0  0  0  0  0  0
    6.3640   -4.3030   21.5560 N   0  0  0  0  0  0  0  0  0  0  0  0
    6.3270   -5.4410   22.4770 C   0  0  0  0  0  0  0  0  0  0  0  0
    7.4470   -3.4190   21.8830 C   0  0  0  0  0  0  0  0  0  0  0  0
    5.8190   -4.9500   23.8110 C   0  0  0  0  0  0  0  0  0  0  0  0
    7.0860   -2.6570   23.1520 C   0  0  2  0  0  0  0  0  0  0  0  0
    6.2360   -3.5140   24.2200 C   0  0  1  0  0  0  0  0  0  0  0  0
    6.6380   -1.2310   22.7210 C   0  0  0  0  0  0  0  0  0  0  0  0
    5.1120   -2.9500   24.8230 C   0  0  0  0  0  0  0  0  0  0  0  0
    7.4400   -0.6840   21.5690 N   0  0  0  0  0  0  0  0  0  0  0  0
    3.9840   -3.1430   24.3560 O   0  0  0  0  0  0  0  0  0  0  0  0
    5.2920   -2.2080   25.9920 N   0  0  0  0  0  0  0  0  0  0  0  0
    8.7460   -0.2450   21.8130 C   0  0  0  0  0  0  0  0  0  0  0  0
    6.7100   -0.1420   20.4510 C   0  0  0  0  0  0  0  0  0  0  0  0
    6.5920   -1.7000   26.3970 C   0  0  0  0  0  0  0  0  0  0  0  0
    4.2590   -2.3290   27.0490 C   0  0  0  0  0  0  0  0  0  0  0  0
    9.7680   -1.1790   22.4270 C   0  0  0  0  0  0  0  0  0  0  0  0
    9.0960    0.9030   21.5340 O   0  0  0  0  0  0  0  0  0  0  0  0
    5.5630    0.6320   20.6470 C   0  0  0  0  0  0  0  0  0  0  0  0
    7.0820   -0.3390   19.1220 C   0  0  0  0  0  0  0  0  0  0  0  0
    3.9090   -0.9670   27.6520 C   0  0  0  0  0  0  0  0  0  0  0  0
    4.6390   -3.3370   28.1340 C   0  0  0  0  0  0  0  0  0  0  0  0
    4.8630    1.1620   19.5570 C   0  0  0  0  0  0  0  0  0  0  0  0
    6.4270    0.1650   18.0430 N   0  0  0  0  0  0  0  0  0  0  0  0
    5.3320    0.9040   18.2740 C   0  0  0  0  0  0  0  0  0  0  0  0
  1  2  1  0
  2  3  2  0
  2  4  1  0
  4  5  1  0
  4  6  1  0
  5  7  1  0
  6  8  1  0
  7  9  1  0
  8  9  1  0
  8 10  1  6
  9 11  1  6
 10 12  1  0
 11 13  2  0
 11 14  1  0
 12 15  1  0
 12 16  1  0
 14 17  1  0
 14 18  1  0
 15 19  1  0
 15 20  2  0
 16 21  2  0
 16 22  1  0
 18 23  1  0
 18 24  1  0
 21 25  1  0
 22 26  2  0
 25 27  2  0
 26 27  1  0
M  END
