THO-SYG-4e0386bb-3-acrylamide
     RDKit          3D

 23 25  0  0  0  0  0  0  0  0999 V2000
    7.6360   -2.9380   18.3400 C   0  0  0  0  0  0  0  0  0  0  0  0
    6.7290   -2.2730   19.3460 C   0  0  0  0  0  0  0  0  0  0  0  0
    6.2410   -3.0840   20.5050 C   0  0  0  0  0  0  0  0  0  0  0  0
    5.2930   -3.9220   20.4420 O   0  0  0  0  0  0  0  0  0  0  0  0
    6.9510   -2.7710   21.6440 N   0  0  0  0  0  0  0  0  0  0  0  0
    6.3950   -2.7430   22.9810 C   0  0  0  0  0  0  0  0  0  0  0  0
    8.1710   -1.9440   21.5080 C   0  0  0  0  0  0  0  0  0  0  0  0
    7.4100   -3.4370   23.8730 C   0  0  0  0  0  0  0  0  0  0  0  0
    9.1400   -2.1210   22.6790 C   0  0  1  0  0  0  0  0  0  0  0  0
    6.8600   -4.4140   24.9430 C   0  0  0  0  0  0  0  0  0  0  0  0
    8.7740   -3.1840   23.7120 C   0  0  0  0  0  0  0  0  0  0  0  0
   10.6040   -1.8240   22.5100 C   0  0  0  0  0  0  0  0  0  0  0  0
    7.8910   -5.1050   25.8160 C   0  0  0  0  0  0  0  0  0  0  0  0
    9.6860   -3.8800   24.5030 C   0  0  0  0  0  0  0  0  0  0  0  0
   11.5280   -2.7360   22.2920 N   0  0  0  0  0  0  0  0  0  0  0  0
   11.2100   -0.5420   22.5750 C   0  0  0  0  0  0  0  0  0  0  0  0
    7.4820   -6.0260   26.9180 C   0  0  0  0  0  0  0  0  0  0  0  0
    9.2380   -4.8600   25.5790 C   0  0  0  0  0  0  0  0  0  0  0  0
   12.7450   -2.0800   22.2130 O   0  0  0  0  0  0  0  0  0  0  0  0
   12.5470   -0.7620   22.3870 C   0  0  0  0  0  0  0  0  0  0  0  0
   10.5970    0.7160   22.7890 C   0  0  0  0  0  0  0  0  0  0  0  0
    7.1140   -5.2680   28.0640 O   0  0  0  0  0  0  0  0  0  0  0  0
   10.0830    1.7450   22.9380 N   0  0  0  0  0  0  0  0  0  0  0  0
  1  2  1  0
  2  3  1  0
  3  4  2  0
  3  5  1  0
  5  6  1  0
  5  7  1  0
  6  8  1  0
  7  9  1  0
  8 10  1  0
  8 11  2  0
  9 11  1  0
  9 12  1  6
 10 13  2  0
 11 14  1  0
 12 15  2  0
 12 16  1  0
 13 17  1  0
 13 18  1  0
 14 18  2  0
 15 19  1  0
 16 20  2  0
 19 20  1  0
 16 21  1  0
 17 22  1  0
 21 23  3  0
M  END
