TOB-UNK-c2aba166-7-vinylsulfonamide
     RDKit          3D

 25 28  0  0  0  0  0  0  0  0999 V2000
    7.5710   -3.0190   19.1460 C   0  0  0  0  0  0  0  0  0  0  0  0
    6.2630   -3.4930   19.7950 C   0  0  0  0  0  0  0  0  0  0  0  0
    6.3570   -4.1710   21.4360 S   0  0  0  0  0  0  0  0  0  0  0  0
    4.9760   -4.2540   21.9000 O   0  0  0  0  0  0  0  0  0  0  0  0
    7.1740   -5.3660   21.4510 O   0  0  0  0  0  0  0  0  0  0  0  0
    7.2140   -3.0680   22.3380 N   0  0  0  0  0  0  0  0  0  0  0  0
    6.6230   -2.3140   23.3570 C   0  0  0  0  0  0  0  0  0  0  0  0
    8.7110   -3.2200   22.2770 C   0  0  0  0  0  0  0  0  0  0  0  0
    7.5390   -2.0520   24.5100 C   0  0  0  0  0  0  0  0  0  0  0  0
    9.4280   -2.9890   23.4760 C   0  0  2  0  0  0  0  0  0  0  0  0
    8.9760   -1.8250   24.0590 C   0  0  0  0  0  0  0  0  0  0  0  0
   10.9340   -2.6520   23.4910 C   0  0  0  0  0  0  0  0  0  0  0  0
   11.5200   -1.7390   22.5090 C   0  0  0  0  0  0  0  0  0  0  0  0
   12.0160   -2.9880   24.2760 N   0  0  0  0  0  0  0  0  0  0  0  0
   12.7760   -1.5230   22.6870 N   0  0  0  0  0  0  0  0  0  0  0  0
   13.1270   -2.3000   23.7820 N   0  0  0  0  0  0  0  0  0  0  0  0
   13.4430   -0.6310   21.8410 C   0  0  0  0  0  0  0  0  0  0  0  0
   13.7570    0.6880   22.1680 C   0  0  0  0  0  0  0  0  0  0  0  0
   13.8390   -1.0320   20.5560 C   0  0  0  0  0  0  0  0  0  0  0  0
   14.4300    1.6810   21.3170 C   0  0  0  0  0  0  0  0  0  0  0  0
   14.5200   -0.1100   19.5900 C   0  0  0  0  0  0  0  0  0  0  0  0
   14.7790    1.2290   20.0300 C   0  0  0  0  0  0  0  0  0  0  0  0
   14.9950   -0.2100   18.3470 N   0  0  0  0  0  0  0  0  0  0  0  0
   15.3930    1.9520   19.0590 N   0  0  0  0  0  0  0  0  0  0  0  0
   15.5360    1.0940   18.0330 C   0  0  0  0  0  0  0  0  0  0  0  0
  1  2  1  0
  3  2  1  0
  3  4  2  0
  3  5  2  0
  3  6  1  0
  6  7  1  0
  6  8  1  0
  7  9  1  0
  8 10  1  0
  9 11  1  0
 10 11  1  0
 10 12  1  6
 12 13  2  0
 12 14  1  0
 13 15  1  0
 14 16  2  0
 15 16  1  0
 15 17  1  0
 17 18  2  0
 17 19  1  0
 18 20  1  0
 19 21  2  0
 20 22  2  0
 21 22  1  0
 21 23  1  0
 22 24  1  0
 23 25  1  0
 24 25  2  0
M  END
