TOB-UNK-c2aba166-7-chloroacetamide
     RDKit          3D

 23 26  0  0  0  0  0  0  0  0999 V2000
    7.2520   -3.1130   18.9990 C   0  0  0  0  0  0  0  0  0  0  0  0
    5.9640   -3.0440   19.7180 C   0  0  0  0  0  0  0  0  0  0  0  0
    4.9990   -3.5950   19.2550 O   0  0  0  0  0  0  0  0  0  0  0  0
    6.0370   -2.4390   20.9280 N   0  0  0  0  0  0  0  0  0  0  0  0
    5.8980   -3.1620   22.1170 C   0  0  0  0  0  0  0  0  0  0  0  0
    7.0530   -1.4190   21.0200 C   0  0  0  0  0  0  0  0  0  0  0  0
    7.1210   -3.1390   23.0040 C   0  0  0  0  0  0  0  0  0  0  0  0
    7.0470   -0.8930   22.2900 C   0  0  1  0  0  0  0  0  0  0  0  0
    7.7520   -1.7610   23.1770 C   0  0  0  0  0  0  0  0  0  0  0  0
    7.7490    0.4050   22.4350 C   0  0  0  0  0  0  0  0  0  0  0  0
    9.0790    0.1430   22.6630 C   0  0  0  0  0  0  0  0  0  0  0  0
    7.6170    1.7800   22.4320 N   0  0  0  0  0  0  0  0  0  0  0  0
    9.7280    1.1480   22.8010 N   0  0  0  0  0  0  0  0  0  0  0  0
    8.9180    2.2620   22.6710 N   0  0  0  0  0  0  0  0  0  0  0  0
   10.9230    0.6570   23.0160 C   0  0  0  0  0  0  0  0  0  0  0  0
   12.1670    1.0980   22.7530 C   0  0  0  0  0  0  0  0  0  0  0  0
   10.7070   -0.5880   23.6310 C   0  0  0  0  0  0  0  0  0  0  0  0
   13.2700    0.2940   23.0870 C   0  0  0  0  0  0  0  0  0  0  0  0
   11.7440   -1.3910   23.9830 C   0  0  0  0  0  0  0  0  0  0  0  0
   12.9970   -0.9390   23.7060 C   0  0  0  0  0  0  0  0  0  0  0  0
   11.7780   -2.5770   24.5660 N   0  0  0  0  0  0  0  0  0  0  0  0
   13.8470   -1.8690   24.1300 N   0  0  0  0  0  0  0  0  0  0  0  0
   13.1690   -2.8930   24.6720 C   0  0  0  0  0  0  0  0  0  0  0  0
  1  2  1  0
  2  3  2  0
  2  4  1  0
  4  5  1  0
  4  6  1  0
  5  7  1  0
  6  8  1  0
  7  9  1  0
  8  9  1  0
  8 10  1  6
 10 11  2  0
 10 12  1  0
 11 13  1  0
 12 14  2  0
 13 14  1  0
 13 15  1  0
 15 16  2  0
 15 17  1  0
 16 18  1  0
 17 19  2  0
 18 20  2  0
 19 20  1  0
 19 21  1  0
 20 22  1  0
 21 23  1  0
 22 23  2  0
M  END
