TOB-UNK-c2aba166-5-nitrile
     RDKit          3D

 23 26  0  0  0  0  0  0  0  0999 V2000
    7.0210   -3.3330   19.5480 C   0  0  0  0  0  0  0  0  0  0  0  0
    6.0620   -3.1820   18.7180 N   0  0  0  0  0  0  0  0  0  0  0  0
    7.0260   -2.7770   20.7990 N   0  0  0  0  0  0  0  0  0  0  0  0
    7.7210   -1.5110   21.0030 C   0  0  0  0  0  0  0  0  0  0  0  0
    6.9420   -3.6030   22.0260 C   0  0  0  0  0  0  0  0  0  0  0  0
    8.9860   -1.7760   21.8150 C   0  0  0  0  0  0  0  0  0  0  0  0
    7.9320   -3.7260   23.0110 C   0  0  0  0  0  0  0  0  0  0  0  0
    8.6580   -2.4500   23.1010 N   0  0  0  0  0  0  0  0  0  0  0  0
    9.7940   -2.6030   24.0150 C   0  0  0  0  0  0  0  0  0  0  0  0
   11.0510   -2.0360   23.6830 C   0  0  0  0  0  0  0  0  0  0  0  0
   11.5430   -1.5030   22.5130 C   0  0  0  0  0  0  0  0  0  0  0  0
   12.0870   -1.9150   24.5800 N   0  0  0  0  0  0  0  0  0  0  0  0
   12.7520   -1.0850   22.6600 N   0  0  0  0  0  0  0  0  0  0  0  0
   13.1260   -1.3310   23.9490 N   0  0  0  0  0  0  0  0  0  0  0  0
   13.4650   -0.5080   21.6770 C   0  0  0  0  0  0  0  0  0  0  0  0
   13.8530    0.9210   21.8970 C   0  0  0  0  0  0  0  0  0  0  0  0
   13.8990   -1.1120   20.4670 C   0  0  0  0  0  0  0  0  0  0  0  0
   14.6050    1.7070   20.9910 C   0  0  0  0  0  0  0  0  0  0  0  0
   14.7100   -0.2950   19.4570 C   0  0  0  0  0  0  0  0  0  0  0  0
   15.0590    1.0740   19.6860 C   0  0  0  0  0  0  0  0  0  0  0  0
   15.3280   -0.4520   18.1920 N   0  0  0  0  0  0  0  0  0  0  0  0
   15.7440    1.6000   18.7100 N   0  0  0  0  0  0  0  0  0  0  0  0
   15.9350    0.6950   17.7690 C   0  0  0  0  0  0  0  0  0  0  0  0
  1  2  2  3
  1  3  1  0
  3  4  1  0
  3  5  1  0
  4  6  1  0
  5  7  1  0
  6  8  1  0
  7  8  1  0
  8  9  1  0
  9 10  1  0
 10 11  2  0
 10 12  1  0
 11 13  1  0
 12 14  2  0
 13 14  1  0
 13 15  1  0
 15 16  2  0
 15 17  1  0
 16 18  1  0
 17 19  2  0
 18 20  2  0
 19 20  1  0
 19 21  1  0
 20 22  1  0
 21 23  1  0
 22 23  2  0
M  END
