TOB-UNK-c2aba166-7-bromoalkyne
     RDKit          3D

 22 25  0  0  0  0  0  0  0  0999 V2000
    6.9100   -3.3420   19.8170 C   0  0  0  0  0  0  0  0  0  0  0  0
    6.2400   -2.7930   18.6000 C   0  0  0  0  0  0  0  0  0  0  0  0
    6.6100   -2.9070   21.0670 N   0  0  0  0  0  0  0  0  0  0  0  0
    6.1460   -3.6410   22.1650 C   0  0  0  0  0  0  0  0  0  0  0  0
    6.8470   -1.4660   21.3340 C   0  0  0  0  0  0  0  0  0  0  0  0
    6.9360   -3.3350   23.4020 C   0  0  0  0  0  0  0  0  0  0  0  0
    7.2570   -1.1770   22.6490 C   0  0  1  0  0  0  0  0  0  0  0  0
    7.9880   -2.2810   23.1190 C   0  0  0  0  0  0  0  0  0  0  0  0
    8.2880   -0.1180   22.8680 C   0  0  0  0  0  0  0  0  0  0  0  0
    9.5300   -0.7330   22.8110 C   0  0  0  0  0  0  0  0  0  0  0  0
    8.5370    1.2200   23.1070 N   0  0  0  0  0  0  0  0  0  0  0  0
   10.4450    0.0400   22.9770 N   0  0  0  0  0  0  0  0  0  0  0  0
    9.9440    1.3180   23.1760 N   0  0  0  0  0  0  0  0  0  0  0  0
   11.4690   -0.7880   22.8600 C   0  0  0  0  0  0  0  0  0  0  0  0
   12.6300   -1.0320   23.5360 C   0  0  0  0  0  0  0  0  0  0  0  0
   11.1250   -1.5580   21.7560 C   0  0  0  0  0  0  0  0  0  0  0  0
   13.4800   -2.0930   23.0930 C   0  0  0  0  0  0  0  0  0  0  0  0
   11.9200   -2.5560   21.3170 C   0  0  0  0  0  0  0  0  0  0  0  0
   13.0620   -2.8000   21.9720 C   0  0  0  0  0  0  0  0  0  0  0  0
   11.7750   -3.3840   20.3120 N   0  0  0  0  0  0  0  0  0  0  0  0
   13.6640   -3.8180   21.3360 N   0  0  0  0  0  0  0  0  0  0  0  0
   12.9190   -4.2120   20.3200 C   0  0  0  0  0  0  0  0  0  0  0  0
  1  2  2  3
  1  3  1  0
  3  4  1  0
  3  5  1  0
  4  6  1  0
  5  7  1  0
  6  8  1  0
  7  8  1  0
  7  9  1  6
  9 10  2  0
  9 11  1  0
 10 12  1  0
 11 13  2  0
 12 13  1  0
 12 14  1  0
 14 15  2  0
 14 16  1  0
 15 17  1  0
 16 18  2  0
 17 19  2  0
 18 19  1  0
 18 20  1  0
 19 21  1  0
 20 22  1  0
 21 22  2  0
M  END
