TOM-OIS-cbf37265-3
     RDKit          3D

 23 25  0  0  0  0  0  0  0  0999 V2000
   12.8720   -4.3090   20.1140 C   0  0  0  0  0  0  0  0  0  0  0  0
   13.5690   -3.2550   20.7410 N   0  0  0  0  0  0  0  0  0  0  0  0
   12.8120   -2.6470   22.0810 S   0  0  0  0  0  0  0  0  0  0  0  0
   11.4040   -2.7700   21.7810 O   0  0  0  0  0  0  0  0  0  0  0  0
   13.4340   -3.0570   23.3170 O   0  0  0  0  0  0  0  0  0  0  0  0
   13.0380   -0.9800   21.9380 C   0  0  0  0  0  0  0  0  0  0  0  0
   13.2770   -0.3680   23.0920 C   0  0  0  0  0  0  0  0  0  0  0  0
   12.1660    0.3210   23.4150 C   0  0  0  0  0  0  0  0  0  0  0  0
   10.9880   -0.3600   23.7120 C   0  0  0  0  0  0  0  0  0  0  0  0
   12.2730    1.7170   23.4110 C   0  0  0  0  0  0  0  0  0  0  0  0
    9.6950    0.3400   24.0550 C   0  0  0  0  0  0  0  0  0  0  0  0
   11.1920    2.4980   23.7130 C   0  0  0  0  0  0  0  0  0  0  0  0
    9.9580    1.8080   24.0130 C   0  0  0  0  0  0  0  0  0  0  0  0
   10.9550    3.8920   23.8220 C   0  0  0  0  0  0  0  0  0  0  0  0
    8.8700    2.6930   24.3050 N   0  0  0  0  0  0  0  0  0  0  0  0
    9.6510    3.8080   24.1410 C   0  0  0  0  0  0  0  0  0  0  0  0
   11.8260    4.9850   23.6610 C   0  0  0  0  0  0  0  0  0  0  0  0
   11.8250    5.9720   24.6380 C   0  0  0  0  0  0  0  0  0  0  0  0
   11.5470    5.7750   22.4170 C   0  0  0  0  0  0  0  0  0  0  0  0
   10.5350    6.7560   24.7750 C   0  0  0  0  0  0  0  0  0  0  0  0
   10.2500    6.3600   22.4880 C   0  0  0  0  0  0  0  0  0  0  0  0
    9.9900    7.1130   23.6000 N   0  0  0  0  0  0  0  0  0  0  0  0
    8.8010    7.7380   23.5840 C   0  0  0  0  0  0  0  0  0  0  0  0
  1  2  1  0
  3  2  1  0
  3  4  2  0
  3  5  2  0
  3  6  1  0
  6  7  1  0
  7  8  1  0
  8  9  2  0
  8 10  1  0
  9 11  1  0
 10 12  2  0
 11 13  2  0
 12 13  1  0
 12 14  1  0
 13 15  1  0
 14 16  2  0
 15 16  1  0
 14 17  1  0
 17 18  1  0
 17 19  1  0
 18 20  1  0
 19 21  1  0
 20 22  1  0
 21 22  1  0
 22 23  1  0
M  END
