TOM-OIS-cbf37265-2
     RDKit          3D

 20 21  0  0  0  0  0  0  0  0999 V2000
   14.9100   -5.0260   20.6620 C   0  0  0  0  0  0  0  0  0  0  0  0
   13.6960   -4.2310   20.3710 N   0  0  0  0  0  0  0  0  0  0  0  0
   13.1310   -2.7340   21.0230 S   0  0  0  0  0  0  0  0  0  0  0  0
   11.7110   -2.8510   20.8500 O   0  0  0  0  0  0  0  0  0  0  0  0
   13.8420   -1.6020   20.4730 O   0  0  0  0  0  0  0  0  0  0  0  0
   13.2840   -2.4340   22.7460 C   0  0  0  0  0  0  0  0  0  0  0  0
   12.4290   -1.3730   22.8990 C   0  0  0  0  0  0  0  0  0  0  0  0
   11.0950   -1.6980   23.1300 C   0  0  0  0  0  0  0  0  0  0  0  0
   12.7990    0.0250   22.8230 C   0  0  0  0  0  0  0  0  0  0  0  0
   10.1580   -0.7410   23.2780 C   0  0  0  0  0  0  0  0  0  0  0  0
   11.8650    1.0670   22.9700 C   0  0  0  0  0  0  0  0  0  0  0  0
   10.5600    0.6840   23.1920 C   0  0  0  0  0  0  0  0  0  0  0  0
   11.7310    2.5140   22.9780 C   0  0  0  0  0  0  0  0  0  0  0  0
    9.5750    1.6020   23.3470 N   0  0  0  0  0  0  0  0  0  0  0  0
   10.2360    2.7700   23.2250 C   0  0  0  0  0  0  0  0  0  0  0  0
   12.5820    3.5910   22.8280 C   0  0  0  0  0  0  0  0  0  0  0  0
   12.1870    4.7190   23.5410 C   0  0  0  0  0  0  0  0  0  0  0  0
   11.2650    5.4300   22.9310 N   0  0  0  0  0  0  0  0  0  0  0  0
   11.8530    6.0390   21.9280 C   0  0  0  0  0  0  0  0  0  0  0  0
   10.3620    6.1090   23.7470 C   0  0  0  0  0  0  0  0  0  0  0  0
  1  2  1  0
  3  2  1  0
  3  4  2  0
  3  5  2  0
  3  6  1  0
  6  7  1  0
  7  8  2  0
  7  9  1  0
  8 10  1  0
  9 11  2  0
 10 12  2  0
 11 12  1  0
 11 13  1  0
 12 14  1  0
 13 15  2  0
 14 15  1  0
 13 16  1  0
 16 17  1  0
 17 18  1  0
 18 19  1  0
 18 20  1  0
M  END
