TRY-UNI-9f475305-11
     RDKit          3D

 23 24  0  0  0  0  0  0  0  0999 V2000
    9.1280    0.1950   25.2410 C   0  0  0  0  0  0  0  0  0  0  0  0
    9.9390   -0.9610   25.0480 C   0  0  0  0  0  0  0  0  0  0  0  0
    9.4100   -2.0680   25.0490 O   0  0  0  0  0  0  0  0  0  0  0  0
   11.3000   -0.7330   24.8680 N   0  0  0  0  0  0  0  0  0  0  0  0
   11.9500   -1.0310   23.5700 C   0  0  1  0  0  0  0  0  0  0  0  0
   12.7710   -0.0010   23.0770 C   0  0  0  0  0  0  0  0  0  0  0  0
   12.7440   -2.3210   23.7240 C   0  0  0  0  0  0  0  0  0  0  0  0
   12.1820    1.3820   23.2340 C   0  0  0  0  0  0  0  0  0  0  0  0
   13.9350   -2.4950   23.1250 O   0  0  0  0  0  0  0  0  0  0  0  0
   12.0340   -3.2850   24.5330 N   0  0  0  0  0  0  0  0  0  0  0  0
   10.8150    1.5030   23.7990 C   0  0  0  0  0  0  0  0  0  0  0  0
   12.8020    2.5880   22.8930 C   0  0  0  0  0  0  0  0  0  0  0  0
   10.7080   -3.7030   24.3550 C   0  0  0  0  0  0  0  0  0  0  0  0
   10.2560    2.7530   23.9520 C   0  0  0  0  0  0  0  0  0  0  0  0
   12.1790    3.8150   23.0690 C   0  0  0  0  0  0  0  0  0  0  0  0
    9.7920   -3.2970   23.2110 C   0  0  0  0  0  0  0  0  0  0  0  0
   10.2540   -4.5520   25.3470 C   0  0  0  0  0  0  0  0  0  0  0  0
   10.9370    3.9200   23.5850 C   0  0  0  0  0  0  0  0  0  0  0  0
    8.4680   -3.7620   23.1290 C   0  0  0  0  0  0  0  0  0  0  0  0
    8.8590   -5.0700   25.3460 C   0  0  0  0  0  0  0  0  0  0  0  0
   10.4390    5.0400   23.7210 O   0  0  0  0  0  0  0  0  0  0  0  0
    7.9440   -4.6680   24.2010 C   0  0  0  0  0  0  0  0  0  0  0  0
    8.3590   -6.0710   26.6400 Cl  0  0  0  0  0  0  0  0  0  0  0  0
  1  2  1  0
  2  3  2  0
  2  4  1  0
  4  5  1  0
  5  6  1  1
  5  7  1  0
  6  8  1  0
  7  9  2  0
  7 10  1  0
  8 11  2  0
  8 12  1  0
 10 13  1  0
 11 14  1  0
 12 15  2  0
 13 16  2  0
 13 17  1  0
 14 18  2  0
 15 18  1  0
 16 19  1  0
 17 20  2  0
 18 21  1  0
 19 22  2  0
 20 22  1  0
 20 23  1  0
M  END
