TRY-UNI-714a760b-8
     RDKit          3D

 18 19  0  0  0  0  0  0  0  0999 V2000
    4.6040    0.8200   21.7320 C   0  0  0  0  0  0  0  0  0  0  0  0
    5.1670    0.6350   20.3370 C   0  0  0  0  0  0  0  0  0  0  0  0
    4.5440    1.2340   19.2130 C   0  0  0  0  0  0  0  0  0  0  0  0
    6.3350   -0.1380   20.1430 C   0  0  0  0  0  0  0  0  0  0  0  0
    3.4410    1.9810   19.2820 N   0  0  0  0  0  0  0  0  0  0  0  0
    5.0550    1.0880   17.9140 C   0  0  0  0  0  0  0  0  0  0  0  0
    6.7780   -0.2420   18.7200 C   0  0  0  0  0  0  0  0  0  0  0  0
    7.0330   -0.7420   21.2030 N   0  0  0  0  0  0  0  0  0  0  0  0
    6.1650    0.3490   17.6450 N   0  0  0  0  0  0  0  0  0  0  0  0
    8.2850   -0.2950   21.5610 C   0  0  0  0  0  0  0  0  0  0  0  0
    8.6780    0.8660   21.3690 O   0  0  0  0  0  0  0  0  0  0  0  0
    9.0560   -1.2610   22.1400 N   0  0  0  0  0  0  0  0  0  0  0  0
   10.3800   -0.9620   22.3970 C   0  0  0  0  0  0  0  0  0  0  0  0
   10.7480    0.2340   23.0310 C   0  0  0  0  0  0  0  0  0  0  0  0
   11.3830   -1.8690   21.9890 C   0  0  0  0  0  0  0  0  0  0  0  0
   12.0510    0.5610   23.2650 C   0  0  0  0  0  0  0  0  0  0  0  0
   12.7430   -1.5860   22.2030 C   0  0  0  0  0  0  0  0  0  0  0  0
   13.0790   -0.4000   22.8260 C   0  0  0  0  0  0  0  0  0  0  0  0
  1  2  1  0
  2  3  2  0
  2  4  1  0
  3  5  1  0
  3  6  1  0
  4  7  2  0
  4  8  1  0
  6  9  2  0
  7  9  1  0
  8 10  1  0
 10 11  2  0
 10 12  1  0
 12 13  1  0
 13 14  2  0
 13 15  1  0
 14 16  1  0
 15 17  2  0
 16 18  2  0
 17 18  1  0
M  END
