TRY-UNI-714a760b-6
     RDKit          3D

 18 19  0  0  0  0  0  0  0  0999 V2000
    5.3450    1.2010   21.9870 C   0  0  0  0  0  0  0  0  0  0  0  0
    5.7240    0.8180   20.5900 C   0  0  0  0  0  0  0  0  0  0  0  0
    4.8750    1.1900   19.5340 C   0  0  0  0  0  0  0  0  0  0  0  0
    6.8990    0.0990   20.3100 C   0  0  0  0  0  0  0  0  0  0  0  0
    5.2170    0.8370   18.2470 C   0  0  0  0  0  0  0  0  0  0  0  0
    7.1300   -0.2080   18.9760 C   0  0  0  0  0  0  0  0  0  0  0  0
    7.7670   -0.2610   21.3730 N   0  0  0  0  0  0  0  0  0  0  0  0
    6.3180    0.1490   17.9540 N   0  0  0  0  0  0  0  0  0  0  0  0
    8.7650    0.5450   21.9210 C   0  0  0  0  0  0  0  0  0  0  0  0
    9.2090    1.5700   21.3860 O   0  0  0  0  0  0  0  0  0  0  0  0
    9.3110    0.0840   23.2900 C   0  0  0  0  0  0  0  0  0  0  0  0
   10.6330   -0.6740   23.2590 C   0  0  0  0  0  0  0  0  0  0  0  0
   11.1300   -1.0860   22.0320 C   0  0  0  0  0  0  0  0  0  0  0  0
   11.3790   -0.9900   24.4190 C   0  0  0  0  0  0  0  0  0  0  0  0
   12.3310   -1.7780   21.9130 C   0  0  0  0  0  0  0  0  0  0  0  0
   12.5830   -1.7040   24.2700 C   0  0  0  0  0  0  0  0  0  0  0  0
   13.0500   -2.0800   23.0410 C   0  0  0  0  0  0  0  0  0  0  0  0
   13.5740   -2.2010   25.5540 Cl  0  0  0  0  0  0  0  0  0  0  0  0
  1  2  1  0
  2  3  2  0
  2  4  1  0
  3  5  1  0
  4  6  2  0
  4  7  1  0
  5  8  2  0
  6  8  1  0
  7  9  1  0
  9 10  2  0
  9 11  1  0
 11 12  1  0
 12 13  2  0
 12 14  1  0
 13 15  1  0
 14 16  2  0
 15 17  2  0
 16 17  1  0
 16 18  1  0
M  END
