TRY-UNI-69298daf-5-chloroacetamide
     RDKit          3D

 25 27  0  0  0  0  0  0  0  0999 V2000
    9.1020   -4.2310   20.3320 C   0  0  0  0  0  0  0  0  0  0  0  0
    8.0330   -5.0970   20.7580 C   0  0  0  0  0  0  0  0  0  0  0  0
    7.1380   -5.5390   19.8660 O   0  0  0  0  0  0  0  0  0  0  0  0
    7.8240   -5.6230   22.0510 N   0  0  0  0  0  0  0  0  0  0  0  0
    6.6190   -6.4230   21.7860 C   0  0  0  0  0  0  0  0  0  0  0  0
    8.9990   -6.1450   22.9980 C   0  0  0  0  0  0  0  0  0  0  0  0
    6.3380   -7.6920   22.1280 O   0  0  0  0  0  0  0  0  0  0  0  0
    5.7450   -5.5780   20.9220 C   0  0  0  0  0  0  0  0  0  0  0  0
    8.5910   -7.4660   22.4890 C   0  0  0  0  0  0  0  0  0  0  0  0
    9.8190   -7.3620   23.5590 C   0  0  0  0  0  0  0  0  0  0  0  0
    5.7530   -4.1340   21.3790 C   0  0  0  0  0  0  0  0  0  0  0  0
    9.5680   -8.2710   23.2740 C   0  0  0  0  0  0  0  0  0  0  0  0
   10.7200   -8.2250   24.2170 N   0  0  0  0  0  0  0  0  0  0  0  0
    7.2360   -4.2650   21.4950 C   0  0  0  0  0  0  0  0  0  0  0  0
    4.7150   -2.9280   21.6850 C   0  0  0  0  0  0  0  0  0  0  0  0
   10.2480   -9.4630   23.7240 C   0  0  0  0  0  0  0  0  0  0  0  0
    6.7220   -3.0600   21.7710 C   0  0  0  0  0  0  0  0  0  0  0  0
    5.0100   -1.5460   22.0750 C   0  0  0  0  0  0  0  0  0  0  0  0
    6.3620   -1.7110   22.1110 C   0  0  0  0  0  0  0  0  0  0  0  0
    5.2940   -0.4610   22.3740 O   0  0  0  0  0  0  0  0  0  0  0  0
    5.0000   -0.1280   23.7610 C   0  0  2  0  0  0  0  0  0  0  0  0
    5.2510    1.0930   24.1940 C   0  0  0  0  0  0  0  0  0  0  0  0
    5.8470   -0.8140   24.6300 N   0  0  0  0  0  0  0  0  0  0  0  0
    6.1130    0.6590   25.1910 C   0  0  0  0  0  0  0  0  0  0  0  0
    6.1550    1.8730   25.5120 O   0  0  0  0  0  0  0  0  0  0  0  0
  1  2  1  0
  2  3  2  0
  2  4  1  0
  4  5  1  0
  4  6  1  0
  5  7  2  0
  5  8  1  0
  6  9  2  0
  6 10  1  0
  8 11  1  0
  9 12  1  0
 10 13  2  0
 11 14  2  0
 11 15  1  0
 12 16  2  0
 13 16  1  0
 14 17  1  0
 15 18  2  0
 17 19  2  0
 18 19  1  0
 18 20  1  0
 21 20  1  6
 21 22  1  0
 21 23  1  0
 22 24  1  0
 23 24  1  0
 24 25  2  0
M  END
