TRY-UNI-69298daf-6-bromoalkyne
     RDKit          3D

 26 28  0  0  0  0  0  0  0  0999 V2000
    7.1630   -3.2920   19.8960 C   0  0  0  0  0  0  0  0  0  0  0  0
    5.7980   -3.5190   19.1820 C   0  0  0  0  0  0  0  0  0  0  0  0
    7.2280   -2.9740   21.2610 N   0  0  0  0  0  0  0  0  0  0  0  0
    7.4600   -1.5770   21.6140 C   0  0  0  0  0  0  0  0  0  0  0  0
    7.7660   -3.8400   22.1260 C   0  0  0  0  0  0  0  0  0  0  0  0
    6.6000   -0.7040   21.6860 O   0  0  0  0  0  0  0  0  0  0  0  0
    8.9320   -1.1910   21.9150 C   0  0  0  0  0  0  0  0  0  0  0  0
    7.9490   -5.2140   22.6200 C   0  0  0  0  0  0  0  0  0  0  0  0
    8.4850   -4.1420   23.1040 C   0  0  0  0  0  0  0  0  0  0  0  0
    9.6900   -2.4260   22.3720 C   0  0  0  0  0  0  0  0  0  0  0  0
    8.8230   -5.7950   23.8160 C   0  0  0  0  0  0  0  0  0  0  0  0
    8.0260   -5.4960   22.7800 N   0  0  0  0  0  0  0  0  0  0  0  0
   10.4300   -1.2250   22.4610 C   0  0  0  0  0  0  0  0  0  0  0  0
   10.8960   -2.3380   22.7970 C   0  0  0  0  0  0  0  0  0  0  0  0
    8.2380   -6.7160   23.2490 C   0  0  0  0  0  0  0  0  0  0  0  0
   11.5360   -2.2750   23.0210 C   0  0  0  0  0  0  0  0  0  0  0  0
   11.4460   -0.9020   22.7860 C   0  0  0  0  0  0  0  0  0  0  0  0
   13.0280   -2.1970   23.5520 C   0  0  0  0  0  0  0  0  0  0  0  0
   12.5500   -1.2200   23.2310 C   0  0  0  0  0  0  0  0  0  0  0  0
   10.9630    0.4030   22.4250 O   0  0  0  0  0  0  0  0  0  0  0  0
   13.0110   -2.6870   24.8290 N   0  0  0  0  0  0  0  0  0  0  0  0
   11.2190    1.3850   23.4200 C   0  0  2  0  0  0  0  0  0  0  0  0
   10.1260    2.0460   23.8560 C   0  0  0  0  0  0  0  0  0  0  0  0
   11.8490    2.5530   22.9380 N   0  0  0  0  0  0  0  0  0  0  0  0
   10.7860    3.3360   23.4220 C   0  0  0  0  0  0  0  0  0  0  0  0
   10.4260    4.5030   23.5220 O   0  0  0  0  0  0  0  0  0  0  0  0
  1  2  2  3
  1  3  1  0
  3  4  1  0
  3  5  1  0
  4  6  2  0
  4  7  1  0
  5  8  2  0
  5  9  1  0
  7 10  1  0
  8 11  1  0
  9 12  2  0
 10 13  2  0
 10 14  1  0
 11 15  2  0
 12 15  1  0
 13 16  1  0
 14 17  2  0
 16 18  1  0
 16 19  2  0
 17 19  1  0
 17 20  1  0
 18 21  3  0
 22 20  1  6
 22 23  1  0
 22 24  1  0
 23 25  1  0
 24 25  1  0
 25 26  2  0
M  END
