TRY-UNI-9f475305-2
     RDKit          3D

 26 28  0  0  0  0  0  0  0  0999 V2000
   13.6190    0.6880   22.3660 C   0  0  0  0  0  0  0  0  0  0  0  0
   12.8030    1.7610   22.7130 C   0  0  0  0  0  0  0  0  0  0  0  0
   11.5750    1.5900   23.3790 C   0  0  0  0  0  0  0  0  0  0  0  0
   13.1030    3.3270   22.4360 C   0  0  0  0  0  0  0  0  0  0  0  0
   10.7350    2.5950   23.7570 C   0  0  0  0  0  0  0  0  0  0  0  0
   12.0110    4.0970   22.9800 C   0  0  0  0  0  0  0  0  0  0  0  0
   14.1760    3.1540   21.8630 N   0  0  0  0  0  0  0  0  0  0  0  0
   11.0340    3.8570   23.5190 N   0  0  0  0  0  0  0  0  0  0  0  0
   15.3060    4.0250   21.6310 C   0  0  0  0  0  0  0  0  0  0  0  0
   15.7840    4.7210   22.5100 O   0  0  0  0  0  0  0  0  0  0  0  0
   15.8870    4.0750   20.2860 C   0  0  0  0  0  0  0  0  0  0  0  0
   17.1950    4.8200   20.0580 C   0  0  2  0  0  0  0  0  0  0  0  0
   18.0990    5.0390   21.1570 C   0  0  0  0  0  0  0  0  0  0  0  0
   17.3870    6.0150   19.0010 N   0  0  0  0  0  0  0  0  0  0  0  0
   17.9190    4.5110   22.5450 C   0  0  0  0  0  0  0  0  0  0  0  0
   19.3520    5.7720   21.1780 C   0  0  0  0  0  0  0  0  0  0  0  0
   18.6050    6.8210   18.7520 C   0  0  0  0  0  0  0  0  0  0  0  0
   16.5320    6.4300   17.8820 C   0  0  0  0  0  0  0  0  0  0  0  0
   19.1560    4.9200   23.6350 S   0  0  0  0  0  0  0  0  0  0  0  0
   19.9960    5.7780   22.4280 C   0  0  0  0  0  0  0  0  0  0  0  0
   18.3540    8.2110   18.4650 C   0  0  0  0  0  0  0  0  0  0  0  0
   17.2610    6.8980   16.8630 C   0  0  0  0  0  0  0  0  0  0  0  0
   21.3060    6.4870   22.6370 C   0  0  0  0  0  0  0  0  0  0  0  0
   18.4630    7.3520   17.2410 C   0  0  0  0  0  0  0  0  0  0  0  0
   22.5860    7.1500   22.8830 N   0  0  0  0  0  0  0  0  0  0  0  0
   18.8830    8.1860   16.1630 O   0  0  0  0  0  0  0  0  0  0  0  0
  1  2  1  0
  2  3  2  0
  2  4  1  0
  3  5  1  0
  4  6  2  0
  4  7  1  0
  5  8  2  0
  6  8  1  0
  7  9  1  0
  9 10  2  0
  9 11  1  0
 12 11  1  1
 12 13  1  0
 12 14  1  0
 13 15  2  0
 13 16  1  0
 14 17  1  0
 14 18  1  0
 15 19  1  0
 16 20  2  0
 19 20  1  0
 17 21  1  0
 18 22  1  0
 20 23  1  0
 21 24  1  0
 22 24  1  0
 23 25  3  0
 24 26  1  0
M  END
