TRY-UNI-69298daf-5-bromoalkyne
     RDKit          3D

 24 26  0  0  0  0  0  0  0  0999 V2000
    7.3090   -2.1310   19.4730 C   0  0  0  0  0  0  0  0  0  0  0  0
    5.9120   -2.4070   18.8970 C   0  0  0  0  0  0  0  0  0  0  0  0
    7.6320   -1.1930   20.6820 N   0  0  0  0  0  0  0  0  0  0  0  0
    7.8470    0.3700   20.7400 C   0  0  0  0  0  0  0  0  0  0  0  0
    7.4510   -1.7860   22.0050 C   0  0  0  0  0  0  0  0  0  0  0  0
    7.5610    1.0710   19.7820 O   0  0  0  0  0  0  0  0  0  0  0  0
    8.3690    1.2540   21.9970 C   0  0  0  0  0  0  0  0  0  0  0  0
    8.5560   -2.5570   22.6360 C   0  0  0  0  0  0  0  0  0  0  0  0
    6.2580   -1.6800   22.7350 C   0  0  0  0  0  0  0  0  0  0  0  0
    9.6260    0.7380   22.6560 C   0  0  0  0  0  0  0  0  0  0  0  0
    8.3750   -3.1790   23.9710 C   0  0  0  0  0  0  0  0  0  0  0  0
    6.0330   -2.2250   23.9630 N   0  0  0  0  0  0  0  0  0  0  0  0
   10.4750    1.8910   22.3330 C   0  0  0  0  0  0  0  0  0  0  0  0
   10.0430   -0.4070   23.3760 C   0  0  0  0  0  0  0  0  0  0  0  0
    7.0210   -2.9370   24.5600 C   0  0  0  0  0  0  0  0  0  0  0  0
   11.8420    1.8570   22.6980 C   0  0  0  0  0  0  0  0  0  0  0  0
   11.3390   -0.4120   23.7280 C   0  0  0  0  0  0  0  0  0  0  0  0
   12.2820    0.5580   23.4460 C   0  0  0  0  0  0  0  0  0  0  0  0
   11.7200   -1.4720   24.4560 O   0  0  0  0  0  0  0  0  0  0  0  0
   12.2350   -2.5620   23.8850 C   0  0  1  0  0  0  0  0  0  0  0  0
   13.5880   -2.5270   24.0920 C   0  0  0  0  0  0  0  0  0  0  0  0
   11.9100   -3.5310   24.8020 N   0  0  0  0  0  0  0  0  0  0  0  0
   13.3290   -3.3040   25.1280 C   0  0  0  0  0  0  0  0  0  0  0  0
   14.2930   -3.6580   26.1120 O   0  0  0  0  0  0  0  0  0  0  0  0
  1  2  2  3
  1  3  1  0
  3  4  1  0
  3  5  1  0
  4  6  2  0
  4  7  1  0
  5  8  2  0
  5  9  1  0
  7 10  1  0
  8 11  1  0
  9 12  2  0
 10 13  2  0
 10 14  1  0
 11 15  2  0
 12 15  1  0
 13 16  1  0
 14 17  2  0
 16 18  2  0
 17 18  1  0
 17 19  1  0
 20 19  1  1
 20 21  1  0
 20 22  1  0
 21 23  1  0
 22 23  1  0
 23 24  2  0
M  END
