TRY-UNI-9f475305-12-chloroacetamide
     RDKit          3D

 31 34  0  0  0  0  0  0  0  0999 V2000
    7.6520   -3.9950   21.0380 C   0  0  0  0  0  0  0  0  0  0  0  0
    7.7540   -2.6040   20.3960 C   0  0  0  0  0  0  0  0  0  0  0  0
    7.0690   -2.7030   19.1490 O   0  0  0  0  0  0  0  0  0  0  0  0
    8.6460   -1.4760   21.3320 N   0  0  0  0  0  0  0  0  0  0  0  0
   10.1550   -1.6230   21.4280 C   0  0  0  0  0  0  0  0  0  0  0  0
    8.3750   -0.0860   22.1050 C   0  0  2  0  0  0  0  0  0  0  0  0
   10.9060   -1.2180   22.5100 C   0  0  0  0  0  0  0  0  0  0  0  0
    9.7290    0.7470   22.5370 C   0  0  2  0  0  0  0  0  0  0  0  0
    7.2530   -0.1360   23.1600 C   0  0  0  0  0  0  0  0  0  0  0  0
   11.9920   -2.1010   23.0190 C   0  0  0  0  0  0  0  0  0  0  0  0
   10.6870   -0.0180   23.1100 C   0  0  0  0  0  0  0  0  0  0  0  0
    9.7080    2.1960   23.0170 C   0  0  0  0  0  0  0  0  0  0  0  0
    6.3250    0.6650   23.1510 O   0  0  0  0  0  0  0  0  0  0  0  0
    7.4080   -1.1600   24.0910 N   0  0  0  0  0  0  0  0  0  0  0  0
   12.7820   -1.7280   24.1790 C   0  0  0  0  0  0  0  0  0  0  0  0
   11.3800    0.3570   24.1610 C   0  0  0  0  0  0  0  0  0  0  0  0
    8.5400    2.7330   23.7890 C   0  0  0  0  0  0  0  0  0  0  0  0
   10.7910    3.0490   22.7250 C   0  0  0  0  0  0  0  0  0  0  0  0
    6.9200   -2.4850   24.0020 C   0  0  0  0  0  0  0  0  0  0  0  0
   12.4470   -0.5200   24.7220 C   0  0  0  0  0  0  0  0  0  0  0  0
    8.5330    4.1690   24.2360 C   0  0  0  0  0  0  0  0  0  0  0  0
   10.8120    4.3930   23.1250 C   0  0  0  0  0  0  0  0  0  0  0  0
    5.4370   -2.8510   24.1690 C   0  0  0  0  0  0  0  0  0  0  0  0
    7.8500   -3.5040   23.7480 C   0  0  0  0  0  0  0  0  0  0  0  0
    9.6320    4.9860   23.9180 C   0  0  0  0  0  0  0  0  0  0  0  0
   11.9970    5.2580   22.7680 C   0  0  0  0  0  0  0  0  0  0  0  0
    5.0910   -4.2690   24.0480 N   0  0  0  0  0  0  0  0  0  0  0  0
    7.4170   -4.8440   23.6470 C   0  0  0  0  0  0  0  0  0  0  0  0
    9.3090   -3.1970   23.5790 C   0  0  0  0  0  0  0  0  0  0  0  0
   12.8890    5.9360   22.4580 N   0  0  0  0  0  0  0  0  0  0  0  0
    6.0640   -5.1630   23.8010 C   0  0  0  0  0  0  0  0  0  0  0  0
  1  2  1  0
  2  3  2  0
  2  4  1  0
  4  5  1  0
  4  6  1  0
  5  7  1  0
  6  8  1  0
  6  9  1  1
  7 10  1  0
  7 11  2  0
  8 11  1  0
  8 12  1  1
  9 13  2  0
  9 14  1  0
 10 15  2  0
 11 16  1  0
 12 17  2  0
 12 18  1  0
 14 19  1  0
 15 20  1  0
 16 20  2  0
 17 21  1  0
 18 22  2  0
 19 23  2  0
 19 24  1  0
 21 25  2  0
 22 25  1  0
 22 26  1  0
 23 27  1  0
 24 28  2  0
 24 29  1  0
 26 30  3  0
 27 31  2  0
 28 31  1  0
M  END
