TRY-UNI-69298daf-3-chloroacetamide
     RDKit          3D

 25 27  0  0  0  0  0  0  0  0999 V2000
    7.1430   -2.8500   19.0590 C   0  0  0  0  0  0  0  0  0  0  0  0
    5.7870   -2.3280   19.6960 C   0  0  0  0  0  0  0  0  0  0  0  0
    5.2960   -3.4260   19.3550 O   0  0  0  0  0  0  0  0  0  0  0  0
    6.5780   -1.1610   19.9700 N   0  0  0  0  0  0  0  0  0  0  0  0
    7.5280   -1.1830   21.0690 C   0  0  0  0  0  0  0  0  0  0  0  0
    5.8620    0.1350   20.0010 C   0  0  0  0  0  0  0  0  0  0  0  0
    8.1010   -2.2920   21.6130 O   0  0  0  0  0  0  0  0  0  0  0  0
    7.9000    0.1840   21.6810 C   0  0  0  0  0  0  0  0  0  0  0  0
    6.4330    1.4300   20.4690 C   0  0  0  0  0  0  0  0  0  0  0  0
    4.5550    0.2940   19.6000 C   0  0  0  0  0  0  0  0  0  0  0  0
    9.1330   -0.0700   22.4690 C   0  0  0  0  0  0  0  0  0  0  0  0
    5.7530    2.6440   20.5110 N   0  0  0  0  0  0  0  0  0  0  0  0
    3.8750    1.4780   19.6290 N   0  0  0  0  0  0  0  0  0  0  0  0
    8.3540   -1.0480   23.2300 C   0  0  0  0  0  0  0  0  0  0  0  0
   10.5440    0.3090   22.6200 C   0  0  0  0  0  0  0  0  0  0  0  0
    4.5170    2.5810   20.0820 C   0  0  0  0  0  0  0  0  0  0  0  0
    9.0280   -1.7190   24.2160 C   0  0  0  0  0  0  0  0  0  0  0  0
   11.2140   -0.3690   23.5940 C   0  0  0  0  0  0  0  0  0  0  0  0
   10.5570   -1.3340   24.3840 C   0  0  0  0  0  0  0  0  0  0  0  0
   12.3830   -0.0750   23.6890 O   0  0  0  0  0  0  0  0  0  0  0  0
   13.1400   -1.2150   23.4030 C   0  0  2  0  0  0  0  0  0  0  0  0
   12.4260   -2.3350   23.0080 C   0  0  0  0  0  0  0  0  0  0  0  0
   13.5890   -1.7790   24.6230 N   0  0  0  0  0  0  0  0  0  0  0  0
   12.5690   -2.7570   24.2690 C   0  0  0  0  0  0  0  0  0  0  0  0
   11.9640   -3.6370   24.8370 O   0  0  0  0  0  0  0  0  0  0  0  0
  1  2  1  0
  2  3  2  0
  2  4  1  0
  4  5  1  0
  4  6  1  0
  5  7  2  0
  5  8  1  0
  6  9  2  0
  6 10  1  0
  8 11  1  0
  9 12  1  0
 10 13  2  0
 11 14  2  0
 11 15  1  0
 12 16  2  0
 13 16  1  0
 14 17  1  0
 15 18  2  0
 17 19  2  0
 18 19  1  0
 18 20  1  0
 21 20  1  1
 21 22  1  0
 21 23  1  0
 22 24  1  0
 23 24  1  0
 24 25  2  0
M  END
