TRY-UNI-69298daf-5-vinylsulfonamide
     RDKit          3D

 27 29  0  0  0  0  0  0  0  0999 V2000
    6.7380   -4.6780   20.5910 C   0  0  0  0  0  0  0  0  0  0  0  0
    6.7060   -3.4280   19.7240 C   0  0  0  0  0  0  0  0  0  0  0  0
    5.0140   -2.9110   19.6190 S   0  0  0  0  0  0  0  0  0  0  0  0
    4.5240   -2.7040   20.9580 O   0  0  0  0  0  0  0  0  0  0  0  0
    4.3960   -3.8540   18.7260 O   0  0  0  0  0  0  0  0  0  0  0  0
    5.1410   -1.4210   18.8450 N   0  0  0  0  0  0  0  0  0  0  0  0
    6.3010   -1.1400   18.0340 C   0  0  0  0  0  0  0  0  0  0  0  0
    4.0710   -0.4040   18.9130 C   0  0  0  0  0  0  0  0  0  0  0  0
    6.3160   -1.2880   16.8110 O   0  0  0  0  0  0  0  0  0  0  0  0
    7.5290   -0.6560   18.8130 C   0  0  0  0  0  0  0  0  0  0  0  0
    5.1160    0.6390   18.4850 C   0  0  0  0  0  0  0  0  0  0  0  0
    3.4710    0.8880   18.8220 C   0  0  0  0  0  0  0  0  0  0  0  0
    7.2880    0.0730   20.1330 C   0  0  0  0  0  0  0  0  0  0  0  0
    3.7350    1.0890   18.7280 C   0  0  0  0  0  0  0  0  0  0  0  0
    2.8880    2.1420   18.7340 N   0  0  0  0  0  0  0  0  0  0  0  0
    8.4330   -0.6530   20.7420 C   0  0  0  0  0  0  0  0  0  0  0  0
    6.4050    1.0970   20.8230 C   0  0  0  0  0  0  0  0  0  0  0  0
    4.0960    2.5110   18.3910 C   0  0  0  0  0  0  0  0  0  0  0  0
    8.6870   -0.3420   22.0520 C   0  0  0  0  0  0  0  0  0  0  0  0
    6.6940    1.4070   22.1840 C   0  0  0  0  0  0  0  0  0  0  0  0
    7.7860    0.7220   22.7750 C   0  0  0  0  0  0  0  0  0  0  0  0
    5.9250    2.3320   22.8550 O   0  0  0  0  0  0  0  0  0  0  0  0
    5.3560    1.9710   24.1140 C   0  0  2  0  0  0  0  0  0  0  0  0
    5.5170    2.9110   25.1380 C   0  0  0  0  0  0  0  0  0  0  0  0
    6.0760    0.9200   24.7600 N   0  0  0  0  0  0  0  0  0  0  0  0
    6.1950    1.9630   25.7920 C   0  0  0  0  0  0  0  0  0  0  0  0
    6.7490    2.1840   27.0830 O   0  0  0  0  0  0  0  0  0  0  0  0
  1  2  1  0
  2  3  1  0
  3  4  2  0
  3  5  2  0
  3  6  1  0
  6  7  1  0
  6  8  1  0
  7  9  2  0
  7 10  1  0
  8 11  2  0
  8 12  1  0
 10 13  1  0
 11 14  1  0
 12 15  2  0
 13 16  2  0
 13 17  1  0
 14 18  2  0
 15 18  1  0
 16 19  1  0
 17 20  2  0
 19 21  2  0
 20 21  1  0
 20 22  1  0
 23 22  1  6
 23 24  1  0
 23 25  1  0
 24 26  1  0
 25 26  1  0
 26 27  2  0
M  END
