TRY-UNI-69298daf-2-chloroacetamide
     RDKit          3D

 28 30  0  0  0  0  0  0  0  0999 V2000
    7.2260   -4.1770   20.4840 C   0  0  0  0  0  0  0  0  0  0  0  0
    6.0920   -3.2420   20.2240 C   0  0  0  0  0  0  0  0  0  0  0  0
    5.2570   -3.4770   19.3270 O   0  0  0  0  0  0  0  0  0  0  0  0
    6.0590   -2.1060   21.0650 N   0  0  0  0  0  0  0  0  0  0  0  0
    7.2320   -1.2010   21.0800 C   0  0  0  0  0  0  0  0  0  0  0  0
    5.2890   -2.2000   22.1920 C   0  0  0  0  0  0  0  0  0  0  0  0
    7.2910    0.0450   20.5210 O   0  0  0  0  0  0  0  0  0  0  0  0
    8.5060   -1.7330   21.8030 C   0  0  0  0  0  0  0  0  0  0  0  0
    6.1630   -3.1470   22.9840 C   0  0  0  0  0  0  0  0  0  0  0  0
    5.1720   -2.7300   23.3780 C   0  0  0  0  0  0  0  0  0  0  0  0
    9.4730   -0.6240   22.2340 C   0  0  0  0  0  0  0  0  0  0  0  0
    5.8860   -3.6610   24.3320 N   0  0  0  0  0  0  0  0  0  0  0  0
    6.3700   -3.5770   23.5790 C   0  0  0  0  0  0  0  0  0  0  0  0
    4.1240   -2.5410   24.2840 C   0  0  0  0  0  0  0  0  0  0  0  0
    9.5660   -2.0110   22.0510 C   0  0  0  0  0  0  0  0  0  0  0  0
   10.9770   -0.6420   22.6500 C   0  0  0  0  0  0  0  0  0  0  0  0
    7.0390   -4.4260   24.4300 C   0  0  0  0  0  0  0  0  0  0  0  0
   10.4340   -1.0240   22.4440 C   0  0  0  0  0  0  0  0  0  0  0  0
   10.6250    0.6090   22.7440 C   0  0  0  0  0  0  0  0  0  0  0  0
   10.3630    0.5330   22.6650 C   0  0  0  0  0  0  0  0  0  0  0  0
    9.4110    0.2750   22.3510 C   0  0  0  0  0  0  0  0  0  0  0  0
   11.2330    1.6580   23.0770 O   0  0  0  0  0  0  0  0  0  0  0  0
    9.2070    0.8180   23.3620 N   0  0  0  0  0  0  0  0  0  0  0  0
   10.8680    2.9930   22.6150 C   0  0  2  0  0  0  0  0  0  0  0  0
   11.8890    3.7990   22.2620 C   0  0  0  0  0  0  0  0  0  0  0  0
   10.4500    3.8680   23.6340 N   0  0  0  0  0  0  0  0  0  0  0  0
   11.4430    4.8230   23.2920 C   0  0  0  0  0  0  0  0  0  0  0  0
   11.7110    5.9270   23.6970 O   0  0  0  0  0  0  0  0  0  0  0  0
  1  2  1  0
  2  3  2  0
  2  4  1  0
  4  5  1  0
  4  6  1  0
  5  7  2  0
  5  8  1  0
  6  9  2  0
  6 10  1  0
  8 11  1  0
  9 12  1  0
 10 13  2  0
 10 14  1  0
 11 15  2  0
 11 16  1  0
 12 17  2  0
 13 17  1  0
 15 18  1  0
 16 19  2  0
 18 20  1  0
 18 21  2  0
 19 21  1  0
 19 22  1  0
 20 23  3  0
 24 22  1  1
 24 25  1  0
 24 26  1  0
 25 27  1  0
 26 27  1  0
 27 28  2  0
M  END
