TRY-UNI-69298daf-6-nitrile
     RDKit          3D

 26 28  0  0  0  0  0  0  0  0999 V2000
    6.6680   -3.6990   19.8110 C   0  0  0  0  0  0  0  0  0  0  0  0
    5.7990   -3.2710   18.9750 N   0  0  0  0  0  0  0  0  0  0  0  0
    6.5440   -3.7180   21.1800 N   0  0  0  0  0  0  0  0  0  0  0  0
    6.7070   -2.4390   21.9020 C   0  0  0  0  0  0  0  0  0  0  0  0
    6.8600   -4.9490   21.8580 C   0  0  0  0  0  0  0  0  0  0  0  0
    6.1820   -1.4080   21.4940 O   0  0  0  0  0  0  0  0  0  0  0  0
    7.5690   -2.5300   23.1720 C   0  0  0  0  0  0  0  0  0  0  0  0
    6.6150   -6.2560   22.6970 C   0  0  0  0  0  0  0  0  0  0  0  0
    5.5540   -5.0120   22.1680 C   0  0  0  0  0  0  0  0  0  0  0  0
    9.0890   -2.4030   22.9750 C   0  0  0  0  0  0  0  0  0  0  0  0
    5.1630   -6.6010   23.2110 C   0  0  0  0  0  0  0  0  0  0  0  0
    4.5470   -4.4440   22.0340 N   0  0  0  0  0  0  0  0  0  0  0  0
   10.2440   -2.5260   23.7160 C   0  0  0  0  0  0  0  0  0  0  0  0
    9.4610   -2.7410   24.4400 C   0  0  0  0  0  0  0  0  0  0  0  0
    4.3380   -5.5000   22.7190 C   0  0  0  0  0  0  0  0  0  0  0  0
   11.0560   -2.2210   22.6270 C   0  0  0  0  0  0  0  0  0  0  0  0
   10.8810   -2.8310   25.0570 C   0  0  0  0  0  0  0  0  0  0  0  0
   12.4490   -2.1820   22.7110 C   0  0  0  0  0  0  0  0  0  0  0  0
   11.7480   -2.5030   23.8700 C   0  0  0  0  0  0  0  0  0  0  0  0
    9.7940   -3.1000   25.9730 O   0  0  0  0  0  0  0  0  0  0  0  0
   13.0820   -0.9780   22.3380 N   0  0  0  0  0  0  0  0  0  0  0  0
    9.1780   -4.3840   26.0650 C   0  0  1  0  0  0  0  0  0  0  0  0
    9.3570   -5.1760   27.3140 C   0  0  0  0  0  0  0  0  0  0  0  0
    7.8460   -4.3270   26.5440 N   0  0  0  0  0  0  0  0  0  0  0  0
    8.0710   -5.0530   27.6860 C   0  0  0  0  0  0  0  0  0  0  0  0
    7.4570   -5.5780   28.8670 O   0  0  0  0  0  0  0  0  0  0  0  0
  1  2  2  3
  1  3  1  0
  3  4  1  0
  3  5  1  0
  4  6  2  0
  4  7  1  0
  5  8  2  0
  5  9  1  0
  7 10  1  0
  8 11  1  0
  9 12  2  0
 10 13  2  0
 10 14  1  0
 11 15  2  0
 12 15  1  0
 13 16  1  0
 14 17  2  0
 16 18  1  0
 16 19  2  0
 17 19  1  0
 17 20  1  0
 18 21  3  0
 22 20  1  1
 22 23  1  0
 22 24  1  0
 23 25  1  0
 24 25  1  0
 25 26  2  0
M  END
