TRY-UNI-69298daf-1-bromoalkyne
     RDKit          3D

 25 27  0  0  0  0  0  0  0  0999 V2000
    6.6890   -3.4380   19.7320 C   0  0  0  0  0  0  0  0  0  0  0  0
    5.4420   -3.0950   18.9470 C   0  0  0  0  0  0  0  0  0  0  0  0
    6.9010   -2.6490   20.8720 N   0  0  0  0  0  0  0  0  0  0  0  0
    5.6960   -2.0460   21.5250 C   0  0  0  0  0  0  0  0  0  0  0  0
    8.1220   -1.8420   20.8890 C   0  0  0  0  0  0  0  0  0  0  0  0
    4.5980   -2.6470   21.5700 O   0  0  0  0  0  0  0  0  0  0  0  0
    5.9120   -0.6870   22.1710 C   0  0  0  0  0  0  0  0  0  0  0  0
    9.3880   -1.2760   21.1600 C   0  0  0  0  0  0  0  0  0  0  0  0
    8.4490   -2.8270   22.0360 C   0  0  0  0  0  0  0  0  0  0  0  0
    7.0050   -0.9430   23.1780 C   0  0  0  0  0  0  0  0  0  0  0  0
    9.2240   -2.2150   21.9340 N   0  0  0  0  0  0  0  0  0  0  0  0
    9.0880   -3.6180   23.1890 C   0  0  0  0  0  0  0  0  0  0  0  0
    9.8010   -2.1330   22.1690 C   0  0  0  0  0  0  0  0  0  0  0  0
    8.1720   -0.2070   23.1260 C   0  0  0  0  0  0  0  0  0  0  0  0
    6.5860   -1.9860   23.9960 C   0  0  0  0  0  0  0  0  0  0  0  0
    9.9270   -2.7100   22.8300 C   0  0  0  0  0  0  0  0  0  0  0  0
    9.1740   -0.5210   24.0040 C   0  0  0  0  0  0  0  0  0  0  0  0
    7.7250   -2.2160   24.8020 C   0  0  0  0  0  0  0  0  0  0  0  0
    8.9510   -1.5640   24.8570 C   0  0  0  0  0  0  0  0  0  0  0  0
    7.4230   -3.2820   25.6160 O   0  0  0  0  0  0  0  0  0  0  0  0
    7.2850   -4.6150   25.0450 C   0  0  2  0  0  0  0  0  0  0  0  0
    6.7230   -4.7490   23.6540 C   0  0  0  0  0  0  0  0  0  0  0  0
    6.2410   -5.3790   25.6820 N   0  0  0  0  0  0  0  0  0  0  0  0
    5.7540   -5.7010   24.4240 C   0  0  0  0  0  0  0  0  0  0  0  0
    4.8830   -6.4790   24.1250 O   0  0  0  0  0  0  0  0  0  0  0  0
  1  2  2  3
  1  3  1  0
  3  4  1  0
  3  5  1  0
  4  6  2  0
  4  7  1  0
  5  8  2  0
  5  9  1  0
  7 10  1  0
  8 11  1  0
  9 12  2  0
  9 13  1  0
 10 14  2  0
 10 15  1  0
 11 16  2  0
 12 16  1  0
 14 17  1  0
 15 18  2  0
 17 19  2  0
 18 19  1  0
 18 20  1  0
 21 20  1  1
 21 22  1  0
 21 23  1  0
 22 24  1  0
 23 24  1  0
 24 25  2  0
M  END
