TRY-UNI-1fd04853-5
     RDKit          3D

 21 23  0  0  0  0  0  0  0  0999 V2000
    6.6230   -2.4550   21.4350 O   0  0  0  0  0  0  0  0  0  0  0  0
    7.8140   -2.2490   21.6400 C   0  0  0  0  0  0  0  0  0  0  0  0
    8.6520   -3.1870   22.3750 C   0  0  0  0  0  0  0  0  0  0  0  0
    8.4500   -1.1220   21.2040 N   0  0  0  0  0  0  0  0  0  0  0  0
    8.4940   -2.9590   23.7460 C   0  0  0  0  0  0  0  0  0  0  0  0
    8.6870   -0.0590   22.1450 C   0  0  0  0  0  0  0  0  0  0  0  0
    8.3170   -1.6910   24.2220 C   0  0  0  0  0  0  0  0  0  0  0  0
    8.4560   -3.8090   24.9380 C   0  0  0  0  0  0  0  0  0  0  0  0
   10.0460    0.0410   22.3410 C   0  0  0  0  0  0  0  0  0  0  0  0
    8.1660   -1.7080   25.5350 N   0  0  0  0  0  0  0  0  0  0  0  0
    8.2310   -2.9490   26.0300 C   0  0  0  0  0  0  0  0  0  0  0  0
    8.5670   -5.1600   25.2900 C   0  0  0  0  0  0  0  0  0  0  0  0
   10.5850    1.1880   22.7690 C   0  0  0  0  0  0  0  0  0  0  0  0
   10.8690   -1.0460   22.0840 C   0  0  0  0  0  0  0  0  0  0  0  0
    8.0920   -3.3160   27.4300 N   0  0  0  0  0  0  0  0  0  0  0  0
    8.4440   -5.5110   26.6380 C   0  0  0  0  0  0  0  0  0  0  0  0
   11.9710    1.3020   22.9510 C   0  0  0  0  0  0  0  0  0  0  0  0
   12.2140   -0.9340   22.2620 C   0  0  0  0  0  0  0  0  0  0  0  0
    8.2120   -4.6520   27.6960 C   0  0  0  0  0  0  0  0  0  0  0  0
   12.8110    0.2310   22.7000 C   0  0  0  0  0  0  0  0  0  0  0  0
   13.1570   -2.2720   21.9080 Cl  0  0  0  0  0  0  0  0  0  0  0  0
  1  2  2  0
  2  3  1  0
  2  4  1  0
  3  5  1  0
  4  6  1  0
  5  7  2  0
  5  8  1  0
  6  9  1  0
  7 10  1  0
  8 11  2  0
 10 11  1  0
  8 12  1  0
  9 13  2  0
  9 14  1  0
 11 15  1  0
 12 16  2  0
 13 17  1  0
 14 18  2  0
 15 19  2  0
 16 19  1  0
 17 20  2  0
 18 20  1  0
 18 21  1  0
M  END
