TRY-UNI-69298daf-2-vinylsulfonamide
     RDKit          3D

 30 32  0  0  0  0  0  0  0  0999 V2000
    7.1660   -3.5280   19.6970 C   0  0  0  0  0  0  0  0  0  0  0  0
    5.7980   -3.0920   20.1930 C   0  0  0  0  0  0  0  0  0  0  0  0
    5.6630   -3.3190   21.9670 S   0  0  0  0  0  0  0  0  0  0  0  0
    4.2420   -3.2540   22.2070 O   0  0  0  0  0  0  0  0  0  0  0  0
    6.2870   -4.5740   22.3390 O   0  0  0  0  0  0  0  0  0  0  0  0
    6.5790   -2.0280   22.7590 N   0  0  0  0  0  0  0  0  0  0  0  0
    7.5650   -1.1580   21.9740 C   0  0  0  0  0  0  0  0  0  0  0  0
    5.9240   -1.4490   23.8420 C   0  0  0  0  0  0  0  0  0  0  0  0
    7.3570   -0.8040   20.7960 O   0  0  0  0  0  0  0  0  0  0  0  0
    8.8930   -0.6780   22.7010 C   0  0  0  0  0  0  0  0  0  0  0  0
    6.7050   -2.5090   24.3800 C   0  0  0  0  0  0  0  0  0  0  0  0
    5.6770   -0.8940   22.6990 C   0  0  0  0  0  0  0  0  0  0  0  0
    9.0730    0.8450   22.7350 C   0  0  0  0  0  0  0  0  0  0  0  0
    7.3760   -3.0870   23.4000 N   0  0  0  0  0  0  0  0  0  0  0  0
    6.4400   -1.5980   21.7370 C   0  0  0  0  0  0  0  0  0  0  0  0
    4.8560    0.1790   22.4170 C   0  0  0  0  0  0  0  0  0  0  0  0
    8.3300   -0.3450   22.7130 C   0  0  0  0  0  0  0  0  0  0  0  0
   10.4860    1.0100   22.7420 C   0  0  0  0  0  0  0  0  0  0  0  0
    7.3790   -2.7510   21.8850 C   0  0  0  0  0  0  0  0  0  0  0  0
    9.2870   -1.3010   22.6980 C   0  0  0  0  0  0  0  0  0  0  0  0
   11.5750    0.0240   22.7300 C   0  0  0  0  0  0  0  0  0  0  0  0
    9.6120   -2.8340   22.6740 C   0  0  0  0  0  0  0  0  0  0  0  0
   10.7920   -1.2090   22.7020 C   0  0  0  0  0  0  0  0  0  0  0  0
   12.4010   -0.9010   22.7180 O   0  0  0  0  0  0  0  0  0  0  0  0
    9.3010   -3.2880   23.9160 N   0  0  0  0  0  0  0  0  0  0  0  0
   12.7830   -1.3350   23.9600 C   0  0  1  0  0  0  0  0  0  0  0  0
   12.0170   -2.0880   24.6760 C   0  0  0  0  0  0  0  0  0  0  0  0
   13.6960   -2.3350   24.0630 N   0  0  0  0  0  0  0  0  0  0  0  0
   13.1510   -2.9550   25.2650 C   0  0  0  0  0  0  0  0  0  0  0  0
   14.1450   -3.5720   25.5820 O   0  0  0  0  0  0  0  0  0  0  0  0
  1  2  1  0
  2  3  1  0
  3  4  2  0
  3  5  2  0
  3  6  1  0
  6  7  1  0
  6  8  1  0
  7  9  2  0
  7 10  1  0
  8 11  2  0
  8 12  1  0
 10 13  1  0
 11 14  1  0
 12 15  2  0
 12 16  1  0
 13 17  2  0
 13 18  1  0
 14 19  2  0
 15 19  1  0
 17 20  1  0
 18 21  2  0
 20 22  1  0
 20 23  2  0
 21 23  1  0
 21 24  1  0
 22 25  3  0
 26 24  1  6
 26 27  1  0
 26 28  1  0
 27 29  1  0
 28 29  1  0
 29 30  2  0
M  END
