TRY-UNI-69298daf-3-nitrile
     RDKit          3D

 24 26  0  0  0  0  0  0  0  0999 V2000
    6.6420   -4.1580   20.2050 C   0  0  0  0  0  0  0  0  0  0  0  0
    5.9080   -3.5110   19.3790 N   0  0  0  0  0  0  0  0  0  0  0  0
    6.6110   -3.9480   21.5710 N   0  0  0  0  0  0  0  0  0  0  0  0
    7.6510   -3.1920   22.2970 C   0  0  0  0  0  0  0  0  0  0  0  0
    5.3450   -4.0270   22.2620 C   0  0  0  0  0  0  0  0  0  0  0  0
    7.8780   -3.3770   23.4880 O   0  0  0  0  0  0  0  0  0  0  0  0
    8.3830   -2.1870   21.3890 C   0  0  0  0  0  0  0  0  0  0  0  0
    4.9890   -4.6030   23.6360 C   0  0  0  0  0  0  0  0  0  0  0  0
    5.4980   -4.6400   23.5030 C   0  0  0  0  0  0  0  0  0  0  0  0
    9.4260   -1.2400   22.0620 C   0  0  0  0  0  0  0  0  0  0  0  0
    4.1900   -4.8930   24.5860 N   0  0  0  0  0  0  0  0  0  0  0  0
    6.1700   -5.2200   24.4600 N   0  0  0  0  0  0  0  0  0  0  0  0
   10.9320   -1.7220   22.2860 C   0  0  0  0  0  0  0  0  0  0  0  0
    9.1460    0.2260   22.5640 C   0  0  0  0  0  0  0  0  0  0  0  0
    5.1600   -5.4830   25.4440 C   0  0  0  0  0  0  0  0  0  0  0  0
    9.7420   -2.2840   21.7380 C   0  0  0  0  0  0  0  0  0  0  0  0
   10.3910   -0.1880   22.7450 C   0  0  0  0  0  0  0  0  0  0  0  0
    9.4240   -1.0420   22.1410 C   0  0  0  0  0  0  0  0  0  0  0  0
   11.3140   -1.2920   22.5660 O   0  0  0  0  0  0  0  0  0  0  0  0
   11.7680   -1.5420   23.8300 C   0  0  1  0  0  0  0  0  0  0  0  0
   12.4440   -2.6470   24.1990 C   0  0  0  0  0  0  0  0  0  0  0  0
   12.8850   -0.7980   24.2070 N   0  0  0  0  0  0  0  0  0  0  0  0
   13.4170   -1.9920   24.9380 C   0  0  0  0  0  0  0  0  0  0  0  0
   13.6530   -3.3050   25.4330 O   0  0  0  0  0  0  0  0  0  0  0  0
  1  2  2  3
  1  3  1  0
  3  4  1  0
  3  5  1  0
  4  6  2  0
  4  7  1  0
  5  8  2  0
  5  9  1  0
  7 10  1  0
  8 11  1  0
  9 12  2  0
 10 13  2  0
 10 14  1  0
 11 15  2  0
 12 15  1  0
 13 16  1  0
 14 17  2  0
 16 18  2  0
 17 18  1  0
 17 19  1  0
 20 19  1  6
 20 21  1  0
 20 22  1  0
 21 23  1  0
 22 23  1  0
 23 24  2  0
M  END
