TRY-UNI-9f475305-7
     RDKit          3D

 24 26  0  0  0  0  0  0  0  0999 V2000
   10.7800   -4.9790   19.2710 C   0  0  0  0  0  0  0  0  0  0  0  0
   11.7360   -4.3800   20.0740 C   0  0  0  0  0  0  0  0  0  0  0  0
   11.6590   -3.4400   21.0430 C   0  0  0  0  0  0  0  0  0  0  0  0
   13.0350   -4.7530   19.9550 O   0  0  0  0  0  0  0  0  0  0  0  0
   12.9040   -3.2680   21.5580 C   0  0  0  0  0  0  0  0  0  0  0  0
   13.8170   -4.0660   20.8700 N   0  0  0  0  0  0  0  0  0  0  0  0
   13.1980   -2.3670   22.7420 C   0  0  0  0  0  0  0  0  0  0  0  0
   13.4570   -2.0560   23.8480 N   0  0  0  0  0  0  0  0  0  0  0  0
   12.8340   -0.8030   24.2410 C   0  0  0  0  0  0  0  0  0  0  0  0
   14.1070   -2.8990   24.7840 C   0  0  0  0  0  0  0  0  0  0  0  0
   12.3170   -0.6470   25.3310 O   0  0  0  0  0  0  0  0  0  0  0  0
   12.9410    0.1020   23.2060 C   0  0  0  0  0  0  0  0  0  0  0  0
   13.8710   -2.8280   25.9750 O   0  0  0  0  0  0  0  0  0  0  0  0
   15.1230   -3.8420   24.2870 N   0  0  0  0  0  0  0  0  0  0  0  0
   12.1980    1.2710   23.3210 C   0  0  0  0  0  0  0  0  0  0  0  0
   16.1380   -4.4910   25.0870 C   0  0  0  0  0  0  0  0  0  0  0  0
   10.9140    1.2290   23.8600 C   0  0  0  0  0  0  0  0  0  0  0  0
   12.7540    2.4990   22.8800 C   0  0  0  0  0  0  0  0  0  0  0  0
   16.6570   -5.7620   24.5120 C   0  0  0  0  0  0  0  0  0  0  0  0
   15.9770   -5.8050   25.8370 C   0  0  0  0  0  0  0  0  0  0  0  0
   10.1450    2.3880   23.9740 C   0  0  0  0  0  0  0  0  0  0  0  0
   12.0290    3.6930   22.9640 C   0  0  0  0  0  0  0  0  0  0  0  0
   10.7520    3.6670   23.4960 C   0  0  0  0  0  0  0  0  0  0  0  0
   12.7110    5.1790   22.4180 Cl  0  0  0  0  0  0  0  0  0  0  0  0
  1  2  1  0
  2  3  2  0
  2  4  1  0
  3  5  1  0
  4  6  1  0
  5  6  2  0
  5  7  1  0
  7  8  1  0
  8  9  1  0
  8 10  1  0
  9 11  2  0
  9 12  1  0
 10 13  2  0
 10 14  1  0
 12 15  1  0
 14 16  1  0
 15 17  2  0
 15 18  1  0
 16 19  1  0
 16 20  1  0
 19 20  1  0
 17 21  1  0
 18 22  2  0
 21 23  2  0
 22 23  1  0
 22 24  1  0
M  END
