TRY-UNI-714a760b-10
     RDKit          3D

 17 18  0  0  0  0  0  0  0  0999 V2000
    5.0220    1.1270   21.9300 C   0  0  0  0  0  0  0  0  0  0  0  0
    5.6390    0.7880   20.6030 C   0  0  0  0  0  0  0  0  0  0  0  0
    4.7890    1.3260   19.4630 C   0  0  0  0  0  0  0  0  0  0  0  0
    6.7770    0.0950   20.3620 C   0  0  0  0  0  0  0  0  0  0  0  0
    5.0870    1.1840   18.0940 C   0  0  0  0  0  0  0  0  0  0  0  0
    7.0680   -0.0630   18.9300 C   0  0  0  0  0  0  0  0  0  0  0  0
    7.6410   -0.4280   21.3320 N   0  0  0  0  0  0  0  0  0  0  0  0
    6.3310    0.4140   17.7490 N   0  0  0  0  0  0  0  0  0  0  0  0
    8.7430    0.3860   21.7820 C   0  0  0  0  0  0  0  0  0  0  0  0
    9.1760    1.4350   21.2980 O   0  0  0  0  0  0  0  0  0  0  0  0
    9.2630   -0.3220   23.0070 C   0  0  0  0  0  0  0  0  0  0  0  0
   10.7840   -0.2940   23.0510 C   0  0  0  0  0  0  0  0  0  0  0  0
   11.3360   -1.4750   22.2560 C   0  0  0  0  0  0  0  0  0  0  0  0
   11.1870   -0.5150   24.4980 C   0  0  0  0  0  0  0  0  0  0  0  0
   12.6850   -1.7340   22.4790 C   0  0  0  0  0  0  0  0  0  0  0  0
   12.4930   -0.9470   24.6990 C   0  0  0  0  0  0  0  0  0  0  0  0
   13.2870   -1.1270   23.5700 C   0  0  0  0  0  0  0  0  0  0  0  0
  1  2  1  0
  2  3  2  0
  2  4  1  0
  3  5  1  0
  4  6  2  0
  4  7  1  0
  5  8  2  0
  6  8  1  0
  7  9  1  0
  9 10  2  0
  9 11  1  0
 11 12  1  0
 12 13  1  0
 12 14  1  0
 13 15  1  0
 14 16  1  0
 15 17  1  0
 16 17  1  0
M  END
