TRY-UNI-69298daf-2-nitrile
     RDKit          3D

 27 29  0  0  0  0  0  0  0  0999 V2000
    7.2640   -2.0130   19.5680 C   0  0  0  0  0  0  0  0  0  0  0  0
    6.2300   -2.2570   18.7730 N   0  0  0  0  0  0  0  0  0  0  0  0
    7.4610   -0.8950   20.7080 N   0  0  0  0  0  0  0  0  0  0  0  0
    8.1170    0.5540   20.8050 C   0  0  0  0  0  0  0  0  0  0  0  0
    6.5390   -0.9350   21.7990 C   0  0  0  0  0  0  0  0  0  0  0  0
    7.8580    1.3290   19.8940 O   0  0  0  0  0  0  0  0  0  0  0  0
    8.9710    1.1490   22.0700 C   0  0  0  0  0  0  0  0  0  0  0  0
    5.7900   -0.3250   22.7480 C   0  0  0  0  0  0  0  0  0  0  0  0
    6.6000    0.5400   21.8670 C   0  0  0  0  0  0  0  0  0  0  0  0
   10.2950    0.5400   22.6010 C   0  0  0  0  0  0  0  0  0  0  0  0
    5.3440   -1.4960   23.1720 N   0  0  0  0  0  0  0  0  0  0  0  0
    5.6260    0.6330   23.0410 C   0  0  0  0  0  0  0  0  0  0  0  0
    6.4980    1.9480   22.1230 C   0  0  0  0  0  0  0  0  0  0  0  0
   11.6030    1.5060   22.6010 C   0  0  0  0  0  0  0  0  0  0  0  0
   10.1290   -0.9420   23.0640 C   0  0  0  0  0  0  0  0  0  0  0  0
    4.9420   -0.4550   23.7550 C   0  0  0  0  0  0  0  0  0  0  0  0
   11.4660    0.1690   22.9830 C   0  0  0  0  0  0  0  0  0  0  0  0
   11.1540   -1.7520   23.5470 C   0  0  0  0  0  0  0  0  0  0  0  0
   12.7540   -0.1870   23.3400 C   0  0  0  0  0  0  0  0  0  0  0  0
   12.1990   -1.0050   23.4930 C   0  0  0  0  0  0  0  0  0  0  0  0
   11.0470   -3.1030   23.9940 O   0  0  0  0  0  0  0  0  0  0  0  0
   13.4220   -0.9530   22.3580 N   0  0  0  0  0  0  0  0  0  0  0  0
   10.3390   -3.2670   25.2200 C   0  0  2  0  0  0  0  0  0  0  0  0
   10.3500   -4.5910   25.9000 C   0  0  0  0  0  0  0  0  0  0  0  0
    8.9600   -3.5760   25.1020 N   0  0  0  0  0  0  0  0  0  0  0  0
    9.0300   -4.7620   25.7960 C   0  0  0  0  0  0  0  0  0  0  0  0
    8.2790   -5.8520   26.3220 O   0  0  0  0  0  0  0  0  0  0  0  0
  1  2  2  3
  1  3  1  0
  3  4  1  0
  3  5  1  0
  4  6  2  0
  4  7  1  0
  5  8  2  0
  5  9  1  0
  7 10  1  0
  8 11  1  0
  9 12  2  0
  9 13  1  0
 10 14  2  0
 10 15  1  0
 11 16  2  0
 12 16  1  0
 14 17  1  0
 15 18  2  0
 17 19  1  0
 17 20  2  0
 18 20  1  0
 18 21  1  0
 19 22  3  0
 23 21  1  6
 23 24  1  0
 23 25  1  0
 24 26  1  0
 25 26  1  0
 26 27  2  0
M  END
