TRY-UNI-9f475305-9-bromoalkyne
     RDKit          3D

 27 29  0  0  0  0  0  0  0  0999 V2000
    6.8680   -3.5920   19.8370 C   0  0  0  0  0  0  0  0  0  0  0  0
    5.6110   -3.1100   19.1380 C   0  0  0  0  0  0  0  0  0  0  0  0
    7.2730   -2.9060   20.9750 N   0  0  0  0  0  0  0  0  0  0  0  0
    6.3220   -2.6770   22.0820 C   0  0  0  0  0  0  0  0  0  0  0  0
    8.2750   -1.8400   20.8270 C   0  0  0  0  0  0  0  0  0  0  0  0
    6.7280   -1.5600   22.8350 C   0  0  0  0  0  0  0  0  0  0  0  0
    7.9450   -0.4870   21.5080 C   0  0  1  0  0  0  0  0  0  0  0  0
    6.9610   -0.5500   22.2170 O   0  0  0  0  0  0  0  0  0  0  0  0
    9.1630    0.2410   22.0990 C   0  0  0  0  0  0  0  0  0  0  0  0
    8.9700    1.5930   22.3810 C   0  0  0  0  0  0  0  0  0  0  0  0
   10.4710   -0.3240   22.3850 C   0  0  0  0  0  0  0  0  0  0  0  0
    9.9530    2.4230   22.9180 C   0  0  0  0  0  0  0  0  0  0  0  0
   11.4640    0.5240   22.9310 C   0  0  0  0  0  0  0  0  0  0  0  0
   10.8940   -1.7550   22.1510 C   0  0  0  0  0  0  0  0  0  0  0  0
    9.6880    3.7700   23.1720 C   0  0  0  0  0  0  0  0  0  0  0  0
   11.1870    1.8680   23.1830 C   0  0  0  0  0  0  0  0  0  0  0  0
   11.6920   -2.1640   23.2260 C   0  0  0  0  0  0  0  0  0  0  0  0
   10.7570    4.6330   23.4300 N   0  0  0  0  0  0  0  0  0  0  0  0
   12.8970   -1.8830   23.2630 O   0  0  0  0  0  0  0  0  0  0  0  0
   10.9910   -2.8770   24.1770 N   0  0  0  0  0  0  0  0  0  0  0  0
    9.6450   -2.7290   24.4780 C   0  0  0  0  0  0  0  0  0  0  0  0
    8.5950   -3.8030   24.2670 C   0  0  0  0  0  0  0  0  0  0  0  0
    9.1640   -1.5210   25.0320 C   0  0  0  0  0  0  0  0  0  0  0  0
    7.2720   -3.6590   24.5810 N   0  0  0  0  0  0  0  0  0  0  0  0
    7.8610   -1.4620   25.3080 C   0  0  0  0  0  0  0  0  0  0  0  0
   10.0250   -0.3000   25.3480 C   0  0  0  0  0  0  0  0  0  0  0  0
    6.9290   -2.4650   25.1070 C   0  0  0  0  0  0  0  0  0  0  0  0
  1  2  2  3
  1  3  1  0
  3  4  1  0
  3  5  1  0
  4  6  1  0
  5  7  1  0
  6  8  1  0
  7  8  1  0
  7  9  1  1
  9 10  2  0
  9 11  1  0
 10 12  1  0
 11 13  2  0
 11 14  1  0
 12 15  1  0
 12 16  2  0
 13 16  1  0
 14 17  1  0
 15 18  3  0
 17 19  2  0
 17 20  1  0
 20 21  1  0
 21 22  2  0
 21 23  1  0
 22 24  1  0
 23 25  2  0
 23 26  1  0
 24 27  2  0
 25 27  1  0
M  END
