TRY-UNI-9f475305-9-acrylamide
     RDKit          3D

 29 31  0  0  0  0  0  0  0  0999 V2000
    6.8680   -5.1130   20.6490 C   0  0  0  0  0  0  0  0  0  0  0  0
    7.0480   -4.3330   21.9320 C   0  0  0  0  0  0  0  0  0  0  0  0
    6.3040   -3.0330   21.8080 C   0  0  0  0  0  0  0  0  0  0  0  0
    4.9770   -3.2120   21.3060 O   0  0  0  0  0  0  0  0  0  0  0  0
    7.1680   -1.8160   22.3370 N   0  0  0  0  0  0  0  0  0  0  0  0
    7.3070   -1.6750   23.7740 C   0  0  0  0  0  0  0  0  0  0  0  0
    8.5890   -1.1490   21.8210 C   0  0  0  0  0  0  0  0  0  0  0  0
    8.7530   -2.0010   24.0900 C   0  0  0  0  0  0  0  0  0  0  0  0
    9.9370   -0.7260   22.8500 C   0  0  2  0  0  0  0  0  0  0  0  0
    9.6300   -1.1370   23.9850 O   0  0  0  0  0  0  0  0  0  0  0  0
   10.4580    0.7220   23.1090 C   0  0  0  0  0  0  0  0  0  0  0  0
    9.6510    1.5610   22.8020 C   0  0  0  0  0  0  0  0  0  0  0  0
   11.4970    1.5890   23.5530 C   0  0  0  0  0  0  0  0  0  0  0  0
   10.4500    2.6320   23.3140 C   0  0  0  0  0  0  0  0  0  0  0  0
   10.2780    2.7070   23.2390 C   0  0  0  0  0  0  0  0  0  0  0  0
   12.4560    0.4270   23.7570 C   0  0  0  0  0  0  0  0  0  0  0  0
   11.5810    2.4860   23.9670 C   0  0  0  0  0  0  0  0  0  0  0  0
   11.1850    3.6150   23.7850 C   0  0  0  0  0  0  0  0  0  0  0  0
   12.1260   -0.8340   24.5660 C   0  0  0  0  0  0  0  0  0  0  0  0
   12.5150    2.9640   25.0270 N   0  0  0  0  0  0  0  0  0  0  0  0
   13.1560   -1.5370   24.3330 O   0  0  0  0  0  0  0  0  0  0  0  0
   11.5180   -1.5360   25.2560 N   0  0  0  0  0  0  0  0  0  0  0  0
   12.2220   -2.6070   26.0000 C   0  0  0  0  0  0  0  0  0  0  0  0
   13.3720   -2.2330   27.1330 C   0  0  0  0  0  0  0  0  0  0  0  0
   11.8730   -4.0580   25.7070 C   0  0  0  0  0  0  0  0  0  0  0  0
   14.1780   -3.0860   27.9850 N   0  0  0  0  0  0  0  0  0  0  0  0
   12.7280   -3.6820   26.5550 C   0  0  0  0  0  0  0  0  0  0  0  0
   10.8310   -3.7130   24.6460 C   0  0  0  0  0  0  0  0  0  0  0  0
   13.5610   -3.9600   27.4020 C   0  0  0  0  0  0  0  0  0  0  0  0
  1  2  1  0
  2  3  1  0
  3  4  2  0
  3  5  1  0
  5  6  1  0
  5  7  1  0
  6  8  1  0
  7  9  1  0
  8 10  1  0
  9 10  1  0
  9 11  1  1
 11 12  2  0
 11 13  1  0
 12 14  1  0
 13 15  2  0
 13 16  1  0
 14 17  1  0
 14 18  2  0
 15 18  1  0
 16 19  1  0
 17 20  3  0
 19 21  2  0
 19 22  1  0
 22 23  1  0
 23 24  2  0
 23 25  1  0
 24 26  1  0
 25 27  2  0
 25 28  1  0
 26 29  2  0
 27 29  1  0
M  END
