TRY-UNI-69298daf-2-acrylamide
     RDKit          3D

 29 31  0  0  0  0  0  0  0  0999 V2000
    6.2220   -4.3610   20.0260 C   0  0  0  0  0  0  0  0  0  0  0  0
    6.6890   -3.2670   20.9740 C   0  0  0  0  0  0  0  0  0  0  0  0
    5.4820   -2.6700   21.6590 C   0  0  0  0  0  0  0  0  0  0  0  0
    4.9490   -3.1350   20.6700 O   0  0  0  0  0  0  0  0  0  0  0  0
    6.4600   -2.3360   22.5640 N   0  0  0  0  0  0  0  0  0  0  0  0
    7.0400   -0.9790   22.5010 C   0  0  0  0  0  0  0  0  0  0  0  0
    7.0020   -3.3950   23.2930 C   0  0  0  0  0  0  0  0  0  0  0  0
    7.3570   -0.3130   23.4840 O   0  0  0  0  0  0  0  0  0  0  0  0
    7.1480   -0.4940   21.0610 C   0  0  0  0  0  0  0  0  0  0  0  0
    6.5130   -4.5210   24.0160 C   0  0  0  0  0  0  0  0  0  0  0  0
    8.1600   -3.9000   23.6760 C   0  0  0  0  0  0  0  0  0  0  0  0
    8.2660    0.0710   21.8970 C   0  0  0  0  0  0  0  0  0  0  0  0
    7.6140   -5.2370   24.5340 N   0  0  0  0  0  0  0  0  0  0  0  0
    9.3760   -3.6080   23.5390 C   0  0  0  0  0  0  0  0  0  0  0  0
    8.0890   -5.1820   24.5050 C   0  0  0  0  0  0  0  0  0  0  0  0
    8.5390    1.3460   22.1230 C   0  0  0  0  0  0  0  0  0  0  0  0
    9.3540   -0.6240   22.6670 C   0  0  0  0  0  0  0  0  0  0  0  0
    8.9980   -4.7900   24.2980 C   0  0  0  0  0  0  0  0  0  0  0  0
    9.6390    0.7660   22.9010 C   0  0  0  0  0  0  0  0  0  0  0  0
   10.4550    0.0870   23.4760 C   0  0  0  0  0  0  0  0  0  0  0  0
   10.8470    1.0570   23.7680 C   0  0  0  0  0  0  0  0  0  0  0  0
   10.5410    1.5510   23.5640 C   0  0  0  0  0  0  0  0  0  0  0  0
   11.4240   -0.7270   24.1600 O   0  0  0  0  0  0  0  0  0  0  0  0
   11.7360    2.1430   23.3860 N   0  0  0  0  0  0  0  0  0  0  0  0
   11.9140   -1.8630   23.4260 C   0  0  1  0  0  0  0  0  0  0  0  0
   11.4300   -1.9500   21.9910 C   0  0  0  0  0  0  0  0  0  0  0  0
   13.2840   -1.7390   23.0930 N   0  0  0  0  0  0  0  0  0  0  0  0
   12.9200   -1.7850   21.7500 C   0  0  0  0  0  0  0  0  0  0  0  0
   13.6250   -1.7100   20.7800 O   0  0  0  0  0  0  0  0  0  0  0  0
  1  2  1  0
  2  3  1  0
  3  4  2  0
  3  5  1  0
  5  6  1  0
  5  7  1  0
  6  8  2  0
  6  9  1  0
  7 10  2  0
  7 11  1  0
  9 12  1  0
 10 13  1  0
 11 14  2  0
 11 15  1  0
 12 16  2  0
 12 17  1  0
 13 18  2  0
 14 18  1  0
 16 19  1  0
 17 20  2  0
 19 21  1  0
 19 22  2  0
 20 22  1  0
 20 23  1  0
 21 24  3  0
 25 23  1  6
 25 26  1  0
 25 27  1  0
 26 28  1  0
 27 28  1  0
 28 29  2  0
M  END
