TRY-UNI-69298daf-2-bromoalkyne
     RDKit          3D

 27 29  0  0  0  0  0  0  0  0999 V2000
    6.8540   -4.0290   20.1890 C   0  0  0  0  0  0  0  0  0  0  0  0
    5.6100   -3.5060   19.5440 C   0  0  0  0  0  0  0  0  0  0  0  0
    7.7000   -3.1940   20.8930 N   0  0  0  0  0  0  0  0  0  0  0  0
    7.4240   -1.7510   20.7710 C   0  0  0  0  0  0  0  0  0  0  0  0
    8.2110   -3.7150   22.0720 C   0  0  0  0  0  0  0  0  0  0  0  0
    7.5650   -1.0710   19.7590 O   0  0  0  0  0  0  0  0  0  0  0  0
    6.8510   -1.0270   22.0050 C   0  0  0  0  0  0  0  0  0  0  0  0
    9.2400   -2.6990   21.6720 C   0  0  0  0  0  0  0  0  0  0  0  0
    8.8810   -4.1670   23.3070 C   0  0  0  0  0  0  0  0  0  0  0  0
    7.5730   -1.5490   23.2180 C   0  0  0  0  0  0  0  0  0  0  0  0
   10.3390   -2.3750   22.2660 N   0  0  0  0  0  0  0  0  0  0  0  0
   10.0630   -3.9700   24.1600 C   0  0  0  0  0  0  0  0  0  0  0  0
    8.1310   -5.1650   23.9180 C   0  0  0  0  0  0  0  0  0  0  0  0
    8.6400   -0.5690   22.8930 C   0  0  0  0  0  0  0  0  0  0  0  0
    7.4940   -2.4710   24.2620 C   0  0  0  0  0  0  0  0  0  0  0  0
   10.7310   -2.9930   23.4700 C   0  0  0  0  0  0  0  0  0  0  0  0
    9.6310   -0.7090   23.8330 C   0  0  0  0  0  0  0  0  0  0  0  0
    8.5960   -2.4990   25.1490 C   0  0  0  0  0  0  0  0  0  0  0  0
   11.0380   -0.2020   24.3270 C   0  0  0  0  0  0  0  0  0  0  0  0
    9.7400   -1.6380   25.0150 C   0  0  0  0  0  0  0  0  0  0  0  0
    8.5980   -3.4320   26.2410 O   0  0  0  0  0  0  0  0  0  0  0  0
   11.5230    0.6360   23.3620 N   0  0  0  0  0  0  0  0  0  0  0  0
    7.3600   -3.5260   26.9370 C   0  0  2  0  0  0  0  0  0  0  0  0
    7.4720   -3.8160   28.2490 C   0  0  0  0  0  0  0  0  0  0  0  0
    6.6230   -4.7000   26.6540 N   0  0  0  0  0  0  0  0  0  0  0  0
    6.6340   -5.0460   28.0210 C   0  0  0  0  0  0  0  0  0  0  0  0
    6.2120   -5.8940   28.7990 O   0  0  0  0  0  0  0  0  0  0  0  0
  1  2  2  3
  1  3  1  0
  3  4  1  0
  3  5  1  0
  4  6  2  0
  4  7  1  0
  5  8  2  0
  5  9  1  0
  7 10  1  0
  8 11  1  0
  9 12  2  0
  9 13  1  0
 10 14  2  0
 10 15  1  0
 11 16  2  0
 12 16  1  0
 14 17  1  0
 15 18  2  0
 17 19  1  0
 17 20  2  0
 18 20  1  0
 18 21  1  0
 19 22  3  0
 23 21  1  6
 23 24  1  0
 23 25  1  0
 24 26  1  0
 25 26  1  0
 26 27  2  0
M  END
