TRY-UNI-9f475305-12-acrylamide
     RDKit          3D

 32 35  0  0  0  0  0  0  0  0999 V2000
    6.6680   -3.1850   18.8450 C   0  0  0  0  0  0  0  0  0  0  0  0
    6.6880   -1.9020   19.7000 C   0  0  0  0  0  0  0  0  0  0  0  0
    6.3820   -2.1090   21.1840 C   0  0  0  0  0  0  0  0  0  0  0  0
    4.9900   -3.0610   21.2570 O   0  0  0  0  0  0  0  0  0  0  0  0
    7.7940   -1.2230   22.0180 N   0  0  0  0  0  0  0  0  0  0  0  0
    9.1890   -1.6520   21.4880 C   0  0  0  0  0  0  0  0  0  0  0  0
    8.2060    0.4130   22.5210 C   0  0  2  0  0  0  0  0  0  0  0  0
   10.4440   -1.0460   22.2390 C   0  0  0  0  0  0  0  0  0  0  0  0
    9.7410    1.0260   23.0510 C   0  0  1  0  0  0  0  0  0  0  0  0
    7.1840    0.8090   23.6020 C   0  0  0  0  0  0  0  0  0  0  0  0
   11.7330   -1.3340   22.5540 C   0  0  0  0  0  0  0  0  0  0  0  0
   10.7010    0.0940   22.9290 C   0  0  0  0  0  0  0  0  0  0  0  0
   10.3480    2.4690   22.7320 C   0  0  0  0  0  0  0  0  0  0  0  0
    6.5140   -0.0330   24.2030 O   0  0  0  0  0  0  0  0  0  0  0  0
    7.1060    2.1820   23.8190 N   0  0  0  0  0  0  0  0  0  0  0  0
   12.8600   -1.5880   22.8280 C   0  0  0  0  0  0  0  0  0  0  0  0
   12.0320    0.2510   23.5280 C   0  0  0  0  0  0  0  0  0  0  0  0
    9.4100    3.6010   22.5850 C   0  0  0  0  0  0  0  0  0  0  0  0
   11.7900    2.6850   22.6040 C   0  0  0  0  0  0  0  0  0  0  0  0
    7.4730    2.8950   24.9910 C   0  0  0  0  0  0  0  0  0  0  0  0
   13.2860   -0.5130   23.5930 C   0  0  0  0  0  0  0  0  0  0  0  0
    9.9560    4.8420   22.3320 C   0  0  0  0  0  0  0  0  0  0  0  0
   12.5050    3.8640   22.3490 C   0  0  0  0  0  0  0  0  0  0  0  0
    7.9390    4.2160   24.9800 C   0  0  0  0  0  0  0  0  0  0  0  0
    7.3690    2.2690   26.2500 C   0  0  0  0  0  0  0  0  0  0  0  0
   11.4550    4.9970   22.2140 C   0  0  0  0  0  0  0  0  0  0  0  0
   12.4270    5.3380   22.0980 C   0  0  0  0  0  0  0  0  0  0  0  0
    8.3060    4.9590   26.0760 N   0  0  0  0  0  0  0  0  0  0  0  0
    7.7670    3.0670   27.4770 C   0  0  0  0  0  0  0  0  0  0  0  0
    6.8900    0.8550   26.4430 C   0  0  0  0  0  0  0  0  0  0  0  0
   12.4360    6.4830   21.9210 N   0  0  0  0  0  0  0  0  0  0  0  0
    8.2130    4.3830   27.2870 C   0  0  0  0  0  0  0  0  0  0  0  0
  1  2  1  0
  2  3  1  0
  3  4  2  0
  3  5  1  0
  5  6  1  0
  5  7  1  0
  6  8  1  0
  7  9  1  0
  7 10  1  1
  8 11  1  0
  8 12  2  0
  9 12  1  0
  9 13  1  6
 10 14  2  0
 10 15  1  0
 11 16  2  0
 12 17  1  0
 13 18  2  0
 13 19  1  0
 15 20  1  0
 16 21  1  0
 17 21  2  0
 18 22  1  0
 19 23  2  0
 20 24  2  0
 20 25  1  0
 22 26  2  0
 23 26  1  0
 23 27  1  0
 24 28  1  0
 25 29  2  0
 25 30  1  0
 27 31  3  0
 28 32  2  0
 29 32  1  0
M  END
