TRY-UNI-69298daf-1-acrylamide
     RDKit          3D

 27 29  0  0  0  0  0  0  0  0999 V2000
    8.0430   -3.2850   20.5230 C   0  0  0  0  0  0  0  0  0  0  0  0
    7.2380   -1.9160   20.2790 C   0  0  0  0  0  0  0  0  0  0  0  0
    6.1450   -1.7020   21.3350 C   0  0  0  0  0  0  0  0  0  0  0  0
    4.8040   -2.7590   21.2330 O   0  0  0  0  0  0  0  0  0  0  0  0
    6.8600   -0.4330   22.1710 N   0  0  0  0  0  0  0  0  0  0  0  0
    8.4630    0.0150   22.0000 C   0  0  0  0  0  0  0  0  0  0  0  0
    6.3950   -0.1010   23.4160 C   0  0  0  0  0  0  0  0  0  0  0  0
    9.5770    0.5110   21.9550 O   0  0  0  0  0  0  0  0  0  0  0  0
    8.3320    1.4670   22.6400 C   0  0  0  0  0  0  0  0  0  0  0  0
    6.2260   -0.3210   24.9440 C   0  0  0  0  0  0  0  0  0  0  0  0
    6.9950   -1.2250   23.9980 C   0  0  0  0  0  0  0  0  0  0  0  0
    9.7360    0.9680   23.0670 C   0  0  0  0  0  0  0  0  0  0  0  0
    6.0060   -0.4130   26.3160 N   0  0  0  0  0  0  0  0  0  0  0  0
    6.5890   -0.9920   25.2770 C   0  0  0  0  0  0  0  0  0  0  0  0
    7.7690   -2.2890   23.5200 C   0  0  0  0  0  0  0  0  0  0  0  0
    9.7650   -0.2900   23.7060 C   0  0  0  0  0  0  0  0  0  0  0  0
   10.9500    1.8780   22.7620 C   0  0  0  0  0  0  0  0  0  0  0  0
    6.7070   -1.5620   26.4880 C   0  0  0  0  0  0  0  0  0  0  0  0
   11.3140   -0.4270   23.9120 C   0  0  0  0  0  0  0  0  0  0  0  0
   12.2440    1.6160   23.0370 C   0  0  0  0  0  0  0  0  0  0  0  0
   12.4410    0.4240   23.6150 C   0  0  0  0  0  0  0  0  0  0  0  0
   13.1840    2.3800   22.7820 O   0  0  0  0  0  0  0  0  0  0  0  0
   13.1070    3.8180   22.4560 C   0  0  1  0  0  0  0  0  0  0  0  0
   12.0580    4.2310   21.6670 C   0  0  0  0  0  0  0  0  0  0  0  0
   12.8650    4.6800   23.5200 N   0  0  0  0  0  0  0  0  0  0  0  0
   11.8490    5.2920   22.6910 C   0  0  0  0  0  0  0  0  0  0  0  0
   11.1650    6.2740   22.8680 O   0  0  0  0  0  0  0  0  0  0  0  0
  1  2  1  0
  2  3  1  0
  3  4  2  0
  3  5  1  0
  5  6  1  0
  5  7  1  0
  6  8  2  0
  6  9  1  0
  7 10  2  0
  7 11  1  0
  9 12  1  0
 10 13  1  0
 11 14  2  0
 11 15  1  0
 12 16  2  0
 12 17  1  0
 13 18  2  0
 14 18  1  0
 16 19  1  0
 17 20  2  0
 19 21  2  0
 20 21  1  0
 20 22  1  0
 23 22  1  1
 23 24  1  0
 23 25  1  0
 24 26  1  0
 25 26  1  0
 26 27  2  0
M  END
