TRY-UNI-9f475305-9-nitrile
     RDKit          3D

 27 29  0  0  0  0  0  0  0  0999 V2000
    7.2000   -3.0330   19.5430 C   0  0  0  0  0  0  0  0  0  0  0  0
    6.3650   -2.7560   18.6050 N   0  0  0  0  0  0  0  0  0  0  0  0
    7.5360   -2.0220   20.5620 N   0  0  0  0  0  0  0  0  0  0  0  0
    6.7720   -0.7590   20.5820 C   0  0  0  0  0  0  0  0  0  0  0  0
    8.7970   -1.7840   21.4610 C   0  0  0  0  0  0  0  0  0  0  0  0
    6.8640   -0.0480   21.7990 C   0  0  0  0  0  0  0  0  0  0  0  0
    8.9130   -0.2320   21.9320 C   0  0  1  0  0  0  0  0  0  0  0  0
    7.8580   -0.0790   22.5370 O   0  0  0  0  0  0  0  0  0  0  0  0
   10.1640    0.6710   22.4460 C   0  0  0  0  0  0  0  0  0  0  0  0
    9.7460    2.1580   22.6290 C   0  0  0  0  0  0  0  0  0  0  0  0
   11.5650    0.3560   22.7460 C   0  0  0  0  0  0  0  0  0  0  0  0
   10.5790    3.1890   23.0310 C   0  0  0  0  0  0  0  0  0  0  0  0
   12.3490    1.4220   23.1320 C   0  0  0  0  0  0  0  0  0  0  0  0
   12.3230   -0.9530   22.6790 C   0  0  0  0  0  0  0  0  0  0  0  0
   10.2690    4.5560   23.2190 C   0  0  0  0  0  0  0  0  0  0  0  0
   11.9720    2.7320   23.2720 C   0  0  0  0  0  0  0  0  0  0  0  0
   12.3260   -1.7990   23.9300 C   0  0  0  0  0  0  0  0  0  0  0  0
   11.1500    5.5740   23.3980 N   0  0  0  0  0  0  0  0  0  0  0  0
   13.2740   -1.8170   24.7220 O   0  0  0  0  0  0  0  0  0  0  0  0
   11.2760   -2.6320   24.2200 N   0  0  0  0  0  0  0  0  0  0  0  0
    9.8680   -2.4910   24.2950 C   0  0  0  0  0  0  0  0  0  0  0  0
    8.8290   -3.5310   23.9200 C   0  0  0  0  0  0  0  0  0  0  0  0
    9.2640   -1.2150   24.8050 C   0  0  0  0  0  0  0  0  0  0  0  0
    7.4790   -3.3970   24.0080 N   0  0  0  0  0  0  0  0  0  0  0  0
    7.8960   -1.0950   24.8860 C   0  0  0  0  0  0  0  0  0  0  0  0
   10.0560   -0.0050   25.2660 C   0  0  0  0  0  0  0  0  0  0  0  0
    7.0040   -2.2270   24.4720 C   0  0  0  0  0  0  0  0  0  0  0  0
  1  2  2  3
  1  3  1  0
  3  4  1  0
  3  5  1  0
  4  6  1  0
  5  7  1  0
  6  8  1  0
  7  8  1  0
  7  9  1  1
  9 10  2  0
  9 11  1  0
 10 12  1  0
 11 13  2  0
 11 14  1  0
 12 15  1  0
 12 16  2  0
 13 16  1  0
 14 17  1  0
 15 18  3  0
 17 19  2  0
 17 20  1  0
 20 21  1  0
 21 22  2  0
 21 23  1  0
 22 24  1  0
 23 25  2  0
 23 26  1  0
 24 27  2  0
 25 27  1  0
M  END
