VID-DNY-1d288c6c-2
     RDKit          3D

 30 33  0  0  0  0  0  0  0  0999 V2000
    5.6980    0.1480   17.5860 O   0  0  0  0  0  0  0  0  0  0  0  0
    4.9420    0.2090   18.5410 N   0  0  0  0  0  0  0  0  0  0  0  0
    4.1460    1.1420   18.7130 O   0  0  0  0  0  0  0  0  0  0  0  0
    5.3970   -0.4250   19.7670 C   0  0  0  0  0  0  0  0  0  0  0  0
    6.0370    0.3890   20.6900 C   0  0  0  0  0  0  0  0  0  0  0  0
    5.1930   -1.7960   20.0170 C   0  0  0  0  0  0  0  0  0  0  0  0
    6.4730   -0.1500   21.8850 C   0  0  0  0  0  0  0  0  0  0  0  0
    5.6360   -2.3300   21.2460 C   0  0  0  0  0  0  0  0  0  0  0  0
    6.2730   -1.5060   22.1790 C   0  0  0  0  0  0  0  0  0  0  0  0
    5.3990   -3.7500   21.5100 N   0  0  0  0  0  0  0  0  0  0  0  0
    6.7360   -1.9230   23.4310 N   0  0  0  0  0  0  0  0  0  0  0  0
    6.4000   -4.3630   21.9030 O   0  0  0  0  0  0  0  0  0  0  0  0
    4.2810   -3.9910   21.9580 O   0  0  0  0  0  0  0  0  0  0  0  0
    7.2230   -3.1680   23.6880 N   0  0  0  0  0  0  0  0  0  0  0  0
    6.7440   -1.0880   24.5310 C   0  0  0  0  0  0  0  0  0  0  0  0
    7.5340   -3.0810   24.9840 C   0  0  0  0  0  0  0  0  0  0  0  0
    7.2460   -1.8180   25.5160 C   0  0  0  0  0  0  0  0  0  0  0  0
    6.3030    0.2960   24.6260 C   0  0  0  0  0  0  0  0  0  0  0  0
    8.0380   -4.0400   25.7600 C   0  0  0  0  0  0  0  0  0  0  0  0
    5.1500    0.7270   23.9640 C   0  0  0  0  0  0  0  0  0  0  0  0
    7.0400    1.2050   25.3930 C   0  0  0  0  0  0  0  0  0  0  0  0
    8.9590   -5.0220   25.4030 C   0  0  0  0  0  0  0  0  0  0  0  0
    7.5240   -3.9660   27.0430 C   0  0  0  0  0  0  0  0  0  0  0  0
    4.7340    2.0550   24.0620 C   0  0  0  0  0  0  0  0  0  0  0  0
    6.6270    2.5320   25.4940 C   0  0  0  0  0  0  0  0  0  0  0  0
    9.3440   -5.9480   26.4120 C   0  0  0  0  0  0  0  0  0  0  0  0
    7.8950   -4.8430   27.9940 C   0  0  0  0  0  0  0  0  0  0  0  0
    5.4760    2.9530   24.8280 C   0  0  0  0  0  0  0  0  0  0  0  0
    8.7880   -5.8190   27.6800 C   0  0  0  0  0  0  0  0  0  0  0  0
    4.9690    4.5930   24.9510 Cl  0  0  0  0  0  0  0  0  0  0  0  0
  1  2  2  0
  2  3  1  0
  2  4  1  0
  4  5  2  0
  4  6  1  0
  5  7  1  0
  6  8  2  0
  7  9  2  0
  8  9  1  0
  8 10  1  0
  9 11  1  0
 10 12  2  0
 10 13  1  0
 11 14  1  0
 11 15  1  0
 14 16  2  0
 15 17  2  0
 16 17  1  0
 15 18  1  0
 16 19  1  0
 18 20  2  0
 18 21  1  0
 19 22  2  0
 19 23  1  0
 20 24  1  0
 21 25  2  0
 22 26  1  0
 23 27  2  0
 24 28  2  0
 25 28  1  0
 26 29  2  0
 27 29  1  0
 28 30  1  0
M  CHG  4   2   1   3  -1  10   1  13  -1
M  END
