VID-DNY-1d288c6c-7
     RDKit          3D

 31 34  0  0  0  0  0  0  0  0999 V2000
    0.6560   -2.2600   26.1210 O   0  0  0  0  0  0  0  0  0  0  0  0
    1.3340   -1.2510   26.3500 N   0  0  0  0  0  0  0  0  0  0  0  0
    0.9430   -0.2800   27.0140 O   0  0  0  0  0  0  0  0  0  0  0  0
    2.7690   -1.3050   26.0100 C   0  0  0  0  0  0  0  0  0  0  0  0
    3.4170   -2.5430   25.9380 C   0  0  0  0  0  0  0  0  0  0  0  0
    3.4760   -0.1220   25.7640 C   0  0  0  0  0  0  0  0  0  0  0  0
    4.7780   -2.6010   25.6220 C   0  0  0  0  0  0  0  0  0  0  0  0
    4.8460   -0.1920   25.4440 C   0  0  0  0  0  0  0  0  0  0  0  0
    5.5250   -1.4370   25.3690 C   0  0  0  0  0  0  0  0  0  0  0  0
    5.4800    1.1050   25.2020 N   0  0  0  0  0  0  0  0  0  0  0  0
    6.9150   -1.5960   25.0470 N   0  0  0  0  0  0  0  0  0  0  0  0
    5.3610    1.9400   26.1130 O   0  0  0  0  0  0  0  0  0  0  0  0
    5.7320    1.3860   24.0220 O   0  0  0  0  0  0  0  0  0  0  0  0
    7.5380   -0.6820   24.2510 N   0  0  0  0  0  0  0  0  0  0  0  0
    7.8220   -2.6160   25.4310 C   0  0  0  0  0  0  0  0  0  0  0  0
    8.7600   -1.2020   24.1870 C   0  0  0  0  0  0  0  0  0  0  0  0
    8.9290   -2.3500   24.8870 C   0  0  0  0  0  0  0  0  0  0  0  0
    7.6820   -3.7370   26.2280 C   0  0  0  0  0  0  0  0  0  0  0  0
    9.9370   -0.9010   23.5590 C   0  0  0  0  0  0  0  0  0  0  0  0
    8.4390   -4.9290   26.1400 C   0  0  0  0  0  0  0  0  0  0  0  0
    6.7090   -3.5360   27.1350 C   0  0  0  0  0  0  0  0  0  0  0  0
   10.1350   -2.0050   22.7780 C   0  0  0  0  0  0  0  0  0  0  0  0
   10.8300    0.1730   23.6340 C   0  0  0  0  0  0  0  0  0  0  0  0
    8.1270   -5.9360   27.0560 C   0  0  0  0  0  0  0  0  0  0  0  0
    6.3960   -4.4980   28.0150 C   0  0  0  0  0  0  0  0  0  0  0  0
   11.2150   -2.1120   22.0650 C   0  0  0  0  0  0  0  0  0  0  0  0
   11.9870    0.0440   22.8680 C   0  0  0  0  0  0  0  0  0  0  0  0
    7.0820   -5.6740   27.9790 C   0  0  0  0  0  0  0  0  0  0  0  0
   12.1060   -1.1340   22.1210 C   0  0  0  0  0  0  0  0  0  0  0  0
    6.4060   -6.8080   29.3010 Br  0  0  0  0  0  0  0  0  0  0  0  0
   13.4790   -1.6220   21.0600 Br  0  0  0  0  0  0  0  0  0  0  0  0
  1  2  2  0
  2  3  1  0
  2  4  1  0
  4  5  2  0
  4  6  1  0
  5  7  1  0
  6  8  2  0
  7  9  2  0
  8  9  1  0
  8 10  1  0
  9 11  1  0
 10 12  2  0
 10 13  1  0
 11 14  1  0
 11 15  1  0
 14 16  2  0
 15 17  2  0
 16 17  1  0
 15 18  1  0
 16 19  1  0
 18 20  2  0
 18 21  1  0
 19 22  2  0
 19 23  1  0
 20 24  1  0
 21 25  2  0
 22 26  1  0
 23 27  2  0
 24 28  2  0
 25 28  1  0
 26 29  2  0
 27 29  1  0
 28 30  1  0
 29 31  1  0
M  CHG  4   2   1   3  -1  10   1  13  -1
M  END
