VIJ-CYC-1a381570-2-vinylsulfonamide
     RDKit          3D

 28 30  0  0  0  0  0  0  0  0999 V2000
    7.3770   -4.4480   20.7640 C   0  0  0  0  0  0  0  0  0  0  0  0
    6.3900   -4.3910   21.8950 C   0  0  0  0  0  0  0  0  0  0  0  0
    5.7290   -2.7340   21.9910 S   0  0  0  0  0  0  0  0  0  0  0  0
    4.3590   -2.7770   21.5440 O   0  0  0  0  0  0  0  0  0  0  0  0
    6.0120   -2.2760   23.3370 O   0  0  0  0  0  0  0  0  0  0  0  0
    6.6550   -1.6500   20.8420 C   0  0  0  0  0  0  0  0  0  0  0  0
    6.8950   -2.0720   19.3660 C   0  0  0  0  0  0  0  0  0  0  0  0
    6.9860   -0.2390   21.3770 C   0  0  0  0  0  0  0  0  0  0  0  0
    7.9890   -1.2430   21.5240 C   0  0  0  0  0  0  0  0  0  0  0  0
    7.8190   -2.5780   20.1670 C   0  0  0  0  0  0  0  0  0  0  0  0
    7.7010   -2.7940   18.5200 C   0  0  0  0  0  0  0  0  0  0  0  0
    6.5810   -1.6150   20.5120 C   0  0  0  0  0  0  0  0  0  0  0  0
    6.7030   -2.1580   18.0960 C   0  0  0  0  0  0  0  0  0  0  0  0
    5.8600   -1.3810   18.9420 C   0  0  0  0  0  0  0  0  0  0  0  0
    4.8290   -0.4310   19.9770 S   0  0  0  0  0  0  0  0  0  0  0  0
    3.4650   -0.5960   19.5300 O   0  0  0  0  0  0  0  0  0  0  0  0
    5.1870   -0.5030   21.3680 O   0  0  0  0  0  0  0  0  0  0  0  0
    5.3460    1.0820   19.4180 N   0  0  0  0  0  0  0  0  0  0  0  0
    6.1900    0.9740   18.2660 C   0  0  0  0  0  0  0  0  0  0  0  0
    7.4800   -0.0210   18.3720 C   0  0  0  0  0  0  0  0  0  0  0  0
    5.9680    1.6700   17.0350 C   0  0  0  0  0  0  0  0  0  0  0  0
    8.4610   -0.3270   17.3540 N   0  0  0  0  0  0  0  0  0  0  0  0
    6.9780    0.8890   17.1110 N   0  0  0  0  0  0  0  0  0  0  0  0
    4.8250    2.3150   17.5140 C   0  0  0  0  0  0  0  0  0  0  0  0
    7.9980    0.4130   16.4360 C   0  0  0  0  0  0  0  0  0  0  0  0
    8.5160    0.5710   15.1230 C   0  0  0  0  0  0  0  0  0  0  0  0
    7.8360   -0.4180   14.3630 O   0  0  0  0  0  0  0  0  0  0  0  0
    7.2620   -1.4240   15.2070 C   0  0  0  0  0  0  0  0  0  0  0  0
  1  2  1  0
  3  2  1  0
  3  4  2  0
  3  5  2  0
  3  6  1  0
  6  7  1  0
  6  8  1  0
  6  9  1  0
  8  9  1  0
  7 10  2  0
  7 11  1  0
 10 12  1  0
 11 13  2  0
 12 14  2  0
 13 14  1  0
 14 15  1  0
 15 16  2  0
 15 17  2  0
 15 18  1  0
 18 19  1  0
 19 20  2  0
 19 21  1  0
 20 22  1  0
 21 23  2  0
 21 24  1  0
 22 25  2  0
 23 25  1  0
 25 26  1  0
 26 27  1  0
 27 28  1  0
M  END
