VIJ-CYC-1a381570-2-nitrile
     RDKit          3D

 25 27  0  0  0  0  0  0  0  0999 V2000
    7.5230   -3.9710   20.4080 C   0  0  0  0  0  0  0  0  0  0  0  0
    6.2670   -4.4060   20.1340 N   0  0  0  0  0  0  0  0  0  0  0  0
    8.2780   -3.5280   21.8690 C   0  0  0  0  0  0  0  0  0  0  0  0
    9.0660   -2.1720   22.1010 C   0  0  0  0  0  0  0  0  0  0  0  0
    7.5770   -3.6970   23.2340 C   0  0  0  0  0  0  0  0  0  0  0  0
    8.7150   -4.5300   22.7720 C   0  0  0  0  0  0  0  0  0  0  0  0
   10.5780   -1.8020   22.1360 C   0  0  0  0  0  0  0  0  0  0  0  0
    8.1820   -1.1690   22.3140 C   0  0  0  0  0  0  0  0  0  0  0  0
   10.9940   -0.2890   22.3600 C   0  0  0  0  0  0  0  0  0  0  0  0
    8.5080    0.1100   22.4950 C   0  0  0  0  0  0  0  0  0  0  0  0
    9.7160    0.6190   22.5060 C   0  0  0  0  0  0  0  0  0  0  0  0
    9.3190    2.3190   22.6760 S   0  0  0  0  0  0  0  0  0  0  0  0
   10.3190    3.0690   21.9720 O   0  0  0  0  0  0  0  0  0  0  0  0
    9.0560    2.5590   24.0640 O   0  0  0  0  0  0  0  0  0  0  0  0
    7.7580    2.5490   21.8560 N   0  0  0  0  0  0  0  0  0  0  0  0
    7.0550    1.6330   20.8840 C   0  0  0  0  0  0  0  0  0  0  0  0
    7.7330    0.3050   20.7450 C   0  0  0  0  0  0  0  0  0  0  0  0
    5.8930    1.8440   20.1190 C   0  0  0  0  0  0  0  0  0  0  0  0
    7.2240   -0.5930   19.9040 N   0  0  0  0  0  0  0  0  0  0  0  0
    5.4570    0.8450   19.2660 N   0  0  0  0  0  0  0  0  0  0  0  0
    5.1430    3.0290   20.1850 C   0  0  0  0  0  0  0  0  0  0  0  0
    6.1000   -0.3320   19.1560 C   0  0  0  0  0  0  0  0  0  0  0  0
    5.6310   -1.2000   18.3090 C   0  0  0  0  0  0  0  0  0  0  0  0
    5.3400   -0.3290   17.2450 O   0  0  0  0  0  0  0  0  0  0  0  0
    5.5270    1.0660   17.5730 C   0  0  0  0  0  0  0  0  0  0  0  0
  1  2  2  3
  3  1  1  0
  3  4  1  0
  3  5  1  0
  3  6  1  0
  5  6  1  0
  4  7  2  0
  4  8  1  0
  7  9  1  0
  8 10  2  0
  9 11  2  0
 10 11  1  0
 11 12  1  0
 12 13  2  0
 12 14  2  0
 12 15  1  0
 15 16  1  0
 16 17  2  0
 16 18  1  0
 17 19  1  0
 18 20  2  0
 18 21  1  0
 19 22  2  0
 20 22  1  0
 22 23  1  0
 23 24  1  0
 24 25  1  0
M  END
