VIJ-CYC-1a381570-4
     RDKit          3D

 32 35  0  0  0  0  0  0  0  0999 V2000
    2.5780   -8.8690   25.6090 C   0  0  0  0  0  0  0  0  0  0  0  0
    3.5970   -8.1950   24.8580 O   0  0  0  0  0  0  0  0  0  0  0  0
    3.2740   -6.8640   24.7820 C   0  0  0  0  0  0  0  0  0  0  0  0
    1.8340   -6.4290   24.9280 C   0  0  0  0  0  0  0  0  0  0  0  0
    4.2490   -5.8300   24.5700 C   0  0  0  0  0  0  0  0  0  0  0  0
    1.4480   -4.9910   24.8620 C   0  0  0  0  0  0  0  0  0  0  0  0
    3.8460   -4.3180   24.4990 C   0  0  0  0  0  0  0  0  0  0  0  0
    5.7740   -5.8920   24.3830 C   0  0  0  0  0  0  0  0  0  0  0  0
    2.5140   -3.9200   24.6420 C   0  0  0  0  0  0  0  0  0  0  0  0
    6.4310   -5.4320   25.6750 C   0  0  0  0  0  0  0  0  0  0  0  0
    6.3870   -7.1630   23.6850 C   0  0  0  0  0  0  0  0  0  0  0  0
    6.2680   -5.1100   23.1020 C   0  0  0  0  0  0  0  0  0  0  0  0
    6.3710   -3.9980   25.7740 N   0  0  0  0  0  0  0  0  0  0  0  0
    6.3630   -6.4300   22.3390 C   0  0  0  0  0  0  0  0  0  0  0  0
    7.4220   -3.2320   26.1940 C   0  0  0  0  0  0  0  0  0  0  0  0
    7.9260   -3.1750   27.4550 O   0  0  0  0  0  0  0  0  0  0  0  0
    7.9810   -2.4360   25.1270 C   0  0  0  0  0  0  0  0  0  0  0  0
    7.3850   -1.1310   25.0550 O   0  0  0  0  0  0  0  0  0  0  0  0
    8.9410   -2.9010   24.2890 N   0  0  0  0  0  0  0  0  0  0  0  0
    9.1810   -2.5230   22.9430 C   0  0  0  0  0  0  0  0  0  0  0  0
   10.2050   -1.6060   22.7310 C   0  0  0  0  0  0  0  0  0  0  0  0
   11.4800   -2.0260   22.3110 C   0  0  0  0  0  0  0  0  0  0  0  0
    9.9490   -0.2460   22.9480 C   0  0  0  0  0  0  0  0  0  0  0  0
   12.4920   -1.1030   22.1080 C   0  0  0  0  0  0  0  0  0  0  0  0
   10.9300    0.7220   22.7560 C   0  0  0  0  0  0  0  0  0  0  0  0
   12.2100    0.3630   22.3360 C   0  0  0  0  0  0  0  0  0  0  0  0
   13.2800    1.4320   22.1100 C   0  0  0  0  0  0  0  0  0  0  0  0
   13.1370    2.6850   21.6010 N   0  0  0  0  0  0  0  0  0  0  0  0
   14.4570    1.1580   22.4840 N   0  0  0  0  0  0  0  0  0  0  0  0
   14.3670    3.3160   21.6620 O   0  0  0  0  0  0  0  0  0  0  0  0
   15.0950    2.3170   22.3120 C   0  0  0  0  0  0  0  0  0  0  0  0
   16.8600    2.7980   23.4180 C   0  0  0  0  0  0  0  0  0  0  0  0
  1  2  1  0
  2  3  1  0
  3  4  2  0
  3  5  1  0
  4  6  1  0
  5  7  2  0
  5  8  1  0
  6  9  2  0
  7  9  1  0
  8 10  1  0
  8 11  1  0
  8 12  1  0
 10 13  1  0
 11 14  1  0
 12 14  1  0
 13 15  1  0
 15 16  2  0
 15 17  1  0
 17 18  2  0
 17 19  1  0
 19 20  1  0
 20 21  1  0
 21 22  2  0
 21 23  1  0
 22 24  1  0
 23 25  2  0
 24 26  2  0
 25 26  1  0
 26 27  1  0
 27 28  2  0
 27 29  1  0
 28 30  1  0
 29 31  2  0
 30 31  1  0
 31 32  1  0
M  END
