VIJ-CYC-1a381570-5
     RDKit          3D

 20 21  0  0  0  0  0  0  0  0999 V2000
    9.4380   -0.3200   22.3620 C   0  0  0  0  0  0  0  0  0  0  0  0
    9.9310   -1.6790   22.8780 C   0  0  0  0  0  0  0  0  0  0  0  0
    9.6510   -2.8760   23.4050 C   0  0  0  0  0  0  0  0  0  0  0  0
   11.2270   -2.5310   23.0950 C   0  0  2  0  0  0  0  0  0  0  0  0
   12.2330   -2.2390   24.2230 C   0  0  0  0  0  0  0  0  0  0  0  0
   12.6820   -3.1710   24.8710 O   0  0  0  0  0  0  0  0  0  0  0  0
   12.5820   -0.9700   24.4570 N   0  0  0  0  0  0  0  0  0  0  0  0
   12.9560   -0.2240   23.3990 C   0  0  1  0  0  0  0  0  0  0  0  0
   12.9590   -1.0310   22.1180 C   0  0  0  0  0  0  0  0  0  0  0  0
   12.2300    1.1100   23.4240 C   0  0  0  0  0  0  0  0  0  0  0  0
   12.8290    2.4250   22.9490 C   0  0  0  0  0  0  0  0  0  0  0  0
   10.9140    1.3440   23.9070 C   0  0  0  0  0  0  0  0  0  0  0  0
   12.1670    3.6390   23.0120 C   0  0  0  0  0  0  0  0  0  0  0  0
   10.1930    2.5290   23.9950 C   0  0  0  0  0  0  0  0  0  0  0  0
   10.8310    3.6920   23.5530 C   0  0  0  0  0  0  0  0  0  0  0  0
   10.1440    5.2710   23.6220 S   0  0  0  0  0  0  0  0  0  0  0  0
   11.1370    6.1890   23.1320 O   0  0  0  0  0  0  0  0  0  0  0  0
    9.5640    5.4480   24.9320 O   0  0  0  0  0  0  0  0  0  0  0  0
    8.8510    5.2540   22.5990 N   0  0  0  0  0  0  0  0  0  0  0  0
    8.3040    6.4990   22.1470 C   0  0  0  0  0  0  0  0  0  0  0  0
  1  2  2  3
  2  3  1  0
  2  4  1  0
  3  4  1  0
  4  5  1  1
  5  6  2  0
  5  7  1  0
  7  8  1  0
  8  9  1  6
  8 10  1  0
 10 11  2  0
 10 12  1  0
 11 13  1  0
 12 14  2  0
 13 15  2  0
 14 15  1  0
 15 16  1  0
 16 17  2  0
 16 18  2  0
 16 19  1  0
 19 20  1  0
M  END
