VIJ-CYC-1a381570-6
     RDKit          3D

 34 36  0  0  0  0  0  0  0  0999 V2000
   10.2240   -5.1340   18.7810 C   0  0  0  0  0  0  0  0  0  0  0  0
    9.5030   -4.2620   19.7460 C   0  0  0  0  0  0  0  0  0  0  0  0
    8.3580   -3.2170   19.6040 C   0  0  0  0  0  0  0  0  0  0  0  0
    7.9730   -2.6200   20.9130 C   0  0  0  0  0  0  0  0  0  0  0  0
    7.6930   -2.7470   18.4320 C   0  0  0  0  0  0  0  0  0  0  0  0
    6.9510   -1.5620   21.0330 C   0  0  0  0  0  0  0  0  0  0  0  0
    6.7100   -1.7470   18.4820 C   0  0  0  0  0  0  0  0  0  0  0  0
    6.3650   -1.1730   19.6970 C   0  0  0  0  0  0  0  0  0  0  0  0
    5.4350   -0.0780   20.0480 C   0  0  0  0  0  0  0  0  0  0  0  0
    4.3110    0.4150   19.5230 N   0  0  0  0  0  0  0  0  0  0  0  0
    5.8720    0.5380   21.1470 N   0  0  0  0  0  0  0  0  0  0  0  0
    4.0170    1.4640   20.4200 O   0  0  0  0  0  0  0  0  0  0  0  0
    5.0250    1.4390   21.3530 C   0  0  0  0  0  0  0  0  0  0  0  0
    5.1290    2.3770   22.5160 C   0  0  1  0  0  0  0  0  0  0  0  0
    4.3300    2.2570   23.6360 C   0  0  0  0  0  0  0  0  0  0  0  0
    6.4740    2.2400   22.9060 N   0  0  0  0  0  0  0  0  0  0  0  0
    7.1350    1.0390   23.4340 C   0  0  0  0  0  0  0  0  0  0  0  0
    6.5900    0.3630   24.2870 O   0  0  0  0  0  0  0  0  0  0  0  0
    8.4470    0.6560   22.9560 C   0  0  0  0  0  0  0  0  0  0  0  0
    8.8450    1.1490   21.9030 O   0  0  0  0  0  0  0  0  0  0  0  0
    9.2260   -0.2310   23.6660 N   0  0  0  0  0  0  0  0  0  0  0  0
   10.5900   -0.0470   23.6230 C   0  0  1  0  0  0  0  0  0  0  0  0
   11.4250   -0.6810   22.6880 C   0  0  0  0  0  0  0  0  0  0  0  0
   10.8380    1.4440   23.5600 C   0  0  0  0  0  0  0  0  0  0  0  0
   12.0560    2.1300   22.9920 C   0  0  0  0  0  0  0  0  0  0  0  0
    9.8300    2.2770   24.0840 C   0  0  0  0  0  0  0  0  0  0  0  0
   12.0970    3.6460   23.0300 C   0  0  0  0  0  0  0  0  0  0  0  0
    9.9050    3.6740   24.0980 C   0  0  0  0  0  0  0  0  0  0  0  0
   11.0050    4.3650   23.5930 C   0  0  0  0  0  0  0  0  0  0  0  0
   10.9790    6.0520   23.6890 S   0  0  0  0  0  0  0  0  0  0  0  0
   11.7120    6.5670   22.5810 O   0  0  0  0  0  0  0  0  0  0  0  0
   11.2500    6.3910   25.0600 O   0  0  0  0  0  0  0  0  0  0  0  0
    9.3590    6.3930   23.4550 N   0  0  0  0  0  0  0  0  0  0  0  0
    8.9270    7.0410   22.2370 C   0  0  0  0  0  0  0  0  0  0  0  0
  1  2  1  0
  2  3  1  0
  3  4  2  0
  3  5  1  0
  4  6  1  0
  5  7  2  0
  6  8  2  0
  7  8  1  0
  8  9  1  0
  9 10  2  0
  9 11  1  0
 10 12  1  0
 11 13  2  0
 12 13  1  0
 13 14  1  0
 14 15  1  1
 14 16  1  0
 16 17  1  0
 17 18  2  0
 17 19  1  0
 19 20  2  0
 19 21  1  0
 21 22  1  0
 22 23  1  6
 22 24  1  0
 24 25  2  0
 24 26  1  0
 25 27  1  0
 26 28  2  0
 27 29  2  0
 28 29  1  0
 29 30  1  0
 30 31  2  0
 30 32  2  0
 30 33  1  0
 33 34  1  0
M  END
