VIJ-CYC-1a381570-11
     RDKit          3D

 21 21  0  0  0  0  0  0  0  0999 V2000
    8.3870    6.9330   22.5120 C   0  0  0  0  0  0  0  0  0  0  0  0
    9.1010    5.6840   22.6310 N   0  0  0  0  0  0  0  0  0  0  0  0
   10.3170    5.5700   23.7640 S   0  0  0  0  0  0  0  0  0  0  0  0
    9.6850    5.6990   25.0550 O   0  0  0  0  0  0  0  0  0  0  0  0
   11.3590    6.4450   23.3090 O   0  0  0  0  0  0  0  0  0  0  0  0
   10.8820    3.8950   23.6090 C   0  0  0  0  0  0  0  0  0  0  0  0
    9.9920    2.7580   24.0750 C   0  0  0  0  0  0  0  0  0  0  0  0
   12.1560    3.5940   23.0620 C   0  0  0  0  0  0  0  0  0  0  0  0
   10.4720    1.3740   23.9430 C   0  0  0  0  0  0  0  0  0  0  0  0
   12.6100    2.2520   22.9440 C   0  0  0  0  0  0  0  0  0  0  0  0
   11.8280    1.1630   23.3490 C   0  0  0  0  0  0  0  0  0  0  0  0
   12.1600   -0.2930   23.2680 C   0  0  1  0  0  0  0  0  0  0  0  0
   10.9280   -0.9620   22.6570 C   0  0  0  0  0  0  0  0  0  0  0  0
   13.1560   -0.4860   22.4720 N   0  0  0  0  0  0  0  0  0  0  0  0
   13.3690   -1.7600   22.0950 C   0  0  0  0  0  0  0  0  0  0  0  0
   13.2560   -2.1770   20.9600 O   0  0  0  0  0  0  0  0  0  0  0  0
   13.7250   -2.5020   23.1470 N   0  0  0  0  0  0  0  0  0  0  0  0
   13.0820   -2.3330   24.3730 C   0  0  0  0  0  0  0  0  0  0  0  0
   13.1920   -3.2270   25.3780 C   0  0  0  0  0  0  0  0  0  0  0  0
   11.8080   -3.0480   24.6290 C   0  0  0  0  0  0  0  0  0  0  0  0
   12.9340   -0.9810   24.8560 C   0  0  0  0  0  0  0  0  0  0  0  0
  1  2  1  0
  3  2  1  0
  3  4  2  0
  3  5  2  0
  3  6  1  0
  6  7  2  0
  6  8  1  0
  7  9  1  0
  8 10  2  0
  9 11  2  0
 10 11  1  0
 11 12  1  0
 12 13  1  6
 12 14  1  0
 14 15  1  0
 15 16  2  0
 15 17  1  0
 18 17  1  0
 18 19  1  0
 18 20  1  0
 18 21  1  0
M  END
