VIJ-CYC-1a381570-3
     RDKit          3D

 27 28  0  0  0  0  0  0  0  0999 V2000
   13.3530   -2.4360   24.6480 C   0  0  0  0  0  0  0  0  0  0  0  0
   12.8280   -1.0950   24.6300 N   0  0  0  0  0  0  0  0  0  0  0  0
   12.9650   -0.3090   23.5040 C   0  0  0  0  0  0  0  0  0  0  0  0
   13.6650   -0.6070   22.5490 O   0  0  0  0  0  0  0  0  0  0  0  0
   12.1610    0.9850   23.4820 C   0  0  0  0  0  0  0  0  0  0  0  0
   12.7270    2.2630   22.9380 C   0  0  0  0  0  0  0  0  0  0  0  0
   10.7460    1.0330   24.0060 C   0  0  0  0  0  0  0  0  0  0  0  0
   11.9160    3.5570   22.8900 C   0  0  0  0  0  0  0  0  0  0  0  0
   10.0070    2.2020   23.9670 C   0  0  0  0  0  0  0  0  0  0  0  0
   10.4990    3.4180   23.4490 C   0  0  0  0  0  0  0  0  0  0  0  0
    9.7070    4.7270   23.3690 C   0  0  0  0  0  0  0  0  0  0  0  0
    8.0240    4.5160   23.7780 S   0  0  0  0  0  0  0  0  0  0  0  0
    7.9520    3.5440   24.8350 O   0  0  0  0  0  0  0  0  0  0  0  0
    7.4370    5.8260   23.9030 O   0  0  0  0  0  0  0  0  0  0  0  0
    7.3070    3.8730   22.3610 N   0  0  0  0  0  0  0  0  0  0  0  0
    6.0440    3.1890   22.3720 C   0  0  0  0  0  0  0  0  0  0  0  0
    5.1560    2.7270   21.1360 C   0  0  0  0  0  0  0  0  0  0  0  0
    3.9210    2.5420   21.6990 F   0  0  0  0  0  0  0  0  0  0  0  0
    4.9670    3.8550   20.3900 F   0  0  0  0  0  0  0  0  0  0  0  0
    5.4070    1.6060   20.3150 C   0  0  0  0  0  0  0  0  0  0  0  0
    5.9310    0.3820   20.8570 C   0  0  0  0  0  0  0  0  0  0  0  0
    5.1610    1.6270   18.9230 C   0  0  0  0  0  0  0  0  0  0  0  0
    6.1860   -0.7140   20.0450 C   0  0  0  0  0  0  0  0  0  0  0  0
    5.4270    0.5190   18.1080 C   0  0  0  0  0  0  0  0  0  0  0  0
    4.6630    2.7170   18.3650 F   0  0  0  0  0  0  0  0  0  0  0  0
    5.9380   -0.6430   18.6870 C   0  0  0  0  0  0  0  0  0  0  0  0
    6.1990   -1.7190   17.9730 F   0  0  0  0  0  0  0  0  0  0  0  0
  1  2  1  0
  2  3  1  0
  3  4  2  0
  3  5  1  0
  5  6  2  0
  5  7  1  0
  6  8  1  0
  7  9  2  0
  8 10  2  0
  9 10  1  0
 10 11  1  0
 11 12  1  0
 12 13  2  0
 12 14  2  0
 12 15  1  0
 15 16  1  0
 16 17  1  0
 17 18  1  0
 17 19  1  0
 17 20  1  0
 20 21  2  0
 20 22  1  0
 21 23  1  0
 22 24  2  0
 22 25  1  0
 23 26  2  0
 24 26  1  0
 26 27  1  0
M  END
