VIJ-CYC-1a381570-12-chloroacetamide
     RDKit          3D

 19 19  0  0  0  0  0  0  0  0999 V2000
    8.0190   -3.0040   19.7930 C   0  0  0  0  0  0  0  0  0  0  0  0
    6.9880   -1.9030   19.8860 C   0  0  0  0  0  0  0  0  0  0  0  0
    6.0650   -2.3850   18.9800 O   0  0  0  0  0  0  0  0  0  0  0  0
    7.2260   -0.5790   21.0350 C   0  0  2  0  0  0  0  0  0  0  0  0
    7.7020    0.9420   20.9760 N   0  0  0  0  0  0  0  0  0  0  0  0
    8.1280   -1.0920   22.0010 C   0  0  0  0  0  0  0  0  0  0  0  0
    8.3880    2.2610   22.1440 S   0  0  0  0  0  0  0  0  0  0  0  0
    7.7720   -1.2790   23.3520 C   0  0  0  0  0  0  0  0  0  0  0  0
    7.8240   -2.4770   22.5040 C   0  0  0  0  0  0  0  0  0  0  0  0
    8.9160    3.3220   21.3540 O   0  0  0  0  0  0  0  0  0  0  0  0
    7.6180    2.6020   23.3340 O   0  0  0  0  0  0  0  0  0  0  0  0
    9.9100    1.6860   22.7710 C   0  0  0  0  0  0  0  0  0  0  0  0
    9.6970    0.3950   23.4760 C   0  0  0  0  0  0  0  0  0  0  0  0
   11.1740    2.3040   22.6240 C   0  0  0  0  0  0  0  0  0  0  0  0
   10.8500   -0.3430   24.0140 C   0  0  0  0  0  0  0  0  0  0  0  0
   12.2930    1.6470   23.1050 C   0  0  0  0  0  0  0  0  0  0  0  0
   12.0970    0.4090   23.7240 C   0  0  0  0  0  0  0  0  0  0  0  0
   13.1020   -0.5280   24.2540 C   0  0  0  0  0  0  0  0  0  0  0  0
   12.7070   -1.8120   24.0720 F   0  0  0  0  0  0  0  0  0  0  0  0
  1  2  1  0
  2  3  2  0
  2  4  1  0
  4  5  1  6
  4  6  1  0
  7  5  1  0
  6  8  1  0
  6  9  1  0
  7 10  2  0
  7 11  2  0
  7 12  1  0
 12 13  2  0
 12 14  1  0
 13 15  1  0
 14 16  2  0
 15 17  2  0
 16 17  1  0
 17 18  1  0
 18 19  1  0
M  END
