VIJ-CYC-1a381570-1
     RDKit          3D

 32 33  0  0  0  0  0  0  0  0999 V2000
   13.4200   -2.6310   24.7240 C   0  0  0  0  0  0  0  0  0  0  0  0
   13.1090   -1.2470   24.8380 O   0  0  0  0  0  0  0  0  0  0  0  0
   13.0870   -0.6010   23.6480 C   0  0  0  0  0  0  0  0  0  0  0  0
   13.6700   -1.0100   22.6560 O   0  0  0  0  0  0  0  0  0  0  0  0
   12.2810    0.6640   23.5540 C   0  0  0  0  0  0  0  0  0  0  0  0
   12.8580    1.9020   22.9610 C   0  0  0  0  0  0  0  0  0  0  0  0
   10.9790    0.6800   24.0140 C   0  0  0  0  0  0  0  0  0  0  0  0
   12.0740    3.1710   22.8190 C   0  0  0  0  0  0  0  0  0  0  0  0
   10.1880    1.8230   23.9150 C   0  0  0  0  0  0  0  0  0  0  0  0
   10.6630    3.0200   23.3460 C   0  0  0  0  0  0  0  0  0  0  0  0
    8.4260    1.6130   24.5960 Br  0  0  0  0  0  0  0  0  0  0  0  0
    9.5730    4.2910   23.2500 S   0  0  0  0  0  0  0  0  0  0  0  0
    8.9100    4.3900   24.5280 O   0  0  0  0  0  0  0  0  0  0  0  0
   10.2840    5.4340   22.7230 O   0  0  0  0  0  0  0  0  0  0  0  0
    8.4840    3.6030   22.0840 N   0  0  0  0  0  0  0  0  0  0  0  0
    8.4960    2.1250   21.5280 C   0  0  0  0  0  0  0  0  0  0  0  0
    7.1330    1.9130   20.7480 C   0  0  0  0  0  0  0  0  0  0  0  0
    6.7550    1.3530   19.3300 C   0  0  0  0  0  0  0  0  0  0  0  0
    6.1280    2.3520   21.5170 C   0  0  0  0  0  0  0  0  0  0  0  0
    5.3860    1.4160   18.9660 C   0  0  0  0  0  0  0  0  0  0  0  0
    4.8550    2.3850   21.1300 C   0  0  0  0  0  0  0  0  0  0  0  0
    4.4080    1.9820   19.9190 C   0  0  0  0  0  0  0  0  0  0  0  0
    3.0380    2.2660   19.9160 C   0  0  1  0  0  0  0  0  0  0  0  0
    2.6720    3.0010   18.7920 C   0  0  0  0  0  0  0  0  0  0  0  0
    2.0800    1.3550   20.1650 N   0  0  0  0  0  0  0  0  0  0  0  0
    0.8110    1.6720   20.7520 C   0  0  0  0  0  0  0  0  0  0  0  0
    0.6480    2.6990   21.3940 O   0  0  0  0  0  0  0  0  0  0  0  0
   -0.1380    0.7310   20.5100 O   0  0  0  0  0  0  0  0  0  0  0  0
   -1.4020    0.7100   21.2090 C   0  0  0  0  0  0  0  0  0  0  0  0
   -1.1940    0.7590   22.7120 C   0  0  0  0  0  0  0  0  0  0  0  0
   -2.2550   -0.4940   20.7890 C   0  0  0  0  0  0  0  0  0  0  0  0
   -2.1070    1.9900   20.7470 C   0  0  0  0  0  0  0  0  0  0  0  0
  1  2  1  0
  2  3  1  0
  3  4  2  0
  3  5  1  0
  5  6  2  0
  5  7  1  0
  6  8  1  0
  7  9  2  0
  8 10  2  0
  9 10  1  0
  9 11  1  0
 10 12  1  0
 12 13  2  0
 12 14  2  0
 12 15  1  0
 15 16  1  0
 16 17  1  0
 17 18  2  0
 17 19  1  0
 18 20  1  0
 19 21  2  0
 20 22  2  0
 21 22  1  0
 22 23  1  0
 23 24  1  6
 23 25  1  0
 25 26  1  0
 26 27  2  0
 26 28  1  0
 29 28  1  0
 29 30  1  0
 29 31  1  0
 29 32  1  0
M  END
