VIK-SYN-9a3d118a-8-bromoalkyne
     RDKit          3D

 18 19  0  0  0  0  0  0  0  0999 V2000
    6.3940   -4.3040   20.0900 C   0  0  0  0  0  0  0  0  0  0  0  0
    5.3000   -3.5240   19.4620 C   0  0  0  0  0  0  0  0  0  0  0  0
    6.3470   -4.7140   21.4580 N   0  0  0  0  0  0  0  0  0  0  0  0
    5.8050   -6.0220   21.9090 C   0  0  0  0  0  0  0  0  0  0  0  0
    7.1830   -4.1600   22.5560 C   0  0  0  0  0  0  0  0  0  0  0  0
    4.6200   -5.7140   22.8980 C   0  0  0  0  0  0  0  0  0  0  0  0
    6.6110   -4.6030   23.7740 C   0  0  0  0  0  0  0  0  0  0  0  0
    5.2230   -4.6020   23.7280 C   0  0  0  0  0  0  0  0  0  0  0  0
    4.5750   -4.6900   25.0910 N   0  0  0  0  0  0  0  0  0  0  0  0
    5.0970   -5.5930   25.9960 C   0  0  0  0  0  0  0  0  0  0  0  0
    3.3990   -3.8400   25.3470 C   0  0  0  0  0  0  0  0  0  0  0  0
    3.8030   -2.4570   25.8130 C   0  0  0  0  0  0  0  0  0  0  0  0
    2.0940   -4.1560   25.2180 N   0  0  0  0  0  0  0  0  0  0  0  0
    2.7640   -1.4020   26.1510 C   0  0  0  0  0  0  0  0  0  0  0  0
    1.1110   -3.0930   25.5610 C   0  0  0  0  0  0  0  0  0  0  0  0
    1.4150   -1.7860   26.0070 C   0  0  0  0  0  0  0  0  0  0  0  0
    0.3820   -0.8890   26.3020 C   0  0  0  0  0  0  0  0  0  0  0  0
   -0.9220   -1.5340   26.3500 N   0  0  0  0  0  0  0  0  0  0  0  0
  1  2  2  3
  1  3  1  0
  3  4  1  0
  3  5  1  0
  4  6  1  0
  5  7  1  0
  6  8  1  0
  7  8  1  0
  8  9  1  0
  9 10  1  0
  9 11  1  0
 11 12  2  0
 11 13  1  0
 12 14  1  0
 13 15  2  0
 14 16  2  0
 15 16  1  0
 16 17  1  0
 17 18  3  0
M  END
