VIK-SYN-9a3d118a-6-bromoalkyne
     RDKit          3D

 16 16  0  0  0  0  0  0  0  0999 V2000
    7.0320   -4.0020   20.5470 C   0  0  0  0  0  0  0  0  0  0  0  0
    5.6990   -4.7110   20.1680 C   0  0  0  0  0  0  0  0  0  0  0  0
    7.0170   -2.8640   21.5080 N   0  0  0  0  0  0  0  0  0  0  0  0
    6.1160   -1.7440   21.2270 C   0  0  0  0  0  0  0  0  0  0  0  0
    7.7910   -2.7930   22.8880 C   0  0  0  0  0  0  0  0  0  0  0  0
    7.3340   -1.5470   23.7310 C   0  0  0  0  0  0  0  0  0  0  0  0
    8.4340   -1.1800   24.6810 N   0  0  0  0  0  0  0  0  0  0  0  0
    8.3930   -1.9510   25.8070 C   0  0  0  0  0  0  0  0  0  0  0  0
    9.6610   -0.9230   23.9870 C   0  0  0  0  0  0  0  0  0  0  0  0
   10.4210    0.2920   24.2310 N   0  0  0  0  0  0  0  0  0  0  0  0
   10.2950   -1.7770   22.9850 O   0  0  0  0  0  0  0  0  0  0  0  0
   11.4910    0.1690   23.3820 C   0  0  0  0  0  0  0  0  0  0  0  0
   11.4170   -1.1400   22.5880 C   0  0  0  0  0  0  0  0  0  0  0  0
   12.4790    1.2090   23.3640 C   0  0  0  0  0  0  0  0  0  0  0  0
   12.1890    2.5060   22.9110 C   0  0  0  0  0  0  0  0  0  0  0  0
   13.6100    0.5470   22.6590 C   0  0  0  0  0  0  0  0  0  0  0  0
  1  2  2  3
  1  3  1  0
  3  4  1  0
  3  5  1  0
  5  6  1  0
  6  7  1  0
  7  8  1  0
  7  9  1  0
  9 10  2  0
  9 11  1  0
 10 12  1  0
 11 13  1  0
 12 13  2  0
 12 14  1  0
 14 15  1  0
 14 16  1  0
M  END
