VIK-SYN-9a3d118a-6-vinylsulfonamide
     RDKit          3D

 19 19  0  0  0  0  0  0  0  0999 V2000
    7.1470   -3.8280   20.2980 C   0  0  0  0  0  0  0  0  0  0  0  0
    7.1590   -3.6840   21.8470 C   0  0  0  0  0  0  0  0  0  0  0  0
    5.7830   -2.6520   22.2920 S   0  0  0  0  0  0  0  0  0  0  0  0
    4.5730   -3.4740   22.0920 O   0  0  0  0  0  0  0  0  0  0  0  0
    5.9150   -1.4310   21.5260 O   0  0  0  0  0  0  0  0  0  0  0  0
    5.9790   -2.2050   23.9530 N   0  0  0  0  0  0  0  0  0  0  0  0
    4.8360   -1.5200   24.5640 C   0  0  0  0  0  0  0  0  0  0  0  0
    7.3170   -2.2900   24.6530 C   0  0  0  0  0  0  0  0  0  0  0  0
    7.6280   -0.9320   25.2810 C   0  0  0  0  0  0  0  0  0  0  0  0
    9.0200   -1.0370   25.7450 N   0  0  0  0  0  0  0  0  0  0  0  0
    9.0830   -0.5380   27.0210 C   0  0  0  0  0  0  0  0  0  0  0  0
    9.9730   -0.6270   24.7430 C   0  0  0  0  0  0  0  0  0  0  0  0
   10.5480    0.6410   24.8290 N   0  0  0  0  0  0  0  0  0  0  0  0
   10.3570   -1.2480   23.8070 O   0  0  0  0  0  0  0  0  0  0  0  0
   11.4660    1.0500   23.8930 C   0  0  0  0  0  0  0  0  0  0  0  0
   11.2450   -0.3990   23.2070 C   0  0  0  0  0  0  0  0  0  0  0  0
   12.3830    1.2210   22.7970 C   0  0  0  0  0  0  0  0  0  0  0  0
   13.4920    0.4040   22.7580 C   0  0  0  0  0  0  0  0  0  0  0  0
   12.7220    2.7060   22.6080 C   0  0  0  0  0  0  0  0  0  0  0  0
  1  2  1  0
  2  3  1  0
  3  4  2  0
  3  5  2  0
  3  6  1  0
  6  7  1  0
  6  8  1  0
  8  9  1  0
  9 10  1  0
 10 11  1  0
 10 12  1  0
 12 13  2  0
 12 14  1  0
 13 15  1  0
 14 16  1  0
 15 16  2  0
 15 17  1  0
 17 18  1  0
 17 19  1  0
M  END
