VIK-SYN-9a3d118a-6-nitrile
     RDKit          3D

 16 16  0  0  0  0  0  0  0  0999 V2000
    6.7900   -3.8210   20.4690 C   0  0  0  0  0  0  0  0  0  0  0  0
    5.7000   -4.3950   20.0230 N   0  0  0  0  0  0  0  0  0  0  0  0
    6.7400   -2.7880   21.5350 N   0  0  0  0  0  0  0  0  0  0  0  0
    5.6050   -1.8620   21.3890 C   0  0  0  0  0  0  0  0  0  0  0  0
    7.6460   -2.5860   22.7420 C   0  0  0  0  0  0  0  0  0  0  0  0
    7.2400   -1.5470   23.9030 C   0  0  0  0  0  0  0  0  0  0  0  0
    8.4020   -1.3160   24.8270 N   0  0  0  0  0  0  0  0  0  0  0  0
    8.2860   -0.3000   25.8680 C   0  0  0  0  0  0  0  0  0  0  0  0
    9.6300   -1.2750   24.2020 C   0  0  0  0  0  0  0  0  0  0  0  0
   10.5980   -0.2790   24.4630 N   0  0  0  0  0  0  0  0  0  0  0  0
   10.1400   -2.1790   23.2120 O   0  0  0  0  0  0  0  0  0  0  0  0
   11.6460   -0.5500   23.6650 C   0  0  0  0  0  0  0  0  0  0  0  0
   11.3950   -1.6870   22.8980 C   0  0  0  0  0  0  0  0  0  0  0  0
   12.7550    0.3070   23.7090 C   0  0  0  0  0  0  0  0  0  0  0  0
   12.6210    1.7220   23.1180 C   0  0  0  0  0  0  0  0  0  0  0  0
   13.4180    0.5320   22.5910 C   0  0  0  0  0  0  0  0  0  0  0  0
  1  2  2  3
  1  3  1  0
  3  4  1  0
  3  5  1  0
  5  6  1  0
  6  7  1  0
  7  8  1  0
  7  9  1  0
  9 10  2  0
  9 11  1  0
 10 12  1  0
 11 13  1  0
 12 13  2  0
 12 14  1  0
 14 15  1  0
 14 16  1  0
M  END
