VIK-SYN-9a3d118a-4-nitrile
     RDKit          3D

 14 15  0  0  0  0  0  0  0  0999 V2000
    6.7660   -3.7360   20.3160 C   0  0  0  0  0  0  0  0  0  0  0  0
    5.9680   -3.2200   19.4240 N   0  0  0  0  0  0  0  0  0  0  0  0
    7.3960   -2.9480   21.4680 N   0  0  0  0  0  0  0  0  0  0  0  0
    7.0730   -2.9360   23.0150 C   0  0  0  0  0  0  0  0  0  0  0  0
    8.1870   -1.7340   21.2030 C   0  0  0  0  0  0  0  0  0  0  0  0
    8.2330   -2.2100   23.8750 C   0  0  0  0  0  0  0  0  0  0  0  0
    7.8420   -0.6130   22.0510 C   0  0  0  0  0  0  0  0  0  0  0  0
    8.5980   -0.8700   23.3380 N   0  0  0  0  0  0  0  0  0  0  0  0
   10.0560   -0.7490   23.1840 C   0  0  0  0  0  0  0  0  0  0  0  0
   10.8220    0.4800   23.2980 N   0  0  0  0  0  0  0  0  0  0  0  0
   10.7900   -1.9210   22.8660 N   0  0  0  0  0  0  0  0  0  0  0  0
   12.2080    0.1360   23.0070 C   0  0  0  0  0  0  0  0  0  0  0  0
   12.1300   -1.8940   22.6460 C   0  0  0  0  0  0  0  0  0  0  0  0
   13.3150   -0.8620   22.6300 C   0  0  0  0  0  0  0  0  0  0  0  0
  1  2  2  3
  1  3  1  0
  3  4  1  0
  3  5  1  0
  4  6  1  0
  5  7  1  0
  6  8  1  0
  7  8  1  0
  8  9  1  0
  9 10  2  0
  9 11  1  0
 10 12  1  0
 11 13  2  0
 12 14  2  0
 13 14  1  0
M  END
