VIK-SYN-9a3d118a-4-acrylamide
     RDKit          3D

 16 17  0  0  0  0  0  0  0  0999 V2000
    7.9730   -3.8040   20.3820 C   0  0  0  0  0  0  0  0  0  0  0  0
    6.6260   -3.2230   20.1710 C   0  0  0  0  0  0  0  0  0  0  0  0
    5.8080   -4.3610   20.6850 C   0  0  0  0  0  0  0  0  0  0  0  0
    5.0950   -4.9490   19.9210 O   0  0  0  0  0  0  0  0  0  0  0  0
    5.9280   -4.7320   22.0200 N   0  0  0  0  0  0  0  0  0  0  0  0
    7.0700   -4.5080   22.8750 C   0  0  0  0  0  0  0  0  0  0  0  0
    5.3810   -5.9920   22.4660 C   0  0  0  0  0  0  0  0  0  0  0  0
    6.3900   -3.9890   24.1120 C   0  0  0  0  0  0  0  0  0  0  0  0
    4.5400   -5.7570   23.5550 C   0  0  0  0  0  0  0  0  0  0  0  0
    5.3130   -4.9320   24.5620 N   0  0  0  0  0  0  0  0  0  0  0  0
    4.4220   -4.0370   25.0950 C   0  0  0  0  0  0  0  0  0  0  0  0
    4.7280   -2.6580   25.5660 N   0  0  0  0  0  0  0  0  0  0  0  0
    2.9870   -4.4810   25.1770 N   0  0  0  0  0  0  0  0  0  0  0  0
    3.6270   -1.7980   26.0480 C   0  0  0  0  0  0  0  0  0  0  0  0
    1.9580   -3.6700   25.6320 C   0  0  0  0  0  0  0  0  0  0  0  0
    2.2100   -2.3530   26.0570 C   0  0  0  0  0  0  0  0  0  0  0  0
  1  2  1  0
  2  3  1  0
  3  4  2  0
  3  5  1  0
  5  6  1  0
  5  7  1  0
  6  8  1  0
  7  9  1  0
  8 10  1  0
  9 10  1  0
 10 11  1  0
 11 12  2  0
 11 13  1  0
 12 14  1  0
 13 15  2  0
 14 16  2  0
 15 16  1  0
M  END
