VIK-SYN-9a3d118a-2-vinylsulfonamide
     RDKit          3D

 19 20  0  0  0  0  0  0  0  0999 V2000
    7.5820   -4.1060   20.7460 C   0  0  0  0  0  0  0  0  0  0  0  0
    6.2490   -4.8690   20.9560 C   0  0  0  0  0  0  0  0  0  0  0  0
    5.2620   -4.0270   22.1660 S   0  0  0  0  0  0  0  0  0  0  0  0
    4.1730   -4.9220   22.5060 O   0  0  0  0  0  0  0  0  0  0  0  0
    4.9520   -2.7330   21.6360 O   0  0  0  0  0  0  0  0  0  0  0  0
    6.2620   -3.8270   23.5160 N   0  0  0  0  0  0  0  0  0  0  0  0
    5.7720   -2.9290   24.5640 C   0  0  0  0  0  0  0  0  0  0  0  0
    7.6080   -3.7350   23.3480 C   0  0  0  0  0  0  0  0  0  0  0  0
    5.7810   -1.5360   23.8610 C   0  0  0  0  0  0  0  0  0  0  0  0
    8.0680   -2.4290   23.1940 C   0  0  0  0  0  0  0  0  0  0  0  0
    6.9770   -1.4570   22.9600 N   0  0  0  0  0  0  0  0  0  0  0  0
    6.5320   -1.1550   21.5750 C   0  0  0  0  0  0  0  0  0  0  0  0
    5.6140   -0.0730   21.1610 N   0  0  0  0  0  0  0  0  0  0  0  0
    6.9270   -1.8430   20.6180 O   0  0  0  0  0  0  0  0  0  0  0  0
    5.5430   -0.2610   19.7790 C   0  0  0  0  0  0  0  0  0  0  0  0
    6.3530   -1.3480   19.4640 C   0  0  0  0  0  0  0  0  0  0  0  0
    4.7590    0.5190   18.7090 C   0  0  0  0  0  0  0  0  0  0  0  0
    3.7590    1.3060   19.5660 C   0  0  0  0  0  0  0  0  0  0  0  0
    5.4540    1.4400   17.9670 C   0  0  0  0  0  0  0  0  0  0  0  0
  1  2  1  0
  3  2  1  0
  3  4  2  0
  3  5  2  0
  3  6  1  0
  6  7  1  0
  6  8  1  0
  7  9  1  0
  8 10  1  0
  9 11  1  0
 10 11  1  0
 11 12  1  0
 12 13  2  0
 12 14  1  0
 13 15  1  0
 14 16  1  0
 15 16  2  0
 15 17  1  0
 17 18  1  0
 17 19  1  0
M  END
