VIK-SYN-9a3d118a-5
     RDKit          3D

 19 19  0  0  0  0  0  0  0  0999 V2000
    6.2540   -3.0280   28.5080 C   0  0  0  0  0  0  0  0  0  0  0  0
    5.1590   -3.8310   27.8440 C   0  0  0  0  0  0  0  0  0  0  0  0
    3.7930   -3.6230   28.5560 C   0  0  0  0  0  0  0  0  0  0  0  0
    4.9800   -3.6460   26.4690 N   0  0  0  0  0  0  0  0  0  0  0  0
    4.8740   -4.9080   25.7230 C   0  0  0  0  0  0  0  0  0  0  0  0
    4.5050   -6.0050   26.1420 O   0  0  0  0  0  0  0  0  0  0  0  0
    5.3170   -4.6000   24.2930 C   0  0  0  0  0  0  0  0  0  0  0  0
    4.6630   -5.7860   23.5060 C   0  0  0  0  0  0  0  0  0  0  0  0
    6.8410   -4.6550   24.2980 C   0  0  0  0  0  0  0  0  0  0  0  0
    5.7100   -6.2490   22.4460 C   0  0  0  0  0  0  0  0  0  0  0  0
    7.3550   -4.4120   23.0590 C   0  0  0  0  0  0  0  0  0  0  0  0
    6.5250   -5.0720   22.0760 N   0  0  0  0  0  0  0  0  0  0  0  0
    6.2800   -4.3470   20.8290 C   0  0  0  0  0  0  0  0  0  0  0  0
    5.4420   -4.9300   19.7910 O   0  0  0  0  0  0  0  0  0  0  0  0
    6.8560   -2.9710   20.5440 C   0  0  0  0  0  0  0  0  0  0  0  0
    5.8950   -2.0550   19.4720 S   0  0  0  0  0  0  0  0  0  0  0  0
    7.2340   -1.2070   18.8320 C   0  0  0  0  0  0  0  0  0  0  0  0
    5.1080   -1.0710   20.1880 O   0  0  0  0  0  0  0  0  0  0  0  0
    5.3620   -2.9550   18.4710 O   0  0  0  0  0  0  0  0  0  0  0  0
  1  2  1  0
  2  3  1  0
  2  4  1  0
  4  5  1  0
  5  6  2  0
  5  7  1  0
  7  8  1  0
  7  9  1  0
  8 10  1  0
  9 11  1  0
 10 12  1  0
 11 12  1  0
 12 13  1  0
 13 14  2  0
 13 15  1  0
 16 15  1  0
 16 17  1  0
 16 18  2  0
 16 19  2  0
M  END
