VIT-UNK-2a0afa28-1
     RDKit          3D

 26 28  0  0  0  0  0  0  0  0999 V2000
    6.5240   -2.7320   15.5100 O   0  0  0  0  0  0  0  0  0  0  0  0
    6.7610   -1.5770   15.7610 C   0  0  0  0  0  0  0  0  0  0  0  0
    7.4540   -0.6700   15.0230 N   0  0  0  0  0  0  0  0  0  0  0  0
    6.4540   -0.7870   16.8300 N   0  0  0  0  0  0  0  0  0  0  0  0
    8.4460   -0.4620   15.9370 C   0  0  0  0  0  0  0  0  0  0  0  0
    7.7130   -0.6870   17.3210 C   0  0  2  0  0  0  0  0  0  0  0  0
    9.7080   -0.1450   15.5290 O   0  0  0  0  0  0  0  0  0  0  0  0
    7.8340   -2.1700   17.6230 C   0  0  0  0  0  0  0  0  0  0  0  0
    7.4910   -1.9780   19.1020 C   0  0  0  0  0  0  0  0  0  0  0  0
    6.0070   -2.1480   19.3460 C   0  0  0  0  0  0  0  0  0  0  0  0
    5.6960   -3.1210   20.2860 C   0  0  0  0  0  0  0  0  0  0  0  0
    5.2410   -4.3800   19.9940 O   0  0  0  0  0  0  0  0  0  0  0  0
    5.9710   -2.5040   21.6110 N   0  0  0  0  0  0  0  0  0  0  0  0
    6.0180   -3.3760   22.7680 C   0  0  0  0  0  0  0  0  0  0  0  0
    6.9470   -1.4210   21.7800 C   0  0  0  0  0  0  0  0  0  0  0  0
    7.3220   -3.6990   23.1250 C   0  0  0  0  0  0  0  0  0  0  0  0
    8.2480   -1.8500   22.0360 C   0  0  0  0  0  0  0  0  0  0  0  0
    8.1680   -2.4850   23.2240 N   0  0  0  0  0  0  0  0  0  0  0  0
    9.2970   -2.2500   24.0460 C   0  0  0  0  0  0  0  0  0  0  0  0
   10.3300   -1.3390   23.7370 C   0  0  0  0  0  0  0  0  0  0  0  0
   11.6770   -1.8320   23.1660 C   0  0  0  0  0  0  0  0  0  0  0  0
   10.1590    0.0580   23.9510 C   0  0  0  0  0  0  0  0  0  0  0  0
   12.7600   -0.8110   22.8570 C   0  0  0  0  0  0  0  0  0  0  0  0
   11.1760    1.0050   23.6590 C   0  0  0  0  0  0  0  0  0  0  0  0
   12.4330    0.6510   23.1380 C   0  0  0  0  0  0  0  0  0  0  0  0
   10.9230    2.2990   23.8910 F   0  0  0  0  0  0  0  0  0  0  0  0
  1  2  2  0
  2  3  1  0
  2  4  1  0
  3  5  1  0
  4  6  1  0
  5  6  1  0
  5  7  2  0
  6  8  1  6
  8  9  1  0
  9 10  1  0
 10 11  1  0
 11 12  2  0
 11 13  1  0
 13 14  1  0
 13 15  1  0
 14 16  1  0
 15 17  1  0
 16 18  1  0
 17 18  1  0
 18 19  1  0
 19 20  1  0
 20 21  2  0
 20 22  1  0
 21 23  1  0
 22 24  2  0
 23 25  2  0
 24 25  1  0
 24 26  1  0
M  END
