VIT-UNK-cff011c0-2
     RDKit          3D

 24 25  0  0  0  0  0  0  0  0999 V2000
    3.1600    2.6670   18.7330 N   0  0  0  0  0  0  0  0  0  0  0  0
    4.2220    1.8290   18.9340 C   0  0  0  0  0  0  0  0  0  0  0  0
    5.3040    1.7510   18.0220 O   0  0  0  0  0  0  0  0  0  0  0  0
    4.1750    0.9730   20.1660 C   0  0  0  0  0  0  0  0  0  0  0  0
    5.2030   -0.1690   20.2950 C   0  0  0  0  0  0  0  0  0  0  0  0
    5.4640   -0.5510   18.8260 C   0  0  0  0  0  0  0  0  0  0  0  0
    5.9020   -2.0340   18.8470 C   0  0  1  0  0  0  0  0  0  0  0  0
    7.5500   -2.1090   18.2560 Cl  0  0  0  0  0  0  0  0  0  0  0  0
    5.8530   -2.8910   20.0740 C   0  0  0  0  0  0  0  0  0  0  0  0
    5.4000   -4.0430   19.8940 O   0  0  0  0  0  0  0  0  0  0  0  0
    6.2830   -2.5170   21.3380 N   0  0  0  0  0  0  0  0  0  0  0  0
    7.2990   -1.4560   21.2570 C   0  0  0  0  0  0  0  0  0  0  0  0
    6.5650   -3.5740   22.3240 C   0  0  0  0  0  0  0  0  0  0  0  0
    8.4740   -1.9810   21.7590 C   0  0  0  0  0  0  0  0  0  0  0  0
    7.4340   -3.1820   23.3470 C   0  0  0  0  0  0  0  0  0  0  0  0
    8.6080   -2.5940   22.9060 N   0  0  0  0  0  0  0  0  0  0  0  0
    9.5800   -2.3480   23.9760 C   0  0  0  0  0  0  0  0  0  0  0  0
   10.5650   -1.4020   23.7370 C   0  0  0  0  0  0  0  0  0  0  0  0
   11.7850   -1.8160   23.1630 C   0  0  0  0  0  0  0  0  0  0  0  0
   10.3260   -0.0480   24.0660 C   0  0  0  0  0  0  0  0  0  0  0  0
   12.9040   -0.8010   22.8660 C   0  0  0  0  0  0  0  0  0  0  0  0
   11.2450    0.9820   23.8540 C   0  0  0  0  0  0  0  0  0  0  0  0
   12.6220    0.6570   23.2270 C   0  0  0  0  0  0  0  0  0  0  0  0
   10.9320    2.2380   24.1900 F   0  0  0  0  0  0  0  0  0  0  0  0
  1  2  1  0
  2  3  2  0
  2  4  1  0
  4  5  1  0
  5  6  1  0
  7  6  1  1
  7  8  1  0
  7  9  1  0
  9 10  2  0
  9 11  1  0
 11 12  1  0
 11 13  1  0
 12 14  1  0
 13 15  1  0
 14 16  1  0
 15 16  1  0
 16 17  1  0
 17 18  1  0
 18 19  2  0
 18 20  1  0
 19 21  1  0
 20 22  2  0
 21 23  2  0
 22 23  1  0
 22 24  1  0
M  END
