VIT-UNK-6e6e7b8a-3
     RDKit          3D

 26 29  0  0  0  0  0  0  0  0999 V2000
   13.7220   -0.9090   21.3930 O   0  0  0  0  0  0  0  0  0  0  0  0
   13.0340   -0.8110   22.3770 C   0  0  0  0  0  0  0  0  0  0  0  0
   12.7250    0.4510   22.8610 C   0  0  0  0  0  0  0  0  0  0  0  0
   12.5710   -1.9610   23.0000 C   0  0  0  0  0  0  0  0  0  0  0  0
   11.8650    0.4610   24.0750 C   0  0  0  0  0  0  0  0  0  0  0  0
   11.7750   -2.0090   24.1180 C   0  0  0  0  0  0  0  0  0  0  0  0
   11.3810   -0.8180   24.7110 C   0  0  0  0  0  0  0  0  0  0  0  0
   11.3850   -3.3750   24.6270 C   0  0  0  0  0  0  0  0  0  0  0  0
   10.2130   -3.5160   25.5580 C   0  0  2  0  0  0  0  0  0  0  0  0
   10.4820   -4.5970   26.4160 N   0  0  0  0  0  0  0  0  0  0  0  0
    8.9660   -3.8510   24.9970 C   0  0  0  0  0  0  0  0  0  0  0  0
    9.6010   -4.8530   27.5540 C   0  0  0  0  0  0  0  0  0  0  0  0
    8.1300   -4.7160   25.7440 C   0  0  0  0  0  0  0  0  0  0  0  0
    8.4580   -3.3240   23.6410 C   0  0  0  0  0  0  0  0  0  0  0  0
    8.4020   -5.3500   27.0990 C   0  0  2  0  0  0  0  0  0  0  0  0
    6.9140   -5.0600   25.2630 C   0  0  0  0  0  0  0  0  0  0  0  0
    7.2190   -3.6720   23.1880 C   0  0  0  0  0  0  0  0  0  0  0  0
    9.2450   -2.3990   22.7210 C   0  0  0  0  0  0  0  0  0  0  0  0
    7.2780   -5.0390   27.8980 C   0  0  2  0  0  0  0  0  0  0  0  0
    6.4590   -4.6000   24.0960 C   0  0  0  0  0  0  0  0  0  0  0  0
    8.3350   -1.5070   21.8960 C   0  0  0  0  0  0  0  0  0  0  0  0
    6.5810   -3.2920   22.0340 C   0  0  0  0  0  0  0  0  0  0  0  0
    7.4810   -4.2680   28.8380 O   0  0  0  0  0  0  0  0  0  0  0  0
    6.5740   -6.1650   28.3180 C   0  0  0  0  0  0  0  0  0  0  0  0
    7.2800   -2.2000   21.3630 N   0  0  0  0  0  0  0  0  0  0  0  0
    5.5590   -5.7770   29.1410 F   0  0  0  0  0  0  0  0  0  0  0  0
  1  2  1  0
  2  3  2  0
  2  4  1  0
  3  5  1  0
  4  6  2  0
  5  7  2  0
  6  7  1  0
  6  8  1  0
  9  8  1  6
  9 10  1  0
  9 11  1  0
 10 12  1  0
 11 13  2  0
 11 14  1  0
 15 12  1  1
 13 15  1  0
 13 16  1  0
 14 17  2  0
 14 18  1  0
 15 19  1  0
 16 20  2  0
 17 20  1  0
 18 21  1  0
 17 22  1  0
 19 23  1  1
 19 24  1  0
 21 25  1  0
 22 25  1  0
 24 26  1  0
M  END
