VIT-UNK-6e6e7b8a-1
     RDKit          3D

 25 27  0  0  0  0  0  0  0  0999 V2000
   13.3810   -2.0230   22.3500 O   0  0  0  0  0  0  0  0  0  0  0  0
   12.6630   -1.1540   22.8310 C   0  0  0  0  0  0  0  0  0  0  0  0
   12.9540    0.3040   22.7740 C   0  0  0  0  0  0  0  0  0  0  0  0
   11.5010   -1.5950   23.4700 C   0  0  0  0  0  0  0  0  0  0  0  0
   11.9650    1.2690   23.4050 C   0  0  0  0  0  0  0  0  0  0  0  0
   10.5700   -0.7030   24.0760 C   0  0  0  0  0  0  0  0  0  0  0  0
   12.0820    2.4850   23.4180 O   0  0  0  0  0  0  0  0  0  0  0  0
   10.7250    0.7040   24.0820 C   0  0  0  0  0  0  0  0  0  0  0  0
    9.3520   -1.2600   24.7510 C   0  0  0  0  0  0  0  0  0  0  0  0
    8.1760   -0.8310   24.1520 C   0  0  1  0  0  0  0  0  0  0  0  0
    7.9510   -1.3780   22.9200 C   0  0  0  0  0  0  0  0  0  0  0  0
    7.1310   -1.1230   24.9710 N   0  0  0  0  0  0  0  0  0  0  0  0
    8.0960   -2.7890   22.9090 C   0  0  2  0  0  0  0  0  0  0  0  0
    6.5500   -2.4730   24.8190 C   0  0  0  0  0  0  0  0  0  0  0  0
    7.9530   -3.3260   21.5830 C   0  0  0  0  0  0  0  0  0  0  0  0
    7.2970   -3.4630   23.8750 C   0  0  1  0  0  0  0  0  0  0  0  0
    6.9000   -2.7600   20.8540 C   0  0  1  0  0  0  0  0  0  0  0  0
    6.3420   -4.4820   23.3270 C   0  0  2  0  0  0  0  0  0  0  0  0
    5.8310   -2.0690   21.6660 C   0  0  0  0  0  0  0  0  0  0  0  0
    7.3610   -1.5800   19.9500 C   0  0  0  0  0  0  0  0  0  0  0  0
    5.3720   -4.6750   24.0580 O   0  0  0  0  0  0  0  0  0  0  0  0
    7.0130   -5.8370   23.1240 C   0  0  0  0  0  0  0  0  0  0  0  0
    5.5620   -0.7880   20.9550 C   0  0  0  0  0  0  0  0  0  0  0  0
    6.2770   -0.7140   19.7650 N   0  0  0  0  0  0  0  0  0  0  0  0
    7.9160   -5.9920   24.1310 F   0  0  0  0  0  0  0  0  0  0  0  0
  1  2  1  0
  2  3  2  0
  2  4  1  0
  3  5  1  0
  4  6  2  0
  5  7  1  0
  5  8  2  0
  6  8  1  0
  6  9  1  0
 10  9  1  1
 10 11  1  0
 10 12  1  0
 11 13  1  0
 12 14  1  0
 13 15  1  6
 13 16  1  0
 16 14  1  6
 17 15  1  1
 16 18  1  0
 17 19  1  0
 17 20  1  0
 18 21  1  1
 18 22  1  0
 19 23  1  0
 20 24  1  0
 23 24  1  0
 22 25  1  0
M  END
