VIT-UNK-525497ca-1
     RDKit          3D

 25 27  0  0  0  0  0  0  0  0999 V2000
    3.0860   -1.9950   28.6860 O   0  0  0  0  0  0  0  0  0  0  0  0
    3.7120   -2.3450   27.5300 C   0  0  0  0  0  0  0  0  0  0  0  0
    5.1780   -2.0580   27.2860 C   0  0  0  0  0  0  0  0  0  0  0  0
    2.9440   -2.9830   26.5700 C   0  0  0  0  0  0  0  0  0  0  0  0
    5.6830   -2.5410   25.9090 C   0  0  0  0  0  0  0  0  0  0  0  0
    3.4470   -3.4020   25.3300 C   0  0  0  0  0  0  0  0  0  0  0  0
    7.0530   -2.3290   25.5620 O   0  0  0  0  0  0  0  0  0  0  0  0
    4.7840   -3.2290   24.9170 C   0  0  0  0  0  0  0  0  0  0  0  0
    2.5300   -4.0000   24.5140 C   0  0  0  0  0  0  0  0  0  0  0  0
    2.3430   -5.4710   24.8340 C   0  0  1  0  0  0  0  0  0  0  0  0
    0.9390   -5.8720   24.2810 C   0  0  0  0  0  0  0  0  0  0  0  0
    3.5400   -6.1890   24.3490 N   0  0  0  0  0  0  0  0  0  0  0  0
    0.9640   -6.9040   23.1500 C   0  0  2  0  0  0  0  0  0  0  0  0
    3.3300   -7.3400   23.5080 C   0  0  0  0  0  0  0  0  0  0  0  0
   -0.3360   -7.4180   22.5550 C   0  0  0  0  0  0  0  0  0  0  0  0
    1.9450   -8.0120   23.5860 C   0  0  1  0  0  0  0  0  0  0  0  0
   -0.1890   -8.3120   21.3020 C   0  0  2  0  0  0  0  0  0  0  0  0
    1.7880   -8.7510   24.9610 C   0  0  1  0  0  0  0  0  0  0  0  0
   -0.8990   -7.7510   20.0820 C   0  0  0  0  0  0  0  0  0  0  0  0
   -0.8270   -9.6980   21.3610 C   0  0  0  0  0  0  0  0  0  0  0  0
    3.1170   -8.8290   25.5100 O   0  0  0  0  0  0  0  0  0  0  0  0
    0.8240   -8.1930   26.0320 C   0  0  0  0  0  0  0  0  0  0  0  0
   -2.2460   -8.4280   19.9300 C   0  0  0  0  0  0  0  0  0  0  0  0
   -2.2340   -9.4610   20.9730 N   0  0  0  0  0  0  0  0  0  0  0  0
    0.0120   -9.4610   26.9880 Cl  0  0  0  0  0  0  0  0  0  0  0  0
  1  2  1  0
  2  3  2  0
  2  4  1  0
  3  5  1  0
  4  6  2  0
  5  7  1  0
  5  8  2  0
  6  8  1  0
  6  9  1  0
 10  9  1  6
 10 11  1  0
 10 12  1  0
 11 13  1  0
 12 14  1  0
 13 15  1  1
 13 16  1  0
 16 14  1  1
 17 15  1  1
 16 18  1  0
 17 19  1  0
 17 20  1  0
 18 21  1  1
 18 22  1  0
 19 23  1  0
 20 24  1  0
 23 24  1  0
 22 25  1  0
M  END
