WAL-WAB-df110a02-1-bromoalkyne
     RDKit          3D

 24 26  0  0  0  0  0  0  0  0999 V2000
    6.7240   -4.0890   19.9560 C   0  0  0  0  0  0  0  0  0  0  0  0
    6.4780   -2.9970   18.8960 C   0  0  0  0  0  0  0  0  0  0  0  0
    6.9300   -3.7550   21.2670 N   0  0  0  0  0  0  0  0  0  0  0  0
    6.3300   -4.4950   22.2980 C   0  0  0  0  0  0  0  0  0  0  0  0
    6.8830   -4.4160   23.4890 N   0  0  0  0  0  0  0  0  0  0  0  0
    4.9550   -5.4850   22.1970 S   0  0  0  0  0  0  0  0  0  0  0  0
    6.2240   -5.1440   24.4300 C   0  0  0  0  0  0  0  0  0  0  0  0
    5.1060   -5.8210   23.9120 C   0  0  0  0  0  0  0  0  0  0  0  0
    6.5790   -5.2310   25.7470 C   0  0  0  0  0  0  0  0  0  0  0  0
    4.3180   -6.6100   24.7630 C   0  0  0  0  0  0  0  0  0  0  0  0
    7.7140   -4.5270   26.1840 C   0  0  0  0  0  0  0  0  0  0  0  0
    5.7830   -6.0200   26.5980 C   0  0  0  0  0  0  0  0  0  0  0  0
    4.6600   -6.7030   26.1080 C   0  0  0  0  0  0  0  0  0  0  0  0
    8.3610   -4.9540   27.1400 O   0  0  0  0  0  0  0  0  0  0  0  0
    8.0280   -3.4010   25.5350 N   0  0  0  0  0  0  0  0  0  0  0  0
    8.9530   -3.6080   24.5600 C   0  0  0  0  0  0  0  0  0  0  0  0
    9.0220   -2.5780   23.4870 C   0  0  0  0  0  0  0  0  0  0  0  0
   10.3490   -1.9760   23.4030 C   0  0  0  0  0  0  0  0  0  0  0  0
   11.0770   -2.0290   22.0590 C   0  0  0  0  0  0  0  0  0  0  0  0
   10.9210   -1.3890   24.5240 C   0  0  0  0  0  0  0  0  0  0  0  0
   12.4540   -1.3920   22.0450 C   0  0  0  0  0  0  0  0  0  0  0  0
   12.3180   -0.7540   24.5090 C   0  0  0  0  0  0  0  0  0  0  0  0
   13.0330   -0.7570   23.3040 C   0  0  0  0  0  0  0  0  0  0  0  0
   12.7930   -0.2530   25.5980 F   0  0  0  0  0  0  0  0  0  0  0  0
  1  2  2  3
  1  3  1  0
  3  4  1  0
  4  5  2  0
  4  6  1  0
  5  7  1  0
  6  8  1  0
  7  8  2  0
  7  9  1  0
  8 10  1  0
  9 11  1  0
  9 12  2  0
 10 13  2  0
 12 13  1  0
 11 14  2  0
 11 15  1  0
 15 16  1  0
 16 17  1  0
 17 18  1  0
 18 19  2  0
 18 20  1  0
 19 21  1  0
 20 22  2  0
 21 23  2  0
 22 23  1  0
 22 24  1  0
M  END
