WAL-WAB-df110a02-1-chloroacetamide
     RDKit          3D

 25 27  0  0  0  0  0  0  0  0999 V2000
    7.2830   -3.0750   18.9200 C   0  0  0  0  0  0  0  0  0  0  0  0
    6.3880   -3.6670   19.9830 C   0  0  0  0  0  0  0  0  0  0  0  0
    5.2800   -4.1220   19.7050 O   0  0  0  0  0  0  0  0  0  0  0  0
    6.9050   -3.7430   21.2550 N   0  0  0  0  0  0  0  0  0  0  0  0
    6.3210   -4.4810   22.2860 C   0  0  0  0  0  0  0  0  0  0  0  0
    6.8590   -4.3670   23.4840 N   0  0  0  0  0  0  0  0  0  0  0  0
    4.9780   -5.5070   22.1800 S   0  0  0  0  0  0  0  0  0  0  0  0
    6.2050   -5.0970   24.4250 C   0  0  0  0  0  0  0  0  0  0  0  0
    5.1110   -5.8110   23.9050 C   0  0  0  0  0  0  0  0  0  0  0  0
    6.5520   -5.1460   25.7410 C   0  0  0  0  0  0  0  0  0  0  0  0
    4.3380   -6.6010   24.7660 C   0  0  0  0  0  0  0  0  0  0  0  0
    7.6720   -4.3990   26.1300 C   0  0  0  0  0  0  0  0  0  0  0  0
    5.7730   -5.9380   26.6070 C   0  0  0  0  0  0  0  0  0  0  0  0
    4.6710   -6.6600   26.1210 C   0  0  0  0  0  0  0  0  0  0  0  0
    7.8450   -3.9480   27.4870 O   0  0  0  0  0  0  0  0  0  0  0  0
    8.5600   -4.1510   25.1560 N   0  0  0  0  0  0  0  0  0  0  0  0
    8.9260   -2.8390   25.0990 C   0  0  0  0  0  0  0  0  0  0  0  0
    9.0940   -2.2390   23.7480 C   0  0  0  0  0  0  0  0  0  0  0  0
   10.3720   -1.5430   23.5100 C   0  0  0  0  0  0  0  0  0  0  0  0
   10.6840   -0.3140   24.3680 C   0  0  0  0  0  0  0  0  0  0  0  0
   11.2710   -1.9940   22.5170 C   0  0  0  0  0  0  0  0  0  0  0  0
   12.0140    0.3520   24.0530 C   0  0  0  0  0  0  0  0  0  0  0  0
   12.6370   -1.3110   22.1980 C   0  0  0  0  0  0  0  0  0  0  0  0
   12.9620   -0.1750   22.9640 C   0  0  0  0  0  0  0  0  0  0  0  0
   13.4400   -1.7820   21.2430 F   0  0  0  0  0  0  0  0  0  0  0  0
  1  2  1  0
  2  3  2  0
  2  4  1  0
  4  5  1  0
  5  6  2  0
  5  7  1  0
  6  8  1  0
  7  9  1  0
  8  9  2  0
  8 10  1  0
  9 11  1  0
 10 12  1  0
 10 13  2  0
 11 14  2  0
 13 14  1  0
 12 15  2  0
 12 16  1  0
 16 17  1  0
 17 18  1  0
 18 19  1  0
 19 20  2  0
 19 21  1  0
 20 22  1  0
 21 23  2  0
 22 24  2  0
 23 24  1  0
 23 25  1  0
M  END
