WAL-WAB-df110a02-2-vinylsulfonamide
     RDKit          3D

 25 27  0  0  0  0  0  0  0  0999 V2000
    7.9230   -3.3950   19.5420 C   0  0  0  0  0  0  0  0  0  0  0  0
    6.9110   -2.5420   18.8330 C   0  0  0  0  0  0  0  0  0  0  0  0
    5.5820   -2.8000   19.8950 S   0  0  0  0  0  0  0  0  0  0  0  0
    5.1130   -4.1740   19.7700 O   0  0  0  0  0  0  0  0  0  0  0  0
    4.7160   -1.7340   19.6240 O   0  0  0  0  0  0  0  0  0  0  0  0
    6.3640   -2.5570   21.3750 N   0  0  0  0  0  0  0  0  0  0  0  0
    7.3690   -1.5200   21.3870 C   0  0  0  0  0  0  0  0  0  0  0  0
    6.4890   -3.7440   22.2320 C   0  0  0  0  0  0  0  0  0  0  0  0
    8.5270   -1.6490   22.1610 C   0  0  0  0  0  0  0  0  0  0  0  0
    7.7920   -3.7850   23.0360 C   0  0  0  0  0  0  0  0  0  0  0  0
    8.2410   -2.4280   23.3620 N   0  0  0  0  0  0  0  0  0  0  0  0
    9.2120   -2.3660   24.4590 C   0  0  2  0  0  0  0  0  0  0  0  0
   10.4020   -1.6860   24.0540 C   0  0  0  0  0  0  0  0  0  0  0  0
    9.2100   -3.5440   25.2510 C   0  0  0  0  0  0  0  0  0  0  0  0
   11.7080   -2.3660   23.7670 C   0  0  0  0  0  0  0  0  0  0  0  0
   10.3490   -0.2960   23.9020 C   0  0  0  0  0  0  0  0  0  0  0  0
    9.9210   -4.7450   25.3000 C   0  0  0  0  0  0  0  0  0  0  0  0
    8.0220   -3.6460   26.5230 S   0  0  0  0  0  0  0  0  0  0  0  0
   12.8520   -1.5170   23.3440 C   0  0  0  0  0  0  0  0  0  0  0  0
   11.5010    0.5850   23.4640 C   0  0  0  0  0  0  0  0  0  0  0  0
    9.5310   -5.6350   26.2710 C   0  0  0  0  0  0  0  0  0  0  0  0
    8.4940   -5.1970   27.0490 C   0  0  0  0  0  0  0  0  0  0  0  0
   12.7210   -0.0490   23.2000 C   0  0  0  0  0  0  0  0  0  0  0  0
   11.2820    2.1080   23.3180 C   0  0  0  0  0  0  0  0  0  0  0  0
    7.8450   -5.9220   28.1830 C   0  0  0  0  0  0  0  0  0  0  0  0
  1  2  1  0
  3  2  1  0
  3  4  2  0
  3  5  2  0
  3  6  1  0
  6  7  1  0
  6  8  1  0
  7  9  1  0
  8 10  1  0
  9 11  1  0
 10 11  1  0
 11 12  1  0
 12 13  1  6
 12 14  1  0
 13 15  2  0
 13 16  1  0
 14 17  2  0
 14 18  1  0
 15 19  1  0
 16 20  2  0
 17 21  1  0
 18 22  1  0
 21 22  2  0
 19 23  2  0
 20 23  1  0
 20 24  1  0
 22 25  1  0
M  END
