WAR-XCH-b0339bbe-8-vinylsulfonamide
     RDKit          3D

 26 28  0  0  0  0  0  0  0  0999 V2000
    6.8520   -4.6520   19.9260 C   0  0  0  0  0  0  0  0  0  0  0  0
    6.7980   -3.0840   19.9340 C   0  0  0  0  0  0  0  0  0  0  0  0
    6.0140   -2.4580   21.4580 S   0  0  0  0  0  0  0  0  0  0  0  0
    4.6910   -3.0310   21.4670 O   0  0  0  0  0  0  0  0  0  0  0  0
    6.3660   -1.0990   21.8120 O   0  0  0  0  0  0  0  0  0  0  0  0
    6.5910   -3.6050   22.5710 C   0  0  0  0  0  0  0  0  0  0  0  0
    7.5910   -4.2130   21.9900 C   0  0  0  0  0  0  0  0  0  0  0  0
    6.1770   -3.9870   23.8470 C   0  0  0  0  0  0  0  0  0  0  0  0
    8.2060   -5.2600   22.5400 C   0  0  0  0  0  0  0  0  0  0  0  0
    6.8140   -5.0600   24.3490 C   0  0  0  0  0  0  0  0  0  0  0  0
    5.1950   -3.4820   24.7590 C   0  0  0  0  0  0  0  0  0  0  0  0
    7.8230   -5.7200   23.7190 C   0  0  0  0  0  0  0  0  0  0  0  0
    5.8380   -3.0630   25.9480 N   0  0  0  0  0  0  0  0  0  0  0  0
    6.4120   -4.0590   26.8680 C   0  0  0  0  0  0  0  0  0  0  0  0
    5.4260   -5.1980   27.2630 C   0  0  0  0  0  0  0  0  0  0  0  0
    7.7560   -4.6430   26.3000 C   0  0  0  0  0  0  0  0  0  0  0  0
    6.6500   -3.1800   28.1010 C   0  0  0  0  0  0  0  0  0  0  0  0
    5.9170   -6.5300   27.8840 C   0  0  0  0  0  0  0  0  0  0  0  0
    8.6100   -5.3000   27.3100 C   0  0  0  0  0  0  0  0  0  0  0  0
    7.9820   -3.1080   28.2660 C   0  0  0  0  0  0  0  0  0  0  0  0
    5.1160   -7.2210   28.8160 C   0  0  0  0  0  0  0  0  0  0  0  0
    8.4560   -4.5220   28.5780 C   0  0  0  0  0  0  0  0  0  0  0  0
    3.7470   -6.9760   28.6240 C   0  0  0  0  0  0  0  0  0  0  0  0
    5.3650   -6.8580   30.1470 C   0  0  0  0  0  0  0  0  0  0  0  0
    3.1850   -6.5970   29.8580 C   0  0  0  0  0  0  0  0  0  0  0  0
    4.2020   -6.5250   30.8060 C   0  0  0  0  0  0  0  0  0  0  0  0
  1  2  1  0
  3  2  1  0
  3  4  2  0
  3  5  2  0
  3  6  1  0
  6  7  2  0
  6  8  1  0
  7  9  1  0
  8 10  2  0
  8 11  1  0
  9 12  2  0
 10 12  1  0
 11 13  1  0
 13 14  1  0
 14 15  1  0
 14 16  1  0
 14 17  1  0
 15 18  3  0
 16 19  1  0
 17 20  1  0
 18 21  1  0
 19 22  1  0
 20 22  1  0
 21 23  1  0
 21 24  1  0
 23 25  1  0
 24 26  1  0
 25 26  1  0
M  END
