WAR-XCH-bdd24732-36
     RDKit          3D

 27 29  0  0  0  0  0  0  0  0999 V2000
    7.8990   -0.1040   22.4600 O   0  0  0  0  0  0  0  0  0  0  0  0
    8.6300   -0.5290   23.3530 C   0  0  0  0  0  0  0  0  0  0  0  0
    9.7710    0.1380   23.7240 N   0  0  0  0  0  0  0  0  0  0  0  0
    8.3000   -1.7350   24.0350 N   0  0  0  0  0  0  0  0  0  0  0  0
   11.0280    0.0420   22.9950 C   0  0  0  0  0  0  0  0  0  0  0  0
    9.3070   -2.8360   24.0110 C   0  0  0  0  0  0  0  0  0  0  0  0
    7.2040   -1.7480   25.3530 S   0  0  0  0  0  0  0  0  0  0  0  0
   12.1050    0.1400   23.8810 C   0  0  0  0  0  0  0  0  0  0  0  0
   11.1330   -1.2400   22.1510 C   0  0  0  0  0  0  0  0  0  0  0  0
    8.6930   -4.2440   23.8870 C   0  0  0  0  0  0  0  0  0  0  0  0
    7.4260   -0.5200   26.0690 O   0  0  0  0  0  0  0  0  0  0  0  0
    5.8920   -1.9930   24.8020 O   0  0  0  0  0  0  0  0  0  0  0  0
    7.6150   -3.1320   26.4150 C   0  0  0  0  0  0  0  0  0  0  0  0
   12.5330   -1.0870   24.4560 C   0  0  0  0  0  0  0  0  0  0  0  0
   12.5870   -1.6800   22.0640 C   0  0  0  0  0  0  0  0  0  0  0  0
    9.3100   -5.2990   24.8290 C   0  0  0  0  0  0  0  0  0  0  0  0
    7.1680   -4.2040   24.0710 C   0  0  0  0  0  0  0  0  0  0  0  0
    6.5690   -3.6510   27.2840 C   0  0  0  0  0  0  0  0  0  0  0  0
    8.8940   -3.7110   26.4340 C   0  0  0  0  0  0  0  0  0  0  0  0
   12.9970   -2.1190   23.4610 C   0  0  0  0  0  0  0  0  0  0  0  0
    8.5690   -6.4880   25.0220 C   0  0  0  0  0  0  0  0  0  0  0  0
    6.6010   -5.5310   23.6210 C   0  0  0  0  0  0  0  0  0  0  0  0
    6.8420   -4.7550   28.1590 C   0  0  0  0  0  0  0  0  0  0  0  0
    9.1850   -4.7860   27.2760 C   0  0  0  0  0  0  0  0  0  0  0  0
    9.8920   -3.2690   25.6660 F   0  0  0  0  0  0  0  0  0  0  0  0
    7.5910   -6.6030   24.0480 C   0  0  0  0  0  0  0  0  0  0  0  0
    8.0980   -5.3320   28.1780 C   0  0  0  0  0  0  0  0  0  0  0  0
  1  2  2  0
  2  3  1  0
  2  4  1  0
  3  5  1  0
  4  6  1  0
  7  4  1  0
  5  8  1  0
  5  9  1  0
  6 10  1  0
  7 11  2  0
  7 12  2  0
  7 13  1  0
  8 14  1  0
  9 15  1  0
 10 16  1  0
 10 17  1  0
 13 18  2  0
 13 19  1  0
 14 20  1  0
 15 20  1  0
 16 21  1  0
 17 22  1  0
 18 23  1  0
 19 24  2  0
 19 25  1  0
 21 26  1  0
 22 26  1  0
 23 27  2  0
 24 27  1  0
M  END
