WAR-XCH-b0339bbe-17
     RDKit          3D

 24 26  0  0  0  0  0  0  0  0999 V2000
    6.0500   -3.4760   19.4230 O   0  0  0  0  0  0  0  0  0  0  0  0
    6.7190   -2.8190   20.2250 C   0  0  0  0  0  0  0  0  0  0  0  0
    7.2840   -3.3580   21.3520 N   0  0  0  0  0  0  0  0  0  0  0  0
    6.9050   -1.3320   20.0320 C   0  0  0  0  0  0  0  0  0  0  0  0
    6.3340   -3.5430   22.3880 C   0  0  0  0  0  0  0  0  0  0  0  0
    8.0040   -0.6440   20.7440 C   0  0  0  0  0  0  0  0  0  0  0  0
    6.7310   -1.0520   18.6410 C   0  0  0  0  0  0  0  0  0  0  0  0
    5.7610   -0.7990   20.6650 C   0  0  0  0  0  0  0  0  0  0  0  0
    5.6540   -4.7570   22.5680 C   0  0  0  0  0  0  0  0  0  0  0  0
    6.0540   -2.4630   23.2650 C   0  0  0  0  0  0  0  0  0  0  0  0
    8.8790   -1.5330   21.6730 C   0  0  0  0  0  0  0  0  0  0  0  0
    5.6580   -0.0530   18.2360 C   0  0  0  0  0  0  0  0  0  0  0  0
    5.5110    0.7080   20.5530 C   0  0  0  0  0  0  0  0  0  0  0  0
    4.7050   -4.9110   23.5850 C   0  0  0  0  0  0  0  0  0  0  0  0
    5.1050   -2.6500   24.2610 C   0  0  0  0  0  0  0  0  0  0  0  0
    6.6240   -1.3890   23.1600 O   0  0  0  0  0  0  0  0  0  0  0  0
   10.3120   -1.0670   22.0910 C   0  0  0  0  0  0  0  0  0  0  0  0
    5.6590    1.1560   19.1120 C   0  0  0  0  0  0  0  0  0  0  0  0
    4.4210   -3.8430   24.4430 C   0  0  0  0  0  0  0  0  0  0  0  0
   11.5430   -1.9770   21.9670 C   0  0  0  0  0  0  0  0  0  0  0  0
   10.4100    0.2800   22.6010 N   0  0  0  0  0  0  0  0  0  0  0  0
   12.7640   -1.4570   22.3670 C   0  0  0  0  0  0  0  0  0  0  0  0
   11.7660    0.7230   22.9870 C   0  0  0  0  0  0  0  0  0  0  0  0
   12.8520   -0.1400   22.8610 C   0  0  0  0  0  0  0  0  0  0  0  0
  1  2  2  0
  2  3  1  0
  2  4  1  0
  3  5  1  0
  4  6  1  0
  4  7  1  0
  4  8  1  0
  5  9  2  0
  5 10  1  0
  6 11  3  0
  7 12  1  0
  8 13  1  0
  9 14  1  0
 10 15  2  0
 10 16  1  0
 11 17  1  0
 12 18  1  0
 13 18  1  0
 14 19  2  0
 15 19  1  0
 17 20  2  0
 17 21  1  0
 20 22  1  0
 21 23  2  0
 22 24  2  0
 23 24  1  0
M  END
