WAR-XCH-b6889685-18
     RDKit          3D

 25 27  0  0  0  0  0  0  0  0999 V2000
   25.4260  -13.6400   26.2990 N   0  0  0  0  0  0  0  0  0  0  0  0
   24.7720  -13.4220   24.7660 S   0  0  0  0  0  0  0  0  0  0  0  0
   23.5180  -12.7410   24.8700 O   0  0  0  0  0  0  0  0  0  0  0  0
   25.8270  -13.0360   23.8530 O   0  0  0  0  0  0  0  0  0  0  0  0
   24.3710  -15.0690   24.4800 C   0  0  0  0  0  0  0  0  0  0  0  0
   25.4100  -16.1460   24.7670 C   0  0  0  0  0  0  0  0  0  0  0  0
   23.1320  -15.4210   24.0020 C   0  0  0  0  0  0  0  0  0  0  0  0
   25.2730  -17.6570   24.5850 C   0  0  0  0  0  0  0  0  0  0  0  0
   22.8060  -16.8770   23.7560 C   0  0  0  0  0  0  0  0  0  0  0  0
   23.8530  -17.9690   24.0360 C   0  0  0  0  0  0  0  0  0  0  0  0
   23.7130  -19.3890   23.8350 N   0  0  0  0  0  0  0  0  0  0  0  0
   24.2290  -19.8370   22.5430 C   0  0  0  0  0  0  0  0  0  0  0  0
   22.4400  -19.9460   24.1060 C   0  0  0  0  0  0  0  0  0  0  0  0
   24.7550  -21.2520   22.7680 C   0  0  0  0  0  0  0  0  0  0  0  0
   22.4730  -21.4630   24.0650 C   0  0  0  0  0  0  0  0  0  0  0  0
   23.4490  -22.0730   23.0350 C   0  0  0  0  0  0  0  0  0  0  0  0
   22.8190  -22.2490   21.6350 C   0  0  0  0  0  0  0  0  0  0  0  0
   23.1220  -23.4170   21.0640 O   0  0  0  0  0  0  0  0  0  0  0  0
   22.6870  -23.7950   19.7400 C   0  0  0  0  0  0  0  0  0  0  0  0
   22.5610  -22.7780   18.6250 C   0  0  0  0  0  0  0  0  0  0  0  0
   22.3920  -25.1270   19.5050 C   0  0  0  0  0  0  0  0  0  0  0  0
   22.1610  -23.2360   17.3670 C   0  0  0  0  0  0  0  0  0  0  0  0
   21.9990  -25.5220   18.2340 C   0  0  0  0  0  0  0  0  0  0  0  0
   21.8960  -24.6000   17.1950 C   0  0  0  0  0  0  0  0  0  0  0  0
   21.7230  -26.8110   18.0000 F   0  0  0  0  0  0  0  0  0  0  0  0
  2  1  1  0
  2  3  2  0
  2  4  2  0
  2  5  1  0
  5  6  2  0
  5  7  1  0
  6  8  1  0
  7  9  2  0
  8 10  2  0
  9 10  1  0
 10 11  1  0
 11 12  1  0
 11 13  1  0
 12 14  1  0
 13 15  1  0
 14 16  1  0
 15 16  1  0
 16 17  1  0
 17 18  1  0
 18 19  1  0
 19 20  2  0
 19 21  1  0
 20 22  1  0
 21 23  2  0
 22 24  2  0
 23 24  1  0
 23 25  1  0
M  END
