WAR-XCH-bdd24732-16-chloroacetamide
     RDKit          3D

 25 28  0  0  0  0  0  0  0  0999 V2000
    7.4280   -3.0060   18.7160 C   0  0  0  0  0  0  0  0  0  0  0  0
    6.5100   -3.2910   19.8860 C   0  0  0  0  0  0  0  0  0  0  0  0
    5.5270   -4.0530   19.7250 O   0  0  0  0  0  0  0  0  0  0  0  0
    6.8380   -2.6950   21.1170 N   0  0  0  0  0  0  0  0  0  0  0  0
    8.0720   -1.9880   21.2680 C   0  0  0  0  0  0  0  0  0  0  0  0
    6.2970   -3.1660   22.3890 C   0  0  0  0  0  0  0  0  0  0  0  0
    8.3010   -1.2300   22.4110 C   0  0  0  0  0  0  0  0  0  0  0  0
    6.4620   -2.2440   23.4530 C   0  0  2  0  0  0  0  0  0  0  0  0
    7.7960   -1.8490   23.5360 C   0  0  0  0  0  0  0  0  0  0  0  0
    5.9980   -2.8830   24.6960 C   0  0  0  0  0  0  0  0  0  0  0  0
    6.2920   -4.1400   24.6350 N   0  0  0  0  0  0  0  0  0  0  0  0
    5.3510   -2.3900   25.8260 C   0  0  0  0  0  0  0  0  0  0  0  0
    6.0060   -4.9590   25.5900 C   0  0  0  0  0  0  0  0  0  0  0  0
    5.0570   -3.3570   26.8660 C   0  0  0  0  0  0  0  0  0  0  0  0
    4.9530   -0.9540   26.0220 C   0  0  0  0  0  0  0  0  0  0  0  0
    6.5560   -6.0550   24.9130 C   0  0  0  0  0  0  0  0  0  0  0  0
    5.3980   -4.7340   26.7580 N   0  0  0  0  0  0  0  0  0  0  0  0
    4.4080   -2.8680   28.0130 C   0  0  0  0  0  0  0  0  0  0  0  0
    4.3120   -0.5670   27.1950 C   0  0  0  0  0  0  0  0  0  0  0  0
    8.0560   -6.2000   24.8440 C   0  0  0  0  0  0  0  0  0  0  0  0
    5.7310   -7.0640   24.1690 C   0  0  0  0  0  0  0  0  0  0  0  0
    4.0460   -1.5200   28.1780 C   0  0  0  0  0  0  0  0  0  0  0  0
    8.6490   -7.3230   24.0240 C   0  0  0  0  0  0  0  0  0  0  0  0
    6.3130   -8.1450   23.3880 N   0  0  0  0  0  0  0  0  0  0  0  0
    7.7600   -8.3170   23.2680 C   0  0  0  0  0  0  0  0  0  0  0  0
  1  2  1  0
  2  3  2  0
  2  4  1  0
  4  5  1  0
  4  6  1  0
  5  7  1  0
  6  8  1  0
  7  9  1  0
  8  9  1  0
  8 10  1  1
 10 11  2  0
 10 12  1  0
 11 13  1  0
 12 14  2  0
 12 15  1  0
 13 16  1  0
 13 17  2  0
 14 17  1  0
 14 18  1  0
 15 19  2  0
 16 20  2  0
 16 21  1  0
 18 22  2  0
 19 22  1  0
 20 23  1  0
 21 24  2  0
 23 25  2  0
 24 25  1  0
M  END
