WAR-XCH-b72a1bbc-20
     RDKit          3D

 24 26  0  0  0  0  0  0  0  0999 V2000
    8.3930    5.8620   22.4170 N   0  0  0  0  0  0  0  0  0  0  0  0
    9.4350    5.7280   23.7320 S   0  0  0  0  0  0  0  0  0  0  0  0
    8.6600    5.8190   24.9470 O   0  0  0  0  0  0  0  0  0  0  0  0
   10.5240    6.6280   23.4330 O   0  0  0  0  0  0  0  0  0  0  0  0
   10.0100    4.0590   23.5720 C   0  0  0  0  0  0  0  0  0  0  0  0
    9.0870    2.9310   23.9330 C   0  0  0  0  0  0  0  0  0  0  0  0
   11.3120    3.8150   23.1180 C   0  0  0  0  0  0  0  0  0  0  0  0
    9.5890    1.5110   23.8000 C   0  0  0  0  0  0  0  0  0  0  0  0
   11.8560    2.5130   22.9660 C   0  0  0  0  0  0  0  0  0  0  0  0
   11.0130    1.2600   23.3030 C   0  0  0  0  0  0  0  0  0  0  0  0
   11.4670   -0.1240   23.1900 N   0  0  0  0  0  0  0  0  0  0  0  0
   10.5970   -1.1940   23.4100 C   0  0  0  0  0  0  0  0  0  0  0  0
   12.8050   -0.3790   23.6580 C   0  0  0  0  0  0  0  0  0  0  0  0
   11.3520   -2.5440   23.3250 C   0  0  0  0  0  0  0  0  0  0  0  0
   12.7310   -1.3410   24.8460 C   0  0  0  0  0  0  0  0  0  0  0  0
   12.5680   -2.7210   24.2330 C   0  0  0  0  0  0  0  0  0  0  0  0
   13.8270   -2.9930   23.6360 C   0  0  0  0  0  0  0  0  0  0  0  0
   14.8140   -3.7860   24.5490 N   0  0  0  0  0  0  0  0  0  0  0  0
   16.0900   -4.4260   24.3340 C   0  0  0  0  0  0  0  0  0  0  0  0
   14.6160   -3.6230   25.8830 C   0  0  0  0  0  0  0  0  0  0  0  0
   16.4470   -5.7200   24.3650 C   0  0  0  0  0  0  0  0  0  0  0  0
   14.6170   -5.0620   26.4700 C   0  0  0  0  0  0  0  0  0  0  0  0
   16.7050   -6.1240   25.6240 C   0  0  0  0  0  0  0  0  0  0  0  0
   15.6570   -6.0770   26.4950 C   0  0  0  0  0  0  0  0  0  0  0  0
  2  1  1  0
  2  3  2  0
  2  4  2  0
  2  5  1  0
  5  6  2  0
  5  7  1  0
  6  8  1  0
  7  9  2  0
  8 10  2  0
  9 10  1  0
 10 11  1  0
 11 12  1  0
 11 13  1  0
 12 14  1  0
 13 15  1  0
 14 16  1  0
 15 16  1  0
 16 17  1  0
 17 18  1  0
 18 19  1  0
 18 20  1  0
 19 21  1  0
 20 22  1  0
 21 23  1  0
 22 24  1  0
 23 24  1  0
M  END
