WAR-XCH-e55cba98-8
     RDKit          3D

 27 30  0  0  0  0  0  0  0  0999 V2000
   11.6550    6.5850   22.2550 O   0  0  0  0  0  0  0  0  0  0  0  0
   10.8590    5.8670   23.2310 S   0  0  0  0  0  0  0  0  0  0  0  0
   10.8520    6.2580   24.6150 O   0  0  0  0  0  0  0  0  0  0  0  0
   11.4790    4.1910   23.1790 C   0  0  0  0  0  0  0  0  0  0  0  0
    9.2480    5.8940   22.7110 N   0  0  0  0  0  0  0  0  0  0  0  0
   12.4400    3.7560   22.1380 C   0  0  0  0  0  0  0  0  0  0  0  0
   11.1510    3.2360   24.0420 C   0  0  0  0  0  0  0  0  0  0  0  0
    8.5940    7.2370   22.6430 C   0  0  0  0  0  0  0  0  0  0  0  0
    8.3270    4.8450   23.2960 C   0  0  0  0  0  0  0  0  0  0  0  0
   12.9140    2.3340   22.2280 C   0  0  0  0  0  0  0  0  0  0  0  0
   11.9670    1.7990   23.6690 S   0  0  0  0  0  0  0  0  0  0  0  0
    7.5140    7.2040   21.6720 C   0  0  0  0  0  0  0  0  0  0  0  0
    6.8640    5.2820   23.0580 C   0  0  0  0  0  0  0  0  0  0  0  0
    6.7810    6.0220   21.7890 N   0  0  0  0  0  0  0  0  0  0  0  0
    5.5350    5.9110   21.0020 C   0  0  0  0  0  0  0  0  0  0  0  0
    5.3970    4.6470   20.3300 C   0  0  0  0  0  0  0  0  0  0  0  0
    5.4880    7.0230   20.0910 C   0  0  0  0  0  0  0  0  0  0  0  0
    4.4130    6.1320   21.8770 C   0  0  0  0  0  0  0  0  0  0  0  0
    5.8250    3.5910   21.1320 C   0  0  0  0  0  0  0  0  0  0  0  0
    4.0110    7.2840   19.7620 C   0  0  0  0  0  0  0  0  0  0  0  0
    3.3570    6.7760   20.9980 C   0  0  0  0  0  0  0  0  0  0  0  0
    5.8520    2.2890   20.5990 C   0  0  0  0  0  0  0  0  0  0  0  0
    4.6040    1.6240   20.0750 C   0  0  0  0  0  0  0  0  0  0  0  0
    7.1400    1.5510   20.5530 N   0  0  0  0  0  0  0  0  0  0  0  0
    4.5840    0.2200   19.4930 C   0  0  0  0  0  0  0  0  0  0  0  0
    7.2140    0.2590   20.0230 C   0  0  0  0  0  0  0  0  0  0  0  0
    5.9390   -0.4360   19.4820 C   0  0  0  0  0  0  0  0  0  0  0  0
  1  2  2  0
  2  3  2  0
  2  4  1  0
  2  5  1  0
  4  6  1  0
  4  7  2  0
  5  8  1  0
  5  9  1  0
  6 10  2  0
  7 11  1  0
 10 11  1  0
  8 12  1  0
  9 13  1  0
 12 14  1  0
 13 14  1  0
 14 15  1  0
 15 16  1  0
 15 17  1  0
 15 18  1  0
 16 19  3  0
 17 20  1  0
 18 21  1  0
 20 21  1  0
 19 22  1  0
 22 23  2  0
 22 24  1  0
 23 25  1  0
 24 26  2  0
 25 27  2  0
 26 27  1  0
M  END
