WAR-XCH-b0339bbe-4
     RDKit          3D

 26 29  0  0  0  0  0  0  0  0999 V2000
    7.5190    0.0100   29.4140 N   0  0  0  0  0  0  0  0  0  0  0  0
    6.4810   -0.1680   28.0900 S   0  0  0  0  0  0  0  0  0  0  0  0
    5.1300    0.0510   28.5660 O   0  0  0  0  0  0  0  0  0  0  0  0
    7.0540    0.5920   26.9950 O   0  0  0  0  0  0  0  0  0  0  0  0
    6.5850   -1.8930   27.7130 C   0  0  0  0  0  0  0  0  0  0  0  0
    6.5880   -2.6680   28.9560 C   0  0  0  0  0  0  0  0  0  0  0  0
    6.6350   -2.0400   26.2880 C   0  0  0  0  0  0  0  0  0  0  0  0
    6.6860   -4.0180   28.5600 C   0  0  0  0  0  0  0  0  0  0  0  0
    6.7150   -3.4180   26.0320 C   0  0  0  0  0  0  0  0  0  0  0  0
    6.7560   -4.4070   27.2360 C   0  0  0  0  0  0  0  0  0  0  0  0
    6.7500   -4.0940   24.8600 C   0  0  0  0  0  0  0  0  0  0  0  0
    6.6110   -3.6420   23.4910 C   0  0  0  0  0  0  0  0  0  0  0  0
    5.5310   -4.7430   25.1090 C   0  0  0  0  0  0  0  0  0  0  0  0
    7.5980   -5.1500   24.7000 C   0  0  0  0  0  0  0  0  0  0  0  0
    5.7610   -4.6530   22.8810 C   0  0  0  0  0  0  0  0  0  0  0  0
    7.1560   -2.5450   22.8580 C   0  0  0  0  0  0  0  0  0  0  0  0
    4.9600   -5.4100   23.8810 C   0  0  0  0  0  0  0  0  0  0  0  0
    7.4290   -5.7330   23.2950 C   0  0  0  0  0  0  0  0  0  0  0  0
    5.4800   -4.4820   21.5080 C   0  0  0  0  0  0  0  0  0  0  0  0
    6.9000   -2.3270   21.5230 C   0  0  0  0  0  0  0  0  0  0  0  0
    5.9630   -5.9030   22.8410 C   0  0  0  0  0  0  0  0  0  0  0  0
    6.0970   -3.2550   20.8710 C   0  0  0  0  0  0  0  0  0  0  0  0
    7.4390   -1.2120   20.8850 C   0  0  0  0  0  0  0  0  0  0  0  0
    5.7980   -3.0560   19.4310 C   0  0  0  0  0  0  0  0  0  0  0  0
    7.1830   -0.9030   19.3710 C   0  0  0  0  0  0  0  0  0  0  0  0
    6.3770   -1.8390   18.7180 C   0  0  0  0  0  0  0  0  0  0  0  0
  2  1  1  0
  2  3  2  0
  2  4  2  0
  2  5  1  0
  5  6  2  0
  5  7  1  0
  6  8  1  0
  7  9  2  0
  8 10  2  0
  9 10  1  0
 11  9  1  0
 11 12  1  0
 11 13  1  0
 11 14  1  0
 12 15  2  0
 12 16  1  0
 13 17  1  0
 14 18  1  0
 15 19  1  0
 16 20  2  0
 17 21  1  0
 18 21  1  0
 19 22  2  0
 20 22  1  0
 20 23  1  0
 22 24  1  0
 23 25  2  0
 24 26  2  0
 25 26  1  0
M  END
