WAR-XCH-b6889685-4
     RDKit          3D

 26 28  0  0  0  0  0  0  0  0999 V2000
   22.0510  -26.4350   16.3690 C   0  0  0  0  0  0  0  0  0  0  0  0
   22.1890  -25.4080   17.5070 C   0  0  0  0  0  0  0  0  0  0  0  0
   22.0660  -25.7400   19.0310 C   0  0  0  0  0  0  0  0  0  0  0  0
   22.4640  -24.0940   17.0870 C   0  0  0  0  0  0  0  0  0  0  0  0
   22.2890  -24.6040   20.0850 C   0  0  0  0  0  0  0  0  0  0  0  0
   22.6880  -22.9450   18.0360 C   0  0  0  0  0  0  0  0  0  0  0  0
   22.6210  -23.1940   19.5310 C   0  0  0  0  0  0  0  0  0  0  0  0
   22.8610  -22.2030   20.5610 N   0  0  0  0  0  0  0  0  0  0  0  0
   24.0290  -21.3530   20.2930 C   0  0  0  0  0  0  0  0  0  0  0  0
   22.5500  -22.4830   21.9700 C   0  0  0  0  0  0  0  0  0  0  0  0
   23.1280  -21.3570   22.8880 C   0  0  0  0  0  0  0  0  0  0  0  0
   22.3560  -21.1540   24.1620 C   0  0  0  0  0  0  0  0  0  0  0  0
   24.4630  -21.2130   23.1250 C   0  0  0  0  0  0  0  0  0  0  0  0
   22.2820  -19.6760   24.4980 C   0  0  0  0  0  0  0  0  0  0  0  0
   24.7110  -19.8970   23.8690 C   0  0  0  0  0  0  0  0  0  0  0  0
   23.4770  -19.0780   24.0950 N   0  0  0  0  0  0  0  0  0  0  0  0
   23.7120  -17.6670   24.0220 C   0  0  0  0  0  0  0  0  0  0  0  0
   23.5510  -17.0610   25.2710 C   0  0  0  0  0  0  0  0  0  0  0  0
   24.0750  -17.0010   22.8410 C   0  0  0  0  0  0  0  0  0  0  0  0
   23.7680  -15.7060   25.3810 C   0  0  0  0  0  0  0  0  0  0  0  0
   24.3310  -15.5110   22.8630 C   0  0  0  0  0  0  0  0  0  0  0  0
   24.1640  -14.9800   24.1240 C   0  0  0  0  0  0  0  0  0  0  0  0
   24.4420  -13.2630   24.3390 S   0  0  0  0  0  0  0  0  0  0  0  0
   25.4800  -13.3720   25.6970 N   0  0  0  0  0  0  0  0  0  0  0  0
   23.1860  -12.6820   24.7180 O   0  0  0  0  0  0  0  0  0  0  0  0
   25.2230  -12.7770   23.2210 O   0  0  0  0  0  0  0  0  0  0  0  0
  1  2  1  0
  2  3  2  0
  2  4  1  0
  3  5  1  0
  4  6  2  0
  5  7  2  0
  6  7  1  0
  7  8  1  0
  8  9  1  0
  8 10  1  0
 10 11  1  0
 11 12  1  0
 11 13  1  0
 12 14  1  0
 13 15  1  0
 14 16  1  0
 15 16  1  0
 16 17  1  0
 17 18  2  0
 17 19  1  0
 18 20  1  0
 19 21  2  0
 20 22  2  0
 21 22  1  0
 22 23  1  0
 23 24  1  0
 23 25  2  0
 23 26  2  0
M  END
