WAR-XCH-b0339bbe-3-acrylamide
     RDKit          3D

 21 23  0  0  0  0  0  0  0  0999 V2000
    6.4430   -5.2840   20.5100 C   0  0  0  0  0  0  0  0  0  0  0  0
    6.0510   -6.1690   21.8040 C   0  0  0  0  0  0  0  0  0  0  0  0
    5.2550   -5.4250   22.8360 C   0  0  0  0  0  0  0  0  0  0  0  0
    4.1370   -4.9890   22.5200 O   0  0  0  0  0  0  0  0  0  0  0  0
    5.8390   -5.1400   24.0460 N   0  0  0  0  0  0  0  0  0  0  0  0
    7.2620   -5.1460   23.9730 C   0  0  0  0  0  0  0  0  0  0  0  0
    5.5000   -3.7870   24.2620 C   0  0  0  0  0  0  0  0  0  0  0  0
    7.6390   -4.4380   22.8610 C   0  0  0  0  0  0  0  0  0  0  0  0
    5.5690   -3.1850   22.9970 C   0  0  0  0  0  0  0  0  0  0  0  0
    6.5680   -3.9520   22.0910 C   0  0  0  0  0  0  0  0  0  0  0  0
    6.9270   -3.0890   20.9040 C   0  0  0  0  0  0  0  0  0  0  0  0
    8.2980   -2.6920   21.2630 C   0  0  0  0  0  0  0  0  0  0  0  0
    9.4590   -2.8930   21.4090 N   0  0  0  0  0  0  0  0  0  0  0  0
    8.1180   -1.3360   21.6470 N   0  0  0  0  0  0  0  0  0  0  0  0
   10.1220   -1.7020   21.9000 C   0  0  0  0  0  0  0  0  0  0  0  0
    9.2800   -0.7060   22.0530 C   0  0  0  0  0  0  0  0  0  0  0  0
   11.5500   -1.4240   22.2480 C   0  0  0  0  0  0  0  0  0  0  0  0
    9.6870    0.6510   22.5470 N   0  0  0  0  0  0  0  0  0  0  0  0
   12.9960   -1.9700   22.3410 C   0  0  0  0  0  0  0  0  0  0  0  0
   12.0970   -0.1350   22.7470 C   0  0  0  0  0  0  0  0  0  0  0  0
   11.1290    0.9070   22.8880 C   0  0  0  0  0  0  0  0  0  0  0  0
  1  2  1  0
  2  3  1  0
  3  4  2  0
  3  5  1  0
  5  6  1  0
  5  7  1  0
  6  8  1  0
  7  9  1  0
  8 10  1  0
  9 10  1  0
 10 11  1  0
 11 12  1  0
 12 13  2  0
 12 14  1  0
 13 15  1  0
 14 16  1  0
 15 16  2  0
 15 17  1  0
 16 18  1  0
 17 19  1  0
 17 20  2  0
 18 21  2  0
 20 21  1  0
M  END
