WAR-XCH-b72a1bbc-44
     RDKit          3D

 25 27  0  0  0  0  0  0  0  0999 V2000
   23.1530  -12.7860   24.6100 N   0  0  0  0  0  0  0  0  0  0  0  0
   24.6680  -13.4590   24.7210 S   0  0  0  0  0  0  0  0  0  0  0  0
   25.1980  -13.3390   26.0560 O   0  0  0  0  0  0  0  0  0  0  0  0
   25.3690  -12.9760   23.5510 O   0  0  0  0  0  0  0  0  0  0  0  0
   24.3800  -15.1510   24.5120 C   0  0  0  0  0  0  0  0  0  0  0  0
   23.9040  -15.9060   25.6950 C   0  0  0  0  0  0  0  0  0  0  0  0
   24.6240  -15.6770   23.2430 C   0  0  0  0  0  0  0  0  0  0  0  0
   23.6800  -17.3970   25.4730 C   0  0  0  0  0  0  0  0  0  0  0  0
   24.4320  -17.1200   22.9380 C   0  0  0  0  0  0  0  0  0  0  0  0
   23.9540  -17.9850   24.1000 C   0  0  0  0  0  0  0  0  0  0  0  0
   23.7590  -19.3970   23.9140 N   0  0  0  0  0  0  0  0  0  0  0  0
   22.4630  -19.7910   24.0370 C   0  0  0  0  0  0  0  0  0  0  0  0
   24.1450  -19.6080   22.5010 C   0  0  0  0  0  0  0  0  0  0  0  0
   22.2100  -21.1810   23.7040 C   0  0  0  0  0  0  0  0  0  0  0  0
   24.0340  -20.9110   22.0040 C   0  0  0  0  0  0  0  0  0  0  0  0
   23.1520  -21.8630   22.8440 C   0  0  0  0  0  0  0  0  0  0  0  0
   22.5410  -22.8010   21.9150 C   0  0  0  0  0  0  0  0  0  0  0  0
   22.6980  -22.3250   20.5380 N   0  0  0  0  0  0  0  0  0  0  0  0
   22.4950  -23.1710   19.5540 C   0  0  0  0  0  0  0  0  0  0  0  0
   22.4870  -22.7630   18.2050 C   0  0  0  0  0  0  0  0  0  0  0  0
   22.2810  -24.5370   19.8330 C   0  0  0  0  0  0  0  0  0  0  0  0
   22.2820  -23.7230   17.0700 C   0  0  0  0  0  0  0  0  0  0  0  0
   22.0600  -25.6040   18.7620 C   0  0  0  0  0  0  0  0  0  0  0  0
   22.0640  -25.2290   17.2850 C   0  0  0  0  0  0  0  0  0  0  0  0
   21.9020  -26.1130   16.2950 F   0  0  0  0  0  0  0  0  0  0  0  0
  2  1  1  0
  2  3  2  0
  2  4  2  0
  2  5  1  0
  5  6  2  0
  5  7  1  0
  6  8  1  0
  7  9  2  0
  8 10  2  0
  9 10  1  0
 10 11  1  0
 11 12  1  0
 11 13  1  0
 12 14  1  0
 13 15  1  0
 14 16  1  0
 15 16  1  0
 16 17  1  0
 17 18  1  0
 18 19  1  0
 19 20  2  0
 19 21  1  0
 20 22  1  0
 21 23  2  0
 22 24  2  0
 23 24  1  0
 24 25  1  0
M  END
