WAR-XCH-bdd24732-14
     RDKit          3D

 30 34  0  0  0  0  0  0  0  0999 V2000
    4.4650   -4.4240   28.8070 C   0  0  0  0  0  0  0  0  0  0  0  0
    5.6940   -5.2850   28.6550 C   0  0  0  0  0  0  0  0  0  0  0  0
    6.6210   -4.9240   27.6550 C   0  0  0  0  0  0  0  0  0  0  0  0
    3.2360   -3.6240   29.0020 C   0  0  2  0  0  0  0  0  0  0  0  0
    3.1470   -3.1380   30.4540 C   0  0  0  0  0  0  0  0  0  0  0  0
    1.9760   -4.4330   28.5990 C   0  0  0  0  0  0  0  0  0  0  0  0
    6.2130   -5.0080   26.3070 C   0  0  0  0  0  0  0  0  0  0  0  0
    6.8680   -3.5630   27.8120 C   0  0  0  0  0  0  0  0  0  0  0  0
    7.8680   -5.4850   27.9140 C   0  0  0  0  0  0  0  0  0  0  0  0
    1.7530   -2.6180   30.8310 C   0  0  0  0  0  0  0  0  0  0  0  0
    0.6820   -3.8430   28.9890 N   0  0  0  0  0  0  0  0  0  0  0  0
    6.8770   -4.1490   25.3220 N   0  0  0  0  0  0  0  0  0  0  0  0
    5.0840   -5.9800   25.8800 C   0  0  0  0  0  0  0  0  0  0  0  0
    7.7830   -2.9380   26.7830 C   0  0  0  0  0  0  0  0  0  0  0  0
    9.0170   -5.1640   26.9640 C   0  0  0  0  0  0  0  0  0  0  0  0
    0.6270   -3.5700   30.4180 C   0  0  0  0  0  0  0  0  0  0  0  0
    6.4150   -4.2650   23.9400 C   0  0  0  0  0  0  0  0  0  0  0  0
    4.7880   -5.9580   24.5090 C   0  0  0  0  0  0  0  0  0  0  0  0
    4.4240   -6.8030   26.7820 C   0  0  0  0  0  0  0  0  0  0  0  0
    9.0220   -3.7190   26.4250 C   0  0  0  0  0  0  0  0  0  0  0  0
    7.0750   -3.3930   23.0850 C   0  0  0  0  0  0  0  0  0  0  0  0
    5.4510   -5.0950   23.5000 N   0  0  0  0  0  0  0  0  0  0  0  0
    3.6870   -6.8910   23.9850 C   0  0  0  0  0  0  0  0  0  0  0  0
    3.4050   -7.6810   26.4050 C   0  0  0  0  0  0  0  0  0  0  0  0
    6.2400   -2.7230   21.9750 C   0  0  0  0  0  0  0  0  0  0  0  0
    8.4760   -3.1550   23.2810 C   0  0  0  0  0  0  0  0  0  0  0  0
    3.0330   -7.7090   24.9000 C   0  0  0  0  0  0  0  0  0  0  0  0
    6.9660   -1.8300   21.1390 C   0  0  0  0  0  0  0  0  0  0  0  0
    9.2770   -2.3080   22.5260 N   0  0  0  0  0  0  0  0  0  0  0  0
    8.3010   -1.8320   21.6050 C   0  0  0  0  0  0  0  0  0  0  0  0
  1  2  3  0
  3  2  1  0
  4  1  1  1
  4  5  1  0
  4  6  1  0
  3  7  1  0
  3  8  1  0
  3  9  1  0
  5 10  1  0
  6 11  1  0
  7 12  2  0
  7 13  1  0
  8 14  1  0
  9 15  1  0
 10 16  1  0
 11 16  1  0
 12 17  1  0
 13 18  2  0
 13 19  1  0
 14 20  1  0
 15 20  1  0
 17 21  1  0
 17 22  2  0
 18 22  1  0
 18 23  1  0
 19 24  2  0
 21 25  2  0
 21 26  1  0
 23 27  2  0
 24 27  1  0
 25 28  1  0
 26 29  2  0
 28 30  2  0
 29 30  1  0
M  END
