WAR-XCH-b0339bbe-8-acrylamide
     RDKit          3D

 25 27  0  0  0  0  0  0  0  0999 V2000
    7.8610   -5.3840   21.4810 C   0  0  0  0  0  0  0  0  0  0  0  0
    6.4910   -6.1490   21.7800 C   0  0  0  0  0  0  0  0  0  0  0  0
    5.5340   -5.4250   22.7010 C   0  0  0  0  0  0  0  0  0  0  0  0
    4.4060   -5.1560   22.2860 O   0  0  0  0  0  0  0  0  0  0  0  0
    5.8080   -4.8690   24.0010 C   0  0  0  0  0  0  0  0  0  0  0  0
    5.4220   -5.3860   25.1930 C   0  0  0  0  0  0  0  0  0  0  0  0
    6.4840   -3.7190   23.9670 C   0  0  0  0  0  0  0  0  0  0  0  0
    5.7020   -4.7110   26.3660 C   0  0  0  0  0  0  0  0  0  0  0  0
    6.8000   -2.9720   25.0840 C   0  0  0  0  0  0  0  0  0  0  0  0
    6.9440   -3.1680   22.6630 C   0  0  0  0  0  0  0  0  0  0  0  0
    6.4280   -3.4020   26.3300 C   0  0  0  0  0  0  0  0  0  0  0  0
    6.0990   -3.3930   21.5690 N   0  0  0  0  0  0  0  0  0  0  0  0
    6.0570   -2.2280   20.7050 C   0  0  0  0  0  0  0  0  0  0  0  0
    5.1090   -1.1590   21.3350 C   0  0  0  0  0  0  0  0  0  0  0  0
    5.5910   -2.4760   19.2840 C   0  0  0  0  0  0  0  0  0  0  0  0
    7.4330   -1.6030   20.5500 C   0  0  0  0  0  0  0  0  0  0  0  0
    4.5080   -0.2140   20.4880 C   0  0  0  0  0  0  0  0  0  0  0  0
    5.7290   -1.1560   18.4760 C   0  0  0  0  0  0  0  0  0  0  0  0
    7.1670   -0.2710   20.3420 C   0  0  0  0  0  0  0  0  0  0  0  0
    4.2340    1.0900   20.9270 C   0  0  0  0  0  0  0  0  0  0  0  0
    6.6130   -0.0240   19.0830 C   0  0  0  0  0  0  0  0  0  0  0  0
    3.8200    1.9160   19.8700 C   0  0  0  0  0  0  0  0  0  0  0  0
    3.2030    1.1440   21.8850 C   0  0  0  0  0  0  0  0  0  0  0  0
    2.5950    2.5200   20.1410 C   0  0  0  0  0  0  0  0  0  0  0  0
    2.1280    1.9140   21.4380 C   0  0  0  0  0  0  0  0  0  0  0  0
  1  2  1  0
  2  3  1  0
  3  4  2  0
  3  5  1  0
  5  6  2  0
  5  7  1  0
  6  8  1  0
  7  9  2  0
  7 10  1  0
  8 11  2  0
  9 11  1  0
 10 12  1  0
 12 13  1  0
 13 14  1  0
 13 15  1  0
 13 16  1  0
 14 17  3  0
 15 18  1  0
 16 19  1  0
 17 20  1  0
 18 21  1  0
 19 21  1  0
 20 22  1  0
 20 23  1  0
 22 24  1  0
 23 25  1  0
 24 25  1  0
M  END
