WAR-XCH-bdd24732-2
     RDKit          3D

 26 28  0  0  0  0  0  0  0  0999 V2000
   14.3610   -2.6350   25.8970 C   0  0  0  0  0  0  0  0  0  0  0  0
   13.5320   -3.7470   26.0930 O   0  0  0  0  0  0  0  0  0  0  0  0
   12.4540   -3.3010   25.4060 C   0  0  0  0  0  0  0  0  0  0  0  0
   11.2300   -3.7870   25.7880 C   0  0  0  0  0  0  0  0  0  0  0  0
   12.5070   -2.3790   24.3520 C   0  0  0  0  0  0  0  0  0  0  0  0
   10.0690   -3.4070   25.1980 C   0  0  0  0  0  0  0  0  0  0  0  0
   11.3370   -1.9760   23.7220 C   0  0  0  0  0  0  0  0  0  0  0  0
   10.1080   -2.4920   24.1500 C   0  0  0  0  0  0  0  0  0  0  0  0
    8.7580   -2.2790   23.7060 N   0  0  0  0  0  0  0  0  0  0  0  0
    8.1130   -3.4380   23.5290 C   0  0  0  0  0  0  0  0  0  0  0  0
    8.5210   -1.4290   22.5930 C   0  0  2  0  0  0  0  0  0  0  0  0
    6.9480   -3.6770   22.7080 O   0  0  0  0  0  0  0  0  0  0  0  0
    8.5720   -4.6570   24.2120 C   0  0  2  0  0  0  0  0  0  0  0  0
    8.8830   -1.6850   21.3160 C   0  0  0  0  0  0  0  0  0  0  0  0
    9.1840   -0.2890   22.8220 C   0  0  0  0  0  0  0  0  0  0  0  0
    7.9440   -5.7880   23.5230 C   0  0  0  0  0  0  0  0  0  0  0  0
    8.1520   -4.6800   25.6510 C   0  0  0  0  0  0  0  0  0  0  0  0
    7.8590   -1.0200   20.4330 C   0  0  0  0  0  0  0  0  0  0  0  0
    8.6370    0.8420   21.9640 C   0  0  0  0  0  0  0  0  0  0  0  0
    8.6120   -5.7630   26.5940 C   0  0  0  0  0  0  0  0  0  0  0  0
    7.2930   -3.6770   26.1510 C   0  0  0  0  0  0  0  0  0  0  0  0
    7.6140    0.3650   20.9340 C   0  0  2  0  0  0  0  0  0  0  0  0
    8.1040   -5.7300   28.0040 C   0  0  0  0  0  0  0  0  0  0  0  0
    6.7360   -3.5930   27.6050 C   0  0  0  0  0  0  0  0  0  0  0  0
    6.4790    0.5650   21.5980 O   0  0  0  0  0  0  0  0  0  0  0  0
    7.1490   -4.6240   28.4820 C   0  0  0  0  0  0  0  0  0  0  0  0
  1  2  1  0
  2  3  1  0
  3  4  2  0
  3  5  1  0
  4  6  1  0
  5  7  2  0
  6  8  2  0
  7  8  1  0
  8  9  1  0
  9 10  1  0
 11  9  1  1
 10 12  2  0
 10 13  1  0
 11 14  1  0
 11 15  1  0
 13 16  1  6
 13 17  1  0
 14 18  1  0
 15 19  1  0
 17 20  2  0
 17 21  1  0
 18 22  1  0
 19 22  1  0
 20 23  1  0
 21 24  2  0
 22 25  1  1
 23 26  2  0
 24 26  1  0
M  END
