WAR-XCH-79d12f6e-5-bromoalkyne
     RDKit          3D

 21 23  0  0  0  0  0  0  0  0999 V2000
    6.7540   -5.2860   20.5540 C   0  0  0  0  0  0  0  0  0  0  0  0
    5.9240   -4.3970   20.0150 C   0  0  0  0  0  0  0  0  0  0  0  0
    6.4300   -5.8980   21.8240 N   0  0  0  0  0  0  0  0  0  0  0  0
    5.0960   -5.6420   22.3530 C   0  0  0  0  0  0  0  0  0  0  0  0
    7.2090   -5.6890   23.0470 C   0  0  0  0  0  0  0  0  0  0  0  0
    5.1630   -4.1530   22.6850 C   0  0  0  0  0  0  0  0  0  0  0  0
    7.4220   -4.1900   23.3510 C   0  0  0  0  0  0  0  0  0  0  0  0
    6.3450   -3.3900   22.6140 C   0  0  0  0  0  0  0  0  0  0  0  0
    6.8300   -2.9450   21.2880 N   0  0  0  0  0  0  0  0  0  0  0  0
    6.8480   -1.5140   20.8920 C   0  0  0  0  0  0  0  0  0  0  0  0
    7.9830   -0.8430   21.4040 C   0  0  0  0  0  0  0  0  0  0  0  0
    5.5960   -1.0040   21.3050 C   0  0  0  0  0  0  0  0  0  0  0  0
    6.8760   -1.4640   19.3090 C   0  0  0  0  0  0  0  0  0  0  0  0
    8.0540    0.5530   21.3740 C   0  0  0  0  0  0  0  0  0  0  0  0
    9.0870   -1.5510   21.9780 C   0  0  0  0  0  0  0  0  0  0  0  0
    5.2260    0.4010   20.8320 C   0  0  0  0  0  0  0  0  0  0  0  0
    6.3220   -0.1930   18.6190 C   0  0  0  0  0  0  0  0  0  0  0  0
    9.1760    1.1290   21.9020 C   0  0  0  0  0  0  0  0  0  0  0  0
   10.2290   -1.0070   22.5180 N   0  0  0  0  0  0  0  0  0  0  0  0
    5.1720    0.5190   19.3200 C   0  0  0  0  0  0  0  0  0  0  0  0
   10.3050    0.3310   22.4970 C   0  0  0  0  0  0  0  0  0  0  0  0
  1  2  2  3
  1  3  1  0
  3  4  1  0
  3  5  1  0
  4  6  1  0
  5  7  1  0
  6  8  1  0
  7  8  1  0
  8  9  1  0
 10  9  1  0
 10 11  1  0
 10 12  1  0
 10 13  1  0
 11 14  2  0
 11 15  1  0
 12 16  1  0
 13 17  1  0
 14 18  1  0
 15 19  2  0
 16 20  1  0
 17 20  1  0
 18 21  2  0
 19 21  1  0
M  END
