WAR-XCH-b6889685-25
     RDKit          3D

 24 26  0  0  0  0  0  0  0  0999 V2000
   19.9890   -3.1400   24.8770 C   0  0  0  0  0  0  0  0  0  0  0  0
   18.4980   -3.4650   25.0090 C   0  0  0  0  0  0  0  0  0  0  0  0
   17.5560   -4.6220   24.5130 C   0  0  0  0  0  0  0  0  0  0  0  0
   17.9480   -2.4830   25.7590 C   0  0  0  0  0  0  0  0  0  0  0  0
   15.9820   -4.6140   24.8020 C   0  0  0  0  0  0  0  0  0  0  0  0
   16.2680   -2.3810   26.1710 C   0  0  0  0  0  0  0  0  0  0  0  0
   15.2480   -3.4440   25.6110 C   0  0  0  0  0  0  0  0  0  0  0  0
   13.7430   -3.3980   25.8210 N   0  0  0  0  0  0  0  0  0  0  0  0
   12.6780   -3.0770   24.7150 C   0  0  0  0  0  0  0  0  0  0  0  0
   11.7960   -1.8170   24.7990 C   0  0  0  0  0  0  0  0  0  0  0  0
   13.1960   -2.6110   23.2900 C   0  0  0  0  0  0  0  0  0  0  0  0
   12.9140   -0.8490   24.8880 C   0  0  0  0  0  0  0  0  0  0  0  0
   12.5460   -1.3530   22.6690 C   0  0  0  0  0  0  0  0  0  0  0  0
   12.7170   -0.2450   23.5900 N   0  0  0  0  0  0  0  0  0  0  0  0
   11.9400    0.9910   23.5280 C   0  0  0  0  0  0  0  0  0  0  0  0
   10.5250    0.9660   24.0690 C   0  0  0  0  0  0  0  0  0  0  0  0
   12.4070    2.2040   23.0180 C   0  0  0  0  0  0  0  0  0  0  0  0
    9.7570    2.1310   24.0490 C   0  0  0  0  0  0  0  0  0  0  0  0
   11.6000    3.3430   23.0190 C   0  0  0  0  0  0  0  0  0  0  0  0
   10.2980    3.3170   23.5290 C   0  0  0  0  0  0  0  0  0  0  0  0
    9.3230    4.8060   23.5270 S   0  0  0  0  0  0  0  0  0  0  0  0
    8.2220    4.5110   22.2570 N   0  0  0  0  0  0  0  0  0  0  0  0
    8.5790    4.9000   24.7690 O   0  0  0  0  0  0  0  0  0  0  0  0
   10.1870    5.8870   23.0980 O   0  0  0  0  0  0  0  0  0  0  0  0
  1  2  1  0
  2  3  2  0
  2  4  1  0
  3  5  1  0
  4  6  2  0
  5  7  2  0
  6  7  1  0
  7  8  1  0
  8  9  1  0
  9 10  1  0
  9 11  1  0
 10 12  1  0
 11 13  1  0
 12 14  1  0
 13 14  1  0
 14 15  1  0
 15 16  2  0
 15 17  1  0
 16 18  1  0
 17 19  2  0
 18 20  2  0
 19 20  1  0
 20 21  1  0
 21 22  1  0
 21 23  2  0
 21 24  2  0
M  END
