WAR-XCH-bdd24732-12-vinylsulfonamide
     RDKit          3D

 29 32  0  0  0  0  0  0  0  0999 V2000
    6.9970   -5.6020   20.5750 C   0  0  0  0  0  0  0  0  0  0  0  0
    5.4930   -5.8080   20.1160 C   0  0  0  0  0  0  0  0  0  0  0  0
    4.8380   -4.1730   20.4510 S   0  0  0  0  0  0  0  0  0  0  0  0
    5.0550   -4.1720   21.8000 O   0  0  0  0  0  0  0  0  0  0  0  0
    5.4210   -3.0800   19.6310 O   0  0  0  0  0  0  0  0  0  0  0  0
    3.2000   -3.7690   20.5880 C   0  0  0  0  0  0  0  0  0  0  0  0
    1.9260   -3.3510   21.1080 C   0  0  0  0  0  0  0  0  0  0  0  0
    3.9590   -3.6200   21.8100 C   0  0  0  0  0  0  0  0  0  0  0  0
    1.4660   -2.9220   22.3420 C   0  0  0  0  0  0  0  0  0  0  0  0
    3.6500   -3.2180   23.1140 C   0  0  0  0  0  0  0  0  0  0  0  0
    2.3470   -2.8520   23.4610 C   0  0  0  0  0  0  0  0  0  0  0  0
    4.7480   -3.1950   24.1520 C   0  0  0  0  0  0  0  0  0  0  0  0
    6.0200   -3.6590   23.5360 C   0  0  0  0  0  0  0  0  0  0  0  0
    4.7220   -2.8610   25.4470 N   0  0  0  0  0  0  0  0  0  0  0  0
    7.5010   -3.9300   24.0750 C   0  0  0  0  0  0  0  0  0  0  0  0
    5.8880   -3.0460   26.0480 C   0  0  0  0  0  0  0  0  0  0  0  0
    8.9400   -4.1930   24.6010 C   0  0  0  0  0  0  0  0  0  0  0  0
    7.2230   -3.5380   25.4180 C   0  0  0  0  0  0  0  0  0  0  0  0
    9.5200   -4.8460   25.9710 C   0  0  0  0  0  0  0  0  0  0  0  0
    9.5480   -4.0690   27.0360 C   0  0  0  0  0  0  0  0  0  0  0  0
    8.9040   -3.2040   26.2800 N   0  0  0  0  0  0  0  0  0  0  0  0
    9.5680   -3.1410   28.2730 N   0  0  0  0  0  0  0  0  0  0  0  0
    8.4960   -1.9170   26.8660 C   0  0  0  0  0  0  0  0  0  0  0  0
    8.9070   -1.8630   28.0870 C   0  0  0  0  0  0  0  0  0  0  0  0
    7.7870   -0.8330   26.2480 C   0  0  0  0  0  0  0  0  0  0  0  0
    8.7400   -0.7370   29.0320 N   0  0  0  0  0  0  0  0  0  0  0  0
    7.3010   -0.6900   24.9150 C   0  0  0  0  0  0  0  0  0  0  0  0
    7.4990    0.3920   27.0390 C   0  0  0  0  0  0  0  0  0  0  0  0
    8.0160    0.3920   28.4670 C   0  0  0  0  0  0  0  0  0  0  0  0
  1  2  1  0
  3  2  1  0
  3  4  2  0
  3  5  2  0
  3  6  1  0
  6  7  2  0
  6  8  1  0
  7  9  1  0
  8 10  2  0
  9 11  2  0
 10 11  1  0
 10 12  1  0
 12 13  2  0
 12 14  1  0
 13 15  1  0
 14 16  2  0
 15 17  1  0
 15 18  2  0
 16 18  1  0
 17 19  1  0
 19 20  1  0
 20 21  2  0
 20 22  1  0
 21 23  1  0
 22 24  1  0
 23 24  2  0
 23 25  1  0
 24 26  1  0
 25 27  1  0
 25 28  2  0
 26 29  2  0
 28 29  1  0
M  END
