WAR-XCH-e55cba98-2
     RDKit          3D

 29 32  0  0  0  0  0  0  0  0999 V2000
   13.4250   -2.7020   24.9740 C   0  0  0  0  0  0  0  0  0  0  0  0
   12.0700   -2.5680   24.4390 C   0  0  0  0  0  0  0  0  0  0  0  0
   11.3430   -3.5510   24.4950 O   0  0  0  0  0  0  0  0  0  0  0  0
   11.7410   -1.3140   23.9090 N   0  0  0  0  0  0  0  0  0  0  0  0
   12.1770   -0.9780   22.5480 C   0  0  0  0  0  0  0  0  0  0  0  0
   13.3240    0.0490   22.5320 C   0  0  0  0  0  0  0  0  0  0  0  0
   12.8820    1.5230   22.7170 C   0  0  0  0  0  0  0  0  0  0  0  0
   13.4350    2.8950   22.6860 C   0  0  0  0  0  0  0  0  0  0  0  0
   11.5860    1.7800   23.0020 C   0  0  0  0  0  0  0  0  0  0  0  0
   12.5440    3.8260   22.9690 N   0  0  0  0  0  0  0  0  0  0  0  0
   11.3410    3.1500   23.1900 C   0  0  0  0  0  0  0  0  0  0  0  0
   10.6090    0.8730   23.1140 C   0  0  0  0  0  0  0  0  0  0  0  0
   10.1410    3.7420   23.5330 C   0  0  0  0  0  0  0  0  0  0  0  0
    9.3210    1.3280   23.4390 C   0  0  0  0  0  0  0  0  0  0  0  0
   10.1640    5.1120   23.6970 C   0  0  0  0  0  0  0  0  0  0  0  0
    9.0820    2.8240   23.6660 C   0  0  0  0  0  0  0  0  0  0  0  0
    8.3010    0.4570   23.5570 F   0  0  0  0  0  0  0  0  0  0  0  0
   11.2380    5.7950   23.0940 C   0  0  0  0  0  0  0  0  0  0  0  0
   10.0230    5.4410   25.0780 C   0  0  0  0  0  0  0  0  0  0  0  0
    8.9180    5.5490   23.1400 C   0  0  0  0  0  0  0  0  0  0  0  0
   11.9570    6.9440   23.7610 C   0  0  0  0  0  0  0  0  0  0  0  0
    8.5930    5.7170   25.4160 C   0  0  0  0  0  0  0  0  0  0  0  0
    7.8890    5.8110   24.2420 C   0  0  0  0  0  0  0  0  0  0  0  0
   11.1970    8.0510   24.5320 C   0  0  0  0  0  0  0  0  0  0  0  0
    9.9360    8.0040   23.6070 C   0  0  0  0  0  0  0  0  0  0  0  0
   10.9440    9.1100   25.6010 N   0  0  0  0  0  0  0  0  0  0  0  0
    8.6960    8.8920   23.8000 C   0  0  0  0  0  0  0  0  0  0  0  0
    9.7430    9.9510   25.7600 C   0  0  0  0  0  0  0  0  0  0  0  0
    8.6350    9.9000   24.9390 C   0  0  0  0  0  0  0  0  0  0  0  0
  1  2  1  0
  2  3  2  0
  2  4  1  0
  4  5  1  0
  5  6  1  0
  6  7  1  0
  7  8  2  0
  7  9  1  0
  8 10  1  0
  9 11  2  0
 10 11  1  0
  9 12  1  0
 11 13  1  0
 12 14  2  0
 13 15  1  0
 13 16  2  0
 14 16  1  0
 14 17  1  0
 15 18  1  0
 15 19  1  0
 15 20  1  0
 18 21  3  0
 19 22  1  0
 20 23  1  0
 22 23  1  0
 21 24  1  0
 24 25  2  0
 24 26  1  0
 25 27  1  0
 26 28  2  0
 27 29  2  0
 28 29  1  0
M  END
