WAR-XCH-79d12f6e-7-vinylsulfonamide
     RDKit          3D

 23 25  0  0  0  0  0  0  0  0999 V2000
    6.4190   -5.2800   20.3820 C   0  0  0  0  0  0  0  0  0  0  0  0
    5.9150   -6.2180   21.5070 C   0  0  0  0  0  0  0  0  0  0  0  0
    5.2120   -5.4120   22.9330 S   0  0  0  0  0  0  0  0  0  0  0  0
    4.4160   -4.3020   22.4520 O   0  0  0  0  0  0  0  0  0  0  0  0
    4.5940   -6.4490   23.7340 O   0  0  0  0  0  0  0  0  0  0  0  0
    6.5420   -4.9150   23.8460 N   0  0  0  0  0  0  0  0  0  0  0  0
    7.8620   -5.0300   23.2020 C   0  0  0  0  0  0  0  0  0  0  0  0
    6.4240   -3.5770   24.5050 C   0  0  0  0  0  0  0  0  0  0  0  0
    7.9480   -3.9730   22.0950 C   0  0  0  0  0  0  0  0  0  0  0  0
    7.5420   -2.6200   24.0310 C   0  0  0  0  0  0  0  0  0  0  0  0
    7.8150   -2.6020   22.5770 N   0  0  0  0  0  0  0  0  0  0  0  0
    6.8660   -1.8240   21.7310 C   0  0  0  0  0  0  0  0  0  0  0  0
    5.9870   -1.2170   22.6180 C   0  0  0  0  0  0  0  0  0  0  0  0
    7.6250   -0.6680   20.9740 C   0  0  0  0  0  0  0  0  0  0  0  0
    6.3140   -2.6450   20.7280 C   0  0  0  0  0  0  0  0  0  0  0  0
    6.1490    0.1170   22.9900 C   0  0  0  0  0  0  0  0  0  0  0  0
    4.9080   -1.9370   23.1890 C   0  0  0  0  0  0  0  0  0  0  0  0
    6.7310    0.2780   20.1920 C   0  0  0  0  0  0  0  0  0  0  0  0
    5.6970   -1.9050   19.5320 C   0  0  0  0  0  0  0  0  0  0  0  0
    5.2710    0.7200   23.9080 C   0  0  0  0  0  0  0  0  0  0  0  0
    4.0330   -1.3400   24.1090 C   0  0  0  0  0  0  0  0  0  0  0  0
    5.4580   -0.4290   19.7890 C   0  0  0  0  0  0  0  0  0  0  0  0
    4.2210   -0.0000   24.4680 C   0  0  0  0  0  0  0  0  0  0  0  0
  1  2  1  0
  3  2  1  0
  3  4  2  0
  3  5  2  0
  3  6  1  0
  6  7  1  0
  6  8  1  0
  7  9  1  0
  8 10  1  0
  9 11  1  0
 10 11  1  0
 11 12  1  0
 12 13  1  0
 12 14  1  0
 12 15  1  0
 13 16  2  0
 13 17  1  0
 14 18  1  0
 15 19  1  0
 16 20  1  0
 17 21  2  0
 18 22  1  0
 19 22  1  0
 20 23  2  0
 21 23  1  0
M  END
