WAR-XCH-b72a1bbc-34-acrylamide
     RDKit          3D

 28 30  0  0  0  0  0  0  0  0999 V2000
    6.9100   -5.0900   21.4880 C   0  0  0  0  0  0  0  0  0  0  0  0
    7.2780   -6.5680   21.7760 C   0  0  0  0  0  0  0  0  0  0  0  0
    6.1090   -7.4630   21.6020 C   0  0  0  0  0  0  0  0  0  0  0  0
    4.6550   -6.1890   21.2000 O   0  0  0  0  0  0  0  0  0  0  0  0
    6.9610   -9.5780   21.9040 C   0  0  0  0  0  0  0  0  0  0  0  0
    8.1500  -10.8010   21.7280 C   0  0  0  0  0  0  0  0  0  0  0  0
    7.6210  -11.2130   22.1370 C   0  0  0  0  0  0  0  0  0  0  0  0
    9.3430  -11.9730   21.5270 C   0  0  0  0  0  0  0  0  0  0  0  0
    8.3240  -12.9240   22.3760 C   0  0  0  0  0  0  0  0  0  0  0  0
    9.7100  -13.5020   21.9260 C   0  0  0  0  0  0  0  0  0  0  0  0
   11.1030  -15.1090   21.8920 S   0  0  0  0  0  0  0  0  0  0  0  0
   13.0830  -15.1970   21.9960 C   0  0  0  0  0  0  0  0  0  0  0  0
   14.2950  -16.2400   22.1200 C   0  0  0  0  0  0  0  0  0  0  0  0
   15.4760  -16.3030   21.2620 C   0  0  0  0  0  0  0  0  0  0  0  0
   15.1480  -16.1240   23.3410 C   0  0  0  0  0  0  0  0  0  0  0  0
   17.0800  -16.4020   21.3680 C   0  0  0  0  0  0  0  0  0  0  0  0
   16.6650  -15.7840   23.4210 C   0  0  0  0  0  0  0  0  0  0  0  0
   17.5570  -16.5070   22.6280 N   0  0  0  0  0  0  0  0  0  0  0  0
   19.0630  -16.3530   22.9310 C   0  0  0  0  0  0  0  0  0  0  0  0
   20.0150  -16.9420   24.2500 C   0  0  0  0  0  0  0  0  0  0  0  0
   18.9930  -17.0520   23.9770 C   0  0  0  0  0  0  0  0  0  0  0  0
   21.4620  -17.0440   25.0440 C   0  0  0  0  0  0  0  0  0  0  0  0
   20.1940  -16.3460   23.4200 C   0  0  0  0  0  0  0  0  0  0  0  0
   21.5280  -16.2500   23.8850 C   0  0  0  0  0  0  0  0  0  0  0  0
   23.0820  -15.4290   23.3880 S   0  0  0  0  0  0  0  0  0  0  0  0
   24.2250  -16.5010   23.9470 N   0  0  0  0  0  0  0  0  0  0  0  0
   23.2620  -14.1790   24.0940 O   0  0  0  0  0  0  0  0  0  0  0  0
   23.3540  -15.5210   21.9980 O   0  0  0  0  0  0  0  0  0  0  0  0
  1  2  1  0
  2  3  1  0
  3  4  2  0
  3  5  1  0
  5  6  2  0
  5  7  1  0
  6  8  1  0
  7  9  2  0
  8 10  2  0
  9 10  1  0
 10 11  1  0
 11 12  1  0
 12 13  1  0
 13 14  1  0
 13 15  1  0
 14 16  1  0
 15 17  1  0
 16 18  1  0
 17 18  1  0
 18 19  1  0
 19 20  2  0
 19 21  1  0
 20 22  1  0
 21 23  2  0
 22 24  2  0
 23 24  1  0
 24 25  1  0
 25 26  1  0
 25 27  2  0
 25 28  2  0
M  END
