WAR-XCH-bdd24732-1
     RDKit          3D

 28 30  0  0  0  0  0  0  0  0999 V2000
    9.5270   -1.7160   23.9660 C   0  0  0  0  0  0  0  0  0  0  0  0
    8.4180   -2.3040   24.8000 C   0  0  2  0  0  0  0  0  0  0  0  0
    7.4540   -1.4650   25.4480 C   0  0  0  0  0  0  0  0  0  0  0  0
    8.8910   -3.2980   25.6180 C   0  0  0  0  0  0  0  0  0  0  0  0
    6.5400   -0.8820   24.5290 O   0  0  0  0  0  0  0  0  0  0  0  0
    7.3710   -1.2820   26.8980 N   0  0  0  0  0  0  0  0  0  0  0  0
    9.4480   -4.6130   25.1150 C   0  0  0  0  0  0  0  0  0  0  0  0
    8.8190   -3.0570   26.9820 C   0  0  0  0  0  0  0  0  0  0  0  0
    6.1990   -1.7970   27.6910 C   0  0  0  0  0  0  0  0  0  0  0  0
    8.1020   -0.2020   27.4240 C   0  0  2  0  0  0  0  0  0  0  0  0
    9.8800   -5.6040   26.1720 C   0  0  0  0  0  0  0  0  0  0  0  0
    9.2610   -4.0620   28.0210 C   0  0  0  0  0  0  0  0  0  0  0  0
    4.9460   -1.0990   27.7630 O   0  0  0  0  0  0  0  0  0  0  0  0
    6.2810   -3.0330   28.4140 C   0  0  1  0  0  0  0  0  0  0  0  0
    8.5990   -0.1790   28.7400 C   0  0  0  0  0  0  0  0  0  0  0  0
    7.3330    0.9430   27.1000 C   0  0  0  0  0  0  0  0  0  0  0  0
    9.7670   -5.2840   27.6610 C   0  0  0  0  0  0  0  0  0  0  0  0
    5.0760   -3.4560   28.9710 C   0  0  0  0  0  0  0  0  0  0  0  0
    6.8310   -3.9160   27.5170 C   0  0  0  0  0  0  0  0  0  0  0  0
    7.6720    0.3900   29.6090 C   0  0  0  0  0  0  0  0  0  0  0  0
    7.1890    1.9810   28.0340 C   0  0  0  0  0  0  0  0  0  0  0  0
    6.5450   -3.5080   26.1290 C   0  0  0  0  0  0  0  0  0  0  0  0
    7.5870   -5.0520   27.8940 C   0  0  0  0  0  0  0  0  0  0  0  0
    7.4110    1.7310   29.3790 C   0  0  2  0  0  0  0  0  0  0  0  0
    7.1140   -4.3230   25.0790 C   0  0  0  0  0  0  0  0  0  0  0  0
    8.1200   -5.8220   26.8840 C   0  0  0  0  0  0  0  0  0  0  0  0
    8.1780    2.4950   29.9620 O   0  0  0  0  0  0  0  0  0  0  0  0
    7.9340   -5.5120   25.5580 C   0  0  0  0  0  0  0  0  0  0  0  0
  2  1  1  1
  2  3  1  0
  2  4  1  0
  3  5  2  0
  3  6  1  0
  4  7  2  0
  4  8  1  0
  6  9  1  0
 10  6  1  1
  7 11  1  0
  8 12  2  0
  9 13  2  0
  9 14  1  0
 10 15  1  0
 10 16  1  0
 11 17  2  0
 12 17  1  0
 14 18  1  6
 14 19  1  0
 15 20  1  0
 16 21  1  0
 19 22  2  0
 19 23  1  0
 20 24  1  0
 21 24  1  0
 22 25  1  0
 23 26  2  0
 24 27  1  6
 25 28  2  0
 26 28  1  0
M  END
