WAR-XCH-b72a1bbc-26
     RDKit          3D

 30 33  0  0  0  0  0  0  0  0999 V2000
   20.1240  -19.7850   17.2240 N   0  0  0  0  0  0  0  0  0  0  0  0
   18.6750  -20.5920   17.5450 S   0  0  0  0  0  0  0  0  0  0  0  0
   19.4300  -21.7440   17.9470 O   0  0  0  0  0  0  0  0  0  0  0  0
   18.2730  -20.3920   16.1540 O   0  0  0  0  0  0  0  0  0  0  0  0
   17.1740  -18.3670   19.6610 C   0  0  0  0  0  0  0  0  0  0  0  0
   18.0360  -17.0700   20.0960 C   0  0  0  0  0  0  0  0  0  0  0  0
   15.9260  -18.3120   20.5600 C   0  0  0  0  0  0  0  0  0  0  0  0
   17.8880  -16.0960   21.2900 C   0  0  0  0  0  0  0  0  0  0  0  0
   15.7030  -17.2950   21.7250 C   0  0  0  0  0  0  0  0  0  0  0  0
   16.6670  -16.1290   22.1450 C   0  0  0  0  0  0  0  0  0  0  0  0
   16.4870  -15.0420   23.1850 N   0  0  0  0  0  0  0  0  0  0  0  0
   15.3230  -14.9750   23.8010 C   0  0  0  0  0  0  0  0  0  0  0  0
   17.0060  -13.6960   23.0940 C   0  0  0  0  0  0  0  0  0  0  0  0
   14.3830  -13.9010   23.3580 C   0  0  0  0  0  0  0  0  0  0  0  0
   16.1950  -12.4780   23.0350 C   0  0  0  0  0  0  0  0  0  0  0  0
   14.7100  -12.3350   23.0650 C   0  0  0  0  0  0  0  0  0  0  0  0
   13.3380  -11.2110   21.9760 C   0  0  0  0  0  0  0  0  0  0  0  0
   11.5240   -9.1860   21.0480 N   0  0  0  0  0  0  0  0  0  0  0  0
   10.4100   -8.1770   21.6300 C   0  0  0  0  0  0  0  0  0  0  0  0
   11.2730   -7.5480   21.4130 C   0  0  0  0  0  0  0  0  0  0  0  0
    9.0440   -8.0630   22.1300 C   0  0  0  0  0  0  0  0  0  0  0  0
   10.1690   -6.6740   22.2760 C   0  0  0  0  0  0  0  0  0  0  0  0
    9.3280   -7.2600   23.0260 C   0  0  0  0  0  0  0  0  0  0  0  0
    9.6680   -5.3420   22.5390 C   0  0  0  0  0  0  0  0  0  0  0  0
    8.3750   -5.0660   21.7690 C   0  0  0  0  0  0  0  0  0  0  0  0
   10.1920   -4.1720   23.4720 C   0  0  0  0  0  0  0  0  0  0  0  0
    7.7210   -3.6980   21.9400 C   0  0  0  0  0  0  0  0  0  0  0  0
    9.5270   -2.9330   23.5620 C   0  0  0  0  0  0  0  0  0  0  0  0
    8.3540   -2.6570   22.8580 C   0  0  0  0  0  0  0  0  0  0  0  0
   10.0370   -1.9820   24.3460 F   0  0  0  0  0  0  0  0  0  0  0  0
  2  1  1  0
  2  3  2  0
  2  4  2  0
  2  5  1  0
  5  6  2  0
  5  7  1  0
  6  8  1  0
  7  9  2  0
  8 10  2  0
  9 10  1  0
 10 11  1  0
 11 12  1  0
 11 13  1  0
 12 14  1  0
 13 15  1  0
 14 16  1  0
 15 16  1  0
 16 17  1  0
 17 18  1  0
 18 19  1  0
 18 20  1  0
 19 21  1  0
 20 22  1  0
 21 23  1  0
 22 23  1  0
 22 24  1  0
 24 25  2  0
 24 26  1  0
 25 27  1  0
 26 28  2  0
 27 29  2  0
 28 29  1  0
 28 30  1  0
M  END
