WAR-XCH-bdd24732-12-acrylamide
     RDKit          3D

 28 31  0  0  0  0  0  0  0  0999 V2000
    6.3620   -4.4420   20.4700 C   0  0  0  0  0  0  0  0  0  0  0  0
    6.2860   -5.3400   21.7550 C   0  0  0  0  0  0  0  0  0  0  0  0
    5.2180   -4.7990   22.7620 C   0  0  0  0  0  0  0  0  0  0  0  0
    4.0250   -5.0120   22.5420 O   0  0  0  0  0  0  0  0  0  0  0  0
    5.5970   -3.9720   23.9370 C   0  0  0  0  0  0  0  0  0  0  0  0
    5.4210   -2.5680   23.9870 C   0  0  0  0  0  0  0  0  0  0  0  0
    6.1600   -4.6090   25.0010 C   0  0  0  0  0  0  0  0  0  0  0  0
    5.8310   -1.8150   25.0920 C   0  0  0  0  0  0  0  0  0  0  0  0
    6.5480   -3.8830   26.0430 C   0  0  0  0  0  0  0  0  0  0  0  0
    6.4440   -2.5500   26.1870 C   0  0  0  0  0  0  0  0  0  0  0  0
    7.1460   -4.5110   26.9920 C   0  0  0  0  0  0  0  0  0  0  0  0
    8.4460   -4.3540   26.4560 C   0  0  0  0  0  0  0  0  0  0  0  0
    6.8210   -5.1910   28.1770 N   0  0  0  0  0  0  0  0  0  0  0  0
    9.5920   -4.8670   27.0440 C   0  0  0  0  0  0  0  0  0  0  0  0
    7.9610   -5.6420   28.6640 C   0  0  0  0  0  0  0  0  0  0  0  0
   10.7500   -4.5290   26.1690 C   0  0  0  0  0  0  0  0  0  0  0  0
    9.3190   -5.5190   28.1830 C   0  0  0  0  0  0  0  0  0  0  0  0
   10.1210   -5.0830   25.0630 C   0  0  0  0  0  0  0  0  0  0  0  0
    9.5670   -4.1340   24.2160 C   0  0  0  0  0  0  0  0  0  0  0  0
   10.2780   -2.9850   23.7560 N   0  0  0  0  0  0  0  0  0  0  0  0
    8.2220   -4.0650   23.6270 N   0  0  0  0  0  0  0  0  0  0  0  0
    9.3060   -2.3040   22.9280 C   0  0  0  0  0  0  0  0  0  0  0  0
    8.0850   -2.9490   22.8540 C   0  0  0  0  0  0  0  0  0  0  0  0
    9.5080   -1.1410   22.2610 C   0  0  0  0  0  0  0  0  0  0  0  0
    6.8890   -2.5080   22.0930 N   0  0  0  0  0  0  0  0  0  0  0  0
   10.8750   -0.5460   22.4240 C   0  0  0  0  0  0  0  0  0  0  0  0
    8.4860   -0.5730   21.4910 C   0  0  0  0  0  0  0  0  0  0  0  0
    7.1530   -1.2520   21.3920 C   0  0  0  0  0  0  0  0  0  0  0  0
  1  2  1  0
  2  3  1  0
  3  4  2  0
  3  5  1  0
  5  6  2  0
  5  7  1  0
  6  8  1  0
  7  9  2  0
  8 10  2  0
  9 10  1  0
  9 11  1  0
 11 12  2  0
 11 13  1  0
 12 14  1  0
 13 15  2  0
 14 16  1  0
 14 17  2  0
 15 17  1  0
 16 18  1  0
 18 19  1  0
 19 20  2  0
 19 21  1  0
 20 22  1  0
 21 23  1  0
 22 23  2  0
 22 24  1  0
 23 25  1  0
 24 26  1  0
 24 27  2  0
 25 28  2  0
 27 28  1  0
M  END
