WAR-XCH-b72a1bbc-21
     RDKit          3D

 23 25  0  0  0  0  0  0  0  0999 V2000
   12.3920   -3.2710   20.4760 N   0  0  0  0  0  0  0  0  0  0  0  0
   13.1740   -2.3300   21.5830 S   0  0  0  0  0  0  0  0  0  0  0  0
   13.6210   -3.0850   22.7220 O   0  0  0  0  0  0  0  0  0  0  0  0
   13.9670   -1.5200   20.7110 O   0  0  0  0  0  0  0  0  0  0  0  0
   12.0410   -1.2090   22.1570 C   0  0  0  0  0  0  0  0  0  0  0  0
   10.5950   -1.5060   22.0300 C   0  0  0  0  0  0  0  0  0  0  0  0
   12.5790   -0.0600   22.6970 C   0  0  0  0  0  0  0  0  0  0  0  0
    9.6310   -0.4690   22.5080 C   0  0  0  0  0  0  0  0  0  0  0  0
   11.6790    1.0390   23.2040 C   0  0  0  0  0  0  0  0  0  0  0  0
   10.1650    0.8290   23.0930 C   0  0  0  0  0  0  0  0  0  0  0  0
    9.2250    1.8110   23.5130 N   0  0  0  0  0  0  0  0  0  0  0  0
    9.8220    2.5910   24.4360 C   0  0  0  0  0  0  0  0  0  0  0  0
    8.6060    2.6420   22.4810 C   0  0  0  0  0  0  0  0  0  0  0  0
   11.0360    3.2640   23.7730 C   0  0  0  0  0  0  0  0  0  0  0  0
    9.1480    4.0820   22.6080 C   0  0  0  0  0  0  0  0  0  0  0  0
   10.7030    4.0430   22.5680 C   0  0  0  0  0  0  0  0  0  0  0  0
   11.3240    5.3200   22.5280 C   0  0  0  0  0  0  0  0  0  0  0  0
   10.4390    6.3800   23.0750 N   0  0  0  0  0  0  0  0  0  0  0  0
    9.2870    6.8510   22.4270 C   0  0  0  0  0  0  0  0  0  0  0  0
   10.3750    6.4090   24.5300 C   0  0  0  0  0  0  0  0  0  0  0  0
    8.4420    7.7600   23.0740 C   0  0  0  0  0  0  0  0  0  0  0  0
    9.1540    6.0320   25.0780 C   0  0  0  0  0  0  0  0  0  0  0  0
    7.8410    7.1250   24.6100 S   0  0  0  0  0  0  0  0  0  0  0  0
  2  1  1  0
  2  3  2  0
  2  4  2  0
  2  5  1  0
  5  6  2  0
  5  7  1  0
  6  8  1  0
  7  9  2  0
  8 10  2  0
  9 10  1  0
 10 11  1  0
 11 12  1  0
 11 13  1  0
 12 14  1  0
 13 15  1  0
 14 16  1  0
 15 16  1  0
 16 17  1  0
 17 18  1  0
 18 19  1  0
 18 20  1  0
 19 21  1  0
 20 22  1  0
 21 23  1  0
 22 23  1  0
M  END
