WAR-XCH-bdd24732-16-bromoalkyne
     RDKit          3D

 24 27  0  0  0  0  0  0  0  0999 V2000
    6.4900   -3.2590   19.5300 C   0  0  0  0  0  0  0  0  0  0  0  0
    5.8350   -3.1710   18.4100 C   0  0  0  0  0  0  0  0  0  0  0  0
    7.2730   -3.3630   20.8670 N   0  0  0  0  0  0  0  0  0  0  0  0
    7.4920   -2.0840   21.3060 C   0  0  0  0  0  0  0  0  0  0  0  0
    6.7020   -4.1200   22.0550 C   0  0  0  0  0  0  0  0  0  0  0  0
    8.3580   -1.9550   22.2580 C   0  0  0  0  0  0  0  0  0  0  0  0
    7.4380   -3.8350   23.3120 C   0  0  1  0  0  0  0  0  0  0  0  0
    7.7280   -2.4900   23.4390 C   0  0  0  0  0  0  0  0  0  0  0  0
    6.8480   -4.4920   24.5350 C   0  0  0  0  0  0  0  0  0  0  0  0
    5.8000   -5.3470   24.3810 N   0  0  0  0  0  0  0  0  0  0  0  0
    7.3610   -4.1940   25.8100 C   0  0  0  0  0  0  0  0  0  0  0  0
    5.3370   -6.0080   25.4880 C   0  0  0  0  0  0  0  0  0  0  0  0
    6.7950   -4.9190   26.8690 C   0  0  0  0  0  0  0  0  0  0  0  0
    8.5150   -3.2610   26.1190 C   0  0  0  0  0  0  0  0  0  0  0  0
    4.2490   -6.9520   25.1810 C   0  0  0  0  0  0  0  0  0  0  0  0
    5.7420   -5.9330   26.7640 N   0  0  0  0  0  0  0  0  0  0  0  0
    7.2730   -4.8110   28.1970 C   0  0  0  0  0  0  0  0  0  0  0  0
    8.9350   -3.1220   27.4690 C   0  0  0  0  0  0  0  0  0  0  0  0
    3.3010   -7.6190   26.3230 C   0  0  0  0  0  0  0  0  0  0  0  0
    3.9380   -7.2510   23.7850 C   0  0  0  0  0  0  0  0  0  0  0  0
    8.2960   -3.9220   28.5060 C   0  0  0  0  0  0  0  0  0  0  0  0
    2.2080   -8.5310   26.0240 C   0  0  0  0  0  0  0  0  0  0  0  0
    2.7120   -8.1140   23.4910 N   0  0  0  0  0  0  0  0  0  0  0  0
    1.8450   -8.8530   24.5190 C   0  0  0  0  0  0  0  0  0  0  0  0
  1  2  2  3
  1  3  1  0
  3  4  1  0
  3  5  1  0
  4  6  1  0
  5  7  1  0
  6  8  1  0
  7  8  1  0
  7  9  1  1
  9 10  2  0
  9 11  1  0
 10 12  1  0
 11 13  2  0
 11 14  1  0
 12 15  1  0
 12 16  2  0
 13 16  1  0
 13 17  1  0
 14 18  2  0
 15 19  2  0
 15 20  1  0
 17 21  2  0
 18 21  1  0
 19 22  1  0
 20 23  2  0
 22 24  2  0
 23 24  1  0
M  END
