WAR-XCH-b72a1bbc-31
     RDKit          3D

 29 32  0  0  0  0  0  0  0  0999 V2000
   13.4390   -2.9020   23.1330 N   0  0  0  0  0  0  0  0  0  0  0  0
   12.6570   -2.2820   21.7890 S   0  0  0  0  0  0  0  0  0  0  0  0
   11.5000   -3.0180   21.4040 O   0  0  0  0  0  0  0  0  0  0  0  0
   13.6590   -1.8930   20.8340 O   0  0  0  0  0  0  0  0  0  0  0  0
   12.0580   -0.8130   22.4400 C   0  0  0  0  0  0  0  0  0  0  0  0
   13.0630    0.2370   22.5260 C   0  0  0  0  0  0  0  0  0  0  0  0
   10.7260   -0.6800   22.8230 C   0  0  0  0  0  0  0  0  0  0  0  0
   12.6280    1.5780   23.0440 C   0  0  0  0  0  0  0  0  0  0  0  0
   10.2340    0.6380   23.3570 C   0  0  0  0  0  0  0  0  0  0  0  0
   11.2090    1.8080   23.4650 C   0  0  0  0  0  0  0  0  0  0  0  0
   10.9780    3.1450   23.9140 N   0  0  0  0  0  0  0  0  0  0  0  0
   11.8710    4.0850   23.3810 C   0  0  0  0  0  0  0  0  0  0  0  0
    9.5880    3.5410   24.0850 C   0  0  0  0  0  0  0  0  0  0  0  0
   11.8360    5.3340   24.0990 C   0  0  0  0  0  0  0  0  0  0  0  0
    9.3990    5.0270   24.4660 C   0  0  0  0  0  0  0  0  0  0  0  0
   10.5450    5.9250   23.9710 C   0  0  0  0  0  0  0  0  0  0  0  0
   10.1970    6.1380   22.6270 C   0  0  0  0  0  0  0  0  0  0  0  0
    8.7470    6.2570   22.6040 N   0  0  0  0  0  0  0  0  0  0  0  0
    8.1880    7.2710   23.1910 C   0  0  0  0  0  0  0  0  0  0  0  0
    8.0100    5.0310   22.6680 C   0  0  0  0  0  0  0  0  0  0  0  0
    6.9350    7.6330   22.7060 C   0  0  0  0  0  0  0  0  0  0  0  0
    6.5020    5.1760   22.3780 C   0  0  1  0  0  0  0  0  0  0  0  0
    6.2560    6.5990   21.8590 C   0  0  0  0  0  0  0  0  0  0  0  0
    5.9680    4.0190   21.4950 C   0  0  0  0  0  0  0  0  0  0  0  0
    4.6870    4.1500   20.6830 C   0  0  0  0  0  0  0  0  0  0  0  0
    6.7250    2.4640   21.3090 S   0  0  0  0  0  0  0  0  0  0  0  0
    4.4010    2.8800   19.9130 C   0  0  0  0  0  0  0  0  0  0  0  0
    5.5130    1.8570   20.2070 C   0  0  0  0  0  0  0  0  0  0  0  0
    5.5370    0.2770   19.5010 Cl  0  0  0  0  0  0  0  0  0  0  0  0
  2  1  1  0
  2  3  2  0
  2  4  2  0
  2  5  1  0
  5  6  2  0
  5  7  1  0
  6  8  1  0
  7  9  2  0
  8 10  2  0
  9 10  1  0
 10 11  1  0
 11 12  1  0
 11 13  1  0
 12 14  1  0
 13 15  1  0
 14 16  1  0
 15 16  1  0
 16 17  1  0
 17 18  1  0
 18 19  1  0
 18 20  1  0
 19 21  1  0
 20 22  1  0
 21 23  1  0
 22 23  1  0
 22 24  1  6
 24 25  2  0
 24 26  1  0
 25 27  1  0
 26 28  1  0
 27 28  2  0
 28 29  1  0
M  END
