WAR-XCH-b6889685-28
     RDKit          3D

 27 30  0  0  0  0  0  0  0  0999 V2000
    8.1620    5.0570   22.2800 N   0  0  0  0  0  0  0  0  0  0  0  0
    9.2580    5.2740   23.5330 S   0  0  0  0  0  0  0  0  0  0  0  0
    8.4670    5.3090   24.7410 O   0  0  0  0  0  0  0  0  0  0  0  0
   10.1550    6.3530   23.1690 O   0  0  0  0  0  0  0  0  0  0  0  0
   10.1570    3.7460   23.4950 C   0  0  0  0  0  0  0  0  0  0  0  0
    9.5380    2.4480   24.0310 C   0  0  0  0  0  0  0  0  0  0  0  0
   11.4470    3.6820   22.9870 C   0  0  0  0  0  0  0  0  0  0  0  0
   10.1560    1.0280   24.1020 C   0  0  0  0  0  0  0  0  0  0  0  0
   12.2240    2.3480   22.9790 C   0  0  0  0  0  0  0  0  0  0  0  0
   11.6080    1.0360   23.5250 C   0  0  0  0  0  0  0  0  0  0  0  0
   12.2400   -0.3030   23.6070 N   0  0  0  0  0  0  0  0  0  0  0  0
   11.9820   -1.4620   22.7410 C   0  0  0  0  0  0  0  0  0  0  0  0
   12.3100   -0.7380   24.9640 C   0  0  0  0  0  0  0  0  0  0  0  0
   13.3670   -2.1320   22.6930 C   0  0  0  0  0  0  0  0  0  0  0  0
   12.4530   -2.2270   24.9970 C   0  0  0  0  0  0  0  0  0  0  0  0
   13.4450   -2.8520   24.0900 C   0  0  0  0  0  0  0  0  0  0  0  0
   14.6570   -2.9920   25.0340 N   0  0  0  0  0  0  0  0  0  0  0  0
   15.8190   -4.0230   25.3860 C   0  0  0  0  0  0  0  0  0  0  0  0
   15.2850   -5.3920   25.7420 C   0  0  0  0  0  0  0  0  0  0  0  0
   17.3830   -3.8750   25.5580 C   0  0  0  0  0  0  0  0  0  0  0  0
   16.1780   -6.4910   26.1750 C   0  0  0  0  0  0  0  0  0  0  0  0
   18.0850   -4.9830   26.0440 C   0  0  0  0  0  0  0  0  0  0  0  0
   18.4500   -2.6700   25.3720 C   0  0  0  0  0  0  0  0  0  0  0  0
   17.5060   -6.2490   26.3120 C   0  0  0  0  0  0  0  0  0  0  0  0
   19.4280   -4.7820   26.3260 C   0  0  0  0  0  0  0  0  0  0  0  0
   19.8760   -2.5140   25.6360 C   0  0  0  0  0  0  0  0  0  0  0  0
   20.2850   -3.5910   26.1310 C   0  0  0  0  0  0  0  0  0  0  0  0
  2  1  1  0
  2  3  2  0
  2  4  2  0
  2  5  1  0
  5  6  2  0
  5  7  1  0
  6  8  1  0
  7  9  2  0
  8 10  2  0
  9 10  1  0
 10 11  1  0
 11 12  1  0
 11 13  1  0
 12 14  1  0
 13 15  1  0
 14 16  1  0
 15 16  1  0
 16 17  1  0
 17 18  1  0
 18 19  2  0
 18 20  1  0
 19 21  1  0
 20 22  2  0
 20 23  1  0
 21 24  2  0
 22 24  1  0
 22 25  1  0
 23 26  2  0
 25 27  2  0
 26 27  1  0
M  END
