WAR-XCH-b0339bbe-19-acrylamide
     RDKit          3D

 26 29  0  0  0  0  0  0  0  0999 V2000
    7.3200   -2.9320   18.4990 C   0  0  0  0  0  0  0  0  0  0  0  0
    6.3570   -2.6880   19.6530 C   0  0  0  0  0  0  0  0  0  0  0  0
    6.0060   -3.9730   20.3450 C   0  0  0  0  0  0  0  0  0  0  0  0
    5.1410   -4.7090   19.8840 O   0  0  0  0  0  0  0  0  0  0  0  0
    6.7730   -4.2150   21.4650 N   0  0  0  0  0  0  0  0  0  0  0  0
    6.4490   -5.2470   22.4150 C   0  0  0  0  0  0  0  0  0  0  0  0
    7.6290   -3.1030   21.9110 C   0  0  0  0  0  0  0  0  0  0  0  0
    6.3810   -4.8300   23.7340 C   0  0  0  0  0  0  0  0  0  0  0  0
    7.3530   -2.7320   23.3390 C   0  0  0  0  0  0  0  0  0  0  0  0
    7.2820   -3.8310   24.1550 C   0  0  0  0  0  0  0  0  0  0  0  0
    7.1080   -3.5210   25.5820 C   0  0  0  0  0  0  0  0  0  0  0  0
    6.6330   -4.5450   26.3270 N   0  0  0  0  0  0  0  0  0  0  0  0
    7.3840   -2.2660   26.1680 C   0  0  0  0  0  0  0  0  0  0  0  0
    6.4420   -4.3380   27.6260 C   0  0  0  0  0  0  0  0  0  0  0  0
    7.1590   -2.1700   27.5730 C   0  0  0  0  0  0  0  0  0  0  0  0
    7.8800   -1.0190   25.4560 C   0  0  0  0  0  0  0  0  0  0  0  0
    5.8550   -5.4700   28.2600 C   0  0  0  0  0  0  0  0  0  0  0  0
    6.6830   -3.2300   28.3290 N   0  0  0  0  0  0  0  0  0  0  0  0
    7.4130   -0.9500   28.2160 C   0  0  0  0  0  0  0  0  0  0  0  0
    8.0820    0.1400   26.1790 C   0  0  0  0  0  0  0  0  0  0  0  0
    6.4620   -6.3440   29.3060 C   0  0  0  0  0  0  0  0  0  0  0  0
    4.4440   -5.8370   27.8300 C   0  0  0  0  0  0  0  0  0  0  0  0
    7.8590    0.1780   27.5420 C   0  0  0  0  0  0  0  0  0  0  0  0
    5.6660   -7.5160   29.8920 C   0  0  0  0  0  0  0  0  0  0  0  0
    3.6310   -6.9580   28.3610 N   0  0  0  0  0  0  0  0  0  0  0  0
    4.2120   -7.8390   29.4160 C   0  0  0  0  0  0  0  0  0  0  0  0
  1  2  1  0
  2  3  1  0
  3  4  2  0
  3  5  1  0
  5  6  1  0
  5  7  1  0
  6  8  1  0
  7  9  1  0
  8 10  1  0
  9 10  1  0
 10 11  1  0
 11 12  2  0
 11 13  1  0
 12 14  1  0
 13 15  2  0
 13 16  1  0
 14 17  1  0
 14 18  2  0
 15 18  1  0
 15 19  1  0
 16 20  2  0
 17 21  2  0
 17 22  1  0
 19 23  2  0
 20 23  1  0
 21 24  1  0
 22 25  2  0
 24 26  2  0
 25 26  1  0
M  END
