WAR-XCH-b72a1bbc-23
     RDKit          3D

 19 20  0  0  0  0  0  0  0  0999 V2000
   14.3410   -4.8400   20.3430 C   0  0  0  0  0  0  0  0  0  0  0  0
   13.9530   -4.1690   21.4660 O   0  0  0  0  0  0  0  0  0  0  0  0
   13.0560   -3.1090   21.4290 C   0  0  0  0  0  0  0  0  0  0  0  0
   13.1520   -2.2190   22.6120 C   0  0  0  0  0  0  0  0  0  0  0  0
   12.1630   -2.3130   23.7870 C   0  0  0  0  0  0  0  0  0  0  0  0
   13.1080   -0.8890   21.9960 C   0  0  0  0  0  0  0  0  0  0  0  0
   12.0090   -0.9830   24.5580 C   0  0  0  0  0  0  0  0  0  0  0  0
   13.4310   -0.0850   22.9740 C   0  0  0  0  0  0  0  0  0  0  0  0
   12.2370    0.0140   23.6730 N   0  0  0  0  0  0  0  0  0  0  0  0
   11.6500    1.3040   23.6930 C   0  0  0  0  0  0  0  0  0  0  0  0
   12.4820    2.3790   23.0810 C   0  0  0  0  0  0  0  0  0  0  0  0
   10.4320    1.5990   24.2180 C   0  0  0  0  0  0  0  0  0  0  0  0
   12.0210    3.6790   23.0670 C   0  0  0  0  0  0  0  0  0  0  0  0
    9.9760    2.9000   24.2000 C   0  0  0  0  0  0  0  0  0  0  0  0
   10.7670    3.9220   23.6410 C   0  0  0  0  0  0  0  0  0  0  0  0
   10.1310    5.5620   23.6980 S   0  0  0  0  0  0  0  0  0  0  0  0
    8.8060    5.4400   22.6740 N   0  0  0  0  0  0  0  0  0  0  0  0
   11.1010    6.4540   23.1160 O   0  0  0  0  0  0  0  0  0  0  0  0
    9.5960    5.7700   25.0280 O   0  0  0  0  0  0  0  0  0  0  0  0
  1  2  1  0
  2  3  1  0
  3  4  1  0
  4  5  1  0
  4  6  1  0
  5  7  1  0
  6  8  1  0
  7  9  1  0
  8  9  1  0
  9 10  1  0
 10 11  2  0
 10 12  1  0
 11 13  1  0
 12 14  2  0
 13 15  2  0
 14 15  1  0
 15 16  1  0
 16 17  1  0
 16 18  2  0
 16 19  2  0
M  END
