WAR-XCH-b72a1bbc-4
     RDKit          3D

 17 18  0  0  0  0  0  0  0  0999 V2000
   11.6630   -1.1480   25.2580 C   0  0  0  0  0  0  0  0  0  0  0  0
   12.2900   -1.3120   24.0320 C   0  0  0  0  0  0  0  0  0  0  0  0
   12.7360   -2.6720   23.6840 C   0  0  0  0  0  0  0  0  0  0  0  0
   12.4820   -0.3000   23.1710 C   0  0  0  0  0  0  0  0  0  0  0  0
   13.3730   -2.7800   22.3550 C   0  0  0  0  0  0  0  0  0  0  0  0
   13.1180   -0.5950   22.0260 C   0  0  0  0  0  0  0  0  0  0  0  0
   12.0260    1.1210   23.3160 C   0  0  0  0  0  0  0  0  0  0  0  0
   13.5600   -1.7570   21.5550 N   0  0  0  0  0  0  0  0  0  0  0  0
   12.7730    2.2360   22.9560 C   0  0  0  0  0  0  0  0  0  0  0  0
   10.7320    1.3050   23.8220 C   0  0  0  0  0  0  0  0  0  0  0  0
   12.2210    3.5130   23.0870 C   0  0  0  0  0  0  0  0  0  0  0  0
   10.1870    2.5740   23.9550 C   0  0  0  0  0  0  0  0  0  0  0  0
   10.9340    3.6820   23.5840 C   0  0  0  0  0  0  0  0  0  0  0  0
   10.1460    5.2120   23.7940 S   0  0  0  0  0  0  0  0  0  0  0  0
    8.9060    5.1200   22.6610 N   0  0  0  0  0  0  0  0  0  0  0  0
   11.0580    6.2510   23.3700 O   0  0  0  0  0  0  0  0  0  0  0  0
    9.4530    5.2690   25.0730 O   0  0  0  0  0  0  0  0  0  0  0  0
  1  2  1  0
  2  3  2  0
  2  4  1  0
  3  5  1  0
  4  6  2  0
  4  7  1  0
  5  8  2  0
  6  8  1  0
  7  9  2  0
  7 10  1  0
  9 11  1  0
 10 12  2  0
 11 13  2  0
 12 13  1  0
 13 14  1  0
 14 15  1  0
 14 16  2  0
 14 17  2  0
M  END
