WAR-XCH-b72a1bbc-18
     RDKit          3D

 21 23  0  0  0  0  0  0  0  0999 V2000
    8.9920    6.0520   22.5480 N   0  0  0  0  0  0  0  0  0  0  0  0
   10.3170    5.9650   23.5750 S   0  0  0  0  0  0  0  0  0  0  0  0
    9.8680    6.2420   24.9220 O   0  0  0  0  0  0  0  0  0  0  0  0
   11.3690    6.7090   22.9350 O   0  0  0  0  0  0  0  0  0  0  0  0
   10.7110    4.2470   23.5010 C   0  0  0  0  0  0  0  0  0  0  0  0
    9.6580    3.2820   23.9310 C   0  0  0  0  0  0  0  0  0  0  0  0
   11.9660    3.8070   23.0630 C   0  0  0  0  0  0  0  0  0  0  0  0
    9.9860    1.8240   23.9010 C   0  0  0  0  0  0  0  0  0  0  0  0
   12.3690    2.4430   22.9960 C   0  0  0  0  0  0  0  0  0  0  0  0
   11.3570    1.3700   23.4350 C   0  0  0  0  0  0  0  0  0  0  0  0
   11.5410   -0.0550   23.4700 N   0  0  0  0  0  0  0  0  0  0  0  0
   10.5270   -0.8000   22.8900 C   0  0  0  0  0  0  0  0  0  0  0  0
   11.8420   -0.5230   24.8360 C   0  0  0  0  0  0  0  0  0  0  0  0
   10.8240   -2.2690   23.0640 C   0  0  0  0  0  0  0  0  0  0  0  0
   12.3560   -1.7820   24.8700 C   0  0  0  0  0  0  0  0  0  0  0  0
   12.1140   -2.5460   23.7880 C   0  0  0  0  0  0  0  0  0  0  0  0
   13.2400   -2.3390   23.0470 C   0  0  2  0  0  0  0  0  0  0  0  0
   13.1690   -1.2630   22.1950 C   0  0  0  0  0  0  0  0  0  0  0  0
   13.4680   -3.4570   22.1990 O   0  0  0  0  0  0  0  0  0  0  0  0
   13.0730   -1.7930   20.9540 C   0  0  0  0  0  0  0  0  0  0  0  0
   13.3220   -3.1110   20.8360 C   0  0  0  0  0  0  0  0  0  0  0  0
  2  1  1  0
  2  3  2  0
  2  4  2  0
  2  5  1  0
  5  6  2  0
  5  7  1  0
  6  8  1  0
  7  9  2  0
  8 10  2  0
  9 10  1  0
 10 11  1  0
 11 12  1  0
 11 13  1  0
 12 14  1  0
 13 15  1  0
 14 16  1  0
 15 16  1  0
 17 16  1  6
 17 18  1  0
 17 19  1  0
 18 20  1  0
 19 21  1  0
 20 21  1  0
M  END
