WAR-XCH-e55cba98-7-chloroacetamide
     RDKit          3D

 24 26  0  0  0  0  0  0  0  0999 V2000
    7.2460   -4.5330   20.7320 C   0  0  0  0  0  0  0  0  0  0  0  0
    6.0970   -3.6120   20.3830 C   0  0  0  0  0  0  0  0  0  0  0  0
    5.1530   -4.0210   19.6940 O   0  0  0  0  0  0  0  0  0  0  0  0
    6.1620   -2.3080   20.8250 N   0  0  0  0  0  0  0  0  0  0  0  0
    6.0290   -1.8830   22.2100 C   0  0  0  0  0  0  0  0  0  0  0  0
    7.2540   -1.5760   20.2400 C   0  0  0  0  0  0  0  0  0  0  0  0
    7.2370   -2.3060   23.0660 C   0  0  0  0  0  0  0  0  0  0  0  0
    8.5710   -1.8750   20.9760 C   0  0  0  0  0  0  0  0  0  0  0  0
    8.5590   -1.9210   22.3810 C   0  0  0  0  0  0  0  0  0  0  0  0
    9.0150   -0.6220   22.8740 N   0  0  0  0  0  0  0  0  0  0  0  0
   10.3150   -0.2780   23.2580 C   0  0  0  0  0  0  0  0  0  0  0  0
   10.3560    1.1580   23.1620 C   0  0  0  0  0  0  0  0  0  0  0  0
   11.3420   -0.8410   22.2400 C   0  0  0  0  0  0  0  0  0  0  0  0
   10.7880   -0.7860   24.4780 C   0  0  0  0  0  0  0  0  0  0  0  0
    9.5960    2.1260   23.9000 C   0  0  0  0  0  0  0  0  0  0  0  0
   12.2760   -1.9390   22.7810 C   0  0  0  0  0  0  0  0  0  0  0  0
   12.1830   -0.6000   24.6650 C   0  0  0  0  0  0  0  0  0  0  0  0
    8.6340    2.7590   23.1160 C   0  0  0  0  0  0  0  0  0  0  0  0
   13.0560   -1.4410   23.9940 C   0  0  0  0  0  0  0  0  0  0  0  0
    7.4930    2.2190   22.4580 C   0  0  0  0  0  0  0  0  0  0  0  0
    8.7120    4.2350   22.8700 N   0  0  0  0  0  0  0  0  0  0  0  0
    6.8320    3.3340   21.7940 N   0  0  0  0  0  0  0  0  0  0  0  0
    7.6170    4.5120   22.0800 C   0  0  0  0  0  0  0  0  0  0  0  0
    5.6050    3.2610   20.9930 C   0  0  0  0  0  0  0  0  0  0  0  0
  1  2  1  0
  2  3  2  0
  2  4  1  0
  4  5  1  0
  4  6  1  0
  5  7  1  0
  6  8  1  0
  7  9  1  0
  8  9  1  0
  9 10  1  0
 10 11  1  0
 11 12  1  0
 11 13  1  0
 11 14  1  0
 12 15  3  0
 13 16  1  0
 14 17  1  0
 15 18  1  0
 16 19  1  0
 17 19  1  0
 18 20  2  0
 18 21  1  0
 20 22  1  0
 21 23  2  0
 22 23  1  0
 22 24  1  0
M  END
