WAR-XCH-b0339bbe-8-bromoalkyne
     RDKit          3D

 23 25  0  0  0  0  0  0  0  0999 V2000
    6.6480   -3.4760   19.2040 C   0  0  0  0  0  0  0  0  0  0  0  0
    5.2690   -3.7970   19.5460 C   0  0  0  0  0  0  0  0  0  0  0  0
    6.8510   -2.0120   19.3320 C   0  0  0  0  0  0  0  0  0  0  0  0
    6.2200   -1.1190   18.4420 C   0  0  0  0  0  0  0  0  0  0  0  0
    7.6370   -1.4730   20.3520 C   0  0  0  0  0  0  0  0  0  0  0  0
    6.3480    0.2760   18.5540 C   0  0  0  0  0  0  0  0  0  0  0  0
    7.7520   -0.0920   20.4670 C   0  0  0  0  0  0  0  0  0  0  0  0
    8.3290   -2.2840   21.3030 C   0  0  0  0  0  0  0  0  0  0  0  0
    7.1220    0.7690   19.5890 C   0  0  0  0  0  0  0  0  0  0  0  0
    7.5760   -3.1290   22.1450 N   0  0  0  0  0  0  0  0  0  0  0  0
    6.1530   -2.9000   22.4770 C   0  0  0  0  0  0  0  0  0  0  0  0
    5.3450   -2.1060   21.4080 C   0  0  0  0  0  0  0  0  0  0  0  0
    5.9940   -2.1480   23.8090 C   0  0  0  0  0  0  0  0  0  0  0  0
    5.5210   -4.3210   22.6060 C   0  0  0  0  0  0  0  0  0  0  0  0
    5.6460   -0.6020   21.1240 C   0  0  0  0  0  0  0  0  0  0  0  0
    4.6490   -2.3720   24.4220 C   0  0  0  0  0  0  0  0  0  0  0  0
    5.3920   -4.7080   23.9390 C   0  0  0  0  0  0  0  0  0  0  0  0
    4.6790    0.3860   21.3290 C   0  0  0  0  0  0  0  0  0  0  0  0
    4.3460   -3.8470   24.6690 C   0  0  0  0  0  0  0  0  0  0  0  0
    4.1400    0.7960   20.0990 C   0  0  0  0  0  0  0  0  0  0  0  0
    5.2200    1.5680   21.8950 C   0  0  0  0  0  0  0  0  0  0  0  0
    4.4380    2.1390   19.8970 C   0  0  0  0  0  0  0  0  0  0  0  0
    5.0720    2.6350   21.0210 C   0  0  0  0  0  0  0  0  0  0  0  0
  1  2  2  3
  1  3  1  0
  3  4  2  0
  3  5  1  0
  4  6  1  0
  5  7  2  0
  5  8  1  0
  6  9  2  0
  7  9  1  0
  8 10  1  0
 10 11  1  0
 11 12  1  0
 11 13  1  0
 11 14  1  0
 12 15  3  0
 13 16  1  0
 14 17  1  0
 15 18  1  0
 16 19  1  0
 17 19  1  0
 18 20  1  0
 18 21  1  0
 20 22  1  0
 21 23  1  0
 22 23  1  0
M  END
