WAR-XCH-b72a1bbc-39
     RDKit          3D

 20 21  0  0  0  0  0  0  0  0999 V2000
   15.0920   -5.1210   20.4380 C   0  0  0  0  0  0  0  0  0  0  0  0
   13.6600   -4.7610   20.3560 C   0  0  0  0  0  0  0  0  0  0  0  0
   12.8070   -3.3420   20.7850 S   0  0  0  0  0  0  0  0  0  0  0  0
   13.3030   -2.7770   22.4110 C   0  0  0  0  0  0  0  0  0  0  0  0
   12.1900   -2.1420   23.1520 C   0  0  0  0  0  0  0  0  0  0  0  0
   12.0470   -0.9610   22.3480 C   0  0  0  0  0  0  0  0  0  0  0  0
   12.6950   -1.9180   24.5470 C   0  0  0  0  0  0  0  0  0  0  0  0
   12.9750    0.0340   22.4940 C   0  0  0  0  0  0  0  0  0  0  0  0
   12.3990   -0.4920   24.8970 C   0  0  0  0  0  0  0  0  0  0  0  0
   12.8310    0.4260   23.8200 N   0  0  0  0  0  0  0  0  0  0  0  0
   12.1770    1.6780   23.6490 C   0  0  0  0  0  0  0  0  0  0  0  0
   10.8600    1.7430   24.1840 C   0  0  0  0  0  0  0  0  0  0  0  0
   12.8130    2.7440   23.0180 C   0  0  0  0  0  0  0  0  0  0  0  0
   10.2170    2.9440   24.1100 C   0  0  0  0  0  0  0  0  0  0  0  0
   12.1040    4.0580   22.9370 C   0  0  0  0  0  0  0  0  0  0  0  0
   10.7290    4.1130   23.5550 C   0  0  0  0  0  0  0  0  0  0  0  0
    9.8320    5.6150   23.5870 S   0  0  0  0  0  0  0  0  0  0  0  0
    8.5500    5.2780   22.5580 N   0  0  0  0  0  0  0  0  0  0  0  0
    9.2910    5.7420   24.9260 O   0  0  0  0  0  0  0  0  0  0  0  0
   10.6810    6.6280   23.0070 O   0  0  0  0  0  0  0  0  0  0  0  0
  1  2  1  0
  2  3  1  0
  3  4  1  0
  4  5  1  0
  5  6  1  0
  5  7  1  0
  6  8  1  0
  7  9  1  0
  8 10  1  0
  9 10  1  0
 10 11  1  0
 11 12  2  0
 11 13  1  0
 12 14  1  0
 13 15  2  0
 14 16  2  0
 15 16  1  0
 16 17  1  0
 17 18  1  0
 17 19  2  0
 17 20  2  0
M  END
