WAR-XCH-79d12f6e-6-acrylamide
     RDKit          3D

 21 22  0  0  0  0  0  0  0  0999 V2000
    7.6710   -5.3920   21.3290 C   0  0  0  0  0  0  0  0  0  0  0  0
    6.3740   -6.2090   21.5360 C   0  0  0  0  0  0  0  0  0  0  0  0
    5.4810   -5.5980   22.5500 C   0  0  0  0  0  0  0  0  0  0  0  0
    4.3580   -5.2030   22.2780 O   0  0  0  0  0  0  0  0  0  0  0  0
    5.9830   -5.4130   23.7780 N   0  0  0  0  0  0  0  0  0  0  0  0
    5.6600   -4.0650   23.9850 C   0  0  0  0  0  0  0  0  0  0  0  0
    7.4030   -5.6820   24.0420 C   0  0  0  0  0  0  0  0  0  0  0  0
    6.2950   -3.4100   22.7670 C   0  0  0  0  0  0  0  0  0  0  0  0
    8.3750   -4.5600   23.6720 C   0  0  0  0  0  0  0  0  0  0  0  0
    7.8120   -3.4980   22.7800 N   0  0  0  0  0  0  0  0  0  0  0  0
    8.4220   -1.9640   23.1680 S   0  0  0  0  0  0  0  0  0  0  0  0
    8.6750   -1.2540   21.9340 O   0  0  0  0  0  0  0  0  0  0  0  0
    9.4030   -2.1070   24.2240 O   0  0  0  0  0  0  0  0  0  0  0  0
    6.8110   -1.5730   23.7570 C   0  0  0  0  0  0  0  0  0  0  0  0
    6.0050   -0.8770   22.8480 C   0  0  0  0  0  0  0  0  0  0  0  0
    6.3360   -1.9450   25.0290 C   0  0  0  0  0  0  0  0  0  0  0  0
    4.7070   -0.5410   23.1850 C   0  0  0  0  0  0  0  0  0  0  0  0
    5.0220   -1.5990   25.3470 C   0  0  0  0  0  0  0  0  0  0  0  0
    7.1440   -2.6910   26.0490 C   0  0  0  0  0  0  0  0  0  0  0  0
    3.8380    0.2060   22.2170 C   0  0  0  0  0  0  0  0  0  0  0  0
    4.2230   -0.9090   24.4400 C   0  0  0  0  0  0  0  0  0  0  0  0
  1  2  1  0
  2  3  1  0
  3  4  2  0
  3  5  1  0
  5  6  1  0
  5  7  1  0
  6  8  1  0
  7  9  1  0
  8 10  1  0
  9 10  1  0
 10 11  1  0
 11 12  2  0
 11 13  2  0
 11 14  1  0
 14 15  2  0
 14 16  1  0
 15 17  1  0
 16 18  2  0
 16 19  1  0
 17 20  1  0
 17 21  2  0
 18 21  1  0
M  END
