WAR-XCH-b0339bbe-16-acrylamide
     RDKit          3D

 26 28  0  0  0  0  0  0  0  0999 V2000
    8.1450   -3.5220   20.0600 C   0  0  0  0  0  0  0  0  0  0  0  0
    6.8420   -2.8020   19.8120 C   0  0  0  0  0  0  0  0  0  0  0  0
    5.8510   -3.6050   20.5780 C   0  0  0  0  0  0  0  0  0  0  0  0
    5.1950   -4.4420   19.9500 O   0  0  0  0  0  0  0  0  0  0  0  0
    5.6240   -3.5090   22.0450 C   0  0  0  0  0  0  0  0  0  0  0  0
    5.3550   -2.2870   22.7560 C   0  0  0  0  0  0  0  0  0  0  0  0
    5.6900   -4.8000   22.6900 C   0  0  0  0  0  0  0  0  0  0  0  0
    5.1440   -2.3750   24.1320 C   0  0  0  0  0  0  0  0  0  0  0  0
    5.4960   -4.9920   24.0230 N   0  0  0  0  0  0  0  0  0  0  0  0
    5.2690   -3.7920   24.4730 C   0  0  0  0  0  0  0  0  0  0  0  0
    5.0740   -4.0090   25.8680 N   0  0  0  0  0  0  0  0  0  0  0  0
    5.2370   -5.3240   26.4610 C   0  0  0  0  0  0  0  0  0  0  0  0
    5.3730   -5.0540   27.9010 C   0  0  0  0  0  0  0  0  0  0  0  0
    5.9040   -3.5990   28.0230 C   0  0  0  0  0  0  0  0  0  0  0  0
    6.1570   -6.0500   28.5690 C   0  0  0  0  0  0  0  0  0  0  0  0
    4.1080   -5.0290   28.5280 C   0  0  0  0  0  0  0  0  0  0  0  0
    5.0880   -2.5180   28.7860 C   0  0  0  0  0  0  0  0  0  0  0  0
    5.5100   -7.0990   29.4360 C   0  0  0  0  0  0  0  0  0  0  0  0
    3.9770   -5.2530   30.0450 C   0  0  0  0  0  0  0  0  0  0  0  0
    5.8070   -1.5170   29.7310 C   0  0  0  0  0  0  0  0  0  0  0  0
    4.7300   -6.4860   30.5560 C   0  0  0  0  0  0  0  0  0  0  0  0
    5.0780   -0.8280   30.7170 C   0  0  0  0  0  0  0  0  0  0  0  0
    7.2750   -1.2160   29.6730 N   0  0  0  0  0  0  0  0  0  0  0  0
    5.7490    0.0700   31.5630 C   0  0  0  0  0  0  0  0  0  0  0  0
    7.9410   -0.2680   30.5800 C   0  0  0  0  0  0  0  0  0  0  0  0
    7.1160    0.3320   31.4930 C   0  0  0  0  0  0  0  0  0  0  0  0
  1  2  1  0
  2  3  1  0
  3  4  2  0
  3  5  1  0
  5  6  2  0
  5  7  1  0
  6  8  1  0
  7  9  2  0
  8 10  2  0
  9 10  1  0
 10 11  1  0
 11 12  1  0
 12 13  1  0
 13 14  1  0
 13 15  1  0
 13 16  1  0
 14 17  3  0
 15 18  1  0
 16 19  1  0
 17 20  1  0
 18 21  1  0
 19 21  1  0
 20 22  2  0
 20 23  1  0
 22 24  1  0
 23 25  2  0
 24 26  2  0
 25 26  1  0
M  END
