WAR-XCH-b6889685-10
     RDKit          3D

 29 32  0  0  0  0  0  0  0  0999 V2000
   13.4840   -3.0330   23.0690 N   0  0  0  0  0  0  0  0  0  0  0  0
   12.7580   -2.5160   21.6460 S   0  0  0  0  0  0  0  0  0  0  0  0
   13.7380   -2.1000   20.7010 O   0  0  0  0  0  0  0  0  0  0  0  0
   11.5640   -3.1770   21.2720 O   0  0  0  0  0  0  0  0  0  0  0  0
   12.1810   -1.0830   22.3090 C   0  0  0  0  0  0  0  0  0  0  0  0
   10.7450   -0.8570   22.7500 C   0  0  0  0  0  0  0  0  0  0  0  0
   13.0830   -0.1150   22.4120 C   0  0  0  0  0  0  0  0  0  0  0  0
   10.2060    0.4710   23.3050 C   0  0  0  0  0  0  0  0  0  0  0  0
   12.8000    1.1020   22.8620 C   0  0  0  0  0  0  0  0  0  0  0  0
   11.4120    1.4600   23.2940 C   0  0  0  0  0  0  0  0  0  0  0  0
   11.2700    2.8110   23.6720 N   0  0  0  0  0  0  0  0  0  0  0  0
   11.9120    3.5870   22.5730 C   0  0  0  0  0  0  0  0  0  0  0  0
    9.9220    3.2570   23.7730 C   0  0  0  0  0  0  0  0  0  0  0  0
   12.7100    4.7360   23.1540 C   0  0  0  0  0  0  0  0  0  0  0  0
   10.1060    4.7560   23.8500 C   0  0  0  0  0  0  0  0  0  0  0  0
   11.5790    5.2270   24.0590 C   0  0  0  0  0  0  0  0  0  0  0  0
   11.6760    6.7140   23.7570 C   0  0  0  0  0  0  0  0  0  0  0  0
   10.3930    7.1490   23.5320 N   0  0  0  0  0  0  0  0  0  0  0  0
    9.6910    7.0080   22.3440 C   0  0  0  0  0  0  0  0  0  0  0  0
    9.4870    6.9760   24.6700 C   0  0  0  0  0  0  0  0  0  0  0  0
    8.3840    6.2320   22.4630 C   0  0  0  0  0  0  0  0  0  0  0  0
    8.1160    7.5850   24.3540 C   0  0  0  0  0  0  0  0  0  0  0  0
    7.4100    6.9410   23.1430 C   0  0  0  0  0  0  0  0  0  0  0  0
    6.7740    7.9100   22.3670 C   0  0  0  0  0  0  0  0  0  0  0  0
    6.6320    7.6790   20.9880 C   0  0  0  0  0  0  0  0  0  0  0  0
    6.2940    9.0940   22.9850 C   0  0  0  0  0  0  0  0  0  0  0  0
    5.9510    8.7270   20.1570 C   0  0  0  0  0  0  0  0  0  0  0  0
    5.5890   10.2000   22.1850 C   0  0  0  0  0  0  0  0  0  0  0  0
    5.4010   10.0210   20.6950 C   0  0  0  0  0  0  0  0  0  0  0  0
  2  1  1  0
  2  3  2  0
  2  4  2  0
  2  5  1  0
  5  6  2  0
  5  7  1  0
  6  8  1  0
  7  9  2  0
  8 10  2  0
  9 10  1  0
 10 11  1  0
 11 12  1  0
 11 13  1  0
 12 14  1  0
 13 15  1  0
 14 16  1  0
 15 16  1  0
 16 17  1  0
 17 18  1  0
 18 19  1  0
 18 20  1  0
 19 21  1  0
 20 22  1  0
 21 23  1  0
 22 23  1  0
 23 24  1  0
 24 25  2  0
 24 26  1  0
 25 27  1  0
 26 28  2  0
 27 29  2  0
 28 29  1  0
M  END
