WAR-XCH-b6889685-55
     RDKit          3D

 24 26  0  0  0  0  0  0  0  0999 V2000
    9.2390    0.7150   21.9260 C   0  0  0  0  0  0  0  0  0  0  0  0
    9.0310   -0.6180   21.4450 N   0  0  0  0  0  0  0  0  0  0  0  0
    7.5950   -0.6720   20.8910 C   0  0  0  0  0  0  0  0  0  0  0  0
   10.0080   -1.6610   22.1880 C   0  0  0  0  0  0  0  0  0  0  0  0
    6.5590    0.4670   21.3500 C   0  0  0  0  0  0  0  0  0  0  0  0
    7.4460   -0.6960   19.4540 C   0  0  0  0  0  0  0  0  0  0  0  0
   11.5080   -1.8460   21.7170 C   0  0  0  0  0  0  0  0  0  0  0  0
   10.0960   -1.5700   23.6210 C   0  0  0  0  0  0  0  0  0  0  0  0
    5.2700    0.4050   20.4190 C   0  0  0  0  0  0  0  0  0  0  0  0
    6.1070   -0.8850   18.7720 C   0  0  0  0  0  0  0  0  0  0  0  0
   12.6930   -1.0790   22.3940 C   0  0  0  0  0  0  0  0  0  0  0  0
   11.4650   -1.3410   24.3410 C   0  0  0  0  0  0  0  0  0  0  0  0
    5.7560    0.5700   18.9550 C   0  0  0  0  0  0  0  0  0  0  0  0
   12.2790   -0.4290   23.5270 N   0  0  0  0  0  0  0  0  0  0  0  0
   11.8030    0.9550   23.5740 C   0  0  0  0  0  0  0  0  0  0  0  0
   12.6450    1.9210   23.0090 C   0  0  0  0  0  0  0  0  0  0  0  0
   10.5730    1.2710   24.1500 C   0  0  0  0  0  0  0  0  0  0  0  0
   12.2660    3.2770   23.0020 C   0  0  0  0  0  0  0  0  0  0  0  0
   10.0640    2.6980   24.2000 C   0  0  0  0  0  0  0  0  0  0  0  0
   10.9300    3.6160   23.6340 C   0  0  0  0  0  0  0  0  0  0  0  0
   10.3910    5.3300   23.6790 S   0  0  0  0  0  0  0  0  0  0  0  0
    8.9910    5.3230   22.6990 N   0  0  0  0  0  0  0  0  0  0  0  0
    9.9330    5.6380   25.0120 O   0  0  0  0  0  0  0  0  0  0  0  0
   11.3740    6.1620   23.0220 O   0  0  0  0  0  0  0  0  0  0  0  0
  1  2  1  0
  2  3  1  0
  2  4  1  0
  3  5  1  0
  3  6  1  0
  4  7  1  0
  4  8  1  0
  5  9  1  0
  6 10  1  0
  7 11  1  0
  8 12  1  0
  9 13  1  0
 10 13  1  0
 11 14  1  0
 12 14  1  0
 14 15  1  0
 15 16  2  0
 15 17  1  0
 16 18  1  0
 17 19  2  0
 18 20  2  0
 19 20  1  0
 20 21  1  0
 21 22  1  0
 21 23  2  0
 21 24  2  0
M  END
