WAR-XCH-b72a1bbc-11
     RDKit          3D

 23 25  0  0  0  0  0  0  0  0999 V2000
    8.9430    5.5610   22.6310 N   0  0  0  0  0  0  0  0  0  0  0  0
   10.2730    5.4440   23.6460 S   0  0  0  0  0  0  0  0  0  0  0  0
    9.9110    6.0150   24.9230 O   0  0  0  0  0  0  0  0  0  0  0  0
   11.4040    5.9140   22.8930 O   0  0  0  0  0  0  0  0  0  0  0  0
   10.3140    3.7000   23.9230 C   0  0  0  0  0  0  0  0  0  0  0  0
   11.7150    3.6720   23.2400 C   0  0  0  0  0  0  0  0  0  0  0  0
   10.6810    2.4350   23.9660 C   0  0  0  0  0  0  0  0  0  0  0  0
   12.5880    2.3540   23.0580 C   0  0  0  0  0  0  0  0  0  0  0  0
   10.7990    1.1090   24.1410 C   0  0  0  0  0  0  0  0  0  0  0  0
   12.1370    0.9420   23.5410 C   0  0  0  0  0  0  0  0  0  0  0  0
   12.9160   -0.2700   23.4070 N   0  0  0  0  0  0  0  0  0  0  0  0
   13.0700   -1.0070   24.5440 C   0  0  0  0  0  0  0  0  0  0  0  0
   12.6330   -1.1050   22.2950 C   0  0  0  0  0  0  0  0  0  0  0  0
   11.8350   -1.8110   24.8510 C   0  0  0  0  0  0  0  0  0  0  0  0
   12.4760   -2.4260   22.6770 C   0  0  0  0  0  0  0  0  0  0  0  0
   11.3420   -2.6080   23.7030 C   0  0  0  0  0  0  0  0  0  0  0  0
   10.0750   -2.3810   23.2050 N   0  0  0  0  0  0  0  0  0  0  0  0
    8.9960   -3.2800   23.1160 C   0  0  0  0  0  0  0  0  0  0  0  0
    9.6840   -1.1130   23.3960 C   0  0  0  0  0  0  0  0  0  0  0  0
    7.8030   -2.7970   23.6620 C   0  0  0  0  0  0  0  0  0  0  0  0
    9.0060   -0.6180   22.2890 C   0  0  0  0  0  0  0  0  0  0  0  0
    7.0880   -1.9620   22.8060 C   0  0  0  0  0  0  0  0  0  0  0  0
    7.9160   -1.3610   21.8460 C   0  0  0  0  0  0  0  0  0  0  0  0
  2  1  1  0
  2  3  2  0
  2  4  2  0
  2  5  1  0
  5  6  2  0
  5  7  1  0
  6  8  1  0
  7  9  2  0
  8 10  2  0
  9 10  1  0
 10 11  1  0
 11 12  1  0
 11 13  1  0
 12 14  1  0
 13 15  1  0
 14 16  1  0
 15 16  1  0
 16 17  1  0
 17 18  1  0
 17 19  1  0
 18 20  1  0
 19 21  1  0
 20 22  1  0
 21 23  1  0
 22 23  1  0
M  END
