WAR-XCH-bdd24732-29
     RDKit          3D

 26 29  0  0  0  0  0  0  0  0999 V2000
    8.2250   -1.2150   24.5940 O   0  0  0  0  0  0  0  0  0  0  0  0
    9.0470   -1.4550   23.7090 C   0  0  0  0  0  0  0  0  0  0  0  0
    9.7270   -0.4190   22.9870 N   0  0  0  0  0  0  0  0  0  0  0  0
    9.4110   -2.7790   23.3240 N   0  0  0  0  0  0  0  0  0  0  0  0
   11.0790   -0.8370   23.1170 C   0  0  0  0  0  0  0  0  0  0  0  0
    9.2830   -3.4500   24.4280 C   0  0  0  0  0  0  0  0  0  0  0  0
    8.6710   -2.9730   22.0020 C   0  0  1  0  0  0  0  0  0  0  0  0
   12.0660    0.2190   23.2360 C   0  0  0  0  0  0  0  0  0  0  0  0
   11.4490   -1.7950   21.9760 C   0  0  0  0  0  0  0  0  0  0  0  0
    8.0600   -3.4830   25.0870 C   0  0  0  0  0  0  0  0  0  0  0  0
   10.3270   -4.3850   25.4740 S   0  0  0  0  0  0  0  0  0  0  0  0
    7.5830   -4.0900   21.8330 C   0  0  0  0  0  0  0  0  0  0  0  0
    8.2320   -1.5670   21.5270 C   0  0  0  0  0  0  0  0  0  0  0  0
   13.2230   -0.4250   23.5630 C   0  0  0  0  0  0  0  0  0  0  0  0
   12.8120   -1.9830   21.9170 C   0  0  0  0  0  0  0  0  0  0  0  0
    7.8920   -4.0560   26.1830 C   0  0  0  0  0  0  0  0  0  0  0  0
    9.0450   -4.6660   26.6080 C   0  0  0  0  0  0  0  0  0  0  0  0
    6.2880   -3.6920   21.1050 C   0  0  0  0  0  0  0  0  0  0  0  0
    7.0350   -1.4530   20.8490 C   0  0  0  0  0  0  0  0  0  0  0  0
   13.2220   -1.7750   23.2080 C   0  0  0  0  0  0  0  0  0  0  0  0
    8.9200   -5.3300   27.7960 C   0  0  0  0  0  0  0  0  0  0  0  0
    6.6860   -3.9740   26.7390 C   0  0  0  0  0  0  0  0  0  0  0  0
    6.0770   -2.3540   21.2570 C   0  0  2  0  0  0  0  0  0  0  0  0
    7.5740   -5.3480   28.4450 C   0  0  0  0  0  0  0  0  0  0  0  0
    6.3570   -4.9430   27.6220 C   0  0  0  0  0  0  0  0  0  0  0  0
    5.9030   -2.2350   22.6550 O   0  0  0  0  0  0  0  0  0  0  0  0
  1  2  2  0
  2  3  1  0
  2  4  1  0
  3  5  1  0
  4  6  1  0
  7  4  1  1
  5  8  1  0
  5  9  1  0
  6 10  2  0
  6 11  1  0
  7 12  1  0
  7 13  1  0
  8 14  1  0
  9 15  1  0
 10 16  1  0
 11 17  1  0
 16 17  2  0
 12 18  1  0
 13 19  1  0
 14 20  1  0
 15 20  1  0
 17 21  1  0
 16 22  1  0
 18 23  1  0
 19 23  1  0
 21 24  1  0
 22 25  1  0
 24 25  1  0
 23 26  1  1
M  END
