WAR-XCH-79d12f6e-4-acrylamide
     RDKit          3D

 21 22  0  0  0  0  0  0  0  0999 V2000
    6.4420   -5.5660   20.5820 C   0  0  0  0  0  0  0  0  0  0  0  0
    6.6350   -6.0570   22.0610 C   0  0  0  0  0  0  0  0  0  0  0  0
    5.5360   -5.4230   22.8600 C   0  0  0  0  0  0  0  0  0  0  0  0
    4.4470   -5.0930   22.3000 O   0  0  0  0  0  0  0  0  0  0  0  0
    5.7710   -5.1100   24.1660 N   0  0  0  0  0  0  0  0  0  0  0  0
    4.8810   -4.0540   24.4480 C   0  0  0  0  0  0  0  0  0  0  0  0
    7.1200   -4.6220   24.3660 C   0  0  0  0  0  0  0  0  0  0  0  0
    5.0190   -3.1720   23.3810 C   0  0  0  0  0  0  0  0  0  0  0  0
    7.4260   -3.8840   23.0860 C   0  0  0  0  0  0  0  0  0  0  0  0
    6.2820   -2.9380   22.6540 C   0  0  0  0  0  0  0  0  0  0  0  0
    6.7080   -1.5440   22.8500 N   0  0  0  0  0  0  0  0  0  0  0  0
    7.3970   -0.6690   21.5960 S   0  0  0  0  0  0  0  0  0  0  0  0
    7.1810   -1.3870   20.3630 O   0  0  0  0  0  0  0  0  0  0  0  0
    6.9550    0.6980   21.7690 O   0  0  0  0  0  0  0  0  0  0  0  0
    9.1170   -0.7270   22.0250 C   0  0  0  0  0  0  0  0  0  0  0  0
    9.7210    0.4320   22.5170 C   0  0  0  0  0  0  0  0  0  0  0  0
    9.8460   -1.9050   21.8750 C   0  0  0  0  0  0  0  0  0  0  0  0
   11.0690    0.4140   22.8660 C   0  0  0  0  0  0  0  0  0  0  0  0
   11.1970   -1.9170   22.2260 C   0  0  0  0  0  0  0  0  0  0  0  0
   11.8070   -0.7600   22.7220 C   0  0  0  0  0  0  0  0  0  0  0  0
   13.2470   -0.7800   23.0970 C   0  0  0  0  0  0  0  0  0  0  0  0
  1  2  1  0
  2  3  1  0
  3  4  2  0
  3  5  1  0
  5  6  1  0
  5  7  1  0
  6  8  1  0
  7  9  1  0
  8 10  1  0
  9 10  1  0
 10 11  1  0
 12 11  1  0
 12 13  2  0
 12 14  2  0
 12 15  1  0
 15 16  2  0
 15 17  1  0
 16 18  1  0
 17 19  2  0
 18 20  2  0
 19 20  1  0
 20 21  1  0
M  END
