WAR-XCH-bdd24732-32-chloroacetamide
     RDKit          3D

 26 29  0  0  0  0  0  0  0  0999 V2000
    7.2280   -3.1660   19.0630 C   0  0  0  0  0  0  0  0  0  0  0  0
    6.4640   -3.6170   20.0480 C   0  0  0  0  0  0  0  0  0  0  0  0
    5.4200   -4.2280   19.7860 O   0  0  0  0  0  0  0  0  0  0  0  0
    6.9260   -3.4210   21.3430 N   0  0  0  0  0  0  0  0  0  0  0  0
    7.8430   -2.3140   21.7080 C   0  0  0  0  0  0  0  0  0  0  0  0
    6.3380   -4.1620   22.4550 C   0  0  0  0  0  0  0  0  0  0  0  0
    7.1950   -1.4000   22.5400 C   0  0  0  0  0  0  0  0  0  0  0  0
    6.0120   -3.2050   23.5960 C   0  0  0  0  0  0  0  0  0  0  0  0
    5.9650   -1.7420   23.1060 C   0  0  0  0  0  0  0  0  0  0  0  0
    5.5290   -0.7570   24.1420 N   0  0  0  0  0  0  0  0  0  0  0  0
    4.1860   -0.6030   24.4390 C   0  0  0  0  0  0  0  0  0  0  0  0
    6.5280    0.0650   24.8550 C   0  0  2  0  0  0  0  0  0  0  0  0
    3.4420   -1.3130   25.5260 C   0  0  0  0  0  0  0  0  0  0  0  0
    3.0950    0.4580   23.6270 S   0  0  0  0  0  0  0  0  0  0  0  0
    7.4150   -0.7800   25.7630 C   0  0  0  0  0  0  0  0  0  0  0  0
    5.9130    1.2740   25.5990 C   0  0  0  0  0  0  0  0  0  0  0  0
    2.0760   -0.9190   25.5890 C   0  0  0  0  0  0  0  0  0  0  0  0
    1.7830    0.0240   24.6230 C   0  0  0  0  0  0  0  0  0  0  0  0
    7.2070   -0.3580   27.2100 C   0  0  0  0  0  0  0  0  0  0  0  0
    6.9340    2.0080   26.4870 C   0  0  0  0  0  0  0  0  0  0  0  0
    0.5000    0.5430   24.5180 C   0  0  0  0  0  0  0  0  0  0  0  0
    1.0920   -1.3500   26.4540 C   0  0  0  0  0  0  0  0  0  0  0  0
    7.7510    1.0440   27.3500 C   0  0  2  0  0  0  0  0  0  0  0  0
   -0.5520   -0.2380   25.0170 C   0  0  0  0  0  0  0  0  0  0  0  0
   -0.1590   -0.4550   26.3370 C   0  0  0  0  0  0  0  0  0  0  0  0
    9.0980    1.0040   26.8960 O   0  0  0  0  0  0  0  0  0  0  0  0
  1  2  1  0
  2  3  2  0
  2  4  1  0
  4  5  1  0
  4  6  1  0
  5  7  1  0
  6  8  1  0
  7  9  1  0
  8  9  1  0
  9 10  1  0
 10 11  1  0
 12 10  1  1
 11 13  2  0
 11 14  1  0
 12 15  1  0
 12 16  1  0
 13 17  1  0
 14 18  1  0
 17 18  2  0
 15 19  1  0
 16 20  1  0
 18 21  1  0
 17 22  1  0
 19 23  1  0
 20 23  1  0
 21 24  1  0
 22 25  1  0
 24 25  1  0
 23 26  1  6
M  END
