WAR-XCH-b0339bbe-6
     RDKit          3D

 31 34  0  0  0  0  0  0  0  0999 V2000
    6.4160   -1.3810   20.1290 O   0  0  0  0  0  0  0  0  0  0  0  0
    7.0050   -2.1510   20.8580 C   0  0  0  0  0  0  0  0  0  0  0  0
    7.4770   -3.3690   20.2420 C   0  0  0  0  0  0  0  0  0  0  0  0
    7.2870   -2.0910   22.1960 N   0  0  0  0  0  0  0  0  0  0  0  0
    7.0610   -4.4100   21.0720 C   0  0  0  0  0  0  0  0  0  0  0  0
    6.3520   -2.7100   23.0610 C   0  0  2  0  0  0  0  0  0  0  0  0
    8.5770   -1.5550   22.7910 C   0  0  0  0  0  0  0  0  0  0  0  0
    5.9630   -5.2090   20.7560 C   0  0  0  0  0  0  0  0  0  0  0  0
    7.7190   -4.7020   22.2560 C   0  0  0  0  0  0  0  0  0  0  0  0
    5.7240   -3.8590   22.4140 C   0  0  0  0  0  0  0  0  0  0  0  0
    5.4750   -1.7590   23.5590 C   0  0  0  0  0  0  0  0  0  0  0  0
    8.4740   -1.3830   24.1790 C   0  0  0  0  0  0  0  0  0  0  0  0
    9.7900   -2.5210   22.5920 C   0  0  0  0  0  0  0  0  0  0  0  0
    8.9170   -0.1350   22.2590 C   0  0  0  0  0  0  0  0  0  0  0  0
    5.5850   -6.2350   21.6140 C   0  0  0  0  0  0  0  0  0  0  0  0
    7.3560   -5.7420   23.1350 N   0  0  0  0  0  0  0  0  0  0  0  0
    4.4830   -4.2260   23.2520 C   0  0  0  0  0  0  0  0  0  0  0  0
    4.7660   -2.1960   24.6840 C   0  0  0  0  0  0  0  0  0  0  0  0
    7.9460   -0.2210   24.7360 C   0  0  0  0  0  0  0  0  0  0  0  0
   11.1560   -1.8250   22.4550 C   0  0  0  0  0  0  0  0  0  0  0  0
   10.1430    0.4820   22.9420 C   0  0  0  0  0  0  0  0  0  0  0  0
    6.2620   -6.5060   22.7790 C   0  0  0  0  0  0  0  0  0  0  0  0
    4.3630   -3.5390   24.6310 C   0  0  2  0  0  0  0  0  0  0  0  0
    7.7350   -0.2000   26.2300 C   0  0  0  0  0  0  0  0  0  0  0  0
   11.2950   -0.4910   23.2050 C   0  0  0  0  0  0  0  0  0  0  0  0
    4.8710   -4.1430   25.5800 O   0  0  0  0  0  0  0  0  0  0  0  0
    8.9810    0.2580   26.9150 C   0  0  0  0  0  0  0  0  0  0  0  0
    6.6680    0.6390   26.6200 C   0  0  0  0  0  0  0  0  0  0  0  0
    8.8900    0.3310   28.4040 C   0  0  0  0  0  0  0  0  0  0  0  0
    6.9530    1.6520   27.5500 C   0  0  0  0  0  0  0  0  0  0  0  0
    7.6730    1.1510   28.8220 C   0  0  0  0  0  0  0  0  0  0  0  0
  1  2  2  0
  2  3  1  0
  2  4  1  0
  3  5  1  0
  6  4  1  6
  4  7  1  0
  5  8  2  0
  5  9  1  0
  6 10  1  0
  6 11  1  0
  7 12  1  0
  7 13  1  0
  7 14  1  0
  8 15  1  0
  9 16  2  0
 10 17  1  0
 11 18  1  0
 12 19  3  0
 13 20  1  0
 14 21  1  0
 15 22  2  0
 16 22  1  0
 17 23  1  0
 18 23  1  0
 19 24  1  0
 20 25  1  0
 21 25  1  0
 23 26  1  1
 24 27  1  0
 24 28  1  0
 27 29  1  0
 28 30  1  0
 29 31  1  0
 30 31  1  0
M  END
