WAR-XCH-b0339bbe-3-vinylsulfonamide
     RDKit          3D

 22 24  0  0  0  0  0  0  0  0999 V2000
    7.7350   -3.8370   20.2400 C   0  0  0  0  0  0  0  0  0  0  0  0
    7.3220   -2.4590   19.7150 C   0  0  0  0  0  0  0  0  0  0  0  0
    5.5630   -2.4200   19.7220 S   0  0  0  0  0  0  0  0  0  0  0  0
    5.0950   -3.3580   20.7480 O   0  0  0  0  0  0  0  0  0  0  0  0
    5.1500   -2.6290   18.3680 O   0  0  0  0  0  0  0  0  0  0  0  0
    5.2790   -0.8110   20.2170 N   0  0  0  0  0  0  0  0  0  0  0  0
    4.8060   -0.6330   21.5410 C   0  0  0  0  0  0  0  0  0  0  0  0
    6.2070    0.2320   19.7770 C   0  0  0  0  0  0  0  0  0  0  0  0
    5.6030    0.0870   22.4160 C   0  0  0  0  0  0  0  0  0  0  0  0
    7.3160    0.3480   20.6170 C   0  0  0  0  0  0  0  0  0  0  0  0
    6.9630    0.1860   22.1210 C   0  0  0  0  0  0  0  0  0  0  0  0
    7.7940   -0.8340   22.6270 C   0  0  0  0  0  0  0  0  0  0  0  0
    7.2260   -1.8190   23.6320 C   0  0  0  0  0  0  0  0  0  0  0  0
    7.1590   -1.5760   25.0130 N   0  0  0  0  0  0  0  0  0  0  0  0
    6.7100   -3.0760   23.3080 N   0  0  0  0  0  0  0  0  0  0  0  0
    6.5900   -2.7290   25.4890 C   0  0  0  0  0  0  0  0  0  0  0  0
    6.2840   -3.6750   24.5940 C   0  0  0  0  0  0  0  0  0  0  0  0
    6.2630   -3.1200   26.7750 C   0  0  0  0  0  0  0  0  0  0  0  0
    5.6620   -4.9910   24.9530 N   0  0  0  0  0  0  0  0  0  0  0  0
    6.3120   -2.6290   28.2470 C   0  0  0  0  0  0  0  0  0  0  0  0
    5.6540   -4.3800   27.2510 C   0  0  0  0  0  0  0  0  0  0  0  0
    5.2270   -5.6090   26.3080 C   0  0  0  0  0  0  0  0  0  0  0  0
  1  2  1  0
  3  2  1  0
  3  4  2  0
  3  5  2  0
  3  6  1  0
  6  7  1  0
  6  8  1  0
  7  9  1  0
  8 10  1  0
  9 11  1  0
 10 11  1  0
 11 12  1  0
 12 13  1  0
 13 14  2  0
 13 15  1  0
 14 16  1  0
 15 17  1  0
 16 17  2  0
 16 18  1  0
 17 19  1  0
 18 20  1  0
 18 21  2  0
 19 22  2  0
 21 22  1  0
M  END
