WAR-XCH-b72a1bbc-7
     RDKit          3D

 21 23  0  0  0  0  0  0  0  0999 V2000
    9.5980    5.4430   22.7290 N   0  0  0  0  0  0  0  0  0  0  0  0
   11.1690    5.1720   23.2590 S   0  0  0  0  0  0  0  0  0  0  0  0
   12.0730    5.7150   22.2750 O   0  0  0  0  0  0  0  0  0  0  0  0
   11.1670    5.6210   24.6280 O   0  0  0  0  0  0  0  0  0  0  0  0
   11.2850    3.3900   23.2210 C   0  0  0  0  0  0  0  0  0  0  0  0
   10.0820    2.5200   23.5000 C   0  0  0  0  0  0  0  0  0  0  0  0
   12.5040    2.7840   22.9370 C   0  0  0  0  0  0  0  0  0  0  0  0
   10.2410    0.9980   23.4610 C   0  0  0  0  0  0  0  0  0  0  0  0
   12.7240    1.3900   22.8880 C   0  0  0  0  0  0  0  0  0  0  0  0
   11.6060    0.3760   23.1450 C   0  0  0  0  0  0  0  0  0  0  0  0
   11.7780   -1.0810   23.1080 N   0  0  0  0  0  0  0  0  0  0  0  0
   11.0020   -1.8760   22.2450 C   0  0  0  0  0  0  0  0  0  0  0  0
   13.1940   -1.4950   23.2060 C   0  0  0  0  0  0  0  0  0  0  0  0
   11.8260   -2.5320   21.1170 C   0  0  0  0  0  0  0  0  0  0  0  0
   13.3780   -2.7990   22.8110 C   0  0  0  0  0  0  0  0  0  0  0  0
   13.1880   -2.9300   21.4290 C   0  0  0  0  0  0  0  0  0  0  0  0
   13.8930   -4.0440   20.7650 C   0  0  0  0  0  0  0  0  0  0  0  0
   14.9400   -4.7700   21.2180 C   0  0  0  0  0  0  0  0  0  0  0  0
   13.7740   -4.6720   19.5020 O   0  0  0  0  0  0  0  0  0  0  0  0
   15.4630   -5.5860   20.5860 C   0  0  0  0  0  0  0  0  0  0  0  0
   14.9200   -5.6740   19.5170 C   0  0  0  0  0  0  0  0  0  0  0  0
  2  1  1  0
  2  3  2  0
  2  4  2  0
  2  5  1  0
  5  6  2  0
  5  7  1  0
  6  8  1  0
  7  9  2  0
  8 10  2  0
  9 10  1  0
 10 11  1  0
 11 12  1  0
 11 13  1  0
 12 14  1  0
 13 15  1  0
 14 16  1  0
 15 16  1  0
 16 17  1  0
 17 18  2  0
 17 19  1  0
 18 20  1  0
 19 21  1  0
 20 21  2  0
M  END
