WAR-XCH-bdd24732-18-chloroacetamide
     RDKit          3D

 25 28  0  0  0  0  0  0  0  0999 V2000
    6.7930   -6.3140   19.9790 C   0  0  0  0  0  0  0  0  0  0  0  0
    5.9380   -5.9740   18.9690 C   0  0  0  0  0  0  0  0  0  0  0  0
    4.9830   -5.8240   18.5070 O   0  0  0  0  0  0  0  0  0  0  0  0
    5.5730   -6.1370   20.4980 C   0  0  0  0  0  0  0  0  0  0  0  0
    5.2990   -6.2100   21.8780 C   0  0  0  0  0  0  0  0  0  0  0  0
    6.0150   -4.9040   21.0720 C   0  0  0  0  0  0  0  0  0  0  0  0
    5.3020   -5.7810   23.1620 C   0  0  0  0  0  0  0  0  0  0  0  0
    6.3590   -4.4220   22.4570 C   0  0  0  0  0  0  0  0  0  0  0  0
    6.2550   -4.6130   23.3040 C   0  0  0  0  0  0  0  0  0  0  0  0
    7.5090   -3.1820   22.0030 C   0  0  0  0  0  0  0  0  0  0  0  0
    6.7560   -2.2280   20.8270 N   0  0  0  0  0  0  0  0  0  0  0  0
    9.2720   -2.7730   22.3100 C   0  0  0  0  0  0  0  0  0  0  0  0
    7.3110   -1.2900   20.3020 C   0  0  0  0  0  0  0  0  0  0  0  0
    9.8720   -1.6430   21.4710 C   0  0  0  0  0  0  0  0  0  0  0  0
   10.8410   -3.3670   23.2330 C   0  0  0  0  0  0  0  0  0  0  0  0
    6.3810   -0.1120   19.3140 C   0  0  0  0  0  0  0  0  0  0  0  0
    8.7770   -0.8600   20.5160 N   0  0  0  0  0  0  0  0  0  0  0  0
   10.9310   -1.0980   21.5520 C   0  0  0  0  0  0  0  0  0  0  0  0
   12.1480   -2.3290   22.8370 C   0  0  0  0  0  0  0  0  0  0  0  0
    5.3650   -1.1750   19.4850 C   0  0  0  0  0  0  0  0  0  0  0  0
    6.1660    1.4550   18.6060 C   0  0  0  0  0  0  0  0  0  0  0  0
   12.2630   -1.1550   22.0250 C   0  0  0  0  0  0  0  0  0  0  0  0
    4.0600   -0.3660   18.6120 C   0  0  0  0  0  0  0  0  0  0  0  0
    4.6300    1.7990   17.8300 N   0  0  0  0  0  0  0  0  0  0  0  0
    3.6040    0.8770   17.8790 C   0  0  0  0  0  0  0  0  0  0  0  0
  1  2  1  0
  2  3  2  0
  2  4  1  0
  4  5  2  0
  4  6  1  0
  5  7  1  0
  6  8  2  0
  7  9  2  0
  8  9  1  0
  8 10  1  0
 10 11  2  0
 10 12  1  0
 11 13  1  0
 12 14  2  0
 12 15  1  0
 13 16  1  0
 13 17  2  0
 14 17  1  0
 14 18  1  0
 15 19  2  0
 16 20  2  0
 16 21  1  0
 18 22  2  0
 19 22  1  0
 20 23  1  0
 21 24  2  0
 23 25  2  0
 24 25  1  0
M  END
