WAR-XCH-b6889685-54
     RDKit          3D

 20 21  0  0  0  0  0  0  0  0999 V2000
   12.2490   -2.6250   20.8860 C   0  0  0  0  0  0  0  0  0  0  0  0
   10.9480   -2.2350   21.6640 C   0  0  0  0  0  0  0  0  0  0  0  0
   11.0730   -2.5510   23.0710 N   0  0  0  0  0  0  0  0  0  0  0  0
   10.2340   -1.6760   23.8890 C   0  0  0  0  0  0  0  0  0  0  0  0
   12.4950   -2.5610   23.3270 C   0  0  0  0  0  0  0  0  0  0  0  0
   12.9310   -1.7150   22.1040 C   0  0  0  0  0  0  0  0  0  0  0  0
   12.9460   -2.0300   24.6750 C   0  0  0  0  0  0  0  0  0  0  0  0
   13.3350   -0.5150   22.8630 C   0  0  0  0  0  0  0  0  0  0  0  0
   12.3850   -0.7930   24.9170 C   0  0  0  0  0  0  0  0  0  0  0  0
   12.3290   -0.1330   23.6100 N   0  0  0  0  0  0  0  0  0  0  0  0
   11.8740    1.2060   23.5480 C   0  0  0  0  0  0  0  0  0  0  0  0
   10.4750    1.3930   24.0850 C   0  0  0  0  0  0  0  0  0  0  0  0
   12.6130    2.3030   23.0500 C   0  0  0  0  0  0  0  0  0  0  0  0
    9.9250    2.7660   24.0840 C   0  0  0  0  0  0  0  0  0  0  0  0
   12.0780    3.6030   23.0620 C   0  0  0  0  0  0  0  0  0  0  0  0
   10.7930    3.8870   23.5610 C   0  0  0  0  0  0  0  0  0  0  0  0
   10.1620    5.5400   23.6130 S   0  0  0  0  0  0  0  0  0  0  0  0
    8.7740    5.4590   22.6280 N   0  0  0  0  0  0  0  0  0  0  0  0
    9.7200    5.7840   24.9710 O   0  0  0  0  0  0  0  0  0  0  0  0
   11.1360    6.3950   22.9760 O   0  0  0  0  0  0  0  0  0  0  0  0
  1  2  1  0
  2  3  1  0
  3  4  1  0
  3  5  1  0
  5  6  1  0
  5  7  1  0
  6  8  1  0
  7  9  1  0
  8 10  1  0
  9 10  1  0
 10 11  1  0
 11 12  2  0
 11 13  1  0
 12 14  1  0
 13 15  2  0
 14 16  2  0
 15 16  1  0
 16 17  1  0
 17 18  1  0
 17 19  2  0
 17 20  2  0
M  END
