WAR-XCH-bdd24732-6
     RDKit          3D

 24 26  0  0  0  0  0  0  0  0999 V2000
    6.7050   -6.6270   29.0470 C   0  0  0  0  0  0  0  0  0  0  0  0
    8.0070   -6.2610   28.5600 O   0  0  0  0  0  0  0  0  0  0  0  0
    7.7960   -5.2340   27.6940 C   0  0  0  0  0  0  0  0  0  0  0  0
    8.6810   -5.0280   26.6030 C   0  0  0  0  0  0  0  0  0  0  0  0
    6.7190   -4.3740   27.8460 C   0  0  0  0  0  0  0  0  0  0  0  0
    8.5710   -4.0040   25.6170 C   0  0  0  0  0  0  0  0  0  0  0  0
    6.4850   -3.2340   26.8510 C   0  0  0  0  0  0  0  0  0  0  0  0
    7.4870   -3.0850   25.6890 C   0  0  0  0  0  0  0  0  0  0  0  0
    7.4350   -2.0570   24.5910 N   0  0  0  0  0  0  0  0  0  0  0  0
    8.2210   -0.9100   24.5930 C   0  0  0  0  0  0  0  0  0  0  0  0
    7.3650   -2.6590   23.2900 C   0  0  2  0  0  0  0  0  0  0  0  0
    7.8510    0.4600   25.0700 C   0  0  0  0  0  0  0  0  0  0  0  0
    9.4980   -1.1360   24.0350 C   0  0  0  0  0  0  0  0  0  0  0  0
    8.5460   -2.6490   22.5450 C   0  0  0  0  0  0  0  0  0  0  0  0
    6.2830   -2.1370   22.4790 C   0  0  0  0  0  0  0  0  0  0  0  0
    8.8470    1.5070   24.9170 C   0  0  0  0  0  0  0  0  0  0  0  0
   10.4610   -0.1190   23.8920 C   0  0  0  0  0  0  0  0  0  0  0  0
    8.3360   -2.7080   21.1730 C   0  0  0  0  0  0  0  0  0  0  0  0
    6.1690   -2.6760   21.1950 C   0  0  0  0  0  0  0  0  0  0  0  0
   10.1420    1.1790   24.3190 C   0  0  0  0  0  0  0  0  0  0  0  0
    7.2110   -3.4320   20.8830 C   0  0  2  0  0  0  0  0  0  0  0  0
   10.9430    2.0970   24.2050 O   0  0  0  0  0  0  0  0  0  0  0  0
    7.2340   -4.5220   21.4640 O   0  0  0  0  0  0  0  0  0  0  0  0
   12.0390    1.8350   23.3180 C   0  0  0  0  0  0  0  0  0  0  0  0
  1  2  1  0
  2  3  1  0
  3  4  2  0
  3  5  1  0
  4  6  1  0
  5  7  2  0
  6  8  2  0
  7  8  1  0
  8  9  1  0
  9 10  1  0
 11  9  1  1
 10 12  2  0
 10 13  1  0
 11 14  1  0
 11 15  1  0
 12 16  1  0
 13 17  2  0
 14 18  1  0
 15 19  1  0
 16 20  2  0
 17 20  1  0
 18 21  1  0
 19 21  1  0
 20 22  1  0
 21 23  1  1
 22 24  1  0
M  END
