WAR-XCH-b6889685-58
     RDKit          3D

 25 27  0  0  0  0  0  0  0  0999 V2000
    4.3720    2.0030   20.8030 C   0  0  0  0  0  0  0  0  0  0  0  0
    5.3710    0.9430   20.2800 C   0  0  0  0  0  0  0  0  0  0  0  0
    5.3360    0.2300   18.9070 C   0  0  0  0  0  0  0  0  0  0  0  0
    6.4060    0.6340   21.1940 C   0  0  0  0  0  0  0  0  0  0  0  0
    6.4620   -0.8050   18.6360 C   0  0  0  0  0  0  0  0  0  0  0  0
    7.5910   -0.3560   21.0430 C   0  0  0  0  0  0  0  0  0  0  0  0
    7.5800   -1.0850   19.7150 C   0  0  0  0  0  0  0  0  0  0  0  0
    8.6270   -0.5180   22.1140 N   0  0  0  0  0  0  0  0  0  0  0  0
    9.2990    0.7410   22.1880 C   0  0  0  0  0  0  0  0  0  0  0  0
    9.6880   -1.6440   22.5140 C   0  0  0  0  0  0  0  0  0  0  0  0
   10.9680   -1.5740   21.6630 C   0  0  0  0  0  0  0  0  0  0  0  0
   10.0530   -1.6970   23.9180 C   0  0  0  0  0  0  0  0  0  0  0  0
   12.3520   -1.2070   22.3340 C   0  0  0  0  0  0  0  0  0  0  0  0
   11.4850   -1.3470   24.4370 C   0  0  0  0  0  0  0  0  0  0  0  0
   12.1770   -0.4850   23.4860 N   0  0  0  0  0  0  0  0  0  0  0  0
   11.7490    0.9140   23.5510 C   0  0  0  0  0  0  0  0  0  0  0  0
   12.6180    1.8730   22.9720 C   0  0  0  0  0  0  0  0  0  0  0  0
   10.5440    1.2670   24.1480 C   0  0  0  0  0  0  0  0  0  0  0  0
   12.2740    3.2500   22.9730 C   0  0  0  0  0  0  0  0  0  0  0  0
   10.1180    2.7070   24.1860 C   0  0  0  0  0  0  0  0  0  0  0  0
   10.9590    3.6350   23.6200 C   0  0  0  0  0  0  0  0  0  0  0  0
   10.4300    5.3510   23.6820 S   0  0  0  0  0  0  0  0  0  0  0  0
    9.0310    5.3730   22.7000 N   0  0  0  0  0  0  0  0  0  0  0  0
    9.9690    5.6530   25.0170 O   0  0  0  0  0  0  0  0  0  0  0  0
   11.4210    6.1770   23.0320 O   0  0  0  0  0  0  0  0  0  0  0  0
  1  2  1  0
  2  3  2  0
  2  4  1  0
  3  5  1  0
  4  6  2  0
  5  7  2  0
  6  7  1  0
  6  8  1  0
  8  9  1  0
  8 10  1  0
 10 11  1  0
 10 12  1  0
 11 13  1  0
 12 14  1  0
 13 15  1  0
 14 15  1  0
 15 16  1  0
 16 17  2  0
 16 18  1  0
 17 19  1  0
 18 20  2  0
 19 21  2  0
 20 21  1  0
 21 22  1  0
 22 23  1  0
 22 24  2  0
 22 25  2  0
M  END
