WAR-XCH-b0339bbe-14-acrylamide
     RDKit          3D

 26 28  0  0  0  0  0  0  0  0999 V2000
    6.2080   -4.5910   20.0470 C   0  0  0  0  0  0  0  0  0  0  0  0
    6.4110   -3.1710   19.4260 C   0  0  0  0  0  0  0  0  0  0  0  0
    5.0530   -2.5280   19.5670 C   0  0  0  0  0  0  0  0  0  0  0  0
    4.7820   -3.7320   19.4150 O   0  0  0  0  0  0  0  0  0  0  0  0
    5.7620   -1.2160   19.7210 C   0  0  0  0  0  0  0  0  0  0  0  0
    5.1600   -0.0630   19.1500 C   0  0  0  0  0  0  0  0  0  0  0  0
    6.9870   -1.0530   20.4180 C   0  0  0  0  0  0  0  0  0  0  0  0
    5.7200    1.2190   19.2550 C   0  0  0  0  0  0  0  0  0  0  0  0
    7.5600    0.2020   20.5440 C   0  0  0  0  0  0  0  0  0  0  0  0
    7.8320   -2.1390   21.1140 C   0  0  0  0  0  0  0  0  0  0  0  0
    7.0040    1.3500   20.0110 C   0  0  0  0  0  0  0  0  0  0  0  0
    7.0920   -3.0230   21.9260 N   0  0  0  0  0  0  0  0  0  0  0  0
    6.8090   -2.7880   23.3460 C   0  0  0  0  0  0  0  0  0  0  0  0
    7.9720   -3.4190   24.1630 C   0  0  0  0  0  0  0  0  0  0  0  0
    6.7990   -1.2580   23.5800 C   0  0  0  0  0  0  0  0  0  0  0  0
    5.4070   -3.3430   23.6980 C   0  0  0  0  0  0  0  0  0  0  0  0
    7.9620   -4.7970   24.3560 C   0  0  0  0  0  0  0  0  0  0  0  0
    5.6050   -0.7880   24.4330 C   0  0  0  0  0  0  0  0  0  0  0  0
    5.0940   -3.1300   25.0270 C   0  0  0  0  0  0  0  0  0  0  0  0
    6.7020   -5.3120   24.5810 C   0  0  0  0  0  0  0  0  0  0  0  0
    5.2880   -1.8410   25.5000 C   0  0  0  0  0  0  0  0  0  0  0  0
    6.6980   -5.7630   23.2210 C   0  0  0  0  0  0  0  0  0  0  0  0
    5.5790   -5.9490   24.2220 C   0  0  0  0  0  0  0  0  0  0  0  0
    5.5860   -6.4720   22.6180 C   0  0  0  0  0  0  0  0  0  0  0  0
    4.3260   -6.3460   24.7840 N   0  0  0  0  0  0  0  0  0  0  0  0
    4.3070   -6.7970   23.4180 C   0  0  0  0  0  0  0  0  0  0  0  0
  1  2  1  0
  2  3  1  0
  3  4  2  0
  3  5  1  0
  5  6  2  0
  5  7  1  0
  6  8  1  0
  7  9  2  0
  7 10  1  0
  8 11  2  0
  9 11  1  0
 10 12  1  0
 12 13  1  0
 13 14  1  0
 13 15  1  0
 13 16  1  0
 14 17  3  0
 15 18  1  0
 16 19  1  0
 17 20  1  0
 18 21  1  0
 19 21  1  0
 20 22  2  0
 20 23  1  0
 22 24  1  0
 23 25  2  0
 24 26  2  0
 25 26  1  0
M  END
