WAR-XCH-e55cba98-12
     RDKit          3D

 23 25  0  0  0  0  0  0  0  0999 V2000
   13.7610   -1.4130   20.6370 N   0  0  0  0  0  0  0  0  0  0  0  0
   12.8860   -2.5620   21.4450 S   0  0  0  0  0  0  0  0  0  0  0  0
   13.6910   -3.4760   22.1570 O   0  0  0  0  0  0  0  0  0  0  0  0
   11.8550   -2.9940   20.5690 O   0  0  0  0  0  0  0  0  0  0  0  0
   12.2220   -1.5840   22.6740 C   0  0  0  0  0  0  0  0  0  0  0  0
   12.9940   -1.4380   23.9010 C   0  0  0  0  0  0  0  0  0  0  0  0
   10.9990   -0.9990   22.4120 C   0  0  0  0  0  0  0  0  0  0  0  0
   12.3070   -0.5600   24.9090 C   0  0  0  0  0  0  0  0  0  0  0  0
   10.3320   -0.1760   23.3210 C   0  0  0  0  0  0  0  0  0  0  0  0
   10.9540    0.0450   24.5510 C   0  0  0  0  0  0  0  0  0  0  0  0
    9.0580    0.3550   22.8820 C   0  0  0  0  0  0  0  0  0  0  0  0
    8.4750   -0.0830   21.6250 C   0  0  0  0  0  0  0  0  0  0  0  0
    9.1290    1.7870   22.8330 C   0  0  0  0  0  0  0  0  0  0  0  0
    8.1070    0.1470   23.9130 C   0  0  0  0  0  0  0  0  0  0  0  0
    7.2640   -0.7880   21.3630 C   0  0  0  0  0  0  0  0  0  0  0  0
    8.9830    2.2470   24.3030 C   0  0  0  0  0  0  0  0  0  0  0  0
    8.1690    1.1310   24.8790 C   0  0  0  0  0  0  0  0  0  0  0  0
    6.5750   -0.1140   20.3800 C   0  0  0  0  0  0  0  0  0  0  0  0
    5.2130    0.1890   20.5260 C   0  0  0  0  0  0  0  0  0  0  0  0
    7.2860    0.2890   19.1690 N   0  0  0  0  0  0  0  0  0  0  0  0
    4.4510    0.9190   19.4690 C   0  0  0  0  0  0  0  0  0  0  0  0
    6.6370    1.0110   18.0840 C   0  0  0  0  0  0  0  0  0  0  0  0
    5.1680    1.3510   18.2050 C   0  0  0  0  0  0  0  0  0  0  0  0
  2  1  1  0
  2  3  2  0
  2  4  2  0
  2  5  1  0
  5  6  2  0
  5  7  1  0
  6  8  1  0
  7  9  2  0
  8 10  2  0
  9 10  1  0
  9 11  1  0
 11 12  1  0
 11 13  1  0
 11 14  1  0
 12 15  3  0
 13 16  1  0
 14 17  1  0
 16 17  1  0
 15 18  1  0
 18 19  2  0
 18 20  1  0
 19 21  1  0
 20 22  2  0
 21 23  2  0
 22 23  1  0
M  END
