WAR-XCH-b0339bbe-13-bromoalkyne
     RDKit          3D

 24 26  0  0  0  0  0  0  0  0999 V2000
    6.7100   -3.4420   19.0390 C   0  0  0  0  0  0  0  0  0  0  0  0
    5.4550   -3.9660   19.6600 C   0  0  0  0  0  0  0  0  0  0  0  0
    6.7830   -1.9680   19.2010 C   0  0  0  0  0  0  0  0  0  0  0  0
    6.2690   -1.0310   18.2940 C   0  0  0  0  0  0  0  0  0  0  0  0
    7.3790   -1.4940   20.3420 C   0  0  0  0  0  0  0  0  0  0  0  0
    6.3550    0.3610   18.5210 C   0  0  0  0  0  0  0  0  0  0  0  0
    7.4730   -0.1260   20.5800 C   0  0  0  0  0  0  0  0  0  0  0  0
    7.8850   -2.4170   21.2910 C   0  0  0  0  0  0  0  0  0  0  0  0
    6.9710    0.7900   19.6850 C   0  0  0  0  0  0  0  0  0  0  0  0
    7.8180   -2.0510   22.6220 N   0  0  0  0  0  0  0  0  0  0  0  0
    6.6410   -2.4390   23.4280 C   0  0  0  0  0  0  0  0  0  0  0  0
    7.0760   -2.8750   24.8420 C   0  0  0  0  0  0  0  0  0  0  0  0
    5.5700   -1.3540   23.5550 C   0  0  0  0  0  0  0  0  0  0  0  0
    5.9260   -3.6180   22.6900 C   0  0  0  0  0  0  0  0  0  0  0  0
    7.4560   -4.3380   25.1270 C   0  0  0  0  0  0  0  0  0  0  0  0
    4.5460   -1.7960   24.5660 C   0  0  0  0  0  0  0  0  0  0  0  0
    4.5770   -3.7330   23.0210 C   0  0  0  0  0  0  0  0  0  0  0  0
    6.9170   -5.0580   24.1370 C   0  0  0  0  0  0  0  0  0  0  0  0
    4.1690   -3.2770   24.4280 C   0  0  0  0  0  0  0  0  0  0  0  0
    7.6750   -5.2810   22.9930 C   0  0  0  0  0  0  0  0  0  0  0  0
    5.5450   -5.5760   24.2370 N   0  0  0  0  0  0  0  0  0  0  0  0
    7.1320   -5.9730   21.9370 C   0  0  0  0  0  0  0  0  0  0  0  0
    5.0560   -6.2830   23.0610 C   0  0  0  0  0  0  0  0  0  0  0  0
    5.8500   -6.4500   21.9600 C   0  0  0  0  0  0  0  0  0  0  0  0
  1  2  2  3
  1  3  1  0
  3  4  2  0
  3  5  1  0
  4  6  1  0
  5  7  2  0
  5  8  1  0
  6  9  2  0
  7  9  1  0
  8 10  1  0
 10 11  1  0
 11 12  1  0
 11 13  1  0
 11 14  1  0
 12 15  3  0
 13 16  1  0
 14 17  1  0
 15 18  1  0
 16 19  1  0
 17 19  1  0
 18 20  2  0
 18 21  1  0
 20 22  1  0
 21 23  2  0
 22 24  2  0
 23 24  1  0
M  END
