WAR-XCH-bdd24732-25-chloroacetamide
     RDKit          3D

 27 30  0  0  0  0  0  0  0  0999 V2000
    7.3910   -3.4850   19.4190 C   0  0  0  0  0  0  0  0  0  0  0  0
    6.1160   -3.1150   19.9700 C   0  0  0  0  0  0  0  0  0  0  0  0
    5.1230   -3.5760   19.3920 O   0  0  0  0  0  0  0  0  0  0  0  0
    6.1160   -2.3790   21.1320 N   0  0  0  0  0  0  0  0  0  0  0  0
    5.1980   -2.9450   22.1280 C   0  0  0  0  0  0  0  0  0  0  0  0
    7.3870   -1.9380   21.7120 C   0  0  0  0  0  0  0  0  0  0  0  0
    5.8670   -4.0080   22.7100 C   0  0  0  0  0  0  0  0  0  0  0  0
    7.3680   -1.6040   23.0750 C   0  0  0  0  0  0  0  0  0  0  0  0
    6.3210   -3.6990   23.9610 C   0  0  0  0  0  0  0  0  0  0  0  0
    7.4650   -2.7710   23.9960 N   0  0  0  0  0  0  0  0  0  0  0  0
    7.6280   -2.3530   25.4040 C   0  0  0  0  0  0  0  0  0  0  0  0
    7.7230   -3.4490   26.3040 C   0  0  0  0  0  0  0  0  0  0  0  0
    6.8090   -3.4810   27.3570 C   0  0  0  0  0  0  0  0  0  0  0  0
    8.6710   -4.5400   26.2350 C   0  0  0  0  0  0  0  0  0  0  0  0
    6.8580   -4.6350   28.3440 C   0  0  0  0  0  0  0  0  0  0  0  0
    8.6120   -5.5440   27.2180 C   0  0  0  0  0  0  0  0  0  0  0  0
    9.6390   -4.6370   25.2270 N   0  0  0  0  0  0  0  0  0  0  0  0
    7.7420   -5.6230   28.2530 N   0  0  0  0  0  0  0  0  0  0  0  0
   10.3420   -3.6840   24.6550 C   0  0  0  0  0  0  0  0  0  0  0  0
   11.5470   -3.0990   24.9740 C   0  0  0  0  0  0  0  0  0  0  0  0
    9.6800   -2.9810   23.2230 S   0  0  0  0  0  0  0  0  0  0  0  0
   11.8900   -2.1170   24.0950 C   0  0  0  0  0  0  0  0  0  0  0  0
   10.9870   -1.9460   23.1150 C   0  0  0  0  0  0  0  0  0  0  0  0
   11.2160   -0.9800   22.1870 C   0  0  0  0  0  0  0  0  0  0  0  0
   13.0910   -1.2640   24.1120 C   0  0  0  0  0  0  0  0  0  0  0  0
   11.6250    0.3040   22.8510 C   0  0  0  0  0  0  0  0  0  0  0  0
   12.8010    0.0750   23.7920 C   0  0  0  0  0  0  0  0  0  0  0  0
  1  2  1  0
  2  3  2  0
  2  4  1  0
  4  5  1  0
  4  6  1  0
  5  7  1  0
  6  8  1  0
  7  9  1  0
  8 10  1  0
  9 10  1  0
 10 11  1  0
 11 12  1  0
 12 13  2  0
 12 14  1  0
 13 15  1  0
 14 16  2  0
 14 17  1  0
 15 18  2  0
 16 18  1  0
 17 19  1  0
 19 20  2  0
 19 21  1  0
 20 22  1  0
 21 23  1  0
 22 23  2  0
 23 24  1  0
 22 25  1  0
 24 26  1  0
 25 27  1  0
 26 27  1  0
M  END
