WAR-XCH-e55cba98-1
     RDKit          3D

 26 29  0  0  0  0  0  0  0  0999 V2000
    9.8780    8.4150   24.9150 C   0  0  0  0  0  0  0  0  0  0  0  0
    9.8740    7.0800   24.2990 C   0  0  0  0  0  0  0  0  0  0  0  0
    8.8150    6.6900   23.4580 N   0  0  0  0  0  0  0  0  0  0  0  0
   11.1200    5.9080   24.5500 S   0  0  0  0  0  0  0  0  0  0  0  0
    9.0430    5.3310   23.0040 C   0  0  0  0  0  0  0  0  0  0  0  0
   10.3210    4.7150   23.5430 C   0  0  0  0  0  0  0  0  0  0  0  0
   10.6790    3.2570   23.1580 C   0  0  0  0  0  0  0  0  0  0  0  0
    9.8870    2.7720   22.0160 N   0  0  0  0  0  0  0  0  0  0  0  0
   12.0380    3.0580   22.7780 C   0  0  0  0  0  0  0  0  0  0  0  0
   10.5430    2.2470   24.0860 C   0  0  0  0  0  0  0  0  0  0  0  0
    8.8710    1.7740   22.2030 C   0  0  0  0  0  0  0  0  0  0  0  0
   12.6010    1.7290   22.7890 C   0  0  0  0  0  0  0  0  0  0  0  0
   10.7460    0.8030   23.9180 C   0  0  0  0  0  0  0  0  0  0  0  0
    9.4090    0.4010   22.0330 C   0  0  0  0  0  0  0  0  0  0  0  0
    8.1500    1.8990   23.4490 C   0  0  0  0  0  0  0  0  0  0  0  0
    7.8810    2.0730   21.2410 C   0  0  0  0  0  0  0  0  0  0  0  0
   12.2090    0.7040   23.6530 C   0  0  0  0  0  0  0  0  0  0  0  0
    9.2730   -0.8380   22.7820 C   0  0  0  0  0  0  0  0  0  0  0  0
    6.6530    1.6010   23.1430 C   0  0  0  0  0  0  0  0  0  0  0  0
    6.5930    1.8280   21.6690 C   0  0  0  0  0  0  0  0  0  0  0  0
   10.5360   -1.4050   22.9570 C   0  0  0  0  0  0  0  0  0  0  0  0
   11.3860   -1.6950   21.8880 C   0  0  0  0  0  0  0  0  0  0  0  0
   10.9700   -1.6960   24.3460 N   0  0  0  0  0  0  0  0  0  0  0  0
   12.7410   -2.2880   22.0580 C   0  0  0  0  0  0  0  0  0  0  0  0
   12.2160   -2.2470   24.5800 C   0  0  0  0  0  0  0  0  0  0  0  0
   13.2060   -2.5880   23.4760 C   0  0  0  0  0  0  0  0  0  0  0  0
  1  2  1  0
  2  3  2  0
  2  4  1  0
  3  5  1  0
  4  6  1  0
  5  6  2  0
  6  7  1  0
  7  8  1  0
  7  9  1  0
  7 10  1  0
  8 11  1  0
  9 12  1  0
 10 13  1  0
 11 14  1  0
 11 15  1  0
 11 16  1  0
 12 17  1  0
 13 17  1  0
 14 18  3  0
 15 19  1  0
 16 20  1  0
 19 20  1  0
 18 21  1  0
 21 22  2  0
 21 23  1  0
 22 24  1  0
 23 25  2  0
 24 26  2  0
 25 26  1  0
M  END
