WAR-XCH-72a8c209-1-vinylsulfonamide
     RDKit          3D

 28 30  0  0  0  0  0  0  0  0999 V2000
    6.1940   -5.5970   20.5110 C   0  0  0  0  0  0  0  0  0  0  0  0
    6.3230   -5.8940   21.8930 C   0  0  0  0  0  0  0  0  0  0  0  0
    4.7980   -5.8930   22.9680 S   0  0  0  0  0  0  0  0  0  0  0  0
    3.5710   -5.7910   22.2170 O   0  0  0  0  0  0  0  0  0  0  0  0
    4.9800   -6.6140   24.2070 O   0  0  0  0  0  0  0  0  0  0  0  0
    5.0460   -4.2430   23.2100 C   0  0  0  0  0  0  0  0  0  0  0  0
    4.9940   -3.1890   24.1300 C   0  0  0  0  0  0  0  0  0  0  0  0
    5.4280   -4.0490   21.9940 C   0  0  0  0  0  0  0  0  0  0  0  0
    5.4500   -1.9270   23.5240 C   0  0  0  0  0  0  0  0  0  0  0  0
    5.8170   -2.9790   21.4670 N   0  0  0  0  0  0  0  0  0  0  0  0
    5.8530   -1.9240   22.1970 C   0  0  0  0  0  0  0  0  0  0  0  0
    6.3540   -1.0490   21.3050 N   0  0  0  0  0  0  0  0  0  0  0  0
    7.3340   -1.6010   20.5220 C   0  0  0  0  0  0  0  0  0  0  0  0
    7.1880   -1.7110   19.2960 O   0  0  0  0  0  0  0  0  0  0  0  0
    8.3890   -2.0390   21.3010 C   0  0  0  0  0  0  0  0  0  0  0  0
    8.8680   -1.2480   22.3670 C   0  0  0  0  0  0  0  0  0  0  0  0
   10.2070   -0.8570   22.4710 C   0  0  0  0  0  0  0  0  0  0  0  0
    8.4300   -2.0390   23.6460 C   0  0  0  0  0  0  0  0  0  0  0  0
    8.1090    0.1420   22.3000 C   0  0  0  0  0  0  0  0  0  0  0  0
   11.3280   -1.8720   22.4140 C   0  0  0  0  0  0  0  0  0  0  0  0
   10.5870    0.4830   22.6400 C   0  0  0  0  0  0  0  0  0  0  0  0
    8.4630   -1.2700   24.8030 C   0  0  0  0  0  0  0  0  0  0  0  0
    7.4760    0.5940   23.6130 C   0  0  0  0  0  0  0  0  0  0  0  0
   12.7570   -1.3810   22.5410 C   0  0  0  0  0  0  0  0  0  0  0  0
   11.9190    0.8860   22.7490 C   0  0  0  0  0  0  0  0  0  0  0  0
    8.2910    0.2250   24.6890 C   0  0  0  0  0  0  0  0  0  0  0  0
   12.9830   -0.0100   22.7040 C   0  0  0  0  0  0  0  0  0  0  0  0
   12.2190    2.5650   22.9290 Cl  0  0  0  0  0  0  0  0  0  0  0  0
  1  2  1  0
  3  2  1  0
  3  4  2  0
  3  5  2  0
  3  6  1  0
  6  7  2  0
  6  8  1  0
  7  9  1  0
  8 10  2  0
  9 11  2  0
 10 11  1  0
 11 12  1  0
 12 13  1  0
 13 14  2  0
 13 15  1  0
 16 15  1  0
 16 17  1  0
 16 18  1  0
 16 19  1  0
 17 20  2  0
 17 21  1  0
 18 22  1  0
 19 23  1  0
 20 24  1  0
 21 25  2  0
 22 26  1  0
 23 26  1  0
 24 27  2  0
 25 27  1  0
 25 28  1  0
M  END
