WAR-XCH-79d12f6e-9-chloroacetamide
     RDKit          3D

 21 23  0  0  0  0  0  0  0  0999 V2000
    7.1880   -3.3130   19.6400 C   0  0  0  0  0  0  0  0  0  0  0  0
    6.3740   -4.1520   20.2880 C   0  0  0  0  0  0  0  0  0  0  0  0
    5.2700   -4.4180   19.8480 O   0  0  0  0  0  0  0  0  0  0  0  0
    6.7820   -4.7610   21.4720 N   0  0  0  0  0  0  0  0  0  0  0  0
    6.0960   -5.9990   21.8410 C   0  0  0  0  0  0  0  0  0  0  0  0
    7.4120   -4.0610   22.5860 C   0  0  0  0  0  0  0  0  0  0  0  0
    5.0350   -5.6900   22.9020 C   0  0  0  0  0  0  0  0  0  0  0  0
    6.4900   -3.6780   23.5730 C   0  0  0  0  0  0  0  0  0  0  0  0
    5.3400   -4.6110   23.8620 N   0  0  0  0  0  0  0  0  0  0  0  0
    5.2820   -5.0620   25.2570 C   0  0  0  0  0  0  0  0  0  0  0  0
    6.6820   -5.4560   25.4720 C   0  0  0  0  0  0  0  0  0  0  0  0
    4.3150   -6.0320   25.6230 C   0  0  0  0  0  0  0  0  0  0  0  0
    4.8580   -3.9150   26.0150 C   0  0  0  0  0  0  0  0  0  0  0  0
    7.4750   -5.5440   24.3520 C   0  0  0  0  0  0  0  0  0  0  0  0
    7.2840   -5.7790   27.0470 S   0  0  0  0  0  0  0  0  0  0  0  0
    4.5730   -6.5840   26.8950 C   0  0  0  0  0  0  0  0  0  0  0  0
    4.6480   -4.0810   27.5450 C   0  0  0  0  0  0  0  0  0  0  0  0
    8.7680   -5.8970   24.5820 N   0  0  0  0  0  0  0  0  0  0  0  0
    8.7330   -6.0440   26.0520 C   0  0  0  0  0  0  0  0  0  0  0  0
    4.5600   -5.5460   28.0440 C   0  0  0  0  0  0  0  0  0  0  0  0
    9.8520   -6.3880   26.5870 C   0  0  0  0  0  0  0  0  0  0  0  0
  1  2  1  0
  2  3  2  0
  2  4  1  0
  4  5  1  0
  4  6  1  0
  5  7  1  0
  6  8  1  0
  7  9  1  0
  8  9  1  0
  9 10  1  0
 10 11  1  0
 10 12  1  0
 10 13  1  0
 11 14  2  0
 11 15  1  0
 12 16  1  0
 13 17  1  0
 14 18  1  0
 15 19  1  0
 18 19  2  0
 16 20  1  0
 17 20  1  0
 19 21  1  0
M  END
