WAR-XCH-6eb0722e-6
     RDKit          3D

 25 26  0  0  0  0  0  0  0  0999 V2000
   13.2690   -1.9600   21.3900 C   0  0  0  0  0  0  0  0  0  0  0  0
   12.2970   -1.2000   22.1780 C   0  0  0  0  0  0  0  0  0  0  0  0
   12.8300   -0.1490   23.1350 C   0  0  0  0  0  0  0  0  0  0  0  0
   10.9750   -1.4470   22.0290 C   0  0  0  0  0  0  0  0  0  0  0  0
   11.7940    0.6100   23.9390 C   0  0  0  0  0  0  0  0  0  0  0  0
   10.0310   -0.7660   22.7420 C   0  0  0  0  0  0  0  0  0  0  0  0
   10.3590    0.2290   23.6910 C   0  0  0  0  0  0  0  0  0  0  0  0
    8.6990   -1.0600   22.4940 N   0  0  0  0  0  0  0  0  0  0  0  0
    9.2870    0.8040   24.3450 C   0  0  0  0  0  0  0  0  0  0  0  0
    8.1210   -0.2670   21.5280 C   0  0  0  0  0  0  0  0  0  0  0  0
    8.9960    0.2170   25.5910 C   0  0  0  0  0  0  0  0  0  0  0  0
    8.5590    0.8410   21.2370 O   0  0  0  0  0  0  0  0  0  0  0  0
    7.0180   -0.8160   20.9180 N   0  0  0  0  0  0  0  0  0  0  0  0
    8.2150    0.9250   26.5300 C   0  0  0  0  0  0  0  0  0  0  0  0
    6.3410   -0.0510   19.9590 C   0  0  0  0  0  0  0  0  0  0  0  0
    7.0980    0.0670   26.9860 N   0  0  0  0  0  0  0  0  0  0  0  0
    5.1000    0.4980   20.2900 C   0  0  0  0  0  0  0  0  0  0  0  0
    6.8400    0.2110   18.6930 C   0  0  0  0  0  0  0  0  0  0  0  0
    7.0570   -0.3940   28.5980 S   0  0  0  0  0  0  0  0  0  0  0  0
    4.4250    1.2800   19.3510 C   0  0  0  0  0  0  0  0  0  0  0  0
    6.2090    0.9730   17.7750 N   0  0  0  0  0  0  0  0  0  0  0  0
    8.7620   -0.2630   29.0920 C   0  0  0  0  0  0  0  0  0  0  0  0
    6.2970    0.6070   29.3090 O   0  0  0  0  0  0  0  0  0  0  0  0
    6.6670   -1.7850   28.6400 O   0  0  0  0  0  0  0  0  0  0  0  0
    5.0360    1.4750   18.1300 C   0  0  0  0  0  0  0  0  0  0  0  0
  1  2  1  0
  2  3  2  0
  2  4  1  0
  3  5  1  0
  4  6  2  0
  5  7  2  0
  6  7  1  0
  6  8  1  0
  7  9  1  0
  8 10  1  0
  9 11  1  0
 10 12  2  0
 10 13  1  0
 11 14  1  0
 13 15  1  0
 14 16  1  0
 15 17  2  0
 15 18  1  0
 19 16  1  0
 17 20  1  0
 18 21  2  0
 19 22  1  0
 19 23  2  0
 19 24  2  0
 20 25  2  0
 21 25  1  0
M  END
