WAR-XCH-b0339bbe-3-chloroacetamide
     RDKit          3D

 20 22  0  0  0  0  0  0  0  0999 V2000
    7.0270   -3.2880   19.2650 C   0  0  0  0  0  0  0  0  0  0  0  0
    6.3130   -4.1540   20.2920 C   0  0  0  0  0  0  0  0  0  0  0  0
    5.3090   -4.7800   19.9610 O   0  0  0  0  0  0  0  0  0  0  0  0
    6.8640   -4.2590   21.5670 N   0  0  0  0  0  0  0  0  0  0  0  0
    6.4820   -5.2140   22.5450 C   0  0  0  0  0  0  0  0  0  0  0  0
    7.7930   -3.2230   22.0220 C   0  0  0  0  0  0  0  0  0  0  0  0
    6.2890   -4.7660   23.8570 C   0  0  0  0  0  0  0  0  0  0  0  0
    7.3330   -2.6180   23.1530 C   0  0  0  0  0  0  0  0  0  0  0  0
    7.1240   -3.6850   24.2320 C   0  0  0  0  0  0  0  0  0  0  0  0
    6.7810   -2.9300   25.3590 C   0  0  0  0  0  0  0  0  0  0  0  0
    6.5620   -3.7370   26.5710 C   0  0  0  0  0  0  0  0  0  0  0  0
    5.4880   -3.4550   27.3900 N   0  0  0  0  0  0  0  0  0  0  0  0
    7.3280   -4.8120   26.9970 N   0  0  0  0  0  0  0  0  0  0  0  0
    5.5690   -4.4330   28.3420 C   0  0  0  0  0  0  0  0  0  0  0  0
    6.6310   -5.3030   28.2020 C   0  0  0  0  0  0  0  0  0  0  0  0
    4.6900   -4.6550   29.4350 C   0  0  0  0  0  0  0  0  0  0  0  0
    6.8880   -6.4420   29.1290 N   0  0  0  0  0  0  0  0  0  0  0  0
    3.4110   -4.0790   30.0960 C   0  0  0  0  0  0  0  0  0  0  0  0
    4.7240   -5.7050   30.4760 C   0  0  0  0  0  0  0  0  0  0  0  0
    5.9400   -6.6800   30.2880 C   0  0  0  0  0  0  0  0  0  0  0  0
  1  2  1  0
  2  3  2  0
  2  4  1  0
  4  5  1  0
  4  6  1  0
  5  7  1  0
  6  8  1  0
  7  9  1  0
  8  9  1  0
  9 10  1  0
 10 11  1  0
 11 12  2  0
 11 13  1  0
 12 14  1  0
 13 15  1  0
 14 15  2  0
 14 16  1  0
 15 17  1  0
 16 18  1  0
 16 19  2  0
 17 20  2  0
 19 20  1  0
M  END
