WAR-XCH-b6889685-34
     RDKit          3D

 29 32  0  0  0  0  0  0  0  0999 V2000
   17.6630   -7.3400   25.0020 N   0  0  0  0  0  0  0  0  0  0  0  0
   17.2920   -8.8300   25.6570 S   0  0  0  0  0  0  0  0  0  0  0  0
   15.9480   -8.7300   25.3880 O   0  0  0  0  0  0  0  0  0  0  0  0
   17.6150   -8.9840   26.9610 O   0  0  0  0  0  0  0  0  0  0  0  0
   17.8910  -10.2980   24.8590 C   0  0  0  0  0  0  0  0  0  0  0  0
   16.8010  -11.2250   24.6450 C   0  0  0  0  0  0  0  0  0  0  0  0
   19.0710  -10.7820   24.3940 C   0  0  0  0  0  0  0  0  0  0  0  0
   16.5560  -12.5680   24.0240 C   0  0  0  0  0  0  0  0  0  0  0  0
   19.1110  -12.0910   23.7350 C   0  0  0  0  0  0  0  0  0  0  0  0
   17.8650  -12.9700   23.5410 C   0  0  0  0  0  0  0  0  0  0  0  0
   17.8210  -14.2130   22.8950 N   0  0  0  0  0  0  0  0  0  0  0  0
   16.7180  -15.0950   22.6910 C   0  0  0  0  0  0  0  0  0  0  0  0
   18.6210  -13.8820   21.9160 C   0  0  0  0  0  0  0  0  0  0  0  0
   17.0310  -16.4190   21.9040 C   0  0  0  0  0  0  0  0  0  0  0  0
   19.0600  -15.0870   21.2660 C   0  0  0  0  0  0  0  0  0  0  0  0
   18.3850  -16.3550   20.9580 C   0  0  0  0  0  0  0  0  0  0  0  0
   18.4950  -16.9010   19.3100 N   0  0  0  0  0  0  0  0  0  0  0  0
   20.3360  -17.9840   17.5300 C   0  0  0  0  0  0  0  0  0  0  0  0
   20.2750  -19.6630   17.3270 C   0  0  0  0  0  0  0  0  0  0  0  0
   21.5630  -17.8460   16.4520 C   0  0  0  0  0  0  0  0  0  0  0  0
   21.1020  -20.5700   16.4470 C   0  0  0  0  0  0  0  0  0  0  0  0
   22.3040  -18.7720   15.6590 C   0  0  0  0  0  0  0  0  0  0  0  0
   22.0850  -20.1030   15.6470 C   0  0  0  0  0  0  0  0  0  0  0  0
   23.3160  -18.2500   14.8670 C   0  0  0  0  0  0  0  0  0  0  0  0
   23.9660  -16.9280   15.0320 C   0  0  0  0  0  0  0  0  0  0  0  0
   24.0940  -19.0600   13.4520 S   0  0  0  0  0  0  0  0  0  0  0  0
   25.0480  -16.5760   14.0690 C   0  0  0  0  0  0  0  0  0  0  0  0
   25.2000  -17.7690   13.1010 C   0  0  0  0  0  0  0  0  0  0  0  0
   26.4730  -17.8210   11.6690 Br  0  0  0  0  0  0  0  0  0  0  0  0
  2  1  1  0
  2  3  2  0
  2  4  2  0
  2  5  1  0
  5  6  2  0
  5  7  1  0
  6  8  1  0
  7  9  2  0
  8 10  2  0
  9 10  1  0
 10 11  1  0
 11 12  1  0
 11 13  1  0
 12 14  1  0
 13 15  1  0
 14 16  1  0
 15 16  1  0
 16 17  1  0
 17 18  1  0
 18 19  2  0
 18 20  1  0
 19 21  1  0
 20 22  2  0
 21 23  2  0
 22 23  1  0
 22 24  1  0
 24 25  2  0
 24 26  1  0
 25 27  1  0
 26 28  1  0
 27 28  2  0
 28 29  1  0
M  END
