WAR-XCH-b6889685-36
     RDKit          3D

 29 32  0  0  0  0  0  0  0  0999 V2000
   27.1080  -13.3570   26.3680 N   0  0  0  0  0  0  0  0  0  0  0  0
   26.6220  -14.4910   27.5090 S   0  0  0  0  0  0  0  0  0  0  0  0
   27.8410  -15.1060   27.9720 O   0  0  0  0  0  0  0  0  0  0  0  0
   25.6800  -13.8880   28.4150 O   0  0  0  0  0  0  0  0  0  0  0  0
   25.7650  -15.6630   26.4990 C   0  0  0  0  0  0  0  0  0  0  0  0
   24.2330  -15.7230   26.3680 C   0  0  0  0  0  0  0  0  0  0  0  0
   26.4930  -16.5930   25.7820 C   0  0  0  0  0  0  0  0  0  0  0  0
   23.4110  -16.7280   25.5190 C   0  0  0  0  0  0  0  0  0  0  0  0
   25.9210  -17.5750   24.9600 C   0  0  0  0  0  0  0  0  0  0  0  0
   24.3830  -17.7010   24.7840 C   0  0  0  0  0  0  0  0  0  0  0  0
   23.7390  -18.7200   23.9380 N   0  0  0  0  0  0  0  0  0  0  0  0
   24.6120  -19.3280   22.8910 C   0  0  0  0  0  0  0  0  0  0  0  0
   22.7720  -19.6280   24.5860 C   0  0  0  0  0  0  0  0  0  0  0  0
   24.7710  -20.8440   23.1710 C   0  0  0  0  0  0  0  0  0  0  0  0
   22.4370  -20.9270   23.8380 C   0  0  0  0  0  0  0  0  0  0  0  0
   23.3740  -21.1120   22.6630 C   0  0  0  0  0  0  0  0  0  0  0  0
   22.9500  -22.3480   21.9320 N   0  0  0  0  0  0  0  0  0  0  0  0
   23.7080  -22.6100   20.6900 C   0  0  0  0  0  0  0  0  0  0  0  0
   22.9720  -23.4790   19.6640 C   0  0  0  0  0  0  0  0  0  0  0  0
   24.2610  -21.2710   20.0890 C   0  0  0  0  0  0  0  0  0  0  0  0
   24.9580  -23.1620   21.0890 C   0  0  0  0  0  0  0  0  0  0  0  0
   22.5890  -22.9710   18.2800 C   0  0  0  0  0  0  0  0  0  0  0  0
   22.6280  -24.8120   19.9350 C   0  0  0  0  0  0  0  0  0  0  0  0
   25.7560  -21.3250   19.8100 C   0  0  0  0  0  0  0  0  0  0  0  0
   26.2200  -22.6830   20.3530 C   0  0  0  0  0  0  0  0  0  0  0  0
   21.9660  -23.8040   17.3700 C   0  0  0  0  0  0  0  0  0  0  0  0
   21.9980  -25.6160   18.9830 C   0  0  0  0  0  0  0  0  0  0  0  0
   21.6880  -25.1220   17.7310 C   0  0  0  0  0  0  0  0  0  0  0  0
   21.6110  -27.2490   19.3600 Cl  0  0  0  0  0  0  0  0  0  0  0  0
  2  1  1  0
  2  3  2  0
  2  4  2  0
  2  5  1  0
  5  6  2  0
  5  7  1  0
  6  8  1  0
  7  9  2  0
  8 10  2  0
  9 10  1  0
 10 11  1  0
 11 12  1  0
 11 13  1  0
 12 14  1  0
 13 15  1  0
 14 16  1  0
 15 16  1  0
 16 17  1  0
 18 17  1  0
 18 19  1  0
 18 20  1  0
 18 21  1  0
 19 22  2  0
 19 23  1  0
 20 24  1  0
 21 25  1  0
 24 25  1  0
 22 26  1  0
 23 27  2  0
 26 28  2  0
 27 28  1  0
 27 29  1  0
M  END
