WAR-XCH-b6889685-21
     RDKit          3D

 24 26  0  0  0  0  0  0  0  0999 V2000
    8.2250    5.4850   22.2280 N   0  0  0  0  0  0  0  0  0  0  0  0
    9.4580    5.8830   23.2940 S   0  0  0  0  0  0  0  0  0  0  0  0
    8.8160    6.0790   24.5730 O   0  0  0  0  0  0  0  0  0  0  0  0
   10.2740    6.9100   22.6800 O   0  0  0  0  0  0  0  0  0  0  0  0
   10.3980    4.3800   23.3750 C   0  0  0  0  0  0  0  0  0  0  0  0
    9.8160    3.1070   24.0100 C   0  0  0  0  0  0  0  0  0  0  0  0
   11.6900    4.2860   22.8840 C   0  0  0  0  0  0  0  0  0  0  0  0
   10.4820    1.7170   24.2020 C   0  0  0  0  0  0  0  0  0  0  0  0
   12.5150    2.9970   22.9810 C   0  0  0  0  0  0  0  0  0  0  0  0
   11.9460    1.7120   23.6440 C   0  0  0  0  0  0  0  0  0  0  0  0
   12.6690    0.4080   23.8380 N   0  0  0  0  0  0  0  0  0  0  0  0
   12.9480   -0.4070   22.6910 C   0  0  0  0  0  0  0  0  0  0  0  0
   12.2810   -0.4670   24.9610 C   0  0  0  0  0  0  0  0  0  0  0  0
   11.5420   -0.7890   22.2490 C   0  0  0  0  0  0  0  0  0  0  0  0
   10.9310   -0.6410   24.8390 C   0  0  0  0  0  0  0  0  0  0  0  0
   10.9050   -1.3850   23.5350 C   0  0  0  0  0  0  0  0  0  0  0  0
    9.5660   -1.4600   22.8290 C   0  0  0  0  0  0  0  0  0  0  0  0
   10.0420   -1.6540   21.5820 O   0  0  0  0  0  0  0  0  0  0  0  0
   11.3510   -2.3390   21.5690 C   0  0  0  0  0  0  0  0  0  0  0  0
   12.3330   -2.2630   22.6940 C   0  0  0  0  0  0  0  0  0  0  0  0
   12.0820   -3.3990   20.3550 S   0  0  0  0  0  0  0  0  0  0  0  0
   13.4460   -3.0380   22.4620 C   0  0  0  0  0  0  0  0  0  0  0  0
   13.4720   -3.7590   21.2200 C   0  0  0  0  0  0  0  0  0  0  0  0
   14.7780   -5.0250   20.5180 Br  0  0  0  0  0  0  0  0  0  0  0  0
  2  1  1  0
  2  3  2  0
  2  4  2  0
  2  5  1  0
  5  6  2  0
  5  7  1  0
  6  8  1  0
  7  9  2  0
  8 10  2  0
  9 10  1  0
 10 11  1  0
 11 12  1  0
 11 13  1  0
 12 14  1  0
 13 15  1  0
 14 16  1  0
 15 16  1  0
 16 17  1  0
 17 18  1  0
 18 19  1  0
 19 20  2  0
 19 21  1  0
 20 22  1  0
 21 23  1  0
 22 23  2  0
 23 24  1  0
M  END
