WAR-XCH-b6889685-46
     RDKit          3D

 23 25  0  0  0  0  0  0  0  0999 V2000
   19.8200  -30.7060   14.7440 N   0  0  0  0  0  0  0  0  0  0  0  0
   19.6310  -29.2850   13.8610 S   0  0  0  0  0  0  0  0  0  0  0  0
   20.6170  -29.3540   12.8110 O   0  0  0  0  0  0  0  0  0  0  0  0
   18.2180  -29.1180   13.5980 O   0  0  0  0  0  0  0  0  0  0  0  0
   20.1430  -28.0650   15.0360 C   0  0  0  0  0  0  0  0  0  0  0  0
   20.8690  -26.7740   14.6170 C   0  0  0  0  0  0  0  0  0  0  0  0
   19.9050  -28.2370   16.3880 C   0  0  0  0  0  0  0  0  0  0  0  0
   21.3860  -25.6080   15.5120 C   0  0  0  0  0  0  0  0  0  0  0  0
   20.3370  -27.1900   17.4080 C   0  0  0  0  0  0  0  0  0  0  0  0
   21.0650  -25.8940   17.0070 C   0  0  0  0  0  0  0  0  0  0  0  0
   21.5270  -24.8410   17.9390 N   0  0  0  0  0  0  0  0  0  0  0  0
   22.1610  -25.4210   19.1410 C   0  0  0  0  0  0  0  0  0  0  0  0
   22.2760  -23.7140   17.3300 C   0  0  0  0  0  0  0  0  0  0  0  0
   22.1880  -24.3750   20.2610 C   0  0  0  0  0  0  0  0  0  0  0  0
   22.2710  -22.6650   18.2590 C   0  0  0  0  0  0  0  0  0  0  0  0
   22.9200  -23.2440   19.5200 C   0  0  0  0  0  0  0  0  0  0  0  0
   23.3170  -22.1350   20.4440 N   0  0  0  0  0  0  0  0  0  0  0  0
   22.7810  -22.3290   21.8180 C   0  0  0  0  0  0  0  0  0  0  0  0
   22.9550  -21.1670   22.8580 C   0  0  0  0  0  0  0  0  0  0  0  0
   23.5010  -19.7410   22.7120 C   0  0  0  0  0  0  0  0  0  0  0  0
   22.4550  -21.3110   24.5550 S   0  0  0  0  0  0  0  0  0  0  0  0
   23.4370  -18.9780   23.8710 C   0  0  0  0  0  0  0  0  0  0  0  0
   22.8980  -19.6810   24.9470 C   0  0  0  0  0  0  0  0  0  0  0  0
  2  1  1  0
  2  3  2  0
  2  4  2  0
  2  5  1  0
  5  6  2  0
  5  7  1  0
  6  8  1  0
  7  9  2  0
  8 10  2  0
  9 10  1  0
 10 11  1  0
 11 12  1  0
 11 13  1  0
 12 14  1  0
 13 15  1  0
 14 16  1  0
 15 16  1  0
 16 17  1  0
 17 18  1  0
 18 19  1  0
 19 20  2  0
 19 21  1  0
 20 22  1  0
 21 23  1  0
 22 23  2  0
M  END
