WAR-XCH-b6889685-47
     RDKit          3D

 26 28  0  0  0  0  0  0  0  0999 V2000
   23.3690  -17.5750   25.1860 C   0  0  0  0  0  0  0  0  0  0  0  0
   23.3320  -18.7950   24.2340 C   0  0  0  0  0  0  0  0  0  0  0  0
   24.1760  -19.0110   22.9100 C   0  0  0  0  0  0  0  0  0  0  0  0
   22.4260  -19.7850   24.6460 C   0  0  0  0  0  0  0  0  0  0  0  0
   23.9740  -20.3250   22.0590 C   0  0  0  0  0  0  0  0  0  0  0  0
   22.1680  -21.0690   23.8990 C   0  0  0  0  0  0  0  0  0  0  0  0
   22.9190  -21.3220   22.6210 C   0  0  0  0  0  0  0  0  0  0  0  0
   22.6970  -22.5440   21.7000 C   0  0  2  0  0  0  0  0  0  0  0  0
   22.7050  -23.6600   22.7380 C   0  0  0  0  0  0  0  0  0  0  0  0
   23.5510  -22.7430   20.6090 N   0  0  0  0  0  0  0  0  0  0  0  0
   23.1400  -23.6400   19.4900 C   0  0  0  0  0  0  0  0  0  0  0  0
   22.2840  -24.7750   19.9970 C   0  0  0  0  0  0  0  0  0  0  0  0
   22.5670  -22.9650   18.4130 C   0  0  0  0  0  0  0  0  0  0  0  0
   21.7720  -25.7100   18.9020 C   0  0  0  0  0  0  0  0  0  0  0  0
   22.2660  -23.9090   17.2420 C   0  0  0  0  0  0  0  0  0  0  0  0
   21.4720  -25.0990   17.6800 N   0  0  0  0  0  0  0  0  0  0  0  0
   20.7590  -25.8930   16.6810 C   0  0  0  0  0  0  0  0  0  0  0  0
   19.4480  -26.1220   17.1120 C   0  0  0  0  0  0  0  0  0  0  0  0
   21.2660  -26.3880   15.4650 C   0  0  0  0  0  0  0  0  0  0  0  0
   18.5810  -26.8650   16.3380 C   0  0  0  0  0  0  0  0  0  0  0  0
   20.3700  -27.2280   14.5470 C   0  0  0  0  0  0  0  0  0  0  0  0
   19.0880  -27.4100   15.0480 C   0  0  0  0  0  0  0  0  0  0  0  0
   17.8870  -28.3570   14.1370 S   0  0  0  0  0  0  0  0  0  0  0  0
   16.8920  -27.0990   13.5560 N   0  0  0  0  0  0  0  0  0  0  0  0
   18.5570  -28.9720   13.0140 O   0  0  0  0  0  0  0  0  0  0  0  0
   17.1120  -29.1290   15.0900 O   0  0  0  0  0  0  0  0  0  0  0  0
  1  2  1  0
  2  3  2  0
  2  4  1  0
  3  5  1  0
  4  6  2  0
  5  7  2  0
  6  7  1  0
  7  8  1  0
  8  9  1  1
  8 10  1  0
 10 11  1  0
 11 12  1  0
 11 13  1  0
 12 14  1  0
 13 15  1  0
 14 16  1  0
 15 16  1  0
 16 17  1  0
 17 18  2  0
 17 19  1  0
 18 20  1  0
 19 21  2  0
 20 22  2  0
 21 22  1  0
 22 23  1  0
 23 24  1  0
 23 25  2  0
 23 26  2  0
M  END
