WAR-XCH-e55cba98-13
     RDKit          3D

 30 33  0  0  0  0  0  0  0  0999 V2000
    9.1320    1.3800   21.2110 O   0  0  0  0  0  0  0  0  0  0  0  0
    8.5940    0.4660   21.8170 C   0  0  0  0  0  0  0  0  0  0  0  0
    8.9240    0.0540   23.1900 C   0  0  0  0  0  0  0  0  0  0  0  0
    7.5490   -0.2830   21.2430 N   0  0  0  0  0  0  0  0  0  0  0  0
   10.4570    0.0080   23.2090 C   0  0  0  0  0  0  0  0  0  0  0  0
    6.8280    0.1320   20.1700 C   0  0  0  0  0  0  0  0  0  0  0  0
   11.1800    1.1480   22.7420 N   0  0  0  0  0  0  0  0  0  0  0  0
   10.9990   -0.4300   24.5120 C   0  0  0  0  0  0  0  0  0  0  0  0
   10.8040   -1.2180   22.2690 C   0  0  0  0  0  0  0  0  0  0  0  0
    5.7150    0.9500   20.3860 C   0  0  0  0  0  0  0  0  0  0  0  0
    7.1080   -0.1880   18.8390 C   0  0  0  0  0  0  0  0  0  0  0  0
   10.7940    2.6080   22.6260 C   0  0  0  0  0  0  0  0  0  0  0  0
   12.5060   -0.2900   24.5180 C   0  0  0  0  0  0  0  0  0  0  0  0
   12.2750   -1.6810   22.3790 C   0  0  0  0  0  0  0  0  0  0  0  0
    4.9480    1.4240   19.3550 C   0  0  0  0  0  0  0  0  0  0  0  0
    6.3900    0.2490   17.7620 N   0  0  0  0  0  0  0  0  0  0  0  0
    9.4370    2.8950   21.9810 C   0  0  0  0  0  0  0  0  0  0  0  0
   10.5860    3.1760   24.0460 C   0  0  0  0  0  0  0  0  0  0  0  0
   11.9260    3.5600   22.1020 C   0  0  0  0  0  0  0  0  0  0  0  0
   13.1800   -0.9530   23.3680 C   0  0  0  0  0  0  0  0  0  0  0  0
    5.2620    1.0980   18.0640 C   0  0  0  0  0  0  0  0  0  0  0  0
    8.2710    3.5310   22.5890 C   0  0  0  0  0  0  0  0  0  0  0  0
   10.9460    4.6860   23.8760 C   0  0  0  0  0  0  0  0  0  0  0  0
   11.9300    4.7770   22.7290 C   0  0  0  0  0  0  0  0  0  0  0  0
    7.0730    4.1810   22.0680 C   0  0  0  0  0  0  0  0  0  0  0  0
    5.8990    3.4420   21.6960 C   0  0  0  0  0  0  0  0  0  0  0  0
    7.1860    5.5680   21.9760 N   0  0  0  0  0  0  0  0  0  0  0  0
    4.8210    4.1660   21.2160 C   0  0  0  0  0  0  0  0  0  0  0  0
    6.0600    6.3530   21.4680 C   0  0  0  0  0  0  0  0  0  0  0  0
    4.8300    5.5500   21.0810 C   0  0  0  0  0  0  0  0  0  0  0  0
  1  2  2  0
  2  3  1  0
  2  4  1  0
  3  5  1  0
  4  6  1  0
  5  7  1  0
  5  8  1  0
  5  9  1  0
  6 10  2  0
  6 11  1  0
  7 12  1  0
  8 13  1  0
  9 14  1  0
 10 15  1  0
 11 16  2  0
 12 17  1  0
 12 18  1  0
 12 19  1  0
 13 20  1  0
 14 20  1  0
 15 21  2  0
 16 21  1  0
 17 22  3  0
 18 23  1  0
 19 24  1  0
 23 24  1  0
 22 25  1  0
 25 26  2  0
 25 27  1  0
 26 28  1  0
 27 29  2  0
 28 30  2  0
 29 30  1  0
M  END
