WAR-XCH-b6889685-31
     RDKit          3D

 22 24  0  0  0  0  0  0  0  0999 V2000
    8.0770    6.3900   21.8380 N   0  0  0  0  0  0  0  0  0  0  0  0
    8.9980    6.5700   23.2290 S   0  0  0  0  0  0  0  0  0  0  0  0
    8.0670    6.9240   24.2760 O   0  0  0  0  0  0  0  0  0  0  0  0
   10.1500    7.3740   22.9090 O   0  0  0  0  0  0  0  0  0  0  0  0
    9.5560    4.9130   23.4860 C   0  0  0  0  0  0  0  0  0  0  0  0
   10.9240    4.4150   22.9870 C   0  0  0  0  0  0  0  0  0  0  0  0
    8.7780    3.9790   24.1560 C   0  0  0  0  0  0  0  0  0  0  0  0
   11.5180    2.9950   23.1560 C   0  0  0  0  0  0  0  0  0  0  0  0
    9.2270    2.6640   24.3610 C   0  0  0  0  0  0  0  0  0  0  0  0
   10.4750    2.1310   23.9370 C   0  0  0  0  0  0  0  0  0  0  0  0
   10.9480    0.7480   24.1660 N   0  0  0  0  0  0  0  0  0  0  0  0
   10.0920   -0.1530   24.9780 C   0  0  0  0  0  0  0  0  0  0  0  0
   12.2930    0.4120   24.0270 C   0  0  0  0  0  0  0  0  0  0  0  0
   10.0400   -1.4610   24.1940 C   0  0  0  0  0  0  0  0  0  0  0  0
   12.3060   -0.6280   23.1420 C   0  0  0  0  0  0  0  0  0  0  0  0
   10.8360   -0.9450   22.9850 C   0  0  0  0  0  0  0  0  0  0  0  0
   10.6570   -1.7790   21.8250 N   0  0  0  0  0  0  0  0  0  0  0  0
   11.7970   -2.5800   21.3810 C   0  0  0  0  0  0  0  0  0  0  0  0
   11.5100   -3.5370   20.3430 C   0  0  0  0  0  0  0  0  0  0  0  0
   13.2570   -2.7320   21.6950 C   0  0  0  0  0  0  0  0  0  0  0  0
   12.5550   -4.3320   19.8410 C   0  0  0  0  0  0  0  0  0  0  0  0
   13.9310   -3.9910   20.6540 S   0  0  0  0  0  0  0  0  0  0  0  0
  2  1  1  0
  2  3  2  0
  2  4  2  0
  2  5  1  0
  5  6  2  0
  5  7  1  0
  6  8  1  0
  7  9  2  0
  8 10  2  0
  9 10  1  0
 10 11  1  0
 11 12  1  0
 11 13  1  0
 12 14  1  0
 13 15  1  0
 14 16  1  0
 15 16  1  0
 16 17  1  0
 17 18  1  0
 18 19  1  0
 18 20  2  0
 19 21  2  0
 20 22  1  0
 21 22  1  0
M  END
