WAR-XCH-eb7b662f-6
     RDKit          3D

 17 18  0  0  0  0  0  0  0  0999 V2000
   12.3410   -0.2900   25.3150 C   0  0  0  0  0  0  0  0  0  0  0  0
   12.0130   -0.8280   24.0800 C   0  0  0  0  0  0  0  0  0  0  0  0
   13.0480   -1.2970   23.3540 C   0  0  0  0  0  0  0  0  0  0  0  0
   10.6800   -0.8400   23.7000 C   0  0  0  0  0  0  0  0  0  0  0  0
   12.7430   -1.8980   22.0460 C   0  0  0  0  0  0  0  0  0  0  0  0
   10.3170   -1.3820   22.4960 C   0  0  0  0  0  0  0  0  0  0  0  0
   11.3240   -1.9120   21.6930 C   0  0  0  0  0  0  0  0  0  0  0  0
    8.9980   -1.4320   22.0400 N   0  0  0  0  0  0  0  0  0  0  0  0
    8.3340   -0.3710   21.4800 C   0  0  0  0  0  0  0  0  0  0  0  0
    8.7900    0.7590   21.3540 O   0  0  0  0  0  0  0  0  0  0  0  0
    7.0730   -0.7290   21.0490 N   0  0  0  0  0  0  0  0  0  0  0  0
    6.4060   -0.0360   20.0310 C   0  0  0  0  0  0  0  0  0  0  0  0
    5.2360    0.6170   20.3540 C   0  0  0  0  0  0  0  0  0  0  0  0
    6.8970    0.0090   18.7410 C   0  0  0  0  0  0  0  0  0  0  0  0
    4.5390    1.3780   19.2350 C   0  0  0  0  0  0  0  0  0  0  0  0
    6.3480    0.6560   17.6980 N   0  0  0  0  0  0  0  0  0  0  0  0
    5.2170    1.3200   17.9210 C   0  0  0  0  0  0  0  0  0  0  0  0
  1  2  1  0
  2  3  2  0
  2  4  1  0
  3  5  1  0
  4  6  2  0
  5  7  2  0
  6  7  1  0
  6  8  1  0
  8  9  1  0
  9 10  2  0
  9 11  1  0
 11 12  1  0
 12 13  2  0
 12 14  1  0
 13 15  1  0
 14 16  2  0
 15 17  2  0
 16 17  1  0
M  END
