WAR-XCH-b72a1bbc-47
     RDKit          3D

 25 27  0  0  0  0  0  0  0  0999 V2000
   25.3790  -13.3460   25.7930 N   0  0  0  0  0  0  0  0  0  0  0  0
   24.4030  -13.3200   24.4310 S   0  0  0  0  0  0  0  0  0  0  0  0
   25.1650  -12.8510   23.2930 O   0  0  0  0  0  0  0  0  0  0  0  0
   23.1330  -12.7570   24.8000 O   0  0  0  0  0  0  0  0  0  0  0  0
   24.1760  -15.0330   24.2880 C   0  0  0  0  0  0  0  0  0  0  0  0
   23.7710  -15.7710   25.5180 C   0  0  0  0  0  0  0  0  0  0  0  0
   24.3930  -15.6000   23.0340 C   0  0  0  0  0  0  0  0  0  0  0  0
   23.5950  -17.2790   25.3650 C   0  0  0  0  0  0  0  0  0  0  0  0
   24.2460  -17.0590   22.7990 C   0  0  0  0  0  0  0  0  0  0  0  0
   23.8420  -17.9050   24.0060 C   0  0  0  0  0  0  0  0  0  0  0  0
   23.7150  -19.3270   23.8410 N   0  0  0  0  0  0  0  0  0  0  0  0
   24.0580  -19.6760   22.5520 C   0  0  0  0  0  0  0  0  0  0  0  0
   22.3280  -19.7670   24.0240 C   0  0  0  0  0  0  0  0  0  0  0  0
   24.1840  -21.0900   22.3330 C   0  0  0  0  0  0  0  0  0  0  0  0
   22.1280  -21.1510   23.8100 C   0  0  0  0  0  0  0  0  0  0  0  0
   23.1520  -21.9270   22.9280 C   0  0  0  0  0  0  0  0  0  0  0  0
   22.2570  -22.6530   22.0500 C   0  0  0  0  0  0  0  0  0  0  0  0
   22.6950  -22.3570   20.6760 N   0  0  0  0  0  0  0  0  0  0  0  0
   22.4250  -23.1520   19.6590 C   0  0  0  0  0  0  0  0  0  0  0  0
   22.2590  -22.6230   18.3690 C   0  0  0  0  0  0  0  0  0  0  0  0
   22.3040  -24.5560   19.8520 C   0  0  0  0  0  0  0  0  0  0  0  0
   21.9690  -23.4840   17.1880 C   0  0  0  0  0  0  0  0  0  0  0  0
   22.0070  -25.5950   18.7460 C   0  0  0  0  0  0  0  0  0  0  0  0
   21.8430  -24.9950   17.3560 C   0  0  0  0  0  0  0  0  0  0  0  0
   21.9090  -26.9090   18.9860 F   0  0  0  0  0  0  0  0  0  0  0  0
  2  1  1  0
  2  3  2  0
  2  4  2  0
  2  5  1  0
  5  6  2  0
  5  7  1  0
  6  8  1  0
  7  9  2  0
  8 10  2  0
  9 10  1  0
 10 11  1  0
 11 12  1  0
 11 13  1  0
 12 14  1  0
 13 15  1  0
 14 16  1  0
 15 16  1  0
 16 17  1  0
 17 18  1  0
 18 19  1  0
 19 20  2  0
 19 21  1  0
 20 22  1  0
 21 23  2  0
 22 24  2  0
 23 24  1  0
 23 25  1  0
M  END
