WAR-XCH-bdd24732-18-vinylsulfonamide
     RDKit          3D

 27 30  0  0  0  0  0  0  0  0999 V2000
    7.1970   -4.5560   20.9080 C   0  0  0  0  0  0  0  0  0  0  0  0
    7.3490   -3.4740   22.0010 C   0  0  0  0  0  0  0  0  0  0  0  0
    5.8630   -3.5040   23.0400 S   0  0  0  0  0  0  0  0  0  0  0  0
    4.7120   -4.1310   22.2420 O   0  0  0  0  0  0  0  0  0  0  0  0
    5.6350   -2.1120   23.3730 O   0  0  0  0  0  0  0  0  0  0  0  0
    6.3350   -4.1090   24.7340 C   0  0  0  0  0  0  0  0  0  0  0  0
    6.3020   -5.3450   25.4090 C   0  0  0  0  0  0  0  0  0  0  0  0
    6.8120   -3.1130   25.5060 C   0  0  0  0  0  0  0  0  0  0  0  0
    6.7620   -5.4660   26.7950 C   0  0  0  0  0  0  0  0  0  0  0  0
    7.2350   -3.1820   26.8180 C   0  0  0  0  0  0  0  0  0  0  0  0
    7.2570   -4.3660   27.5460 C   0  0  0  0  0  0  0  0  0  0  0  0
    7.5480   -1.7860   27.0330 C   0  0  0  0  0  0  0  0  0  0  0  0
    7.6520   -1.4150   25.7580 N   0  0  0  0  0  0  0  0  0  0  0  0
    7.7050   -0.8460   28.0700 C   0  0  0  0  0  0  0  0  0  0  0  0
    7.8860   -0.1630   25.3470 C   0  0  0  0  0  0  0  0  0  0  0  0
    7.9640    0.4930   27.5750 C   0  0  0  0  0  0  0  0  0  0  0  0
    7.6220   -1.0620   29.5670 C   0  0  0  0  0  0  0  0  0  0  0  0
    7.8540   -0.4740   23.8420 C   0  0  0  0  0  0  0  0  0  0  0  0
    8.0580    0.9140   26.1140 N   0  0  0  0  0  0  0  0  0  0  0  0
    8.1500    1.5660   28.4500 C   0  0  0  0  0  0  0  0  0  0  0  0
    7.8300    0.1180   30.5090 C   0  0  0  0  0  0  0  0  0  0  0  0
    8.8900   -1.4030   23.2100 C   0  0  0  0  0  0  0  0  0  0  0  0
    6.7780    0.0300   22.8880 C   0  0  0  0  0  0  0  0  0  0  0  0
    8.0860    1.3810   29.9570 C   0  0  0  0  0  0  0  0  0  0  0  0
    8.7830   -1.7820   21.7390 C   0  0  0  0  0  0  0  0  0  0  0  0
    6.7020   -0.3490   21.4610 N   0  0  0  0  0  0  0  0  0  0  0  0
    7.7310   -1.2690   20.9590 C   0  0  0  0  0  0  0  0  0  0  0  0
  1  2  1  0
  3  2  1  0
  3  4  2  0
  3  5  2  0
  3  6  1  0
  6  7  2  0
  6  8  1  0
  7  9  1  0
  8 10  2  0
  9 11  2  0
 10 11  1  0
 10 12  1  0
 12 13  2  0
 12 14  1  0
 13 15  1  0
 14 16  2  0
 14 17  1  0
 15 18  1  0
 15 19  2  0
 16 19  1  0
 16 20  1  0
 17 21  2  0
 18 22  2  0
 18 23  1  0
 20 24  2  0
 21 24  1  0
 22 25  1  0
 23 26  2  0
 25 27  2  0
 26 27  1  0
M  END
