WAR-XCH-6eb0722e-5
     RDKit          3D

 24 25  0  0  0  0  0  0  0  0999 V2000
   13.2380   -2.0620   21.6630 C   0  0  0  0  0  0  0  0  0  0  0  0
   12.3000   -1.1440   22.3180 C   0  0  0  0  0  0  0  0  0  0  0  0
   12.8920   -0.0380   23.1550 C   0  0  0  0  0  0  0  0  0  0  0  0
   10.9650   -1.2850   22.1680 C   0  0  0  0  0  0  0  0  0  0  0  0
   11.9270    0.9110   23.8240 C   0  0  0  0  0  0  0  0  0  0  0  0
   10.0840   -0.4190   22.7740 C   0  0  0  0  0  0  0  0  0  0  0  0
   10.4800    0.6680   23.5950 C   0  0  0  0  0  0  0  0  0  0  0  0
    8.7380   -0.6150   22.5500 N   0  0  0  0  0  0  0  0  0  0  0  0
    9.4950    1.4630   24.1430 C   0  0  0  0  0  0  0  0  0  0  0  0
    8.2100    0.0900   21.5380 C   0  0  0  0  0  0  0  0  0  0  0  0
    9.0570    2.5160   23.3300 C   0  0  0  0  0  0  0  0  0  0  0  0
    8.7000    1.1560   21.1260 O   0  0  0  0  0  0  0  0  0  0  0  0
    7.0090   -0.5370   20.9870 N   0  0  0  0  0  0  0  0  0  0  0  0
    9.1890    3.8080   24.0350 N   0  0  0  0  0  0  0  0  0  0  0  0
    6.3710    0.0720   19.9570 C   0  0  0  0  0  0  0  0  0  0  0  0
    7.8730    4.3920   24.8920 S   0  0  0  0  0  0  0  0  0  0  0  0
    5.1880    0.7590   20.1980 C   0  0  0  0  0  0  0  0  0  0  0  0
    6.8600    0.0510   18.6730 C   0  0  0  0  0  0  0  0  0  0  0  0
    7.1990    2.9140   25.6180 C   0  0  0  0  0  0  0  0  0  0  0  0
    8.3880    5.2540   25.9310 O   0  0  0  0  0  0  0  0  0  0  0  0
    6.9230    4.8960   23.9280 O   0  0  0  0  0  0  0  0  0  0  0  0
    4.5630    1.4030   19.1390 C   0  0  0  0  0  0  0  0  0  0  0  0
    6.2770    0.6630   17.6340 N   0  0  0  0  0  0  0  0  0  0  0  0
    5.1440    1.3330   17.8800 C   0  0  0  0  0  0  0  0  0  0  0  0
  1  2  1  0
  2  3  2  0
  2  4  1  0
  3  5  1  0
  4  6  2  0
  5  7  2  0
  6  7  1  0
  6  8  1  0
  7  9  1  0
  8 10  1  0
  9 11  1  0
 10 12  2  0
 10 13  1  0
 11 14  1  0
 13 15  1  0
 16 14  1  0
 15 17  2  0
 15 18  1  0
 16 19  1  0
 16 20  2  0
 16 21  2  0
 17 22  1  0
 18 23  2  0
 22 24  2  0
 23 24  1  0
M  END
