WAR-XCH-b6889685-9
     RDKit          3D

 33 37  0  0  0  0  0  0  0  0999 V2000
   23.6990  -17.2660   26.1330 N   0  0  0  0  0  0  0  0  0  0  0  0
   22.6610  -18.5470   25.8010 S   0  0  0  0  0  0  0  0  0  0  0  0
   23.3110  -19.2840   24.7430 O   0  0  0  0  0  0  0  0  0  0  0  0
   22.1960  -19.1890   27.0040 O   0  0  0  0  0  0  0  0  0  0  0  0
   21.3150  -17.6680   25.1090 C   0  0  0  0  0  0  0  0  0  0  0  0
   21.5370  -16.7340   23.9320 C   0  0  0  0  0  0  0  0  0  0  0  0
   20.0070  -17.7900   25.5750 C   0  0  0  0  0  0  0  0  0  0  0  0
   20.4820  -15.8980   23.2040 C   0  0  0  0  0  0  0  0  0  0  0  0
   18.8740  -17.0110   24.8950 C   0  0  0  0  0  0  0  0  0  0  0  0
   19.0890  -16.1070   23.8020 C   0  0  0  0  0  0  0  0  0  0  0  0
   18.1640  -15.2020   23.0920 N   0  0  0  0  0  0  0  0  0  0  0  0
   16.9720  -15.0390   23.8310 C   0  0  0  0  0  0  0  0  0  0  0  0
   18.8250  -14.0670   22.3970 C   0  0  0  0  0  0  0  0  0  0  0  0
   16.1850  -13.7050   23.6910 C   0  0  0  0  0  0  0  0  0  0  0  0
   18.3130  -12.7540   22.3280 C   0  0  0  0  0  0  0  0  0  0  0  0
   16.8940  -12.5780   22.8820 C   0  0  0  0  0  0  0  0  0  0  0  0
   16.4600  -11.6710   24.0440 C   0  0  0  0  0  0  0  0  0  0  0  0
   16.7710  -10.0060   24.6040 N   0  0  0  0  0  0  0  0  0  0  0  0
   17.8580   -9.1390   24.7470 C   0  0  0  0  0  0  0  0  0  0  0  0
   17.2050   -9.2590   25.9280 C   0  0  0  0  0  0  0  0  0  0  0  0
   17.4660   -7.5740   24.8940 C   0  0  0  0  0  0  0  0  0  0  0  0
   16.3630   -8.2480   26.3030 C   0  0  0  0  0  0  0  0  0  0  0  0
   16.9870   -6.9630   26.1110 C   0  0  0  0  0  0  0  0  0  0  0  0
   16.3220   -5.8950   25.5360 C   0  0  0  0  0  0  0  0  0  0  0  0
   17.2230   -6.0650   24.5950 C   0  0  0  0  0  0  0  0  0  0  0  0
   15.1850   -4.8120   25.5080 C   0  0  0  0  0  0  0  0  0  0  0  0
   17.1290   -5.2840   23.5490 C   0  0  0  0  0  0  0  0  0  0  0  0
   15.1120   -3.9990   24.2460 C   0  0  0  0  0  0  0  0  0  0  0  0
   13.9930   -4.1690   26.2220 C   0  0  0  0  0  0  0  0  0  0  0  0
   16.1590   -4.4050   23.4520 C   0  0  0  0  0  0  0  0  0  0  0  0
   14.1300   -2.8870   23.6740 C   0  0  0  0  0  0  0  0  0  0  0  0
   13.0330   -3.0870   25.6400 C   0  0  0  0  0  0  0  0  0  0  0  0
   13.0610   -2.4360   24.4000 C   0  0  0  0  0  0  0  0  0  0  0  0
  2  1  1  0
  2  3  2  0
  2  4  2  0
  2  5  1  0
  5  6  2  0
  5  7  1  0
  6  8  1  0
  7  9  2  0
  8 10  2  0
  9 10  1  0
 10 11  1  0
 11 12  1  0
 11 13  1  0
 12 14  1  0
 13 15  1  0
 14 16  1  0
 15 16  1  0
 16 17  1  0
 17 18  1  0
 18 19  1  0
 18 20  1  0
 19 21  1  0
 20 22  1  0
 21 23  1  0
 22 23  1  0
 23 24  1  0
 24 25  2  0
 24 26  1  0
 25 27  1  0
 26 28  2  0
 26 29  1  0
 27 30  2  0
 28 30  1  0
 28 31  1  0
 29 32  2  0
 31 33  2  0
 32 33  1  0
M  END
