WAR-XCH-79d12f6e-9-vinylsulfonamide
     RDKit          3D

 23 25  0  0  0  0  0  0  0  0999 V2000
    6.2810   -5.2450   20.5690 C   0  0  0  0  0  0  0  0  0  0  0  0
    5.8160   -6.1070   21.5940 C   0  0  0  0  0  0  0  0  0  0  0  0
    4.8880   -5.4580   22.9980 S   0  0  0  0  0  0  0  0  0  0  0  0
    4.1750   -4.2650   22.5900 O   0  0  0  0  0  0  0  0  0  0  0  0
    4.1980   -6.5610   23.6190 O   0  0  0  0  0  0  0  0  0  0  0  0
    6.0460   -5.1600   24.1670 N   0  0  0  0  0  0  0  0  0  0  0  0
    7.3310   -5.6270   23.7400 C   0  0  0  0  0  0  0  0  0  0  0  0
    6.0440   -3.7970   24.6630 C   0  0  0  0  0  0  0  0  0  0  0  0
    7.8880   -4.5080   22.8990 C   0  0  0  0  0  0  0  0  0  0  0  0
    6.1340   -2.9260   23.6030 C   0  0  0  0  0  0  0  0  0  0  0  0
    6.9140   -3.4710   22.4820 N   0  0  0  0  0  0  0  0  0  0  0  0
    7.6520   -2.4010   21.8250 C   0  0  0  0  0  0  0  0  0  0  0  0
    6.7670   -1.6080   20.8570 C   0  0  0  0  0  0  0  0  0  0  0  0
    8.8720   -2.8800   21.3300 C   0  0  0  0  0  0  0  0  0  0  0  0
    8.0480   -1.5080   22.8980 C   0  0  0  0  0  0  0  0  0  0  0  0
    5.6440   -0.8820   21.2940 C   0  0  0  0  0  0  0  0  0  0  0  0
    6.9610   -1.4000   19.1320 S   0  0  0  0  0  0  0  0  0  0  0  0
   10.0540   -2.2010   21.7440 C   0  0  0  0  0  0  0  0  0  0  0  0
    9.0400   -1.9670   23.9960 C   0  0  0  0  0  0  0  0  0  0  0  0
    4.9170   -0.1520   20.3620 N   0  0  0  0  0  0  0  0  0  0  0  0
    5.5860   -0.3720   19.0930 C   0  0  0  0  0  0  0  0  0  0  0  0
   10.3030   -2.4000   23.2560 C   0  0  0  0  0  0  0  0  0  0  0  0
    5.0630    0.2630   17.9900 C   0  0  0  0  0  0  0  0  0  0  0  0
  1  2  1  0
  3  2  1  0
  3  4  2  0
  3  5  2  0
  3  6  1  0
  6  7  1  0
  6  8  1  0
  7  9  1  0
  8 10  1  0
  9 11  1  0
 10 11  1  0
 11 12  1  0
 12 13  1  0
 12 14  1  0
 12 15  1  0
 13 16  2  0
 13 17  1  0
 14 18  1  0
 15 19  1  0
 16 20  1  0
 17 21  1  0
 20 21  2  0
 18 22  1  0
 19 22  1  0
 21 23  1  0
M  END
