WAR-XCH-b72a1bbc-13
     RDKit          3D

 32 36  0  0  0  0  0  0  0  0999 V2000
    9.1210    5.4530   22.7580 N   0  0  0  0  0  0  0  0  0  0  0  0
   10.4600    5.4090   23.7770 S   0  0  0  0  0  0  0  0  0  0  0  0
    9.9710    5.6960   25.1040 O   0  0  0  0  0  0  0  0  0  0  0  0
   11.4380    6.2460   23.1300 O   0  0  0  0  0  0  0  0  0  0  0  0
   10.9750    3.7010   23.6770 C   0  0  0  0  0  0  0  0  0  0  0  0
   12.2850    3.3090   23.0280 C   0  0  0  0  0  0  0  0  0  0  0  0
   10.1520    2.7030   24.2130 C   0  0  0  0  0  0  0  0  0  0  0  0
   12.6370    1.8220   22.9930 C   0  0  0  0  0  0  0  0  0  0  0  0
   10.4880    1.3290   24.1710 C   0  0  0  0  0  0  0  0  0  0  0  0
   11.6620    0.8160   23.5970 C   0  0  0  0  0  0  0  0  0  0  0  0
   11.9720   -0.6220   23.5490 N   0  0  0  0  0  0  0  0  0  0  0  0
   11.2130   -1.4590   24.3270 C   0  0  0  0  0  0  0  0  0  0  0  0
   12.1720   -1.3160   22.3080 C   0  0  0  0  0  0  0  0  0  0  0  0
    9.7580   -1.6350   23.7550 C   0  0  0  0  0  0  0  0  0  0  0  0
   10.8160   -1.6270   21.5600 C   0  0  0  0  0  0  0  0  0  0  0  0
    9.4370   -1.8730   22.2260 C   0  0  0  0  0  0  0  0  0  0  0  0
    8.1810   -1.3910   21.4390 N   0  0  0  0  0  0  0  0  0  0  0  0
    7.7900   -0.6540   20.2010 C   0  0  0  0  0  0  0  0  0  0  0  0
    7.0120   -1.4160   22.1770 C   0  0  0  0  0  0  0  0  0  0  0  0
    6.4630   -0.1680   19.9900 C   0  0  0  0  0  0  0  0  0  0  0  0
    6.4060   -0.0280   22.2120 C   0  0  2  0  0  0  0  0  0  0  0  0
    5.8960   -0.0120   18.7340 C   0  0  0  0  0  0  0  0  0  0  0  0
    5.7270    0.1700   21.0760 C   0  0  0  0  0  0  0  0  0  0  0  0
    7.5610    0.9480   22.1270 C   0  0  0  0  0  0  0  0  0  0  0  0
    4.5870    0.4950   18.6000 C   0  0  0  0  0  0  0  0  0  0  0  0
    4.3280    0.7090   20.9500 C   0  0  0  0  0  0  0  0  0  0  0  0
    8.9290    0.3700   22.4490 C   0  0  0  0  0  0  0  0  0  0  0  0
    7.3650    2.2700   21.7710 C   0  0  0  0  0  0  0  0  0  0  0  0
    3.7900    0.8610   19.7000 C   0  0  0  0  0  0  0  0  0  0  0  0
   10.0910    1.3220   22.3680 C   0  0  0  0  0  0  0  0  0  0  0  0
    8.4100    3.1390   21.7010 C   0  0  0  0  0  0  0  0  0  0  0  0
    9.8150    2.6540   22.0080 C   0  0  0  0  0  0  0  0  0  0  0  0
  2  1  1  0
  2  3  2  0
  2  4  2  0
  2  5  1  0
  5  6  2  0
  5  7  1  0
  6  8  1  0
  7  9  2  0
  8 10  2  0
  9 10  1  0
 10 11  1  0
 11 12  1  0
 11 13  1  0
 12 14  1  0
 13 15  1  0
 14 16  1  0
 15 16  1  0
 16 17  1  0
 17 18  1  0
 17 19  1  0
 18 20  1  0
 19 21  1  0
 20 22  2  0
 20 23  1  0
 21 23  1  0
 21 24  1  6
 22 25  1  0
 23 26  2  0
 24 27  2  0
 24 28  1  0
 25 29  2  0
 26 29  1  0
 27 30  1  0
 28 31  2  0
 30 32  2  0
 31 32  1  0
M  END
