WAR-XCH-e55cba98-11
     RDKit          3D

 24 26  0  0  0  0  0  0  0  0999 V2000
    5.2110    1.1290   22.0190 C   0  0  0  0  0  0  0  0  0  0  0  0
    5.6910    0.8770   20.6550 C   0  0  0  0  0  0  0  0  0  0  0  0
    4.8120    1.5930   19.6200 C   0  0  0  0  0  0  0  0  0  0  0  0
    6.7990    0.0980   20.2750 C   0  0  0  0  0  0  0  0  0  0  0  0
    5.1270    1.4760   18.1430 C   0  0  0  0  0  0  0  0  0  0  0  0
    7.0790   -0.0110   18.8250 C   0  0  0  0  0  0  0  0  0  0  0  0
    7.5790   -0.5340   21.2100 N   0  0  0  0  0  0  0  0  0  0  0  0
    6.2700    0.6580   17.8360 N   0  0  0  0  0  0  0  0  0  0  0  0
    8.5480    0.2870   21.9420 C   0  0  0  0  0  0  0  0  0  0  0  0
    9.1050    1.3030   21.4680 O   0  0  0  0  0  0  0  0  0  0  0  0
    8.7350   -0.2300   23.2760 C   0  0  0  0  0  0  0  0  0  0  0  0
   10.0890    0.1530   23.6480 N   0  0  0  0  0  0  0  0  0  0  0  0
   11.1100   -0.4710   23.1910 C   0  0  0  0  0  0  0  0  0  0  0  0
   11.6420   -1.4400   24.0100 C   0  0  0  0  0  0  0  0  0  0  0  0
   12.1070    0.4370   22.9190 C   0  0  0  0  0  0  0  0  0  0  0  0
   10.7070   -1.1120   22.0180 C   0  0  0  0  0  0  0  0  0  0  0  0
   10.7900   -2.5770   24.5160 C   0  0  0  0  0  0  0  0  0  0  0  0
   13.0000   -1.3890   24.3950 C   0  0  0  0  0  0  0  0  0  0  0  0
   13.3840   -0.2920   22.6060 C   0  0  0  0  0  0  0  0  0  0  0  0
   11.8220   -2.0750   21.6550 C   0  0  0  0  0  0  0  0  0  0  0  0
   11.3100   -3.6910   25.4280 C   0  0  0  0  0  0  0  0  0  0  0  0
   13.5490   -2.3540   25.2150 C   0  0  0  0  0  0  0  0  0  0  0  0
   13.2320   -1.5460   21.8020 C   0  0  0  0  0  0  0  0  0  0  0  0
   12.7900   -3.5420   25.7800 C   0  0  0  0  0  0  0  0  0  0  0  0
  1  2  1  0
  2  3  2  0
  2  4  1  0
  3  5  1  0
  4  6  2  0
  4  7  1  0
  5  8  2  0
  6  8  1  0
  7  9  1  0
  9 10  2  0
  9 11  1  0
 11 12  1  0
 13 12  1  0
 13 14  1  0
 13 15  1  0
 13 16  1  0
 14 17  2  0
 14 18  1  0
 15 19  1  0
 16 20  1  0
 17 21  1  0
 18 22  2  0
 19 23  1  0
 20 23  1  0
 21 24  2  0
 22 24  1  0
M  END
