WAR-XCH-b72a1bbc-48
     RDKit          3D

 22 23  0  0  0  0  0  0  0  0999 V2000
    7.7250   -5.6000   22.6110 C   0  0  0  0  0  0  0  0  0  0  0  0
    8.2670   -4.2250   22.6110 C   0  0  0  0  0  0  0  0  0  0  0  0
    7.0900   -3.2650   22.3990 C   0  0  0  0  0  0  0  0  0  0  0  0
    9.0250   -3.8410   23.7150 N   0  0  0  0  0  0  0  0  0  0  0  0
    9.5720   -5.0430   24.3740 C   0  0  0  0  0  0  0  0  0  0  0  0
    9.7270   -2.5170   23.5080 C   0  0  0  0  0  0  0  0  0  0  0  0
   11.1830   -2.6170   23.3520 C   0  0  0  0  0  0  0  0  0  0  0  0
   12.2050   -2.4460   24.3660 C   0  0  0  0  0  0  0  0  0  0  0  0
   11.5620   -1.7940   22.2600 C   0  0  0  0  0  0  0  0  0  0  0  0
   12.6700   -1.1730   24.7420 C   0  0  0  0  0  0  0  0  0  0  0  0
   12.8510   -1.2030   22.3490 C   0  0  0  0  0  0  0  0  0  0  0  0
   12.8880   -0.3360   23.5330 N   0  0  0  0  0  0  0  0  0  0  0  0
   12.2250    0.9820   23.5360 C   0  0  0  0  0  0  0  0  0  0  0  0
   10.9520    1.0610   24.1130 C   0  0  0  0  0  0  0  0  0  0  0  0
   12.8530    2.1080   22.9920 C   0  0  0  0  0  0  0  0  0  0  0  0
   10.2160    2.3710   24.1850 C   0  0  0  0  0  0  0  0  0  0  0  0
   12.2470    3.5160   22.9780 C   0  0  0  0  0  0  0  0  0  0  0  0
   10.8640    3.6520   23.6200 C   0  0  0  0  0  0  0  0  0  0  0  0
   10.1780    5.2330   23.6530 S   0  0  0  0  0  0  0  0  0  0  0  0
    8.8480    5.0660   22.6390 N   0  0  0  0  0  0  0  0  0  0  0  0
   11.1110    6.1600   23.0460 O   0  0  0  0  0  0  0  0  0  0  0  0
    9.6690    5.4960   24.9830 O   0  0  0  0  0  0  0  0  0  0  0  0
  1  2  1  0
  2  3  1  0
  2  4  1  0
  4  5  1  0
  4  6  1  0
  6  7  1  0
  7  8  1  0
  7  9  1  0
  8 10  1  0
  9 11  1  0
 10 12  1  0
 11 12  1  0
 12 13  1  0
 13 14  2  0
 13 15  1  0
 14 16  1  0
 15 17  2  0
 16 18  2  0
 17 18  1  0
 18 19  1  0
 19 20  1  0
 19 21  2  0
 19 22  2  0
M  END
