WAR-XCH-bdd24732-7
     RDKit          3D

 26 29  0  0  0  0  0  0  0  0999 V2000
    6.5840   -6.6570   29.0560 C   0  0  0  0  0  0  0  0  0  0  0  0
    7.9150   -6.3290   28.6430 O   0  0  0  0  0  0  0  0  0  0  0  0
    7.8580   -5.3020   27.7460 C   0  0  0  0  0  0  0  0  0  0  0  0
    8.9140   -5.1430   26.8490 C   0  0  0  0  0  0  0  0  0  0  0  0
    6.8070   -4.3970   27.6670 C   0  0  0  0  0  0  0  0  0  0  0  0
    8.9650   -4.1330   25.8890 C   0  0  0  0  0  0  0  0  0  0  0  0
    6.8190   -3.3590   26.7060 C   0  0  0  0  0  0  0  0  0  0  0  0
    7.9020   -3.2100   25.7980 C   0  0  0  0  0  0  0  0  0  0  0  0
    8.1900   -2.2190   24.7250 N   0  0  0  0  0  0  0  0  0  0  0  0
    7.7840   -2.1780   23.3610 C   0  0  0  0  0  0  0  0  0  0  0  0
    9.5570   -1.6690   24.7690 C   0  0  1  0  0  0  0  0  0  0  0  0
    8.2300   -0.9430   22.6240 C   0  0  0  0  0  0  0  0  0  0  0  0
    7.0390   -3.0780   22.5230 C   0  0  0  0  0  0  0  0  0  0  0  0
   10.5110   -1.9830   23.7870 C   0  0  0  0  0  0  0  0  0  0  0  0
    9.4530   -0.2700   24.8320 C   0  0  0  0  0  0  0  0  0  0  0  0
    7.9530   -0.6750   21.2250 C   0  0  0  0  0  0  0  0  0  0  0  0
    6.8050   -2.7190   21.1310 C   0  0  0  0  0  0  0  0  0  0  0  0
    6.4050   -4.4060   22.7730 N   0  0  0  0  0  0  0  0  0  0  0  0
   11.8750   -1.4630   24.1690 C   0  0  0  0  0  0  0  0  0  0  0  0
   10.4780    0.5880   24.0530 C   0  0  0  0  0  0  0  0  0  0  0  0
    7.2020   -1.6040   20.4370 C   0  0  0  0  0  0  0  0  0  0  0  0
    6.0040   -3.8540   20.5650 C   0  0  0  0  0  0  0  0  0  0  0  0
    5.7600   -4.9310   21.6260 C   0  0  0  0  0  0  0  0  0  0  0  0
    6.3670   -5.2060   24.0060 C   0  0  0  0  0  0  0  0  0  0  0  0
   11.8750   -0.0050   23.8590 C   0  0  2  0  0  0  0  0  0  0  0  0
   12.2490    0.2880   22.7210 O   0  0  0  0  0  0  0  0  0  0  0  0
  1  2  1  0
  2  3  1  0
  3  4  2  0
  3  5  1  0
  4  6  1  0
  5  7  2  0
  6  8  2  0
  7  8  1  0
  8  9  1  0
  9 10  1  0
 11  9  1  6
 10 12  2  0
 10 13  1  0
 11 14  1  0
 11 15  1  0
 12 16  1  0
 13 17  2  0
 13 18  1  0
 14 19  1  0
 15 20  1  0
 16 21  2  0
 17 21  1  0
 17 22  1  0
 18 23  1  0
 22 23  2  0
 18 24  1  0
 19 25  1  0
 20 25  1  0
 25 26  1  6
M  END
