WAR-XCH-bdd24732-9-nitrile
     RDKit          3D

 30 33  0  0  0  0  0  0  0  0999 V2000
    6.1140   -4.3110   19.9670 C   0  0  0  0  0  0  0  0  0  0  0  0
    5.0770   -5.1270   19.9200 N   0  0  0  0  0  0  0  0  0  0  0  0
    6.0800   -2.9960   20.6300 C   0  0  0  0  0  0  0  0  0  0  0  0
    6.7760   -2.8570   21.7990 C   0  0  0  0  0  0  0  0  0  0  0  0
    6.8290   -2.8580   21.8830 C   0  0  0  0  0  0  0  0  0  0  0  0
    7.5960   -4.3780   22.2010 C   0  0  0  0  0  0  0  0  0  0  0  0
    7.4300   -3.7140   22.3770 C   0  0  0  0  0  0  0  0  0  0  0  0
    8.1350   -4.0450   23.3770 C   0  0  0  0  0  0  0  0  0  0  0  0
    7.5610   -2.6980   23.3240 N   0  0  0  0  0  0  0  0  0  0  0  0
    8.4690   -1.6160   23.3630 C   0  0  1  0  0  0  0  0  0  0  0  0
    6.2210   -2.3960   23.9920 C   0  0  0  0  0  0  0  0  0  0  0  0
    7.9580   -0.2570   23.5930 C   0  0  0  0  0  0  0  0  0  0  0  0
    9.6310   -1.9790   24.1120 C   0  0  0  0  0  0  0  0  0  0  0  0
    5.2090   -1.3960   23.6050 C   0  0  0  0  0  0  0  0  0  0  0  0
    6.3390   -2.2130   25.5720 C   0  0  0  0  0  0  0  0  0  0  0  0
    5.3950   -3.7320   23.8780 C   0  0  0  0  0  0  0  0  0  0  0  0
    8.9400    0.5430   24.4040 C   0  0  0  0  0  0  0  0  0  0  0  0
    9.5770   -1.5450   25.4940 C   0  0  0  0  0  0  0  0  0  0  0  0
    5.4790   -0.0530   23.1440 C   0  0  0  0  0  0  0  0  0  0  0  0
    7.2010   -3.3080   26.2650 C   0  0  0  0  0  0  0  0  0  0  0  0
    5.9250   -4.9570   24.6260 C   0  0  0  0  0  0  0  0  0  0  0  0
    9.2340   -0.2320   25.7350 C   0  0  2  0  0  0  0  0  0  0  0  0
    5.8710    0.2430   21.8560 C   0  0  0  0  0  0  0  0  0  0  0  0
    7.0290   -4.7500   25.7100 C   0  0  0  0  0  0  0  0  0  0  0  0
    8.3040   -0.1510   26.5630 O   0  0  0  0  0  0  0  0  0  0  0  0
    5.2420   -0.5410   20.6580 C   0  0  0  0  0  0  0  0  0  0  0  0
    6.8980    1.3050   21.6970 C   0  0  0  0  0  0  0  0  0  0  0  0
    5.8570   -0.0680   19.3750 C   0  0  0  0  0  0  0  0  0  0  0  0
    7.5650    1.8410   20.4440 N   0  0  0  0  0  0  0  0  0  0  0  0
    6.7010    0.8780   19.9220 C   0  0  0  0  0  0  0  0  0  0  0  0
  1  2  2  3
  1  3  1  0
  3  4  2  0
  3  5  1  0
  4  6  1  0
  5  7  2  0
  6  8  2  0
  7  8  1  0
  7  9  1  0
 10  9  1  1
  9 11  1  0
 10 12  1  0
 10 13  1  0
 11 14  1  0
 11 15  1  0
 11 16  1  0
 12 17  1  0
 13 18  1  0
 14 19  3  0
 15 20  1  0
 16 21  1  0
 17 22  1  0
 18 22  1  0
 19 23  1  0
 20 24  1  0
 21 24  1  0
 22 25  1  1
 23 26  2  0
 23 27  1  0
 26 28  1  0
 27 29  2  0
 28 30  2  0
 29 30  1  0
M  END
