WAR-XCH-b0339bbe-19-chloroacetamide
     RDKit          3D

 25 28  0  0  0  0  0  0  0  0999 V2000
    8.2000   -3.6310   19.6640 C   0  0  0  0  0  0  0  0  0  0  0  0
    7.1070   -4.3320   20.5010 C   0  0  0  0  0  0  0  0  0  0  0  0
    6.0080   -4.6770   20.0050 O   0  0  0  0  0  0  0  0  0  0  0  0
    7.4240   -4.6250   21.8260 N   0  0  0  0  0  0  0  0  0  0  0  0
    8.4940   -3.8770   22.4440 C   0  0  0  0  0  0  0  0  0  0  0  0
    6.8830   -5.8220   22.5610 C   0  0  0  0  0  0  0  0  0  0  0  0
    8.7970   -4.0690   23.7890 C   0  0  0  0  0  0  0  0  0  0  0  0
    7.1870   -5.7550   24.0650 C   0  0  0  0  0  0  0  0  0  0  0  0
    7.6240   -4.3930   24.3830 C   0  0  0  0  0  0  0  0  0  0  0  0
    7.0910   -3.5690   25.3110 C   0  0  0  0  0  0  0  0  0  0  0  0
    6.2820   -3.0120   24.6870 N   0  0  0  0  0  0  0  0  0  0  0  0
    7.1930   -3.2080   26.5410 C   0  0  0  0  0  0  0  0  0  0  0  0
    5.4590   -2.0920   24.9420 C   0  0  0  0  0  0  0  0  0  0  0  0
    6.2960   -2.1060   26.9210 C   0  0  0  0  0  0  0  0  0  0  0  0
    8.0670   -3.8140   27.3150 C   0  0  0  0  0  0  0  0  0  0  0  0
    5.2120   -2.3940   23.6500 C   0  0  0  0  0  0  0  0  0  0  0  0
    5.2980   -1.4340   26.1070 N   0  0  0  0  0  0  0  0  0  0  0  0
    6.4460   -1.6680   28.2160 C   0  0  0  0  0  0  0  0  0  0  0  0
    8.2070   -3.3780   28.5260 C   0  0  0  0  0  0  0  0  0  0  0  0
    6.1470   -1.7450   22.7850 C   0  0  0  0  0  0  0  0  0  0  0  0
    4.2110   -3.3930   23.2720 C   0  0  0  0  0  0  0  0  0  0  0  0
    7.4040   -2.3100   28.9680 C   0  0  0  0  0  0  0  0  0  0  0  0
    6.0820   -2.1960   21.3610 C   0  0  0  0  0  0  0  0  0  0  0  0
    4.1260   -3.8130   21.9840 N   0  0  0  0  0  0  0  0  0  0  0  0
    5.0550   -3.2530   20.9570 C   0  0  0  0  0  0  0  0  0  0  0  0
  1  2  1  0
  2  3  2  0
  2  4  1  0
  4  5  1  0
  4  6  1  0
  5  7  1  0
  6  8  1  0
  7  9  1  0
  8  9  1  0
  9 10  1  0
 10 11  2  0
 10 12  1  0
 11 13  1  0
 12 14  2  0
 12 15  1  0
 13 16  1  0
 13 17  2  0
 14 17  1  0
 14 18  1  0
 15 19  2  0
 16 20  2  0
 16 21  1  0
 18 22  2  0
 19 22  1  0
 20 23  1  0
 21 24  2  0
 23 25  2  0
 24 25  1  0
M  END
