WAR-XCH-6eb0722e-2
     RDKit          3D

 25 26  0  0  0  0  0  0  0  0999 V2000
    4.5890   -1.9890   24.3870 C   0  0  0  0  0  0  0  0  0  0  0  0
    5.2830   -1.4060   25.9330 S   0  0  0  0  0  0  0  0  0  0  0  0
    4.2860   -0.5860   26.6010 O   0  0  0  0  0  0  0  0  0  0  0  0
    5.9330   -2.4950   26.6300 O   0  0  0  0  0  0  0  0  0  0  0  0
    6.4600   -0.3570   25.3810 N   0  0  0  0  0  0  0  0  0  0  0  0
    7.4780    0.2370   26.2730 C   0  0  0  0  0  0  0  0  0  0  0  0
    8.9220    0.0200   25.7820 C   0  0  0  0  0  0  0  0  0  0  0  0
    9.3830    0.9500   24.6500 C   0  0  0  0  0  0  0  0  0  0  0  0
   10.4560    0.2920   23.8390 C   0  0  0  0  0  0  0  0  0  0  0  0
   11.8190    0.5260   23.9920 C   0  0  0  0  0  0  0  0  0  0  0  0
   10.0730   -0.6320   22.8450 C   0  0  0  0  0  0  0  0  0  0  0  0
   12.7810   -0.1230   23.2220 C   0  0  0  0  0  0  0  0  0  0  0  0
   11.0150   -1.2680   22.1020 C   0  0  0  0  0  0  0  0  0  0  0  0
    8.7370   -0.9010   22.5880 N   0  0  0  0  0  0  0  0  0  0  0  0
   12.3250   -1.0350   22.2730 C   0  0  0  0  0  0  0  0  0  0  0  0
    8.1540   -0.1530   21.5900 C   0  0  0  0  0  0  0  0  0  0  0  0
   13.3150   -1.9240   21.2450 Cl  0  0  0  0  0  0  0  0  0  0  0  0
    8.5960    0.9320   21.2290 O   0  0  0  0  0  0  0  0  0  0  0  0
    7.0350   -0.7300   21.0390 N   0  0  0  0  0  0  0  0  0  0  0  0
    6.3910   -0.0640   19.9940 C   0  0  0  0  0  0  0  0  0  0  0  0
    5.2000    0.6180   20.2500 C   0  0  0  0  0  0  0  0  0  0  0  0
    6.8860   -0.0360   18.7100 C   0  0  0  0  0  0  0  0  0  0  0  0
    4.5740    1.3000   19.2070 C   0  0  0  0  0  0  0  0  0  0  0  0
    6.3000    0.6160   17.6890 N   0  0  0  0  0  0  0  0  0  0  0  0
    5.1610    1.2740   17.9500 C   0  0  0  0  0  0  0  0  0  0  0  0
  1  2  1  0
  2  3  2  0
  2  4  2  0
  2  5  1  0
  5  6  1  0
  6  7  1  0
  7  8  1  0
  8  9  1  0
  9 10  2  0
  9 11  1  0
 10 12  1  0
 11 13  2  0
 11 14  1  0
 12 15  2  0
 13 15  1  0
 14 16  1  0
 15 17  1  0
 16 18  2  0
 16 19  1  0
 19 20  1  0
 20 21  2  0
 20 22  1  0
 21 23  1  0
 22 24  2  0
 23 25  2  0
 24 25  1  0
M  END
