WAR-XCH-79d12f6e-12
     RDKit          3D

 23 26  0  0  0  0  0  0  0  0999 V2000
    5.1210    1.6810   18.2260 C   0  0  0  0  0  0  0  0  0  0  0  0
    5.5600    0.4490   18.9530 C   0  0  0  0  0  0  0  0  0  0  0  0
    5.1500   -0.8140   18.4970 C   0  0  0  0  0  0  0  0  0  0  0  0
    6.3720    0.5820   20.0940 C   0  0  0  0  0  0  0  0  0  0  0  0
    5.4780   -2.0330   19.1140 C   0  0  0  0  0  0  0  0  0  0  0  0
    6.7610   -0.7170   20.7700 C   0  0  0  0  0  0  0  0  0  0  0  0
    6.8870    1.8730   20.7210 C   0  0  0  0  0  0  0  0  0  0  0  0
    5.1300   -3.4600   18.8110 N   0  0  0  0  0  0  0  0  0  0  0  0
    6.2850   -1.8930   20.2350 C   0  0  0  0  0  0  0  0  0  0  0  0
    5.8280   -4.1080   19.9100 C   0  0  0  0  0  0  0  0  0  0  0  0
    6.5380   -3.2070   20.7570 N   0  0  0  0  0  0  0  0  0  0  0  0
    7.3310   -3.4990   21.9180 C   0  0  0  0  0  0  0  0  0  0  0  0
    6.2210   -3.4370   22.8790 C   0  0  0  0  0  0  0  0  0  0  0  0
    7.9320   -4.7720   21.9170 C   0  0  0  0  0  0  0  0  0  0  0  0
    8.3720   -2.5970   22.1670 C   0  0  0  0  0  0  0  0  0  0  0  0
    5.9090   -2.1560   23.5080 C   0  0  0  0  0  0  0  0  0  0  0  0
    5.5220   -4.5930   23.1190 C   0  0  0  0  0  0  0  0  0  0  0  0
    8.4050   -5.0330   23.2040 C   0  0  0  0  0  0  0  0  0  0  0  0
    9.5700   -3.1150   22.5960 C   0  0  0  0  0  0  0  0  0  0  0  0
    4.7770   -2.1780   24.4360 C   0  0  0  0  0  0  0  0  0  0  0  0
    4.3920   -4.6550   24.0380 N   0  0  0  0  0  0  0  0  0  0  0  0
    9.3190   -4.0340   23.5990 C   0  0  0  0  0  0  0  0  0  0  0  0
    4.0210   -3.5190   24.6730 C   0  0  0  0  0  0  0  0  0  0  0  0
  1  2  1  0
  2  3  2  0
  2  4  1  0
  3  5  1  0
  4  6  2  0
  4  7  1  0
  5  8  1  0
  5  9  2  0
  6  9  1  0
  8 10  2  0
  9 11  1  0
 10 11  1  0
 11 12  1  0
 12 13  1  0
 12 14  1  0
 12 15  1  0
 13 16  2  0
 13 17  1  0
 14 18  1  0
 15 19  1  0
 16 20  1  0
 17 21  2  0
 18 22  1  0
 19 22  1  0
 20 23  2  0
 21 23  1  0
M  END
