WAR-XCH-b6889685-16
     RDKit          3D

 25 27  0  0  0  0  0  0  0  0999 V2000
   21.8250  -22.3370   16.0630 C   0  0  0  0  0  0  0  0  0  0  0  0
   21.9440  -23.2580   17.3020 C   0  0  0  0  0  0  0  0  0  0  0  0
   21.8120  -24.8170   17.3780 C   0  0  0  0  0  0  0  0  0  0  0  0
   22.2060  -22.5720   18.4790 C   0  0  0  0  0  0  0  0  0  0  0  0
   21.9580  -25.5410   18.7590 C   0  0  0  0  0  0  0  0  0  0  0  0
   22.3760  -23.2040   19.8500 C   0  0  0  0  0  0  0  0  0  0  0  0
   22.2520  -24.7010   20.0450 C   0  0  0  0  0  0  0  0  0  0  0  0
   22.6210  -22.4270   20.7780 O   0  0  0  0  0  0  0  0  0  0  0  0
   22.1970  -22.7080   22.1290 C   0  0  0  0  0  0  0  0  0  0  0  0
   22.6670  -21.4860   22.9770 C   0  0  0  0  0  0  0  0  0  0  0  0
   23.9850  -20.9770   22.4210 C   0  0  0  0  0  0  0  0  0  0  0  0
   22.7050  -21.5060   24.3560 C   0  0  0  0  0  0  0  0  0  0  0  0
   24.4320  -19.7030   23.0970 C   0  0  0  0  0  0  0  0  0  0  0  0
   22.7100  -20.0700   24.9150 C   0  0  0  0  0  0  0  0  0  0  0  0
   23.3580  -19.1650   23.9400 N   0  0  0  0  0  0  0  0  0  0  0  0
   23.5220  -17.8290   24.1600 C   0  0  0  0  0  0  0  0  0  0  0  0
   23.2870  -17.2280   25.4090 C   0  0  0  0  0  0  0  0  0  0  0  0
   23.9650  -17.0990   23.0390 C   0  0  0  0  0  0  0  0  0  0  0  0
   23.5050  -15.8650   25.5670 C   0  0  0  0  0  0  0  0  0  0  0  0
   24.2220  -15.6270   23.1260 C   0  0  0  0  0  0  0  0  0  0  0  0
   23.9860  -15.1070   24.3610 C   0  0  0  0  0  0  0  0  0  0  0  0
   24.2710  -13.3950   24.5730 S   0  0  0  0  0  0  0  0  0  0  0  0
   25.1780  -13.5310   25.9870 N   0  0  0  0  0  0  0  0  0  0  0  0
   22.9960  -12.7750   24.8130 O   0  0  0  0  0  0  0  0  0  0  0  0
   25.1800  -12.9270   23.5460 O   0  0  0  0  0  0  0  0  0  0  0  0
  1  2  1  0
  2  3  2  0
  2  4  1  0
  3  5  1  0
  4  6  2  0
  5  7  2  0
  6  7  1  0
  6  8  1  0
  8  9  1  0
  9 10  1  0
 10 11  1  0
 10 12  1  0
 11 13  1  0
 12 14  1  0
 13 15  1  0
 14 15  1  0
 15 16  1  0
 16 17  2  0
 16 18  1  0
 17 19  1  0
 18 20  2  0
 19 21  2  0
 20 21  1  0
 21 22  1  0
 22 23  1  0
 22 24  2  0
 22 25  2  0
M  END
