WAR-XCH-79d12f6e-8-acrylamide
     RDKit          3D

 22 24  0  0  0  0  0  0  0  0999 V2000
    7.5850   -4.5930   20.8330 C   0  0  0  0  0  0  0  0  0  0  0  0
    7.1370   -5.0210   22.0310 C   0  0  0  0  0  0  0  0  0  0  0  0
    5.6300   -4.9290   22.0610 C   0  0  0  0  0  0  0  0  0  0  0  0
    4.4770   -4.6470   22.3800 O   0  0  0  0  0  0  0  0  0  0  0  0
    5.9190   -4.1290   23.1720 N   0  0  0  0  0  0  0  0  0  0  0  0
    5.0340   -3.0260   23.5190 C   0  0  0  0  0  0  0  0  0  0  0  0
    7.3150   -3.8790   23.5740 C   0  0  0  0  0  0  0  0  0  0  0  0
    5.8780   -1.7720   23.7440 C   0  0  0  0  0  0  0  0  0  0  0  0
    7.8940   -2.7590   22.9480 C   0  0  0  0  0  0  0  0  0  0  0  0
    7.0750   -1.6660   22.8730 N   0  0  0  0  0  0  0  0  0  0  0  0
    6.8150   -1.1250   21.5160 C   0  0  0  0  0  0  0  0  0  0  0  0
    6.5640    0.2600   21.5230 C   0  0  0  0  0  0  0  0  0  0  0  0
    7.8490   -1.4730   20.4660 C   0  0  0  0  0  0  0  0  0  0  0  0
    5.5880   -1.8970   21.0570 C   0  0  0  0  0  0  0  0  0  0  0  0
    5.2930    0.7930   21.2140 C   0  0  0  0  0  0  0  0  0  0  0  0
    7.5590    1.1900   21.8300 C   0  0  0  0  0  0  0  0  0  0  0  0
    7.4390   -1.2490   18.9990 C   0  0  0  0  0  0  0  0  0  0  0  0
    5.1380   -1.7380   19.7380 C   0  0  0  0  0  0  0  0  0  0  0  0
    5.0600    2.1650   21.2190 C   0  0  0  0  0  0  0  0  0  0  0  0
    7.3960    2.6610   21.8630 N   0  0  0  0  0  0  0  0  0  0  0  0
    6.0280   -1.7100   18.6720 C   0  0  0  0  0  0  0  0  0  0  0  0
    6.0860    3.0570   21.5340 C   0  0  0  0  0  0  0  0  0  0  0  0
  1  2  1  0
  2  3  1  0
  3  4  2  0
  3  5  1  0
  5  6  1  0
  5  7  1  0
  6  8  1  0
  7  9  1  0
  8 10  1  0
  9 10  1  0
 10 11  1  0
 11 12  1  0
 11 13  1  0
 11 14  1  0
 12 15  2  0
 12 16  1  0
 13 17  1  0
 14 18  1  0
 15 19  1  0
 16 20  2  0
 17 21  1  0
 18 21  1  0
 19 22  2  0
 20 22  1  0
M  END
