WAR-XCH-b0339bbe-13-acrylamide
     RDKit          3D

 26 28  0  0  0  0  0  0  0  0999 V2000
    8.5870   -5.0190   20.4180 C   0  0  0  0  0  0  0  0  0  0  0  0
    7.0990   -5.4570   20.2930 C   0  0  0  0  0  0  0  0  0  0  0  0
    5.9590   -4.6170   20.9000 C   0  0  0  0  0  0  0  0  0  0  0  0
    5.1750   -3.7400   21.2170 O   0  0  0  0  0  0  0  0  0  0  0  0
    6.3280   -3.3150   20.2060 C   0  0  0  0  0  0  0  0  0  0  0  0
    5.6770   -2.7940   19.0690 C   0  0  0  0  0  0  0  0  0  0  0  0
    7.3450   -2.5440   20.7260 C   0  0  0  0  0  0  0  0  0  0  0  0
    6.0390   -1.5650   18.4750 C   0  0  0  0  0  0  0  0  0  0  0  0
    7.7480   -1.3360   20.1890 C   0  0  0  0  0  0  0  0  0  0  0  0
    8.0850   -2.9710   21.9530 C   0  0  0  0  0  0  0  0  0  0  0  0
    7.1530   -0.7870   19.0760 C   0  0  0  0  0  0  0  0  0  0  0  0
    7.6300   -2.3140   23.1400 N   0  0  0  0  0  0  0  0  0  0  0  0
    6.2550   -2.5340   23.6830 C   0  0  0  0  0  0  0  0  0  0  0  0
    6.1780   -3.0620   25.1500 C   0  0  0  0  0  0  0  0  0  0  0  0
    5.4910   -1.2210   23.7060 C   0  0  0  0  0  0  0  0  0  0  0  0
    5.4190   -3.4620   22.8060 C   0  0  0  0  0  0  0  0  0  0  0  0
    5.8150   -4.4010   25.2430 C   0  0  0  0  0  0  0  0  0  0  0  0
    4.2460   -1.4580   24.5670 C   0  0  0  0  0  0  0  0  0  0  0  0
    4.1980   -3.7170   23.4030 C   0  0  0  0  0  0  0  0  0  0  0  0
    6.7140   -5.0850   24.4910 C   0  0  0  0  0  0  0  0  0  0  0  0
    3.8330   -2.9560   24.5170 C   0  0  0  0  0  0  0  0  0  0  0  0
    6.4000   -5.8140   23.3410 C   0  0  0  0  0  0  0  0  0  0  0  0
    8.1120   -5.0110   24.9280 N   0  0  0  0  0  0  0  0  0  0  0  0
    7.3580   -6.4480   22.6030 C   0  0  0  0  0  0  0  0  0  0  0  0
    9.1550   -5.6770   24.1560 C   0  0  0  0  0  0  0  0  0  0  0  0
    8.7910   -6.3680   23.0320 C   0  0  0  0  0  0  0  0  0  0  0  0
  1  2  1  0
  2  3  1  0
  3  4  2  0
  3  5  1  0
  5  6  2  0
  5  7  1  0
  6  8  1  0
  7  9  2  0
  7 10  1  0
  8 11  2  0
  9 11  1  0
 10 12  1  0
 12 13  1  0
 13 14  1  0
 13 15  1  0
 13 16  1  0
 14 17  3  0
 15 18  1  0
 16 19  1  0
 17 20  1  0
 18 21  1  0
 19 21  1  0
 20 22  2  0
 20 23  1  0
 22 24  1  0
 23 25  2  0
 24 26  2  0
 25 26  1  0
M  END
