WAR-XCH-bdd24732-8
     RDKit          3D

 32 35  0  0  0  0  0  0  0  0999 V2000
    7.1680   -0.7860   26.0600 O   0  0  0  0  0  0  0  0  0  0  0  0
    7.8920   -1.7080   25.2110 S   0  0  0  0  0  0  0  0  0  0  0  0
    9.1890   -1.3790   24.6610 O   0  0  0  0  0  0  0  0  0  0  0  0
    8.0230   -3.2070   26.1710 C   0  0  0  0  0  0  0  0  0  0  0  0
    6.8730   -2.0970   23.9460 N   0  0  0  0  0  0  0  0  0  0  0  0
    6.9900   -3.5170   27.2490 C   0  0  0  0  0  0  0  0  0  0  0  0
    9.0860   -4.0840   25.9350 C   0  0  0  0  0  0  0  0  0  0  0  0
    7.1410   -1.7280   22.6100 C   0  0  1  0  0  0  0  0  0  0  0  0
    5.6190   -2.5740   24.3990 C   0  0  0  0  0  0  0  0  0  0  0  0
    7.1260   -4.7010   28.0030 C   0  0  0  0  0  0  0  0  0  0  0  0
    9.2110   -5.2580   26.6860 C   0  0  0  0  0  0  0  0  0  0  0  0
    9.9980   -3.8060   24.9910 F   0  0  0  0  0  0  0  0  0  0  0  0
    7.8640   -2.8080   21.9350 C   0  0  0  0  0  0  0  0  0  0  0  0
    6.1010   -1.1240   21.8600 C   0  0  0  0  0  0  0  0  0  0  0  0
    5.5080   -3.4730   25.4740 C   0  0  0  0  0  0  0  0  0  0  0  0
    4.8110   -1.3370   24.8800 C   0  0  0  0  0  0  0  0  0  0  0  0
    4.6460   -3.2180   23.3940 C   0  0  0  0  0  0  0  0  0  0  0  0
    8.1810   -5.5770   27.7710 C   0  0  0  0  0  0  0  0  0  0  0  0
    6.8540   -3.8100   21.5890 C   0  0  0  0  0  0  0  0  0  0  0  0
    5.9860   -1.7540   20.5990 C   0  0  0  0  0  0  0  0  0  0  0  0
    6.0350   -4.7690   25.4210 C   0  0  0  0  0  0  0  0  0  0  0  0
    3.5930   -1.7420   25.7300 C   0  0  0  0  0  0  0  0  0  0  0  0
    3.5010   -3.8740   24.1710 C   0  0  0  0  0  0  0  0  0  0  0  0
    5.7690   -3.1160   20.7460 C   0  0  1  0  0  0  0  0  0  0  0  0
    5.8900   -5.3620   24.2110 C   0  0  0  0  0  0  0  0  0  0  0  0
    2.8080   -2.9810   25.2340 C   0  0  0  0  0  0  0  0  0  0  0  0
    5.5340   -3.7960   19.5010 O   0  0  0  0  0  0  0  0  0  0  0  0
    7.1000   -5.5240   23.3370 C   0  0  0  0  0  0  0  0  0  0  0  0
    4.6270   -5.7790   23.8020 C   0  0  0  0  0  0  0  0  0  0  0  0
    6.8570   -6.1360   22.0100 C   0  0  0  0  0  0  0  0  0  0  0  0
    4.2700   -6.3950   22.5180 N   0  0  0  0  0  0  0  0  0  0  0  0
    5.4600   -6.5250   21.6820 C   0  0  0  0  0  0  0  0  0  0  0  0
  1  2  2  0
  2  3  2  0
  2  4  1  0
  2  5  1  0
  4  6  2  0
  4  7  1  0
  8  5  1  1
  5  9  1  0
  6 10  1  0
  7 11  2  0
  7 12  1  0
  8 13  1  0
  8 14  1  0
  9 15  1  0
  9 16  1  0
  9 17  1  0
 10 18  2  0
 11 18  1  0
 13 19  1  0
 14 20  1  0
 15 21  3  0
 16 22  1  0
 17 23  1  0
 19 24  1  0
 20 24  1  0
 21 25  1  0
 22 26  1  0
 23 26  1  0
 24 27  1  6
 25 28  2  0
 25 29  1  0
 28 30  1  0
 29 31  2  0
 30 32  2  0
 31 32  1  0
M  END
