WAR-XCH-b6889685-38
     RDKit          3D

 32 36  0  0  0  0  0  0  0  0999 V2000
    7.3270    0.5990   14.0820 N   0  0  0  0  0  0  0  0  0  0  0  0
    7.9060    0.8840   15.6350 S   0  0  0  0  0  0  0  0  0  0  0  0
    8.8260   -0.2080   15.8360 O   0  0  0  0  0  0  0  0  0  0  0  0
    8.2700    2.2100   15.4950 O   0  0  0  0  0  0  0  0  0  0  0  0
    6.9550    1.1370   17.1580 C   0  0  0  0  0  0  0  0  0  0  0  0
    5.7220    2.0500   17.5040 C   0  0  0  0  0  0  0  0  0  0  0  0
    7.3830    0.4250   18.2320 C   0  0  0  0  0  0  0  0  0  0  0  0
    4.9960    2.2530   18.8820 C   0  0  0  0  0  0  0  0  0  0  0  0
    6.7860    0.5350   19.6300 C   0  0  0  0  0  0  0  0  0  0  0  0
    5.6970    1.3660   19.9650 C   0  0  0  0  0  0  0  0  0  0  0  0
    5.1060    1.4860   21.3160 N   0  0  0  0  0  0  0  0  0  0  0  0
    4.4990    0.2660   21.8890 C   0  0  0  0  0  0  0  0  0  0  0  0
    5.8950    2.2700   22.2600 C   0  0  0  0  0  0  0  0  0  0  0  0
    5.6740   -0.6900   22.1870 C   0  0  0  0  0  0  0  0  0  0  0  0
    6.9840    1.4750   22.6260 C   0  0  0  0  0  0  0  0  0  0  0  0
    6.3910    0.1960   23.2490 C   0  0  0  0  0  0  0  0  0  0  0  0
    7.3750   -0.4420   24.1760 N   0  0  0  0  0  0  0  0  0  0  0  0
    8.2770   -1.5410   23.7310 C   0  0  0  0  0  0  0  0  0  0  0  0
    9.6940   -1.1150   23.2790 C   0  0  0  0  0  0  0  0  0  0  0  0
    7.6510   -2.5690   22.7460 C   0  0  0  0  0  0  0  0  0  0  0  0
    8.4720   -2.5470   24.9200 C   0  0  0  0  0  0  0  0  0  0  0  0
   10.6220   -2.1650   22.6910 C   0  0  0  0  0  0  0  0  0  0  0  0
   10.2440    0.1960   23.3570 C   0  0  0  0  0  0  0  0  0  0  0  0
    7.9070   -3.9340   23.3340 C   0  0  0  0  0  0  0  0  0  0  0  0
    8.8510   -3.7760   24.3660 C   0  0  0  0  0  0  0  0  0  0  0  0
   11.9110   -1.8740   22.2820 C   0  0  0  0  0  0  0  0  0  0  0  0
   11.5760    0.4280   22.9140 C   0  0  0  0  0  0  0  0  0  0  0  0
    9.3870    1.3510   23.9200 C   0  0  0  0  0  0  0  0  0  0  0  0
   12.3880   -0.5880   22.3990 C   0  0  0  0  0  0  0  0  0  0  0  0
   12.1290    1.8180   22.9980 C   0  0  0  0  0  0  0  0  0  0  0  0
    9.9970    2.7540   23.9740 C   0  0  0  0  0  0  0  0  0  0  0  0
   11.4050    3.0410   23.5060 C   0  0  0  0  0  0  0  0  0  0  0  0
  2  1  1  0
  2  3  2  0
  2  4  2  0
  2  5  1  0
  5  6  2  0
  5  7  1  0
  6  8  1  0
  7  9  2  0
  8 10  2  0
  9 10  1  0
 10 11  1  0
 11 12  1  0
 11 13  1  0
 12 14  1  0
 13 15  1  0
 14 16  1  0
 15 16  1  0
 16 17  1  0
 18 17  1  0
 18 19  1  0
 18 20  1  0
 18 21  1  0
 19 22  2  0
 19 23  1  0
 20 24  1  0
 21 25  1  0
 24 25  1  0
 22 26  1  0
 23 27  2  0
 23 28  1  0
 26 29  2  0
 27 29  1  0
 27 30  1  0
 28 31  2  0
 30 32  2  0
 31 32  1  0
M  END
