WAR-XCH-b6889685-56
     RDKit          3D

 25 27  0  0  0  0  0  0  0  0999 V2000
    4.7260    0.9700   17.8450 C   0  0  0  0  0  0  0  0  0  0  0  0
    5.6860    0.5900   18.9490 C   0  0  0  0  0  0  0  0  0  0  0  0
    5.7840    1.2090   20.3560 C   0  0  0  0  0  0  0  0  0  0  0  0
    6.5420   -0.4300   18.6190 C   0  0  0  0  0  0  0  0  0  0  0  0
    6.8680    0.6520   21.3550 C   0  0  0  0  0  0  0  0  0  0  0  0
    7.6040   -1.0080   19.5000 C   0  0  0  0  0  0  0  0  0  0  0  0
    7.8620   -0.5200   20.9200 C   0  0  0  0  0  0  0  0  0  0  0  0
    8.8430   -0.8910   22.0620 N   0  0  0  0  0  0  0  0  0  0  0  0
    8.6350    0.3090   22.7960 C   0  0  0  0  0  0  0  0  0  0  0  0
   10.3640   -0.9590   22.4730 C   0  0  0  0  0  0  0  0  0  0  0  0
   11.5110   -1.7100   21.7720 C   0  0  0  0  0  0  0  0  0  0  0  0
   10.5420   -1.4280   23.8190 C   0  0  0  0  0  0  0  0  0  0  0  0
   12.8870   -1.1530   22.2600 C   0  0  0  0  0  0  0  0  0  0  0  0
   11.9610   -1.1920   24.3760 C   0  0  0  0  0  0  0  0  0  0  0  0
   12.6770   -0.3700   23.4050 N   0  0  0  0  0  0  0  0  0  0  0  0
   12.1230    0.9540   23.4640 C   0  0  0  0  0  0  0  0  0  0  0  0
   10.8650    1.2430   24.0360 C   0  0  0  0  0  0  0  0  0  0  0  0
   12.8090    2.0600   22.9500 C   0  0  0  0  0  0  0  0  0  0  0  0
   10.3350    2.5440   24.0840 C   0  0  0  0  0  0  0  0  0  0  0  0
   12.2890    3.3590   22.9910 C   0  0  0  0  0  0  0  0  0  0  0  0
   11.0490    3.6140   23.5600 C   0  0  0  0  0  0  0  0  0  0  0  0
   10.3290    5.2680   23.6570 S   0  0  0  0  0  0  0  0  0  0  0  0
    8.9450    5.1320   22.6630 N   0  0  0  0  0  0  0  0  0  0  0  0
   11.2280    6.2200   23.0520 O   0  0  0  0  0  0  0  0  0  0  0  0
    9.8210    5.4730   24.9960 O   0  0  0  0  0  0  0  0  0  0  0  0
  1  2  1  0
  2  3  2  0
  2  4  1  0
  3  5  1  0
  4  6  2  0
  5  7  2  0
  6  7  1  0
  7  8  1  0
  8  9  1  0
  8 10  1  0
 10 11  1  0
 10 12  1  0
 11 13  1  0
 12 14  1  0
 13 15  1  0
 14 15  1  0
 15 16  1  0
 16 17  2  0
 16 18  1  0
 17 19  1  0
 18 20  2  0
 19 21  2  0
 20 21  1  0
 21 22  1  0
 22 23  1  0
 22 24  2  0
 22 25  2  0
M  END
