WAR-XCH-b6889685-5
     RDKit          3D

 26 28  0  0  0  0  0  0  0  0999 V2000
   23.9500  -21.4440   20.3110 C   0  0  0  0  0  0  0  0  0  0  0  0
   22.7740  -22.2830   20.5810 N   0  0  0  0  0  0  0  0  0  0  0  0
   22.6500  -22.4460   21.9990 C   0  0  0  0  0  0  0  0  0  0  0  0
   22.4900  -23.2540   19.6360 C   0  0  0  0  0  0  0  0  0  0  0  0
   23.0790  -21.2490   22.9450 C   0  0  0  0  0  0  0  0  0  0  0  0
   22.2110  -24.7060   20.0000 C   0  0  0  0  0  0  0  0  0  0  0  0
   22.4480  -22.9230   18.1140 C   0  0  0  0  0  0  0  0  0  0  0  0
   22.5980  -21.4580   24.3710 C   0  0  0  0  0  0  0  0  0  0  0  0
   24.5040  -20.8000   22.9340 C   0  0  0  0  0  0  0  0  0  0  0  0
   21.9310  -25.7690   18.9450 C   0  0  0  0  0  0  0  0  0  0  0  0
   22.1690  -23.9930   17.0670 C   0  0  0  0  0  0  0  0  0  0  0  0
   22.4400  -19.9090   24.6180 C   0  0  0  0  0  0  0  0  0  0  0  0
   24.2900  -19.4400   22.8440 C   0  0  0  0  0  0  0  0  0  0  0  0
   21.9130  -25.4460   17.4490 C   0  0  0  0  0  0  0  0  0  0  0  0
   23.5440  -19.0450   24.0570 N   0  0  0  0  0  0  0  0  0  0  0  0
   21.6880  -26.4110   16.5510 F   0  0  0  0  0  0  0  0  0  0  0  0
   24.0980  -17.9910   24.7240 C   0  0  0  0  0  0  0  0  0  0  0  0
   25.6570  -17.9790   24.8340 C   0  0  0  0  0  0  0  0  0  0  0  0
   23.3230  -16.9550   25.2780 C   0  0  0  0  0  0  0  0  0  0  0  0
   26.1940  -16.7540   25.5730 C   0  0  0  0  0  0  0  0  0  0  0  0
   23.8860  -15.8730   25.9370 C   0  0  0  0  0  0  0  0  0  0  0  0
   25.2450  -15.7150   26.1080 C   0  0  0  0  0  0  0  0  0  0  0  0
   25.7580  -14.2670   26.9470 S   0  0  0  0  0  0  0  0  0  0  0  0
   27.3140  -13.9380   26.3060 N   0  0  0  0  0  0  0  0  0  0  0  0
   24.8540  -13.2950   26.4260 O   0  0  0  0  0  0  0  0  0  0  0  0
   25.9170  -14.5780   28.3530 O   0  0  0  0  0  0  0  0  0  0  0  0
  1  2  1  0
  2  3  1  0
  2  4  1  0
  3  5  1  0
  4  6  2  0
  4  7  1  0
  5  8  1  0
  5  9  1  0
  6 10  1  0
  7 11  2  0
  8 12  1  0
  9 13  1  0
 10 14  2  0
 11 14  1  0
 12 15  1  0
 13 15  1  0
 14 16  1  0
 15 17  1  0
 17 18  2  0
 17 19  1  0
 18 20  1  0
 19 21  2  0
 20 22  2  0
 21 22  1  0
 22 23  1  0
 23 24  1  0
 23 25  2  0
 23 26  2  0
M  END
