WAR-XCH-b0339bbe-5
     RDKit          3D

 27 30  0  0  0  0  0  0  0  0999 V2000
    5.8800   -6.6030   26.9800 N   0  0  0  0  0  0  0  0  0  0  0  0
    4.5100   -6.3890   26.0310 S   0  0  0  0  0  0  0  0  0  0  0  0
    3.4470   -5.9720   26.9280 O   0  0  0  0  0  0  0  0  0  0  0  0
    4.3540   -7.5150   25.0960 O   0  0  0  0  0  0  0  0  0  0  0  0
    5.0220   -4.9110   25.1990 C   0  0  0  0  0  0  0  0  0  0  0  0
    4.7470   -3.5620   25.8280 C   0  0  0  0  0  0  0  0  0  0  0  0
    5.6810   -4.9660   23.9650 C   0  0  0  0  0  0  0  0  0  0  0  0
    5.1640   -2.4110   25.1500 C   0  0  0  0  0  0  0  0  0  0  0  0
    6.0820   -3.7860   23.3060 C   0  0  0  0  0  0  0  0  0  0  0  0
    5.8120   -2.4290   23.9350 C   0  0  0  0  0  0  0  0  0  0  0  0
    6.6930   -3.8870   22.0990 C   0  0  0  0  0  0  0  0  0  0  0  0
    5.7490   -4.7010   21.2960 C   0  0  0  0  0  0  0  0  0  0  0  0
    6.9860   -2.6610   21.4530 C   0  0  0  0  0  0  0  0  0  0  0  0
    7.8980   -4.5000   22.3950 C   0  0  0  0  0  0  0  0  0  0  0  0
    4.6410   -4.8580   22.2590 C   0  0  0  0  0  0  0  0  0  0  0  0
    8.4250   -2.2080   21.6740 C   0  0  0  0  0  0  0  0  0  0  0  0
    8.5490   -3.8930   23.4360 C   0  0  0  0  0  0  0  0  0  0  0  0
    4.2210   -3.6140   22.9200 C   0  0  0  0  0  0  0  0  0  0  0  0
    4.0230   -6.0850   22.5470 C   0  0  0  0  0  0  0  0  0  0  0  0
    8.8390   -2.4180   23.1450 C   0  0  0  0  0  0  0  0  0  0  0  0
    3.0850   -3.7390   23.9400 C   0  0  0  0  0  0  0  0  0  0  0  0
    2.9740   -6.2390   23.4550 C   0  0  0  0  0  0  0  0  0  0  0  0
    2.4740   -5.1310   24.1660 C   0  0  0  0  0  0  0  0  0  0  0  0
    2.4130   -7.4960   23.6630 C   0  0  0  0  0  0  0  0  0  0  0  0
    1.3150   -5.3460   25.1620 C   0  0  0  0  0  0  0  0  0  0  0  0
    1.3760   -7.8340   24.5190 C   0  0  0  0  0  0  0  0  0  0  0  0
    0.8150   -6.6380   25.3080 C   0  0  0  0  0  0  0  0  0  0  0  0
  2  1  1  0
  2  3  2  0
  2  4  2  0
  2  5  1  0
  5  6  2  0
  5  7  1  0
  6  8  1  0
  7  9  2  0
  8 10  2  0
  9 10  1  0
  9 11  1  0
 11 12  1  0
 11 13  1  0
 11 14  1  0
 12 15  1  0
 13 16  1  0
 14 17  1  0
 15 18  2  0
 15 19  1  0
 16 20  1  0
 17 20  1  0
 18 21  1  0
 19 22  2  0
 21 23  2  0
 22 23  1  0
 22 24  1  0
 23 25  1  0
 24 26  2  0
 25 27  2  0
 26 27  1  0
M  END
