WAR-XCH-b72a1bbc-25
     RDKit          3D

 30 33  0  0  0  0  0  0  0  0999 V2000
   19.7300  -22.0230   17.8320 N   0  0  0  0  0  0  0  0  0  0  0  0
   18.7300  -20.6630   17.6010 S   0  0  0  0  0  0  0  0  0  0  0  0
   18.3420  -20.5010   16.2120 O   0  0  0  0  0  0  0  0  0  0  0  0
   20.0230  -19.9950   17.7060 O   0  0  0  0  0  0  0  0  0  0  0  0
   16.7540  -18.9900   19.5320 C   0  0  0  0  0  0  0  0  0  0  0  0
   16.3280  -17.3660   19.5870 C   0  0  0  0  0  0  0  0  0  0  0  0
   15.5590  -19.2040   20.6340 C   0  0  0  0  0  0  0  0  0  0  0  0
   14.9430  -16.5800   20.2500 C   0  0  0  0  0  0  0  0  0  0  0  0
   14.3530  -18.3050   21.2750 C   0  0  0  0  0  0  0  0  0  0  0  0
   13.8380  -16.7670   20.9690 C   0  0  0  0  0  0  0  0  0  0  0  0
   12.7220  -15.3410   21.0570 N   0  0  0  0  0  0  0  0  0  0  0  0
   13.3260  -14.1470   21.0290 C   0  0  0  0  0  0  0  0  0  0  0  0
   12.4210  -14.2680   20.0200 C   0  0  0  0  0  0  0  0  0  0  0  0
   13.0310  -12.5450   20.4970 C   0  0  0  0  0  0  0  0  0  0  0  0
   11.3110  -13.0260   20.1710 C   0  0  0  0  0  0  0  0  0  0  0  0
   11.6290  -11.6440   20.1740 C   0  0  0  0  0  0  0  0  0  0  0  0
   11.0350   -9.4940   20.6630 C   0  0  0  0  0  0  0  0  0  0  0  0
    9.9760   -8.4250   21.6540 N   0  0  0  0  0  0  0  0  0  0  0  0
    8.7250   -8.3130   22.3080 C   0  0  0  0  0  0  0  0  0  0  0  0
   10.2660   -6.9300   21.7840 C   0  0  0  0  0  0  0  0  0  0  0  0
    7.7450   -7.3590   22.1290 C   0  0  0  0  0  0  0  0  0  0  0  0
    9.1750   -5.8850   21.9620 C   0  0  1  0  0  0  0  0  0  0  0  0
    8.2390   -6.3270   22.7740 C   0  0  0  0  0  0  0  0  0  0  0  0
    9.2860   -4.4820   22.2200 C   0  0  0  0  0  0  0  0  0  0  0  0
    8.3790   -3.5330   21.4210 C   0  0  0  0  0  0  0  0  0  0  0  0
   10.2590   -3.8320   23.2510 C   0  0  0  0  0  0  0  0  0  0  0  0
    8.5320   -2.0340   21.6930 C   0  0  0  0  0  0  0  0  0  0  0  0
   10.3480   -2.4440   23.4290 C   0  0  0  0  0  0  0  0  0  0  0  0
    9.5510   -1.5420   22.7170 C   0  0  0  0  0  0  0  0  0  0  0  0
   11.4950   -1.8490   24.5580 Cl  0  0  0  0  0  0  0  0  0  0  0  0
  2  1  1  0
  2  3  2  0
  2  4  2  0
  2  5  1  0
  5  6  2  0
  5  7  1  0
  6  8  1  0
  7  9  2  0
  8 10  2  0
  9 10  1  0
 10 11  1  0
 11 12  1  0
 11 13  1  0
 12 14  1  0
 13 15  1  0
 14 16  1  0
 15 16  1  0
 16 17  1  0
 17 18  1  0
 18 19  1  0
 18 20  1  0
 19 21  1  0
 20 22  1  0
 21 23  1  0
 22 23  1  0
 22 24  1  1
 24 25  2  0
 24 26  1  0
 25 27  1  0
 26 28  2  0
 27 29  2  0
 28 29  1  0
 28 30  1  0
M  END
