WAR-XCH-e55cba98-10
     RDKit          3D

 24 26  0  0  0  0  0  0  0  0999 V2000
    9.2490    1.4750   21.3930 O   0  0  0  0  0  0  0  0  0  0  0  0
    8.7220    0.4960   21.9130 C   0  0  0  0  0  0  0  0  0  0  0  0
    8.9420    0.0320   23.3070 C   0  0  0  0  0  0  0  0  0  0  0  0
    7.8100   -0.2930   21.2920 N   0  0  0  0  0  0  0  0  0  0  0  0
   10.2250   -0.8370   23.3120 C   0  0  0  0  0  0  0  0  0  0  0  0
    6.9390    0.1650   20.1980 C   0  0  0  0  0  0  0  0  0  0  0  0
    9.7680   -2.3000   23.5100 C   0  0  0  0  0  0  0  0  0  0  0  0
   11.0690   -0.8970   22.2830 C   0  0  0  0  0  0  0  0  0  0  0  0
   11.0890   -0.6380   24.5290 C   0  0  0  0  0  0  0  0  0  0  0  0
    5.7930    1.1000   20.4930 C   0  0  0  0  0  0  0  0  0  0  0  0
    7.0990   -0.2050   18.8680 C   0  0  0  0  0  0  0  0  0  0  0  0
    8.4230   -2.6730   22.8600 C   0  0  0  0  0  0  0  0  0  0  0  0
   12.4210   -1.6220   22.2540 C   0  0  0  0  0  0  0  0  0  0  0  0
   12.4240   -0.2640   24.3720 C   0  0  0  0  0  0  0  0  0  0  0  0
    4.9690    1.5310   19.3480 C   0  0  0  0  0  0  0  0  0  0  0  0
    6.3180    0.2170   17.8430 N   0  0  0  0  0  0  0  0  0  0  0  0
    7.7140   -3.9540   22.8010 C   0  0  2  0  0  0  0  0  0  0  0  0
   13.2670   -1.0130   23.3480 C   0  0  0  0  0  0  0  0  0  0  0  0
    5.2900    1.0610   18.0930 C   0  0  0  0  0  0  0  0  0  0  0  0
    6.3230   -3.9430   22.3500 C   0  0  0  0  0  0  0  0  0  0  0  0
    7.6620   -4.5120   24.0700 C   0  0  0  0  0  0  0  0  0  0  0  0
    5.7730   -5.2110   21.9490 C   0  0  0  0  0  0  0  0  0  0  0  0
    6.6200   -5.5410   24.0720 N   0  0  0  0  0  0  0  0  0  0  0  0
    6.4740   -6.1060   22.7260 C   0  0  0  0  0  0  0  0  0  0  0  0
  1  2  2  0
  2  3  1  0
  2  4  1  0
  3  5  1  0
  4  6  1  0
  5  7  1  0
  5  8  1  0
  5  9  1  0
  6 10  2  0
  6 11  1  0
  7 12  3  0
  8 13  1  0
  9 14  1  0
 10 15  1  0
 11 16  2  0
 17 12  1  1
 13 18  1  0
 14 18  1  0
 15 19  2  0
 16 19  1  0
 17 20  1  0
 17 21  1  0
 20 22  1  0
 21 23  1  0
 22 24  1  0
 23 24  1  0
M  END
