WAR-XCH-bdd24732-39
     RDKit          3D

 32 35  0  0  0  0  0  0  0  0999 V2000
    6.7490   -1.1120   26.2110 O   0  0  0  0  0  0  0  0  0  0  0  0
    8.0720   -1.6940   26.2890 S   0  0  0  0  0  0  0  0  0  0  0  0
    9.1340   -0.9800   26.9600 O   0  0  0  0  0  0  0  0  0  0  0  0
    7.8560   -3.2970   27.0490 C   0  0  0  0  0  0  0  0  0  0  0  0
    8.6900   -2.1340   24.6940 N   0  0  0  0  0  0  0  0  0  0  0  0
    7.0040   -3.4140   28.1540 C   0  0  0  0  0  0  0  0  0  0  0  0
    8.5190   -4.4380   26.5720 C   0  0  0  0  0  0  0  0  0  0  0  0
    9.3190   -0.9480   23.9810 C   0  0  1  0  0  0  0  0  0  0  0  0
    7.7470   -3.0080   23.8600 C   0  0  0  0  0  0  0  0  0  0  0  0
    6.8280   -4.6560   28.7670 C   0  0  0  0  0  0  0  0  0  0  0  0
    8.3460   -5.6700   27.1950 C   0  0  0  0  0  0  0  0  0  0  0  0
    9.3430   -4.3950   25.5190 F   0  0  0  0  0  0  0  0  0  0  0  0
   10.0670    0.0870   24.8140 C   0  0  0  0  0  0  0  0  0  0  0  0
   10.0310   -1.3790   22.6680 C   0  0  0  0  0  0  0  0  0  0  0  0
    7.5210   -2.2540   22.6290 C   0  0  0  0  0  0  0  0  0  0  0  0
    6.3220   -3.0910   24.5190 C   0  0  0  0  0  0  0  0  0  0  0  0
    8.3170   -4.4120   23.4260 C   0  0  0  0  0  0  0  0  0  0  0  0
    7.4990   -5.7780   28.2910 C   0  0  0  0  0  0  0  0  0  0  0  0
   11.0060    0.8670   23.8990 C   0  0  0  0  0  0  0  0  0  0  0  0
   11.5620   -1.2910   22.6590 C   0  0  0  0  0  0  0  0  0  0  0  0
    7.1800   -1.5870   21.7120 C   0  0  0  0  0  0  0  0  0  0  0  0
    5.8220   -4.4960   24.7690 C   0  0  0  0  0  0  0  0  0  0  0  0
    7.9390   -5.6520   24.2440 C   0  0  0  0  0  0  0  0  0  0  0  0
   12.1020   -0.0080   23.3060 C   0  0  1  0  0  0  0  0  0  0  0  0
    6.5410   -0.7940   20.6710 C   0  0  0  0  0  0  0  0  0  0  0  0
    6.9470   -5.3030   25.3370 C   0  0  0  0  0  0  0  0  0  0  0  0
   12.7830    0.7360   22.3340 O   0  0  0  0  0  0  0  0  0  0  0  0
    6.8870    0.6870   20.6580 C   0  0  0  0  0  0  0  0  0  0  0  0
    6.7790   -1.3680   19.2900 C   0  0  0  0  0  0  0  0  0  0  0  0
    6.2730    1.3060   19.4040 C   0  0  0  0  0  0  0  0  0  0  0  0
    5.5890   -0.9520   18.4670 C   0  0  0  0  0  0  0  0  0  0  0  0
    5.1330    0.4620   18.8230 C   0  0  0  0  0  0  0  0  0  0  0  0
  1  2  2  0
  2  3  2  0
  2  4  1  0
  2  5  1  0
  4  6  2  0
  4  7  1  0
  8  5  1  1
  5  9  1  0
  6 10  1  0
  7 11  2  0
  7 12  1  0
  8 13  1  0
  8 14  1  0
  9 15  1  0
  9 16  1  0
  9 17  1  0
 10 18  2  0
 11 18  1  0
 13 19  1  0
 14 20  1  0
 15 21  3  0
 16 22  1  0
 17 23  1  0
 19 24  1  0
 20 24  1  0
 21 25  1  0
 22 26  1  0
 23 26  1  0
 24 27  1  6
 25 28  1  0
 25 29  1  0
 28 30  1  0
 29 31  1  0
 30 32  1  0
 31 32  1  0
M  END
