WAR-XCH-79d12f6e-16
     RDKit          3D

 24 27  0  0  0  0  0  0  0  0999 V2000
    5.8230   -4.7370   25.9500 C   0  0  0  0  0  0  0  0  0  0  0  0
    5.5800   -5.3250   24.7600 N   0  0  0  0  0  0  0  0  0  0  0  0
    4.8190   -6.4730   24.8030 C   0  0  0  0  0  0  0  0  0  0  0  0
    5.8660   -5.1290   23.3630 C   0  0  0  0  0  0  0  0  0  0  0  0
    4.6430   -6.9790   23.6120 C   0  0  0  0  0  0  0  0  0  0  0  0
    5.2510   -6.2320   22.6860 C   0  0  0  0  0  0  0  0  0  0  0  0
    6.4910   -4.2840   22.5080 C   0  0  0  0  0  0  0  0  0  0  0  0
    5.2970   -6.4350   21.3370 C   0  0  0  0  0  0  0  0  0  0  0  0
    6.5090   -4.5210   21.1440 C   0  0  0  0  0  0  0  0  0  0  0  0
    7.1370   -3.1100   22.8160 C   0  0  0  0  0  0  0  0  0  0  0  0
    5.9270   -5.5790   20.5280 C   0  0  0  0  0  0  0  0  0  0  0  0
    6.2160   -2.4000   23.8360 C   0  0  0  0  0  0  0  0  0  0  0  0
    7.2750   -2.5170   21.5470 C   0  0  0  0  0  0  0  0  0  0  0  0
    8.3680   -3.2450   23.4590 C   0  0  0  0  0  0  0  0  0  0  0  0
    4.6810   -2.6560   23.7630 C   0  0  0  0  0  0  0  0  0  0  0  0
    8.5730   -2.5710   20.8710 C   0  0  0  0  0  0  0  0  0  0  0  0
    9.5330   -2.3030   23.1690 C   0  0  0  0  0  0  0  0  0  0  0  0
    3.6880   -1.8960   24.6870 C   0  0  0  0  0  0  0  0  0  0  0  0
    9.7170   -1.9940   21.6840 C   0  0  0  0  0  0  0  0  0  0  0  0
    3.8770   -0.5310   24.9310 C   0  0  0  0  0  0  0  0  0  0  0  0
    2.5060   -2.5000   25.3700 N   0  0  0  0  0  0  0  0  0  0  0  0
    3.0050    0.1970   25.7600 C   0  0  0  0  0  0  0  0  0  0  0  0
    1.6020   -1.7320   26.2360 C   0  0  0  0  0  0  0  0  0  0  0  0
    1.9020   -0.3960   26.3910 C   0  0  0  0  0  0  0  0  0  0  0  0
  1  2  1  0
  2  3  1  0
  2  4  1  0
  3  5  2  0
  4  6  2  0
  5  6  1  0
  4  7  1  0
  6  8  1  0
  7  9  2  0
  7 10  1  0
  8 11  2  0
  9 11  1  0
 10 12  1  0
 10 13  1  0
 10 14  1  0
 12 15  3  0
 13 16  1  0
 14 17  1  0
 15 18  1  0
 16 19  1  0
 17 19  1  0
 18 20  2  0
 18 21  1  0
 20 22  1  0
 21 23  2  0
 22 24  2  0
 23 24  1  0
M  END
