WAR-XCH-b72a1bbc-28
     RDKit          3D

 29 32  0  0  0  0  0  0  0  0999 V2000
   18.6330  -20.3120   15.9410 N   0  0  0  0  0  0  0  0  0  0  0  0
   18.7540  -20.6890   17.5990 S   0  0  0  0  0  0  0  0  0  0  0  0
   20.0310  -19.9830   17.6990 O   0  0  0  0  0  0  0  0  0  0  0  0
   19.2510  -22.0070   17.7890 O   0  0  0  0  0  0  0  0  0  0  0  0
   16.8500  -19.1780   19.4810 C   0  0  0  0  0  0  0  0  0  0  0  0
   16.6950  -17.5630   19.6720 C   0  0  0  0  0  0  0  0  0  0  0  0
   15.6440  -19.4510   20.5530 C   0  0  0  0  0  0  0  0  0  0  0  0
   15.5240  -17.0000   20.4530 C   0  0  0  0  0  0  0  0  0  0  0  0
   14.6560  -18.7720   21.3050 C   0  0  0  0  0  0  0  0  0  0  0  0
   14.5370  -17.4850   21.1580 C   0  0  0  0  0  0  0  0  0  0  0  0
   13.8760  -16.1690   21.3230 N   0  0  0  0  0  0  0  0  0  0  0  0
   12.5850  -15.8300   21.5650 C   0  0  0  0  0  0  0  0  0  0  0  0
   13.7650  -15.8700   19.8750 C   0  0  0  0  0  0  0  0  0  0  0  0
   11.8030  -15.2700   20.6250 C   0  0  0  0  0  0  0  0  0  0  0  0
   13.0360  -14.6390   19.4220 C   0  0  0  0  0  0  0  0  0  0  0  0
   12.2100  -13.9650   20.2970 C   0  0  0  0  0  0  0  0  0  0  0  0
   10.9100  -13.3770   19.9850 C   0  0  0  0  0  0  0  0  0  0  0  0
   10.3560  -11.8440   19.8660 N   0  0  0  0  0  0  0  0  0  0  0  0
    9.2990  -11.3530   19.5160 C   0  0  0  0  0  0  0  0  0  0  0  0
   10.7340  -10.5090   19.7340 C   0  0  0  0  0  0  0  0  0  0  0  0
    9.7740  -10.2540   19.3170 C   0  0  0  0  0  0  0  0  0  0  0  0
   10.8500   -9.1830   20.8650 C   0  0  1  0  0  0  0  0  0  0  0  0
    9.9680   -9.0530   20.0250 C   0  0  0  0  0  0  0  0  0  0  0  0
    9.9850   -8.1380   21.6740 C   0  0  0  0  0  0  0  0  0  0  0  0
   10.5090   -6.7410   21.7670 C   0  0  0  0  0  0  0  0  0  0  0  0
    8.6680   -8.1420   22.3830 C   0  0  0  0  0  0  0  0  0  0  0  0
    9.8390   -5.5080   22.4680 C   0  0  0  0  0  0  0  0  0  0  0  0
    8.0380   -6.8970   23.0350 C   0  0  0  0  0  0  0  0  0  0  0  0
    8.5400   -5.6630   23.1120 C   0  0  0  0  0  0  0  0  0  0  0  0
  2  1  1  0
  2  3  2  0
  2  4  2  0
  2  5  1  0
  5  6  2  0
  5  7  1  0
  6  8  1  0
  7  9  2  0
  8 10  2  0
  9 10  1  0
 10 11  1  0
 11 12  1  0
 11 13  1  0
 12 14  1  0
 13 15  1  0
 14 16  1  0
 15 16  1  0
 16 17  1  0
 17 18  1  0
 18 19  1  0
 18 20  1  0
 19 21  1  0
 20 22  1  0
 21 23  1  0
 22 23  1  0
 22 24  1  1
 24 25  2  0
 24 26  1  0
 25 27  1  0
 26 28  2  0
 27 29  2  0
 28 29  1  0
M  END
