WAR-XCH-bdd24732-9-bromoalkyne
     RDKit          3D

 30 33  0  0  0  0  0  0  0  0999 V2000
    6.7500   -5.4560   20.5220 C   0  0  0  0  0  0  0  0  0  0  0  0
    5.6600   -4.5480   19.9580 C   0  0  0  0  0  0  0  0  0  0  0  0
    7.1350   -5.0950   21.9050 C   0  0  0  0  0  0  0  0  0  0  0  0
    8.1540   -5.4930   22.7530 C   0  0  0  0  0  0  0  0  0  0  0  0
    6.5640   -4.2990   22.6550 C   0  0  0  0  0  0  0  0  0  0  0  0
    7.6360   -4.5650   23.9080 C   0  0  0  0  0  0  0  0  0  0  0  0
    7.7510   -4.9860   23.1710 C   0  0  0  0  0  0  0  0  0  0  0  0
    8.6880   -5.2510   24.1840 C   0  0  0  0  0  0  0  0  0  0  0  0
    7.2260   -4.1050   24.2190 N   0  0  0  0  0  0  0  0  0  0  0  0
    8.0660   -3.1070   24.9060 C   0  0  2  0  0  0  0  0  0  0  0  0
    5.7480   -3.8360   24.1850 C   0  0  0  0  0  0  0  0  0  0  0  0
    7.7040   -3.2890   26.3350 C   0  0  0  0  0  0  0  0  0  0  0  0
    7.8930   -1.8660   24.2740 C   0  0  0  0  0  0  0  0  0  0  0  0
    5.0030   -3.2500   23.1300 C   0  0  0  0  0  0  0  0  0  0  0  0
    5.1110   -5.2630   24.3920 C   0  0  0  0  0  0  0  0  0  0  0  0
    5.2880   -3.0100   25.4380 C   0  0  0  0  0  0  0  0  0  0  0  0
    7.7420   -1.9230   27.0920 C   0  0  0  0  0  0  0  0  0  0  0  0
    8.4080   -0.8240   25.0350 C   0  0  0  0  0  0  0  0  0  0  0  0
    5.4760   -2.1740   22.3760 C   0  0  0  0  0  0  0  0  0  0  0  0
    3.6860   -5.2180   24.9520 C   0  0  0  0  0  0  0  0  0  0  0  0
    3.7900   -2.7060   25.4020 C   0  0  0  0  0  0  0  0  0  0  0  0
    7.6730   -0.6570   26.1970 C   0  0  2  0  0  0  0  0  0  0  0  0
    6.7150   -2.4180   21.5590 C   0  0  0  0  0  0  0  0  0  0  0  0
    3.0180   -3.8520   24.7560 C   0  0  0  0  0  0  0  0  0  0  0  0
    7.9520    0.4220   26.7480 O   0  0  0  0  0  0  0  0  0  0  0  0
    7.6740   -2.3190   20.3150 C   0  0  0  0  0  0  0  0  0  0  0  0
    6.1410   -1.6650   20.6020 C   0  0  0  0  0  0  0  0  0  0  0  0
    7.2810   -1.5170   19.0290 C   0  0  0  0  0  0  0  0  0  0  0  0
    5.0250   -0.9500   20.3170 N   0  0  0  0  0  0  0  0  0  0  0  0
    5.9230   -0.9160   19.2440 C   0  0  0  0  0  0  0  0  0  0  0  0
  1  2  2  3
  1  3  1  0
  3  4  2  0
  3  5  1  0
  4  6  1  0
  5  7  2  0
  6  8  2  0
  7  8  1  0
  7  9  1  0
 10  9  1  6
  9 11  1  0
 10 12  1  0
 10 13  1  0
 11 14  1  0
 11 15  1  0
 11 16  1  0
 12 17  1  0
 13 18  1  0
 14 19  3  0
 15 20  1  0
 16 21  1  0
 17 22  1  0
 18 22  1  0
 19 23  1  0
 20 24  1  0
 21 24  1  0
 22 25  1  1
 23 26  2  0
 23 27  1  0
 26 28  1  0
 27 29  2  0
 28 30  2  0
 29 30  1  0
M  END
