WAR-XCH-79d12f6e-11-chloroacetamide
     RDKit          3D

 22 23  0  0  0  0  0  0  0  0999 V2000
    7.4030   -5.0690   20.8150 C   0  0  0  0  0  0  0  0  0  0  0  0
    6.0880   -5.0670   20.9900 C   0  0  0  0  0  0  0  0  0  0  0  0
    5.3210   -5.4440   20.0770 O   0  0  0  0  0  0  0  0  0  0  0  0
    5.5540   -4.4890   22.2770 C   0  0  0  0  0  0  0  0  0  0  0  0
    4.2860   -5.0720   22.9820 C   0  0  0  0  0  0  0  0  0  0  0  0
    6.2610   -3.3760   22.7980 C   0  0  0  0  0  0  0  0  0  0  0  0
    3.9280   -4.2730   24.2630 C   0  0  0  0  0  0  0  0  0  0  0  0
    5.9100   -2.7000   23.9320 C   0  0  0  0  0  0  0  0  0  0  0  0
    7.3320   -2.9340   22.1490 C   0  0  0  0  0  0  0  0  0  0  0  0
    4.7350   -3.1000   24.7200 C   0  0  0  0  0  0  0  0  0  0  0  0
    6.9810   -2.1580   21.0430 N   0  0  0  0  0  0  0  0  0  0  0  0
    7.5760   -0.6530   21.1990 S   0  0  0  0  0  0  0  0  0  0  0  0
    6.9310   -0.0450   22.3400 O   0  0  0  0  0  0  0  0  0  0  0  0
    9.0090   -0.6990   21.0910 O   0  0  0  0  0  0  0  0  0  0  0  0
    6.9170    0.0900   19.7660 C   0  0  0  0  0  0  0  0  0  0  0  0
    7.4070   -0.4190   18.5820 C   0  0  0  0  0  0  0  0  0  0  0  0
    5.9910    1.1080   19.8610 C   0  0  0  0  0  0  0  0  0  0  0  0
    7.0490    0.0720   17.1930 C   0  0  0  0  0  0  0  0  0  0  0  0
    5.5510    1.6550   18.6940 C   0  0  0  0  0  0  0  0  0  0  0  0
    5.5130    1.5850   21.0770 C   0  0  0  0  0  0  0  0  0  0  0  0
    7.5810   -0.4200   15.8260 C   0  0  0  0  0  0  0  0  0  0  0  0
    6.0190    1.2140   17.4660 C   0  0  0  0  0  0  0  0  0  0  0  0
  1  2  1  0
  2  3  2  0
  2  4  1  0
  4  5  2  0
  4  6  1  0
  5  7  1  0
  6  8  2  0
  6  9  1  0
  7 10  2  0
  8 10  1  0
  9 11  1  0
 12 11  1  0
 12 13  2  0
 12 14  2  0
 12 15  1  0
 15 16  2  0
 15 17  1  0
 16 18  1  0
 17 19  2  0
 17 20  1  0
 18 21  1  0
 18 22  2  0
 19 22  1  0
M  END
