WAR-XCH-b6889685-32
     RDKit          3D

 23 25  0  0  0  0  0  0  0  0999 V2000
    9.0620    7.0410   22.1280 N   0  0  0  0  0  0  0  0  0  0  0  0
   10.0080    6.9020   23.5090 S   0  0  0  0  0  0  0  0  0  0  0  0
    9.2160    7.4340   24.5900 O   0  0  0  0  0  0  0  0  0  0  0  0
   11.3630    7.3200   23.2450 O   0  0  0  0  0  0  0  0  0  0  0  0
   10.0920    5.1680   23.6550 C   0  0  0  0  0  0  0  0  0  0  0  0
   11.3210    4.4230   23.1420 C   0  0  0  0  0  0  0  0  0  0  0  0
    9.0660    4.4430   24.2330 C   0  0  0  0  0  0  0  0  0  0  0  0
   11.5500    2.9150   23.2070 C   0  0  0  0  0  0  0  0  0  0  0  0
    9.1710    3.0530   24.3450 C   0  0  0  0  0  0  0  0  0  0  0  0
   10.2900    2.3060   23.8950 C   0  0  0  0  0  0  0  0  0  0  0  0
   10.4340    0.8700   24.0180 N   0  0  0  0  0  0  0  0  0  0  0  0
   11.8650    0.4280   23.9870 C   0  0  0  0  0  0  0  0  0  0  0  0
    9.5280    0.2520   24.9000 C   0  0  0  0  0  0  0  0  0  0  0  0
   11.9420   -0.7450   24.9560 C   0  0  0  0  0  0  0  0  0  0  0  0
    9.3780   -1.0370   24.4920 C   0  0  0  0  0  0  0  0  0  0  0  0
   10.8030   -1.4220   24.2380 C   0  0  0  0  0  0  0  0  0  0  0  0
   10.9480   -1.0370   22.8770 N   0  0  0  0  0  0  0  0  0  0  0  0
   11.7360   -1.9650   22.1710 C   0  0  0  0  0  0  0  0  0  0  0  0
   11.0830   -2.6850   21.1510 C   0  0  0  0  0  0  0  0  0  0  0  0
   13.3590   -2.3960   22.3200 S   0  0  0  0  0  0  0  0  0  0  0  0
   12.0140   -3.5930   20.4440 C   0  0  0  0  0  0  0  0  0  0  0  0
   13.2820   -3.5990   20.9290 C   0  0  0  0  0  0  0  0  0  0  0  0
   14.5890   -4.7790   20.1390 Br  0  0  0  0  0  0  0  0  0  0  0  0
  2  1  1  0
  2  3  2  0
  2  4  2  0
  2  5  1  0
  5  6  2  0
  5  7  1  0
  6  8  1  0
  7  9  2  0
  8 10  2  0
  9 10  1  0
 10 11  1  0
 11 12  1  0
 11 13  1  0
 12 14  1  0
 13 15  1  0
 14 16  1  0
 15 16  1  0
 16 17  1  0
 17 18  1  0
 18 19  2  0
 18 20  1  0
 19 21  1  0
 20 22  1  0
 21 22  2  0
 22 23  1  0
M  END
