WAR-XCH-b6889685-11
     RDKit          3D

 30 33  0  0  0  0  0  0  0  0999 V2000
   15.3980   -9.0630   26.8640 C   0  0  0  0  0  0  0  0  0  0  0  0
   16.0990   -8.0770   26.1430 C   0  0  0  0  0  0  0  0  0  0  0  0
   15.7570   -6.5310   26.1300 C   0  0  0  0  0  0  0  0  0  0  0  0
   17.1330   -8.6350   25.4280 C   0  0  0  0  0  0  0  0  0  0  0  0
   16.5640   -5.6070   25.2780 C   0  0  0  0  0  0  0  0  0  0  0  0
   17.8680   -7.8230   24.6300 C   0  0  0  0  0  0  0  0  0  0  0  0
   17.8980  -10.1530   25.2260 C   0  0  0  0  0  0  0  0  0  0  0  0
   17.6430   -6.2910   24.5110 C   0  0  0  0  0  0  0  0  0  0  0  0
   17.2770  -11.4210   25.3630 C   0  0  0  0  0  0  0  0  0  0  0  0
   18.9870  -10.7550   24.1550 C   0  0  0  0  0  0  0  0  0  0  0  0
   16.7050  -12.0990   24.1050 C   0  0  0  0  0  0  0  0  0  0  0  0
   18.8380  -12.0610   23.4110 C   0  0  0  0  0  0  0  0  0  0  0  0
   17.7140  -13.0310   23.7230 N   0  0  0  0  0  0  0  0  0  0  0  0
   17.2710  -14.3230   23.0930 C   0  0  0  0  0  0  0  0  0  0  0  0
   17.8870  -15.5650   22.5390 C   0  0  0  0  0  0  0  0  0  0  0  0
   17.2160  -16.3370   21.6900 C   0  0  0  0  0  0  0  0  0  0  0  0
   18.9780  -15.6010   21.5060 C   0  0  0  0  0  0  0  0  0  0  0  0
   18.5360  -16.5460   20.7820 C   0  0  0  0  0  0  0  0  0  0  0  0
   18.3230  -15.9980   20.3200 C   0  0  0  0  0  0  0  0  0  0  0  0
   18.6260  -16.9640   19.1720 N   0  0  0  0  0  0  0  0  0  0  0  0
   20.3580  -18.1070   17.4970 C   0  0  0  0  0  0  0  0  0  0  0  0
   20.3200  -19.7670   17.3700 C   0  0  0  0  0  0  0  0  0  0  0  0
   21.6240  -17.9940   16.2740 C   0  0  0  0  0  0  0  0  0  0  0  0
   21.0870  -20.8130   16.5460 C   0  0  0  0  0  0  0  0  0  0  0  0
   22.3810  -19.0500   15.4640 C   0  0  0  0  0  0  0  0  0  0  0  0
   22.1460  -20.5070   15.5670 C   0  0  0  0  0  0  0  0  0  0  0  0
   23.0100  -21.7350   14.6380 S   0  0  0  0  0  0  0  0  0  0  0  0
   24.3750  -20.8590   14.0850 N   0  0  0  0  0  0  0  0  0  0  0  0
   22.2140  -22.0830   13.4820 O   0  0  0  0  0  0  0  0  0  0  0  0
   23.5010  -22.7420   15.5540 O   0  0  0  0  0  0  0  0  0  0  0  0
  1  2  1  0
  2  3  2  0
  2  4  1  0
  3  5  1  0
  4  6  2  0
  4  7  1  0
  5  8  2  0
  6  8  1  0
  7  9  1  0
  7 10  1  0
  9 11  1  0
 10 12  1  0
 11 13  1  0
 12 13  1  0
 13 14  1  0
 14 15  1  0
 15 16  1  0
 15 17  1  0
 16 18  1  0
 17 19  1  0
 18 20  1  0
 19 20  1  0
 20 21  1  0
 21 22  2  0
 21 23  1  0
 22 24  1  0
 23 25  2  0
 24 26  2  0
 25 26  1  0
 26 27  1  0
 27 28  1  0
 27 29  2  0
 27 30  2  0
M  END
