WAR-XCH-b6889685-24
     RDKit          3D

 23 25  0  0  0  0  0  0  0  0999 V2000
   10.5810   -0.4170   22.4760 N   0  0  0  0  0  0  0  0  0  0  0  0
   11.5730    0.3470   23.6000 S   0  0  0  0  0  0  0  0  0  0  0  0
   10.6750    0.6770   24.6730 O   0  0  0  0  0  0  0  0  0  0  0  0
   12.3620    1.3430   22.9100 O   0  0  0  0  0  0  0  0  0  0  0  0
   12.6330   -0.9980   24.0670 C   0  0  0  0  0  0  0  0  0  0  0  0
   13.0930   -1.9990   23.0930 C   0  0  0  0  0  0  0  0  0  0  0  0
   13.1060   -1.2160   25.3220 C   0  0  0  0  0  0  0  0  0  0  0  0
   13.9970   -3.2000   23.3380 C   0  0  0  0  0  0  0  0  0  0  0  0
   14.0380   -2.3990   25.7760 C   0  0  0  0  0  0  0  0  0  0  0  0
   14.5500   -3.4900   24.8320 C   0  0  0  0  0  0  0  0  0  0  0  0
   15.5220   -4.7550   25.1540 N   0  0  0  0  0  0  0  0  0  0  0  0
   16.5910   -5.2370   24.2520 C   0  0  0  0  0  0  0  0  0  0  0  0
   15.1610   -5.7610   26.1960 C   0  0  0  0  0  0  0  0  0  0  0  0
   17.7250   -6.0350   24.9670 C   0  0  0  0  0  0  0  0  0  0  0  0
   15.9190   -7.0060   26.4010 C   0  0  0  0  0  0  0  0  0  0  0  0
   17.1630   -7.3780   25.5680 C   0  0  0  0  0  0  0  0  0  0  0  0
   17.0920   -8.7500   24.7160 N   0  0  0  0  0  0  0  0  0  0  0  0
   17.7190  -10.2400   24.8930 C   0  0  0  0  0  0  0  0  0  0  0  0
   16.8210  -11.3880   24.3330 C   0  0  0  0  0  0  0  0  0  0  0  0
   18.9810  -10.6440   24.3360 C   0  0  0  0  0  0  0  0  0  0  0  0
   17.2250  -12.7030   24.4490 C   0  0  0  0  0  0  0  0  0  0  0  0
   19.1830  -11.7820   23.5730 C   0  0  0  0  0  0  0  0  0  0  0  0
   18.1560  -12.6900   23.4810 C   0  0  0  0  0  0  0  0  0  0  0  0
  2  1  1  0
  2  3  2  0
  2  4  2  0
  2  5  1  0
  5  6  2  0
  5  7  1  0
  6  8  1  0
  7  9  2  0
  8 10  2  0
  9 10  1  0
 10 11  1  0
 11 12  1  0
 11 13  1  0
 12 14  1  0
 13 15  1  0
 14 16  1  0
 15 16  1  0
 16 17  1  0
 17 18  1  0
 18 19  1  0
 18 20  1  0
 19 21  1  0
 20 22  1  0
 21 23  1  0
 22 23  1  0
M  END
