WES-WAB-adc860f2-1
     RDKit          3D

 21 23  0  0  0  0  0  0  0  0999 V2000
    8.6110    3.3770   22.2710 N   0  0  0  0  0  0  0  0  0  0  0  0
    8.8120    1.9590   22.0560 C   0  0  2  0  0  0  0  0  0  0  0  0
    8.3360    1.7430   20.7410 O   0  0  0  0  0  0  0  0  0  0  0  0
    8.0200    1.0630   23.0120 C   0  0  1  0  0  0  0  0  0  0  0  0
    6.5830    0.7870   22.4950 C   0  0  0  0  0  0  0  0  0  0  0  0
    8.4800   -0.2350   23.3480 C   0  0  1  0  0  0  0  0  0  0  0  0
    6.6010   -0.7410   22.1510 C   0  0  0  0  0  0  0  0  0  0  0  0
    8.0250   -1.2730   22.2920 C   0  0  0  0  0  0  0  0  0  0  0  0
    9.7810   -0.2740   23.8990 C   0  0  2  0  0  0  0  0  0  0  0  0
   10.6540    0.8020   24.0290 C   0  0  0  0  0  0  0  0  0  0  0  0
   10.4770   -1.5170   23.4420 N   0  0  0  0  0  0  0  0  0  0  0  0
   10.1070    2.0720   24.2310 C   0  0  0  0  0  0  0  0  0  0  0  0
   11.6950    1.0010   23.0870 C   0  0  0  0  0  0  0  0  0  0  0  0
   10.4920   -1.9750   22.1830 C   0  0  0  0  0  0  0  0  0  0  0  0
   11.7500   -1.8650   24.1760 C   0  0  0  0  0  0  0  0  0  0  0  0
   10.7090    3.1580   23.5430 C   0  0  0  0  0  0  0  0  0  0  0  0
   11.7940    2.5120   22.7590 C   0  0  0  0  0  0  0  0  0  0  0  0
   11.7950   -2.4110   21.5920 C   0  0  0  0  0  0  0  0  0  0  0  0
   12.9490   -2.2770   23.5840 C   0  0  0  0  0  0  0  0  0  0  0  0
   13.0070   -2.3870   22.1950 C   0  0  0  0  0  0  0  0  0  0  0  0
   13.6690   -1.2430   21.6840 O   0  0  0  0  0  0  0  0  0  0  0  0
  2  1  1  1
  2  3  1  0
  2  4  1  0
  4  5  1  6
  4  6  1  0
  5  7  1  0
  6  8  1  6
  7  8  1  0
  6  9  1  0
  9 10  1  6
  9 11  1  0
 10 12  1  0
 10 13  1  0
 11 14  1  0
 11 15  1  0
 12 16  2  0
 13 17  2  0
 16 17  1  0
 14 18  2  0
 15 19  2  0
 18 20  1  0
 19 20  1  0
 20 21  1  0
M  END
