WIL-UNI-5578df48-17
     RDKit          3D

 24 26  0  0  0  0  0  0  0  0999 V2000
    9.6350    0.4310   21.9830 O   0  0  0  0  0  0  0  0  0  0  0  0
    9.0640   -0.6520   22.0580 C   0  0  0  0  0  0  0  0  0  0  0  0
    9.5690   -1.7230   22.7990 N   0  0  0  0  0  0  0  0  0  0  0  0
    7.8710   -0.9570   21.4390 N   0  0  0  0  0  0  0  0  0  0  0  0
   10.7970   -1.7410   23.4470 C   0  0  0  0  0  0  0  0  0  0  0  0
    7.1410   -0.2220   20.5630 C   0  0  0  0  0  0  0  0  0  0  0  0
   11.0730   -2.9740   24.3030 C   0  0  0  0  0  0  0  0  0  0  0  0
   11.8720   -0.6410   23.3670 C   0  0  0  0  0  0  0  0  0  0  0  0
    6.3950    0.9660   21.1150 C   0  0  0  0  0  0  0  0  0  0  0  0
    7.0320   -0.5000   19.1830 C   0  0  0  0  0  0  0  0  0  0  0  0
   12.3940   -3.1000   25.0540 C   0  0  0  0  0  0  0  0  0  0  0  0
   13.0710   -0.7860   24.0720 C   0  0  0  0  0  0  0  0  0  0  0  0
    5.5680    1.7930   20.1590 C   0  0  0  0  0  0  0  0  0  0  0  0
    6.3060    0.2000   18.2540 N   0  0  0  0  0  0  0  0  0  0  0  0
   13.2780   -1.9430   24.8480 C   0  0  0  0  0  0  0  0  0  0  0  0
    5.5560    1.3650   18.7390 C   0  0  0  0  0  0  0  0  0  0  0  0
   14.1830   -2.7880   25.7930 C   0  0  0  0  0  0  0  0  0  0  0  0
   15.2180   -2.1790   26.5620 N   0  0  0  0  0  0  0  0  0  0  0  0
   16.5060   -2.5760   26.0670 C   0  0  0  0  0  0  0  0  0  0  0  0
   16.1050   -3.5800   25.6060 O   0  0  0  0  0  0  0  0  0  0  0  0
   18.3460   -2.2030   25.8760 C   0  0  0  0  0  0  0  0  0  0  0  0
   19.1490   -1.9390   24.5950 C   0  0  0  0  0  0  0  0  0  0  0  0
   19.7570   -3.0240   26.1480 C   0  0  0  0  0  0  0  0  0  0  0  0
   20.2590   -2.5180   24.9720 C   0  0  0  0  0  0  0  0  0  0  0  0
  1  2  2  0
  2  3  1  0
  2  4  1  0
  3  5  1  0
  4  6  1  0
  5  7  2  0
  5  8  1  0
  6  9  2  0
  6 10  1  0
  7 11  1  0
  8 12  2  0
  9 13  1  0
 10 14  2  0
 11 15  2  0
 12 15  1  0
 13 16  2  0
 14 16  1  0
 15 17  1  0
 17 18  1  0
 18 19  1  0
 19 20  2  0
 19 21  1  0
 21 22  1  0
 21 23  1  0
 22 24  1  0
 23 24  1  0
M  END
