WIL-UNI-5578df48-1
     RDKit          3D

 23 25  0  0  0  0  0  0  0  0999 V2000
    8.6640    0.8070   21.1930 O   0  0  0  0  0  0  0  0  0  0  0  0
    8.2460   -0.2990   21.5280 C   0  0  0  0  0  0  0  0  0  0  0  0
    7.0360   -0.7690   21.0710 N   0  0  0  0  0  0  0  0  0  0  0  0
    8.9360   -1.1060   22.3650 N   0  0  0  0  0  0  0  0  0  0  0  0
    6.4780   -0.1150   20.0120 C   0  0  0  0  0  0  0  0  0  0  0  0
   10.2250   -0.7270   22.6860 C   0  0  0  0  0  0  0  0  0  0  0  0
    8.1910   -1.8130   23.2590 C   0  0  0  0  0  0  0  0  0  0  0  0
    5.2210    0.6440   20.3710 C   0  0  0  0  0  0  0  0  0  0  0  0
    6.9280   -0.0720   18.7260 C   0  0  0  0  0  0  0  0  0  0  0  0
   10.4920    0.4810   23.6220 C   0  0  0  0  0  0  0  0  0  0  0  0
   11.3440   -1.4080   22.1560 C   0  0  0  0  0  0  0  0  0  0  0  0
    7.9390   -3.3270   23.0100 C   0  0  0  0  0  0  0  0  0  0  0  0
    7.6400   -1.1900   24.3910 C   0  0  0  0  0  0  0  0  0  0  0  0
    4.5290    1.4250   19.2640 C   0  0  0  0  0  0  0  0  0  0  0  0
    6.3340    0.6210   17.7090 N   0  0  0  0  0  0  0  0  0  0  0  0
   11.9070    0.8120   23.8520 C   0  0  0  0  0  0  0  0  0  0  0  0
   12.6550   -0.9910   22.4600 C   0  0  0  0  0  0  0  0  0  0  0  0
    7.0970   -4.0230   24.0190 C   0  0  0  0  0  0  0  0  0  0  0  0
    6.8620   -1.8880   25.3020 C   0  0  0  0  0  0  0  0  0  0  0  0
    5.1810    1.3630   17.9010 C   0  0  0  0  0  0  0  0  0  0  0  0
   12.9410    0.0900   23.2790 C   0  0  0  0  0  0  0  0  0  0  0  0
    6.5410   -3.2600   25.2070 C   0  0  0  0  0  0  0  0  0  0  0  0
    5.7800   -3.8640   26.1270 F   0  0  0  0  0  0  0  0  0  0  0  0
  1  2  2  0
  2  3  1  0
  2  4  1  0
  3  5  1  0
  4  6  1  0
  4  7  1  0
  5  8  2  0
  5  9  1  0
  6 10  2  0
  6 11  1  0
  7 12  2  0
  7 13  1  0
  8 14  1  0
  9 15  2  0
 10 16  1  0
 11 17  2  0
 12 18  1  0
 13 19  2  0
 14 20  2  0
 15 20  1  0
 16 21  2  0
 17 21  1  0
 18 22  2  0
 19 22  1  0
 22 23  1  0
M  END
