WIL-WAB-1289c0dd-2
     RDKit          3D

 27 29  0  0  0  0  0  0  0  0999 V2000
    5.3380    0.5760   22.0570 C   0  0  0  0  0  0  0  0  0  0  0  0
    5.8350    0.8260   20.6690 C   0  0  2  0  0  0  0  0  0  0  0  0
    4.8420    1.4010   19.6700 C   0  0  0  0  0  0  0  0  0  0  0  0
    6.4600   -0.3340   20.2230 C   0  0  1  0  0  0  0  0  0  0  0  0
    5.1000    0.9040   18.2650 C   0  0  0  0  0  0  0  0  0  0  0  0
    7.1090    0.0560   18.9260 C   0  0  0  0  0  0  0  0  0  0  0  0
    7.3260   -1.0150   21.0820 N   0  0  0  0  0  0  0  0  0  0  0  0
    6.1350    0.2700   17.8640 N   0  0  0  0  0  0  0  0  0  0  0  0
    8.5740   -0.4330   21.5920 C   0  0  0  0  0  0  0  0  0  0  0  0
    8.9490    0.7130   21.3290 O   0  0  0  0  0  0  0  0  0  0  0  0
    9.3250   -1.3940   22.4730 C   0  0  0  0  0  0  0  0  0  0  0  0
    8.9230   -1.5130   23.6430 O   0  0  0  0  0  0  0  0  0  0  0  0
    9.4180   -0.4970   24.5000 C   0  0  0  0  0  0  0  0  0  0  0  0
   10.8330   -0.3740   24.1690 N   0  0  0  0  0  0  0  0  0  0  0  0
   11.6520   -1.5080   23.8970 C   0  0  0  0  0  0  0  0  0  0  0  0
   11.2900    0.8820   23.7580 C   0  0  0  0  0  0  0  0  0  0  0  0
   12.6120   -1.3780   22.9180 C   0  0  0  0  0  0  0  0  0  0  0  0
   12.5340    1.0060   23.1570 C   0  0  0  0  0  0  0  0  0  0  0  0
   10.5360    2.0640   23.9290 C   0  0  0  0  0  0  0  0  0  0  0  0
   13.2520   -0.1740   22.9860 C   0  0  0  0  0  0  0  0  0  0  0  0
   12.9770    2.3820   22.7620 C   0  0  0  0  0  0  0  0  0  0  0  0
   11.0220    3.3290   23.5110 C   0  0  0  0  0  0  0  0  0  0  0  0
   12.2740    3.4980   22.9150 C   0  0  0  0  0  0  0  0  0  0  0  0
   10.1090    4.8760   23.6880 S   0  0  0  0  0  0  0  0  0  0  0  0
   11.3070    6.0360   23.4420 N   0  0  0  0  0  0  0  0  0  0  0  0
    9.5160    5.0650   24.9950 O   0  0  0  0  0  0  0  0  0  0  0  0
    9.2170    5.0070   22.5700 O   0  0  0  0  0  0  0  0  0  0  0  0
  2  1  1  1
  2  3  1  0
  2  4  1  0
  3  5  1  0
  4  6  1  0
  4  7  1  1
  5  8  2  0
  6  8  1  0
  7  9  1  0
  9 10  2  0
  9 11  1  0
 11 12  1  0
 12 13  1  0
 13 14  1  0
 14 15  1  0
 14 16  1  0
 15 17  1  0
 16 18  2  0
 16 19  1  0
 17 20  1  0
 18 20  1  0
 18 21  1  0
 19 22  2  0
 21 23  2  0
 22 23  1  0
 22 24  1  0
 24 25  1  0
 24 26  2  0
 24 27  2  0
M  END
