WIL-WAB-1289c0dd-1
     RDKit          3D

 36 40  0  0  0  0  0  0  0  0999 V2000
   13.4810    5.8190   21.9080 C   0  0  0  0  0  0  0  0  0  0  0  0
   12.1860    5.3450   22.4190 C   0  0  0  0  0  0  0  0  0  0  0  0
   11.6880    4.0360   21.8920 C   0  0  0  0  0  0  0  0  0  0  0  0
   11.4430    6.0710   23.3570 C   0  0  0  0  0  0  0  0  0  0  0  0
   10.3850    3.4760   22.3560 C   0  0  0  0  0  0  0  0  0  0  0  0
   10.0890    5.5920   23.9100 C   0  0  0  0  0  0  0  0  0  0  0  0
    9.5690    4.2460   23.3780 C   0  0  0  0  0  0  0  0  0  0  0  0
    8.5190    3.7790   23.7780 O   0  0  0  0  0  0  0  0  0  0  0  0
    8.8010    2.4610   24.2060 C   0  0  0  0  0  0  0  0  0  0  0  0
   10.3400    2.3480   24.0790 C   0  0  0  0  0  0  0  0  0  0  0  0
   11.0230    3.3540   24.2330 O   0  0  0  0  0  0  0  0  0  0  0  0
   10.9390    1.1380   23.7750 N   0  0  0  0  0  0  0  0  0  0  0  0
   12.2680    1.1710   23.0390 C   0  0  0  0  0  0  0  0  0  0  0  0
   10.7410   -0.0550   24.5600 C   0  0  0  0  0  0  0  0  0  0  0  0
   12.7240   -0.2240   22.6670 C   0  0  0  0  0  0  0  0  0  0  0  0
   12.0560   -0.7400   24.9330 C   0  0  0  0  0  0  0  0  0  0  0  0
   12.8490   -1.1520   23.7840 N   0  0  0  0  0  0  0  0  0  0  0  0
   12.5970   -2.5740   23.5780 C   0  0  0  0  0  0  0  0  0  0  0  0
   11.4120   -2.8310   24.2870 C   0  0  0  0  0  0  0  0  0  0  0  0
   10.2580   -2.1620   23.8110 N   0  0  0  0  0  0  0  0  0  0  0  0
    9.0030   -1.9220   24.4180 C   0  0  0  0  0  0  0  0  0  0  0  0
   10.2070   -2.1850   22.3450 C   0  0  0  0  0  0  0  0  0  0  0  0
    8.0670   -1.1670   23.5080 C   0  0  0  0  0  0  0  0  0  0  0  0
    8.9790   -2.5100   21.8160 C   0  0  0  0  0  0  0  0  0  0  0  0
    7.9610   -1.6070   22.2220 N   0  0  0  0  0  0  0  0  0  0  0  0
    7.7320   -0.7160   21.2410 C   0  0  0  0  0  0  0  0  0  0  0  0
    6.5330   -0.1410   21.3470 C   0  0  0  0  0  0  0  0  0  0  0  0
    5.6760   -0.6320   20.1800 C   0  0  2  0  0  0  0  0  0  0  0  0
    6.4480   -0.8040   18.8340 C   0  0  0  0  0  0  0  0  0  0  0  0
    4.6420    0.3460   20.0500 C   0  0  2  0  0  0  0  0  0  0  0  0
    6.1290    0.3440   18.1700 N   0  0  0  0  0  0  0  0  0  0  0  0
    5.1120    1.0690   18.7920 C   0  0  0  0  0  0  0  0  0  0  0  0
    4.3830    1.4120   21.0940 C   0  0  0  0  0  0  0  0  0  0  0  0
    4.6050    2.2770   18.3570 N   0  0  0  0  0  0  0  0  0  0  0  0
    4.1230    2.8120   20.6300 C   0  0  0  0  0  0  0  0  0  0  0  0
    4.1370    3.0770   19.2760 C   0  0  0  0  0  0  0  0  0  0  0  0
  1  2  1  0
  2  3  2  0
  2  4  1  0
  3  5  1  0
  4  6  2  0
  5  7  2  0
  6  7  1  0
  7  8  1  0
  8  9  1  0
  9 10  1  0
 10 11  2  0
 10 12  1  0
 12 13  1  0
 12 14  1  0
 13 15  1  0
 14 16  1  0
 15 17  1  0
 16 17  1  0
 17 18  1  0
 18 19  1  0
 19 20  1  0
 20 21  1  0
 20 22  1  0
 21 23  1  0
 22 24  1  0
 23 25  1  0
 24 25  1  0
 25 26  1  0
 26 27  1  0
 28 27  1  1
 28 29  1  0
 28 30  1  0
 29 31  1  0
 30 32  1  0
 31 32  2  0
 30 33  1  1
 32 34  1  0
 33 35  2  0
 34 36  2  0
 35 36  1  0
M  END
