WIL-UNI-5578df48-26
     RDKit          3D

 24 26  0  0  0  0  0  0  0  0999 V2000
    8.5490    0.6280   21.1650 O   0  0  0  0  0  0  0  0  0  0  0  0
    8.2430   -0.5480   21.3390 C   0  0  0  0  0  0  0  0  0  0  0  0
    7.0240   -1.0010   20.8850 N   0  0  0  0  0  0  0  0  0  0  0  0
    9.0780   -1.4290   21.9540 N   0  0  0  0  0  0  0  0  0  0  0  0
    6.4290   -0.2020   19.9450 C   0  0  0  0  0  0  0  0  0  0  0  0
   10.3160   -0.9300   22.3200 C   0  0  0  0  0  0  0  0  0  0  0  0
    5.1120    0.3870   20.4000 C   0  0  0  0  0  0  0  0  0  0  0  0
    6.8740    0.1220   18.6870 C   0  0  0  0  0  0  0  0  0  0  0  0
   11.7050   -1.6140   22.2160 C   0  0  0  0  0  0  0  0  0  0  0  0
   10.2400    0.3560   22.8200 C   0  0  0  0  0  0  0  0  0  0  0  0
    4.3680    1.3030   19.4410 C   0  0  0  0  0  0  0  0  0  0  0  0
    6.2310    0.9480   17.8110 N   0  0  0  0  0  0  0  0  0  0  0  0
   12.8560   -0.7800   22.6800 C   0  0  0  0  0  0  0  0  0  0  0  0
   11.3380    1.0710   23.2240 C   0  0  0  0  0  0  0  0  0  0  0  0
    5.0260    1.5470   18.1040 C   0  0  0  0  0  0  0  0  0  0  0  0
   12.6240    0.5140   23.1570 C   0  0  0  0  0  0  0  0  0  0  0  0
   11.1220    2.3440   23.6810 C   0  0  0  0  0  0  0  0  0  0  0  0
    9.6320    2.7740   23.6010 C   0  0  0  0  0  0  0  0  0  0  0  0
    9.3270    4.0590   22.7950 C   0  0  0  0  0  0  0  0  0  0  0  0
    8.5870    2.0590   24.2210 C   0  0  0  0  0  0  0  0  0  0  0  0
    7.9100    4.4850   22.7110 C   0  0  0  0  0  0  0  0  0  0  0  0
    7.2670    2.5140   24.1070 C   0  0  0  0  0  0  0  0  0  0  0  0
    8.8490    0.9180   24.9320 O   0  0  0  0  0  0  0  0  0  0  0  0
    6.8390    3.6710   23.4020 C   0  0  0  0  0  0  0  0  0  0  0  0
  1  2  2  0
  2  3  1  0
  2  4  1  0
  3  5  1  0
  4  6  1  0
  5  7  2  0
  5  8  1  0
  6  9  2  0
  6 10  1  0
  7 11  1  0
  8 12  2  0
  9 13  1  0
 10 14  2  0
 11 15  2  0
 12 15  1  0
 13 16  2  0
 14 16  1  0
 14 17  1  0
 17 18  1  0
 18 19  2  0
 18 20  1  0
 19 21  1  0
 20 22  2  0
 20 23  1  0
 21 24  2  0
 22 24  1  0
M  END
