WIL-UNI-5578df48-9
     RDKit          3D

 24 26  0  0  0  0  0  0  0  0999 V2000
    8.5860    0.8450   21.2280 O   0  0  0  0  0  0  0  0  0  0  0  0
    8.1930   -0.2590   21.6030 C   0  0  0  0  0  0  0  0  0  0  0  0
    8.9810   -1.0700   22.3950 N   0  0  0  0  0  0  0  0  0  0  0  0
    6.9670   -0.6720   21.2140 N   0  0  0  0  0  0  0  0  0  0  0  0
   10.2500   -0.6030   22.5780 C   0  0  0  0  0  0  0  0  0  0  0  0
    6.3560   -0.0550   20.1160 C   0  0  0  0  0  0  0  0  0  0  0  0
   11.3710   -1.4860   22.2180 C   0  0  0  0  0  0  0  0  0  0  0  0
   10.5130    0.6260   23.0570 C   0  0  0  0  0  0  0  0  0  0  0  0
    6.9880   -0.1120   18.7720 C   0  0  0  0  0  0  0  0  0  0  0  0
    5.1380    0.6510   20.2240 C   0  0  0  0  0  0  0  0  0  0  0  0
   12.7840   -0.9700   22.3940 C   0  0  0  0  0  0  0  0  0  0  0  0
   11.9650    1.0540   23.1940 C   0  0  0  0  0  0  0  0  0  0  0  0
    6.3690    0.5350   17.7310 N   0  0  0  0  0  0  0  0  0  0  0  0
    4.5960    1.2690   19.0710 C   0  0  0  0  0  0  0  0  0  0  0  0
    4.3510    0.7430   21.7630 S   0  0  0  0  0  0  0  0  0  0  0  0
   13.2000    0.4180   22.9200 C   0  0  0  0  0  0  0  0  0  0  0  0
    5.2000    1.2280   17.8240 C   0  0  0  0  0  0  0  0  0  0  0  0
    3.0650    1.7710   21.1390 C   0  0  0  0  0  0  0  0  0  0  0  0
    1.5780    1.5570   21.5530 C   0  0  0  0  0  0  0  0  0  0  0  0
    3.3870    2.8080   20.2450 C   0  0  0  0  0  0  0  0  0  0  0  0
    0.5830    2.4870   20.9450 C   0  0  0  0  0  0  0  0  0  0  0  0
    2.4150    3.6470   19.7090 C   0  0  0  0  0  0  0  0  0  0  0  0
    1.0350    3.5670   19.9890 C   0  0  0  0  0  0  0  0  0  0  0  0
   -0.0940    4.6550   19.2780 Cl  0  0  0  0  0  0  0  0  0  0  0  0
  1  2  2  0
  2  3  1  0
  2  4  1  0
  3  5  1  0
  4  6  1  0
  5  7  2  0
  5  8  1  0
  6  9  2  0
  6 10  1  0
  7 11  1  0
  8 12  2  0
  9 13  1  0
 10 14  2  0
 10 15  1  0
 11 16  2  0
 12 16  1  0
 13 17  2  0
 14 17  1  0
 15 18  1  0
 18 19  2  0
 18 20  1  0
 19 21  1  0
 20 22  2  0
 21 23  2  0
 22 23  1  0
 23 24  1  0
M  END
