WIL-UNI-5578df48-7
     RDKit          3D

 23 25  0  0  0  0  0  0  0  0999 V2000
    8.6330    0.7420   21.1980 O   0  0  0  0  0  0  0  0  0  0  0  0
    8.2970   -0.3660   21.6080 C   0  0  0  0  0  0  0  0  0  0  0  0
    9.0640   -1.1120   22.4700 N   0  0  0  0  0  0  0  0  0  0  0  0
    7.1450   -0.9060   21.2280 N   0  0  0  0  0  0  0  0  0  0  0  0
   10.2850   -0.6020   22.6980 C   0  0  0  0  0  0  0  0  0  0  0  0
    6.5890   -2.0260   21.8770 C   0  0  0  0  0  0  0  0  0  0  0  0
    6.4300   -0.2140   20.1910 C   0  0  0  0  0  0  0  0  0  0  0  0
   11.4070   -1.3600   22.1340 C   0  0  0  0  0  0  0  0  0  0  0  0
   10.5000    0.5340   23.3810 C   0  0  0  0  0  0  0  0  0  0  0  0
    7.4270   -3.1580   22.4180 C   0  0  0  0  0  0  0  0  0  0  0  0
    5.2150   -2.1920   22.0870 C   0  0  0  0  0  0  0  0  0  0  0  0
    5.1380    0.4830   20.4700 C   0  0  0  0  0  0  0  0  0  0  0  0
    6.9250   -0.1560   18.8950 C   0  0  0  0  0  0  0  0  0  0  0  0
   12.7960   -0.8160   22.3240 C   0  0  0  0  0  0  0  0  0  0  0  0
   11.9310    1.0050   23.5190 C   0  0  0  0  0  0  0  0  0  0  0  0
    6.8980   -4.2740   23.0670 C   0  0  0  0  0  0  0  0  0  0  0  0
    4.6860   -3.3090   22.7370 C   0  0  0  0  0  0  0  0  0  0  0  0
    4.4590    1.2090   19.3320 C   0  0  0  0  0  0  0  0  0  0  0  0
    6.3530    0.4860   17.8500 N   0  0  0  0  0  0  0  0  0  0  0  0
   13.1740    0.4800   23.0590 C   0  0  0  0  0  0  0  0  0  0  0  0
    5.5120   -4.3490   23.2260 C   0  0  0  0  0  0  0  0  0  0  0  0
    5.1890    1.1370   18.0340 C   0  0  0  0  0  0  0  0  0  0  0  0
    4.9650   -5.4020   23.8440 F   0  0  0  0  0  0  0  0  0  0  0  0
  1  2  2  0
  2  3  1  0
  2  4  1  0
  3  5  1  0
  4  6  1  0
  4  7  1  0
  5  8  2  0
  5  9  1  0
  6 10  2  0
  6 11  1  0
  7 12  2  0
  7 13  1  0
  8 14  1  0
  9 15  2  0
 10 16  1  0
 11 17  2  0
 12 18  1  0
 13 19  2  0
 14 20  2  0
 15 20  1  0
 16 21  2  0
 17 21  1  0
 18 22  2  0
 19 22  1  0
 21 23  1  0
M  END
