WIL-UNI-5578df48-16
     RDKit          3D

 24 26  0  0  0  0  0  0  0  0999 V2000
    8.5400    0.2660   21.1350 O   0  0  0  0  0  0  0  0  0  0  0  0
    8.0420   -0.7950   21.5100 C   0  0  0  0  0  0  0  0  0  0  0  0
    8.6820   -1.5530   22.4640 N   0  0  0  0  0  0  0  0  0  0  0  0
    6.8940   -1.0830   20.9560 N   0  0  0  0  0  0  0  0  0  0  0  0
    9.7580   -0.8320   22.7840 C   0  0  0  0  0  0  0  0  0  0  0  0
    6.2350   -0.2580   20.0430 C   0  0  0  0  0  0  0  0  0  0  0  0
   11.0510   -1.3290   22.1160 C   0  0  0  0  0  0  0  0  0  0  0  0
    9.6060    0.2790   23.6290 C   0  0  0  0  0  0  0  0  0  0  0  0
    4.9320    0.5290   20.3340 C   0  0  0  0  0  0  0  0  0  0  0  0
    6.8140   -0.1360   18.7840 C   0  0  0  0  0  0  0  0  0  0  0  0
   12.2580   -0.4890   22.3850 C   0  0  0  0  0  0  0  0  0  0  0  0
   10.6900    1.0510   23.8820 C   0  0  0  0  0  0  0  0  0  0  0  0
    4.4310    1.3800   19.1370 C   0  0  0  0  0  0  0  0  0  0  0  0
    6.3650    0.6150   17.7440 N   0  0  0  0  0  0  0  0  0  0  0  0
   11.8050    0.6150   23.2550 C   0  0  0  0  0  0  0  0  0  0  0  0
    5.2420    1.3350   17.9000 C   0  0  0  0  0  0  0  0  0  0  0  0
   13.1400    0.9760   23.0640 C   0  0  0  0  0  0  0  0  0  0  0  0
   12.9780    2.3650   22.9180 N   0  0  0  0  0  0  0  0  0  0  0  0
   11.7480    2.9090   23.0090 C   0  0  0  0  0  0  0  0  0  0  0  0
   13.8710    3.4120   22.6700 N   0  0  0  0  0  0  0  0  0  0  0  0
   11.9170    4.3950   22.8120 C   0  0  0  0  0  0  0  0  0  0  0  0
   13.2520    4.6470   22.6050 N   0  0  0  0  0  0  0  0  0  0  0  0
   10.8120    5.4230   22.8410 C   0  0  0  0  0  0  0  0  0  0  0  0
   10.6820    5.9230   24.1070 F   0  0  0  0  0  0  0  0  0  0  0  0
  1  2  2  0
  2  3  1  0
  2  4  1  0
  3  5  1  0
  4  6  1  0
  5  7  2  0
  5  8  1  0
  6  9  2  0
  6 10  1  0
  7 11  1  0
  8 12  2  0
  9 13  1  0
 10 14  2  0
 11 15  2  0
 12 15  1  0
 13 16  2  0
 14 16  1  0
 15 17  1  0
 17 18  1  0
 18 19  1  0
 18 20  1  0
 19 21  2  0
 20 22  2  0
 21 22  1  0
 21 23  1  0
 23 24  1  0
M  END
