WIL-UNI-5578df48-24
     RDKit          3D

 23 24  0  0  0  0  0  0  0  0999 V2000
    8.3450    0.8610   21.0300 O   0  0  0  0  0  0  0  0  0  0  0  0
    7.9470   -0.2100   21.4810 C   0  0  0  0  0  0  0  0  0  0  0  0
    6.8400   -0.8190   20.9690 N   0  0  0  0  0  0  0  0  0  0  0  0
    8.5800   -0.8160   22.4830 N   0  0  0  0  0  0  0  0  0  0  0  0
    6.3350   -0.1270   19.9210 C   0  0  0  0  0  0  0  0  0  0  0  0
    9.7970   -0.2980   22.7970 C   0  0  0  0  0  0  0  0  0  0  0  0
    5.0480    0.5920   20.2380 C   0  0  0  0  0  0  0  0  0  0  0  0
    6.8690   -0.0160   18.6730 C   0  0  0  0  0  0  0  0  0  0  0  0
   10.0030    1.0840   23.4720 C   0  0  0  0  0  0  0  0  0  0  0  0
   10.8900   -1.0590   22.4760 C   0  0  0  0  0  0  0  0  0  0  0  0
    4.4190    1.4170   19.1320 C   0  0  0  0  0  0  0  0  0  0  0  0
    6.3360    0.7170   17.6590 N   0  0  0  0  0  0  0  0  0  0  0  0
   11.4020    1.4910   23.7150 C   0  0  0  0  0  0  0  0  0  0  0  0
   12.1480   -0.5980   22.7520 C   0  0  0  0  0  0  0  0  0  0  0  0
    5.1610    1.4320   17.8140 C   0  0  0  0  0  0  0  0  0  0  0  0
   12.4130    0.6270   23.3410 C   0  0  0  0  0  0  0  0  0  0  0  0
   13.1580   -1.3860   22.4740 C   0  0  0  0  0  0  0  0  0  0  0  0
   13.3820   -1.6720   23.9560 C   0  0  0  0  0  0  0  0  0  0  0  0
   13.5700   -3.1630   24.1710 C   0  0  1  0  0  0  0  0  0  0  0  0
   13.8680   -3.3560   22.7970 O   0  0  0  0  0  0  0  0  0  0  0  0
   14.8000   -3.7170   24.9400 C   0  0  0  0  0  0  0  0  0  0  0  0
   14.7520   -4.8370   25.9770 C   0  0  0  0  0  0  0  0  0  0  0  0
   13.9770   -4.4240   27.0570 O   0  0  0  0  0  0  0  0  0  0  0  0
  1  2  2  0
  2  3  1  0
  2  4  1  0
  3  5  1  0
  4  6  1  0
  5  7  2  0
  5  8  1  0
  6  9  2  0
  6 10  1  0
  7 11  1  0
  8 12  2  0
  9 13  1  0
 10 14  2  0
 11 15  2  0
 12 15  1  0
 13 16  2  0
 14 16  1  0
 14 17  1  0
 17 18  1  0
 18 19  1  0
 19 20  1  6
 19 21  1  0
 21 22  1  0
 22 23  1  0
M  END
