WIL-UNI-5578df48-25
     RDKit          3D

 24 26  0  0  0  0  0  0  0  0999 V2000
   18.1060    0.2850   17.6850 C   0  0  0  0  0  0  0  0  0  0  0  0
   16.9920    0.1600   16.7250 C   0  0  1  0  0  0  0  0  0  0  0  0
   16.6410   -1.2440   16.9970 C   0  0  0  0  0  0  0  0  0  0  0  0
   16.0730    1.1360   17.0950 C   0  0  0  0  0  0  0  0  0  0  0  0
   15.8010   -1.2520   18.2110 C   0  0  0  0  0  0  0  0  0  0  0  0
   16.0460    1.3650   18.4600 C   0  0  0  0  0  0  0  0  0  0  0  0
   15.5220    0.0190   18.8980 C   0  0  0  0  0  0  0  0  0  0  0  0
   14.5210   -0.8570   19.7600 C   0  0  0  0  0  0  0  0  0  0  0  0
   13.7410   -0.6200   20.9980 C   0  0  0  0  0  0  0  0  0  0  0  0
   13.8260    0.6620   21.9250 C   0  0  0  0  0  0  0  0  0  0  0  0
   12.7330   -1.5800   21.3970 C   0  0  0  0  0  0  0  0  0  0  0  0
   12.9200    0.7910   23.0690 C   0  0  0  0  0  0  0  0  0  0  0  0
   11.8720   -1.3490   22.5220 C   0  0  0  0  0  0  0  0  0  0  0  0
   12.0040   -0.2060   23.2960 C   0  0  0  0  0  0  0  0  0  0  0  0
   10.8550   -2.2570   22.8400 N   0  0  0  0  0  0  0  0  0  0  0  0
    9.5210   -1.8020   22.7790 C   0  0  0  0  0  0  0  0  0  0  0  0
    8.8990   -1.3750   23.7540 O   0  0  0  0  0  0  0  0  0  0  0  0
    9.0050   -1.8420   21.4880 N   0  0  0  0  0  0  0  0  0  0  0  0
    7.7820   -1.1810   20.9960 C   0  0  0  0  0  0  0  0  0  0  0  0
    6.7160   -0.6270   21.9930 C   0  0  0  0  0  0  0  0  0  0  0  0
    7.4670   -0.9930   19.6150 C   0  0  0  0  0  0  0  0  0  0  0  0
    5.5240    0.0140   21.3760 C   0  0  0  0  0  0  0  0  0  0  0  0
    6.3620   -0.3960   19.0520 N   0  0  0  0  0  0  0  0  0  0  0  0
    5.4450    0.0770   19.8710 C   0  0  0  0  0  0  0  0  0  0  0  0
  2  1  1  1
  2  3  1  0
  2  4  1  0
  3  5  1  0
  4  6  1  0
  5  7  2  0
  6  7  1  0
  7  8  1  0
  8  9  1  0
  9 10  2  0
  9 11  1  0
 10 12  1  0
 11 13  2  0
 12 14  2  0
 13 14  1  0
 13 15  1  0
 15 16  1  0
 16 17  2  0
 16 18  1  0
 18 19  1  0
 19 20  2  0
 19 21  1  0
 20 22  1  0
 21 23  2  0
 22 24  2  0
 23 24  1  0
M  END
