WIL-NOV-649f4ed0-2-nitrile
     RDKit          3D

 22 23  0  0  0  0  0  0  0  0999 V2000
    9.0380   -4.2950   14.9520 C   0  0  0  0  0  0  0  0  0  0  0  0
    7.6930   -4.2650   14.8310 N   0  0  0  0  0  0  0  0  0  0  0  0
    8.7750   -3.4610   10.6240 C   0  0  0  0  0  0  0  0  0  0  0  0
    8.1840   -2.7910    6.8470 N   0  0  0  0  0  0  0  0  0  0  0  0
    8.0760   -2.8580    3.7670 C   0  0  0  0  0  0  0  0  0  0  0  0
    7.9130   -4.0680    3.6770 O   0  0  0  0  0  0  0  0  0  0  0  0
    7.7630   -2.5230    0.9900 C   0  0  0  0  0  0  0  0  0  0  0  0
    7.0600   -3.4500   -0.2770 C   0  0  0  0  0  0  0  0  0  0  0  0
    7.7500   -1.9450   -1.0050 C   0  0  0  0  0  0  0  0  0  0  0  0
    6.8140   -3.4130   -2.0270 C   0  0  0  0  0  0  0  0  0  0  0  0
    7.7390   -1.4820   -2.6070 C   0  0  0  0  0  0  0  0  0  0  0  0
    6.8950   -2.8770   -2.4520 S   0  0  0  0  0  0  0  0  0  0  0  0
    6.1760   -4.7030   -1.6870 N   0  0  0  0  0  0  0  0  0  0  0  0
    7.4540   -2.3120   -1.8000 C   0  0  0  0  0  0  0  0  0  0  0  0
    6.8760   -1.8040   -3.7700 N   0  0  0  0  0  0  0  0  0  0  0  0
    5.4750   -2.9920   -2.1770 O   0  0  0  0  0  0  0  0  0  0  0  0
    7.7530   -4.0010   -2.9020 O   0  0  0  0  0  0  0  0  0  0  0  0
    4.9560   -4.8460   -1.0750 C   0  0  0  0  0  0  0  0  0  0  0  0
    6.8340   -5.9660   -2.0690 C   0  0  0  0  0  0  0  0  0  0  0  0
    4.5320   -6.2980   -0.8380 C   0  0  0  0  0  0  0  0  0  0  0  0
    6.4210   -6.9580   -1.1950 C   0  0  0  0  0  0  0  0  0  0  0  0
    5.2290   -7.1990   -1.2830 O   0  0  0  0  0  0  0  0  0  0  0  0
  1  2  2  3
  1  3  1  0
  3  4  1  0
  4  5  1  0
  5  6  2  0
  5  7  1  0
  7  8  2  0
  7  9  1  0
  8 10  1  0
  9 11  2  0
  9 12  1  0
 10 13  1  0
 10 14  2  0
 11 14  1  0
 12 15  1  0
 12 16  2  0
 12 17  2  0
 13 18  1  0
 13 19  1  0
 18 20  1  0
 19 21  1  0
 20 22  1  0
 21 22  1  0
M  END
