WIL-UNI-5578df48-32
     RDKit          3D

 28 29  0  0  0  0  0  0  0  0999 V2000
   11.4080   -3.1410   24.1710 C   0  0  0  0  0  0  0  0  0  0  0  0
   12.3740   -2.0640   23.8530 C   0  0  0  0  0  0  0  0  0  0  0  0
   13.2320   -2.4580   22.6690 C   0  0  0  0  0  0  0  0  0  0  0  0
   13.3040   -2.0600   25.0510 C   0  0  0  0  0  0  0  0  0  0  0  0
   11.6430   -0.9830   23.4320 C   0  0  0  0  0  0  0  0  0  0  0  0
   14.1410   -2.2950   26.0980 N   0  0  0  0  0  0  0  0  0  0  0  0
   10.2290   -1.2890   23.2730 C   0  0  0  0  0  0  0  0  0  0  0  0
   11.9720    0.3240   23.0840 C   0  0  0  0  0  0  0  0  0  0  0  0
    9.3630   -0.4050   22.8360 C   0  0  0  0  0  0  0  0  0  0  0  0
   11.0690    1.2160   22.6560 C   0  0  0  0  0  0  0  0  0  0  0  0
   13.1640    1.0240   23.0570 C   0  0  0  0  0  0  0  0  0  0  0  0
    8.0410   -0.7740   22.6560 N   0  0  0  0  0  0  0  0  0  0  0  0
    9.7660    0.9350   22.5050 C   0  0  0  0  0  0  0  0  0  0  0  0
   12.9390    2.4420   22.8920 C   0  0  0  0  0  0  0  0  0  0  0  0
    7.6200   -0.2660   21.4580 C   0  0  0  0  0  0  0  0  0  0  0  0
   13.8600    3.3480   22.4510 O   0  0  0  0  0  0  0  0  0  0  0  0
   11.8750    2.8310   23.1610 N   0  0  0  0  0  0  0  0  0  0  0  0
    8.2000    0.6540   20.9070 O   0  0  0  0  0  0  0  0  0  0  0  0
    6.5210   -0.8340   20.9210 N   0  0  0  0  0  0  0  0  0  0  0  0
   11.4950    4.1260   23.2440 C   0  0  0  0  0  0  0  0  0  0  0  0
    5.9740   -0.0630   19.9130 C   0  0  0  0  0  0  0  0  0  0  0  0
   10.4150    4.4170   24.0090 N   0  0  0  0  0  0  0  0  0  0  0  0
   12.1120    5.0070   22.6490 O   0  0  0  0  0  0  0  0  0  0  0  0
    4.7980    0.6820   20.0250 C   0  0  0  0  0  0  0  0  0  0  0  0
    6.6780   -0.0250   18.7200 C   0  0  0  0  0  0  0  0  0  0  0  0
    4.3520    1.4510   18.9570 C   0  0  0  0  0  0  0  0  0  0  0  0
    6.3190    0.6830   17.6500 N   0  0  0  0  0  0  0  0  0  0  0  0
    5.0980    1.4570   17.7960 C   0  0  0  0  0  0  0  0  0  0  0  0
  1  2  1  0
  2  3  1  0
  2  4  1  0
  2  5  1  0
  4  6  3  0
  5  7  2  0
  5  8  1  0
  7  9  1  0
  8 10  2  0
  8 11  1  0
  9 12  1  0
  9 13  2  0
 10 13  1  0
 11 14  1  0
 12 15  1  0
 14 16  2  0
 14 17  1  0
 15 18  2  0
 15 19  1  0
 17 20  1  0
 19 21  1  0
 20 22  1  0
 20 23  2  0
 21 24  2  0
 21 25  1  0
 24 26  1  0
 25 27  2  0
 26 28  2  0
 27 28  1  0
M  END
