WIL-UNI-5578df48-30
     RDKit          3D

 24 26  0  0  0  0  0  0  0  0999 V2000
    8.6430    0.7610   21.2520 O   0  0  0  0  0  0  0  0  0  0  0  0
    8.4020   -0.4440   21.2420 C   0  0  0  0  0  0  0  0  0  0  0  0
    7.1320   -0.8910   20.9570 N   0  0  0  0  0  0  0  0  0  0  0  0
    9.3720   -1.3620   21.4920 N   0  0  0  0  0  0  0  0  0  0  0  0
    6.5100   -0.1860   19.9650 C   0  0  0  0  0  0  0  0  0  0  0  0
   10.3410   -0.9690   22.3850 C   0  0  0  0  0  0  0  0  0  0  0  0
    5.2390    0.5200   20.3840 C   0  0  0  0  0  0  0  0  0  0  0  0
    6.9320   -0.0600   18.6760 C   0  0  0  0  0  0  0  0  0  0  0  0
   11.8790   -0.9130   22.1770 C   0  0  0  0  0  0  0  0  0  0  0  0
    9.8100   -0.5790   23.5860 C   0  0  0  0  0  0  0  0  0  0  0  0
    4.5120    1.3430   19.3290 C   0  0  0  0  0  0  0  0  0  0  0  0
    6.3090    0.6690   17.7070 N   0  0  0  0  0  0  0  0  0  0  0  0
   12.6570   -0.3780   23.3110 C   0  0  0  0  0  0  0  0  0  0  0  0
   10.5670   -0.1220   24.6330 C   0  0  0  0  0  0  0  0  0  0  0  0
    5.1430    1.3700   17.9540 C   0  0  0  0  0  0  0  0  0  0  0  0
   11.9710   -0.0080   24.4740 C   0  0  0  0  0  0  0  0  0  0  0  0
    9.8080    0.1690   25.7780 C   0  0  0  0  0  0  0  0  0  0  0  0
    8.6020   -0.5320   25.9680 N   0  0  0  0  0  0  0  0  0  0  0  0
    8.2700   -1.8530   25.7750 C   0  0  0  0  0  0  0  0  0  0  0  0
    7.6360    0.1920   26.8140 C   0  0  0  0  0  0  0  0  0  0  0  0
    7.5340   -2.3770   27.0700 C   0  0  0  0  0  0  0  0  0  0  0  0
    7.6490   -0.2360   28.1470 C   0  0  2  0  0  0  0  0  0  0  0  0
    7.8850   -1.6080   28.3110 C   0  0  0  0  0  0  0  0  0  0  0  0
    6.3820    0.0420   28.7370 O   0  0  0  0  0  0  0  0  0  0  0  0
  1  2  2  0
  2  3  1  0
  2  4  1  0
  3  5  1  0
  4  6  1  0
  5  7  2  0
  5  8  1  0
  6  9  2  0
  6 10  1  0
  7 11  1  0
  8 12  2  0
  9 13  1  0
 10 14  2  0
 11 15  2  0
 12 15  1  0
 13 16  2  0
 14 16  1  0
 14 17  1  0
 17 18  1  0
 18 19  1  0
 18 20  1  0
 19 21  1  0
 20 22  1  0
 21 23  1  0
 22 23  1  0
 22 24  1  6
M  END
