WIL-UNI-5578df48-39
     RDKit          3D

 29 31  0  0  0  0  0  0  0  0999 V2000
    6.7290   -6.6240   22.5860 C   0  0  0  0  0  0  0  0  0  0  0  0
    5.8750   -5.8970   21.7240 O   0  0  0  0  0  0  0  0  0  0  0  0
    6.1410   -4.5730   21.5530 C   0  0  0  0  0  0  0  0  0  0  0  0
    5.5480   -3.7370   20.4380 C   0  0  0  0  0  0  0  0  0  0  0  0
    7.0250   -3.9900   22.4890 C   0  0  0  0  0  0  0  0  0  0  0  0
    5.9120   -2.2870   20.3570 C   0  0  0  0  0  0  0  0  0  0  0  0
    7.4240   -2.6190   22.4740 C   0  0  0  0  0  0  0  0  0  0  0  0
    6.8510   -1.7040   21.3650 C   0  0  0  0  0  0  0  0  0  0  0  0
    7.0980   -0.3010   21.1450 N   0  0  0  0  0  0  0  0  0  0  0  0
    8.1330    0.3730   21.6930 C   0  0  0  0  0  0  0  0  0  0  0  0
    6.4120    0.2850   20.0530 C   0  0  0  0  0  0  0  0  0  0  0  0
    8.7770    1.2520   21.1140 O   0  0  0  0  0  0  0  0  0  0  0  0
    8.4280    0.0270   22.9720 N   0  0  0  0  0  0  0  0  0  0  0  0
    5.2340    1.0060   20.2330 C   0  0  0  0  0  0  0  0  0  0  0  0
    6.8800    0.1710   18.7450 C   0  0  0  0  0  0  0  0  0  0  0  0
    9.7370    0.3290   23.1130 C   0  0  0  0  0  0  0  0  0  0  0  0
    4.6540    1.5480   19.1090 C   0  0  0  0  0  0  0  0  0  0  0  0
    6.3090    0.7060   17.6470 N   0  0  0  0  0  0  0  0  0  0  0  0
   10.5330    1.6300   23.4270 C   0  0  0  0  0  0  0  0  0  0  0  0
   10.6830   -0.8220   22.9200 C   0  0  0  0  0  0  0  0  0  0  0  0
    5.1840    1.4040   17.8510 C   0  0  0  0  0  0  0  0  0  0  0  0
   12.0350    1.5750   23.4820 C   0  0  0  0  0  0  0  0  0  0  0  0
   12.0350   -0.7560   23.0060 C   0  0  0  0  0  0  0  0  0  0  0  0
   12.7280    0.3910   23.2730 C   0  0  0  0  0  0  0  0  0  0  0  0
   12.5710   -1.9380   22.7900 C   0  0  0  0  0  0  0  0  0  0  0  0
   13.5780   -2.4950   23.8090 C   0  0  0  0  0  0  0  0  0  0  0  0
   13.0160   -2.0960   21.3960 C   0  0  0  0  0  0  0  0  0  0  0  0
   11.3910   -2.8070   23.0380 C   0  0  0  0  0  0  0  0  0  0  0  0
   10.2560   -3.5530   23.3860 N   0  0  0  0  0  0  0  0  0  0  0  0
  1  2  1  0
  2  3  1  0
  3  4  2  0
  3  5  1  0
  4  6  1  0
  5  7  2  0
  6  8  2  0
  7  8  1  0
  8  9  1  0
  9 10  1  0
  9 11  1  0
 10 12  2  0
 10 13  1  0
 11 14  2  0
 11 15  1  0
 13 16  1  0
 14 17  1  0
 15 18  2  0
 16 19  2  0
 16 20  1  0
 17 21  2  0
 18 21  1  0
 19 22  1  0
 20 23  2  0
 22 24  2  0
 23 24  1  0
 23 25  1  0
 25 26  1  0
 25 27  1  0
 25 28  1  0
 28 29  3  0
M  END
