WIL-UNI-5578df48-11
     RDKit          3D

 23 25  0  0  0  0  0  0  0  0999 V2000
    8.6450    0.7950   21.3110 O   0  0  0  0  0  0  0  0  0  0  0  0
    8.3550   -0.3780   21.5350 C   0  0  0  0  0  0  0  0  0  0  0  0
    9.0930   -1.1500   22.3980 N   0  0  0  0  0  0  0  0  0  0  0  0
    7.3010   -0.9160   20.9180 N   0  0  0  0  0  0  0  0  0  0  0  0
   10.3350   -0.6420   22.5850 C   0  0  0  0  0  0  0  0  0  0  0  0
    6.5370   -0.1740   20.0230 C   0  0  0  0  0  0  0  0  0  0  0  0
   11.4740   -1.4990   22.2390 C   0  0  0  0  0  0  0  0  0  0  0  0
   10.5530    0.6010   23.0500 C   0  0  0  0  0  0  0  0  0  0  0  0
    6.9600    0.1010   18.6280 C   0  0  0  0  0  0  0  0  0  0  0  0
    5.3260    0.3550   20.4370 C   0  0  0  0  0  0  0  0  0  0  0  0
   12.8670   -0.9420   22.4080 C   0  0  0  0  0  0  0  0  0  0  0  0
   11.9880    1.0730   23.1810 C   0  0  0  0  0  0  0  0  0  0  0  0
    6.1300    0.8770   17.8480 N   0  0  0  0  0  0  0  0  0  0  0  0
    4.5350    1.1410   19.5600 C   0  0  0  0  0  0  0  0  0  0  0  0
    4.8080    0.1030   21.8830 C   0  0  0  0  0  0  0  0  0  0  0  0
   13.2410    0.4680   22.9160 C   0  0  0  0  0  0  0  0  0  0  0  0
    4.9400    1.4140   18.2470 C   0  0  0  0  0  0  0  0  0  0  0  0
    5.0810   -1.4150   22.2390 C   0  0  0  0  0  0  0  0  0  0  0  0
    5.2070   -1.8340   23.6730 C   0  0  0  0  0  0  0  0  0  0  0  0
    5.2080   -2.4010   21.2460 C   0  0  0  0  0  0  0  0  0  0  0  0
    5.4590   -3.2760   24.0430 C   0  0  0  0  0  0  0  0  0  0  0  0
    5.4380   -3.7490   21.5680 C   0  0  0  0  0  0  0  0  0  0  0  0
    5.5610   -4.2010   22.8730 C   0  0  0  0  0  0  0  0  0  0  0  0
  1  2  2  0
  2  3  1  0
  2  4  1  0
  3  5  1  0
  4  6  1  0
  5  7  2  0
  5  8  1  0
  6  9  2  0
  6 10  1  0
  7 11  1  0
  8 12  2  0
  9 13  1  0
 10 14  2  0
 10 15  1  0
 11 16  2  0
 12 16  1  0
 13 17  2  0
 14 17  1  0
 15 18  1  0
 18 19  2  0
 18 20  1  0
 19 21  1  0
 20 22  2  0
 21 23  2  0
 22 23  1  0
M  END
