WIL-UNI-5578df48-22
     RDKit          3D

 21 22  0  0  0  0  0  0  0  0999 V2000
   13.4110    0.6140   22.7660 C   0  0  0  0  0  0  0  0  0  0  0  0
   13.9360   -0.6160   22.3010 O   0  0  0  0  0  0  0  0  0  0  0  0
   13.1230   -1.6470   22.4510 C   0  0  0  0  0  0  0  0  0  0  0  0
   12.7350   -2.5220   21.2840 C   0  0  0  0  0  0  0  0  0  0  0  0
   13.5200   -2.5200   23.6530 C   0  0  0  0  0  0  0  0  0  0  0  0
   12.0840   -0.8860   22.8610 C   0  0  0  0  0  0  0  0  0  0  0  0
   12.2850    0.3490   23.6730 C   0  0  0  0  0  0  0  0  0  0  0  0
   10.7880   -1.2410   22.5190 C   0  0  0  0  0  0  0  0  0  0  0  0
   11.2260    1.1120   24.0710 C   0  0  0  0  0  0  0  0  0  0  0  0
    9.7020   -0.5000   22.9060 C   0  0  0  0  0  0  0  0  0  0  0  0
    9.8230    0.6500   23.6600 C   0  0  0  0  0  0  0  0  0  0  0  0
    8.5020   -0.9810   22.4800 N   0  0  0  0  0  0  0  0  0  0  0  0
    7.8710   -0.3570   21.4420 C   0  0  0  0  0  0  0  0  0  0  0  0
    8.2650    0.9110   20.9120 O   0  0  0  0  0  0  0  0  0  0  0  0
    6.8010   -0.9770   20.9030 N   0  0  0  0  0  0  0  0  0  0  0  0
    6.2260   -0.1780   19.9460 C   0  0  0  0  0  0  0  0  0  0  0  0
    5.0640    0.5100   20.1930 C   0  0  0  0  0  0  0  0  0  0  0  0
    6.8200   -0.0470   18.7090 C   0  0  0  0  0  0  0  0  0  0  0  0
    4.4160    1.4160   19.1370 C   0  0  0  0  0  0  0  0  0  0  0  0
    6.3460    0.7410   17.6550 N   0  0  0  0  0  0  0  0  0  0  0  0
    5.2060    1.4650   17.7930 C   0  0  0  0  0  0  0  0  0  0  0  0
  1  2  1  0
  3  2  1  0
  3  4  1  0
  3  5  1  0
  3  6  1  0
  6  7  2  0
  6  8  1  0
  7  9  1  0
  8 10  2  0
  9 11  2  0
 10 11  1  0
 10 12  1  0
 12 13  1  0
 13 14  2  0
 13 15  1  0
 15 16  1  0
 16 17  2  0
 16 18  1  0
 17 19  1  0
 18 20  2  0
 19 21  2  0
 20 21  1  0
M  END
