WIL-LEE-1f71e281-7
     RDKit          3D

 18 18  0  0  0  0  0  0  0  0999 V2000
    7.4220   -0.6570   20.4140 C   0  0  0  0  0  0  0  0  0  0  0  0
    7.2810    0.2690   21.6150 C   0  0  0  0  0  0  0  0  0  0  0  0
    6.9350    1.4400   21.4820 O   0  0  0  0  0  0  0  0  0  0  0  0
    7.5630   -0.3290   22.8310 N   0  0  0  0  0  0  0  0  0  0  0  0
    8.6210   -1.3530   22.9390 C   0  0  2  0  0  0  0  0  0  0  0  0
    8.3940   -2.0480   24.1230 C   0  0  0  0  0  0  0  0  0  0  0  0
    9.9870   -0.7430   22.9410 C   0  0  0  0  0  0  0  0  0  0  0  0
    8.9610   -3.4390   24.1510 N   0  0  0  0  0  0  0  0  0  0  0  0
   10.2850    0.5930   23.6640 C   0  0  0  0  0  0  0  0  0  0  0  0
   10.9800   -1.4340   22.2620 C   0  0  0  0  0  0  0  0  0  0  0  0
    8.4260   -4.4230   25.4040 S   0  0  0  0  0  0  0  0  0  0  0  0
   11.6900    1.1730   23.6340 C   0  0  0  0  0  0  0  0  0  0  0  0
   12.2670   -0.9460   22.2110 C   0  0  0  0  0  0  0  0  0  0  0  0
    7.9400   -3.1300   26.5280 C   0  0  0  0  0  0  0  0  0  0  0  0
    7.2350   -5.1130   24.9550 O   0  0  0  0  0  0  0  0  0  0  0  0
    9.5360   -5.1600   25.9620 O   0  0  0  0  0  0  0  0  0  0  0  0
   12.6770    0.3440   22.8750 C   0  0  0  0  0  0  0  0  0  0  0  0
   13.3320   -1.8960   21.3360 Cl  0  0  0  0  0  0  0  0  0  0  0  0
  1  2  1  0
  2  3  2  0
  2  4  1  0
  4  5  1  0
  5  6  1  1
  5  7  1  0
  6  8  1  0
  7  9  2  0
  7 10  1  0
 11  8  1  0
  9 12  1  0
 10 13  2  0
 11 14  1  0
 11 15  2  0
 11 16  2  0
 12 17  2  0
 13 17  1  0
 13 18  1  0
M  END
