WIL-UNI-5578df48-15
     RDKit          3D

 23 24  0  0  0  0  0  0  0  0999 V2000
   10.0630   -3.2490   23.7590 N   0  0  0  0  0  0  0  0  0  0  0  0
   10.9730   -2.5630   24.4500 C   0  0  0  0  0  0  0  0  0  0  0  0
   10.6090   -1.3490   25.0880 O   0  0  0  0  0  0  0  0  0  0  0  0
   12.2330   -3.0550   24.5250 N   0  0  0  0  0  0  0  0  0  0  0  0
   13.3380   -2.2020   24.9710 C   0  0  0  0  0  0  0  0  0  0  0  0
   14.3220   -2.6910   25.8740 O   0  0  0  0  0  0  0  0  0  0  0  0
   13.2520   -0.7960   24.3650 C   0  0  0  0  0  0  0  0  0  0  0  0
   12.0560   -0.6550   23.6170 C   0  0  0  0  0  0  0  0  0  0  0  0
   11.1620    0.5020   24.0640 C   0  0  0  0  0  0  0  0  0  0  0  0
   11.9990   -1.6460   22.6690 C   0  0  0  0  0  0  0  0  0  0  0  0
   10.0940    0.1210   23.0970 C   0  0  0  0  0  0  0  0  0  0  0  0
   10.9430   -1.7760   21.9020 C   0  0  0  0  0  0  0  0  0  0  0  0
    9.9850   -0.8850   22.1500 C   0  0  0  0  0  0  0  0  0  0  0  0
    8.8120   -0.9120   21.4860 N   0  0  0  0  0  0  0  0  0  0  0  0
    8.1490    0.2000   21.1950 C   0  0  0  0  0  0  0  0  0  0  0  0
    8.6900    1.4620   21.1210 O   0  0  0  0  0  0  0  0  0  0  0  0
    6.8930   -0.1250   20.9660 N   0  0  0  0  0  0  0  0  0  0  0  0
    6.2170    0.4000   19.9680 C   0  0  0  0  0  0  0  0  0  0  0  0
    5.0070    1.0660   20.1160 C   0  0  0  0  0  0  0  0  0  0  0  0
    6.7870    0.2800   18.7240 C   0  0  0  0  0  0  0  0  0  0  0  0
    4.4170    1.6090   18.9950 C   0  0  0  0  0  0  0  0  0  0  0  0
    6.2760    0.7760   17.6190 N   0  0  0  0  0  0  0  0  0  0  0  0
    5.0670    1.4570   17.7840 C   0  0  0  0  0  0  0  0  0  0  0  0
  1  2  1  0
  2  3  2  0
  2  4  1  0
  4  5  1  0
  5  6  2  0
  5  7  1  0
  7  8  1  0
  8  9  2  0
  8 10  1  0
  9 11  1  0
 10 12  2  0
 11 13  2  0
 12 13  1  0
 13 14  1  0
 14 15  1  0
 15 16  2  0
 15 17  1  0
 17 18  1  0
 18 19  2  0
 18 20  1  0
 19 21  1  0
 20 22  2  0
 21 23  2  0
 22 23  1  0
M  END
