YOI-UNK-090ea88a-1-vinylsulfonamide
     RDKit          3D

 37 40  0  0  0  0  0  0  0  0999 V2000
    7.5070   -2.9210   18.5540 C   0  0  0  0  0  0  0  0  0  0  0  0
    7.0090   -2.3110   19.8360 C   0  0  0  0  0  0  0  0  0  0  0  0
    6.0100   -3.5170   20.6570 S   0  0  0  0  0  0  0  0  0  0  0  0
    4.7850   -2.9910   21.1810 O   0  0  0  0  0  0  0  0  0  0  0  0
    5.7970   -4.6770   19.8460 O   0  0  0  0  0  0  0  0  0  0  0  0
    6.9920   -3.8980   21.9920 N   0  0  0  0  0  0  0  0  0  0  0  0
    6.1250   -4.3140   23.0680 C   0  0  0  0  0  0  0  0  0  0  0  0
    8.0170   -2.8870   22.3920 C   0  0  0  0  0  0  0  0  0  0  0  0
    5.4790   -3.0970   23.7160 C   0  0  0  0  0  0  0  0  0  0  0  0
    7.4710   -1.7230   23.2470 C   0  0  0  0  0  0  0  0  0  0  0  0
    6.5230   -2.2400   24.2450 N   0  0  0  0  0  0  0  0  0  0  0  0
    6.4600   -1.8170   25.5380 C   0  0  0  0  0  0  0  0  0  0  0  0
    7.4350   -1.3730   26.1240 O   0  0  0  0  0  0  0  0  0  0  0  0
    5.1140   -1.9480   26.0930 C   0  0  0  0  0  0  0  0  0  0  0  0
    4.8880   -2.9740   27.2250 C   0  0  0  0  0  0  0  0  0  0  0  0
    4.0320   -1.2080   25.6530 C   0  0  0  0  0  0  0  0  0  0  0  0
    3.5990   -3.1200   27.7660 C   0  0  0  0  0  0  0  0  0  0  0  0
    2.6620   -1.4280   26.2960 C   0  0  0  0  0  0  0  0  0  0  0  0
    2.4800   -2.3700   27.3270 C   0  0  0  0  0  0  0  0  0  0  0  0
    1.2100   -2.5370   27.8840 C   0  0  0  0  0  0  0  0  0  0  0  0
    1.4840   -2.8640   29.2410 O   0  0  0  0  0  0  0  0  0  0  0  0
    1.3220   -4.1610   29.6240 C   0  0  0  0  0  0  0  0  0  0  0  0
    0.7480   -4.3380   30.8830 C   0  0  0  0  0  0  0  0  0  0  0  0
    1.6590   -5.3120   28.9110 C   0  0  0  0  0  0  0  0  0  0  0  0
    0.4870   -5.6110   31.4760 C   0  0  0  0  0  0  0  0  0  0  0  0
    1.4390   -6.6150   29.4170 C   0  0  0  0  0  0  0  0  0  0  0  0
    0.8570   -6.7420   30.6890 C   0  0  0  0  0  0  0  0  0  0  0  0
    0.6170   -8.0890   31.2360 N   0  0  0  0  0  0  0  0  0  0  0  0
   -0.3580   -9.0040   30.6470 C   0  0  0  0  0  0  0  0  0  0  0  0
    1.5730   -8.5540   32.2350 C   0  0  0  0  0  0  0  0  0  0  0  0
    0.1150  -10.3190   30.6500 C   0  0  0  0  0  0  0  0  0  0  0  0
    1.0570   -9.8710   32.8420 C   0  0  0  0  0  0  0  0  0  0  0  0
    0.5190  -10.8640   31.8810 N   0  0  0  0  0  0  0  0  0  0  0  0
    0.4630  -12.3090   32.0970 C   0  0  0  0  0  0  0  0  0  0  0  0
    0.3970  -13.1450   31.1930 O   0  0  0  0  0  0  0  0  0  0  0  0
    0.5010  -12.7050   33.5660 C   0  0  0  0  0  0  0  0  0  0  0  0
    1.0810  -14.3730   33.7380 Cl  0  0  0  0  0  0  0  0  0  0  0  0
  1  2  1  0
  3  2  1  0
  3  4  2  0
  3  5  2  0
  3  6  1  0
  6  7  1  0
  6  8  1  0
  7  9  1  0
  8 10  1  0
  9 11  1  0
 10 11  1  0
 11 12  1  0
 12 13  2  0
 12 14  1  0
 14 15  2  0
 14 16  1  0
 15 17  1  0
 16 18  2  0
 17 19  2  0
 18 19  1  0
 19 20  1  0
 20 21  1  0
 21 22  1  0
 22 23  2  0
 22 24  1  0
 23 25  1  0
 24 26  2  0
 25 27  2  0
 26 27  1  0
 27 28  1  0
 28 29  1  0
 28 30  1  0
 29 31  1  0
 30 32  1  0
 31 33  1  0
 32 33  1  0
 33 34  1  0
 34 35  2  0
 34 36  1  0
 36 37  1  0
M  END
