YOI-UNK-090ea88a-1-nitrile
     RDKit          3D

 34 37  0  0  0  0  0  0  0  0999 V2000
    7.0650   -3.1070   19.3090 C   0  0  0  0  0  0  0  0  0  0  0  0
    6.3460   -2.8520   18.2860 N   0  0  0  0  0  0  0  0  0  0  0  0
    6.8890   -2.3450   20.4520 N   0  0  0  0  0  0  0  0  0  0  0  0
    5.5980   -1.6540   20.6230 C   0  0  0  0  0  0  0  0  0  0  0  0
    8.0600   -1.6570   21.0280 C   0  0  0  0  0  0  0  0  0  0  0  0
    5.7150   -0.2360   21.1830 C   0  0  0  0  0  0  0  0  0  0  0  0
    7.7680   -0.9540   22.3850 C   0  0  0  0  0  0  0  0  0  0  0  0
    6.5230   -0.1750   22.4100 N   0  0  0  0  0  0  0  0  0  0  0  0
    6.1910    0.9520   23.3420 C   0  0  0  0  0  0  0  0  0  0  0  0
    6.8770    1.9690   23.4010 O   0  0  0  0  0  0  0  0  0  0  0  0
    4.9460    0.7950   24.2490 C   0  0  0  0  0  0  0  0  0  0  0  0
    5.0600    1.4590   25.5530 C   0  0  0  0  0  0  0  0  0  0  0  0
    3.7830    0.0940   23.9160 C   0  0  0  0  0  0  0  0  0  0  0  0
    3.8740    1.3590   26.5380 C   0  0  0  0  0  0  0  0  0  0  0  0
    2.6170    0.0220   24.9380 C   0  0  0  0  0  0  0  0  0  0  0  0
    2.7040    0.6510   26.2090 C   0  0  0  0  0  0  0  0  0  0  0  0
    1.6340    0.5590   27.1160 C   0  0  0  0  0  0  0  0  0  0  0  0
    1.9720   -0.2950   27.9300 O   0  0  0  0  0  0  0  0  0  0  0  0
    3.0500   -1.0290   27.5490 C   0  0  0  0  0  0  0  0  0  0  0  0
    2.7550   -2.0780   26.6540 C   0  0  0  0  0  0  0  0  0  0  0  0
    4.3800   -0.8450   27.9380 C   0  0  0  0  0  0  0  0  0  0  0  0
    3.7410   -2.9220   26.1460 C   0  0  0  0  0  0  0  0  0  0  0  0
    5.4790   -1.7660   27.3840 C   0  0  0  0  0  0  0  0  0  0  0  0
    5.1090   -2.7680   26.5050 C   0  0  0  0  0  0  0  0  0  0  0  0
    6.0160   -3.6340   25.9460 N   0  0  0  0  0  0  0  0  0  0  0  0
    5.5130   -5.0090   25.8620 C   0  0  0  0  0  0  0  0  0  0  0  0
    6.8460   -3.0560   24.8840 C   0  0  0  0  0  0  0  0  0  0  0  0
    5.0580   -5.3500   24.5480 C   0  0  0  0  0  0  0  0  0  0  0  0
    6.8750   -3.9280   23.8340 C   0  0  0  0  0  0  0  0  0  0  0  0
    5.5280   -4.4600   23.6180 N   0  0  0  0  0  0  0  0  0  0  0  0
    5.2200   -4.9240   22.3910 C   0  0  0  0  0  0  0  0  0  0  0  0
    4.7530   -4.0380   21.3920 O   0  0  0  0  0  0  0  0  0  0  0  0
    5.3730   -6.3480   21.9640 C   0  0  0  0  0  0  0  0  0  0  0  0
    6.9420   -6.8610   22.5670 Cl  0  0  0  0  0  0  0  0  0  0  0  0
  1  2  2  3
  1  3  1  0
  3  4  1  0
  3  5  1  0
  4  6  1  0
  5  7  1  0
  6  8  1  0
  7  8  1  0
  8  9  1  0
  9 10  2  0
  9 11  1  0
 11 12  2  0
 11 13  1  0
 12 14  1  0
 13 15  2  0
 14 16  2  0
 15 16  1  0
 16 17  1  0
 17 18  1  0
 18 19  1  0
 19 20  2  0
 19 21  1  0
 20 22  1  0
 21 23  2  0
 22 24  2  0
 23 24  1  0
 24 25  1  0
 25 26  1  0
 25 27  1  0
 26 28  1  0
 27 29  1  0
 28 30  1  0
 29 30  1  0
 30 31  1  0
 31 32  2  0
 31 33  1  0
 33 34  1  0
M  END
