YOI-UNK-090ea88a-1-chloroacetamide
     RDKit          3D

 35 38  0  0  0  0  0  0  0  0999 V2000
    7.7360   -4.4970   20.4250 C   0  0  0  0  0  0  0  0  0  0  0  0
    6.6080   -3.5760   20.4190 C   0  0  0  0  0  0  0  0  0  0  0  0
    5.8070   -3.4800   19.4720 O   0  0  0  0  0  0  0  0  0  0  0  0
    6.5530   -2.9100   21.6140 N   0  0  0  0  0  0  0  0  0  0  0  0
    7.8380   -2.5980   22.2760 C   0  0  0  0  0  0  0  0  0  0  0  0
    5.5430   -3.3350   22.5580 C   0  0  0  0  0  0  0  0  0  0  0  0
    7.7500   -1.7150   23.5360 C   0  0  0  0  0  0  0  0  0  0  0  0
    5.3220   -2.2590   23.5960 C   0  0  0  0  0  0  0  0  0  0  0  0
    6.5610   -2.0040   24.3400 N   0  0  0  0  0  0  0  0  0  0  0  0
    6.4830   -1.7740   25.6820 C   0  0  0  0  0  0  0  0  0  0  0  0
    7.3660   -1.4900   26.4650 O   0  0  0  0  0  0  0  0  0  0  0  0
    5.1060   -1.9050   26.1540 C   0  0  0  0  0  0  0  0  0  0  0  0
    4.8220   -2.9870   27.2190 C   0  0  0  0  0  0  0  0  0  0  0  0
    4.0760   -1.1140   25.6850 C   0  0  0  0  0  0  0  0  0  0  0  0
    3.5220   -3.1860   27.7210 C   0  0  0  0  0  0  0  0  0  0  0  0
    2.6960   -1.3890   26.2760 C   0  0  0  0  0  0  0  0  0  0  0  0
    2.4590   -2.3820   27.2430 C   0  0  0  0  0  0  0  0  0  0  0  0
    1.1520   -2.5470   27.7090 C   0  0  0  0  0  0  0  0  0  0  0  0
    0.1190   -1.9980   27.0020 O   0  0  0  0  0  0  0  0  0  0  0  0
   -1.2280   -2.1930   27.4390 C   0  0  0  0  0  0  0  0  0  0  0  0
   -1.9560   -1.2430   28.1590 C   0  0  0  0  0  0  0  0  0  0  0  0
   -1.8260   -3.4200   27.1110 C   0  0  0  0  0  0  0  0  0  0  0  0
   -3.2960   -1.4940   28.5690 C   0  0  0  0  0  0  0  0  0  0  0  0
   -3.1580   -3.7020   27.5050 C   0  0  0  0  0  0  0  0  0  0  0  0
   -3.8780   -2.7430   28.2260 C   0  0  0  0  0  0  0  0  0  0  0  0
   -5.2640   -3.0270   28.6380 N   0  0  0  0  0  0  0  0  0  0  0  0
   -5.6720   -3.0050   30.0410 C   0  0  0  0  0  0  0  0  0  0  0  0
   -6.1900   -3.3860   27.5680 C   0  0  0  0  0  0  0  0  0  0  0  0
   -6.9050   -3.6370   30.1870 C   0  0  0  0  0  0  0  0  0  0  0  0
   -7.6560   -3.1040   27.9540 C   0  0  0  0  0  0  0  0  0  0  0  0
   -7.9670   -3.1730   29.4030 N   0  0  0  0  0  0  0  0  0  0  0  0
   -9.2910   -2.9840   29.9930 C   0  0  0  0  0  0  0  0  0  0  0  0
  -10.1610   -3.8510   30.0980 O   0  0  0  0  0  0  0  0  0  0  0  0
   -9.5660   -1.5790   30.5060 C   0  0  0  0  0  0  0  0  0  0  0  0
  -11.1110   -1.5040   31.3750 Cl  0  0  0  0  0  0  0  0  0  0  0  0
  1  2  1  0
  2  3  2  0
  2  4  1  0
  4  5  1  0
  4  6  1  0
  5  7  1  0
  6  8  1  0
  7  9  1  0
  8  9  1  0
  9 10  1  0
 10 11  2  0
 10 12  1  0
 12 13  2  0
 12 14  1  0
 13 15  1  0
 14 16  2  0
 15 17  2  0
 16 17  1  0
 17 18  1  0
 18 19  1  0
 19 20  1  0
 20 21  2  0
 20 22  1  0
 21 23  1  0
 22 24  2  0
 23 25  2  0
 24 25  1  0
 25 26  1  0
 26 27  1  0
 26 28  1  0
 27 29  1  0
 28 30  1  0
 29 31  1  0
 30 31  1  0
 31 32  1  0
 32 33  2  0
 32 34  1  0
 34 35  1  0
M  END
