YUN-WES-58b0dbae-10
     RDKit          3D

 42 44  0  0  0  0  0  0  0  0999 V2000
   -0.5250   -6.7430   22.4050 C   0  0  0  0  0  0  0  0  0  0  0  0
    0.1610   -6.7500   23.6550 O   0  0  0  0  0  0  0  0  0  0  0  0
    1.3630   -6.0990   23.6560 C   0  0  0  0  0  0  0  0  0  0  0  0
    1.3170   -4.7690   24.6680 C   0  0  0  0  0  0  0  0  0  0  0  0
    2.5210   -6.6010   22.8090 C   0  0  0  0  0  0  0  0  0  0  0  0
    2.6660   -4.0350   24.6570 C   0  0  0  0  0  0  0  0  0  0  0  0
    3.6840   -5.8280   22.8900 C   0  0  0  0  0  0  0  0  0  0  0  0
    2.9090   -5.0850   23.7710 C   0  0  0  0  0  0  0  0  0  0  0  0
    4.9730   -5.8950   22.2920 N   0  0  0  0  0  0  0  0  0  0  0  0
    5.3460   -4.8860   21.2870 C   0  0  0  0  0  0  0  0  0  0  0  0
    5.3840   -5.0340   20.0590 O   0  0  0  0  0  0  0  0  0  0  0  0
    5.6410   -3.6810   21.9220 C   0  0  0  0  0  0  0  0  0  0  0  0
    5.5650   -2.5260   21.1010 O   0  0  0  0  0  0  0  0  0  0  0  0
    5.9610   -3.7130   23.2620 C   0  0  1  0  0  0  0  0  0  0  0  0
    7.1430   -4.3620   23.6170 C   0  0  0  0  0  0  0  0  0  0  0  0
    6.0910   -2.3560   23.8060 N   0  0  0  0  0  0  0  0  0  0  0  0
    7.0310   -5.3290   24.6280 C   0  0  1  0  0  0  0  0  0  0  0  0
    5.3740   -2.0340   25.0560 C   0  0  0  0  0  0  0  0  0  0  0  0
    5.6140   -5.6710   25.1590 C   0  0  0  0  0  0  0  0  0  0  0  0
    7.4980   -6.7090   24.1460 C   0  0  0  0  0  0  0  0  0  0  0  0
    4.2040   -1.6580   25.1130 O   0  0  0  0  0  0  0  0  0  0  0  0
    6.2760   -2.2140   26.2840 C   0  0  2  0  0  0  0  0  0  0  0  0
    5.1330   -7.0030   24.5910 C   0  0  0  0  0  0  0  0  0  0  0  0
    6.2970   -7.5220   23.8450 N   0  0  0  0  0  0  0  0  0  0  0  0
    8.7860   -7.1300   24.0170 O   0  0  0  0  0  0  0  0  0  0  0  0
    5.7840   -3.1560   27.2210 C   0  0  0  0  0  0  0  0  0  0  0  0
    6.1870   -0.8800   26.8960 N   0  0  0  0  0  0  0  0  0  0  0  0
    6.7340   -3.5940   28.1590 C   0  0  0  0  0  0  0  0  0  0  0  0
    6.7230    0.2550   26.2970 C   0  0  0  0  0  0  0  0  0  0  0  0
    7.8780   -4.2220   27.6550 C   0  0  0  0  0  0  0  0  0  0  0  0
    6.0450   -4.7290   28.9230 C   0  0  0  0  0  0  0  0  0  0  0  0
    6.2370    1.3800   26.4020 O   0  0  0  0  0  0  0  0  0  0  0  0
    7.8950   -0.0030   25.5580 N   0  0  0  0  0  0  0  0  0  0  0  0
    7.9880   -0.1180   24.2130 C   0  0  0  0  0  0  0  0  0  0  0  0
    8.8950   -1.2750   23.8700 C   0  0  0  0  0  0  0  0  0  0  0  0
    7.3670    0.6790   23.2630 C   0  0  0  0  0  0  0  0  0  0  0  0
    9.4990   -2.0290   24.8070 F   0  0  0  0  0  0  0  0  0  0  0  0
    9.1010   -1.5550   22.3870 C   0  0  0  0  0  0  0  0  0  0  0  0
    7.5150    0.4790   21.7830 C   0  0  0  0  0  0  0  0  0  0  0  0
    6.5770    1.7030   23.6180 F   0  0  0  0  0  0  0  0  0  0  0  0
    8.4040   -0.6780   21.3430 C   0  0  0  0  0  0  0  0  0  0  0  0
    6.8930    1.2830   20.8640 O   0  0  0  0  0  0  0  0  0  0  0  0
  1  2  1  0
  2  3  1  0
  3  4  2  0
  3  5  1  0
  4  6  1  0
  5  7  2  0
  6  8  2  0
  7  8  1  0
  7  9  1  0
  9 10  1  0
 10 11  2  0
 10 12  1  0
 12 13  2  0
 12 14  1  0
 14 15  1  6
 14 16  1  0
 17 15  1  6
 16 18  1  0
 17 19  1  0
 17 20  1  0
 18 21  2  0
 18 22  1  0
 19 23  1  0
 20 24  1  0
 23 24  1  0
 20 25  2  0
 22 26  1  1
 22 27  1  0
 26 28  1  0
 27 29  1  0
 28 30  1  0
 28 31  1  0
 29 32  2  0
 29 33  1  0
 33 34  1  0
 34 35  2  0
 34 36  1  0
 35 37  1  0
 35 38  1  0
 36 39  2  0
 36 40  1  0
 38 41  2  0
 39 41  1  0
 39 42  1  0
M  END
