YUN-WES-64c64eb2-6
     RDKit          3D

 41 43  0  0  0  0  0  0  0  0999 V2000
   -0.0790   -2.4580   26.3360 C   0  0  0  0  0  0  0  0  0  0  0  0
    0.0280   -1.6300   27.4910 O   0  0  0  0  0  0  0  0  0  0  0  0
    0.9380   -0.6110   27.4440 C   0  0  0  0  0  0  0  0  0  0  0  0
    0.7410    0.6880   27.8870 C   0  0  0  0  0  0  0  0  0  0  0  0
    2.1850   -0.9460   26.8880 C   0  0  0  0  0  0  0  0  0  0  0  0
    1.8780    1.7030   27.7550 C   0  0  0  0  0  0  0  0  0  0  0  0
    3.2410   -0.0140   26.7600 C   0  0  0  0  0  0  0  0  0  0  0  0
    1.7070    2.9640   28.1780 F   0  0  0  0  0  0  0  0  0  0  0  0
    3.0860    1.3090   27.1940 C   0  0  0  0  0  0  0  0  0  0  0  0
    4.4250   -0.5060   26.1830 N   0  0  0  0  0  0  0  0  0  0  0  0
    4.6290   -1.7820   25.7020 C   0  0  0  0  0  0  0  0  0  0  0  0
    3.8100   -2.6260   25.4090 O   0  0  0  0  0  0  0  0  0  0  0  0
    6.0040   -2.1160   25.5720 C   0  0  0  0  0  0  0  0  0  0  0  0
    6.7880   -1.3630   24.9870 O   0  0  0  0  0  0  0  0  0  0  0  0
    6.2940   -3.3190   26.1700 C   0  0  2  0  0  0  0  0  0  0  0  0
    6.1660   -4.5510   25.2500 C   0  0  0  0  0  0  0  0  0  0  0  0
    5.4100   -3.4780   27.3330 N   0  0  0  0  0  0  0  0  0  0  0  0
    5.8370   -4.3490   23.7800 C   0  0  2  0  0  0  0  0  0  0  0  0
    5.9190   -3.7230   28.5960 C   0  0  0  0  0  0  0  0  0  0  0  0
    4.8050   -5.3460   23.1900 C   0  0  0  0  0  0  0  0  0  0  0  0
    7.0520   -4.5980   22.9040 C   0  0  0  0  0  0  0  0  0  0  0  0
    5.9580   -2.8450   29.4600 O   0  0  0  0  0  0  0  0  0  0  0  0
    6.4110   -5.1690   28.8660 C   0  0  2  0  0  0  0  0  0  0  0  0
    5.5990   -6.1570   22.1780 C   0  0  0  0  0  0  0  0  0  0  0  0
    6.5870   -5.2270   21.7860 N   0  0  0  0  0  0  0  0  0  0  0  0
    8.2080   -4.3040   23.1350 O   0  0  0  0  0  0  0  0  0  0  0  0
    7.1400   -5.7530   27.6340 C   0  0  0  0  0  0  0  0  0  0  0  0
    5.2610   -5.9880   29.3020 N   0  0  0  0  0  0  0  0  0  0  0  0
    8.3480   -4.9540   27.0830 C   0  0  0  0  0  0  0  0  0  0  0  0
    5.2860   -6.7400   30.4830 C   0  0  0  0  0  0  0  0  0  0  0  0
    9.4610   -5.0040   28.0930 C   0  0  0  0  0  0  0  0  0  0  0  0
    8.9470   -5.5170   25.7930 C   0  0  0  0  0  0  0  0  0  0  0  0
    6.1010   -6.6430   31.3910 O   0  0  0  0  0  0  0  0  0  0  0  0
    4.2580   -7.6420   30.5500 N   0  0  0  0  0  0  0  0  0  0  0  0
    3.2410   -7.4630   31.5630 C   0  0  0  0  0  0  0  0  0  0  0  0
    3.5590   -8.2810   32.7950 C   0  0  0  0  0  0  0  0  0  0  0  0
    2.5410   -8.9230   33.5160 C   0  0  0  0  0  0  0  0  0  0  0  0
    4.8880   -8.4180   33.2420 C   0  0  0  0  0  0  0  0  0  0  0  0
    2.8400   -9.6770   34.6520 C   0  0  0  0  0  0  0  0  0  0  0  0
    5.1850   -9.1720   34.3750 C   0  0  0  0  0  0  0  0  0  0  0  0
    4.1630   -9.8030   35.0830 C   0  0  0  0  0  0  0  0  0  0  0  0
  1  2  1  0
  2  3  1  0
  3  4  2  0
  3  5  1  0
  4  6  1  0
  5  7  2  0
  6  8  1  0
  6  9  2  0
  7  9  1  0
  7 10  1  0
 10 11  1  0
 11 12  2  0
 11 13  1  0
 13 14  2  0
 13 15  1  0
 15 16  1  6
 15 17  1  0
 18 16  1  1
 17 19  1  0
 18 20  1  0
 18 21  1  0
 19 22  2  0
 19 23  1  0
 20 24  1  0
 21 25  1  0
 24 25  1  0
 21 26  2  0
 23 27  1  6
 23 28  1  0
 27 29  1  0
 28 30  1  0
 29 31  1  0
 29 32  1  0
 30 33  2  0
 30 34  1  0
 34 35  1  0
 35 36  1  0
 36 37  2  0
 36 38  1  0
 37 39  1  0
 38 40  2  0
 39 41  2  0
 40 41  1  0
M  END
