YUN-WES-58b0dbae-7
     RDKit          3D

 41 43  0  0  0  0  0  0  0  0999 V2000
    4.7520    1.8870   18.5040 C   0  0  0  0  0  0  0  0  0  0  0  0
    3.9710    2.5690   19.6070 C   0  0  0  0  0  0  0  0  0  0  0  0
    2.7150    1.8380   20.1100 C   0  0  0  0  0  0  0  0  0  0  0  0
    4.9090    2.8680   20.7980 C   0  0  0  0  0  0  0  0  0  0  0  0
    5.7910    1.7000   21.2820 C   0  0  2  0  0  0  0  0  0  0  0  0
    7.1620    1.9130   21.3650 N   0  0  0  0  0  0  0  0  0  0  0  0
    5.6720    0.3740   20.7250 C   0  0  0  0  0  0  0  0  0  0  0  0
    7.8790    2.7760   22.3350 C   0  0  0  0  0  0  0  0  0  0  0  0
    5.9070    0.1100   19.5450 O   0  0  0  0  0  0  0  0  0  0  0  0
    5.2760   -0.5870   21.6450 N   0  0  0  0  0  0  0  0  0  0  0  0
    7.3380    3.1170   23.3860 O   0  0  0  0  0  0  0  0  0  0  0  0
    9.1830    3.1510   21.9710 N   0  0  0  0  0  0  0  0  0  0  0  0
    6.1180   -1.7340   22.0460 C   0  0  1  0  0  0  0  0  0  0  0  0
   10.1170    3.2180   23.1120 C   0  0  0  0  0  0  0  0  0  0  0  0
    5.3740   -2.6180   23.0530 C   0  0  0  0  0  0  0  0  0  0  0  0
    6.4900   -2.4470   20.7490 C   0  0  0  0  0  0  0  0  0  0  0  0
   11.0360    4.2670   22.9930 C   0  0  0  0  0  0  0  0  0  0  0  0
    5.8920   -3.8940   23.3310 C   0  0  2  0  0  0  0  0  0  0  0  0
    7.0230   -1.8890   19.8060 O   0  0  0  0  0  0  0  0  0  0  0  0
    6.1620   -3.8050   20.6550 C   0  0  0  0  0  0  0  0  0  0  0  0
   10.8850    5.4670   23.7160 C   0  0  0  0  0  0  0  0  0  0  0  0
   12.1460    4.1560   22.1360 C   0  0  0  0  0  0  0  0  0  0  0  0
    5.1630   -4.9930   22.8280 C   0  0  0  0  0  0  0  0  0  0  0  0
    5.7410   -4.1420   24.8370 C   0  0  0  0  0  0  0  0  0  0  0  0
    5.4390   -4.1160   19.5650 O   0  0  0  0  0  0  0  0  0  0  0  0
    6.5350   -4.7440   21.6080 N   0  0  0  0  0  0  0  0  0  0  0  0
   11.8260    6.5090   23.5670 C   0  0  0  0  0  0  0  0  0  0  0  0
   13.1500    5.2980   21.9930 C   0  0  0  0  0  0  0  0  0  0  0  0
    4.6570   -5.7300   23.8490 C   0  0  0  0  0  0  0  0  0  0  0  0
    5.3300   -5.5150   24.9880 N   0  0  0  0  0  0  0  0  0  0  0  0
    5.9120   -3.3550   25.7560 O   0  0  0  0  0  0  0  0  0  0  0  0
    7.5910   -4.7370   22.4920 C   0  0  0  0  0  0  0  0  0  0  0  0
   12.9390    6.4320   22.7240 C   0  0  0  0  0  0  0  0  0  0  0  0
    7.6710   -6.0830   23.2030 C   0  0  0  0  0  0  0  0  0  0  0  0
    8.4630   -3.6410   22.7040 C   0  0  0  0  0  0  0  0  0  0  0  0
    8.7920   -6.2090   24.2080 C   0  0  0  0  0  0  0  0  0  0  0  0
    9.4870   -3.7350   23.6190 C   0  0  0  0  0  0  0  0  0  0  0  0
    8.3240   -2.4950   22.0320 F   0  0  0  0  0  0  0  0  0  0  0  0
    8.9420   -7.3600   24.8720 O   0  0  0  0  0  0  0  0  0  0  0  0
    9.6680   -5.0160   24.3800 C   0  0  0  0  0  0  0  0  0  0  0  0
   10.6540   -5.1240   25.2520 F   0  0  0  0  0  0  0  0  0  0  0  0
  1  2  1  0
  2  3  1  0
  2  4  1  0
  5  4  1  6
  5  6  1  0
  5  7  1  0
  6  8  1  0
  7  9  2  0
  7 10  1  0
  8 11  2  0
  8 12  1  0
 10 13  1  0
 12 14  1  0
 13 15  1  1
 13 16  1  0
 14 17  1  0
 18 15  1  1
 16 19  2  0
 16 20  1  0
 17 21  2  0
 17 22  1  0
 18 23  1  0
 18 24  1  0
 20 25  2  0
 20 26  1  0
 21 27  1  0
 22 28  2  0
 23 29  1  0
 24 30  1  0
 29 30  1  0
 24 31  2  0
 26 32  1  0
 27 33  2  0
 28 33  1  0
 32 34  2  0
 32 35  1  0
 34 36  1  0
 35 37  2  0
 35 38  1  0
 36 39  1  0
 36 40  2  0
 37 40  1  0
 40 41  1  0
M  END
