YUN-WES-58b0dbae-9
     RDKit          3D

 48 51  0  0  0  0  0  0  0  0999 V2000
   12.0050   -1.4170   22.2290 C   0  0  0  0  0  0  0  0  0  0  0  0
   10.5970   -1.3530   22.4070 O   0  0  0  0  0  0  0  0  0  0  0  0
   10.0210   -2.5540   22.7110 C   0  0  0  0  0  0  0  0  0  0  0  0
    8.8230   -2.9740   21.8350 C   0  0  0  0  0  0  0  0  0  0  0  0
   10.4670   -3.3680   23.7350 C   0  0  0  0  0  0  0  0  0  0  0  0
    8.2150   -4.3400   22.2000 C   0  0  0  0  0  0  0  0  0  0  0  0
    9.8690   -4.5850   24.0070 C   0  0  0  0  0  0  0  0  0  0  0  0
    7.1030   -4.9210   21.5050 N   0  0  0  0  0  0  0  0  0  0  0  0
    8.7720   -5.0670   23.2600 C   0  0  0  0  0  0  0  0  0  0  0  0
   10.3150   -5.3930   25.0120 O   0  0  0  0  0  0  0  0  0  0  0  0
    6.2080   -3.9880   20.8000 C   0  0  0  0  0  0  0  0  0  0  0  0
    9.4270   -6.2770   25.6580 C   0  0  0  0  0  0  0  0  0  0  0  0
    5.4940   -4.1960   19.6410 O   0  0  0  0  0  0  0  0  0  0  0  0
    6.1150   -2.6550   21.4920 C   0  0  0  0  0  0  0  0  0  0  0  0
    6.5370   -1.6770   20.8660 O   0  0  0  0  0  0  0  0  0  0  0  0
    5.5560   -2.5310   22.7720 C   0  0  2  0  0  0  0  0  0  0  0  0
    4.4880   -3.4180   23.1020 C   0  0  0  0  0  0  0  0  0  0  0  0
    5.2400   -1.1700   23.0430 N   0  0  0  0  0  0  0  0  0  0  0  0
    4.6260   -4.7870   22.7860 C   0  0  1  0  0  0  0  0  0  0  0  0
    4.8330   -0.8270   24.4220 C   0  0  0  0  0  0  0  0  0  0  0  0
    5.6620   -5.4750   23.4660 C   0  0  0  0  0  0  0  0  0  0  0  0
    3.3930   -5.6190   23.2320 C   0  0  0  0  0  0  0  0  0  0  0  0
    3.8030   -1.3570   24.8420 O   0  0  0  0  0  0  0  0  0  0  0  0
    5.5700    0.1510   25.3890 C   0  0  2  0  0  0  0  0  0  0  0  0
    5.2580   -6.6890   24.0330 C   0  0  0  0  0  0  0  0  0  0  0  0
    3.8500   -6.7500   24.0650 N   0  0  0  0  0  0  0  0  0  0  0  0
    2.2240   -5.4050   22.9550 O   0  0  0  0  0  0  0  0  0  0  0  0
    6.5380    1.0460   24.5640 C   0  0  0  0  0  0  0  0  0  0  0  0
    6.0930   -0.6030   26.3990 N   0  0  0  0  0  0  0  0  0  0  0  0
    7.9590    0.9510   25.1550 C   0  0  0  0  0  0  0  0  0  0  0  0
    5.2540   -1.0440   27.5560 C   0  0  0  0  0  0  0  0  0  0  0  0
    8.5540   -0.3100   25.0600 C   0  0  0  0  0  0  0  0  0  0  0  0
    8.6040    2.1150   24.5430 C   0  0  0  0  0  0  0  0  0  0  0  0
    4.8550   -0.2550   28.4110 O   0  0  0  0  0  0  0  0  0  0  0  0
    4.9730   -2.4020   27.5840 N   0  0  0  0  0  0  0  0  0  0  0  0
    4.6150   -3.0210   26.3170 C   0  0  0  0  0  0  0  0  0  0  0  0
    5.3550   -3.3970   28.5870 C   0  0  1  0  0  0  0  0  0  0  0  0
    5.7460   -3.5160   25.6950 C   0  0  0  0  0  0  0  0  0  0  0  0
    4.3120   -4.2920   28.7050 C   0  0  0  0  0  0  0  0  0  0  0  0
    6.4310   -4.0050   28.0430 O   0  0  0  0  0  0  0  0  0  0  0  0
    6.0370   -4.8540   25.7720 C   0  0  0  0  0  0  0  0  0  0  0  0
    6.5510   -2.6360   25.0050 C   0  0  0  0  0  0  0  0  0  0  0  0
    4.5250   -5.1230   29.7210 C   0  0  0  0  0  0  0  0  0  0  0  0
    6.8480   -5.2220   28.6400 C   0  0  0  0  0  0  0  0  0  0  0  0
    7.2380   -5.4750   25.1180 C   0  0  0  0  0  0  0  0  0  0  0  0
    7.7950   -3.0410   24.2830 C   0  0  0  0  0  0  0  0  0  0  0  0
    5.7370   -5.9880   29.3900 C   0  0  0  0  0  0  0  0  0  0  0  0
    8.1480   -4.5210   24.3430 C   0  0  0  0  0  0  0  0  0  0  0  0
  1  2  1  0
  2  3  1  0
  3  4  2  0
  3  5  1  0
  4  6  1  0
  5  7  2  0
  6  8  1  0
  6  9  2  0
  7  9  1  0
  7 10  1  0
  8 11  1  0
 10 12  1  0
 11 13  2  0
 11 14  1  0
 14 15  2  0
 14 16  1  0
 16 17  1  6
 16 18  1  0
 19 17  1  1
 18 20  1  0
 19 21  1  0
 19 22  1  0
 20 23  2  0
 20 24  1  0
 21 25  1  0
 22 26  1  0
 25 26  1  0
 22 27  2  0
 24 28  1  6
 24 29  1  0
 28 30  1  0
 29 31  1  0
 30 32  1  0
 30 33  1  0
 31 34  2  0
 31 35  1  0
 35 36  1  0
 37 35  1  6
 36 38  1  0
 37 39  1  0
 37 40  1  0
 38 41  2  0
 38 42  1  0
 39 43  1  0
 40 44  1  0
 41 45  1  0
 42 46  2  0
 43 47  1  0
 44 47  1  0
 45 48  2  0
 46 48  1  0
M  END
