YUN-WES-64c64eb2-1
     RDKit          3D

 45 48  0  0  0  0  0  0  0  0999 V2000
   12.0040   -2.4790   21.2900 C   0  0  0  0  0  0  0  0  0  0  0  0
   11.8090   -1.3870   22.3400 C   0  0  0  0  0  0  0  0  0  0  0  0
   13.0880   -0.5010   22.3160 C   0  0  0  0  0  0  0  0  0  0  0  0
   10.4850   -0.6380   22.0490 C   0  0  0  0  0  0  0  0  0  0  0  0
    9.3420   -0.8270   23.0310 C   0  0  2  0  0  0  0  0  0  0  0  0
    9.8510   -0.9300   24.3900 N   0  0  0  0  0  0  0  0  0  0  0  0
    8.6270   -2.1430   22.7790 C   0  0  0  0  0  0  0  0  0  0  0  0
    9.7720    0.1930   25.1500 C   0  0  0  0  0  0  0  0  0  0  0  0
    8.5540   -3.0160   23.6450 O   0  0  0  0  0  0  0  0  0  0  0  0
    8.0860   -2.2390   21.5070 N   0  0  0  0  0  0  0  0  0  0  0  0
    9.2410    0.2490   26.2510 O   0  0  0  0  0  0  0  0  0  0  0  0
   10.3570    1.2370   24.4820 N   0  0  0  0  0  0  0  0  0  0  0  0
    6.7070   -1.8250   21.2410 C   0  0  1  0  0  0  0  0  0  0  0  0
   11.5780    1.0730   23.7100 C   0  0  0  0  0  0  0  0  0  0  0  0
    6.6390   -0.3450   20.7930 C   0  0  0  0  0  0  0  0  0  0  0  0
    6.0320   -2.7570   20.2310 C   0  0  0  0  0  0  0  0  0  0  0  0
   12.2710   -0.2690   23.8890 C   0  0  0  0  0  0  0  0  0  0  0  0
    5.6480    0.6590   21.4170 C   0  0  2  0  0  0  0  0  0  0  0  0
    5.6650   -2.4060   19.1200 O   0  0  0  0  0  0  0  0  0  0  0  0
    5.7870   -4.2210   20.5960 C   0  0  0  0  0  0  0  0  0  0  0  0
   12.5650   -1.0710   22.7780 C   0  0  0  0  0  0  0  0  0  0  0  0
   12.6480   -0.7630   25.1310 C   0  0  0  0  0  0  0  0  0  0  0  0
    4.4590    0.1040   22.2190 C   0  0  0  0  0  0  0  0  0  0  0  0
    4.9800    1.6190   20.4610 C   0  0  0  0  0  0  0  0  0  0  0  0
    5.4710   -4.9600   19.6830 O   0  0  0  0  0  0  0  0  0  0  0  0
    5.9170   -4.6790   21.8800 N   0  0  0  0  0  0  0  0  0  0  0  0
   13.2050   -2.3030   22.9180 C   0  0  0  0  0  0  0  0  0  0  0  0
   13.2840   -1.9870   25.2630 C   0  0  0  0  0  0  0  0  0  0  0  0
    3.3100    1.0870   21.9600 C   0  0  0  0  0  0  0  0  0  0  0  0
    3.8790    2.0980   21.1210 N   0  0  0  0  0  0  0  0  0  0  0  0
    5.3360    1.9100   19.3350 O   0  0  0  0  0  0  0  0  0  0  0  0
    6.7450   -4.0620   22.8950 C   0  0  0  0  0  0  0  0  0  0  0  0
    5.5550   -6.0630   22.1670 C   0  0  0  0  0  0  0  0  0  0  0  0
   13.5550   -2.7420   24.1670 C   0  0  0  0  0  0  0  0  0  0  0  0
    6.5810   -4.7400   24.2460 C   0  0  0  0  0  0  0  0  0  0  0  0
    4.6710   -6.1360   23.4150 C   0  0  0  0  0  0  0  0  0  0  0  0
    5.1710   -5.1520   24.4190 N   0  0  0  0  0  0  0  0  0  0  0  0
    4.5050   -5.1200   25.9620 S   0  0  0  0  0  0  0  0  0  0  0  0
    3.7610   -6.3370   26.1830 O   0  0  0  0  0  0  0  0  0  0  0  0
    5.5540   -4.6950   26.8670 O   0  0  0  0  0  0  0  0  0  0  0  0
    3.3220   -3.7890   26.0140 C   0  0  0  0  0  0  0  0  0  0  0  0
    1.9440   -3.8190   26.0900 C   0  0  0  0  0  0  0  0  0  0  0  0
    3.9040   -2.1770   25.9580 S   0  0  0  0  0  0  0  0  0  0  0  0
    1.3660   -2.5190   26.0920 C   0  0  0  0  0  0  0  0  0  0  0  0
    2.3210   -1.5320   26.0220 C   0  0  0  0  0  0  0  0  0  0  0  0
  1  2  1  0
  2  3  1  0
  2  4  1  0
  5  4  1  6
  5  6  1  0
  5  7  1  0
  6  8  1  0
  7  9  2  0
  7 10  1  0
  8 11  2  0
  8 12  1  0
 10 13  1  0
 12 14  1  0
 13 15  1  6
 13 16  1  0
 14 17  1  0
 18 15  1  6
 16 19  2  0
 16 20  1  0
 17 21  2  0
 17 22  1  0
 18 23  1  0
 18 24  1  0
 20 25  2  0
 20 26  1  0
 21 27  1  0
 22 28  2  0
 23 29  1  0
 24 30  1  0
 29 30  1  0
 24 31  2  0
 26 32  1  0
 26 33  1  0
 27 34  2  0
 28 34  1  0
 32 35  1  0
 33 36  1  0
 35 37  1  0
 36 37  1  0
 37 38  1  0
 38 39  2  0
 38 40  2  0
 38 41  1  0
 41 42  2  0
 41 43  1  0
 42 44  1  0
 43 45  1  0
 44 45  2  0
M  END
