ZAC-WAB-2baeb60f-1
     RDKit          3D

 26 28  0  0  0  0  0  0  0  0999 V2000
   10.2460   -2.4080   23.1820 C   0  0  0  0  0  0  0  0  0  0  0  0
   12.0090   -2.3400   23.4340 S   0  0  0  0  0  0  0  0  0  0  0  0
   12.7000   -2.6890   22.2120 O   0  0  0  0  0  0  0  0  0  0  0  0
   12.3140   -2.9950   24.6880 O   0  0  0  0  0  0  0  0  0  0  0  0
   12.2870   -0.7310   23.6920 N   0  0  0  0  0  0  0  0  0  0  0  0
   11.7310    0.1460   22.8180 C   0  0  0  0  0  0  0  0  0  0  0  0
   10.5440    0.9640   23.4220 C   0  0  0  0  0  0  0  0  0  0  0  0
    9.2690    0.0730   23.1990 C   0  0  2  0  0  0  0  0  0  0  0  0
    8.8500    0.4220   21.7590 C   0  0  0  0  0  0  0  0  0  0  0  0
    8.2420    0.1490   24.1640 C   0  0  0  0  0  0  0  0  0  0  0  0
    9.0230    1.5370   21.2170 O   0  0  0  0  0  0  0  0  0  0  0  0
    8.1720   -0.8610   21.1620 C   0  0  0  0  0  0  0  0  0  0  0  0
    8.8190    0.0930   25.5420 C   0  0  0  0  0  0  0  0  0  0  0  0
    7.2770   -0.8340   23.9040 C   0  0  0  0  0  0  0  0  0  0  0  0
    7.1330   -0.2650   20.1740 C   0  0  0  0  0  0  0  0  0  0  0  0
    7.7590   -0.0920   26.5840 C   0  0  0  0  0  0  0  0  0  0  0  0
    6.3000   -1.0710   24.8690 C   0  0  0  0  0  0  0  0  0  0  0  0
    7.4450   -0.6490   18.7620 C   0  0  0  0  0  0  0  0  0  0  0  0
    5.9920    0.5160   20.2210 C   0  0  0  0  0  0  0  0  0  0  0  0
    6.7370   -1.1580   26.1900 C   0  0  0  0  0  0  0  0  0  0  0  0
    6.3950    0.0110   18.0250 N   0  0  0  0  0  0  0  0  0  0  0  0
    5.5000    0.7270   18.9340 C   0  0  0  0  0  0  0  0  0  0  0  0
    5.2930    1.0920   21.2370 C   0  0  0  0  0  0  0  0  0  0  0  0
    4.4400    1.4260   18.5880 N   0  0  0  0  0  0  0  0  0  0  0  0
    4.1600    1.8400   21.0020 C   0  0  0  0  0  0  0  0  0  0  0  0
    3.7580    1.9900   19.6680 C   0  0  0  0  0  0  0  0  0  0  0  0
  1  2  1  0
  2  3  2  0
  2  4  2  0
  2  5  1  0
  5  6  1  0
  6  7  1  0
  8  7  1  1
  8  9  1  0
  8 10  1  0
  9 11  2  0
  9 12  1  0
 10 13  1  0
 10 14  1  0
 12 15  1  0
 13 16  1  0
 14 17  1  0
 15 18  2  0
 15 19  1  0
 16 20  1  0
 17 20  1  0
 18 21  1  0
 19 22  2  0
 21 22  1  0
 19 23  1  0
 22 24  1  0
 23 25  2  0
 24 26  2  0
 25 26  1  0
M  END
