WPC0542_minimised.pdb
     RDKit          3D

 21 22  0  0  0  0  0  0  0  0999 V2000
   13.4240    5.7340   22.8900 N   0  0  0  0  0  0  0  0  0  0  0  0
   14.1640    4.4790   22.8430 C   0  0  0  0  0  0  0  0  0  0  0  0
   13.3000    3.3390   22.2870 C   0  0  0  0  0  0  0  0  0  0  0  0
   14.0780    1.9960   22.2000 C   0  0  0  0  0  0  0  0  0  0  0  0
   13.7140    0.9690   23.2930 C   0  0  0  0  0  0  0  0  0  0  0  0
   12.3020    0.4440   23.1060 C   0  0  0  0  0  0  0  0  0  0  0  0
   12.0420   -0.5140   22.1110 C   0  0  0  0  0  0  0  0  0  0  0  0
   10.7220   -0.8910   21.8320 C   0  0  0  0  0  0  0  0  0  0  0  0
    9.6570   -0.3030   22.5310 C   0  0  0  0  0  0  0  0  0  0  0  0
    8.3300   -0.4880   22.0960 N   0  0  0  0  0  0  0  0  0  0  0  0
    7.9050   -0.2030   20.8260 C   0  0  0  0  0  0  0  0  0  0  0  0
    8.6470    0.0130   19.8870 O   0  0  0  0  0  0  0  0  0  0  0  0
    6.5440   -0.1230   20.7190 N   0  0  0  0  0  0  0  0  0  0  0  0
    5.8630    0.4440   19.6160 C   0  0  0  0  0  0  0  0  0  0  0  0
    4.9060    1.4390   19.8500 C   0  0  0  0  0  0  0  0  0  0  0  0
    4.3550    2.0860   18.7380 C   0  0  0  0  0  0  0  0  0  0  0  0
    4.7850    1.7380   17.4500 C   0  0  0  0  0  0  0  0  0  0  0  0
    5.6690    0.7440   17.2120 N   0  0  0  0  0  0  0  0  0  0  0  0
    6.2070    0.1270   18.2840 C   0  0  0  0  0  0  0  0  0  0  0  0
    9.9160    0.5940   23.5750 C   0  0  0  0  0  0  0  0  0  0  0  0
   11.2360    0.9650   23.8630 C   0  0  0  0  0  0  0  0  0  0  0  0
  1  2  1  0
  2  3  1  0
  3  4  1  0
  4  5  1  0
  5  6  1  0
  6 21  2  0
  6  7  1  0
  7  8  2  0
  8  9  1  0
  9 10  1  0
  9 20  2  0
 10 11  1  0
 11 12  2  0
 11 13  1  0
 13 14  1  0
 14 15  2  0
 14 19  1  0
 15 16  1  0
 16 17  2  0
 17 18  1  0
 18 19  2  0
 20 21  1  0
M  END
