WPC0159_minimised.pdb
     RDKit          3D

 18 19  0  0  0  0  0  0  0  0999 V2000
    5.3840    3.6810   21.5350 N   0  0  0  0  0  0  0  0  0  0  0  0
    4.5410    2.5160   21.2850 C   0  0  0  0  0  0  0  0  0  0  0  0
    4.9180    1.8280   19.9780 C   0  0  0  0  0  0  0  0  0  0  0  0
    4.3440    2.2850   18.7830 C   0  0  0  0  0  0  0  0  0  0  0  0
    4.7710    1.7720   17.5530 C   0  0  0  0  0  0  0  0  0  0  0  0
    5.6540    0.7570   17.4440 N   0  0  0  0  0  0  0  0  0  0  0  0
    6.2070    0.3090   18.5900 C   0  0  0  0  0  0  0  0  0  0  0  0
    5.9020    0.8250   19.8730 C   0  0  0  0  0  0  0  0  0  0  0  0
    6.6600    0.4360   21.0110 N   0  0  0  0  0  0  0  0  0  0  0  0
    8.0270    0.3410   21.0240 C   0  0  0  0  0  0  0  0  0  0  0  0
    8.6830    0.3670   20.0040 O   0  0  0  0  0  0  0  0  0  0  0  0
    8.5940    0.2390   22.2630 N   0  0  0  0  0  0  0  0  0  0  0  0
    9.9870    0.3010   22.4900 C   0  0  0  0  0  0  0  0  0  0  0  0
   10.8410   -0.6770   21.9530 C   0  0  0  0  0  0  0  0  0  0  0  0
   12.2330   -0.5550   22.0960 C   0  0  0  0  0  0  0  0  0  0  0  0
   12.7720    0.5470   22.7790 C   0  0  0  0  0  0  0  0  0  0  0  0
   11.9180    1.5260   23.3130 C   0  0  0  0  0  0  0  0  0  0  0  0
   10.5270    1.4000   23.1740 C   0  0  0  0  0  0  0  0  0  0  0  0
  1  2  1  0
  2  3  1  0
  3  4  2  0
  3  8  1  0
  4  5  1  0
  5  6  2  0
  6  7  1  0
  7  8  2  0
  8  9  1  0
  9 10  1  0
 10 11  2  0
 10 12  1  0
 12 13  1  0
 13 14  2  0
 13 18  1  0
 14 15  1  0
 15 16  2  0
 16 17  1  0
 17 18  2  0
M  END
