WPC0546_minimised.pdb
     RDKit          3D

 23 24  0  0  0  0  0  0  0  0999 V2000
   13.0740    4.8210   21.2470 O   0  0  0  0  0  0  0  0  0  0  0  0
   13.4570    5.3790   22.2500 C   0  0  0  0  0  0  0  0  0  0  0  0
   14.4040    6.3300   22.1770 O   0  0  0  0  0  0  0  0  0  0  0  0
   12.8320    5.2290   23.6410 C   0  0  0  0  0  0  0  0  0  0  0  0
   12.0010    3.6050   23.9570 S   0  0  0  0  0  0  0  0  0  0  0  0
   13.2400    2.4380   23.2430 C   0  0  0  0  0  0  0  0  0  0  0  0
   13.1390    0.9940   23.7800 C   0  0  0  0  0  0  0  0  0  0  0  0
   11.8170    0.3490   23.4310 C   0  0  0  0  0  0  0  0  0  0  0  0
   11.7120   -0.4460   22.2790 C   0  0  0  0  0  0  0  0  0  0  0  0
   10.4550   -0.8990   21.8640 C   0  0  0  0  0  0  0  0  0  0  0  0
    9.3030   -0.5380   22.5780 C   0  0  0  0  0  0  0  0  0  0  0  0
    8.0230   -0.7310   22.0240 N   0  0  0  0  0  0  0  0  0  0  0  0
    7.6850   -0.3710   20.7460 C   0  0  0  0  0  0  0  0  0  0  0  0
    8.4760   -0.1570   19.8470 O   0  0  0  0  0  0  0  0  0  0  0  0
    6.3380   -0.2140   20.5910 N   0  0  0  0  0  0  0  0  0  0  0  0
    5.7250    0.4320   19.4940 C   0  0  0  0  0  0  0  0  0  0  0  0
    4.7880    1.4430   19.7390 C   0  0  0  0  0  0  0  0  0  0  0  0
    4.2920    2.1500   18.6370 C   0  0  0  0  0  0  0  0  0  0  0  0
    4.7550    1.8420   17.3500 C   0  0  0  0  0  0  0  0  0  0  0  0
    5.6280    0.8400   17.1020 N   0  0  0  0  0  0  0  0  0  0  0  0
    6.1120    0.1650   18.1630 C   0  0  0  0  0  0  0  0  0  0  0  0
    9.4190    0.1660   23.7850 C   0  0  0  0  0  0  0  0  0  0  0  0
   10.6790    0.6000   24.2190 C   0  0  0  0  0  0  0  0  0  0  0  0
  1  2  2  0
  2  3  1  0
  2  4  1  0
  4  5  1  0
  5  6  1  0
  6  7  1  0
  7  8  1  0
  8 23  2  0
  8  9  1  0
  9 10  2  0
 10 11  1  0
 11 12  1  0
 11 22  2  0
 12 13  1  0
 13 14  2  0
 13 15  1  0
 15 16  1  0
 16 17  2  0
 16 21  1  0
 17 18  1  0
 18 19  2  0
 19 20  1  0
 20 21  2  0
 22 23  1  0
M  END
