WPC0387_minimised.pdb
     RDKit          3D

 22 23  0  0  0  0  0  0  0  0999 V2000
   14.3750    4.9730   22.6180 O   0  0  0  0  0  0  0  0  0  0  0  0
   13.3010    4.4760   22.3530 C   0  0  0  0  0  0  0  0  0  0  0  0
   12.2210    5.2270   22.1240 O   0  0  0  0  0  0  0  0  0  0  0  0
   13.0390    3.0290   22.4820 C   0  0  0  0  0  0  0  0  0  0  0  0
   14.0600    2.1840   22.7520 C   0  0  0  0  0  0  0  0  0  0  0  0
   13.9410    0.4740   23.0460 S   0  0  0  0  0  0  0  0  0  0  0  0
   12.2220    0.0560   22.9040 C   0  0  0  0  0  0  0  0  0  0  0  0
   11.8330   -0.8490   21.9080 C   0  0  0  0  0  0  0  0  0  0  0  0
   10.4730   -1.1050   21.7030 C   0  0  0  0  0  0  0  0  0  0  0  0
    9.5060   -0.4400   22.4690 C   0  0  0  0  0  0  0  0  0  0  0  0
    8.1570   -0.4830   22.0690 N   0  0  0  0  0  0  0  0  0  0  0  0
    7.7450   -0.1190   20.8160 C   0  0  0  0  0  0  0  0  0  0  0  0
    8.5060    0.1370   19.9010 O   0  0  0  0  0  0  0  0  0  0  0  0
    6.3880   -0.0300   20.6900 N   0  0  0  0  0  0  0  0  0  0  0  0
    5.7230    0.5360   19.5770 C   0  0  0  0  0  0  0  0  0  0  0  0
    4.7510    1.5190   19.7960 C   0  0  0  0  0  0  0  0  0  0  0  0
    4.2210    2.1690   18.6740 C   0  0  0  0  0  0  0  0  0  0  0  0
    4.6890    1.8380   17.3950 C   0  0  0  0  0  0  0  0  0  0  0  0
    5.5840    0.8500   17.1710 N   0  0  0  0  0  0  0  0  0  0  0  0
    6.0970    0.2270   18.2510 C   0  0  0  0  0  0  0  0  0  0  0  0
    9.8960    0.3940   23.5270 C   0  0  0  0  0  0  0  0  0  0  0  0
   11.2600    0.6310   23.7530 C   0  0  0  0  0  0  0  0  0  0  0  0
  1  2  2  0
  2  3  1  0
  2  4  1  0
  4  5  2  0
  5  6  1  0
  6  7  1  0
  7 22  2  0
  7  8  1  0
  8  9  2  0
  9 10  1  0
 10 11  1  0
 10 21  2  0
 11 12  1  0
 12 13  2  0
 12 14  1  0
 14 15  1  0
 15 16  2  0
 15 20  1  0
 16 17  1  0
 17 18  2  0
 18 19  1  0
 19 20  2  0
 21 22  1  0
M  END
