WPC0439_minimised.pdb
     RDKit          3D

 23 24  0  0  0  0  0  0  0  0999 V2000
   12.0810    5.1340   22.4980 N   0  0  0  0  0  0  0  0  0  0  0  0
   13.3660    5.1630   22.0460 C   0  0  0  0  0  0  0  0  0  0  0  0
   13.7510    6.0780   21.3510 O   0  0  0  0  0  0  0  0  0  0  0  0
   14.2490    3.9850   22.4360 C   0  0  0  0  0  0  0  0  0  0  0  0
   13.4680    2.6640   22.6340 C   0  0  0  0  0  0  0  0  0  0  0  0
   14.3490    1.4060   22.4890 C   0  0  0  0  0  0  0  0  0  0  0  0
   13.8210    0.2190   23.3130 C   0  0  0  0  0  0  0  0  0  0  0  0
   12.3460   -0.0560   23.0770 C   0  0  0  0  0  0  0  0  0  0  0  0
   11.9490   -0.8490   21.9900 C   0  0  0  0  0  0  0  0  0  0  0  0
   10.5850   -1.0280   21.7260 C   0  0  0  0  0  0  0  0  0  0  0  0
    9.6160   -0.3960   22.5160 C   0  0  0  0  0  0  0  0  0  0  0  0
    8.2670   -0.4020   22.1100 N   0  0  0  0  0  0  0  0  0  0  0  0
    7.8460   -0.0260   20.8610 C   0  0  0  0  0  0  0  0  0  0  0  0
    8.5950    0.2510   19.9440 O   0  0  0  0  0  0  0  0  0  0  0  0
    6.4860    0.0370   20.7430 N   0  0  0  0  0  0  0  0  0  0  0  0
    5.8030    0.5720   19.6250 C   0  0  0  0  0  0  0  0  0  0  0  0
    4.8170    1.5440   19.8310 C   0  0  0  0  0  0  0  0  0  0  0  0
    4.2660    2.1600   18.7010 C   0  0  0  0  0  0  0  0  0  0  0  0
    4.7230    1.8030   17.4240 C   0  0  0  0  0  0  0  0  0  0  0  0
    5.6340    0.8260   17.2120 N   0  0  0  0  0  0  0  0  0  0  0  0
    6.1720    0.2410   18.3020 C   0  0  0  0  0  0  0  0  0  0  0  0
   10.0060    0.3360   23.6450 C   0  0  0  0  0  0  0  0  0  0  0  0
   11.3690    0.4950   23.9290 C   0  0  0  0  0  0  0  0  0  0  0  0
  1  2  1  0
  2  3  2  0
  2  4  1  0
  4  5  1  0
  5  6  1  0
  6  7  1  0
  7  8  1  0
  8 23  2  0
  8  9  1  0
  9 10  2  0
 10 11  1  0
 11 12  1  0
 11 22  2  0
 12 13  1  0
 13 14  2  0
 13 15  1  0
 15 16  1  0
 16 17  2  0
 16 21  1  0
 17 18  1  0
 18 19  2  0
 19 20  1  0
 20 21  2  0
 22 23  1  0
M  END
