WPC0779_minimised.pdb
     RDKit          3D

 18 19  0  0  0  0  0  0  0  0999 V2000
   14.2380    0.3560   22.6120 C   0  0  0  0  0  0  0  0  0  0  0  0
   13.1440    0.8650   23.5630 C   0  0  0  0  0  0  0  0  0  0  0  0
   11.7300    0.4300   23.2200 C   0  0  0  0  0  0  0  0  0  0  0  0
   11.4540   -0.5940   22.2910 C   0  0  0  0  0  0  0  0  0  0  0  0
   10.1300   -0.8670   21.9240 C   0  0  0  0  0  0  0  0  0  0  0  0
    9.0800   -0.1280   22.4860 C   0  0  0  0  0  0  0  0  0  0  0  0
    7.7780   -0.2470   21.9700 N   0  0  0  0  0  0  0  0  0  0  0  0
    7.4640    0.0290   20.6700 C   0  0  0  0  0  0  0  0  0  0  0  0
    8.2800    0.1780   19.7800 O   0  0  0  0  0  0  0  0  0  0  0  0
    6.1200    0.1780   20.4800 N   0  0  0  0  0  0  0  0  0  0  0  0
    5.5250    0.7640   19.3420 C   0  0  0  0  0  0  0  0  0  0  0  0
    4.5480    1.7490   19.5210 C   0  0  0  0  0  0  0  0  0  0  0  0
    4.0770    2.4110   18.3820 C   0  0  0  0  0  0  0  0  0  0  0  0
    4.6090    2.0900   17.1260 C   0  0  0  0  0  0  0  0  0  0  0  0
    5.5190    1.1070   16.9380 N   0  0  0  0  0  0  0  0  0  0  0  0
    5.9700    0.4690   18.0350 C   0  0  0  0  0  0  0  0  0  0  0  0
    9.3410    0.8370   23.4660 C   0  0  0  0  0  0  0  0  0  0  0  0
   10.6650    1.1130   23.8330 C   0  0  0  0  0  0  0  0  0  0  0  0
  1  2  1  0
  2  3  1  0
  3 18  2  0
  3  4  1  0
  4  5  2  0
  5  6  1  0
  6  7  1  0
  6 17  2  0
  7  8  1  0
  8  9  2  0
  8 10  1  0
 10 11  1  0
 11 12  2  0
 11 16  1  0
 12 13  1  0
 13 14  2  0
 14 15  1  0
 15 16  2  0
 17 18  1  0
M  END
