WPC0690_minimised.pdb
     RDKit          3D

 23 25  0  0  0  0  0  0  0  0999 V2000
    8.3890    0.0220   19.7240 O   0  0  0  0  0  0  0  0  0  0  0  0
    7.6060   -0.2140   20.6260 C   0  0  0  0  0  0  0  0  0  0  0  0
    7.9630   -0.4530   21.9230 N   0  0  0  0  0  0  0  0  0  0  0  0
    9.2020   -0.0480   22.4500 C   0  0  0  0  0  0  0  0  0  0  0  0
   10.3980   -0.4060   21.8100 C   0  0  0  0  0  0  0  0  0  0  0  0
   11.5960    0.2230   22.1680 C   0  0  0  0  0  0  0  0  0  0  0  0
   11.5960    1.1990   23.1770 C   0  0  0  0  0  0  0  0  0  0  0  0
   12.8660    1.9500   23.4990 C   0  0  0  0  0  0  0  0  0  0  0  0
   12.8940    3.4030   22.9530 C   0  0  0  0  0  0  0  0  0  0  0  0
   12.1280    4.4070   23.6980 N   0  0  0  0  0  0  0  0  0  0  0  0
   10.8280    4.8190   23.5020 C   0  0  0  0  0  0  0  0  0  0  0  0
   10.5710    5.8230   24.3200 N   0  0  0  0  0  0  0  0  0  0  0  0
   11.7590    6.0220   24.9820 C   0  0  0  0  0  0  0  0  0  0  0  0
   12.7240    5.1970   24.6230 N   0  0  0  0  0  0  0  0  0  0  0  0
   10.4180    1.4730   23.8940 C   0  0  0  0  0  0  0  0  0  0  0  0
    9.2160    0.8570   23.5200 C   0  0  0  0  0  0  0  0  0  0  0  0
    6.2530   -0.1670   20.4590 N   0  0  0  0  0  0  0  0  0  0  0  0
    5.6240    0.4740   19.3690 C   0  0  0  0  0  0  0  0  0  0  0  0
    4.6800    1.4760   19.6240 C   0  0  0  0  0  0  0  0  0  0  0  0
    4.1970    2.2070   18.5320 C   0  0  0  0  0  0  0  0  0  0  0  0
    4.6860    1.9370   17.2470 C   0  0  0  0  0  0  0  0  0  0  0  0
    5.5660    0.9430   16.9880 N   0  0  0  0  0  0  0  0  0  0  0  0
    6.0280    0.2370   18.0380 C   0  0  0  0  0  0  0  0  0  0  0  0
  1  2  2  0
  2  3  1  0
  2 17  1  0
  3  4  1  0
  4  5  2  0
  4 16  1  0
  5  6  1  0
  6  7  2  0
  7  8  1  0
  7 15  1  0
  8  9  1  0
  9 10  1  0
 10 11  1  0
 10 14  1  0
 11 12  2  0
 12 13  1  0
 13 14  2  0
 15 16  2  0
 17 18  1  0
 18 19  2  0
 18 23  1  0
 19 20  1  0
 20 21  2  0
 21 22  1  0
 22 23  2  0
M  END
