WPC0729_minimised.pdb
     RDKit          3D

 24 25  0  0  1  0  0  0  0  0999 V2000
   13.3930    5.0900   22.7320 C   0  0  0  0  0  0  0  0  0  0  0  0
   12.2230    4.3690   23.3950 C   0  0  1  0  0  0  0  0  0  0  0  0
   12.2590    3.1200   23.7630 N   0  0  0  0  0  0  0  0  0  0  0  0
   13.2130    2.2530   23.3310 N   0  0  0  0  0  0  0  0  0  0  0  0
   13.1010    0.8530   23.7720 C   0  0  0  0  0  0  0  0  0  0  0  0
   11.7490    0.2710   23.4140 C   0  0  0  0  0  0  0  0  0  0  0  0
   11.5970   -0.4680   22.2310 C   0  0  0  0  0  0  0  0  0  0  0  0
   10.3170   -0.8510   21.8160 C   0  0  0  0  0  0  0  0  0  0  0  0
    9.1880   -0.4650   22.5540 C   0  0  0  0  0  0  0  0  0  0  0  0
    7.8980   -0.5830   22.0000 N   0  0  0  0  0  0  0  0  0  0  0  0
    7.5740   -0.1860   20.7300 C   0  0  0  0  0  0  0  0  0  0  0  0
    8.3800    0.0670   19.8530 O   0  0  0  0  0  0  0  0  0  0  0  0
    6.2280   -0.0460   20.5480 N   0  0  0  0  0  0  0  0  0  0  0  0
    5.6310    0.5870   19.4340 C   0  0  0  0  0  0  0  0  0  0  0  0
    4.6760    1.5880   19.6470 C   0  0  0  0  0  0  0  0  0  0  0  0
    4.2120    2.2920   18.5290 C   0  0  0  0  0  0  0  0  0  0  0  0
    4.7270    1.9950   17.2590 C   0  0  0  0  0  0  0  0  0  0  0  0
    5.6150    0.9990   17.0390 N   0  0  0  0  0  0  0  0  0  0  0  0
    6.0600    0.3220   18.1150 C   0  0  0  0  0  0  0  0  0  0  0  0
    9.3460    0.1840   23.7860 C   0  0  0  0  0  0  0  0  0  0  0  0
   10.6290    0.5390   24.2250 C   0  0  0  0  0  0  0  0  0  0  0  0
   11.0380    5.1530   23.9080 C   0  0  0  0  0  0  0  0  0  0  0  0
   10.9320    6.3670   23.8920 O   0  0  0  0  0  0  0  0  0  0  0  0
   10.1020    4.4010   24.5170 O   0  0  0  0  0  0  0  0  0  0  0  0
  2  1  1  1
  2 22  1  0
  2  3  1  0
  3  4  1  0
  4  5  1  0
  5  6  1  0
  6 21  2  0
  6  7  1  0
  7  8  2  0
  8  9  1  0
  9 10  1  0
  9 20  2  0
 10 11  1  0
 11 12  2  0
 11 13  1  0
 13 14  1  0
 14 15  2  0
 14 19  1  0
 15 16  1  0
 16 17  2  0
 17 18  1  0
 18 19  2  0
 20 21  1  0
 22 23  2  0
 22 24  1  0
M  END
