WPC0137_minimised.pdb
     RDKit          3D

 17 18  0  0  0  0  0  0  0  0999 V2000
    8.7680    0.2340   19.9720 O   0  0  0  0  0  0  0  0  0  0  0  0
    8.1290    0.0380   20.9840 C   0  0  0  0  0  0  0  0  0  0  0  0
    8.7100   -0.1500   22.2090 N   0  0  0  0  0  0  0  0  0  0  0  0
   10.0960   -0.0060   22.4450 C   0  0  0  0  0  0  0  0  0  0  0  0
   11.0100   -0.8970   21.8610 C   0  0  0  0  0  0  0  0  0  0  0  0
   12.3920   -0.6850   21.9990 C   0  0  0  0  0  0  0  0  0  0  0  0
   12.8610    0.4200   22.7290 C   0  0  0  0  0  0  0  0  0  0  0  0
   11.9460    1.3060   23.3220 C   0  0  0  0  0  0  0  0  0  0  0  0
   10.5650    1.0910   23.1830 C   0  0  0  0  0  0  0  0  0  0  0  0
    6.7590    0.0370   20.9720 N   0  0  0  0  0  0  0  0  0  0  0  0
    5.9860    0.5090   19.8730 C   0  0  0  0  0  0  0  0  0  0  0  0
    6.2700    0.1180   18.5470 C   0  0  0  0  0  0  0  0  0  0  0  0
    5.6760    0.6600   17.4640 N   0  0  0  0  0  0  0  0  0  0  0  0
    4.7870    1.6550   17.6750 C   0  0  0  0  0  0  0  0  0  0  0  0
    4.4030    2.0730   18.9550 C   0  0  0  0  0  0  0  0  0  0  0  0
    5.0140    1.4990   20.0710 C   0  0  0  0  0  0  0  0  0  0  0  0
    4.7060    1.9390   21.3090 F   0  0  0  0  0  0  0  0  0  0  0  0
  1  2  2  0
  2  3  1  0
  2 10  1  0
  3  4  1  0
  4  5  2  0
  4  9  1  0
  5  6  1  0
  6  7  2  0
  7  8  1  0
  8  9  2  0
 10 11  1  0
 11 12  2  0
 11 16  1  0
 12 13  1  0
 13 14  2  0
 14 15  1  0
 15 16  2  0
 16 17  1  0
M  END
