WPC0485_minimised.pdb
     RDKit          3D

 24 25  0  0  1  0  0  0  0  0999 V2000
   14.0070    6.0990   22.2780 N   0  0  0  0  0  0  0  0  0  0  0  0
   12.8950    5.3000   22.8790 C   0  0  1  0  0  0  0  0  0  0  0  0
   13.4760    3.9820   23.4060 C   0  0  0  0  0  0  0  0  0  0  0  0
   13.9270    2.9700   22.3470 C   0  0  0  0  0  0  0  0  0  0  0  0
   14.1690    1.2970   23.0900 S   0  0  0  0  0  0  0  0  0  0  0  0
   12.5320    0.6200   22.9860 C   0  0  0  0  0  0  0  0  0  0  0  0
   12.2370   -0.2430   21.9240 C   0  0  0  0  0  0  0  0  0  0  0  0
   10.9150   -0.6560   21.7140 C   0  0  0  0  0  0  0  0  0  0  0  0
    9.8840   -0.1840   22.5420 C   0  0  0  0  0  0  0  0  0  0  0  0
    8.5350   -0.3750   22.1680 N   0  0  0  0  0  0  0  0  0  0  0  0
    8.0430   -0.0610   20.9270 C   0  0  0  0  0  0  0  0  0  0  0  0
    8.7400    0.2470   19.9800 O   0  0  0  0  0  0  0  0  0  0  0  0
    6.6780   -0.0750   20.8400 N   0  0  0  0  0  0  0  0  0  0  0  0
    5.9570    0.4420   19.7350 C   0  0  0  0  0  0  0  0  0  0  0  0
    4.9910    1.4310   19.9560 C   0  0  0  0  0  0  0  0  0  0  0  0
    4.4170    2.0420   18.8340 C   0  0  0  0  0  0  0  0  0  0  0  0
    4.8310    1.6620   17.5490 C   0  0  0  0  0  0  0  0  0  0  0  0
    5.7210    0.6700   17.3230 N   0  0  0  0  0  0  0  0  0  0  0  0
    6.2820    0.0910   18.4050 C   0  0  0  0  0  0  0  0  0  0  0  0
   10.1950    0.6050   23.6610 C   0  0  0  0  0  0  0  0  0  0  0  0
   11.5230    0.9980   23.8890 C   0  0  0  0  0  0  0  0  0  0  0  0
   12.1490    6.0180   24.0360 C   0  0  0  0  0  0  0  0  0  0  0  0
   11.1510    5.6180   24.6020 O   0  0  0  0  0  0  0  0  0  0  0  0
   12.8400    7.0770   24.4710 O   0  0  0  0  0  0  0  0  0  0  0  0
  2  1  1  1
  2 22  1  0
  2  3  1  0
  3  4  1  0
  4  5  1  0
  5  6  1  0
  6 21  2  0
  6  7  1  0
  7  8  2  0
  8  9  1  0
  9 10  1  0
  9 20  2  0
 10 11  1  0
 11 12  2  0
 11 13  1  0
 13 14  1  0
 14 15  2  0
 14 19  1  0
 15 16  1  0
 16 17  2  0
 17 18  1  0
 18 19  2  0
 20 21  1  0
 22 23  2  0
 22 24  1  0
M  END
