WPC0453_minimised.pdb
     RDKit          3D

 21 22  0  0  1  0  0  0  0  0999 V2000
   13.6850   -1.8520   23.4470 C   0  0  0  0  0  0  0  0  0  0  0  0
   12.7760   -0.6760   23.8960 C   0  0  1  0  0  0  0  0  0  0  0  0
   13.2430    0.7140   23.4360 C   0  0  0  0  0  0  0  0  0  0  0  0
   14.3650    0.7850   22.6720 N   0  0  0  0  0  0  0  0  0  0  0  0
   12.6660    1.7440   23.7070 O   0  0  0  0  0  0  0  0  0  0  0  0
   11.3250   -0.8600   23.4790 C   0  0  0  0  0  0  0  0  0  0  0  0
   10.9990   -1.4500   22.2450 C   0  0  0  0  0  0  0  0  0  0  0  0
    9.6780   -1.4410   21.7920 C   0  0  0  0  0  0  0  0  0  0  0  0
    8.6800   -0.8050   22.5420 C   0  0  0  0  0  0  0  0  0  0  0  0
    7.4100   -0.5830   21.9770 N   0  0  0  0  0  0  0  0  0  0  0  0
    7.1940   -0.1080   20.7110 C   0  0  0  0  0  0  0  0  0  0  0  0
    8.0520    0.0370   19.8590 O   0  0  0  0  0  0  0  0  0  0  0  0
    5.8810    0.2020   20.5000 N   0  0  0  0  0  0  0  0  0  0  0  0
    5.3530    0.8290   19.3480 C   0  0  0  0  0  0  0  0  0  0  0  0
    4.3810    1.8240   19.5020 C   0  0  0  0  0  0  0  0  0  0  0  0
    3.9530    2.4950   18.3500 C   0  0  0  0  0  0  0  0  0  0  0  0
    4.5190    2.1720   17.1090 C   0  0  0  0  0  0  0  0  0  0  0  0
    5.4220    1.1790   16.9460 N   0  0  0  0  0  0  0  0  0  0  0  0
    5.8320    0.5340   18.0540 C   0  0  0  0  0  0  0  0  0  0  0  0
    8.9820   -0.2750   23.8040 C   0  0  0  0  0  0  0  0  0  0  0  0
   10.3040   -0.3080   24.2750 C   0  0  0  0  0  0  0  0  0  0  0  0
  2  1  1  6
  2  3  1  0
  2  6  1  0
  3  4  1  0
  3  5  2  0
  6 21  2  0
  6  7  1  0
  7  8  2  0
  8  9  1  0
  9 10  1  0
  9 20  2  0
 10 11  1  0
 11 12  2  0
 11 13  1  0
 13 14  1  0
 14 15  2  0
 14 19  1  0
 15 16  1  0
 16 17  2  0
 17 18  1  0
 18 19  2  0
 20 21  1  0
M  END
