WPC0091_minimised.pdb
     RDKit          3D

 24 26  0  0  0  0  0  0  0  0999 V2000
    9.2630    0.4060   20.4500 O   0  0  0  0  0  0  0  0  0  0  0  0
    8.7350   -0.5680   20.9460 C   0  0  0  0  0  0  0  0  0  0  0  0
    9.3260   -1.3880   21.8690 N   0  0  0  0  0  0  0  0  0  0  0  0
   10.4580   -0.9990   22.6100 C   0  0  0  0  0  0  0  0  0  0  0  0
   11.6440   -0.6230   21.9600 C   0  0  0  0  0  0  0  0  0  0  0  0
   12.6820   -0.0210   22.6870 C   0  0  0  0  0  0  0  0  0  0  0  0
   12.5230    0.2050   24.0620 C   0  0  0  0  0  0  0  0  0  0  0  0
   11.3540   -0.2110   24.7230 C   0  0  0  0  0  0  0  0  0  0  0  0
   10.3250   -0.8220   23.9940 C   0  0  0  0  0  0  0  0  0  0  0  0
    7.4380   -0.8880   20.6770 N   0  0  0  0  0  0  0  0  0  0  0  0
    6.5980   -0.0380   19.9170 C   0  0  0  0  0  0  0  0  0  0  0  0
    6.4790   -0.2410   18.5290 C   0  0  0  0  0  0  0  0  0  0  0  0
    5.7720    0.5600   17.7100 N   0  0  0  0  0  0  0  0  0  0  0  0
    5.1830    1.6420   18.2660 C   0  0  0  0  0  0  0  0  0  0  0  0
    5.2610    1.9340   19.6400 C   0  0  0  0  0  0  0  0  0  0  0  0
    5.9940    1.0950   20.5010 C   0  0  0  0  0  0  0  0  0  0  0  0
    6.1040    1.4220   21.9980 C   0  0  0  0  0  0  0  0  0  0  0  0
    6.5740    2.7840   22.3010 N   0  0  0  0  0  0  0  0  0  0  0  0
    7.9920    3.1090   22.0450 C   0  0  0  0  0  0  0  0  0  0  0  0
    8.1580    4.6550   22.0190 C   0  0  0  0  0  0  0  0  0  0  0  0
    9.1280    5.2260   23.0820 C   0  0  0  0  0  0  0  0  0  0  0  0
   10.4860    4.4970   23.1560 C   0  0  0  0  0  0  0  0  0  0  0  0
   10.3740    2.9600   22.9950 C   0  0  0  0  0  0  0  0  0  0  0  0
    8.9260    2.4250   23.0730 C   0  0  0  0  0  0  0  0  0  0  0  0
  1  2  2  0
  2  3  1  0
  2 10  1  0
  3  4  1  0
  4  5  2  0
  4  9  1  0
  5  6  1  0
  6  7  2  0
  7  8  1  0
  8  9  2  0
 10 11  1  0
 11 12  2  0
 11 16  1  0
 12 13  1  0
 13 14  2  0
 14 15  1  0
 15 16  2  0
 16 17  1  0
 17 18  1  0
 18 19  1  0
 19 20  1  0
 19 24  1  0
 20 21  1  0
 21 22  1  0
 22 23  1  0
 23 24  1  0
M  END
