WPC0992_minimised.pdb
     RDKit          3D

 24 26  0  0  0  0  0  0  0  0999 V2000
   12.5170    6.7570   24.5660 N   0  0  0  0  0  0  0  0  0  0  0  0
   12.4160    5.5750   23.9080 C   0  0  0  0  0  0  0  0  0  0  0  0
   11.7250    4.6140   24.4700 N   0  0  0  0  0  0  0  0  0  0  0  0
   12.0390    3.3940   23.9270 N   0  0  0  0  0  0  0  0  0  0  0  0
   12.9420    3.5050   22.9690 C   0  0  0  0  0  0  0  0  0  0  0  0
   13.8230    2.0680   22.4560 S   0  0  0  0  0  0  0  0  0  0  0  0
   13.3130    0.7170   23.5990 C   0  0  0  0  0  0  0  0  0  0  0  0
   11.9290    0.1990   23.2760 C   0  0  0  0  0  0  0  0  0  0  0  0
   11.7360   -0.6000   22.1380 C   0  0  0  0  0  0  0  0  0  0  0  0
   10.4400   -0.9760   21.7670 C   0  0  0  0  0  0  0  0  0  0  0  0
    9.3340   -0.5290   22.5050 C   0  0  0  0  0  0  0  0  0  0  0  0
    8.0280   -0.6770   21.9980 N   0  0  0  0  0  0  0  0  0  0  0  0
    7.6600   -0.3250   20.7270 C   0  0  0  0  0  0  0  0  0  0  0  0
    8.4370   -0.1060   19.8160 O   0  0  0  0  0  0  0  0  0  0  0  0
    6.3070   -0.1850   20.5880 N   0  0  0  0  0  0  0  0  0  0  0  0
    5.6790    0.4520   19.4920 C   0  0  0  0  0  0  0  0  0  0  0  0
    4.7370    1.4580   19.7410 C   0  0  0  0  0  0  0  0  0  0  0  0
    4.2430    2.1720   18.6410 C   0  0  0  0  0  0  0  0  0  0  0  0
    4.7150    1.8770   17.3540 C   0  0  0  0  0  0  0  0  0  0  0  0
    5.5870    0.8760   17.1010 N   0  0  0  0  0  0  0  0  0  0  0  0
    6.0670    0.1930   18.1600 C   0  0  0  0  0  0  0  0  0  0  0  0
    9.5300    0.1980   23.6870 C   0  0  0  0  0  0  0  0  0  0  0  0
   10.8280    0.5480   24.0810 C   0  0  0  0  0  0  0  0  0  0  0  0
   13.4960    5.1180   22.6250 S   0  0  0  0  0  0  0  0  0  0  0  0
  1  2  1  0
  2 24  1  0
  2  3  2  0
  3  4  1  0
  4  5  2  0
  5  6  1  0
  5 24  1  0
  6  7  1  0
  7  8  1  0
  8 23  1  0
  8  9  2  0
  9 10  1  0
 10 11  2  0
 11 12  1  0
 11 22  1  0
 12 13  1  0
 13 14  2  0
 13 15  1  0
 15 16  1  0
 16 17  2  0
 16 21  1  0
 17 18  1  0
 18 19  2  0
 19 20  1  0
 20 21  2  0
 22 23  2  0
M  END
