WPC0289_minimised.pdb
     RDKit          3D

 17 18  0  0  0  0  0  0  0  0999 V2000
    9.0340    1.1430   20.6540 O   0  0  0  0  0  0  0  0  0  0  0  0
    8.6430    0.1250   21.1910 C   0  0  0  0  0  0  0  0  0  0  0  0
    9.4400   -0.5910   22.0510 N   0  0  0  0  0  0  0  0  0  0  0  0
   10.8010   -0.3080   22.3060 C   0  0  0  0  0  0  0  0  0  0  0  0
   11.7780   -1.2630   21.9910 C   0  0  0  0  0  0  0  0  0  0  0  0
   13.1420   -0.9510   22.1210 C   0  0  0  0  0  0  0  0  0  0  0  0
   13.5280    0.3100   22.6060 C   0  0  0  0  0  0  0  0  0  0  0  0
   12.5500    1.2570   22.9490 C   0  0  0  0  0  0  0  0  0  0  0  0
   11.1900    0.9510   22.7910 C   0  0  0  0  0  0  0  0  0  0  0  0
    7.3770   -0.4080   20.9270 N   0  0  0  0  0  0  0  0  0  0  0  0
    6.8920   -1.5470   21.6220 O   0  0  0  0  0  0  0  0  0  0  0  0
    6.5040    0.1360   19.9520 C   0  0  0  0  0  0  0  0  0  0  0  0
    5.5970    1.1510   20.2900 C   0  0  0  0  0  0  0  0  0  0  0  0
    4.8740    1.7570   19.2520 C   0  0  0  0  0  0  0  0  0  0  0  0
    5.0950    1.3520   17.9270 C   0  0  0  0  0  0  0  0  0  0  0  0
    5.9510    0.3610   17.5970 N   0  0  0  0  0  0  0  0  0  0  0  0
    6.6530   -0.2130   18.5970 C   0  0  0  0  0  0  0  0  0  0  0  0
  1  2  2  0
  2  3  1  0
  2 10  1  0
  3  4  1  0
  4  5  2  0
  4  9  1  0
  5  6  1  0
  6  7  2  0
  7  8  1  0
  8  9  2  0
 10 11  1  0
 10 12  1  0
 12 13  2  0
 12 17  1  0
 13 14  1  0
 14 15  2  0
 15 16  1  0
 16 17  2  0
M  END
