WPC0508_minimised.pdb
     RDKit          3D

 21 22  0  0  1  0  0  0  0  0999 V2000
   14.0420    5.4760   21.8230 C   0  0  0  0  0  0  0  0  0  0  0  0
   13.9910    4.3580   22.8730 C   0  0  1  0  0  0  0  0  0  0  0  0
   12.8520    4.6180   23.7550 N   0  0  0  0  0  0  0  0  0  0  0  0
   13.8630    3.0030   22.1510 C   0  0  0  0  0  0  0  0  0  0  0  0
   13.9770    1.5020   23.2180 S   0  0  0  0  0  0  0  0  0  0  0  0
   12.3430    0.8330   23.0790 C   0  0  0  0  0  0  0  0  0  0  0  0
   12.1130   -0.2580   22.2270 C   0  0  0  0  0  0  0  0  0  0  0  0
   10.7990   -0.6750   21.9720 C   0  0  0  0  0  0  0  0  0  0  0  0
    9.7230   -0.0080   22.5800 C   0  0  0  0  0  0  0  0  0  0  0  0
    8.4030   -0.2650   22.1620 N   0  0  0  0  0  0  0  0  0  0  0  0
    7.9690   -0.0510   20.8820 C   0  0  0  0  0  0  0  0  0  0  0  0
    8.7090    0.1580   19.9390 O   0  0  0  0  0  0  0  0  0  0  0  0
    6.6060   -0.0290   20.7670 N   0  0  0  0  0  0  0  0  0  0  0  0
    5.9080    0.4930   19.6510 C   0  0  0  0  0  0  0  0  0  0  0  0
    4.9300    1.4710   19.8650 C   0  0  0  0  0  0  0  0  0  0  0  0
    4.3610    2.0810   18.7410 C   0  0  0  0  0  0  0  0  0  0  0  0
    4.7930    1.7110   17.4590 C   0  0  0  0  0  0  0  0  0  0  0  0
    5.6940    0.7270   17.2400 N   0  0  0  0  0  0  0  0  0  0  0  0
    6.2530    0.1500   18.3250 C   0  0  0  0  0  0  0  0  0  0  0  0
    9.9610    1.0300   23.4950 C   0  0  0  0  0  0  0  0  0  0  0  0
   11.2750    1.4540   23.7420 C   0  0  0  0  0  0  0  0  0  0  0  0
  2  1  1  6
  2  3  1  0
  2  4  1  0
  4  5  1  0
  5  6  1  0
  6 21  2  0
  6  7  1  0
  7  8  2  0
  8  9  1  0
  9 10  1  0
  9 20  2  0
 10 11  1  0
 11 12  2  0
 11 13  1  0
 13 14  1  0
 14 15  2  0
 14 19  1  0
 15 16  1  0
 16 17  2  0
 17 18  1  0
 18 19  2  0
 20 21  1  0
M  END
