WPC0162_minimised.pdb
     RDKit          3D

 22 23  0  0  0  0  0  0  0  0999 V2000
    7.3080    0.3610   24.8640 C   0  0  0  0  0  0  0  0  0  0  0  0
    5.8030    0.0360   24.9920 C   0  0  0  0  0  0  0  0  0  0  0  0
    5.3900   -1.2330   24.2090 C   0  0  0  0  0  0  0  0  0  0  0  0
    5.6900   -1.0630   22.8060 O   0  0  0  0  0  0  0  0  0  0  0  0
    4.9450   -0.2000   22.0450 C   0  0  0  0  0  0  0  0  0  0  0  0
    3.8230    0.1290   22.3940 O   0  0  0  0  0  0  0  0  0  0  0  0
    5.4280   -0.0110   20.6240 C   0  0  0  0  0  0  0  0  0  0  0  0
    4.5930    0.6310   19.6810 C   0  0  0  0  0  0  0  0  0  0  0  0
    5.0080    0.7940   18.3480 C   0  0  0  0  0  0  0  0  0  0  0  0
    6.1900    0.3330   17.8910 N   0  0  0  0  0  0  0  0  0  0  0  0
    7.0370   -0.1860   18.8030 C   0  0  0  0  0  0  0  0  0  0  0  0
    6.7160   -0.3730   20.1680 C   0  0  0  0  0  0  0  0  0  0  0  0
    7.7240   -0.8230   21.0610 N   0  0  0  0  0  0  0  0  0  0  0  0
    8.9180   -0.1850   21.2420 C   0  0  0  0  0  0  0  0  0  0  0  0
    9.2220    0.7980   20.6020 O   0  0  0  0  0  0  0  0  0  0  0  0
    9.7360   -0.7570   22.1750 N   0  0  0  0  0  0  0  0  0  0  0  0
   11.0690   -0.3560   22.3930 C   0  0  0  0  0  0  0  0  0  0  0  0
   12.1060   -1.2340   22.0580 C   0  0  0  0  0  0  0  0  0  0  0  0
   13.4420   -0.8180   22.1540 C   0  0  0  0  0  0  0  0  0  0  0  0
   13.7400    0.4730   22.6200 C   0  0  0  0  0  0  0  0  0  0  0  0
   12.7000    1.3490   22.9720 C   0  0  0  0  0  0  0  0  0  0  0  0
   11.3640    0.9370   22.8510 C   0  0  0  0  0  0  0  0  0  0  0  0
  1  2  1  0
  2  3  1  0
  3  4  1  0
  4  5  1  0
  5  6  2  0
  5  7  1  0
  7  8  2  0
  7 12  1  0
  8  9  1  0
  9 10  2  0
 10 11  1  0
 11 12  2  0
 12 13  1  0
 13 14  1  0
 14 15  2  0
 14 16  1  0
 16 17  1  0
 17 18  2  0
 17 22  1  0
 18 19  1  0
 19 20  2  0
 20 21  1  0
 21 22  2  0
M  END
