WPC0933_minimised.pdb
     RDKit          3D

 24 25  0  0  0  0  0  0  0  0999 V2000
   10.4890    5.7530   23.1250 C   0  0  0  0  0  0  0  0  0  0  0  0
   10.4530    4.0920   23.7080 S   0  0  0  0  0  0  0  0  0  0  0  0
   10.3190    4.1440   25.1340 O   0  0  0  0  0  0  0  0  0  0  0  0
    9.6420    3.2070   22.9160 O   0  0  0  0  0  0  0  0  0  0  0  0
   11.9950    3.5900   23.6130 N   0  0  0  0  0  0  0  0  0  0  0  0
   12.4650    3.0930   22.3190 C   0  0  0  0  0  0  0  0  0  0  0  0
   13.7690    2.2850   22.4960 C   0  0  0  0  0  0  0  0  0  0  0  0
   13.6140    0.9000   23.7100 S   0  0  0  0  0  0  0  0  0  0  0  0
   12.0240    0.2210   23.3520 C   0  0  0  0  0  0  0  0  0  0  0  0
   11.8400   -0.4770   22.1540 C   0  0  0  0  0  0  0  0  0  0  0  0
   10.5470   -0.8420   21.7650 C   0  0  0  0  0  0  0  0  0  0  0  0
    9.4430   -0.4760   22.5500 C   0  0  0  0  0  0  0  0  0  0  0  0
    8.1370   -0.5750   22.0300 N   0  0  0  0  0  0  0  0  0  0  0  0
    7.7780   -0.1550   20.7760 C   0  0  0  0  0  0  0  0  0  0  0  0
    8.5580    0.1280   19.8860 O   0  0  0  0  0  0  0  0  0  0  0  0
    6.4250   -0.0460   20.6230 N   0  0  0  0  0  0  0  0  0  0  0  0
    5.7890    0.5620   19.5160 C   0  0  0  0  0  0  0  0  0  0  0  0
    4.8230    1.5500   19.7430 C   0  0  0  0  0  0  0  0  0  0  0  0
    4.3150    2.2290   18.6290 C   0  0  0  0  0  0  0  0  0  0  0  0
    4.7990    1.9220   17.3490 C   0  0  0  0  0  0  0  0  0  0  0  0
    5.6950    0.9370   17.1170 N   0  0  0  0  0  0  0  0  0  0  0  0
    6.1860    0.2860   18.1900 C   0  0  0  0  0  0  0  0  0  0  0  0
    9.6410    0.1280   23.8000 C   0  0  0  0  0  0  0  0  0  0  0  0
   10.9390    0.4660   24.2110 C   0  0  0  0  0  0  0  0  0  0  0  0
  1  2  1  0
  2  3  2  0
  2  4  2  0
  2  5  1  0
  5  6  1  0
  6  7  1  0
  7  8  1  0
  8  9  1  0
  9 24  2  0
  9 10  1  0
 10 11  2  0
 11 12  1  0
 12 13  1  0
 12 23  2  0
 13 14  1  0
 14 15  2  0
 14 16  1  0
 16 17  1  0
 17 18  2  0
 17 22  1  0
 18 19  1  0
 19 20  2  0
 20 21  1  0
 21 22  2  0
 23 24  1  0
M  END
