WPC0976_minimised.pdb
     RDKit          3D

 22 23  0  0  0  0  0  0  0  0999 V2000
   13.7370    5.6470   22.5910 N   0  0  0  0  0  0  0  0  0  0  0  0
   13.8700    4.2250   22.5900 N   0  0  0  0  0  0  0  0  0  0  0  0
   13.0630    3.3300   23.2660 C   0  0  0  0  0  0  0  0  0  0  0  0
   12.2200    3.6280   24.0920 O   0  0  0  0  0  0  0  0  0  0  0  0
   13.6570    2.1160   23.1340 O   0  0  0  0  0  0  0  0  0  0  0  0
   13.2120    0.9660   23.8600 C   0  0  0  0  0  0  0  0  0  0  0  0
   11.8460    0.5170   23.3950 C   0  0  0  0  0  0  0  0  0  0  0  0
   11.7220   -0.3080   22.2660 C   0  0  0  0  0  0  0  0  0  0  0  0
   10.4480   -0.6850   21.8200 C   0  0  0  0  0  0  0  0  0  0  0  0
    9.3030   -0.2240   22.4870 C   0  0  0  0  0  0  0  0  0  0  0  0
    8.0190   -0.4410   21.9530 N   0  0  0  0  0  0  0  0  0  0  0  0
    7.6640   -0.1500   20.6660 C   0  0  0  0  0  0  0  0  0  0  0  0
    8.4470    0.0620   19.7590 O   0  0  0  0  0  0  0  0  0  0  0  0
    6.3110   -0.0560   20.5120 N   0  0  0  0  0  0  0  0  0  0  0  0
    5.6720    0.5530   19.4100 C   0  0  0  0  0  0  0  0  0  0  0  0
    4.7090    1.5400   19.6480 C   0  0  0  0  0  0  0  0  0  0  0  0
    4.1990    2.2300   18.5430 C   0  0  0  0  0  0  0  0  0  0  0  0
    4.6780    1.9320   17.2590 C   0  0  0  0  0  0  0  0  0  0  0  0
    5.5740    0.9490   17.0160 N   0  0  0  0  0  0  0  0  0  0  0  0
    6.0650    0.2850   18.0820 C   0  0  0  0  0  0  0  0  0  0  0  0
    9.4280    0.5590   23.6420 C   0  0  0  0  0  0  0  0  0  0  0  0
   10.7000    0.9260   24.1010 C   0  0  0  0  0  0  0  0  0  0  0  0
  1  2  1  0
  2  3  1  0
  3  4  2  0
  3  5  1  0
  5  6  1  0
  6  7  1  0
  7 22  2  0
  7  8  1  0
  8  9  2  0
  9 10  1  0
 10 11  1  0
 10 21  2  0
 11 12  1  0
 12 13  2  0
 12 14  1  0
 14 15  1  0
 15 16  2  0
 15 20  1  0
 16 17  1  0
 17 18  2  0
 18 19  1  0
 19 20  2  0
 21 22  1  0
M  END
