WPC0715_minimised.pdb
     RDKit          3D

 21 22  0  0  0  0  0  0  0  0999 V2000
   13.8270    5.8860   21.7140 N   0  0  0  0  0  0  0  0  0  0  0  0
   13.5080    4.8190   22.0220 C   0  0  0  0  0  0  0  0  0  0  0  0
   13.2020    3.4820   22.4090 C   0  0  0  0  0  0  0  0  0  0  0  0
   14.1850    2.6180   22.7380 C   0  0  0  0  0  0  0  0  0  0  0  0
   13.9970    0.9530   23.2250 S   0  0  0  0  0  0  0  0  0  0  0  0
   12.2930    0.5160   23.0000 C   0  0  0  0  0  0  0  0  0  0  0  0
   11.9720   -0.4450   22.0310 C   0  0  0  0  0  0  0  0  0  0  0  0
   10.6300   -0.7600   21.7860 C   0  0  0  0  0  0  0  0  0  0  0  0
    9.6120   -0.1080   22.4980 C   0  0  0  0  0  0  0  0  0  0  0  0
    8.2690   -0.2660   22.1050 N   0  0  0  0  0  0  0  0  0  0  0  0
    7.8290   -0.0200   20.8330 C   0  0  0  0  0  0  0  0  0  0  0  0
    8.5680    0.1910   19.8910 O   0  0  0  0  0  0  0  0  0  0  0  0
    6.4670    0.0210   20.7240 N   0  0  0  0  0  0  0  0  0  0  0  0
    5.7770    0.5450   19.6050 C   0  0  0  0  0  0  0  0  0  0  0  0
    4.8010    1.5260   19.8150 C   0  0  0  0  0  0  0  0  0  0  0  0
    4.2520    2.1480   18.6870 C   0  0  0  0  0  0  0  0  0  0  0  0
    4.7040    1.7910   17.4090 C   0  0  0  0  0  0  0  0  0  0  0  0
    5.6030    0.8050   17.1940 N   0  0  0  0  0  0  0  0  0  0  0  0
    6.1360    0.2100   18.2810 C   0  0  0  0  0  0  0  0  0  0  0  0
    9.9360    0.8000   23.5160 C   0  0  0  0  0  0  0  0  0  0  0  0
   11.2800    1.1070   23.7740 C   0  0  0  0  0  0  0  0  0  0  0  0
  1  2  3  0
  2  3  1  0
  3  4  2  0
  4  5  1  0
  5  6  1  0
  6 21  2  0
  6  7  1  0
  7  8  2  0
  8  9  1  0
  9 10  1  0
  9 20  2  0
 10 11  1  0
 11 12  2  0
 11 13  1  0
 13 14  1  0
 14 15  2  0
 14 19  1  0
 15 16  1  0
 16 17  2  0
 17 18  1  0
 18 19  2  0
 20 21  1  0
M  END
