WPC0236_minimised.pdb
     RDKit          3D

 17 18  0  0  0  0  0  0  0  0999 V2000
    8.7250    0.2440   19.9210 O   0  0  0  0  0  0  0  0  0  0  0  0
    8.0800    0.2310   20.9490 C   0  0  0  0  0  0  0  0  0  0  0  0
    8.6520    0.1340   22.1870 N   0  0  0  0  0  0  0  0  0  0  0  0
   10.0460    0.1840   22.4150 C   0  0  0  0  0  0  0  0  0  0  0  0
   10.8950   -0.7900   21.8630 C   0  0  0  0  0  0  0  0  0  0  0  0
   12.2880   -0.6780   22.0040 C   0  0  0  0  0  0  0  0  0  0  0  0
   12.8360    0.4080   22.7060 C   0  0  0  0  0  0  0  0  0  0  0  0
   11.9880    1.3770   23.2650 C   0  0  0  0  0  0  0  0  0  0  0  0
   10.5950    1.2640   23.1230 C   0  0  0  0  0  0  0  0  0  0  0  0
    6.7180    0.3550   20.9390 N   0  0  0  0  0  0  0  0  0  0  0  0
    5.9590    0.7300   19.7980 C   0  0  0  0  0  0  0  0  0  0  0  0
    6.2120    0.1690   18.5250 C   0  0  0  0  0  0  0  0  0  0  0  0
    5.6320    0.6020   17.3860 N   0  0  0  0  0  0  0  0  0  0  0  0
    4.7570    1.6240   17.4960 C   0  0  0  0  0  0  0  0  0  0  0  0
    4.3790    2.1750   18.7220 C   0  0  0  0  0  0  0  0  0  0  0  0
    5.0120    1.7640   19.8960 C   0  0  0  0  0  0  0  0  0  0  0  0
    4.7160    2.6860   21.3890 S   0  0  0  0  0  0  0  0  0  0  0  0
  1  2  2  0
  2  3  1  0
  2 10  1  0
  3  4  1  0
  4  5  2  0
  4  9  1  0
  5  6  1  0
  6  7  2  0
  7  8  1  0
  8  9  2  0
 10 11  1  0
 11 12  2  0
 11 16  1  0
 12 13  1  0
 13 14  2  0
 14 15  1  0
 15 16  2  0
 16 17  1  0
M  END
