WPC0446_minimised.pdb
     RDKit          3D

 20 21  0  0  1  0  0  0  0  0999 V2000
   14.0970    2.3090   22.6340 N   0  0  0  0  0  0  0  0  0  0  0  0
   14.2160    0.8430   22.6950 C   0  0  0  0  0  0  0  0  0  0  0  0
   13.4030    0.1980   23.8490 C   0  0  2  0  0  0  0  0  0  0  0  0
   14.0130   -1.0390   24.3570 N   0  0  0  0  0  0  0  0  0  0  0  0
   11.9580   -0.0490   23.4510 C   0  0  0  0  0  0  0  0  0  0  0  0
   11.6470   -0.9250   22.3950 C   0  0  0  0  0  0  0  0  0  0  0  0
   10.3200   -1.0660   21.9650 C   0  0  0  0  0  0  0  0  0  0  0  0
    9.2980   -0.3370   22.5900 C   0  0  0  0  0  0  0  0  0  0  0  0
    7.9910   -0.3490   22.0680 N   0  0  0  0  0  0  0  0  0  0  0  0
    7.6750   -0.0380   20.7740 C   0  0  0  0  0  0  0  0  0  0  0  0
    8.4870    0.1140   19.8810 O   0  0  0  0  0  0  0  0  0  0  0  0
    6.3310    0.1270   20.5930 N   0  0  0  0  0  0  0  0  0  0  0  0
    5.7220    0.6970   19.4520 C   0  0  0  0  0  0  0  0  0  0  0  0
    4.7280    1.6650   19.6340 C   0  0  0  0  0  0  0  0  0  0  0  0
    4.2300    2.3070   18.4940 C   0  0  0  0  0  0  0  0  0  0  0  0
    4.7520    1.9850   17.2340 C   0  0  0  0  0  0  0  0  0  0  0  0
    5.6730    1.0130   17.0430 N   0  0  0  0  0  0  0  0  0  0  0  0
    6.1530    0.3960   18.1410 C   0  0  0  0  0  0  0  0  0  0  0  0
    9.5930    0.4910   23.6820 C   0  0  0  0  0  0  0  0  0  0  0  0
   10.9200    0.6370   24.1090 C   0  0  0  0  0  0  0  0  0  0  0  0
  1  2  1  0
  2  3  1  0
  3  4  1  6
  3  5  1  0
  5 20  2  0
  5  6  1  0
  6  7  2  0
  7  8  1  0
  8  9  1  0
  8 19  2  0
  9 10  1  0
 10 11  2  0
 10 12  1  0
 12 13  1  0
 13 14  2  0
 13 18  1  0
 14 15  1  0
 15 16  2  0
 16 17  1  0
 17 18  2  0
 19 20  1  0
M  END
