WPC0776_minimised.pdb
     RDKit          3D

 21 22  0  0  0  0  0  0  0  0999 V2000
   11.6970    3.8540   24.2950 N   0  0  0  0  0  0  0  0  0  0  0  0
   12.3020    3.5340   23.2410 C   0  0  0  0  0  0  0  0  0  0  0  0
   12.4140    4.4190   22.2420 N   0  0  0  0  0  0  0  0  0  0  0  0
   13.1680    2.5080   23.1370 O   0  0  0  0  0  0  0  0  0  0  0  0
   12.9560    1.2770   23.8440 C   0  0  0  0  0  0  0  0  0  0  0  0
   11.6620    0.6300   23.4090 C   0  0  0  0  0  0  0  0  0  0  0  0
   11.6240   -0.1680   22.2560 C   0  0  0  0  0  0  0  0  0  0  0  0
   10.3970   -0.6710   21.8060 C   0  0  0  0  0  0  0  0  0  0  0  0
    9.2120   -0.3540   22.4880 C   0  0  0  0  0  0  0  0  0  0  0  0
    7.9560   -0.6260   21.9150 N   0  0  0  0  0  0  0  0  0  0  0  0
    7.6130   -0.2600   20.6430 C   0  0  0  0  0  0  0  0  0  0  0  0
    8.4040    0.0330   19.7650 O   0  0  0  0  0  0  0  0  0  0  0  0
    6.2610   -0.1810   20.4730 N   0  0  0  0  0  0  0  0  0  0  0  0
    5.6370    0.4760   19.3880 C   0  0  0  0  0  0  0  0  0  0  0  0
    4.6840    1.4680   19.6480 C   0  0  0  0  0  0  0  0  0  0  0  0
    4.1960    2.2010   18.5580 C   0  0  0  0  0  0  0  0  0  0  0  0
    4.6850    1.9370   17.2710 C   0  0  0  0  0  0  0  0  0  0  0  0
    5.5770    0.9550   17.0090 N   0  0  0  0  0  0  0  0  0  0  0  0
    6.0460    0.2510   18.0580 C   0  0  0  0  0  0  0  0  0  0  0  0
    9.2610    0.3810   23.6800 C   0  0  0  0  0  0  0  0  0  0  0  0
   10.4880    0.8670   24.1470 C   0  0  0  0  0  0  0  0  0  0  0  0
  1  2  2  0
  2  3  1  0
  2  4  1  0
  4  5  1  0
  5  6  1  0
  6 21  2  0
  6  7  1  0
  7  8  2  0
  8  9  1  0
  9 10  1  0
  9 20  2  0
 10 11  1  0
 11 12  2  0
 11 13  1  0
 13 14  1  0
 14 15  2  0
 14 19  1  0
 15 16  1  0
 16 17  2  0
 17 18  1  0
 18 19  2  0
 20 21  1  0
M  END
