WPC0571_minimised.pdb
     RDKit          3D

 24 26  0  0  0  0  0  0  0  0999 V2000
    8.5310    0.1670   19.9310 O   0  0  0  0  0  0  0  0  0  0  0  0
    7.7860   -0.2050   20.8170 C   0  0  0  0  0  0  0  0  0  0  0  0
    8.2010   -0.6410   22.0490 N   0  0  0  0  0  0  0  0  0  0  0  0
    9.5190   -0.5080   22.5360 C   0  0  0  0  0  0  0  0  0  0  0  0
   10.6140   -0.7920   21.7080 C   0  0  0  0  0  0  0  0  0  0  0  0
   11.9070   -0.4070   22.0790 C   0  0  0  0  0  0  0  0  0  0  0  0
   12.1080    0.2310   23.3100 C   0  0  0  0  0  0  0  0  0  0  0  0
   13.4740    0.7940   23.6350 C   0  0  0  0  0  0  0  0  0  0  0  0
   13.8870    2.2810   22.6180 S   0  0  0  0  0  0  0  0  0  0  0  0
   12.9860    3.6070   23.2880 C   0  0  0  0  0  0  0  0  0  0  0  0
   13.4230    4.7840   23.5470 N   0  0  0  0  0  0  0  0  0  0  0  0
   12.5250    5.8090   24.1240 C   0  0  0  0  0  0  0  0  0  0  0  0
   11.0760    5.5830   23.6390 C   0  0  0  0  0  0  0  0  0  0  0  0
   10.6230    4.1500   23.9420 C   0  0  0  0  0  0  0  0  0  0  0  0
   11.6930    3.2260   23.5630 N   0  0  0  0  0  0  0  0  0  0  0  0
   11.0310    0.3910   24.2040 C   0  0  0  0  0  0  0  0  0  0  0  0
    9.7330    0.0390   23.8080 C   0  0  0  0  0  0  0  0  0  0  0  0
    6.4270   -0.1790   20.6780 N   0  0  0  0  0  0  0  0  0  0  0  0
    5.7570    0.4240   19.5870 C   0  0  0  0  0  0  0  0  0  0  0  0
    4.7980    1.4130   19.8350 C   0  0  0  0  0  0  0  0  0  0  0  0
    4.2670    2.0930   18.7320 C   0  0  0  0  0  0  0  0  0  0  0  0
    4.7150    1.7790   17.4400 C   0  0  0  0  0  0  0  0  0  0  0  0
    5.6060    0.7930   17.1890 N   0  0  0  0  0  0  0  0  0  0  0  0
    6.1260    0.1470   18.2520 C   0  0  0  0  0  0  0  0  0  0  0  0
  1  2  2  0
  2  3  1  0
  2 18  1  0
  3  4  1  0
  4  5  2  0
  4 17  1  0
  5  6  1  0
  6  7  2  0
  7  8  1  0
  7 16  1  0
  8  9  1  0
  9 10  1  0
 10 11  2  0
 10 15  1  0
 11 12  1  0
 12 13  1  0
 13 14  1  0
 14 15  1  0
 16 17  2  0
 18 19  1  0
 19 20  2  0
 19 24  1  0
 20 21  1  0
 21 22  2  0
 22 23  1  0
 23 24  2  0
M  END
