WPC0817_minimised.pdb
     RDKit          3D

 24 26  0  0  0  0  0  0  0  0999 V2000
   11.1190    5.2570   23.0320 N   0  0  0  0  0  0  0  0  0  0  0  0
   12.3090    4.6450   22.9610 C   0  0  0  0  0  0  0  0  0  0  0  0
   13.5280    5.2430   23.0900 N   0  0  0  0  0  0  0  0  0  0  0  0
   14.4870    4.3010   22.8930 N   0  0  0  0  0  0  0  0  0  0  0  0
   13.7580    3.2170   22.6710 C   0  0  0  0  0  0  0  0  0  0  0  0
   14.6050    1.7210   22.3280 S   0  0  0  0  0  0  0  0  0  0  0  0
   13.7890    0.4390   23.3630 C   0  0  0  0  0  0  0  0  0  0  0  0
   12.3360    0.1680   23.0310 C   0  0  0  0  0  0  0  0  0  0  0  0
   11.9990   -0.7140   21.9930 C   0  0  0  0  0  0  0  0  0  0  0  0
   10.6490   -0.9640   21.7060 C   0  0  0  0  0  0  0  0  0  0  0  0
    9.6360   -0.3200   22.4300 C   0  0  0  0  0  0  0  0  0  0  0  0
    8.2920   -0.4270   22.0230 N   0  0  0  0  0  0  0  0  0  0  0  0
    7.8500   -0.1270   20.7640 C   0  0  0  0  0  0  0  0  0  0  0  0
    8.5830    0.1000   19.8210 O   0  0  0  0  0  0  0  0  0  0  0  0
    6.4880   -0.0550   20.6700 N   0  0  0  0  0  0  0  0  0  0  0  0
    5.7940    0.5030   19.5710 C   0  0  0  0  0  0  0  0  0  0  0  0
    4.8220    1.4820   19.8110 C   0  0  0  0  0  0  0  0  0  0  0  0
    4.2630    2.1300   18.7030 C   0  0  0  0  0  0  0  0  0  0  0  0
    4.7020    1.7980   17.4130 C   0  0  0  0  0  0  0  0  0  0  0  0
    5.5980    0.8170   17.1680 N   0  0  0  0  0  0  0  0  0  0  0  0
    6.1410    0.1980   18.2370 C   0  0  0  0  0  0  0  0  0  0  0  0
    9.9680    0.5200   23.4980 C   0  0  0  0  0  0  0  0  0  0  0  0
   11.3150    0.7540   23.8030 C   0  0  0  0  0  0  0  0  0  0  0  0
   12.4030    3.3770   22.7510 N   0  0  0  0  0  0  0  0  0  0  0  0
  1  2  1  0
  2 24  2  0
  2  3  1  0
  3  4  1  0
  4  5  2  0
  5  6  1  0
  5 24  1  0
  6  7  1  0
  7  8  1  0
  8 23  1  0
  8  9  2  0
  9 10  1  0
 10 11  2  0
 11 12  1  0
 11 22  1  0
 12 13  1  0
 13 14  2  0
 13 15  1  0
 15 16  1  0
 16 17  2  0
 16 21  1  0
 17 18  1  0
 18 19  2  0
 19 20  1  0
 20 21  2  0
 22 23  2  0
M  END
