WPC0501_minimised.pdb
     RDKit          3D

 23 25  0  0  0  0  0  0  0  0999 V2000
    8.6290    0.1930   19.9390 O   0  0  0  0  0  0  0  0  0  0  0  0
    7.8900   -0.0500   20.8750 C   0  0  0  0  0  0  0  0  0  0  0  0
    8.3240   -0.3700   22.1330 N   0  0  0  0  0  0  0  0  0  0  0  0
    9.6700   -0.2810   22.5380 C   0  0  0  0  0  0  0  0  0  0  0  0
   10.6690   -0.9190   21.7890 C   0  0  0  0  0  0  0  0  0  0  0  0
   12.0210   -0.6420   22.0310 C   0  0  0  0  0  0  0  0  0  0  0  0
   12.3740    0.2590   23.0470 C   0  0  0  0  0  0  0  0  0  0  0  0
   13.8230    0.6600   23.2360 C   0  0  0  0  0  0  0  0  0  0  0  0
   14.2540    1.8110   22.3040 C   0  0  0  0  0  0  0  0  0  0  0  0
   13.5890    3.1030   22.5480 N   0  0  0  0  0  0  0  0  0  0  0  0
   14.2280    4.2560   22.9960 C   0  0  0  0  0  0  0  0  0  0  0  0
   13.2650    5.2220   23.1100 C   0  0  0  0  0  0  0  0  0  0  0  0
   12.0390    4.6800   22.6770 C   0  0  0  0  0  0  0  0  0  0  0  0
   12.2490    3.3850   22.2960 C   0  0  0  0  0  0  0  0  0  0  0  0
   11.3720    0.8230   23.8600 C   0  0  0  0  0  0  0  0  0  0  0  0
   10.0200    0.5620   23.6000 C   0  0  0  0  0  0  0  0  0  0  0  0
    6.5300    0.0110   20.7670 N   0  0  0  0  0  0  0  0  0  0  0  0
    5.8420    0.5420   19.6500 C   0  0  0  0  0  0  0  0  0  0  0  0
    4.8730    1.5300   19.8580 C   0  0  0  0  0  0  0  0  0  0  0  0
    4.3170    2.1420   18.7280 C   0  0  0  0  0  0  0  0  0  0  0  0
    4.7530    1.7640   17.4500 C   0  0  0  0  0  0  0  0  0  0  0  0
    5.6480    0.7730   17.2380 N   0  0  0  0  0  0  0  0  0  0  0  0
    6.1900    0.1910   18.3270 C   0  0  0  0  0  0  0  0  0  0  0  0
  1  2  2  0
  2  3  1  0
  2 17  1  0
  3  4  1  0
  4  5  2  0
  4 16  1  0
  5  6  1  0
  6  7  2  0
  7  8  1  0
  7 15  1  0
  8  9  1  0
  9 10  1  0
 10 11  1  0
 10 14  1  0
 11 12  2  0
 12 13  1  0
 13 14  2  0
 15 16  2  0
 17 18  1  0
 18 19  2  0
 18 23  1  0
 19 20  1  0
 20 21  2  0
 21 22  1  0
 22 23  2  0
M  END
