WPC0416_minimised.pdb
     RDKit          3D

 24 26  0  0  0  0  0  0  0  0999 V2000
    8.5030    0.1270   19.8900 O   0  0  0  0  0  0  0  0  0  0  0  0
    7.7490   -0.1940   20.7890 C   0  0  0  0  0  0  0  0  0  0  0  0
    8.1490   -0.5380   22.0530 N   0  0  0  0  0  0  0  0  0  0  0  0
    9.4410   -0.2910   22.5560 C   0  0  0  0  0  0  0  0  0  0  0  0
   10.5750   -0.6490   21.8100 C   0  0  0  0  0  0  0  0  0  0  0  0
   11.8390   -0.1740   22.1790 C   0  0  0  0  0  0  0  0  0  0  0  0
   11.9690    0.6490   23.3070 C   0  0  0  0  0  0  0  0  0  0  0  0
   13.3040    1.2760   23.6310 C   0  0  0  0  0  0  0  0  0  0  0  0
   13.5520    2.9340   22.8450 S   0  0  0  0  0  0  0  0  0  0  0  0
   12.2660    4.0320   23.4080 C   0  0  0  0  0  0  0  0  0  0  0  0
   10.9280    3.8660   23.0370 C   0  0  0  0  0  0  0  0  0  0  0  0
    9.9790    4.8200   23.4330 C   0  0  0  0  0  0  0  0  0  0  0  0
   10.2970    5.8940   24.1850 N   0  0  0  0  0  0  0  0  0  0  0  0
   11.5860    6.0620   24.5280 C   0  0  0  0  0  0  0  0  0  0  0  0
   12.5960    5.1700   24.1500 C   0  0  0  0  0  0  0  0  0  0  0  0
   10.8530    0.9020   24.1260 C   0  0  0  0  0  0  0  0  0  0  0  0
    9.5850    0.4430   23.7420 C   0  0  0  0  0  0  0  0  0  0  0  0
    6.3900   -0.1770   20.6470 N   0  0  0  0  0  0  0  0  0  0  0  0
    5.7210    0.4170   19.5520 C   0  0  0  0  0  0  0  0  0  0  0  0
    4.7600    1.4060   19.7970 C   0  0  0  0  0  0  0  0  0  0  0  0
    4.2290    2.0840   18.6930 C   0  0  0  0  0  0  0  0  0  0  0  0
    4.6770    1.7660   17.4030 C   0  0  0  0  0  0  0  0  0  0  0  0
    5.5710    0.7820   17.1540 N   0  0  0  0  0  0  0  0  0  0  0  0
    6.0920    0.1390   18.2180 C   0  0  0  0  0  0  0  0  0  0  0  0
  1  2  2  0
  2  3  1  0
  2 18  1  0
  3  4  1  0
  4  5  2  0
  4 17  1  0
  5  6  1  0
  6  7  2  0
  7  8  1  0
  7 16  1  0
  8  9  1  0
  9 10  1  0
 10 11  2  0
 10 15  1  0
 11 12  1  0
 12 13  2  0
 13 14  1  0
 14 15  2  0
 16 17  2  0
 18 19  1  0
 19 20  2  0
 19 24  1  0
 20 21  1  0
 21 22  2  0
 22 23  1  0
 23 24  2  0
M  END
