WPC0947_minimised.pdb
     RDKit          3D

 23 24  0  0  0  0  0  0  0  0999 V2000
    9.8340    3.9920   23.5490 C   0  0  0  0  0  0  0  0  0  0  0  0
   10.9660    4.6970   22.9310 N   0  0  0  0  0  0  0  0  0  0  0  0
   12.2450    4.2250   22.8020 C   0  0  0  0  0  0  0  0  0  0  0  0
   13.3970    5.0670   21.9590 S   0  0  0  0  0  0  0  0  0  0  0  0
   12.4320    2.9720   23.3180 N   0  0  0  0  0  0  0  0  0  0  0  0
   13.5670    2.1070   22.9820 C   0  0  0  0  0  0  0  0  0  0  0  0
   13.4040    0.6940   23.5910 C   0  0  0  0  0  0  0  0  0  0  0  0
   12.0120    0.1310   23.3510 C   0  0  0  0  0  0  0  0  0  0  0  0
   11.7670   -0.6740   22.2280 C   0  0  0  0  0  0  0  0  0  0  0  0
   10.4500   -0.9950   21.8810 C   0  0  0  0  0  0  0  0  0  0  0  0
    9.3780   -0.5060   22.6410 C   0  0  0  0  0  0  0  0  0  0  0  0
    8.0650   -0.5710   22.1350 N   0  0  0  0  0  0  0  0  0  0  0  0
    7.7110   -0.1620   20.8760 C   0  0  0  0  0  0  0  0  0  0  0  0
    8.4970    0.1190   19.9910 O   0  0  0  0  0  0  0  0  0  0  0  0
    6.3590   -0.0560   20.7160 N   0  0  0  0  0  0  0  0  0  0  0  0
    5.7230    0.5280   19.5960 C   0  0  0  0  0  0  0  0  0  0  0  0
    4.7620    1.5250   19.8020 C   0  0  0  0  0  0  0  0  0  0  0  0
    4.2370    2.1630   18.6720 C   0  0  0  0  0  0  0  0  0  0  0  0
    4.6890    1.7990   17.3960 C   0  0  0  0  0  0  0  0  0  0  0  0
    5.5820    0.8060   17.1860 N   0  0  0  0  0  0  0  0  0  0  0  0
    6.1010    0.2030   18.2750 C   0  0  0  0  0  0  0  0  0  0  0  0
    9.6260    0.1770   23.8380 C   0  0  0  0  0  0  0  0  0  0  0  0
   10.9450    0.4820   24.2020 C   0  0  0  0  0  0  0  0  0  0  0  0
  1  2  1  0
  2  3  1  0
  3  4  2  0
  3  5  1  0
  5  6  1  0
  6  7  1  0
  7  8  1  0
  8 23  2  0
  8  9  1  0
  9 10  2  0
 10 11  1  0
 11 12  1  0
 11 22  2  0
 12 13  1  0
 13 14  2  0
 13 15  1  0
 15 16  1  0
 16 17  2  0
 16 21  1  0
 17 18  1  0
 18 19  2  0
 19 20  1  0
 20 21  2  0
 22 23  1  0
M  END
