WPC0899_minimised.pdb
     RDKit          3D

 21 22  0  0  1  0  0  0  0  0999 V2000
   12.6920    3.5620   22.7440 C   0  0  0  0  0  0  0  0  0  0  0  0
   12.4930    2.3530   23.5580 N   0  0  0  0  0  0  0  0  0  0  0  0
   13.4350    1.2600   23.2610 C   0  0  0  0  0  0  0  0  0  0  0  0
   13.0330   -0.0570   23.9720 C   0  0  2  0  0  0  0  0  0  0  0  0
   14.0560   -1.1750   23.6840 C   0  0  0  0  0  0  0  0  0  0  0  0
   11.6110   -0.4320   23.5790 C   0  0  0  0  0  0  0  0  0  0  0  0
   11.3520   -1.0970   22.3670 C   0  0  0  0  0  0  0  0  0  0  0  0
   10.0370   -1.2270   21.9090 C   0  0  0  0  0  0  0  0  0  0  0  0
    8.9780   -0.6710   22.6390 C   0  0  0  0  0  0  0  0  0  0  0  0
    7.6940   -0.5800   22.0660 N   0  0  0  0  0  0  0  0  0  0  0  0
    7.4400   -0.1360   20.7950 C   0  0  0  0  0  0  0  0  0  0  0  0
    8.2840    0.0740   19.9440 O   0  0  0  0  0  0  0  0  0  0  0  0
    6.1080    0.0780   20.5850 N   0  0  0  0  0  0  0  0  0  0  0  0
    5.5440    0.6870   19.4420 C   0  0  0  0  0  0  0  0  0  0  0  0
    4.5740    1.6810   19.6140 C   0  0  0  0  0  0  0  0  0  0  0  0
    4.1130    2.3420   18.4700 C   0  0  0  0  0  0  0  0  0  0  0  0
    4.6380    2.0050   17.2150 C   0  0  0  0  0  0  0  0  0  0  0  0
    5.5380    1.0110   17.0340 N   0  0  0  0  0  0  0  0  0  0  0  0
    5.9900    0.3830   18.1370 C   0  0  0  0  0  0  0  0  0  0  0  0
    9.2190   -0.0890   23.8910 C   0  0  0  0  0  0  0  0  0  0  0  0
   10.5350    0.0240   24.3650 C   0  0  0  0  0  0  0  0  0  0  0  0
  1  2  1  0
  2  3  1  0
  3  4  1  0
  4  5  1  6
  4  6  1  0
  6 21  2  0
  6  7  1  0
  7  8  2  0
  8  9  1  0
  9 10  1  0
  9 20  2  0
 10 11  1  0
 11 12  2  0
 11 13  1  0
 13 14  1  0
 14 15  2  0
 14 19  1  0
 15 16  1  0
 16 17  2  0
 17 18  1  0
 18 19  2  0
 20 21  1  0
M  END
