WPC0767_minimised.pdb
     RDKit          3D

 24 26  0  0  0  0  0  0  0  0999 V2000
    8.5940    0.2960   20.0450 O   0  0  0  0  0  0  0  0  0  0  0  0
    7.8710   -0.1400   20.9210 C   0  0  0  0  0  0  0  0  0  0  0  0
    8.3090   -0.6160   22.1310 N   0  0  0  0  0  0  0  0  0  0  0  0
    9.6310   -0.4870   22.6110 C   0  0  0  0  0  0  0  0  0  0  0  0
   10.7230   -0.7040   21.7560 C   0  0  0  0  0  0  0  0  0  0  0  0
   12.0120   -0.3140   22.1360 C   0  0  0  0  0  0  0  0  0  0  0  0
   12.2150    0.2650   23.3950 C   0  0  0  0  0  0  0  0  0  0  0  0
   13.5610    0.8710   23.7200 C   0  0  0  0  0  0  0  0  0  0  0  0
   13.7490    2.5680   23.0020 S   0  0  0  0  0  0  0  0  0  0  0  0
   12.2780    3.4700   23.6560 C   0  0  0  0  0  0  0  0  0  0  0  0
   11.0880    3.3400   22.6840 C   0  0  0  0  0  0  0  0  0  0  0  0
    9.8520    4.0890   23.2260 C   0  0  0  0  0  0  0  0  0  0  0  0
   10.1660    5.5810   23.4610 C   0  0  0  0  0  0  0  0  0  0  0  0
   11.3910    5.7620   24.3840 C   0  0  0  0  0  0  0  0  0  0  0  0
   12.6160    4.9650   23.8720 C   0  0  0  0  0  0  0  0  0  0  0  0
   11.1470    0.3530   24.3100 C   0  0  0  0  0  0  0  0  0  0  0  0
    9.8510   -0.0110   23.9110 C   0  0  0  0  0  0  0  0  0  0  0  0
    6.5120   -0.1680   20.7810 N   0  0  0  0  0  0  0  0  0  0  0  0
    5.8240    0.4020   19.6840 C   0  0  0  0  0  0  0  0  0  0  0  0
    4.8600    1.3910   19.9140 C   0  0  0  0  0  0  0  0  0  0  0  0
    4.3130    2.0380   18.7980 C   0  0  0  0  0  0  0  0  0  0  0  0
    4.7460    1.6850   17.5110 C   0  0  0  0  0  0  0  0  0  0  0  0
    5.6430    0.7010   17.2770 N   0  0  0  0  0  0  0  0  0  0  0  0
    6.1830    0.0940   18.3530 C   0  0  0  0  0  0  0  0  0  0  0  0
  1  2  2  0
  2  3  1  0
  2 18  1  0
  3  4  1  0
  4  5  2  0
  4 17  1  0
  5  6  1  0
  6  7  2  0
  7  8  1  0
  7 16  1  0
  8  9  1  0
  9 10  1  0
 10 11  1  0
 10 15  1  0
 11 12  1  0
 12 13  1  0
 13 14  1  0
 14 15  1  0
 16 17  2  0
 18 19  1  0
 19 20  2  0
 19 24  1  0
 20 21  1  0
 21 22  2  0
 22 23  1  0
 23 24  2  0
M  END
