WPC0878_minimised.pdb
     RDKit          3D

 22 23  0  0  0  0  0  0  0  0999 V2000
   13.9190    5.0710   22.5100 N   0  0  0  0  0  0  0  0  0  0  0  0
   12.9280    4.7240   23.3760 C   0  0  0  0  0  0  0  0  0  0  0  0
   12.4720    5.5440   24.1420 O   0  0  0  0  0  0  0  0  0  0  0  0
   12.7590    3.3780   23.5320 O   0  0  0  0  0  0  0  0  0  0  0  0
   13.4500    2.3770   22.7560 C   0  0  0  0  0  0  0  0  0  0  0  0
   13.2560    0.9910   23.4020 C   0  0  0  0  0  0  0  0  0  0  0  0
   11.8600    0.4570   23.1610 C   0  0  0  0  0  0  0  0  0  0  0  0
   11.6390   -0.5200   22.1760 C   0  0  0  0  0  0  0  0  0  0  0  0
   10.3290   -0.8980   21.8550 C   0  0  0  0  0  0  0  0  0  0  0  0
    9.2430   -0.2890   22.5000 C   0  0  0  0  0  0  0  0  0  0  0  0
    7.9390   -0.4630   22.0020 N   0  0  0  0  0  0  0  0  0  0  0  0
    7.5870   -0.1760   20.7120 C   0  0  0  0  0  0  0  0  0  0  0  0
    8.3790    0.0030   19.8040 O   0  0  0  0  0  0  0  0  0  0  0  0
    6.2360   -0.0480   20.5540 N   0  0  0  0  0  0  0  0  0  0  0  0
    5.6140    0.5620   19.4410 C   0  0  0  0  0  0  0  0  0  0  0  0
    4.6500    1.5510   19.6650 C   0  0  0  0  0  0  0  0  0  0  0  0
    4.1560    2.2410   18.5520 C   0  0  0  0  0  0  0  0  0  0  0  0
    4.6500    1.9390   17.2750 C   0  0  0  0  0  0  0  0  0  0  0  0
    5.5440    0.9510   17.0450 N   0  0  0  0  0  0  0  0  0  0  0  0
    6.0210    0.2900   18.1170 C   0  0  0  0  0  0  0  0  0  0  0  0
    9.4630    0.6250   23.5390 C   0  0  0  0  0  0  0  0  0  0  0  0
   10.7730    0.9930   23.8750 C   0  0  0  0  0  0  0  0  0  0  0  0
  1  2  1  0
  2  3  2  0
  2  4  1  0
  4  5  1  0
  5  6  1  0
  6  7  1  0
  7 22  2  0
  7  8  1  0
  8  9  2  0
  9 10  1  0
 10 11  1  0
 10 21  2  0
 11 12  1  0
 12 13  2  0
 12 14  1  0
 14 15  1  0
 15 16  2  0
 15 20  1  0
 16 17  1  0
 17 18  2  0
 18 19  1  0
 19 20  2  0
 21 22  1  0
M  END
