WPC0862_minimised.pdb
     RDKit          3D

 24 26  0  0  0  0  0  0  0  0999 V2000
    8.5550    0.0850   19.8700 O   0  0  0  0  0  0  0  0  0  0  0  0
    7.8140   -0.2140   20.7870 C   0  0  0  0  0  0  0  0  0  0  0  0
    8.2350   -0.5710   22.0420 N   0  0  0  0  0  0  0  0  0  0  0  0
    9.5460   -0.3580   22.5210 C   0  0  0  0  0  0  0  0  0  0  0  0
   10.6540   -0.6900   21.7250 C   0  0  0  0  0  0  0  0  0  0  0  0
   11.9290   -0.2190   22.0610 C   0  0  0  0  0  0  0  0  0  0  0  0
   12.0940    0.5520   23.2170 C   0  0  0  0  0  0  0  0  0  0  0  0
   13.6580    1.3200   23.5110 S   0  0  0  0  0  0  0  0  0  0  0  0
   13.5320    2.9330   22.6180 C   0  0  0  0  0  0  0  0  0  0  0  0
   12.4660    3.8800   23.1560 C   0  0  0  0  0  0  0  0  0  0  0  0
   12.8420    5.0380   23.8500 C   0  0  0  0  0  0  0  0  0  0  0  0
   11.8380    5.9070   24.3000 C   0  0  0  0  0  0  0  0  0  0  0  0
   10.4990    5.5880   24.0290 C   0  0  0  0  0  0  0  0  0  0  0  0
   10.1290    4.4900   23.3590 N   0  0  0  0  0  0  0  0  0  0  0  0
   11.0950    3.6680   22.9020 C   0  0  0  0  0  0  0  0  0  0  0  0
   11.0140    0.7770   24.0850 C   0  0  0  0  0  0  0  0  0  0  0  0
    9.7320    0.3320   23.7280 C   0  0  0  0  0  0  0  0  0  0  0  0
    6.4530   -0.1670   20.6650 N   0  0  0  0  0  0  0  0  0  0  0  0
    5.7810    0.4340   19.5730 C   0  0  0  0  0  0  0  0  0  0  0  0
    4.8360    1.4370   19.8240 C   0  0  0  0  0  0  0  0  0  0  0  0
    4.3090    2.1230   18.7220 C   0  0  0  0  0  0  0  0  0  0  0  0
    4.7490    1.8030   17.4300 C   0  0  0  0  0  0  0  0  0  0  0  0
    5.6230    0.8030   17.1760 N   0  0  0  0  0  0  0  0  0  0  0  0
    6.1370    0.1490   18.2370 C   0  0  0  0  0  0  0  0  0  0  0  0
  1  2  2  0
  2  3  1  0
  2 18  1  0
  3  4  1  0
  4  5  2  0
  4 17  1  0
  5  6  1  0
  6  7  2  0
  7  8  1  0
  7 16  1  0
  8  9  1  0
  9 10  1  0
 10 11  2  0
 10 15  1  0
 11 12  1  0
 12 13  2  0
 13 14  1  0
 14 15  2  0
 16 17  2  0
 18 19  1  0
 19 20  2  0
 19 24  1  0
 20 21  1  0
 21 22  2  0
 22 23  1  0
 23 24  2  0
M  END
