WPC0656_minimised.pdb
     RDKit          3D

 23 25  0  0  0  0  0  0  0  0999 V2000
    8.7480    0.0620   19.8710 O   0  0  0  0  0  0  0  0  0  0  0  0
    8.0140   -0.2010   20.8030 C   0  0  0  0  0  0  0  0  0  0  0  0
    8.4460   -0.4970   22.0680 N   0  0  0  0  0  0  0  0  0  0  0  0
    9.7610   -0.2670   22.5180 C   0  0  0  0  0  0  0  0  0  0  0  0
   10.8560   -0.8010   21.8220 C   0  0  0  0  0  0  0  0  0  0  0  0
   12.1610   -0.4000   22.1450 C   0  0  0  0  0  0  0  0  0  0  0  0
   12.3690    0.5410   23.1670 C   0  0  0  0  0  0  0  0  0  0  0  0
   13.7550    1.0860   23.4430 C   0  0  0  0  0  0  0  0  0  0  0  0
   14.1840    2.1110   22.4740 N   0  0  0  0  0  0  0  0  0  0  0  0
   13.2920    3.2710   22.2900 C   0  0  0  0  0  0  0  0  0  0  0  0
   13.8000    4.2430   21.2030 C   0  0  0  0  0  0  0  0  0  0  0  0
   13.8700    5.6380   21.8440 C   0  0  0  0  0  0  0  0  0  0  0  0
   12.9060    5.5460   23.0350 C   0  0  0  0  0  0  0  0  0  0  0  0
   13.1850    4.1410   23.5470 C   0  0  0  0  0  0  0  0  0  0  0  0
   11.2740    1.0040   23.9210 C   0  0  0  0  0  0  0  0  0  0  0  0
    9.9720    0.6040   23.5940 C   0  0  0  0  0  0  0  0  0  0  0  0
    6.6510   -0.1660   20.6990 N   0  0  0  0  0  0  0  0  0  0  0  0
    5.9470    0.4010   19.6100 C   0  0  0  0  0  0  0  0  0  0  0  0
    4.9830    1.3830   19.8670 C   0  0  0  0  0  0  0  0  0  0  0  0
    4.4010    2.0280   18.7690 C   0  0  0  0  0  0  0  0  0  0  0  0
    4.8060    1.6860   17.4710 C   0  0  0  0  0  0  0  0  0  0  0  0
    5.6970    0.7020   17.2120 N   0  0  0  0  0  0  0  0  0  0  0  0
    6.2690    0.0930   18.2710 C   0  0  0  0  0  0  0  0  0  0  0  0
  1  2  2  0
  2  3  1  0
  2 17  1  0
  3  4  1  0
  4  5  2  0
  4 16  1  0
  5  6  1  0
  6  7  2  0
  7  8  1  0
  7 15  1  0
  8  9  1  0
  9 10  1  0
 10 11  1  0
 10 14  1  0
 11 12  1  0
 12 13  1  0
 13 14  1  0
 15 16  2  0
 17 18  1  0
 18 19  2  0
 18 23  1  0
 19 20  1  0
 20 21  2  0
 21 22  1  0
 22 23  2  0
M  END
