WPC0989_minimised.pdb
     RDKit          3D

 24 26  0  0  0  0  0  0  0  0999 V2000
    8.4450    0.1230   19.9500 O   0  0  0  0  0  0  0  0  0  0  0  0
    7.6400   -0.1030   20.8340 C   0  0  0  0  0  0  0  0  0  0  0  0
    7.9690   -0.4880   22.1060 N   0  0  0  0  0  0  0  0  0  0  0  0
    9.2850   -0.4600   22.6050 C   0  0  0  0  0  0  0  0  0  0  0  0
   10.3160   -1.0750   21.8820 C   0  0  0  0  0  0  0  0  0  0  0  0
   11.6520   -0.8140   22.2030 C   0  0  0  0  0  0  0  0  0  0  0  0
   11.9560    0.0540   23.2650 C   0  0  0  0  0  0  0  0  0  0  0  0
   13.3900    0.4990   23.4810 C   0  0  0  0  0  0  0  0  0  0  0  0
   13.6420    1.8780   23.0550 N   0  0  0  0  0  0  0  0  0  0  0  0
   12.7510    2.9090   22.8540 C   0  0  0  0  0  0  0  0  0  0  0  0
   13.5610    3.9870   22.6600 C   0  0  0  0  0  0  0  0  0  0  0  0
   13.0550    5.3840   22.4520 C   0  0  0  0  0  0  0  0  0  0  0  0
   14.0900    6.3480   22.2100 O   0  0  0  0  0  0  0  0  0  0  0  0
   14.8690    3.6060   22.7140 N   0  0  0  0  0  0  0  0  0  0  0  0
   14.9160    2.3180   22.9040 N   0  0  0  0  0  0  0  0  0  0  0  0
   10.9200    0.5590   24.0750 C   0  0  0  0  0  0  0  0  0  0  0  0
    9.5820    0.3130   23.7340 C   0  0  0  0  0  0  0  0  0  0  0  0
    6.2950    0.0470   20.6600 N   0  0  0  0  0  0  0  0  0  0  0  0
    5.6810    0.6310   19.5290 C   0  0  0  0  0  0  0  0  0  0  0  0
    4.7130    1.6240   19.7190 C   0  0  0  0  0  0  0  0  0  0  0  0
    4.2090    2.2660   18.5820 C   0  0  0  0  0  0  0  0  0  0  0  0
    4.6920    1.9130   17.3140 C   0  0  0  0  0  0  0  0  0  0  0  0
    5.5910    0.9210   17.1180 N   0  0  0  0  0  0  0  0  0  0  0  0
    6.0840    0.3110   18.2140 C   0  0  0  0  0  0  0  0  0  0  0  0
  1  2  2  0
  2  3  1  0
  2 18  1  0
  3  4  1  0
  4  5  2  0
  4 17  1  0
  5  6  1  0
  6  7  2  0
  7  8  1  0
  7 16  1  0
  8  9  1  0
  9 10  1  0
  9 15  1  0
 10 11  2  0
 11 12  1  0
 11 14  1  0
 12 13  1  0
 14 15  2  0
 16 17  2  0
 18 19  1  0
 19 20  2  0
 19 24  1  0
 20 21  1  0
 21 22  2  0
 22 23  1  0
 23 24  2  0
M  END
