WPC0484_minimised.pdb
     RDKit          3D

 24 25  0  0  0  0  0  0  0  0999 V2000
   11.7560    5.4550   23.5950 N   0  0  0  0  0  0  0  0  0  0  0  0
   11.5500    4.2980   23.1780 C   0  0  0  0  0  0  0  0  0  0  0  0
   10.3210    3.8610   22.9420 N   0  0  0  0  0  0  0  0  0  0  0  0
   12.4510    3.3320   22.9810 N   0  0  0  0  0  0  0  0  0  0  0  0
   13.8030    3.4300   22.8670 C   0  0  0  0  0  0  0  0  0  0  0  0
   14.4150    4.5050   23.1320 N   0  0  0  0  0  0  0  0  0  0  0  0
   14.4650    1.9200   22.3360 S   0  0  0  0  0  0  0  0  0  0  0  0
   13.7850    0.6330   23.4680 C   0  0  0  0  0  0  0  0  0  0  0  0
   12.3360    0.3030   23.1860 C   0  0  0  0  0  0  0  0  0  0  0  0
   12.0060   -0.4120   22.0270 C   0  0  0  0  0  0  0  0  0  0  0  0
   10.6620   -0.6590   21.7280 C   0  0  0  0  0  0  0  0  0  0  0  0
    9.6450   -0.1740   22.5630 C   0  0  0  0  0  0  0  0  0  0  0  0
    8.3000   -0.2440   22.1460 N   0  0  0  0  0  0  0  0  0  0  0  0
    7.8660    0.1420   20.9060 C   0  0  0  0  0  0  0  0  0  0  0  0
    8.6070    0.4970   20.0090 O   0  0  0  0  0  0  0  0  0  0  0  0
    6.5080    0.1240   20.7680 N   0  0  0  0  0  0  0  0  0  0  0  0
    5.8210    0.6320   19.6420 C   0  0  0  0  0  0  0  0  0  0  0  0
    4.8290    1.6020   19.8290 C   0  0  0  0  0  0  0  0  0  0  0  0
    4.2860    2.2000   18.6860 C   0  0  0  0  0  0  0  0  0  0  0  0
    4.7550    1.8290   17.4180 C   0  0  0  0  0  0  0  0  0  0  0  0
    5.6710    0.8530   17.2260 N   0  0  0  0  0  0  0  0  0  0  0  0
    6.2020    0.2850   18.3270 C   0  0  0  0  0  0  0  0  0  0  0  0
    9.9730    0.4810   23.7570 C   0  0  0  0  0  0  0  0  0  0  0  0
   11.3190    0.7090   24.0720 C   0  0  0  0  0  0  0  0  0  0  0  0
  1  2  2  0
  2  3  1  0
  2  4  1  0
  4  5  1  0
  5  6  2  0
  5  7  1  0
  7  8  1  0
  8  9  1  0
  9 24  2  0
  9 10  1  0
 10 11  2  0
 11 12  1  0
 12 13  1  0
 12 23  2  0
 13 14  1  0
 14 15  2  0
 14 16  1  0
 16 17  1  0
 17 18  2  0
 17 22  1  0
 18 19  1  0
 19 20  2  0
 20 21  1  0
 21 22  2  0
 23 24  1  0
M  END
