WPC0978_minimised.pdb
     RDKit          3D

 23 25  0  0  1  0  0  0  0  0999 V2000
   12.5400    4.8330   21.8860 C   0  0  0  0  0  0  0  0  0  0  0  0
   13.3690    4.1530   22.9750 C   0  0  2  0  0  0  0  0  0  0  0  0
   14.7220    3.6300   22.4470 C   0  0  0  0  0  0  0  0  0  0  0  0
   14.6930    2.1740   22.7100 N   0  0  0  0  0  0  0  0  0  0  0  0
   13.5760    1.8660   23.2390 C   0  0  0  0  0  0  0  0  0  0  0  0
   13.2020    0.4930   23.7360 C   0  0  0  0  0  0  0  0  0  0  0  0
   11.7580    0.1120   23.4560 C   0  0  0  0  0  0  0  0  0  0  0  0
   11.4650   -0.8180   22.4450 C   0  0  0  0  0  0  0  0  0  0  0  0
   10.1360   -1.0350   22.0580 C   0  0  0  0  0  0  0  0  0  0  0  0
    9.0990   -0.3400   22.6970 C   0  0  0  0  0  0  0  0  0  0  0  0
    7.7930   -0.3850   22.1750 N   0  0  0  0  0  0  0  0  0  0  0  0
    7.4770   -0.0240   20.8940 C   0  0  0  0  0  0  0  0  0  0  0  0
    8.2920    0.2040   20.0200 O   0  0  0  0  0  0  0  0  0  0  0  0
    6.1320    0.0960   20.6960 N   0  0  0  0  0  0  0  0  0  0  0  0
    5.5310    0.6660   19.5500 C   0  0  0  0  0  0  0  0  0  0  0  0
    4.5660    1.6660   19.7190 C   0  0  0  0  0  0  0  0  0  0  0  0
    4.0810    2.3000   18.5690 C   0  0  0  0  0  0  0  0  0  0  0  0
    4.5740    1.9250   17.3110 C   0  0  0  0  0  0  0  0  0  0  0  0
    5.4700    0.9270   17.1350 N   0  0  0  0  0  0  0  0  0  0  0  0
    5.9490    0.3290   18.2440 C   0  0  0  0  0  0  0  0  0  0  0  0
    9.3790    0.5020   23.7820 C   0  0  0  0  0  0  0  0  0  0  0  0
   10.7090    0.7240   24.1670 C   0  0  0  0  0  0  0  0  0  0  0  0
   12.7330    2.9300   23.4320 N   0  0  0  0  0  0  0  0  0  0  0  0
  2  1  1  6
  2 23  1  0
  2  3  1  0
  3  4  1  0
  4  5  2  0
  5  6  1  0
  5 23  1  0
  6  7  1  0
  7 22  1  0
  7  8  2  0
  8  9  1  0
  9 10  2  0
 10 11  1  0
 10 21  1  0
 11 12  1  0
 12 13  2  0
 12 14  1  0
 14 15  1  0
 15 16  2  0
 15 20  1  0
 16 17  1  0
 17 18  2  0
 18 19  1  0
 19 20  2  0
 21 22  2  0
M  END
