WPC0172_minimised.pdb
     RDKit          3D

 20 21  0  0  0  0  0  0  0  0999 V2000
    7.3370    2.9340   22.4950 C   0  0  0  0  0  0  0  0  0  0  0  0
    5.8680    2.8090   22.4500 N   0  0  0  0  0  0  0  0  0  0  0  0
    5.2390    3.9670   21.7890 C   0  0  0  0  0  0  0  0  0  0  0  0
    5.3720    1.5020   21.9740 C   0  0  0  0  0  0  0  0  0  0  0  0
    5.6780    1.1320   20.5180 C   0  0  0  0  0  0  0  0  0  0  0  0
    4.9500    1.7080   19.4570 C   0  0  0  0  0  0  0  0  0  0  0  0
    5.2250    1.3430   18.1290 C   0  0  0  0  0  0  0  0  0  0  0  0
    6.1590    0.4280   17.7960 N   0  0  0  0  0  0  0  0  0  0  0  0
    6.8840   -0.0970   18.8040 C   0  0  0  0  0  0  0  0  0  0  0  0
    6.6690    0.1900   20.1690 C   0  0  0  0  0  0  0  0  0  0  0  0
    7.5420   -0.3730   21.1410 N   0  0  0  0  0  0  0  0  0  0  0  0
    8.8200    0.0830   21.3250 C   0  0  0  0  0  0  0  0  0  0  0  0
    9.2450    1.0360   20.7070 O   0  0  0  0  0  0  0  0  0  0  0  0
    9.5850   -0.6200   22.2150 N   0  0  0  0  0  0  0  0  0  0  0  0
   10.9520   -0.3430   22.4370 C   0  0  0  0  0  0  0  0  0  0  0  0
   11.9240   -1.2690   22.0340 C   0  0  0  0  0  0  0  0  0  0  0  0
   13.2880   -0.9410   22.1070 C   0  0  0  0  0  0  0  0  0  0  0  0
   13.6790    0.3110   22.6130 C   0  0  0  0  0  0  0  0  0  0  0  0
   12.7070    1.2300   23.0360 C   0  0  0  0  0  0  0  0  0  0  0  0
   11.3460    0.9060   22.9430 C   0  0  0  0  0  0  0  0  0  0  0  0
  1  2  1  0
  2  3  1  0
  2  4  1  0
  4  5  1  0
  5  6  2  0
  5 10  1  0
  6  7  1  0
  7  8  2  0
  8  9  1  0
  9 10  2  0
 10 11  1  0
 11 12  1  0
 12 13  2  0
 12 14  1  0
 14 15  1  0
 15 16  2  0
 15 20  1  0
 16 17  1  0
 17 18  2  0
 18 19  1  0
 19 20  2  0
M  END
