WPC0232_minimised.pdb
     RDKit          3D

 23 25  0  0  0  0  0  0  0  0999 V2000
    9.1110    0.7280   20.5150 O   0  0  0  0  0  0  0  0  0  0  0  0
    8.8180   -0.2870   21.1110 C   0  0  0  0  0  0  0  0  0  0  0  0
    9.6540   -0.8840   22.0160 N   0  0  0  0  0  0  0  0  0  0  0  0
   10.9720   -0.4530   22.2770 C   0  0  0  0  0  0  0  0  0  0  0  0
   12.0440   -1.3000   21.9680 C   0  0  0  0  0  0  0  0  0  0  0  0
   13.3660   -0.8580   22.1270 C   0  0  0  0  0  0  0  0  0  0  0  0
   13.6170    0.4280   22.6340 C   0  0  0  0  0  0  0  0  0  0  0  0
   12.5450    1.2730   22.9610 C   0  0  0  0  0  0  0  0  0  0  0  0
   11.2240    0.8360   22.7730 C   0  0  0  0  0  0  0  0  0  0  0  0
    7.6230   -0.9250   20.8960 N   0  0  0  0  0  0  0  0  0  0  0  0
    6.6240   -0.4160   20.0140 C   0  0  0  0  0  0  0  0  0  0  0  0
    6.9150   -0.2610   18.6430 C   0  0  0  0  0  0  0  0  0  0  0  0
    6.0780    0.3110   17.7530 N   0  0  0  0  0  0  0  0  0  0  0  0
    4.9380    0.8490   18.2320 C   0  0  0  0  0  0  0  0  0  0  0  0
    4.5510    0.7310   19.5760 C   0  0  0  0  0  0  0  0  0  0  0  0
    5.3910    0.0780   20.4840 C   0  0  0  0  0  0  0  0  0  0  0  0
    5.0130   -0.0110   21.8090 O   0  0  0  0  0  0  0  0  0  0  0  0
    5.8280    0.4130   22.8340 C   0  0  0  0  0  0  0  0  0  0  0  0
    6.6400    1.5510   22.6800 C   0  0  0  0  0  0  0  0  0  0  0  0
    7.5800    1.8790   23.6690 C   0  0  0  0  0  0  0  0  0  0  0  0
    7.6840    1.0880   24.8270 C   0  0  0  0  0  0  0  0  0  0  0  0
    6.8350   -0.0160   25.0060 C   0  0  0  0  0  0  0  0  0  0  0  0
    5.9080   -0.3560   24.0060 C   0  0  0  0  0  0  0  0  0  0  0  0
  1  2  2  0
  2  3  1  0
  2 10  1  0
  3  4  1  0
  4  5  2  0
  4  9  1  0
  5  6  1  0
  6  7  2  0
  7  8  1  0
  8  9  2  0
 10 11  1  0
 11 12  2  0
 11 16  1  0
 12 13  1  0
 13 14  2  0
 14 15  1  0
 15 16  2  0
 16 17  1  0
 17 18  1  0
 18 19  2  0
 18 23  1  0
 19 20  1  0
 20 21  2  0
 21 22  1  0
 22 23  2  0
M  END
