WPC0500_minimised.pdb
     RDKit          3D

 17 18  0  0  0  0  0  0  0  0999 V2000
   14.2330    0.8700   22.7900 N   0  0  0  0  0  0  0  0  0  0  0  0
   12.8890    0.5680   22.7310 C   0  0  0  0  0  0  0  0  0  0  0  0
   12.4440   -0.4980   21.9390 C   0  0  0  0  0  0  0  0  0  0  0  0
   11.0680   -0.7560   21.8180 C   0  0  0  0  0  0  0  0  0  0  0  0
   10.1340    0.0580   22.4800 C   0  0  0  0  0  0  0  0  0  0  0  0
    8.7490   -0.0990   22.2320 N   0  0  0  0  0  0  0  0  0  0  0  0
    8.1730    0.0660   20.9990 C   0  0  0  0  0  0  0  0  0  0  0  0
    8.8140    0.2420   19.9850 O   0  0  0  0  0  0  0  0  0  0  0  0
    6.8030    0.0670   20.9870 N   0  0  0  0  0  0  0  0  0  0  0  0
    6.0280    0.4990   19.8790 C   0  0  0  0  0  0  0  0  0  0  0  0
    5.0560    1.4870   20.0770 C   0  0  0  0  0  0  0  0  0  0  0  0
    4.4330    2.0270   18.9440 C   0  0  0  0  0  0  0  0  0  0  0  0
    4.8060    1.5800   17.6680 C   0  0  0  0  0  0  0  0  0  0  0  0
    5.6980    0.5840   17.4660 N   0  0  0  0  0  0  0  0  0  0  0  0
    6.3040    0.0720   18.5590 C   0  0  0  0  0  0  0  0  0  0  0  0
   10.5830    1.1060   23.2980 C   0  0  0  0  0  0  0  0  0  0  0  0
   11.9600    1.3590   23.4200 C   0  0  0  0  0  0  0  0  0  0  0  0
  1  2  1  0
  2  3  2  0
  2 17  1  0
  3  4  1  0
  4  5  2  0
  5 16  1  0
  5  6  1  0
  6  7  1  0
  7  8  2  0
  7  9  1  0
  9 10  1  0
 10 11  2  0
 10 15  1  0
 11 12  1  0
 12 13  2  0
 13 14  1  0
 14 15  2  0
 16 17  2  0
M  END
