WPC0051_minimised.pdb
     RDKit          3D

 17 18  0  0  0  0  0  0  0  0999 V2000
    4.9520    2.5930   20.9500 N   0  0  0  0  0  0  0  0  0  0  0  0
    5.0990    1.7600   19.8660 C   0  0  0  0  0  0  0  0  0  0  0  0
    4.4470    2.1120   18.6930 C   0  0  0  0  0  0  0  0  0  0  0  0
    4.8020    1.4900   17.5000 C   0  0  0  0  0  0  0  0  0  0  0  0
    5.6580    0.4510   17.4370 N   0  0  0  0  0  0  0  0  0  0  0  0
    6.2420    0.0670   18.5910 C   0  0  0  0  0  0  0  0  0  0  0  0
    6.0140    0.6980   19.8330 C   0  0  0  0  0  0  0  0  0  0  0  0
    6.7850    0.3600   20.9850 N   0  0  0  0  0  0  0  0  0  0  0  0
    8.1480    0.2260   20.9890 C   0  0  0  0  0  0  0  0  0  0  0  0
    8.7900    0.2640   19.9610 O   0  0  0  0  0  0  0  0  0  0  0  0
    8.7210    0.0930   22.2240 N   0  0  0  0  0  0  0  0  0  0  0  0
   10.1150    0.1390   22.4500 C   0  0  0  0  0  0  0  0  0  0  0  0
   10.9660   -0.8050   21.8520 C   0  0  0  0  0  0  0  0  0  0  0  0
   12.3600   -0.6850   21.9840 C   0  0  0  0  0  0  0  0  0  0  0  0
   12.9040    0.3800   22.7190 C   0  0  0  0  0  0  0  0  0  0  0  0
   12.0530    1.3180   23.3250 C   0  0  0  0  0  0  0  0  0  0  0  0
   10.6600    1.1950   23.1960 C   0  0  0  0  0  0  0  0  0  0  0  0
  1  2  1  0
  2  3  2  0
  2  7  1  0
  3  4  1  0
  4  5  2  0
  5  6  1  0
  6  7  2  0
  7  8  1  0
  8  9  1  0
  9 10  2  0
  9 11  1  0
 11 12  1  0
 12 13  2  0
 12 17  1  0
 13 14  1  0
 14 15  2  0
 15 16  1  0
 16 17  2  0
M  END
