WPC0949_minimised.pdb
     RDKit          3D

 21 22  0  0  0  0  0  0  0  0999 V2000
   11.2570    4.7940   22.9640 N   0  0  0  0  0  0  0  0  0  0  0  0
   11.6130    3.4450   23.2370 N   0  0  0  0  0  0  0  0  0  0  0  0
   12.9200    2.9910   23.3180 C   0  0  0  0  0  0  0  0  0  0  0  0
   13.8480    3.7780   23.2420 O   0  0  0  0  0  0  0  0  0  0  0  0
   13.1160    1.4820   23.5610 C   0  0  0  0  0  0  0  0  0  0  0  0
   11.8720    0.6510   23.2990 C   0  0  0  0  0  0  0  0  0  0  0  0
   11.7870   -0.1190   22.1310 C   0  0  0  0  0  0  0  0  0  0  0  0
   10.5650   -0.6990   21.7750 C   0  0  0  0  0  0  0  0  0  0  0  0
    9.4230   -0.4830   22.5610 C   0  0  0  0  0  0  0  0  0  0  0  0
    8.1390   -0.7470   22.0410 N   0  0  0  0  0  0  0  0  0  0  0  0
    7.7310   -0.3410   20.7960 C   0  0  0  0  0  0  0  0  0  0  0  0
    8.4800    0.0170   19.9060 O   0  0  0  0  0  0  0  0  0  0  0  0
    6.3730   -0.3050   20.6530 N   0  0  0  0  0  0  0  0  0  0  0  0
    5.7170    0.3350   19.5740 C   0  0  0  0  0  0  0  0  0  0  0  0
    4.7830    1.3440   19.8400 C   0  0  0  0  0  0  0  0  0  0  0  0
    4.2740    2.0640   18.7500 C   0  0  0  0  0  0  0  0  0  0  0  0
    4.7180    1.7660   17.4530 C   0  0  0  0  0  0  0  0  0  0  0  0
    5.5890    0.7670   17.1860 N   0  0  0  0  0  0  0  0  0  0  0  0
    6.0860    0.0820   18.2350 C   0  0  0  0  0  0  0  0  0  0  0  0
    9.5420    0.1660   23.7980 C   0  0  0  0  0  0  0  0  0  0  0  0
   10.7740    0.7150   24.1800 C   0  0  0  0  0  0  0  0  0  0  0  0
  1  2  1  0
  2  3  1  0
  3  4  2  0
  3  5  1  0
  5  6  1  0
  6 21  2  0
  6  7  1  0
  7  8  2  0
  8  9  1  0
  9 10  1  0
  9 20  2  0
 10 11  1  0
 11 12  2  0
 11 13  1  0
 13 14  1  0
 14 15  2  0
 14 19  1  0
 15 16  1  0
 16 17  2  0
 17 18  1  0
 18 19  2  0
 20 21  1  0
M  END
