WPC0936_minimised.pdb
     RDKit          3D

 24 25  0  0  0  0  0  0  0  0999 V2000
   13.7440    5.7250   22.2870 C   0  0  0  0  0  0  0  0  0  0  0  0
   12.6750    4.6860   21.9040 C   0  0  0  0  0  0  0  0  0  0  0  0
   12.7270    3.5700   22.8060 O   0  0  0  0  0  0  0  0  0  0  0  0
   13.7610    2.7050   22.6960 C   0  0  0  0  0  0  0  0  0  0  0  0
   14.7280    2.8110   21.9720 O   0  0  0  0  0  0  0  0  0  0  0  0
   13.4100    1.5600   23.3340 N   0  0  0  0  0  0  0  0  0  0  0  0
   14.1530    0.3100   23.1970 C   0  0  0  0  0  0  0  0  0  0  0  0
   13.4900   -0.8090   24.0030 C   0  0  0  0  0  0  0  0  0  0  0  0
   12.0100   -0.9010   23.6600 C   0  0  0  0  0  0  0  0  0  0  0  0
   11.6270   -1.4580   22.4310 C   0  0  0  0  0  0  0  0  0  0  0  0
   10.2930   -1.3830   22.0090 C   0  0  0  0  0  0  0  0  0  0  0  0
    9.3330   -0.7440   22.8090 C   0  0  0  0  0  0  0  0  0  0  0  0
    8.0230   -0.5360   22.3250 N   0  0  0  0  0  0  0  0  0  0  0  0
    7.7040   -0.0670   21.0770 C   0  0  0  0  0  0  0  0  0  0  0  0
    8.5100    0.1750   20.2000 O   0  0  0  0  0  0  0  0  0  0  0  0
    6.3610    0.1150   20.8990 N   0  0  0  0  0  0  0  0  0  0  0  0
    5.7560    0.6610   19.7420 C   0  0  0  0  0  0  0  0  0  0  0  0
    4.7960    1.6690   19.8870 C   0  0  0  0  0  0  0  0  0  0  0  0
    4.2950    2.2610   18.7210 C   0  0  0  0  0  0  0  0  0  0  0  0
    4.7620    1.8350   17.4690 C   0  0  0  0  0  0  0  0  0  0  0  0
    5.6510    0.8260   17.3170 N   0  0  0  0  0  0  0  0  0  0  0  0
    6.1500    0.2720   18.4410 C   0  0  0  0  0  0  0  0  0  0  0  0
    9.6960   -0.2550   24.0730 C   0  0  0  0  0  0  0  0  0  0  0  0
   11.0310   -0.3350   24.5000 C   0  0  0  0  0  0  0  0  0  0  0  0
  1  2  1  0
  2  3  1  0
  3  4  1  0
  4  5  2  0
  4  6  1  0
  6  7  1  0
  7  8  1  0
  8  9  1  0
  9 24  2  0
  9 10  1  0
 10 11  2  0
 11 12  1  0
 12 13  1  0
 12 23  2  0
 13 14  1  0
 14 15  2  0
 14 16  1  0
 16 17  1  0
 17 18  2  0
 17 22  1  0
 18 19  1  0
 19 20  2  0
 20 21  1  0
 21 22  2  0
 23 24  1  0
M  END
