WPC0983_minimised.pdb
     RDKit          3D

 21 22  0  0  1  0  0  0  0  0999 V2000
   13.6450    3.4050   22.7150 C   0  0  0  0  0  0  0  0  0  0  0  0
   13.1210    2.1770   22.6940 C   0  0  0  0  0  0  0  0  0  0  0  0
   13.9300    0.8920   22.7480 C   0  0  0  0  0  0  0  0  0  0  0  0
   13.4020   -0.1210   23.7940 C   0  0  2  0  0  0  0  0  0  0  0  0
   14.2060   -1.2930   23.7570 O   0  0  0  0  0  0  0  0  0  0  0  0
   11.9520   -0.4820   23.5090 C   0  0  0  0  0  0  0  0  0  0  0  0
   11.6330   -1.2100   22.3510 C   0  0  0  0  0  0  0  0  0  0  0  0
   10.2970   -1.3490   21.9550 C   0  0  0  0  0  0  0  0  0  0  0  0
    9.2750   -0.7470   22.7010 C   0  0  0  0  0  0  0  0  0  0  0  0
    7.9710   -0.6650   22.1730 N   0  0  0  0  0  0  0  0  0  0  0  0
    7.6790   -0.2110   20.9140 C   0  0  0  0  0  0  0  0  0  0  0  0
    8.5050    0.0290   20.0540 O   0  0  0  0  0  0  0  0  0  0  0  0
    6.3400   -0.0240   20.7170 N   0  0  0  0  0  0  0  0  0  0  0  0
    5.7580    0.5850   19.5800 C   0  0  0  0  0  0  0  0  0  0  0  0
    4.7870    1.5760   19.7600 C   0  0  0  0  0  0  0  0  0  0  0  0
    4.3160    2.2390   18.6210 C   0  0  0  0  0  0  0  0  0  0  0  0
    4.8350    1.9090   17.3610 C   0  0  0  0  0  0  0  0  0  0  0  0
    5.7350    0.9190   17.1720 N   0  0  0  0  0  0  0  0  0  0  0  0
    6.1960    0.2870   18.2700 C   0  0  0  0  0  0  0  0  0  0  0  0
    9.5780   -0.1040   23.9100 C   0  0  0  0  0  0  0  0  0  0  0  0
   10.9150    0.0250   24.3160 C   0  0  0  0  0  0  0  0  0  0  0  0
  1  2  2  0
  2  3  1  0
  3  4  1  0
  4  5  1  6
  4  6  1  0
  6 21  2  0
  6  7  1  0
  7  8  2  0
  8  9  1  0
  9 10  1  0
  9 20  2  0
 10 11  1  0
 11 12  2  0
 11 13  1  0
 13 14  1  0
 14 15  2  0
 14 19  1  0
 15 16  1  0
 16 17  2  0
 17 18  1  0
 18 19  2  0
 20 21  1  0
M  END
