WPC0827_minimised.pdb
     RDKit          3D

 24 25  0  0  0  0  0  0  0  0999 V2000
   12.4200    6.1430   24.8120 N   0  0  0  0  0  0  0  0  0  0  0  0
   11.4620    5.8500   23.8940 C   0  0  0  0  0  0  0  0  0  0  0  0
   10.3710    6.3690   23.9530 O   0  0  0  0  0  0  0  0  0  0  0  0
   11.8310    4.9700   22.8990 N   0  0  0  0  0  0  0  0  0  0  0  0
   12.9600    4.1790   22.9140 N   0  0  0  0  0  0  0  0  0  0  0  0
   12.8730    3.0180   22.3640 C   0  0  0  0  0  0  0  0  0  0  0  0
   13.9720    1.9760   22.4000 C   0  0  0  0  0  0  0  0  0  0  0  0
   13.6360    0.7840   23.3200 C   0  0  0  0  0  0  0  0  0  0  0  0
   12.2240    0.2820   23.1000 C   0  0  0  0  0  0  0  0  0  0  0  0
   11.9510   -0.6440   22.0810 C   0  0  0  0  0  0  0  0  0  0  0  0
   10.6230   -0.9880   21.7960 C   0  0  0  0  0  0  0  0  0  0  0  0
    9.5710   -0.3930   22.5070 C   0  0  0  0  0  0  0  0  0  0  0  0
    8.2450   -0.5360   22.0560 N   0  0  0  0  0  0  0  0  0  0  0  0
    7.8430   -0.1780   20.7980 C   0  0  0  0  0  0  0  0  0  0  0  0
    8.6050    0.1030   19.8920 O   0  0  0  0  0  0  0  0  0  0  0  0
    6.4850   -0.1140   20.6660 N   0  0  0  0  0  0  0  0  0  0  0  0
    5.8210    0.4760   19.5650 C   0  0  0  0  0  0  0  0  0  0  0  0
    4.8530    1.4590   19.8020 C   0  0  0  0  0  0  0  0  0  0  0  0
    4.3250    2.1310   18.6930 C   0  0  0  0  0  0  0  0  0  0  0  0
    4.7870    1.8190   17.4070 C   0  0  0  0  0  0  0  0  0  0  0  0
    5.6820    0.8340   17.1650 N   0  0  0  0  0  0  0  0  0  0  0  0
    6.1950    0.1920   18.2340 C   0  0  0  0  0  0  0  0  0  0  0  0
    9.8430    0.4740   23.5720 C   0  0  0  0  0  0  0  0  0  0  0  0
   11.1700    0.8070   23.8730 C   0  0  0  0  0  0  0  0  0  0  0  0
  1  2  1  0
  2  3  2  0
  2  4  1  0
  4  5  1  0
  5  6  2  0
  6  7  1  0
  7  8  1  0
  8  9  1  0
  9 24  2  0
  9 10  1  0
 10 11  2  0
 11 12  1  0
 12 13  1  0
 12 23  2  0
 13 14  1  0
 14 15  2  0
 14 16  1  0
 16 17  1  0
 17 18  2  0
 17 22  1  0
 18 19  1  0
 19 20  2  0
 20 21  1  0
 21 22  2  0
 23 24  1  0
M  END
