WPC0968_minimised.pdb
     RDKit          3D

 23 24  0  0  0  0  0  0  0  0999 V2000
   11.0940    6.0500   24.5780 O   0  0  0  0  0  0  0  0  0  0  0  0
   10.9690    5.4160   23.5490 C   0  0  0  0  0  0  0  0  0  0  0  0
    9.9260    5.6650   22.7300 O   0  0  0  0  0  0  0  0  0  0  0  0
   12.0200    4.4020   23.0380 C   0  0  0  0  0  0  0  0  0  0  0  0
   11.9940    3.0550   23.6820 N   0  0  0  0  0  0  0  0  0  0  0  0
   12.9740    2.1120   23.1160 C   0  0  0  0  0  0  0  0  0  0  0  0
   12.8910    0.7120   23.7490 C   0  0  0  0  0  0  0  0  0  0  0  0
   11.5360    0.1010   23.4620 C   0  0  0  0  0  0  0  0  0  0  0  0
   11.3600   -0.6720   22.3040 C   0  0  0  0  0  0  0  0  0  0  0  0
   10.0680   -1.0080   21.8890 C   0  0  0  0  0  0  0  0  0  0  0  0
    8.9560   -0.5450   22.6080 C   0  0  0  0  0  0  0  0  0  0  0  0
    7.6780   -0.5850   22.0210 N   0  0  0  0  0  0  0  0  0  0  0  0
    7.4120   -0.1180   20.7610 C   0  0  0  0  0  0  0  0  0  0  0  0
    8.2570    0.1770   19.9330 O   0  0  0  0  0  0  0  0  0  0  0  0
    6.0750    0.0280   20.5320 N   0  0  0  0  0  0  0  0  0  0  0  0
    5.5140    0.6620   19.4020 C   0  0  0  0  0  0  0  0  0  0  0  0
    4.5400    1.6510   19.5870 C   0  0  0  0  0  0  0  0  0  0  0  0
    4.1000    2.3460   18.4540 C   0  0  0  0  0  0  0  0  0  0  0  0
    4.6500    2.0480   17.2000 C   0  0  0  0  0  0  0  0  0  0  0  0
    5.5580    1.0640   17.0070 N   0  0  0  0  0  0  0  0  0  0  0  0
    5.9860    0.3990   18.0980 C   0  0  0  0  0  0  0  0  0  0  0  0
    9.1340    0.1230   23.8270 C   0  0  0  0  0  0  0  0  0  0  0  0
   10.4290    0.4360   24.2640 C   0  0  0  0  0  0  0  0  0  0  0  0
  1  2  2  0
  2  3  1  0
  2  4  1  0
  4  5  1  0
  5  6  1  0
  6  7  1  0
  7  8  1  0
  8 23  2  0
  8  9  1  0
  9 10  2  0
 10 11  1  0
 11 12  1  0
 11 22  2  0
 12 13  1  0
 13 14  2  0
 13 15  1  0
 15 16  1  0
 16 17  2  0
 16 21  1  0
 17 18  1  0
 18 19  2  0
 19 20  1  0
 20 21  2  0
 22 23  1  0
M  END
