WPC0737_minimised.pdb
     RDKit          3D

 22 23  0  0  0  0  0  0  0  0999 V2000
   14.1680    6.3740   22.0060 C   0  0  0  0  0  0  0  0  0  0  0  0
   13.4070    5.2650   22.7510 C   0  0  0  0  0  0  0  0  0  0  0  0
   13.8790    3.9080   22.2280 C   0  0  0  0  0  0  0  0  0  0  0  0
   13.4150    2.8090   23.0680 N   0  0  0  0  0  0  0  0  0  0  0  0
   14.1920    1.5930   22.8080 C   0  0  0  0  0  0  0  0  0  0  0  0
   13.6280    0.3740   23.5450 C   0  0  0  0  0  0  0  0  0  0  0  0
   12.1650    0.1110   23.2280 C   0  0  0  0  0  0  0  0  0  0  0  0
   11.8130   -0.8000   22.2180 C   0  0  0  0  0  0  0  0  0  0  0  0
   10.4660   -0.9790   21.8760 C   0  0  0  0  0  0  0  0  0  0  0  0
    9.4670   -0.2530   22.5410 C   0  0  0  0  0  0  0  0  0  0  0  0
    8.1320   -0.3080   22.0950 N   0  0  0  0  0  0  0  0  0  0  0  0
    7.7400   -0.0130   20.8180 C   0  0  0  0  0  0  0  0  0  0  0  0
    8.5050    0.1760   19.8920 O   0  0  0  0  0  0  0  0  0  0  0  0
    6.3830    0.0950   20.6890 N   0  0  0  0  0  0  0  0  0  0  0  0
    5.7210    0.6340   19.5620 C   0  0  0  0  0  0  0  0  0  0  0  0
    4.7460    1.6190   19.7610 C   0  0  0  0  0  0  0  0  0  0  0  0
    4.2060    2.2380   18.6270 C   0  0  0  0  0  0  0  0  0  0  0  0
    4.6600    1.8680   17.3530 C   0  0  0  0  0  0  0  0  0  0  0  0
    5.5600    0.8780   17.1490 N   0  0  0  0  0  0  0  0  0  0  0  0
    6.0890    0.2920   18.2420 C   0  0  0  0  0  0  0  0  0  0  0  0
    9.8090    0.6090   23.5920 C   0  0  0  0  0  0  0  0  0  0  0  0
   11.1560    0.7890   23.9370 C   0  0  0  0  0  0  0  0  0  0  0  0
  1  2  1  0
  2  3  1  0
  3  4  1  0
  4  5  1  0
  5  6  1  0
  6  7  1  0
  7 22  2  0
  7  8  1  0
  8  9  2  0
  9 10  1  0
 10 11  1  0
 10 21  2  0
 11 12  1  0
 12 13  2  0
 12 14  1  0
 14 15  1  0
 15 16  2  0
 15 20  1  0
 16 17  1  0
 17 18  2  0
 18 19  1  0
 19 20  2  0
 21 22  1  0
M  END
