WPC0163_minimised.pdb
     RDKit          3D

 18 19  0  0  0  0  0  0  0  0999 V2000
    4.7520    3.6070   21.5510 C   0  0  0  0  0  0  0  0  0  0  0  0
    4.8380    2.1790   21.3660 O   0  0  0  0  0  0  0  0  0  0  0  0
    5.0860    1.6550   20.1160 C   0  0  0  0  0  0  0  0  0  0  0  0
    4.4660    2.1690   18.9720 C   0  0  0  0  0  0  0  0  0  0  0  0
    4.8250    1.6780   17.7120 C   0  0  0  0  0  0  0  0  0  0  0  0
    5.6890    0.6550   17.5390 N   0  0  0  0  0  0  0  0  0  0  0  0
    6.2790    0.1560   18.6440 C   0  0  0  0  0  0  0  0  0  0  0  0
    6.0240    0.6260   19.9500 C   0  0  0  0  0  0  0  0  0  0  0  0
    6.8030    0.1860   21.0580 N   0  0  0  0  0  0  0  0  0  0  0  0
    8.1710    0.1490   21.0500 C   0  0  0  0  0  0  0  0  0  0  0  0
    8.7990    0.2930   20.0220 O   0  0  0  0  0  0  0  0  0  0  0  0
    8.7690   -0.0200   22.2690 N   0  0  0  0  0  0  0  0  0  0  0  0
   10.1640    0.0830   22.4730 C   0  0  0  0  0  0  0  0  0  0  0  0
   11.0370   -0.8450   21.8820 C   0  0  0  0  0  0  0  0  0  0  0  0
   12.4280   -0.6750   21.9860 C   0  0  0  0  0  0  0  0  0  0  0  0
   12.9470    0.4260   22.6860 C   0  0  0  0  0  0  0  0  0  0  0  0
   12.0750    1.3510   23.2800 C   0  0  0  0  0  0  0  0  0  0  0  0
   10.6850    1.1770   23.1790 C   0  0  0  0  0  0  0  0  0  0  0  0
  1  2  1  0
  2  3  1  0
  3  4  2  0
  3  8  1  0
  4  5  1  0
  5  6  2  0
  6  7  1  0
  7  8  2  0
  8  9  1  0
  9 10  1  0
 10 11  2  0
 10 12  1  0
 12 13  1  0
 13 14  2  0
 13 18  1  0
 14 15  1  0
 15 16  2  0
 16 17  1  0
 17 18  2  0
M  END
