WPC0594_minimised.pdb
     RDKit          3D

 23 24  0  0  0  0  0  0  0  0999 V2000
   12.6530    4.8250   24.1610 C   0  0  0  0  0  0  0  0  0  0  0  0
   12.9600    4.0110   22.8780 C   0  0  0  0  0  0  0  0  0  0  0  0
   11.6710    3.9260   22.0450 C   0  0  0  0  0  0  0  0  0  0  0  0
   14.1030    4.6680   22.0530 C   0  0  0  0  0  0  0  0  0  0  0  0
   14.0670    6.1390   21.9970 N   0  0  0  0  0  0  0  0  0  0  0  0
   13.5700    2.2910   23.2370 S   0  0  0  0  0  0  0  0  0  0  0  0
   12.3980    1.5210   24.4390 C   0  0  0  0  0  0  0  0  0  0  0  0
   11.1600    0.9330   23.8080 C   0  0  0  0  0  0  0  0  0  0  0  0
   11.2600    0.0540   22.7170 C   0  0  0  0  0  0  0  0  0  0  0  0
   10.0970   -0.4450   22.1120 C   0  0  0  0  0  0  0  0  0  0  0  0
    8.8390   -0.0770   22.6140 C   0  0  0  0  0  0  0  0  0  0  0  0
    7.6550   -0.4330   21.9490 N   0  0  0  0  0  0  0  0  0  0  0  0
    7.4020   -0.1420   20.6400 C   0  0  0  0  0  0  0  0  0  0  0  0
    8.2430    0.1140   19.8000 O   0  0  0  0  0  0  0  0  0  0  0  0
    6.0600   -0.0850   20.3980 N   0  0  0  0  0  0  0  0  0  0  0  0
    5.4780    0.5560   19.2870 C   0  0  0  0  0  0  0  0  0  0  0  0
    4.5070    1.5410   19.5080 C   0  0  0  0  0  0  0  0  0  0  0  0
    4.0380    2.2490   18.3950 C   0  0  0  0  0  0  0  0  0  0  0  0
    4.5550    1.9600   17.1250 C   0  0  0  0  0  0  0  0  0  0  0  0
    5.4690    0.9870   16.9020 N   0  0  0  0  0  0  0  0  0  0  0  0
    5.9300    0.3160   17.9740 C   0  0  0  0  0  0  0  0  0  0  0  0
    8.7400    0.7480   23.7420 C   0  0  0  0  0  0  0  0  0  0  0  0
    9.9000    1.2540   24.3410 C   0  0  0  0  0  0  0  0  0  0  0  0
  1  2  1  0
  2  4  1  0
  2  3  1  0
  2  6  1  0
  4  5  1  0
  6  7  1  0
  7  8  1  0
  8 23  2  0
  8  9  1  0
  9 10  2  0
 10 11  1  0
 11 12  1  0
 11 22  2  0
 12 13  1  0
 13 14  2  0
 13 15  1  0
 15 16  1  0
 16 17  2  0
 16 21  1  0
 17 18  1  0
 18 19  2  0
 19 20  1  0
 20 21  2  0
 22 23  1  0
M  END
