WPC0682_minimised.pdb
     RDKit          3D

 24 26  0  0  0  0  0  0  0  0999 V2000
    8.5460    0.1020   19.9630 O   0  0  0  0  0  0  0  0  0  0  0  0
    7.8020   -0.2180   20.8710 C   0  0  0  0  0  0  0  0  0  0  0  0
    8.2220   -0.6070   22.1180 N   0  0  0  0  0  0  0  0  0  0  0  0
    9.5440   -0.4520   22.5850 C   0  0  0  0  0  0  0  0  0  0  0  0
   10.6250   -0.8410   21.7800 C   0  0  0  0  0  0  0  0  0  0  0  0
   11.9240   -0.4240   22.0880 C   0  0  0  0  0  0  0  0  0  0  0  0
   12.1470    0.3630   23.2280 C   0  0  0  0  0  0  0  0  0  0  0  0
   13.5050    1.0010   23.4380 C   0  0  0  0  0  0  0  0  0  0  0  0
   13.6990    2.2770   22.5810 C   0  0  0  0  0  0  0  0  0  0  0  0
   12.8460    3.4760   23.0000 C   0  0  0  0  0  0  0  0  0  0  0  0
   13.4530    4.6290   23.5310 C   0  0  0  0  0  0  0  0  0  0  0  0
   12.6720    5.7130   23.9670 C   0  0  0  0  0  0  0  0  0  0  0  0
   11.2760    5.6720   23.8370 C   0  0  0  0  0  0  0  0  0  0  0  0
   10.6670    4.5550   23.2490 C   0  0  0  0  0  0  0  0  0  0  0  0
   11.4500    3.4710   22.8210 C   0  0  0  0  0  0  0  0  0  0  0  0
   11.0840    0.6340   24.1110 C   0  0  0  0  0  0  0  0  0  0  0  0
    9.7800    0.2380   23.7820 C   0  0  0  0  0  0  0  0  0  0  0  0
    6.4420   -0.1730   20.7420 N   0  0  0  0  0  0  0  0  0  0  0  0
    5.7720    0.4130   19.6400 C   0  0  0  0  0  0  0  0  0  0  0  0
    4.8220    1.4140   19.8740 C   0  0  0  0  0  0  0  0  0  0  0  0
    4.2900    2.0790   18.7610 C   0  0  0  0  0  0  0  0  0  0  0  0
    4.7270    1.7350   17.4730 C   0  0  0  0  0  0  0  0  0  0  0  0
    5.6090    0.7370   17.2350 N   0  0  0  0  0  0  0  0  0  0  0  0
    6.1310    0.1090   18.3080 C   0  0  0  0  0  0  0  0  0  0  0  0
  1  2  2  0
  2  3  1  0
  2 18  1  0
  3  4  1  0
  4  5  2  0
  4 17  1  0
  5  6  1  0
  6  7  2  0
  7  8  1  0
  7 16  1  0
  8  9  1  0
  9 10  1  0
 10 11  2  0
 10 15  1  0
 11 12  1  0
 12 13  2  0
 13 14  1  0
 14 15  2  0
 16 17  2  0
 18 19  1  0
 19 20  2  0
 19 24  1  0
 20 21  1  0
 21 22  2  0
 22 23  1  0
 23 24  2  0
M  END
