WPC0829_minimised.pdb
     RDKit          3D

 21 22  0  0  0  0  0  0  0  0999 V2000
    8.4010    0.0140   19.7770 O   0  0  0  0  0  0  0  0  0  0  0  0
    7.6130   -0.2810   20.6570 C   0  0  0  0  0  0  0  0  0  0  0  0
    7.9570   -0.6520   21.9280 N   0  0  0  0  0  0  0  0  0  0  0  0
    9.2100   -0.3820   22.5090 C   0  0  0  0  0  0  0  0  0  0  0  0
   10.4000   -0.6280   21.8070 C   0  0  0  0  0  0  0  0  0  0  0  0
   11.6150   -0.1150   22.2790 C   0  0  0  0  0  0  0  0  0  0  0  0
   11.6400    0.6180   23.4750 C   0  0  0  0  0  0  0  0  0  0  0  0
   12.9250    1.2630   23.9360 C   0  0  0  0  0  0  0  0  0  0  0  0
   13.2120    2.4500   23.1760 O   0  0  0  0  0  0  0  0  0  0  0  0
   12.4990    3.6080   23.3000 C   0  0  0  0  0  0  0  0  0  0  0  0
   11.3350    3.9860   24.4430 S   0  0  0  0  0  0  0  0  0  0  0  0
   13.2410    4.8630   22.2640 S   0  0  0  0  0  0  0  0  0  0  0  0
   10.4660    0.7640   24.2370 C   0  0  0  0  0  0  0  0  0  0  0  0
    9.2490    0.2760   23.7460 C   0  0  0  0  0  0  0  0  0  0  0  0
    6.2610   -0.2020   20.4900 N   0  0  0  0  0  0  0  0  0  0  0  0
    5.6350    0.4540   19.4060 C   0  0  0  0  0  0  0  0  0  0  0  0
    4.6850    1.4480   19.6670 C   0  0  0  0  0  0  0  0  0  0  0  0
    4.1930    2.1780   18.5780 C   0  0  0  0  0  0  0  0  0  0  0  0
    4.6740    1.9080   17.2890 C   0  0  0  0  0  0  0  0  0  0  0  0
    5.5620    0.9230   17.0250 N   0  0  0  0  0  0  0  0  0  0  0  0
    6.0380    0.2240   18.0740 C   0  0  0  0  0  0  0  0  0  0  0  0
  1  2  2  0
  2  3  1  0
  2 15  1  0
  3  4  1  0
  4  5  2  0
  4 14  1  0
  5  6  1  0
  6  7  2  0
  7  8  1  0
  7 13  1  0
  8  9  1  0
  9 10  1  0
 10 11  2  0
 10 12  1  0
 13 14  2  0
 15 16  1  0
 16 17  2  0
 16 21  1  0
 17 18  1  0
 18 19  2  0
 19 20  1  0
 20 21  2  0
M  END
