WPC0953_minimised.pdb
     RDKit          3D

 21 22  0  0  0  0  0  0  0  0999 V2000
   14.2290    4.2880   23.1470 N   0  0  0  0  0  0  0  0  0  0  0  0
   13.5490    3.2860   22.7820 C   0  0  0  0  0  0  0  0  0  0  0  0
   12.2120    3.4810   22.6400 N   0  0  0  0  0  0  0  0  0  0  0  0
   14.1220    1.9100   22.5020 C   0  0  0  0  0  0  0  0  0  0  0  0
   13.6180    0.7630   23.4070 C   0  0  0  0  0  0  0  0  0  0  0  0
   12.1750    0.3880   23.1420 C   0  0  0  0  0  0  0  0  0  0  0  0
   11.8630   -0.4670   22.0740 C   0  0  0  0  0  0  0  0  0  0  0  0
   10.5230   -0.7450   21.7780 C   0  0  0  0  0  0  0  0  0  0  0  0
    9.4940   -0.1510   22.5220 C   0  0  0  0  0  0  0  0  0  0  0  0
    8.1590   -0.2580   22.0860 N   0  0  0  0  0  0  0  0  0  0  0  0
    7.7490    0.0440   20.8160 C   0  0  0  0  0  0  0  0  0  0  0  0
    8.5030    0.2900   19.8930 O   0  0  0  0  0  0  0  0  0  0  0  0
    6.3890    0.0870   20.6860 N   0  0  0  0  0  0  0  0  0  0  0  0
    5.7110    0.6190   19.5650 C   0  0  0  0  0  0  0  0  0  0  0  0
    4.7280    1.5940   19.7700 C   0  0  0  0  0  0  0  0  0  0  0  0
    4.1860    2.2170   18.6390 C   0  0  0  0  0  0  0  0  0  0  0  0
    4.6480    1.8620   17.3640 C   0  0  0  0  0  0  0  0  0  0  0  0
    5.5570    0.8820   17.1530 N   0  0  0  0  0  0  0  0  0  0  0  0
    6.0850    0.2910   18.2430 C   0  0  0  0  0  0  0  0  0  0  0  0
    9.8030    0.6470   23.6320 C   0  0  0  0  0  0  0  0  0  0  0  0
   11.1440    0.9070   23.9480 C   0  0  0  0  0  0  0  0  0  0  0  0
  1  2  2  0
  2  3  1  0
  2  4  1  0
  4  5  1  0
  5  6  1  0
  6 21  2  0
  6  7  1  0
  7  8  2  0
  8  9  1  0
  9 10  1  0
  9 20  2  0
 10 11  1  0
 11 12  2  0
 11 13  1  0
 13 14  1  0
 14 15  2  0
 14 19  1  0
 15 16  1  0
 16 17  2  0
 17 18  1  0
 18 19  2  0
 20 21  1  0
M  END
