WPC0986_minimised.pdb
     RDKit          3D

 24 26  0  0  0  0  0  0  0  0999 V2000
    8.3790   -0.0480   19.9030 O   0  0  0  0  0  0  0  0  0  0  0  0
    7.5830   -0.3540   20.7710 C   0  0  0  0  0  0  0  0  0  0  0  0
    7.9170   -0.8020   22.0230 N   0  0  0  0  0  0  0  0  0  0  0  0
    9.2040   -0.6560   22.5820 C   0  0  0  0  0  0  0  0  0  0  0  0
   10.3420   -0.9750   21.8270 C   0  0  0  0  0  0  0  0  0  0  0  0
   11.6020   -0.5130   22.2220 C   0  0  0  0  0  0  0  0  0  0  0  0
   11.7250    0.2350   23.4030 C   0  0  0  0  0  0  0  0  0  0  0  0
   13.0170    0.9700   23.6900 C   0  0  0  0  0  0  0  0  0  0  0  0
   12.8610    2.4630   23.3300 C   0  0  0  0  0  0  0  0  0  0  0  0
   11.9770    3.0700   24.2780 O   0  0  0  0  0  0  0  0  0  0  0  0
   11.7500    4.4690   24.0140 N   0  0  0  0  0  0  0  0  0  0  0  0
   12.5480    5.4430   24.5400 C   0  0  0  0  0  0  0  0  0  0  0  0
   11.7540    6.5500   24.5830 C   0  0  0  0  0  0  0  0  0  0  0  0
   10.5160    6.2890   24.0350 N   0  0  0  0  0  0  0  0  0  0  0  0
   10.5280    5.0110   23.6860 C   0  0  0  0  0  0  0  0  0  0  0  0
   10.6090    0.4150   24.2410 C   0  0  0  0  0  0  0  0  0  0  0  0
    9.3430   -0.0180   23.8210 C   0  0  0  0  0  0  0  0  0  0  0  0
    6.2340   -0.2250   20.6010 N   0  0  0  0  0  0  0  0  0  0  0  0
    5.6310    0.4380   19.5070 C   0  0  0  0  0  0  0  0  0  0  0  0
    4.6960    1.4510   19.7520 C   0  0  0  0  0  0  0  0  0  0  0  0
    4.2230    2.1780   18.6510 C   0  0  0  0  0  0  0  0  0  0  0  0
    4.7030    1.8840   17.3670 C   0  0  0  0  0  0  0  0  0  0  0  0
    5.5760    0.8820   17.1190 N   0  0  0  0  0  0  0  0  0  0  0  0
    6.0370    0.1880   18.1780 C   0  0  0  0  0  0  0  0  0  0  0  0
  1  2  2  0
  2  3  1  0
  2 18  1  0
  3  4  1  0
  4  5  2  0
  4 17  1  0
  5  6  1  0
  6  7  2  0
  7  8  1  0
  7 16  1  0
  8  9  1  0
  9 10  1  0
 10 11  1  0
 11 12  1  0
 11 15  1  0
 12 13  2  0
 13 14  1  0
 14 15  2  0
 16 17  2  0
 18 19  1  0
 19 20  2  0
 19 24  1  0
 20 21  1  0
 21 22  2  0
 22 23  1  0
 23 24  2  0
M  END
