WPC0706_minimised.pdb
     RDKit          3D

 23 24  0  0  0  0  0  0  0  0999 V2000
   14.0200    6.0640   22.1200 C   0  0  0  0  0  0  0  0  0  0  0  0
   13.1110    5.1500   22.9150 C   0  0  0  0  0  0  0  0  0  0  0  0
   12.3160    5.5160   23.7630 O   0  0  0  0  0  0  0  0  0  0  0  0
   13.4690    3.8720   22.6720 O   0  0  0  0  0  0  0  0  0  0  0  0
   12.7040    2.7680   23.1500 C   0  0  0  0  0  0  0  0  0  0  0  0
   13.5980    1.5430   22.8720 C   0  0  0  0  0  0  0  0  0  0  0  0
   13.2090    0.2940   23.6640 C   0  0  0  0  0  0  0  0  0  0  0  0
   11.7800   -0.1110   23.3720 C   0  0  0  0  0  0  0  0  0  0  0  0
   11.5070   -0.9040   22.2480 C   0  0  0  0  0  0  0  0  0  0  0  0
   10.1800   -1.1320   21.8640 C   0  0  0  0  0  0  0  0  0  0  0  0
    9.1290   -0.5470   22.5840 C   0  0  0  0  0  0  0  0  0  0  0  0
    7.8240   -0.5590   22.0560 N   0  0  0  0  0  0  0  0  0  0  0  0
    7.5150   -0.1620   20.7820 C   0  0  0  0  0  0  0  0  0  0  0  0
    8.3320    0.0620   19.9060 O   0  0  0  0  0  0  0  0  0  0  0  0
    6.1710   -0.0010   20.5970 N   0  0  0  0  0  0  0  0  0  0  0  0
    5.5780    0.6130   19.4710 C   0  0  0  0  0  0  0  0  0  0  0  0
    4.6090    1.6040   19.6680 C   0  0  0  0  0  0  0  0  0  0  0  0
    4.1370    2.2840   18.5390 C   0  0  0  0  0  0  0  0  0  0  0  0
    4.6520    1.9680   17.2740 C   0  0  0  0  0  0  0  0  0  0  0  0
    5.5520    0.9790   17.0690 N   0  0  0  0  0  0  0  0  0  0  0  0
    6.0110    0.3310   18.1570 C   0  0  0  0  0  0  0  0  0  0  0  0
    9.3950    0.1730   23.7570 C   0  0  0  0  0  0  0  0  0  0  0  0
   10.7220    0.3840   24.1580 C   0  0  0  0  0  0  0  0  0  0  0  0
  1  2  1  0
  2  3  2  0
  2  4  1  0
  4  5  1  0
  5  6  1  0
  6  7  1  0
  7  8  1  0
  8 23  2  0
  8  9  1  0
  9 10  2  0
 10 11  1  0
 11 12  1  0
 11 22  2  0
 12 13  1  0
 13 14  2  0
 13 15  1  0
 15 16  1  0
 16 17  2  0
 16 21  1  0
 17 18  1  0
 18 19  2  0
 19 20  1  0
 20 21  2  0
 22 23  1  0
M  END
