WPC0279_minimised.pdb
     RDKit          3D

 17 18  0  0  0  0  0  0  0  0999 V2000
    6.8140   -1.4240   22.1390 C   0  0  0  0  0  0  0  0  0  0  0  0
    7.3610   -0.4380   21.1930 N   0  0  0  0  0  0  0  0  0  0  0  0
    8.6610    0.0470   21.2930 C   0  0  0  0  0  0  0  0  0  0  0  0
    9.0750    0.9020   20.5400 O   0  0  0  0  0  0  0  0  0  0  0  0
    9.4710   -0.5120   22.2520 N   0  0  0  0  0  0  0  0  0  0  0  0
   10.8440   -0.2230   22.4010 C   0  0  0  0  0  0  0  0  0  0  0  0
   11.7980   -1.1760   22.0180 C   0  0  0  0  0  0  0  0  0  0  0  0
   13.1680   -0.8680   22.0760 C   0  0  0  0  0  0  0  0  0  0  0  0
   13.5810    0.3880   22.5510 C   0  0  0  0  0  0  0  0  0  0  0  0
   12.6260    1.3380   22.9460 C   0  0  0  0  0  0  0  0  0  0  0  0
   11.2580    1.0350   22.8630 C   0  0  0  0  0  0  0  0  0  0  0  0
    6.5010    0.0520   20.1650 C   0  0  0  0  0  0  0  0  0  0  0  0
    5.4450    0.9220   20.4760 C   0  0  0  0  0  0  0  0  0  0  0  0
    4.7330    1.4990   19.4120 C   0  0  0  0  0  0  0  0  0  0  0  0
    5.0770    1.1760   18.0890 C   0  0  0  0  0  0  0  0  0  0  0  0
    6.0620    0.3050   17.7790 N   0  0  0  0  0  0  0  0  0  0  0  0
    6.7770   -0.2060   18.8050 C   0  0  0  0  0  0  0  0  0  0  0  0
  1  2  1  0
  2  3  1  0
  2 12  1  0
  3  5  1  0
  3  4  2  0
  5  6  1  0
  6  7  2  0
  6 11  1  0
  7  8  1  0
  8  9  2  0
  9 10  1  0
 10 11  2  0
 12 13  2  0
 12 17  1  0
 13 14  1  0
 14 15  2  0
 15 16  1  0
 16 17  2  0
M  END
