WPC0573_minimised.pdb
     RDKit          3D

 23 24  0  0  0  0  0  0  0  0999 V2000
   14.1980    6.0030   21.8190 C   0  0  0  0  0  0  0  0  0  0  0  0
   13.7610    4.7570   21.0410 C   0  0  0  0  0  0  0  0  0  0  0  0
   14.2540    3.5240   21.6560 N   0  0  0  0  0  0  0  0  0  0  0  0
   13.5920    2.8750   22.6590 C   0  0  0  0  0  0  0  0  0  0  0  0
   12.3800    3.5700   23.5650 S   0  0  0  0  0  0  0  0  0  0  0  0
   14.0810    1.6010   22.7880 N   0  0  0  0  0  0  0  0  0  0  0  0
   13.5340    0.5760   23.6790 C   0  0  0  0  0  0  0  0  0  0  0  0
   12.1190    0.1490   23.3320 C   0  0  0  0  0  0  0  0  0  0  0  0
   11.8780   -0.7640   22.2920 C   0  0  0  0  0  0  0  0  0  0  0  0
   10.5600   -1.0550   21.9090 C   0  0  0  0  0  0  0  0  0  0  0  0
    9.4820   -0.4380   22.5610 C   0  0  0  0  0  0  0  0  0  0  0  0
    8.1700   -0.5530   22.0620 N   0  0  0  0  0  0  0  0  0  0  0  0
    7.8060   -0.2430   20.7800 C   0  0  0  0  0  0  0  0  0  0  0  0
    8.5780   -0.1030   19.8520 O   0  0  0  0  0  0  0  0  0  0  0  0
    6.4600   -0.0510   20.6540 N   0  0  0  0  0  0  0  0  0  0  0  0
    5.8190    0.5450   19.5420 C   0  0  0  0  0  0  0  0  0  0  0  0
    4.8710    1.5500   19.7690 C   0  0  0  0  0  0  0  0  0  0  0  0
    4.3290    2.1980   18.6520 C   0  0  0  0  0  0  0  0  0  0  0  0
    4.7590    1.8400   17.3670 C   0  0  0  0  0  0  0  0  0  0  0  0
    5.6400    0.8400   17.1370 N   0  0  0  0  0  0  0  0  0  0  0  0
    6.1690    0.2230   18.2130 C   0  0  0  0  0  0  0  0  0  0  0  0
    9.7170    0.3980   23.6580 C   0  0  0  0  0  0  0  0  0  0  0  0
   11.0320    0.6830   24.0490 C   0  0  0  0  0  0  0  0  0  0  0  0
  1  2  1  0
  2  3  1  0
  3  4  1  0
  4  5  2  0
  4  6  1  0
  6  7  1  0
  7  8  1  0
  8 23  2  0
  8  9  1  0
  9 10  2  0
 10 11  1  0
 11 12  1  0
 11 22  2  0
 12 13  1  0
 13 14  2  0
 13 15  1  0
 15 16  1  0
 16 17  2  0
 16 21  1  0
 17 18  1  0
 18 19  2  0
 19 20  1  0
 20 21  2  0
 22 23  1  0
M  END
