WPC0030_minimised.pdb
     RDKit          3D

 24 26  0  0  0  0  0  0  0  0999 V2000
    2.4380    4.0440   25.0300 C   0  0  0  0  0  0  0  0  0  0  0  0
    3.2580    3.1480   24.1310 C   0  0  0  0  0  0  0  0  0  0  0  0
    3.6580    1.8760   24.5730 C   0  0  0  0  0  0  0  0  0  0  0  0
    4.4660    1.0720   23.7530 C   0  0  0  0  0  0  0  0  0  0  0  0
    4.8420    1.5120   22.4740 C   0  0  0  0  0  0  0  0  0  0  0  0
    5.5900    0.6660   21.6690 N   0  0  0  0  0  0  0  0  0  0  0  0
    5.7380    0.5610   20.2950 C   0  0  0  0  0  0  0  0  0  0  0  0
    4.8690    1.1680   19.3800 C   0  0  0  0  0  0  0  0  0  0  0  0
    5.0930    1.0130   18.0100 C   0  0  0  0  0  0  0  0  0  0  0  0
    6.0840    0.2460   17.5190 N   0  0  0  0  0  0  0  0  0  0  0  0
    6.9240   -0.3300   18.3990 C   0  0  0  0  0  0  0  0  0  0  0  0
    6.7880   -0.2230   19.7920 C   0  0  0  0  0  0  0  0  0  0  0  0
    7.7800   -0.7820   20.6570 N   0  0  0  0  0  0  0  0  0  0  0  0
    8.8990   -0.0960   21.0630 C   0  0  0  0  0  0  0  0  0  0  0  0
    9.0780    1.0680   20.7750 O   0  0  0  0  0  0  0  0  0  0  0  0
    9.7990   -0.8430   21.7730 N   0  0  0  0  0  0  0  0  0  0  0  0
   11.1010   -0.4210   22.1230 C   0  0  0  0  0  0  0  0  0  0  0  0
   12.1820   -1.2510   21.8050 C   0  0  0  0  0  0  0  0  0  0  0  0
   13.4970   -0.8320   22.0500 C   0  0  0  0  0  0  0  0  0  0  0  0
   13.7330    0.4200   22.6420 C   0  0  0  0  0  0  0  0  0  0  0  0
   12.6500    1.2470   22.9810 C   0  0  0  0  0  0  0  0  0  0  0  0
   11.3360    0.8280   22.7210 C   0  0  0  0  0  0  0  0  0  0  0  0
    4.4900    2.8070   22.0640 C   0  0  0  0  0  0  0  0  0  0  0  0
    3.6950    3.6190   22.8820 C   0  0  0  0  0  0  0  0  0  0  0  0
  1  2  1  0
  2  3  2  0
  2 24  1  0
  3  4  1  0
  4  5  2  0
  5 23  1  0
  5  6  1  0
  6  7  1  0
  7  8  2  0
  7 12  1  0
  8  9  1  0
  9 10  2  0
 10 11  1  0
 11 12  2  0
 12 13  1  0
 13 14  1  0
 14 15  2  0
 14 16  1  0
 16 17  1  0
 17 18  2  0
 17 22  1  0
 18 19  1  0
 19 20  2  0
 20 21  1  0
 21 22  2  0
 23 24  2  0
M  END
