WPC0661_minimised.pdb
     RDKit          3D

 24 25  0  0  0  0  0  0  0  0999 V2000
    8.7890    5.4670   22.3420 C   0  0  0  0  0  0  0  0  0  0  0  0
    9.3940    4.2220   23.0200 C   0  0  0  0  0  0  0  0  0  0  0  0
   10.6420    4.5480   23.8800 C   0  0  0  0  0  0  0  0  0  0  0  0
   11.9310    4.7900   23.0550 C   0  0  0  0  0  0  0  0  0  0  0  0
   12.5170    3.4970   22.5260 C   0  0  0  0  0  0  0  0  0  0  0  0
   13.7500    3.0580   22.7980 C   0  0  0  0  0  0  0  0  0  0  0  0
   14.3150    1.7330   22.3280 C   0  0  0  0  0  0  0  0  0  0  0  0
   13.8690    0.5360   23.1930 C   0  0  0  0  0  0  0  0  0  0  0  0
   12.4000    0.2050   23.0100 C   0  0  0  0  0  0  0  0  0  0  0  0
   12.0070   -0.6650   21.9820 C   0  0  0  0  0  0  0  0  0  0  0  0
   10.6450   -0.8930   21.7490 C   0  0  0  0  0  0  0  0  0  0  0  0
    9.6740   -0.2360   22.5170 C   0  0  0  0  0  0  0  0  0  0  0  0
    8.3220   -0.2900   22.1260 N   0  0  0  0  0  0  0  0  0  0  0  0
    7.8850    0.0300   20.8680 C   0  0  0  0  0  0  0  0  0  0  0  0
    8.6240    0.2740   19.9330 O   0  0  0  0  0  0  0  0  0  0  0  0
    6.5240    0.0800   20.7560 N   0  0  0  0  0  0  0  0  0  0  0  0
    5.8350    0.6000   19.6340 C   0  0  0  0  0  0  0  0  0  0  0  0
    4.8510    1.5740   19.8350 C   0  0  0  0  0  0  0  0  0  0  0  0
    4.3030    2.1880   18.7020 C   0  0  0  0  0  0  0  0  0  0  0  0
    4.7620    1.8270   17.4270 C   0  0  0  0  0  0  0  0  0  0  0  0
    5.6660    0.8430   17.2200 N   0  0  0  0  0  0  0  0  0  0  0  0
    6.2010    0.2600   18.3120 C   0  0  0  0  0  0  0  0  0  0  0  0
   10.0630    0.5760   23.5910 C   0  0  0  0  0  0  0  0  0  0  0  0
   11.4260    0.7890   23.8400 C   0  0  0  0  0  0  0  0  0  0  0  0
  1  2  1  0
  2  3  1  0
  3  4  1  0
  4  5  1  0
  5  6  2  0
  6  7  1  0
  7  8  1  0
  8  9  1  0
  9 24  2  0
  9 10  1  0
 10 11  2  0
 11 12  1  0
 12 13  1  0
 12 23  2  0
 13 14  1  0
 14 15  2  0
 14 16  1  0
 16 17  1  0
 17 18  2  0
 17 22  1  0
 18 19  1  0
 19 20  2  0
 20 21  1  0
 21 22  2  0
 23 24  1  0
M  END
