WPC0891_minimised.pdb
     RDKit          3D

 23 25  0  0  0  0  0  0  0  0999 V2000
    8.4810    0.3040   19.9100 O   0  0  0  0  0  0  0  0  0  0  0  0
    7.8000    0.1700   20.9060 C   0  0  0  0  0  0  0  0  0  0  0  0
    8.3150   -0.0340   22.1570 N   0  0  0  0  0  0  0  0  0  0  0  0
    9.6910    0.0200   22.4660 C   0  0  0  0  0  0  0  0  0  0  0  0
   10.6120   -0.7660   21.7560 C   0  0  0  0  0  0  0  0  0  0  0  0
   11.9900   -0.6290   21.9850 C   0  0  0  0  0  0  0  0  0  0  0  0
   12.4550    0.2930   22.9390 C   0  0  0  0  0  0  0  0  0  0  0  0
   13.9440    0.4430   23.2160 C   0  0  0  0  0  0  0  0  0  0  0  0
   14.6000    1.6770   22.5670 C   0  0  0  0  0  0  0  0  0  0  0  0
   13.8580    2.8480   22.9550 O   0  0  0  0  0  0  0  0  0  0  0  0
   14.4190    4.1080   22.5520 C   0  0  0  0  0  0  0  0  0  0  0  0
   13.3540    5.2060   22.5930 C   0  0  0  0  0  0  0  0  0  0  0  0
   11.8940    4.9230   22.8800 C   0  0  0  0  0  0  0  0  0  0  0  0
   12.7430    5.6310   23.9070 C   0  0  0  0  0  0  0  0  0  0  0  0
   11.5250    1.0500   23.6750 C   0  0  0  0  0  0  0  0  0  0  0  0
   10.1490    0.9190   23.4380 C   0  0  0  0  0  0  0  0  0  0  0  0
    6.4340    0.2450   20.8610 N   0  0  0  0  0  0  0  0  0  0  0  0
    5.7040    0.7030   19.7360 C   0  0  0  0  0  0  0  0  0  0  0  0
    4.7470    1.7080   19.9160 C   0  0  0  0  0  0  0  0  0  0  0  0
    4.1650    2.2650   18.7700 C   0  0  0  0  0  0  0  0  0  0  0  0
    4.5630    1.8160   17.5020 C   0  0  0  0  0  0  0  0  0  0  0  0
    5.4410    0.8030   17.3190 N   0  0  0  0  0  0  0  0  0  0  0  0
    6.0070    0.2760   18.4230 C   0  0  0  0  0  0  0  0  0  0  0  0
  1  2  2  0
  2  3  1  0
  2 17  1  0
  3  4  1  0
  4  5  2  0
  4 16  1  0
  5  6  1  0
  6  7  2  0
  7  8  1  0
  7 15  1  0
  8  9  1  0
  9 10  1  0
 10 11  1  0
 11 12  1  0
 12 13  1  0
 12 14  1  0
 13 14  1  0
 15 16  2  0
 17 18  1  0
 18 19  2  0
 18 23  1  0
 19 20  1  0
 20 21  2  0
 21 22  1  0
 22 23  2  0
M  END
