WPC0909_minimised.pdb
     RDKit          3D

 17 18  0  0  0  0  0  0  0  0999 V2000
    8.3090    0.2090   19.8180 O   0  0  0  0  0  0  0  0  0  0  0  0
    7.5460    0.0420   20.7510 C   0  0  0  0  0  0  0  0  0  0  0  0
    7.9570   -0.2250   22.0260 N   0  0  0  0  0  0  0  0  0  0  0  0
    9.3080   -0.1700   22.4040 C   0  0  0  0  0  0  0  0  0  0  0  0
   10.2210   -1.0630   21.8230 C   0  0  0  0  0  0  0  0  0  0  0  0
   11.5960   -0.8760   22.0120 C   0  0  0  0  0  0  0  0  0  0  0  0
   12.0440    0.2030   22.7850 C   0  0  0  0  0  0  0  0  0  0  0  0
   14.1210    0.5660   22.9340 I   0  0  0  0  0  0  0  0  0  0  0  0
   11.1350    1.0690   23.4090 C   0  0  0  0  0  0  0  0  0  0  0  0
    9.7580    0.8790   23.2200 C   0  0  0  0  0  0  0  0  0  0  0  0
    6.1900    0.1500   20.6280 N   0  0  0  0  0  0  0  0  0  0  0  0
    5.5330    0.6940   19.5010 C   0  0  0  0  0  0  0  0  0  0  0  0
    4.5630    1.6850   19.6980 C   0  0  0  0  0  0  0  0  0  0  0  0
    4.0480    2.3210   18.5620 C   0  0  0  0  0  0  0  0  0  0  0  0
    4.5270    1.9690   17.2930 C   0  0  0  0  0  0  0  0  0  0  0  0
    5.4230    0.9760   17.0910 N   0  0  0  0  0  0  0  0  0  0  0  0
    5.9190    0.3640   18.1840 C   0  0  0  0  0  0  0  0  0  0  0  0
  1  2  2  0
  2  3  1  0
  2 11  1  0
  3  4  1  0
  4  5  2  0
  4 10  1  0
  5  6  1  0
  6  7  2  0
  7  8  1  0
  7  9  1  0
  9 10  2  0
 11 12  1  0
 12 13  2  0
 12 17  1  0
 13 14  1  0
 14 15  2  0
 15 16  1  0
 16 17  2  0
M  END
