WPC0931_minimised.pdb
     RDKit          3D

 23 24  0  0  0  0  0  0  0  0999 V2000
   12.9990    5.3540   21.0880 O   0  0  0  0  0  0  0  0  0  0  0  0
   13.8110    5.4410   21.9760 C   0  0  0  0  0  0  0  0  0  0  0  0
   14.3020    6.6430   22.3220 O   0  0  0  0  0  0  0  0  0  0  0  0
   14.5650    4.2300   22.5060 C   0  0  0  0  0  0  0  0  0  0  0  0
   13.6470    3.0020   22.7310 C   0  0  0  0  0  0  0  0  0  0  0  0
   14.4170    1.6660   22.6040 C   0  0  0  0  0  0  0  0  0  0  0  0
   13.8240    0.5190   23.4400 C   0  0  0  0  0  0  0  0  0  0  0  0
   12.3640    0.2460   23.1370 C   0  0  0  0  0  0  0  0  0  0  0  0
   12.0160   -0.6130   22.0820 C   0  0  0  0  0  0  0  0  0  0  0  0
   10.6660   -0.8340   21.7810 C   0  0  0  0  0  0  0  0  0  0  0  0
    9.6600   -0.1830   22.5090 C   0  0  0  0  0  0  0  0  0  0  0  0
    8.3150   -0.2730   22.0970 N   0  0  0  0  0  0  0  0  0  0  0  0
    7.8820   -0.0100   20.8250 C   0  0  0  0  0  0  0  0  0  0  0  0
    8.6180    0.1810   19.8770 O   0  0  0  0  0  0  0  0  0  0  0  0
    6.5200    0.0580   20.7260 N   0  0  0  0  0  0  0  0  0  0  0  0
    5.8220    0.5720   19.6090 C   0  0  0  0  0  0  0  0  0  0  0  0
    4.8350    1.5430   19.8190 C   0  0  0  0  0  0  0  0  0  0  0  0
    4.2650    2.1440   18.6910 C   0  0  0  0  0  0  0  0  0  0  0  0
    4.7050    1.7750   17.4120 C   0  0  0  0  0  0  0  0  0  0  0  0
    5.6140    0.7970   17.1970 N   0  0  0  0  0  0  0  0  0  0  0  0
    6.1700    0.2260   18.2840 C   0  0  0  0  0  0  0  0  0  0  0  0
   10.0010    0.6360   23.5930 C   0  0  0  0  0  0  0  0  0  0  0  0
   11.3510    0.8440   23.9100 C   0  0  0  0  0  0  0  0  0  0  0  0
  1  2  2  0
  2  3  1  0
  2  4  1  0
  4  5  1  0
  5  6  1  0
  6  7  1  0
  7  8  1  0
  8 23  2  0
  8  9  1  0
  9 10  2  0
 10 11  1  0
 11 12  1  0
 11 22  2  0
 12 13  1  0
 13 14  2  0
 13 15  1  0
 15 16  1  0
 16 17  2  0
 16 21  1  0
 17 18  1  0
 18 19  2  0
 19 20  1  0
 20 21  2  0
 22 23  1  0
M  END
