WPC0825_minimised.pdb
     RDKit          3D

 20 21  0  0  1  0  0  0  0  0999 V2000
   13.9690   -1.9100   23.5000 C   0  0  0  0  0  0  0  0  0  0  0  0
   13.1640   -0.6450   23.8570 C   0  0  1  0  0  0  0  0  0  0  0  0
   13.7590    0.5910   23.1530 C   0  0  0  0  0  0  0  0  0  0  0  0
   13.0120    1.7510   23.5060 O   0  0  0  0  0  0  0  0  0  0  0  0
   11.6920   -0.7710   23.4890 C   0  0  0  0  0  0  0  0  0  0  0  0
   11.3200   -1.3020   22.2430 C   0  0  0  0  0  0  0  0  0  0  0  0
    9.9840   -1.2590   21.8340 C   0  0  0  0  0  0  0  0  0  0  0  0
    9.0170   -0.6460   22.6420 C   0  0  0  0  0  0  0  0  0  0  0  0
    7.7250   -0.4180   22.1290 N   0  0  0  0  0  0  0  0  0  0  0  0
    7.4620    0.0750   20.8780 C   0  0  0  0  0  0  0  0  0  0  0  0
    8.3050    0.3220   20.0340 O   0  0  0  0  0  0  0  0  0  0  0  0
    6.1280    0.2630   20.6610 N   0  0  0  0  0  0  0  0  0  0  0  0
    5.5600    0.8290   19.4970 C   0  0  0  0  0  0  0  0  0  0  0  0
    4.5720    1.8110   19.6310 C   0  0  0  0  0  0  0  0  0  0  0  0
    4.1210    2.4360   18.4630 C   0  0  0  0  0  0  0  0  0  0  0  0
    4.6730    2.0780   17.2250 C   0  0  0  0  0  0  0  0  0  0  0  0
    5.5860    1.0900   17.0810 N   0  0  0  0  0  0  0  0  0  0  0  0
    6.0260    0.4940   18.2070 C   0  0  0  0  0  0  0  0  0  0  0  0
    9.3680   -0.1720   23.9140 C   0  0  0  0  0  0  0  0  0  0  0  0
   10.7030   -0.2430   24.3410 C   0  0  0  0  0  0  0  0  0  0  0  0
  2  1  1  6
  2  3  1  0
  2  5  1  0
  3  4  1  0
  5 20  2  0
  5  6  1  0
  6  7  2  0
  7  8  1  0
  8  9  1  0
  8 19  2  0
  9 10  1  0
 10 11  2  0
 10 12  1  0
 12 13  1  0
 13 14  2  0
 13 18  1  0
 14 15  1  0
 15 16  2  0
 16 17  1  0
 17 18  2  0
 19 20  1  0
M  END
