WPC0294_minimised.pdb
     RDKit          3D

 23 25  0  0  0  0  0  0  0  0999 V2000
    8.9380    0.8320   20.4550 O   0  0  0  0  0  0  0  0  0  0  0  0
    8.4350    0.1120   21.2920 C   0  0  0  0  0  0  0  0  0  0  0  0
    9.1790   -0.4200   22.3170 N   0  0  0  0  0  0  0  0  0  0  0  0
   10.5660   -0.2080   22.4770 C   0  0  0  0  0  0  0  0  0  0  0  0
   11.4780   -1.2040   22.0970 C   0  0  0  0  0  0  0  0  0  0  0  0
   12.8600   -0.9510   22.1460 C   0  0  0  0  0  0  0  0  0  0  0  0
   13.3290    0.2930   22.5990 C   0  0  0  0  0  0  0  0  0  0  0  0
   12.4170    1.2840   22.9940 C   0  0  0  0  0  0  0  0  0  0  0  0
   11.0370    1.0370   22.9250 C   0  0  0  0  0  0  0  0  0  0  0  0
    7.0890   -0.2370   21.2380 N   0  0  0  0  0  0  0  0  0  0  0  0
    6.4370   -1.0750   22.1800 C   0  0  0  0  0  0  0  0  0  0  0  0
    6.5290   -2.4740   22.0640 C   0  0  0  0  0  0  0  0  0  0  0  0
    5.8860   -3.3050   22.9980 C   0  0  0  0  0  0  0  0  0  0  0  0
    5.1510   -2.7320   24.0480 C   0  0  0  0  0  0  0  0  0  0  0  0
    4.5100   -3.5240   24.9300 F   0  0  0  0  0  0  0  0  0  0  0  0
    5.0770   -1.3380   24.1820 C   0  0  0  0  0  0  0  0  0  0  0  0
    5.7200   -0.5090   23.2490 C   0  0  0  0  0  0  0  0  0  0  0  0
    6.2830    0.2420   20.1620 C   0  0  0  0  0  0  0  0  0  0  0  0
    5.2940    1.2170   20.3720 C   0  0  0  0  0  0  0  0  0  0  0  0
    4.6600    1.7670   19.2480 C   0  0  0  0  0  0  0  0  0  0  0  0
    5.0290    1.3400   17.9640 C   0  0  0  0  0  0  0  0  0  0  0  0
    5.9550    0.3800   17.7470 N   0  0  0  0  0  0  0  0  0  0  0  0
    6.5760   -0.1310   18.8310 C   0  0  0  0  0  0  0  0  0  0  0  0
  1  2  2  0
  2  3  1  0
  2 10  1  0
  3  4  1  0
  4  5  2  0
  4  9  1  0
  5  6  1  0
  6  7  2  0
  7  8  1  0
  8  9  2  0
 10 18  1  0
 10 11  1  0
 11 12  2  0
 11 17  1  0
 12 13  1  0
 13 14  2  0
 14 15  1  0
 14 16  1  0
 16 17  2  0
 18 19  2  0
 18 23  1  0
 19 20  1  0
 20 21  2  0
 21 22  1  0
 22 23  2  0
M  END
