WPC0211_minimised.pdb
     RDKit          3D

 22 23  0  0  0  0  0  0  0  0999 V2000
    3.5730    3.6620   23.1610 C   0  0  0  0  0  0  0  0  0  0  0  0
    3.8450    2.2470   23.5090 N   0  0  0  0  0  0  0  0  0  0  0  0
    3.6270    1.8500   24.9130 C   0  0  0  0  0  0  0  0  0  0  0  0
    4.3200    1.3380   22.5710 C   0  0  0  0  0  0  0  0  0  0  0  0
    4.4320    0.1410   22.8000 O   0  0  0  0  0  0  0  0  0  0  0  0
    4.4890    1.9230   21.3580 O   0  0  0  0  0  0  0  0  0  0  0  0
    4.8570    1.3580   20.1600 C   0  0  0  0  0  0  0  0  0  0  0  0
    4.2440    1.8640   19.0120 C   0  0  0  0  0  0  0  0  0  0  0  0
    4.6630    1.4250   17.7520 C   0  0  0  0  0  0  0  0  0  0  0  0
    5.6020    0.4710   17.5810 N   0  0  0  0  0  0  0  0  0  0  0  0
    6.2100    0.0010   18.6890 C   0  0  0  0  0  0  0  0  0  0  0  0
    5.9070    0.4310   20.0020 C   0  0  0  0  0  0  0  0  0  0  0  0
    6.7380    0.0610   21.1000 N   0  0  0  0  0  0  0  0  0  0  0  0
    8.1120    0.1070   21.0720 C   0  0  0  0  0  0  0  0  0  0  0  0
    8.7270    0.2970   20.0430 O   0  0  0  0  0  0  0  0  0  0  0  0
    8.7370   -0.0460   22.2820 N   0  0  0  0  0  0  0  0  0  0  0  0
   10.1330    0.0810   22.4650 C   0  0  0  0  0  0  0  0  0  0  0  0
   11.0100   -0.8510   21.8870 C   0  0  0  0  0  0  0  0  0  0  0  0
   12.4000   -0.6760   21.9940 C   0  0  0  0  0  0  0  0  0  0  0  0
   12.9140    0.4350   22.6840 C   0  0  0  0  0  0  0  0  0  0  0  0
   12.0370    1.3650   23.2640 C   0  0  0  0  0  0  0  0  0  0  0  0
   10.6470    1.1860   23.1590 C   0  0  0  0  0  0  0  0  0  0  0  0
  1  2  1  0
  2  3  1  0
  2  4  1  0
  4  5  2  0
  4  6  1  0
  6  7  1  0
  7  8  2  0
  7 12  1  0
  8  9  1  0
  9 10  2  0
 10 11  1  0
 11 12  2  0
 12 13  1  0
 13 14  1  0
 14 15  2  0
 14 16  1  0
 16 17  1  0
 17 18  2  0
 17 22  1  0
 18 19  1  0
 19 20  2  0
 20 21  1  0
 21 22  2  0
M  END
