WPC0985_minimised.pdb
     RDKit          3D

 23 25  0  0  0  0  0  0  0  0999 V2000
   11.1690    2.8990   22.5520 N   0  0  0  0  0  0  0  0  0  0  0  0
   12.5310    2.8130   22.6260 C   0  0  0  0  0  0  0  0  0  0  0  0
   13.4290    3.7390   22.2270 C   0  0  0  0  0  0  0  0  0  0  0  0
   14.7140    3.1610   22.3430 C   0  0  0  0  0  0  0  0  0  0  0  0
   14.6180    1.9260   22.8040 N   0  0  0  0  0  0  0  0  0  0  0  0
   13.2890    1.7100   23.0110 N   0  0  0  0  0  0  0  0  0  0  0  0
   12.9110    0.4280   23.6110 C   0  0  0  0  0  0  0  0  0  0  0  0
   11.5000   -0.0280   23.3230 C   0  0  0  0  0  0  0  0  0  0  0  0
   11.2590   -0.7990   22.1760 C   0  0  0  0  0  0  0  0  0  0  0  0
    9.9430   -1.0600   21.7880 C   0  0  0  0  0  0  0  0  0  0  0  0
    8.8750   -0.5190   22.5170 C   0  0  0  0  0  0  0  0  0  0  0  0
    7.5880   -0.5040   21.9500 N   0  0  0  0  0  0  0  0  0  0  0  0
    7.3340   -0.0570   20.6810 C   0  0  0  0  0  0  0  0  0  0  0  0
    8.1910    0.2010   19.8540 O   0  0  0  0  0  0  0  0  0  0  0  0
    6.0000    0.1080   20.4420 N   0  0  0  0  0  0  0  0  0  0  0  0
    5.4550    0.7390   19.3010 C   0  0  0  0  0  0  0  0  0  0  0  0
    4.4670    1.7150   19.4680 C   0  0  0  0  0  0  0  0  0  0  0  0
    4.0490    2.4150   18.3300 C   0  0  0  0  0  0  0  0  0  0  0  0
    4.6430    2.1420   17.0910 C   0  0  0  0  0  0  0  0  0  0  0  0
    5.5610    1.1640   16.9120 N   0  0  0  0  0  0  0  0  0  0  0  0
    5.9610    0.4900   18.0070 C   0  0  0  0  0  0  0  0  0  0  0  0
    9.1120    0.1600   23.7200 C   0  0  0  0  0  0  0  0  0  0  0  0
   10.4310    0.3910   24.1370 C   0  0  0  0  0  0  0  0  0  0  0  0
  1  2  1  0
  2  3  2  0
  2  6  1  0
  3  4  1  0
  4  5  2  0
  5  6  1  0
  6  7  1  0
  7  8  1  0
  8 23  1  0
  8  9  2  0
  9 10  1  0
 10 11  2  0
 11 12  1  0
 11 22  1  0
 12 13  1  0
 13 14  2  0
 13 15  1  0
 15 16  1  0
 16 17  2  0
 16 21  1  0
 17 18  1  0
 18 19  2  0
 19 20  1  0
 20 21  2  0
 22 23  2  0
M  END
