WPC0795_minimised.pdb
     RDKit          3D

 21 22  0  0  0  0  0  0  0  0999 V2000
   12.0020    3.6260   22.3570 C   0  0  0  0  0  0  0  0  0  0  0  0
   13.2790    3.4140   23.0720 N   0  0  0  0  0  0  0  0  0  0  0  0
   14.0850    4.6440   23.0050 C   0  0  0  0  0  0  0  0  0  0  0  0
   14.0230    2.2140   22.6150 C   0  0  0  0  0  0  0  0  0  0  0  0
   13.6480    0.9030   23.3500 C   0  0  0  0  0  0  0  0  0  0  0  0
   12.2330    0.4180   23.1070 C   0  0  0  0  0  0  0  0  0  0  0  0
   11.9550   -0.3950   21.9980 C   0  0  0  0  0  0  0  0  0  0  0  0
   10.6310   -0.7560   21.7210 C   0  0  0  0  0  0  0  0  0  0  0  0
    9.5820   -0.2850   22.5240 C   0  0  0  0  0  0  0  0  0  0  0  0
    8.2460   -0.4370   22.1020 N   0  0  0  0  0  0  0  0  0  0  0  0
    7.7990   -0.0910   20.8540 C   0  0  0  0  0  0  0  0  0  0  0  0
    8.5260    0.2180   19.9280 O   0  0  0  0  0  0  0  0  0  0  0  0
    6.4370   -0.0820   20.7410 N   0  0  0  0  0  0  0  0  0  0  0  0
    5.7450    0.4660   19.6350 C   0  0  0  0  0  0  0  0  0  0  0  0
    4.7800    1.4560   19.8580 C   0  0  0  0  0  0  0  0  0  0  0  0
    4.2340    2.0950   18.7380 C   0  0  0  0  0  0  0  0  0  0  0  0
    4.6730    1.7400   17.4540 C   0  0  0  0  0  0  0  0  0  0  0  0
    5.5670    0.7510   17.2260 N   0  0  0  0  0  0  0  0  0  0  0  0
    6.1020    0.1460   18.3060 C   0  0  0  0  0  0  0  0  0  0  0  0
    9.8650    0.4570   23.6790 C   0  0  0  0  0  0  0  0  0  0  0  0
   11.1930    0.7970   23.9770 C   0  0  0  0  0  0  0  0  0  0  0  0
  1  2  1  0
  2  3  1  0
  2  4  1  0
  4  5  1  0
  5  6  1  0
  6 21  2  0
  6  7  1  0
  7  8  2  0
  8  9  1  0
  9 10  1  0
  9 20  2  0
 10 11  1  0
 11 12  2  0
 11 13  1  0
 13 14  1  0
 14 15  2  0
 14 19  1  0
 15 16  1  0
 16 17  2  0
 17 18  1  0
 18 19  2  0
 20 21  1  0
M  END
