WPC0450_minimised.pdb
     RDKit          3D

 21 22  0  0  0  0  0  0  0  0999 V2000
   11.8990    4.1230   23.2740 C   0  0  0  0  0  0  0  0  0  0  0  0
   13.3500    3.7520   23.1650 C   0  0  0  0  0  0  0  0  0  0  0  0
   14.3060    4.5760   23.2990 N   0  0  0  0  0  0  0  0  0  0  0  0
   13.6830    2.4700   22.8480 N   0  0  0  0  0  0  0  0  0  0  0  0
   13.3710    1.2330   23.5770 C   0  0  0  0  0  0  0  0  0  0  0  0
   12.0120    0.6690   23.2350 C   0  0  0  0  0  0  0  0  0  0  0  0
   11.8690   -0.2210   22.1590 C   0  0  0  0  0  0  0  0  0  0  0  0
   10.5950   -0.6790   21.8010 C   0  0  0  0  0  0  0  0  0  0  0  0
    9.4650   -0.2440   22.5080 C   0  0  0  0  0  0  0  0  0  0  0  0
    8.1690   -0.5130   22.0260 N   0  0  0  0  0  0  0  0  0  0  0  0
    7.7620   -0.2220   20.7520 C   0  0  0  0  0  0  0  0  0  0  0  0
    8.5120    0.0460   19.8320 O   0  0  0  0  0  0  0  0  0  0  0  0
    6.4020   -0.1900   20.6250 N   0  0  0  0  0  0  0  0  0  0  0  0
    5.7290    0.4070   19.5350 C   0  0  0  0  0  0  0  0  0  0  0  0
    4.7780    1.4020   19.7900 C   0  0  0  0  0  0  0  0  0  0  0  0
    4.2450    2.0890   18.6920 C   0  0  0  0  0  0  0  0  0  0  0  0
    4.6870    1.7750   17.3980 C   0  0  0  0  0  0  0  0  0  0  0  0
    5.5700    0.7840   17.1400 N   0  0  0  0  0  0  0  0  0  0  0  0
    6.0880    0.1290   18.1980 C   0  0  0  0  0  0  0  0  0  0  0  0
    9.6140    0.5760   23.6340 C   0  0  0  0  0  0  0  0  0  0  0  0
   10.8890    1.0240   24.0050 C   0  0  0  0  0  0  0  0  0  0  0  0
  1  2  1  0
  2  3  2  0
  2  4  1  0
  4  5  1  0
  5  6  1  0
  6 21  2  0
  6  7  1  0
  7  8  2  0
  8  9  1  0
  9 10  1  0
  9 20  2  0
 10 11  1  0
 11 12  2  0
 11 13  1  0
 13 14  1  0
 14 15  2  0
 14 19  1  0
 15 16  1  0
 16 17  2  0
 17 18  1  0
 18 19  2  0
 20 21  1  0
M  END
