WPC0587_minimised.pdb
     RDKit          3D

 21 22  0  0  0  0  0  0  0  0999 V2000
   12.7730    5.2300   24.2620 O   0  0  0  0  0  0  0  0  0  0  0  0
   12.3710    4.8800   23.1710 C   0  0  0  0  0  0  0  0  0  0  0  0
   11.1280    5.1920   22.7590 O   0  0  0  0  0  0  0  0  0  0  0  0
   13.2420    4.1310   22.1740 C   0  0  0  0  0  0  0  0  0  0  0  0
   13.7890    2.4830   22.8180 S   0  0  0  0  0  0  0  0  0  0  0  0
   12.3000    1.5160   22.8440 C   0  0  0  0  0  0  0  0  0  0  0  0
   12.1950    0.4130   21.9850 C   0  0  0  0  0  0  0  0  0  0  0  0
   10.9630   -0.2410   21.8390 C   0  0  0  0  0  0  0  0  0  0  0  0
    9.8400    0.2110   22.5520 C   0  0  0  0  0  0  0  0  0  0  0  0
    8.5470   -0.2220   22.1920 N   0  0  0  0  0  0  0  0  0  0  0  0
    8.0450   -0.0500   20.9290 C   0  0  0  0  0  0  0  0  0  0  0  0
    8.7350    0.2190   19.9640 O   0  0  0  0  0  0  0  0  0  0  0  0
    6.6820   -0.1210   20.8430 N   0  0  0  0  0  0  0  0  0  0  0  0
    5.9500    0.3910   19.7420 C   0  0  0  0  0  0  0  0  0  0  0  0
    4.9950    1.3890   19.9710 C   0  0  0  0  0  0  0  0  0  0  0  0
    4.4240    2.0150   18.8560 C   0  0  0  0  0  0  0  0  0  0  0  0
    4.8340    1.6440   17.5680 C   0  0  0  0  0  0  0  0  0  0  0  0
    5.7150    0.6440   17.3350 N   0  0  0  0  0  0  0  0  0  0  0  0
    6.2700    0.0470   18.4100 C   0  0  0  0  0  0  0  0  0  0  0  0
    9.9760    1.2400   23.4970 C   0  0  0  0  0  0  0  0  0  0  0  0
   11.2100    1.8890   23.6490 C   0  0  0  0  0  0  0  0  0  0  0  0
  1  2  2  0
  2  3  1  0
  2  4  1  0
  4  5  1  0
  5  6  1  0
  6 21  2  0
  6  7  1  0
  7  8  2  0
  8  9  1  0
  9 10  1  0
  9 20  2  0
 10 11  1  0
 11 12  2  0
 11 13  1  0
 13 14  1  0
 14 15  2  0
 14 19  1  0
 15 16  1  0
 16 17  2  0
 17 18  1  0
 18 19  2  0
 20 21  1  0
M  END
