WPC0613_minimised.pdb
     RDKit          3D

 22 23  0  0  0  0  0  0  0  0999 V2000
   13.4430    5.3570   22.2890 C   0  0  0  0  0  0  0  0  0  0  0  0
   13.8010    3.9490   22.4270 N   0  0  0  0  0  0  0  0  0  0  0  0
   13.1010    3.0700   23.1960 C   0  0  0  0  0  0  0  0  0  0  0  0
   12.2470    3.3880   24.0000 O   0  0  0  0  0  0  0  0  0  0  0  0
   13.7340    1.8780   23.1040 O   0  0  0  0  0  0  0  0  0  0  0  0
   13.3030    0.7400   23.8540 C   0  0  0  0  0  0  0  0  0  0  0  0
   11.9230    0.2990   23.4200 C   0  0  0  0  0  0  0  0  0  0  0  0
   11.7660   -0.4910   22.2700 C   0  0  0  0  0  0  0  0  0  0  0  0
   10.4790   -0.8300   21.8310 C   0  0  0  0  0  0  0  0  0  0  0  0
    9.3520   -0.3680   22.5270 C   0  0  0  0  0  0  0  0  0  0  0  0
    8.0600   -0.5320   21.9930 N   0  0  0  0  0  0  0  0  0  0  0  0
    7.7060   -0.1900   20.7170 C   0  0  0  0  0  0  0  0  0  0  0  0
    8.4900    0.0560   19.8200 O   0  0  0  0  0  0  0  0  0  0  0  0
    6.3520   -0.0980   20.5600 N   0  0  0  0  0  0  0  0  0  0  0  0
    5.7120    0.5150   19.4590 C   0  0  0  0  0  0  0  0  0  0  0  0
    4.7450    1.4980   19.6980 C   0  0  0  0  0  0  0  0  0  0  0  0
    4.2330    2.1880   18.5920 C   0  0  0  0  0  0  0  0  0  0  0  0
    4.7130    1.8920   17.3090 C   0  0  0  0  0  0  0  0  0  0  0  0
    5.6120    0.9110   17.0650 N   0  0  0  0  0  0  0  0  0  0  0  0
    6.1080    0.2510   18.1300 C   0  0  0  0  0  0  0  0  0  0  0  0
    9.5080    0.3680   23.7090 C   0  0  0  0  0  0  0  0  0  0  0  0
   10.7940    0.6970   24.1600 C   0  0  0  0  0  0  0  0  0  0  0  0
  1  2  1  0
  2  3  1  0
  3  4  2  0
  3  5  1  0
  5  6  1  0
  6  7  1  0
  7 22  2  0
  7  8  1  0
  8  9  2  0
  9 10  1  0
 10 11  1  0
 10 21  2  0
 11 12  1  0
 12 13  2  0
 12 14  1  0
 14 15  1  0
 15 16  2  0
 15 20  1  0
 16 17  1  0
 17 18  2  0
 18 19  1  0
 19 20  2  0
 21 22  1  0
M  END
