WPC0716_minimised.pdb
     RDKit          3D

 22 23  0  0  1  0  0  0  0  0999 V2000
   13.5100    4.9730   21.8770 C   0  0  0  0  0  0  0  0  0  0  0  0
   12.6100    4.7690   23.1110 C   0  0  2  0  0  0  0  0  0  0  0  0
   13.2780    5.2770   24.2650 O   0  0  0  0  0  0  0  0  0  0  0  0
   12.2050    3.2900   23.3540 C   0  0  0  0  0  0  0  0  0  0  0  0
   13.3430    2.3450   23.2720 N   0  0  0  0  0  0  0  0  0  0  0  0
   13.1420    0.9900   23.8140 C   0  0  0  0  0  0  0  0  0  0  0  0
   11.8190    0.3740   23.4150 C   0  0  0  0  0  0  0  0  0  0  0  0
   11.7210   -0.3640   22.2270 C   0  0  0  0  0  0  0  0  0  0  0  0
   10.4680   -0.8170   21.7960 C   0  0  0  0  0  0  0  0  0  0  0  0
    9.3140   -0.5080   22.5320 C   0  0  0  0  0  0  0  0  0  0  0  0
    8.0330   -0.7130   21.9800 N   0  0  0  0  0  0  0  0  0  0  0  0
    7.6740   -0.3160   20.7200 C   0  0  0  0  0  0  0  0  0  0  0  0
    8.4530   -0.0120   19.8360 O   0  0  0  0  0  0  0  0  0  0  0  0
    6.3200   -0.2300   20.5620 N   0  0  0  0  0  0  0  0  0  0  0  0
    5.6890    0.4190   19.4770 C   0  0  0  0  0  0  0  0  0  0  0  0
    4.7400    1.4160   19.7370 C   0  0  0  0  0  0  0  0  0  0  0  0
    4.2430    2.1380   18.6450 C   0  0  0  0  0  0  0  0  0  0  0  0
    4.7170    1.8600   17.3550 C   0  0  0  0  0  0  0  0  0  0  0  0
    5.6020    0.8720   17.0930 N   0  0  0  0  0  0  0  0  0  0  0  0
    6.0840    0.1800   18.1440 C   0  0  0  0  0  0  0  0  0  0  0  0
    9.4230    0.1480   23.7650 C   0  0  0  0  0  0  0  0  0  0  0  0
   10.6790    0.5800   24.2130 C   0  0  0  0  0  0  0  0  0  0  0  0
  2  1  1  6
  2  3  1  0
  2  4  1  0
  4  5  1  0
  5  6  1  0
  6  7  1  0
  7 22  2  0
  7  8  1  0
  8  9  2  0
  9 10  1  0
 10 11  1  0
 10 21  2  0
 11 12  1  0
 12 13  2  0
 12 14  1  0
 14 15  1  0
 15 16  2  0
 15 20  1  0
 16 17  1  0
 17 18  2  0
 18 19  1  0
 19 20  2  0
 21 22  1  0
M  END
