WPC0313_minimised.pdb
     RDKit          3D

 23 25  0  0  0  0  0  0  0  0999 V2000
    9.4140    1.0270   20.7130 O   0  0  0  0  0  0  0  0  0  0  0  0
    8.9270    0.3240   21.5760 C   0  0  0  0  0  0  0  0  0  0  0  0
    7.5980   -0.0210   21.5040 N   0  0  0  0  0  0  0  0  0  0  0  0
    6.7560    0.3570   20.4210 C   0  0  0  0  0  0  0  0  0  0  0  0
    5.7230    1.2830   20.6210 C   0  0  0  0  0  0  0  0  0  0  0  0
    5.0430    1.7590   19.4890 C   0  0  0  0  0  0  0  0  0  0  0  0
    5.3990    1.2900   18.2130 C   0  0  0  0  0  0  0  0  0  0  0  0
    6.3610    0.3630   18.0120 N   0  0  0  0  0  0  0  0  0  0  0  0
    7.0410   -0.0620   19.1010 C   0  0  0  0  0  0  0  0  0  0  0  0
    9.6800   -0.1760   22.6280 N   0  0  0  0  0  0  0  0  0  0  0  0
   11.0760    0.0590   22.6540 C   0  0  0  0  0  0  0  0  0  0  0  0
   11.9610   -0.9300   22.1910 C   0  0  0  0  0  0  0  0  0  0  0  0
   13.3390   -0.6650   22.1210 C   0  0  0  0  0  0  0  0  0  0  0  0
   13.8300    0.5870   22.5260 C   0  0  0  0  0  0  0  0  0  0  0  0
   12.9460    1.5740   22.9850 C   0  0  0  0  0  0  0  0  0  0  0  0
   11.5700    1.3130   23.0460 C   0  0  0  0  0  0  0  0  0  0  0  0
    9.1940   -0.9410   23.7170 C   0  0  0  0  0  0  0  0  0  0  0  0
    8.9120   -2.3090   23.5560 C   0  0  0  0  0  0  0  0  0  0  0  0
    8.5030   -3.0770   24.6610 C   0  0  0  0  0  0  0  0  0  0  0  0
    8.3810   -2.4760   25.9230 C   0  0  0  0  0  0  0  0  0  0  0  0
    7.9960   -3.2170   26.9800 F   0  0  0  0  0  0  0  0  0  0  0  0
    8.6750   -1.1140   26.0930 C   0  0  0  0  0  0  0  0  0  0  0  0
    9.0840   -0.3470   24.9890 C   0  0  0  0  0  0  0  0  0  0  0  0
  1  2  2  0
  2  3  1  0
  2 10  1  0
  3  4  1  0
  4  5  2  0
  4  9  1  0
  5  6  1  0
  6  7  2  0
  7  8  1  0
  8  9  2  0
 10 17  1  0
 10 11  1  0
 11 12  2  0
 11 16  1  0
 12 13  1  0
 13 14  2  0
 14 15  1  0
 15 16  2  0
 17 18  2  0
 17 23  1  0
 18 19  1  0
 19 20  2  0
 20 21  1  0
 20 22  1  0
 22 23  2  0
M  END
