WPC0474_minimised.pdb
     RDKit          3D

 22 23  0  0  0  0  0  0  0  0999 V2000
   12.0440    5.3070   23.3060 C   0  0  0  0  0  0  0  0  0  0  0  0
   13.2370    4.4580   22.8940 C   0  0  0  0  0  0  0  0  0  0  0  0
   14.3110    4.9470   22.5930 O   0  0  0  0  0  0  0  0  0  0  0  0
   13.0400    2.9940   22.9920 C   0  0  0  0  0  0  0  0  0  0  0  0
   14.0740    2.1320   22.8780 C   0  0  0  0  0  0  0  0  0  0  0  0
   13.9820    0.4120   23.1320 S   0  0  0  0  0  0  0  0  0  0  0  0
   12.2670   -0.0360   22.9920 C   0  0  0  0  0  0  0  0  0  0  0  0
   11.8750   -0.8090   21.8930 C   0  0  0  0  0  0  0  0  0  0  0  0
   10.5170   -1.0630   21.6790 C   0  0  0  0  0  0  0  0  0  0  0  0
    9.5490   -0.5130   22.5310 C   0  0  0  0  0  0  0  0  0  0  0  0
    8.1970   -0.5160   22.1330 N   0  0  0  0  0  0  0  0  0  0  0  0
    7.7760   -0.1010   20.8950 C   0  0  0  0  0  0  0  0  0  0  0  0
    8.5260    0.1960   19.9840 O   0  0  0  0  0  0  0  0  0  0  0  0
    6.4180   -0.0240   20.7710 N   0  0  0  0  0  0  0  0  0  0  0  0
    5.7490    0.5340   19.6540 C   0  0  0  0  0  0  0  0  0  0  0  0
    4.7800    1.5220   19.8620 C   0  0  0  0  0  0  0  0  0  0  0  0
    4.2460    2.1560   18.7320 C   0  0  0  0  0  0  0  0  0  0  0  0
    4.7030    1.8000   17.4550 C   0  0  0  0  0  0  0  0  0  0  0  0
    5.5980    0.8100   17.2420 N   0  0  0  0  0  0  0  0  0  0  0  0
    6.1200    0.2080   18.3300 C   0  0  0  0  0  0  0  0  0  0  0  0
    9.9440    0.1640   23.6920 C   0  0  0  0  0  0  0  0  0  0  0  0
   11.3100    0.3810   23.9350 C   0  0  0  0  0  0  0  0  0  0  0  0
  1  2  1  0
  2  3  2  0
  2  4  1  0
  4  5  2  0
  5  6  1  0
  6  7  1  0
  7 22  2  0
  7  8  1  0
  8  9  2  0
  9 10  1  0
 10 11  1  0
 10 21  2  0
 11 12  1  0
 12 13  2  0
 12 14  1  0
 14 15  1  0
 15 16  2  0
 15 20  1  0
 16 17  1  0
 17 18  2  0
 18 19  1  0
 19 20  2  0
 21 22  1  0
M  END
