WPC0479_minimised.pdb
     RDKit          3D

 20 21  0  0  0  0  0  0  0  0999 V2000
    8.6330    0.1860   19.8710 O   0  0  0  0  0  0  0  0  0  0  0  0
    7.8790   -0.0030   20.8070 C   0  0  0  0  0  0  0  0  0  0  0  0
    8.2910   -0.2730   22.0840 N   0  0  0  0  0  0  0  0  0  0  0  0
    9.6310   -0.1660   22.5030 C   0  0  0  0  0  0  0  0  0  0  0  0
   10.6340   -0.8660   21.8180 C   0  0  0  0  0  0  0  0  0  0  0  0
   11.9830   -0.5940   22.0760 C   0  0  0  0  0  0  0  0  0  0  0  0
   12.3290    0.3670   23.0390 C   0  0  0  0  0  0  0  0  0  0  0  0
   13.7810    0.7490   23.2260 C   0  0  0  0  0  0  0  0  0  0  0  0
   14.2300    1.7920   22.1840 C   0  0  0  0  0  0  0  0  0  0  0  0
   13.6440    3.2070   22.3950 C   0  0  0  0  0  0  0  0  0  0  0  0
   14.5010    3.9780   23.2320 O   0  0  0  0  0  0  0  0  0  0  0  0
   11.3210    1.0090   23.7830 C   0  0  0  0  0  0  0  0  0  0  0  0
    9.9710    0.7460   23.5110 C   0  0  0  0  0  0  0  0  0  0  0  0
    6.5210    0.0820   20.6890 N   0  0  0  0  0  0  0  0  0  0  0  0
    5.8460    0.6160   19.5660 C   0  0  0  0  0  0  0  0  0  0  0  0
    4.8660    1.5940   19.7710 C   0  0  0  0  0  0  0  0  0  0  0  0
    4.3210    2.2130   18.6400 C   0  0  0  0  0  0  0  0  0  0  0  0
    4.7810    1.8580   17.3650 C   0  0  0  0  0  0  0  0  0  0  0  0
    5.6840    0.8740   17.1550 N   0  0  0  0  0  0  0  0  0  0  0  0
    6.2120    0.2810   18.2440 C   0  0  0  0  0  0  0  0  0  0  0  0
  1  2  2  0
  2  3  1  0
  2 14  1  0
  3  4  1  0
  4  5  2  0
  4 13  1  0
  5  6  1  0
  6  7  2  0
  7  8  1  0
  7 12  1  0
  8  9  1  0
  9 10  1  0
 10 11  1  0
 12 13  2  0
 14 15  1  0
 15 16  2  0
 15 20  1  0
 16 17  1  0
 17 18  2  0
 18 19  1  0
 19 20  2  0
M  END
