WPC0857_minimised.pdb
     RDKit          3D

 24 26  0  0  0  0  0  0  0  0999 V2000
   13.5410    5.0280   21.9010 C   0  0  0  0  0  0  0  0  0  0  0  0
   13.6740    3.6030   22.3540 C   0  0  0  0  0  0  0  0  0  0  0  0
   14.9120    2.9270   22.4320 C   0  0  0  0  0  0  0  0  0  0  0  0
   14.7110    1.6950   22.8640 N   0  0  0  0  0  0  0  0  0  0  0  0
   13.3690    1.5870   23.0790 N   0  0  0  0  0  0  0  0  0  0  0  0
   12.8980    0.3270   23.6560 C   0  0  0  0  0  0  0  0  0  0  0  0
   11.4650   -0.0430   23.3510 C   0  0  0  0  0  0  0  0  0  0  0  0
   11.1900   -0.8010   22.2040 C   0  0  0  0  0  0  0  0  0  0  0  0
    9.8650   -1.0050   21.8130 C   0  0  0  0  0  0  0  0  0  0  0  0
    8.8180   -0.4300   22.5490 C   0  0  0  0  0  0  0  0  0  0  0  0
    7.5240   -0.3890   22.0010 N   0  0  0  0  0  0  0  0  0  0  0  0
    7.2590    0.0350   20.7260 C   0  0  0  0  0  0  0  0  0  0  0  0
    8.1080    0.2650   19.8850 O   0  0  0  0  0  0  0  0  0  0  0  0
    5.9230    0.2060   20.4980 N   0  0  0  0  0  0  0  0  0  0  0  0
    5.3740    0.8060   19.3440 C   0  0  0  0  0  0  0  0  0  0  0  0
    4.3960    1.7960   19.4920 C   0  0  0  0  0  0  0  0  0  0  0  0
    3.9740    2.4670   18.3380 C   0  0  0  0  0  0  0  0  0  0  0  0
    4.5500    2.1480   17.1010 C   0  0  0  0  0  0  0  0  0  0  0  0
    5.4560    1.1560   16.9420 N   0  0  0  0  0  0  0  0  0  0  0  0
    5.8640    0.5130   18.0530 C   0  0  0  0  0  0  0  0  0  0  0  0
    9.0860    0.2430   23.7500 C   0  0  0  0  0  0  0  0  0  0  0  0
   10.4140    0.4230   24.1640 C   0  0  0  0  0  0  0  0  0  0  0  0
   12.6890    2.7450   22.7060 C   0  0  0  0  0  0  0  0  0  0  0  0
   11.3320    2.9210   22.6380 N   0  0  0  0  0  0  0  0  0  0  0  0
  1  2  1  0
  2 23  2  0
  2  3  1  0
  3  4  2  0
  4  5  1  0
  5  6  1  0
  5 23  1  0
  6  7  1  0
  7 22  1  0
  7  8  2  0
  8  9  1  0
  9 10  2  0
 10 11  1  0
 10 21  1  0
 11 12  1  0
 12 13  2  0
 12 14  1  0
 14 15  1  0
 15 16  2  0
 15 20  1  0
 16 17  1  0
 17 18  2  0
 18 19  1  0
 19 20  2  0
 21 22  2  0
 23 24  1  0
M  END
