WPC0423_minimised.pdb
     RDKit          3D

 21 22  0  0  0  0  0  0  0  0999 V2000
   14.2390    4.5400   22.5150 C   0  0  0  0  0  0  0  0  0  0  0  0
   13.5370    3.2370   22.1640 C   0  0  0  0  0  0  0  0  0  0  0  0
   12.3460    3.2190   21.9390 O   0  0  0  0  0  0  0  0  0  0  0  0
   14.4010    1.9820   22.0660 C   0  0  0  0  0  0  0  0  0  0  0  0
   14.0050    0.7210   23.3500 S   0  0  0  0  0  0  0  0  0  0  0  0
   12.2990    0.3180   23.0690 C   0  0  0  0  0  0  0  0  0  0  0  0
   11.9570   -0.6710   22.1360 C   0  0  0  0  0  0  0  0  0  0  0  0
   10.6050   -0.9460   21.8750 C   0  0  0  0  0  0  0  0  0  0  0  0
    9.5970   -0.2270   22.5390 C   0  0  0  0  0  0  0  0  0  0  0  0
    8.2440   -0.3700   22.1650 N   0  0  0  0  0  0  0  0  0  0  0  0
    7.7850   -0.2200   20.8840 C   0  0  0  0  0  0  0  0  0  0  0  0
    8.4990   -0.1930   19.9030 O   0  0  0  0  0  0  0  0  0  0  0  0
    6.4320   -0.0350   20.8040 N   0  0  0  0  0  0  0  0  0  0  0  0
    5.7660    0.5080   19.6780 C   0  0  0  0  0  0  0  0  0  0  0  0
    4.8430    1.5410   19.8800 C   0  0  0  0  0  0  0  0  0  0  0  0
    4.3110    2.1700   18.7480 C   0  0  0  0  0  0  0  0  0  0  0  0
    4.7280    1.7690   17.4710 C   0  0  0  0  0  0  0  0  0  0  0  0
    5.5780    0.7380   17.2640 N   0  0  0  0  0  0  0  0  0  0  0  0
    6.0910    0.1330   18.3540 C   0  0  0  0  0  0  0  0  0  0  0  0
    9.9420    0.7250   23.5090 C   0  0  0  0  0  0  0  0  0  0  0  0
   11.2920    0.9950   23.7760 C   0  0  0  0  0  0  0  0  0  0  0  0
  1  2  1  0
  2  3  2  0
  2  4  1  0
  4  5  1  0
  5  6  1  0
  6 21  2  0
  6  7  1  0
  7  8  2  0
  8  9  1  0
  9 10  1  0
  9 20  2  0
 10 11  1  0
 11 12  2  0
 11 13  1  0
 13 14  1  0
 14 15  2  0
 14 19  1  0
 15 16  1  0
 16 17  2  0
 17 18  1  0
 18 19  2  0
 20 21  1  0
M  END
