WPC0901_minimised.pdb
     RDKit          3D

 24 26  0  0  0  0  0  0  0  0999 V2000
    8.5750   -0.0820   19.8670 O   0  0  0  0  0  0  0  0  0  0  0  0
    7.8000   -0.3270   20.7720 C   0  0  0  0  0  0  0  0  0  0  0  0
    8.1680   -0.6930   22.0390 N   0  0  0  0  0  0  0  0  0  0  0  0
    9.4680   -0.5340   22.5530 C   0  0  0  0  0  0  0  0  0  0  0  0
   10.5790   -1.0360   21.8590 C   0  0  0  0  0  0  0  0  0  0  0  0
   11.8760   -0.6690   22.2410 C   0  0  0  0  0  0  0  0  0  0  0  0
   12.0620    0.2030   23.3270 C   0  0  0  0  0  0  0  0  0  0  0  0
   13.4450    0.7220   23.6710 C   0  0  0  0  0  0  0  0  0  0  0  0
   13.8100    1.9200   22.9070 N   0  0  0  0  0  0  0  0  0  0  0  0
   13.3020    3.1650   23.0370 C   0  0  0  0  0  0  0  0  0  0  0  0
   12.2390    3.3600   23.7920 N   0  0  0  0  0  0  0  0  0  0  0  0
   11.8730    4.6310   23.8770 C   0  0  0  0  0  0  0  0  0  0  0  0
   12.5400    5.6590   23.3580 N   0  0  0  0  0  0  0  0  0  0  0  0
   13.6190    5.3160   22.6530 C   0  0  0  0  0  0  0  0  0  0  0  0
   14.0500    4.0760   22.4540 N   0  0  0  0  0  0  0  0  0  0  0  0
   10.9500    0.6080   24.0900 C   0  0  0  0  0  0  0  0  0  0  0  0
    9.6540    0.2500   23.6980 C   0  0  0  0  0  0  0  0  0  0  0  0
    6.4450   -0.2060   20.6380 N   0  0  0  0  0  0  0  0  0  0  0  0
    5.7910    0.4110   19.5470 C   0  0  0  0  0  0  0  0  0  0  0  0
    4.8330    1.3990   19.8020 C   0  0  0  0  0  0  0  0  0  0  0  0
    4.2860    2.0750   18.7050 C   0  0  0  0  0  0  0  0  0  0  0  0
    4.7200    1.7580   17.4100 C   0  0  0  0  0  0  0  0  0  0  0  0
    5.6120    0.7750   17.1520 N   0  0  0  0  0  0  0  0  0  0  0  0
    6.1480    0.1330   18.2090 C   0  0  0  0  0  0  0  0  0  0  0  0
  1  2  2  0
  2  3  1  0
  2 18  1  0
  3  4  1  0
  4  5  2  0
  4 17  1  0
  5  6  1  0
  6  7  2  0
  7  8  1  0
  7 16  1  0
  8  9  1  0
  9 10  1  0
 10 11  2  0
 10 15  1  0
 11 12  1  0
 12 13  2  0
 13 14  1  0
 14 15  2  0
 16 17  2  0
 18 19  1  0
 19 20  2  0
 19 24  1  0
 20 21  1  0
 21 22  2  0
 22 23  1  0
 23 24  2  0
M  END
