WPC0400_minimised.pdb
     RDKit          3D

 17 18  0  0  0  0  0  0  0  0999 V2000
    8.8140    0.2180   19.8990 O   0  0  0  0  0  0  0  0  0  0  0  0
    8.1900    0.0920   20.9310 C   0  0  0  0  0  0  0  0  0  0  0  0
    8.7930   -0.0330   22.1530 N   0  0  0  0  0  0  0  0  0  0  0  0
   10.1880    0.0950   22.3500 C   0  0  0  0  0  0  0  0  0  0  0  0
   11.0450   -0.9770   22.0510 C   0  0  0  0  0  0  0  0  0  0  0  0
   12.4370   -0.8110   22.1550 C   0  0  0  0  0  0  0  0  0  0  0  0
   12.9700    0.4220   22.5560 C   0  0  0  0  0  0  0  0  0  0  0  0
   14.3170    0.5830   22.6190 O   0  0  0  0  0  0  0  0  0  0  0  0
   12.1160    1.4920   22.8600 C   0  0  0  0  0  0  0  0  0  0  0  0
   10.7230    1.3300   22.7540 C   0  0  0  0  0  0  0  0  0  0  0  0
    6.8200    0.1190   20.9470 N   0  0  0  0  0  0  0  0  0  0  0  0
    6.0310    0.5430   19.8450 C   0  0  0  0  0  0  0  0  0  0  0  0
    5.0620    1.5330   20.0500 C   0  0  0  0  0  0  0  0  0  0  0  0
    4.4270    2.0680   18.9210 C   0  0  0  0  0  0  0  0  0  0  0  0
    4.7890    1.6190   17.6430 C   0  0  0  0  0  0  0  0  0  0  0  0
    5.6760    0.6200   17.4370 N   0  0  0  0  0  0  0  0  0  0  0  0
    6.2890    0.1070   18.5250 C   0  0  0  0  0  0  0  0  0  0  0  0
  1  2  2  0
  2  3  1  0
  2 11  1  0
  3  4  1  0
  4  5  2  0
  4 10  1  0
  5  6  1  0
  6  7  2  0
  7  8  1  0
  7  9  1  0
  9 10  2  0
 11 12  1  0
 12 13  2  0
 12 17  1  0
 13 14  1  0
 14 15  2  0
 15 16  1  0
 16 17  2  0
M  END
