WPC0445_minimised.pdb
     RDKit          3D

 17 18  0  0  0  0  0  0  0  0999 V2000
   14.1160    0.7430   22.8010 C   0  0  0  0  0  0  0  0  0  0  0  0
   12.6280    0.4790   22.7020 C   0  0  0  0  0  0  0  0  0  0  0  0
   12.1610   -0.6380   21.9890 C   0  0  0  0  0  0  0  0  0  0  0  0
   10.7830   -0.8530   21.8440 C   0  0  0  0  0  0  0  0  0  0  0  0
    9.8670    0.0500   22.4050 C   0  0  0  0  0  0  0  0  0  0  0  0
    8.4910   -0.0780   22.1280 N   0  0  0  0  0  0  0  0  0  0  0  0
    7.9610    0.0700   20.8750 C   0  0  0  0  0  0  0  0  0  0  0  0
    8.6370    0.1850   19.8730 O   0  0  0  0  0  0  0  0  0  0  0  0
    6.5950    0.1290   20.8410 N   0  0  0  0  0  0  0  0  0  0  0  0
    5.8510    0.5920   19.7260 C   0  0  0  0  0  0  0  0  0  0  0  0
    4.8840    1.5840   19.9270 C   0  0  0  0  0  0  0  0  0  0  0  0
    4.2900    2.1530   18.7940 C   0  0  0  0  0  0  0  0  0  0  0  0
    4.6880    1.7320   17.5170 C   0  0  0  0  0  0  0  0  0  0  0  0
    5.5740    0.7320   17.3130 N   0  0  0  0  0  0  0  0  0  0  0  0
    6.1500    0.1880   18.4050 C   0  0  0  0  0  0  0  0  0  0  0  0
   10.3290    1.1510   23.1400 C   0  0  0  0  0  0  0  0  0  0  0  0
   11.7080    1.3660   23.2880 C   0  0  0  0  0  0  0  0  0  0  0  0
  1  2  1  0
  2  3  2  0
  2 17  1  0
  3  4  1  0
  4  5  2  0
  5 16  1  0
  5  6  1  0
  6  7  1  0
  7  8  2  0
  7  9  1  0
  9 10  1  0
 10 11  2  0
 10 15  1  0
 11 12  1  0
 12 13  2  0
 13 14  1  0
 14 15  2  0
 16 17  2  0
M  END
