WPC0494_minimised.pdb
     RDKit          3D

 24 25  0  0  1  0  0  0  0  0999 V2000
   13.2360    5.4040   23.9910 N   0  0  0  0  0  0  0  0  0  0  0  0
   12.8410    4.8950   22.9120 C   0  0  0  0  0  0  0  0  0  0  0  0
   13.1830    5.4200   21.7280 N   0  0  0  0  0  0  0  0  0  0  0  0
   12.9830    3.5810   22.6830 N   0  0  0  0  0  0  0  0  0  0  0  0
   12.4700    2.6030   23.4500 C   0  0  0  0  0  0  0  0  0  0  0  0
   11.5890    2.7450   24.2700 O   0  0  0  0  0  0  0  0  0  0  0  0
   13.1350    1.4380   23.2080 N   0  0  0  0  0  0  0  0  0  0  0  0
   12.8670    0.1850   23.8890 C   0  0  0  0  0  0  0  0  0  0  0  0
   11.5110   -0.3560   23.5030 C   0  0  0  0  0  0  0  0  0  0  0  0
   11.3650   -1.1010   22.3230 C   0  0  0  0  0  0  0  0  0  0  0  0
   10.0820   -1.3960   21.8470 C   0  0  0  0  0  0  0  0  0  0  0  0
    8.9530   -0.9240   22.5310 C   0  0  0  0  0  0  0  0  0  0  0  0
    7.6910   -0.9310   21.9110 N   0  0  0  0  0  0  0  0  0  0  0  0
    7.4620   -0.4400   20.6540 C   0  0  0  0  0  0  0  0  0  0  0  0
    8.3220   -0.2230   19.8190 O   0  0  0  0  0  0  0  0  0  0  0  0
    6.1400   -0.1680   20.4460 N   0  0  0  0  0  0  0  0  0  0  0  0
    5.6130    0.5450   19.3450 C   0  0  0  0  0  0  0  0  0  0  0  0
    4.6530    1.5390   19.5730 C   0  0  0  0  0  0  0  0  0  0  0  0
    4.2320    2.2990   18.4750 C   0  0  0  0  0  0  0  0  0  0  0  0
    4.7950    2.0660   17.2130 C   0  0  0  0  0  0  0  0  0  0  0  0
    5.6920    1.0830   16.9780 N   0  0  0  0  0  0  0  0  0  0  0  0
    6.0950    0.3490   18.0330 C   0  0  0  0  0  0  0  0  0  0  0  0
    9.0970   -0.2750   23.7640 C   0  0  0  0  0  0  0  0  0  0  0  0
   10.3790    0.0020   24.2570 C   0  0  0  0  0  0  0  0  0  0  0  0
  2  1  1  0
  2  3  1  0
  2  4  1  0
  4  5  1  0
  5  6  2  0
  5  7  1  0
  7  8  1  0
  8  9  1  0
  9 24  2  0
  9 10  1  0
 10 11  2  0
 11 12  1  0
 12 13  1  0
 12 23  2  0
 13 14  1  0
 14 15  2  0
 14 16  1  0
 16 17  1  0
 17 18  2  0
 17 22  1  0
 18 19  1  0
 19 20  2  0
 20 21  1  0
 21 22  2  0
 23 24  1  0
M  END
