WPC0537_minimised.pdb
     RDKit          3D

 23 25  0  0  0  0  0  0  0  0999 V2000
    8.3050   -0.0320   19.9190 O   0  0  0  0  0  0  0  0  0  0  0  0
    7.4950   -0.2090   20.8080 C   0  0  0  0  0  0  0  0  0  0  0  0
    7.8120   -0.5530   22.0940 N   0  0  0  0  0  0  0  0  0  0  0  0
    9.1130   -0.4580   22.6220 C   0  0  0  0  0  0  0  0  0  0  0  0
   10.1850   -1.1090   21.9940 C   0  0  0  0  0  0  0  0  0  0  0  0
   11.5010   -0.8150   22.3740 C   0  0  0  0  0  0  0  0  0  0  0  0
   11.7450    0.1430   23.3720 C   0  0  0  0  0  0  0  0  0  0  0  0
   13.1590    0.6360   23.6300 C   0  0  0  0  0  0  0  0  0  0  0  0
   13.3640    2.0590   23.1930 C   0  0  0  0  0  0  0  0  0  0  0  0
   14.3360    2.5520   22.5100 N   0  0  0  0  0  0  0  0  0  0  0  0
   14.1350    3.8990   22.5230 N   0  0  0  0  0  0  0  0  0  0  0  0
   13.0090    4.2370   23.2380 C   0  0  0  0  0  0  0  0  0  0  0  0
   12.5830    5.7440   23.8040 S   0  0  0  0  0  0  0  0  0  0  0  0
   12.5480    3.0370   23.6680 O   0  0  0  0  0  0  0  0  0  0  0  0
   10.6650    0.7060   24.0770 C   0  0  0  0  0  0  0  0  0  0  0  0
    9.3490    0.4080   23.6980 C   0  0  0  0  0  0  0  0  0  0  0  0
    6.1530   -0.0260   20.6320 N   0  0  0  0  0  0  0  0  0  0  0  0
    5.5580    0.5850   19.5040 C   0  0  0  0  0  0  0  0  0  0  0  0
    4.6070    1.5930   19.7040 C   0  0  0  0  0  0  0  0  0  0  0  0
    4.1200    2.2620   18.5740 C   0  0  0  0  0  0  0  0  0  0  0  0
    4.6020    1.9160   17.3040 C   0  0  0  0  0  0  0  0  0  0  0  0
    5.4870    0.9130   17.0980 N   0  0  0  0  0  0  0  0  0  0  0  0
    5.9640    0.2780   18.1870 C   0  0  0  0  0  0  0  0  0  0  0  0
  1  2  2  0
  2  3  1  0
  2 17  1  0
  3  4  1  0
  4  5  2  0
  4 16  1  0
  5  6  1  0
  6  7  2  0
  7  8  1  0
  7 15  1  0
  8  9  1  0
  9 10  2  0
  9 14  1  0
 10 11  1  0
 11 12  1  0
 12 13  2  0
 12 14  1  0
 15 16  2  0
 17 18  1  0
 18 19  2  0
 18 23  1  0
 19 20  1  0
 20 21  2  0
 21 22  1  0
 22 23  2  0
M  END
