WPC0960_minimised.pdb
     RDKit          3D

 21 22  0  0  0  0  0  0  0  0999 V2000
    8.6140    0.2130   19.9040 O   0  0  0  0  0  0  0  0  0  0  0  0
    7.8770   -0.0530   20.8340 C   0  0  0  0  0  0  0  0  0  0  0  0
    8.3130   -0.3440   22.0990 N   0  0  0  0  0  0  0  0  0  0  0  0
    9.6430   -0.1650   22.5320 C   0  0  0  0  0  0  0  0  0  0  0  0
   10.7080   -0.6790   21.7750 C   0  0  0  0  0  0  0  0  0  0  0  0
   12.0290   -0.3230   22.0790 C   0  0  0  0  0  0  0  0  0  0  0  0
   12.2810    0.5320   23.1590 C   0  0  0  0  0  0  0  0  0  0  0  0
   13.9410    1.0660   23.4720 S   0  0  0  0  0  0  0  0  0  0  0  0
   14.0970    2.6260   22.5020 C   0  0  0  0  0  0  0  0  0  0  0  0
   13.0100    3.6710   22.8420 C   0  0  0  0  0  0  0  0  0  0  0  0
   13.1410    4.9670   22.0240 C   0  0  0  0  0  0  0  0  0  0  0  0
   14.4100    5.6010   22.2200 O   0  0  0  0  0  0  0  0  0  0  0  0
   11.2260    0.9810   23.9700 C   0  0  0  0  0  0  0  0  0  0  0  0
    9.9040    0.6370   23.6530 C   0  0  0  0  0  0  0  0  0  0  0  0
    6.5150   -0.0350   20.7160 N   0  0  0  0  0  0  0  0  0  0  0  0
    5.8260    0.5070   19.6050 C   0  0  0  0  0  0  0  0  0  0  0  0
    4.8520    1.4880   19.8230 C   0  0  0  0  0  0  0  0  0  0  0  0
    4.3090    2.1260   18.7010 C   0  0  0  0  0  0  0  0  0  0  0  0
    4.7640    1.7830   17.4200 C   0  0  0  0  0  0  0  0  0  0  0  0
    5.6620    0.7970   17.1960 N   0  0  0  0  0  0  0  0  0  0  0  0
    6.1900    0.1880   18.2780 C   0  0  0  0  0  0  0  0  0  0  0  0
  1  2  2  0
  2  3  1  0
  2 15  1  0
  3  4  1  0
  4  5  2  0
  4 14  1  0
  5  6  1  0
  6  7  2  0
  7  8  1  0
  7 13  1  0
  8  9  1  0
  9 10  1  0
 10 11  1  0
 11 12  1  0
 13 14  2  0
 15 16  1  0
 16 17  2  0
 16 21  1  0
 17 18  1  0
 18 19  2  0
 19 20  1  0
 20 21  2  0
M  END
