WPC0955_minimised.pdb
     RDKit          3D

 19 20  0  0  0  0  0  0  0  0999 V2000
    8.3920    0.0170   19.8110 O   0  0  0  0  0  0  0  0  0  0  0  0
    7.6240   -0.2830   20.7070 C   0  0  0  0  0  0  0  0  0  0  0  0
    8.0040   -0.6290   21.9770 N   0  0  0  0  0  0  0  0  0  0  0  0
    9.2740   -0.3310   22.5110 C   0  0  0  0  0  0  0  0  0  0  0  0
   10.4350   -0.6110   21.7750 C   0  0  0  0  0  0  0  0  0  0  0  0
   11.6570   -0.0380   22.1460 C   0  0  0  0  0  0  0  0  0  0  0  0
   11.7200    0.7910   23.2750 C   0  0  0  0  0  0  0  0  0  0  0  0
   12.9930    1.5490   23.5780 C   0  0  0  0  0  0  0  0  0  0  0  0
   12.8800    3.0600   23.2560 C   0  0  0  0  0  0  0  0  0  0  0  0
   11.9490    3.7100   24.1180 O   0  0  0  0  0  0  0  0  0  0  0  0
   10.5880    0.9470   24.0970 C   0  0  0  0  0  0  0  0  0  0  0  0
    9.3590    0.4000   23.7030 C   0  0  0  0  0  0  0  0  0  0  0  0
    6.2680   -0.2270   20.5550 N   0  0  0  0  0  0  0  0  0  0  0  0
    5.6270    0.4150   19.4700 C   0  0  0  0  0  0  0  0  0  0  0  0
    4.6860    1.4200   19.7310 C   0  0  0  0  0  0  0  0  0  0  0  0
    4.1920    2.1460   18.6400 C   0  0  0  0  0  0  0  0  0  0  0  0
    4.6610    1.8630   17.3490 C   0  0  0  0  0  0  0  0  0  0  0  0
    5.5380    0.8680   17.0860 N   0  0  0  0  0  0  0  0  0  0  0  0
    6.0170    0.1730   18.1360 C   0  0  0  0  0  0  0  0  0  0  0  0
  1  2  2  0
  2  3  1  0
  2 13  1  0
  3  4  1  0
  4  5  2  0
  4 12  1  0
  5  6  1  0
  6  7  2  0
  7  8  1  0
  7 11  1  0
  8  9  1  0
  9 10  1  0
 11 12  2  0
 13 14  1  0
 14 15  2  0
 14 19  1  0
 15 16  1  0
 16 17  2  0
 17 18  1  0
 18 19  2  0
M  END
