WPC0297_minimised.pdb
     RDKit          3D

 20 21  0  0  0  0  0  0  0  0999 V2000
    6.3570   -5.0910   22.0480 C   0  0  0  0  0  0  0  0  0  0  0  0
    5.8920   -3.7250   22.0660 O   0  0  0  0  0  0  0  0  0  0  0  0
    6.7500   -2.8030   21.3660 C   0  0  0  0  0  0  0  0  0  0  0  0
    6.5870   -1.3880   21.9630 C   0  0  0  0  0  0  0  0  0  0  0  0
    7.2060   -0.3640   21.0980 N   0  0  0  0  0  0  0  0  0  0  0  0
    8.5240    0.0720   21.2290 C   0  0  0  0  0  0  0  0  0  0  0  0
    8.9670    0.9430   20.5110 O   0  0  0  0  0  0  0  0  0  0  0  0
    9.3170   -0.5460   22.1660 N   0  0  0  0  0  0  0  0  0  0  0  0
   10.6900   -0.2700   22.3520 C   0  0  0  0  0  0  0  0  0  0  0  0
   11.6480   -1.2460   22.0400 C   0  0  0  0  0  0  0  0  0  0  0  0
   13.0180   -0.9440   22.1230 C   0  0  0  0  0  0  0  0  0  0  0  0
   13.4300    0.3270   22.5580 C   0  0  0  0  0  0  0  0  0  0  0  0
   12.4720    1.2970   22.8940 C   0  0  0  0  0  0  0  0  0  0  0  0
   11.1040    1.0010   22.7800 C   0  0  0  0  0  0  0  0  0  0  0  0
    6.3890    0.1870   20.0670 C   0  0  0  0  0  0  0  0  0  0  0  0
    5.3570    1.0890   20.3710 C   0  0  0  0  0  0  0  0  0  0  0  0
    4.6730    1.6910   19.3040 C   0  0  0  0  0  0  0  0  0  0  0  0
    5.0200    1.3640   17.9840 C   0  0  0  0  0  0  0  0  0  0  0  0
    5.9860    0.4680   17.6780 N   0  0  0  0  0  0  0  0  0  0  0  0
    6.6750   -0.0660   18.7080 C   0  0  0  0  0  0  0  0  0  0  0  0
  1  2  1  0
  2  3  1  0
  3  4  1  0
  4  5  1  0
  5  6  1  0
  5 15  1  0
  6  8  1  0
  6  7  2  0
  8  9  1  0
  9 10  2  0
  9 14  1  0
 10 11  1  0
 11 12  2  0
 12 13  1  0
 13 14  2  0
 15 16  2  0
 15 20  1  0
 16 17  1  0
 17 18  2  0
 18 19  1  0
 19 20  2  0
M  END
