WPC0521_minimised.pdb
     RDKit          3D

 17 18  0  0  0  0  0  0  0  0999 V2000
    8.7500    0.1670   19.8920 O   0  0  0  0  0  0  0  0  0  0  0  0
    8.1050    0.0770   20.9160 C   0  0  0  0  0  0  0  0  0  0  0  0
    8.6800   -0.0410   22.1520 N   0  0  0  0  0  0  0  0  0  0  0  0
   10.0720    0.0420   22.3840 C   0  0  0  0  0  0  0  0  0  0  0  0
   10.9340   -0.9320   21.8510 C   0  0  0  0  0  0  0  0  0  0  0  0
   12.3240   -0.8070   22.0130 C   0  0  0  0  0  0  0  0  0  0  0  0
   12.8490    0.2920   22.7080 C   0  0  0  0  0  0  0  0  0  0  0  0
   14.1830    0.4020   22.8750 F   0  0  0  0  0  0  0  0  0  0  0  0
   11.9920    1.2660   23.2400 C   0  0  0  0  0  0  0  0  0  0  0  0
   10.6010    1.1410   23.0800 C   0  0  0  0  0  0  0  0  0  0  0  0
    6.7370    0.1360   20.9140 N   0  0  0  0  0  0  0  0  0  0  0  0
    5.9660    0.5690   19.8040 C   0  0  0  0  0  0  0  0  0  0  0  0
    4.9960    1.5590   20.0050 C   0  0  0  0  0  0  0  0  0  0  0  0
    4.3730    2.1000   18.8740 C   0  0  0  0  0  0  0  0  0  0  0  0
    4.7470    1.6590   17.5960 C   0  0  0  0  0  0  0  0  0  0  0  0
    5.6350    0.6590   17.3930 N   0  0  0  0  0  0  0  0  0  0  0  0
    6.2360    0.1400   18.4840 C   0  0  0  0  0  0  0  0  0  0  0  0
  1  2  2  0
  2  3  1  0
  2 11  1  0
  3  4  1  0
  4  5  2  0
  4 10  1  0
  5  6  1  0
  6  7  2  0
  7  8  1  0
  7  9  1  0
  9 10  2  0
 11 12  1  0
 12 13  2  0
 12 17  1  0
 13 14  1  0
 14 15  2  0
 15 16  1  0
 16 17  2  0
M  END
