WPC0898_minimised.pdb
     RDKit          3D

 23 24  0  0  0  0  0  0  0  0999 V2000
   14.0790    6.1410   21.9390 C   0  0  0  0  0  0  0  0  0  0  0  0
   13.2410    5.2920   22.0280 C   0  0  0  0  0  0  0  0  0  0  0  0
   12.2700    4.1940   22.1340 C   0  0  0  0  0  0  0  0  0  0  0  0
   12.7590    3.0490   22.9220 N   0  0  0  0  0  0  0  0  0  0  0  0
   14.0170    2.6610   22.5840 N   0  0  0  0  0  0  0  0  0  0  0  0
   14.4910    1.4800   22.7630 C   0  0  0  0  0  0  0  0  0  0  0  0
   13.8120    0.3240   23.4680 C   0  0  0  0  0  0  0  0  0  0  0  0
   12.3440    0.0950   23.1420 C   0  0  0  0  0  0  0  0  0  0  0  0
   11.9910   -0.5860   21.9690 C   0  0  0  0  0  0  0  0  0  0  0  0
   10.6380   -0.7800   21.6630 C   0  0  0  0  0  0  0  0  0  0  0  0
    9.6330   -0.2710   22.4990 C   0  0  0  0  0  0  0  0  0  0  0  0
    8.2810   -0.3260   22.1000 N   0  0  0  0  0  0  0  0  0  0  0  0
    7.8270    0.0310   20.8580 C   0  0  0  0  0  0  0  0  0  0  0  0
    8.5520    0.3390   19.9320 O   0  0  0  0  0  0  0  0  0  0  0  0
    6.4640    0.0390   20.7520 N   0  0  0  0  0  0  0  0  0  0  0  0
    5.7600    0.5560   19.6380 C   0  0  0  0  0  0  0  0  0  0  0  0
    4.7760    1.5280   19.8480 C   0  0  0  0  0  0  0  0  0  0  0  0
    4.2150    2.1360   18.7190 C   0  0  0  0  0  0  0  0  0  0  0  0
    4.6600    1.7700   17.4400 C   0  0  0  0  0  0  0  0  0  0  0  0
    5.5690    0.7920   17.2260 N   0  0  0  0  0  0  0  0  0  0  0  0
    6.1160    0.2140   18.3150 C   0  0  0  0  0  0  0  0  0  0  0  0
    9.9820    0.3620   23.6970 C   0  0  0  0  0  0  0  0  0  0  0  0
   11.3350    0.5320   24.0230 C   0  0  0  0  0  0  0  0  0  0  0  0
  1  2  3  0
  2  3  1  0
  3  4  1  0
  4  5  1  0
  5  6  2  0
  6  7  1  0
  7  8  1  0
  8 23  2  0
  8  9  1  0
  9 10  2  0
 10 11  1  0
 11 12  1  0
 11 22  2  0
 12 13  1  0
 13 14  2  0
 13 15  1  0
 15 16  1  0
 16 17  2  0
 16 21  1  0
 17 18  1  0
 18 19  2  0
 19 20  1  0
 20 21  2  0
 22 23  1  0
M  END
