WPC0614_minimised.pdb
     RDKit          3D

 23 24  0  0  0  0  0  0  0  0999 V2000
   14.0970    6.0490   21.9460 C   0  0  0  0  0  0  0  0  0  0  0  0
   13.3440    5.1070   22.8630 C   0  0  0  0  0  0  0  0  0  0  0  0
   13.4270    5.1530   24.0730 O   0  0  0  0  0  0  0  0  0  0  0  0
   12.6550    4.1110   22.2260 N   0  0  0  0  0  0  0  0  0  0  0  0
   12.4190    2.8140   22.8500 C   0  0  0  0  0  0  0  0  0  0  0  0
   13.6530    1.9090   22.6710 C   0  0  0  0  0  0  0  0  0  0  0  0
   13.5480    0.4450   23.7640 S   0  0  0  0  0  0  0  0  0  0  0  0
   11.9080   -0.1200   23.4140 C   0  0  0  0  0  0  0  0  0  0  0  0
   11.6780   -0.8440   22.2390 C   0  0  0  0  0  0  0  0  0  0  0  0
   10.3620   -1.1080   21.8400 C   0  0  0  0  0  0  0  0  0  0  0  0
    9.2850   -0.6270   22.6010 C   0  0  0  0  0  0  0  0  0  0  0  0
    7.9810   -0.6560   22.0670 N   0  0  0  0  0  0  0  0  0  0  0  0
    7.6590   -0.1980   20.8150 C   0  0  0  0  0  0  0  0  0  0  0  0
    8.4710    0.1270   19.9680 O   0  0  0  0  0  0  0  0  0  0  0  0
    6.3110   -0.1050   20.6160 N   0  0  0  0  0  0  0  0  0  0  0  0
    5.7070    0.5210   19.5020 C   0  0  0  0  0  0  0  0  0  0  0  0
    4.7310    1.5010   19.7170 C   0  0  0  0  0  0  0  0  0  0  0  0
    4.2570    2.2010   18.6010 C   0  0  0  0  0  0  0  0  0  0  0  0
    4.7790    1.9170   17.3310 C   0  0  0  0  0  0  0  0  0  0  0  0
    5.6840    0.9360   17.1080 N   0  0  0  0  0  0  0  0  0  0  0  0
    6.1440    0.2680   18.1840 C   0  0  0  0  0  0  0  0  0  0  0  0
    9.5190    0.0160   23.8250 C   0  0  0  0  0  0  0  0  0  0  0  0
   10.8360    0.2640   24.2380 C   0  0  0  0  0  0  0  0  0  0  0  0
  1  2  1  0
  2  3  2  0
  2  4  1  0
  4  5  1  0
  5  6  1  0
  6  7  1  0
  7  8  1  0
  8 23  2  0
  8  9  1  0
  9 10  2  0
 10 11  1  0
 11 12  1  0
 11 22  2  0
 12 13  1  0
 13 14  2  0
 13 15  1  0
 15 16  1  0
 16 17  2  0
 16 21  1  0
 17 18  1  0
 18 19  2  0
 19 20  1  0
 20 21  2  0
 22 23  1  0
M  END
