WPC0063_minimised.pdb
     RDKit          3D

 21 22  0  0  0  0  0  0  0  0999 V2000
    6.6880    4.1110   22.0090 C   0  0  0  0  0  0  0  0  0  0  0  0
    6.0360    2.7410   22.2400 C   0  0  0  0  0  0  0  0  0  0  0  0
    4.5460    2.7860   21.8320 C   0  0  0  0  0  0  0  0  0  0  0  0
    3.7940    1.4480   22.0000 C   0  0  0  0  0  0  0  0  0  0  0  0
    4.5310    0.3580   21.4080 O   0  0  0  0  0  0  0  0  0  0  0  0
    4.9680    0.3790   20.1010 C   0  0  0  0  0  0  0  0  0  0  0  0
    4.2650    1.0490   19.0890 C   0  0  0  0  0  0  0  0  0  0  0  0
    4.7900    1.0810   17.7930 C   0  0  0  0  0  0  0  0  0  0  0  0
    5.9260    0.4440   17.4490 N   0  0  0  0  0  0  0  0  0  0  0  0
    6.6240   -0.1560   18.4340 C   0  0  0  0  0  0  0  0  0  0  0  0
    6.1960   -0.2150   19.7760 C   0  0  0  0  0  0  0  0  0  0  0  0
    7.0690   -0.6960   20.7980 N   0  0  0  0  0  0  0  0  0  0  0  0
    8.3430   -0.2100   20.9740 C   0  0  0  0  0  0  0  0  0  0  0  0
    8.8230    0.6030   20.2130 O   0  0  0  0  0  0  0  0  0  0  0  0
    9.0330   -0.6960   22.0530 N   0  0  0  0  0  0  0  0  0  0  0  0
   10.3550   -0.3050   22.3660 C   0  0  0  0  0  0  0  0  0  0  0  0
   11.4350   -1.0870   21.9310 C   0  0  0  0  0  0  0  0  0  0  0  0
   12.7550   -0.6480   22.1350 C   0  0  0  0  0  0  0  0  0  0  0  0
   12.9930    0.5670   22.7970 C   0  0  0  0  0  0  0  0  0  0  0  0
   11.9120    1.3500   23.2360 C   0  0  0  0  0  0  0  0  0  0  0  0
   10.5940    0.9150   23.0170 C   0  0  0  0  0  0  0  0  0  0  0  0
  1  2  1  0
  2  3  1  0
  3  4  1  0
  4  5  1  0
  5  6  1  0
  6  7  2  0
  6 11  1  0
  7  8  1  0
  8  9  2  0
  9 10  1  0
 10 11  2  0
 11 12  1  0
 12 13  1  0
 13 14  2  0
 13 15  1  0
 15 16  1  0
 16 17  2  0
 16 21  1  0
 17 18  1  0
 18 19  2  0
 19 20  1  0
 20 21  2  0
M  END
