WPC0856_minimised.pdb
     RDKit          3D

 19 20  0  0  0  0  0  0  0  0999 V2000
   12.1980    3.3800   22.8640 C   0  0  0  0  0  0  0  0  0  0  0  0
   13.2220    2.5970   23.2260 C   0  0  0  0  0  0  0  0  0  0  0  0
   13.1630    1.1190   23.5850 C   0  0  0  0  0  0  0  0  0  0  0  0
   11.8270    0.4680   23.2940 C   0  0  0  0  0  0  0  0  0  0  0  0
   11.6840   -0.3470   22.1610 C   0  0  0  0  0  0  0  0  0  0  0  0
   10.4140   -0.8090   21.7980 C   0  0  0  0  0  0  0  0  0  0  0  0
    9.2860   -0.4330   22.5430 C   0  0  0  0  0  0  0  0  0  0  0  0
    7.9930   -0.6280   22.0190 N   0  0  0  0  0  0  0  0  0  0  0  0
    7.6270   -0.2540   20.7520 C   0  0  0  0  0  0  0  0  0  0  0  0
    8.4050    0.0280   19.8590 O   0  0  0  0  0  0  0  0  0  0  0  0
    6.2730   -0.1660   20.5950 N   0  0  0  0  0  0  0  0  0  0  0  0
    5.6430    0.4630   19.4960 C   0  0  0  0  0  0  0  0  0  0  0  0
    4.6920    1.4620   19.7370 C   0  0  0  0  0  0  0  0  0  0  0  0
    4.1970    2.1670   18.6330 C   0  0  0  0  0  0  0  0  0  0  0  0
    4.6760    1.8690   17.3490 C   0  0  0  0  0  0  0  0  0  0  0  0
    5.5600    0.8760   17.1040 N   0  0  0  0  0  0  0  0  0  0  0  0
    6.0400    0.2020   18.1670 C   0  0  0  0  0  0  0  0  0  0  0  0
    9.4420    0.2920   23.7320 C   0  0  0  0  0  0  0  0  0  0  0  0
   10.7170    0.7310   24.1170 C   0  0  0  0  0  0  0  0  0  0  0  0
  1  2  2  0
  2  3  1  0
  3  4  1  0
  4 19  2  0
  4  5  1  0
  5  6  2  0
  6  7  1  0
  7  8  1  0
  7 18  2  0
  8  9  1  0
  9 10  2  0
  9 11  1  0
 11 12  1  0
 12 13  2  0
 12 17  1  0
 13 14  1  0
 14 15  2  0
 15 16  1  0
 16 17  2  0
 18 19  1  0
M  END
