WPC0151_minimised.pdb
     RDKit          3D

 21 22  0  0  0  0  0  0  0  0999 V2000
    7.4250    1.4450   24.0550 C   0  0  0  0  0  0  0  0  0  0  0  0
    6.2230    0.6250   23.8470 N   0  0  0  0  0  0  0  0  0  0  0  0
    5.6150    0.3860   22.6460 C   0  0  0  0  0  0  0  0  0  0  0  0
    4.7530   -0.4680   22.5620 O   0  0  0  0  0  0  0  0  0  0  0  0
    6.0540    1.1390   21.5950 N   0  0  0  0  0  0  0  0  0  0  0  0
    5.8990    0.8160   20.2350 C   0  0  0  0  0  0  0  0  0  0  0  0
    4.9640    1.4840   19.4380 C   0  0  0  0  0  0  0  0  0  0  0  0
    4.9140    1.2090   18.0650 C   0  0  0  0  0  0  0  0  0  0  0  0
    5.7120    0.2890   17.4790 N   0  0  0  0  0  0  0  0  0  0  0  0
    6.6090   -0.3500   18.2550 C   0  0  0  0  0  0  0  0  0  0  0  0
    6.7610   -0.1150   19.6310 C   0  0  0  0  0  0  0  0  0  0  0  0
    7.8310   -0.7200   20.3610 N   0  0  0  0  0  0  0  0  0  0  0  0
    8.8790   -0.0320   20.9240 C   0  0  0  0  0  0  0  0  0  0  0  0
    8.9680    1.1770   20.8670 O   0  0  0  0  0  0  0  0  0  0  0  0
    9.8230   -0.8310   21.5100 N   0  0  0  0  0  0  0  0  0  0  0  0
   11.0980   -0.4180   21.9630 C   0  0  0  0  0  0  0  0  0  0  0  0
   12.2000   -1.2220   21.6520 C   0  0  0  0  0  0  0  0  0  0  0  0
   13.4970   -0.8240   22.0060 C   0  0  0  0  0  0  0  0  0  0  0  0
   13.6930    0.3820   22.6970 C   0  0  0  0  0  0  0  0  0  0  0  0
   12.5890    1.1810   23.0340 C   0  0  0  0  0  0  0  0  0  0  0  0
   11.2940    0.7820   22.6690 C   0  0  0  0  0  0  0  0  0  0  0  0
  1  2  1  0
  2  3  1  0
  3  4  2  0
  3  5  1  0
  5  6  1  0
  6  7  2  0
  6 11  1  0
  7  8  1  0
  8  9  2  0
  9 10  1  0
 10 11  2  0
 11 12  1  0
 12 13  1  0
 13 14  2  0
 13 15  1  0
 15 16  1  0
 16 17  2  0
 16 21  1  0
 17 18  1  0
 18 19  2  0
 19 20  1  0
 20 21  2  0
M  END
