WPC0664_minimised.pdb
     RDKit          3D

 22 23  0  0  0  0  0  0  0  0999 V2000
   13.2260    5.2020   23.9420 O   0  0  0  0  0  0  0  0  0  0  0  0
   12.6960    4.6560   22.9970 C   0  0  0  0  0  0  0  0  0  0  0  0
   12.6510    5.2310   21.7870 O   0  0  0  0  0  0  0  0  0  0  0  0
   12.3790    3.1730   23.0120 C   0  0  0  0  0  0  0  0  0  0  0  0
   13.6410    2.3270   22.7170 C   0  0  0  0  0  0  0  0  0  0  0  0
   13.6160    0.7010   23.5770 S   0  0  0  0  0  0  0  0  0  0  0  0
   11.9800    0.1100   23.2450 C   0  0  0  0  0  0  0  0  0  0  0  0
   11.7470   -0.6180   22.0730 C   0  0  0  0  0  0  0  0  0  0  0  0
   10.4330   -0.9440   21.7190 C   0  0  0  0  0  0  0  0  0  0  0  0
    9.3580   -0.5140   22.5110 C   0  0  0  0  0  0  0  0  0  0  0  0
    8.0420   -0.5920   22.0110 N   0  0  0  0  0  0  0  0  0  0  0  0
    7.6790   -0.1510   20.7660 C   0  0  0  0  0  0  0  0  0  0  0  0
    8.4650    0.1870   19.9000 O   0  0  0  0  0  0  0  0  0  0  0  0
    6.3250   -0.0810   20.5940 N   0  0  0  0  0  0  0  0  0  0  0  0
    5.6960    0.5360   19.4890 C   0  0  0  0  0  0  0  0  0  0  0  0
    4.7270    1.5210   19.7150 C   0  0  0  0  0  0  0  0  0  0  0  0
    4.2360    2.2150   18.6030 C   0  0  0  0  0  0  0  0  0  0  0  0
    4.7370    1.9240   17.3260 C   0  0  0  0  0  0  0  0  0  0  0  0
    5.6360    0.9410   17.0930 N   0  0  0  0  0  0  0  0  0  0  0  0
    6.1110    0.2760   18.1650 C   0  0  0  0  0  0  0  0  0  0  0  0
    9.6000    0.1290   23.7340 C   0  0  0  0  0  0  0  0  0  0  0  0
   10.9170    0.4290   24.1080 C   0  0  0  0  0  0  0  0  0  0  0  0
  1  2  2  0
  2  3  1  0
  2  4  1  0
  4  5  1  0
  5  6  1  0
  6  7  1  0
  7 22  2  0
  7  8  1  0
  8  9  2  0
  9 10  1  0
 10 11  1  0
 10 21  2  0
 11 12  1  0
 12 13  2  0
 12 14  1  0
 14 15  1  0
 15 16  2  0
 15 20  1  0
 16 17  1  0
 17 18  2  0
 18 19  1  0
 19 20  2  0
 21 22  1  0
M  END
