WPC0008_minimised.pdb
     RDKit          3D

 17 18  0  0  0  0  0  0  0  0999 V2000
    8.8160    0.3850   20.0750 O   0  0  0  0  0  0  0  0  0  0  0  0
    8.1720    0.0370   21.0410 C   0  0  0  0  0  0  0  0  0  0  0  0
    8.7460   -0.2520   22.2490 N   0  0  0  0  0  0  0  0  0  0  0  0
   10.1220   -0.0620   22.5090 C   0  0  0  0  0  0  0  0  0  0  0  0
   11.0750   -0.8970   21.9060 C   0  0  0  0  0  0  0  0  0  0  0  0
   12.4470   -0.6280   22.0520 C   0  0  0  0  0  0  0  0  0  0  0  0
   12.8650    0.4800   22.8080 C   0  0  0  0  0  0  0  0  0  0  0  0
   11.9110    1.3130   23.4150 C   0  0  0  0  0  0  0  0  0  0  0  0
   10.5410    1.0400   23.2700 C   0  0  0  0  0  0  0  0  0  0  0  0
    6.8020   -0.0520   20.9910 N   0  0  0  0  0  0  0  0  0  0  0  0
    6.0330    0.4470   19.8930 C   0  0  0  0  0  0  0  0  0  0  0  0
    6.3690    0.1070   18.5650 C   0  0  0  0  0  0  0  0  0  0  0  0
    5.8070    0.6750   17.4800 N   0  0  0  0  0  0  0  0  0  0  0  0
    4.9090    1.6610   17.6910 C   0  0  0  0  0  0  0  0  0  0  0  0
    4.4820    2.0380   18.9670 C   0  0  0  0  0  0  0  0  0  0  0  0
    5.0430    1.4220   20.0830 C   0  0  0  0  0  0  0  0  0  0  0  0
    4.6470    1.7960   21.3250 O   0  0  0  0  0  0  0  0  0  0  0  0
  1  2  2  0
  2  3  1  0
  2 10  1  0
  3  4  1  0
  4  5  2  0
  4  9  1  0
  5  6  1  0
  6  7  2  0
  7  8  1  0
  8  9  2  0
 10 11  1  0
 11 12  2  0
 11 16  1  0
 12 13  1  0
 13 14  2  0
 14 15  1  0
 15 16  2  0
 16 17  1  0
M  END
