WPC0315_minimised.pdb
     RDKit          3D

 23 25  0  0  0  0  0  0  0  0999 V2000
    9.3140    1.0120   20.7190 O   0  0  0  0  0  0  0  0  0  0  0  0
    8.9450   -0.0040   21.2720 C   0  0  0  0  0  0  0  0  0  0  0  0
    7.6690   -0.4690   21.0600 N   0  0  0  0  0  0  0  0  0  0  0  0
    6.7790    0.0960   20.1070 C   0  0  0  0  0  0  0  0  0  0  0  0
    5.8470    1.0690   20.4950 C   0  0  0  0  0  0  0  0  0  0  0  0
    5.0710    1.6730   19.4920 C   0  0  0  0  0  0  0  0  0  0  0  0
    5.2460    1.2910   18.1510 C   0  0  0  0  0  0  0  0  0  0  0  0
    6.1280    0.3410   17.7710 N   0  0  0  0  0  0  0  0  0  0  0  0
    6.8960   -0.2110   18.7340 C   0  0  0  0  0  0  0  0  0  0  0  0
    9.7820   -0.7400   22.1000 N   0  0  0  0  0  0  0  0  0  0  0  0
    9.3480   -1.9440   22.8390 C   0  0  0  0  0  0  0  0  0  0  0  0
    8.7540   -1.6660   24.2180 C   0  0  0  0  0  0  0  0  0  0  0  0
    8.4810   -2.7540   25.0680 C   0  0  0  0  0  0  0  0  0  0  0  0
    7.9600   -2.5420   26.3560 C   0  0  0  0  0  0  0  0  0  0  0  0
    7.7200   -1.2340   26.8070 C   0  0  0  0  0  0  0  0  0  0  0  0
    8.0030   -0.1430   25.9750 C   0  0  0  0  0  0  0  0  0  0  0  0
    8.5080   -0.3560   24.6840 C   0  0  0  0  0  0  0  0  0  0  0  0
   11.1350   -0.3470   22.2690 C   0  0  0  0  0  0  0  0  0  0  0  0
   12.1590   -1.1590   21.7620 C   0  0  0  0  0  0  0  0  0  0  0  0
   13.5010   -0.7660   21.8720 C   0  0  0  0  0  0  0  0  0  0  0  0
   13.8220    0.4510   22.4950 C   0  0  0  0  0  0  0  0  0  0  0  0
   12.8000    1.2710   22.9940 C   0  0  0  0  0  0  0  0  0  0  0  0
   11.4590    0.8730   22.8850 C   0  0  0  0  0  0  0  0  0  0  0  0
  1  2  2  0
  2  3  1  0
  2 10  1  0
  3  4  1  0
  4  5  2  0
  4  9  1  0
  5  6  1  0
  6  7  2  0
  7  8  1  0
  8  9  2  0
 10 18  1  0
 10 11  1  0
 11 12  1  0
 12 13  2  0
 12 17  1  0
 13 14  1  0
 14 15  2  0
 15 16  1  0
 16 17  2  0
 18 19  2  0
 18 23  1  0
 19 20  1  0
 20 21  2  0
 21 22  1  0
 22 23  2  0
M  END
