WPC0161_minimised.pdb
     RDKit          3D

 17 18  0  0  0  0  0  0  0  0999 V2000
    4.8480    2.4410   21.3620 C   0  0  0  0  0  0  0  0  0  0  0  0
    5.1040    1.6880   20.0630 C   0  0  0  0  0  0  0  0  0  0  0  0
    4.4930    2.1520   18.8910 C   0  0  0  0  0  0  0  0  0  0  0  0
    4.8430    1.6070   17.6500 C   0  0  0  0  0  0  0  0  0  0  0  0
    5.6890    0.5630   17.5160 N   0  0  0  0  0  0  0  0  0  0  0  0
    6.2630    0.0970   18.6430 C   0  0  0  0  0  0  0  0  0  0  0  0
    6.0220    0.6280   19.9330 C   0  0  0  0  0  0  0  0  0  0  0  0
    6.7970    0.1970   21.0450 N   0  0  0  0  0  0  0  0  0  0  0  0
    8.1650    0.1470   21.0370 C   0  0  0  0  0  0  0  0  0  0  0  0
    8.7960    0.2860   20.0100 O   0  0  0  0  0  0  0  0  0  0  0  0
    8.7590   -0.0250   22.2570 N   0  0  0  0  0  0  0  0  0  0  0  0
   10.1530    0.0760   22.4650 C   0  0  0  0  0  0  0  0  0  0  0  0
   11.0270   -0.8580   21.8850 C   0  0  0  0  0  0  0  0  0  0  0  0
   12.4170   -0.6880   21.9930 C   0  0  0  0  0  0  0  0  0  0  0  0
   12.9350    0.4190   22.6850 C   0  0  0  0  0  0  0  0  0  0  0  0
   12.0610    1.3500   23.2690 C   0  0  0  0  0  0  0  0  0  0  0  0
   10.6720    1.1760   23.1640 C   0  0  0  0  0  0  0  0  0  0  0  0
  1  2  1  0
  2  3  2  0
  2  7  1  0
  3  4  1  0
  4  5  2  0
  5  6  1  0
  6  7  2  0
  7  8  1  0
  8  9  1  0
  9 10  2  0
  9 11  1  0
 11 12  1  0
 12 13  2  0
 12 17  1  0
 13 14  1  0
 14 15  2  0
 15 16  1  0
 16 17  2  0
M  END
