WPC0513_minimised.pdb
     RDKit          3D

 22 23  0  0  0  0  0  0  0  0999 V2000
   13.4680    4.4850   21.4150 C   0  0  0  0  0  0  0  0  0  0  0  0
   13.7140    4.3030   22.9220 C   0  0  0  0  0  0  0  0  0  0  0  0
   13.2740    2.9970   23.3430 O   0  0  0  0  0  0  0  0  0  0  0  0
   13.9810    1.8840   22.9850 C   0  0  0  0  0  0  0  0  0  0  0  0
   15.0230    1.9010   22.3590 O   0  0  0  0  0  0  0  0  0  0  0  0
   13.4430    0.6080   23.6200 C   0  0  0  0  0  0  0  0  0  0  0  0
   11.9900    0.3130   23.2890 C   0  0  0  0  0  0  0  0  0  0  0  0
   11.6640   -0.6970   22.3680 C   0  0  0  0  0  0  0  0  0  0  0  0
   10.3280   -0.9080   22.0020 C   0  0  0  0  0  0  0  0  0  0  0  0
    9.3130   -0.1300   22.5770 C   0  0  0  0  0  0  0  0  0  0  0  0
    7.9900   -0.2270   22.1090 N   0  0  0  0  0  0  0  0  0  0  0  0
    7.6220    0.0280   20.8170 C   0  0  0  0  0  0  0  0  0  0  0  0
    8.4030    0.1800   19.8980 O   0  0  0  0  0  0  0  0  0  0  0  0
    6.2700    0.1470   20.6650 N   0  0  0  0  0  0  0  0  0  0  0  0
    5.6310    0.6870   19.5260 C   0  0  0  0  0  0  0  0  0  0  0  0
    4.6650    1.6840   19.7070 C   0  0  0  0  0  0  0  0  0  0  0  0
    4.1460    2.3010   18.5630 C   0  0  0  0  0  0  0  0  0  0  0  0
    4.6130    1.9180   17.2980 C   0  0  0  0  0  0  0  0  0  0  0  0
    5.5070    0.9200   17.1110 N   0  0  0  0  0  0  0  0  0  0  0  0
    6.0160    0.3350   18.2130 C   0  0  0  0  0  0  0  0  0  0  0  0
    9.6250    0.8250   23.5540 C   0  0  0  0  0  0  0  0  0  0  0  0
   10.9630    1.0470   23.9100 C   0  0  0  0  0  0  0  0  0  0  0  0
  1  2  1  0
  2  3  1  0
  3  4  1  0
  4  5  2  0
  4  6  1  0
  6  7  1  0
  7 22  2  0
  7  8  1  0
  8  9  2  0
  9 10  1  0
 10 11  1  0
 10 21  2  0
 11 12  1  0
 12 13  2  0
 12 14  1  0
 14 15  1  0
 15 16  2  0
 15 20  1  0
 16 17  1  0
 17 18  2  0
 18 19  1  0
 19 20  2  0
 21 22  1  0
M  END
