WPC0630_minimised.pdb
     RDKit          3D

 18 19  0  0  0  0  0  0  0  0999 V2000
   13.8890    3.1660   22.6320 C   0  0  0  0  0  0  0  0  0  0  0  0
   14.1040    1.3610   22.9500 S   0  0  0  0  0  0  0  0  0  0  0  0
   12.4420    0.7520   22.8410 C   0  0  0  0  0  0  0  0  0  0  0  0
   12.1550   -0.2970   21.9570 C   0  0  0  0  0  0  0  0  0  0  0  0
   10.8260   -0.7050   21.7720 C   0  0  0  0  0  0  0  0  0  0  0  0
    9.7880   -0.0590   22.4620 C   0  0  0  0  0  0  0  0  0  0  0  0
    8.4450   -0.3000   22.1060 N   0  0  0  0  0  0  0  0  0  0  0  0
    7.9570   -0.0730   20.8470 C   0  0  0  0  0  0  0  0  0  0  0  0
    8.6610    0.1550   19.8830 O   0  0  0  0  0  0  0  0  0  0  0  0
    6.5910   -0.0650   20.7700 N   0  0  0  0  0  0  0  0  0  0  0  0
    5.8730    0.4610   19.6690 C   0  0  0  0  0  0  0  0  0  0  0  0
    4.9110    1.4520   19.8990 C   0  0  0  0  0  0  0  0  0  0  0  0
    4.3450    2.0820   18.7840 C   0  0  0  0  0  0  0  0  0  0  0  0
    4.7640    1.7200   17.4960 C   0  0  0  0  0  0  0  0  0  0  0  0
    5.6480    0.7250   17.2610 N   0  0  0  0  0  0  0  0  0  0  0  0
    6.2000    0.1250   18.3360 C   0  0  0  0  0  0  0  0  0  0  0  0
   10.0830    0.9430   23.3980 C   0  0  0  0  0  0  0  0  0  0  0  0
   11.4130    1.3490   23.5880 C   0  0  0  0  0  0  0  0  0  0  0  0
  1  2  1  0
  2  3  1  0
  3 18  2  0
  3  4  1  0
  4  5  2  0
  5  6  1  0
  6  7  1  0
  6 17  2  0
  7  8  1  0
  8  9  2  0
  8 10  1  0
 10 11  1  0
 11 12  2  0
 11 16  1  0
 12 13  1  0
 13 14  2  0
 14 15  1  0
 15 16  2  0
 17 18  1  0
M  END
