WPC0832_minimised.pdb
     RDKit          3D

 24 25  0  0  0  0  0  0  0  0999 V2000
    8.3350    4.8730   22.2490 C   0  0  0  0  0  0  0  0  0  0  0  0
    9.0670    5.8220   22.8420 C   0  0  0  0  0  0  0  0  0  0  0  0
   10.3110    5.5580   23.6550 C   0  0  0  0  0  0  0  0  0  0  0  0
   11.3390    4.9490   22.8140 N   0  0  0  0  0  0  0  0  0  0  0  0
   12.6150    4.6970   23.2530 C   0  0  0  0  0  0  0  0  0  0  0  0
   13.0020    5.1040   24.3300 O   0  0  0  0  0  0  0  0  0  0  0  0
   13.4930    3.8710   22.3250 C   0  0  0  0  0  0  0  0  0  0  0  0
   13.8390    2.1660   22.9710 S   0  0  0  0  0  0  0  0  0  0  0  0
   12.2810    1.3230   22.9080 C   0  0  0  0  0  0  0  0  0  0  0  0
   12.1300    0.2540   22.0140 C   0  0  0  0  0  0  0  0  0  0  0  0
   10.8670   -0.3260   21.8310 C   0  0  0  0  0  0  0  0  0  0  0  0
    9.7600    0.1650   22.5410 C   0  0  0  0  0  0  0  0  0  0  0  0
    8.4540   -0.2140   22.1640 N   0  0  0  0  0  0  0  0  0  0  0  0
    7.9710   -0.0330   20.8950 C   0  0  0  0  0  0  0  0  0  0  0  0
    8.6740    0.2290   19.9390 O   0  0  0  0  0  0  0  0  0  0  0  0
    6.6080   -0.0930   20.7970 N   0  0  0  0  0  0  0  0  0  0  0  0
    5.8880    0.4280   19.6940 C   0  0  0  0  0  0  0  0  0  0  0  0
    4.9270    1.4200   19.9240 C   0  0  0  0  0  0  0  0  0  0  0  0
    4.3670    2.0570   18.8080 C   0  0  0  0  0  0  0  0  0  0  0  0
    4.7930    1.7000   17.5210 C   0  0  0  0  0  0  0  0  0  0  0  0
    5.6800    0.7060   17.2870 N   0  0  0  0  0  0  0  0  0  0  0  0
    6.2240    0.0990   18.3620 C   0  0  0  0  0  0  0  0  0  0  0  0
    9.9340    1.1630   23.5120 C   0  0  0  0  0  0  0  0  0  0  0  0
   11.2000    1.7390   23.7020 C   0  0  0  0  0  0  0  0  0  0  0  0
  1  2  2  0
  2  3  1  0
  3  4  1  0
  4  5  1  0
  5  6  2  0
  5  7  1  0
  7  8  1  0
  8  9  1  0
  9 24  2  0
  9 10  1  0
 10 11  2  0
 11 12  1  0
 12 13  1  0
 12 23  2  0
 13 14  1  0
 14 15  2  0
 14 16  1  0
 16 17  1  0
 17 18  2  0
 17 22  1  0
 18 19  1  0
 19 20  2  0
 20 21  1  0
 21 22  2  0
 23 24  1  0
M  END
