WPC0001_minimised.pdb
     RDKit          3D

 24 25  0  0  0  0  0  0  0  0999 V2000
    3.9940    4.0720   21.1730 C   0  0  0  0  0  0  0  0  0  0  0  0
    5.2860    4.0260   22.0130 C   0  0  0  0  0  0  0  0  0  0  0  0
    6.0040    2.6500   21.9810 C   0  0  0  0  0  0  0  0  0  0  0  0
    7.2970    2.5880   22.8380 C   0  0  0  0  0  0  0  0  0  0  0  0
    8.4270    3.5210   22.3740 C   0  0  0  0  0  0  0  0  0  0  0  0
    5.0700    1.5190   22.4370 C   0  0  0  0  0  0  0  0  0  0  0  0
    4.6020    1.4510   23.5610 O   0  0  0  0  0  0  0  0  0  0  0  0
    4.7860    0.5080   21.5550 N   0  0  0  0  0  0  0  0  0  0  0  0
    5.1970    0.3880   20.2110 C   0  0  0  0  0  0  0  0  0  0  0  0
    4.4840    1.0550   19.2080 C   0  0  0  0  0  0  0  0  0  0  0  0
    4.9670    1.0390   17.8930 C   0  0  0  0  0  0  0  0  0  0  0  0
    6.0770    0.3650   17.5350 N   0  0  0  0  0  0  0  0  0  0  0  0
    6.7860   -0.2390   18.5120 C   0  0  0  0  0  0  0  0  0  0  0  0
    6.3940   -0.2580   19.8670 C   0  0  0  0  0  0  0  0  0  0  0  0
    7.2760   -0.7510   20.8730 N   0  0  0  0  0  0  0  0  0  0  0  0
    8.5440   -0.2570   21.0480 C   0  0  0  0  0  0  0  0  0  0  0  0
    8.9840    0.6190   20.3330 O   0  0  0  0  0  0  0  0  0  0  0  0
    9.2600   -0.7980   22.0820 N   0  0  0  0  0  0  0  0  0  0  0  0
   10.5750   -0.3990   22.4050 C   0  0  0  0  0  0  0  0  0  0  0  0
   11.6680   -1.0270   21.7900 C   0  0  0  0  0  0  0  0  0  0  0  0
   12.9750   -0.5640   22.0210 C   0  0  0  0  0  0  0  0  0  0  0  0
   13.1850    0.5350   22.8690 C   0  0  0  0  0  0  0  0  0  0  0  0
   12.0910    1.1620   23.4870 C   0  0  0  0  0  0  0  0  0  0  0  0
   10.7890    0.6880   23.2640 C   0  0  0  0  0  0  0  0  0  0  0  0
  1  2  1  0
  2  3  1  0
  3  4  1  0
  3  6  1  0
  4  5  1  0
  6  7  2  0
  6  8  1  0
  8  9  1  0
  9 10  2  0
  9 14  1  0
 10 11  1  0
 11 12  2  0
 12 13  1  0
 13 14  2  0
 14 15  1  0
 15 16  1  0
 16 17  2  0
 16 18  1  0
 18 19  1  0
 19 20  2  0
 19 24  1  0
 20 21  1  0
 21 22  2  0
 22 23  1  0
 23 24  2  0
M  END
