WPC0022_minimised.pdb
     RDKit          3D

 19 20  0  0  0  0  0  0  0  0999 V2000
    8.7340    0.3310   20.0070 O   0  0  0  0  0  0  0  0  0  0  0  0
    8.1360    0.3280   21.0630 C   0  0  0  0  0  0  0  0  0  0  0  0
    8.7590    0.2600   22.2760 N   0  0  0  0  0  0  0  0  0  0  0  0
   10.1580    0.3200   22.4500 C   0  0  0  0  0  0  0  0  0  0  0  0
   10.9890   -0.6720   21.9040 C   0  0  0  0  0  0  0  0  0  0  0  0
   12.3850   -0.5620   22.0130 C   0  0  0  0  0  0  0  0  0  0  0  0
   12.9500    0.5430   22.6710 C   0  0  0  0  0  0  0  0  0  0  0  0
   12.1180    1.5350   23.2130 C   0  0  0  0  0  0  0  0  0  0  0  0
   10.7230    1.4210   23.1090 C   0  0  0  0  0  0  0  0  0  0  0  0
    6.7730    0.4290   21.1170 N   0  0  0  0  0  0  0  0  0  0  0  0
    5.9700    0.8390   20.0220 C   0  0  0  0  0  0  0  0  0  0  0  0
    6.1450    0.2610   18.7430 C   0  0  0  0  0  0  0  0  0  0  0  0
    5.5240    0.6980   17.6300 N   0  0  0  0  0  0  0  0  0  0  0  0
    4.6980    1.7560   17.7710 C   0  0  0  0  0  0  0  0  0  0  0  0
    4.4170    2.3520   19.0090 C   0  0  0  0  0  0  0  0  0  0  0  0
    5.0810    1.9200   20.1670 C   0  0  0  0  0  0  0  0  0  0  0  0
    4.8920    2.6900   21.4770 C   0  0  0  0  0  0  0  0  0  0  0  0
    5.8810    3.8640   21.6630 C   0  0  0  0  0  0  0  0  0  0  0  0
    7.1760    3.3980   22.0580 O   0  0  0  0  0  0  0  0  0  0  0  0
  1  2  2  0
  2  3  1  0
  2 10  1  0
  3  4  1  0
  4  5  2  0
  4  9  1  0
  5  6  1  0
  6  7  2  0
  7  8  1  0
  8  9  2  0
 10 11  1  0
 11 12  2  0
 11 16  1  0
 12 13  1  0
 13 14  2  0
 14 15  1  0
 15 16  2  0
 16 17  1  0
 17 18  1  0
 18 19  1  0
M  END
