WPC0799_minimised.pdb
     RDKit          3D

 23 24  0  0  0  0  0  0  0  0999 V2000
   10.7770    5.7350   24.4520 O   0  0  0  0  0  0  0  0  0  0  0  0
   11.9430    5.9220   24.1700 C   0  0  0  0  0  0  0  0  0  0  0  0
   12.6340    6.9360   24.7180 O   0  0  0  0  0  0  0  0  0  0  0  0
   12.7770    5.0100   23.2760 C   0  0  0  0  0  0  0  0  0  0  0  0
   12.3720    3.5270   23.3830 C   0  0  0  0  0  0  0  0  0  0  0  0
   13.7790    2.4850   22.8090 S   0  0  0  0  0  0  0  0  0  0  0  0
   13.4200    0.8560   23.5910 C   0  0  0  0  0  0  0  0  0  0  0  0
   12.0320    0.3640   23.2530 C   0  0  0  0  0  0  0  0  0  0  0  0
   11.8310   -0.3960   22.0920 C   0  0  0  0  0  0  0  0  0  0  0  0
   10.5340   -0.7730   21.7270 C   0  0  0  0  0  0  0  0  0  0  0  0
    9.4330   -0.3630   22.4940 C   0  0  0  0  0  0  0  0  0  0  0  0
    8.1200   -0.5260   22.0070 N   0  0  0  0  0  0  0  0  0  0  0  0
    7.7270   -0.1760   20.7430 C   0  0  0  0  0  0  0  0  0  0  0  0
    8.4890    0.0910   19.8330 O   0  0  0  0  0  0  0  0  0  0  0  0
    6.3700   -0.1010   20.6060 N   0  0  0  0  0  0  0  0  0  0  0  0
    5.7170    0.5020   19.5060 C   0  0  0  0  0  0  0  0  0  0  0  0
    4.7570    1.4930   19.7440 C   0  0  0  0  0  0  0  0  0  0  0  0
    4.2450    2.1810   18.6370 C   0  0  0  0  0  0  0  0  0  0  0  0
    4.7180    1.8780   17.3520 C   0  0  0  0  0  0  0  0  0  0  0  0
    5.6070    0.8880   17.1090 N   0  0  0  0  0  0  0  0  0  0  0  0
    6.1020    0.2280   18.1750 C   0  0  0  0  0  0  0  0  0  0  0  0
    9.6380    0.3310   23.6930 C   0  0  0  0  0  0  0  0  0  0  0  0
   10.9380    0.6830   24.0810 C   0  0  0  0  0  0  0  0  0  0  0  0
  1  2  2  0
  2  3  1  0
  2  4  1  0
  4  5  1  0
  5  6  1  0
  6  7  1  0
  7  8  1  0
  8 23  2  0
  8  9  1  0
  9 10  2  0
 10 11  1  0
 11 12  1  0
 11 22  2  0
 12 13  1  0
 13 14  2  0
 13 15  1  0
 15 16  1  0
 16 17  2  0
 16 21  1  0
 17 18  1  0
 18 19  2  0
 19 20  1  0
 20 21  2  0
 22 23  1  0
M  END
