WPC0181_minimised.pdb
     RDKit          3D

 24 26  0  0  0  0  0  0  0  0999 V2000
    9.0470    0.7760   20.5550 O   0  0  0  0  0  0  0  0  0  0  0  0
    8.7610   -0.2790   21.0800 C   0  0  0  0  0  0  0  0  0  0  0  0
    9.5880   -0.9120   21.9680 N   0  0  0  0  0  0  0  0  0  0  0  0
   10.8840   -0.4550   22.2920 C   0  0  0  0  0  0  0  0  0  0  0  0
   11.9990   -1.1500   21.8070 C   0  0  0  0  0  0  0  0  0  0  0  0
   13.2950   -0.6650   22.0410 C   0  0  0  0  0  0  0  0  0  0  0  0
   13.4760    0.5180   22.7760 C   0  0  0  0  0  0  0  0  0  0  0  0
   12.3590    1.2150   23.2660 C   0  0  0  0  0  0  0  0  0  0  0  0
   11.0640    0.7290   23.0230 C   0  0  0  0  0  0  0  0  0  0  0  0
    7.5830   -0.9260   20.8010 N   0  0  0  0  0  0  0  0  0  0  0  0
    6.6030   -0.4050   19.9030 C   0  0  0  0  0  0  0  0  0  0  0  0
    6.9540   -0.1570   18.5590 C   0  0  0  0  0  0  0  0  0  0  0  0
    6.1320    0.4190   17.6590 N   0  0  0  0  0  0  0  0  0  0  0  0
    4.9450    0.8770   18.1040 C   0  0  0  0  0  0  0  0  0  0  0  0
    4.4970    0.6600   19.4150 C   0  0  0  0  0  0  0  0  0  0  0  0
    5.3170   -0.0120   20.3280 C   0  0  0  0  0  0  0  0  0  0  0  0
    4.8350   -0.2470   21.5990 O   0  0  0  0  0  0  0  0  0  0  0  0
    5.5350    0.0270   22.7480 C   0  0  0  0  0  0  0  0  0  0  0  0
    6.3890    1.1410   22.8260 C   0  0  0  0  0  0  0  0  0  0  0  0
    7.1720    1.3390   23.9750 C   0  0  0  0  0  0  0  0  0  0  0  0
    7.0650    0.4460   25.0550 C   0  0  0  0  0  0  0  0  0  0  0  0
    8.0460    0.6610   26.4830 Cl  0  0  0  0  0  0  0  0  0  0  0  0
    6.1780   -0.6390   24.9950 C   0  0  0  0  0  0  0  0  0  0  0  0
    5.4130   -0.8510   23.8370 C   0  0  0  0  0  0  0  0  0  0  0  0
  1  2  2  0
  2  3  1  0
  2 10  1  0
  3  4  1  0
  4  5  2  0
  4  9  1  0
  5  6  1  0
  6  7  2  0
  7  8  1  0
  8  9  2  0
 10 11  1  0
 11 12  2  0
 11 16  1  0
 12 13  1  0
 13 14  2  0
 14 15  1  0
 15 16  2  0
 16 17  1  0
 17 18  1  0
 18 19  2  0
 18 24  1  0
 19 20  1  0
 20 21  2  0
 21 22  1  0
 21 23  1  0
 23 24  2  0
M  END
