WPC0559_minimised.pdb
     RDKit          3D

 24 25  0  0  0  0  0  0  0  0999 V2000
   11.4140    6.2920   24.5770 C   0  0  0  0  0  0  0  0  0  0  0  0
   12.5560    5.5200   23.9640 C   0  0  0  0  0  0  0  0  0  0  0  0
   13.4850    5.0990   24.6200 O   0  0  0  0  0  0  0  0  0  0  0  0
   12.3380    5.2450   22.6520 O   0  0  0  0  0  0  0  0  0  0  0  0
   13.1920    4.2910   22.0000 C   0  0  0  0  0  0  0  0  0  0  0  0
   12.8210    2.8840   22.5200 C   0  0  0  0  0  0  0  0  0  0  0  0
   13.9790    1.8560   22.4650 C   0  0  0  0  0  0  0  0  0  0  0  0
   13.7440    0.6550   23.4100 C   0  0  0  0  0  0  0  0  0  0  0  0
   12.3430    0.0990   23.2360 C   0  0  0  0  0  0  0  0  0  0  0  0
   12.0460   -0.6940   22.1170 C   0  0  0  0  0  0  0  0  0  0  0  0
   10.7130   -1.0120   21.8280 C   0  0  0  0  0  0  0  0  0  0  0  0
    9.6750   -0.5160   22.6310 C   0  0  0  0  0  0  0  0  0  0  0  0
    8.3390   -0.5890   22.1840 N   0  0  0  0  0  0  0  0  0  0  0  0
    7.9280   -0.1940   20.9370 C   0  0  0  0  0  0  0  0  0  0  0  0
    8.6770    0.0940   20.0230 O   0  0  0  0  0  0  0  0  0  0  0  0
    6.5690   -0.1100   20.8130 N   0  0  0  0  0  0  0  0  0  0  0  0
    5.9010    0.4540   19.7000 C   0  0  0  0  0  0  0  0  0  0  0  0
    4.9410    1.4500   19.9140 C   0  0  0  0  0  0  0  0  0  0  0  0
    4.3990    2.0850   18.7890 C   0  0  0  0  0  0  0  0  0  0  0  0
    4.8390    1.7210   17.5080 C   0  0  0  0  0  0  0  0  0  0  0  0
    5.7270    0.7260   17.2890 N   0  0  0  0  0  0  0  0  0  0  0  0
    6.2580    0.1240   18.3730 C   0  0  0  0  0  0  0  0  0  0  0  0
    9.9760    0.1890   23.8040 C   0  0  0  0  0  0  0  0  0  0  0  0
   11.3110    0.4870   24.1130 C   0  0  0  0  0  0  0  0  0  0  0  0
  1  2  1  0
  2  3  2  0
  2  4  1  0
  4  5  1  0
  5  6  1  0
  6  7  1  0
  7  8  1  0
  8  9  1  0
  9 24  2  0
  9 10  1  0
 10 11  2  0
 11 12  1  0
 12 13  1  0
 12 23  2  0
 13 14  1  0
 14 15  2  0
 14 16  1  0
 16 17  1  0
 17 18  2  0
 17 22  1  0
 18 19  1  0
 19 20  2  0
 20 21  1  0
 21 22  2  0
 23 24  1  0
M  END
