WPC0203_minimised.pdb
     RDKit          3D

 24 25  0  0  0  0  0  0  0  0999 V2000
    4.2950    3.2290   22.5520 C   0  0  0  0  0  0  0  0  0  0  0  0
    5.6420    2.4870   22.4430 C   0  0  0  0  0  0  0  0  0  0  0  0
    5.6000    1.1340   23.0580 N   0  0  0  0  0  0  0  0  0  0  0  0
    6.2880    0.9710   24.3540 C   0  0  0  0  0  0  0  0  0  0  0  0
    5.2970    0.8690   25.5320 C   0  0  0  0  0  0  0  0  0  0  0  0
    5.1000    0.0170   22.4010 C   0  0  0  0  0  0  0  0  0  0  0  0
    5.0350   -1.0960   22.8980 O   0  0  0  0  0  0  0  0  0  0  0  0
    4.4860    0.2990   21.2290 O   0  0  0  0  0  0  0  0  0  0  0  0
    5.0980    0.4200   20.0060 C   0  0  0  0  0  0  0  0  0  0  0  0
    4.4270    1.1700   19.0360 C   0  0  0  0  0  0  0  0  0  0  0  0
    4.9770    1.3030   17.7580 C   0  0  0  0  0  0  0  0  0  0  0  0
    6.1290    0.7010   17.4000 N   0  0  0  0  0  0  0  0  0  0  0  0
    6.8180    0.0500   18.3590 C   0  0  0  0  0  0  0  0  0  0  0  0
    6.3620   -0.1220   19.6820 C   0  0  0  0  0  0  0  0  0  0  0  0
    7.2410   -0.7000   20.6500 N   0  0  0  0  0  0  0  0  0  0  0  0
    8.4590   -0.1480   20.9680 C   0  0  0  0  0  0  0  0  0  0  0  0
    8.8550    0.8600   20.4250 O   0  0  0  0  0  0  0  0  0  0  0  0
    9.2050   -0.8080   21.9080 N   0  0  0  0  0  0  0  0  0  0  0  0
   10.5260   -0.4370   22.2510 C   0  0  0  0  0  0  0  0  0  0  0  0
   11.5920   -1.2870   21.9240 C   0  0  0  0  0  0  0  0  0  0  0  0
   12.9190   -0.8790   22.1420 C   0  0  0  0  0  0  0  0  0  0  0  0
   13.1790    0.3740   22.7220 C   0  0  0  0  0  0  0  0  0  0  0  0
   12.1120    1.2190   23.0700 C   0  0  0  0  0  0  0  0  0  0  0  0
   10.7890    0.8160   22.8270 C   0  0  0  0  0  0  0  0  0  0  0  0
  1  2  1  0
  2  3  1  0
  3  4  1  0
  3  6  1  0
  4  5  1  0
  6  7  2  0
  6  8  1  0
  8  9  1  0
  9 10  2  0
  9 14  1  0
 10 11  1  0
 11 12  2  0
 12 13  1  0
 13 14  2  0
 14 15  1  0
 15 16  1  0
 16 17  2  0
 16 18  1  0
 18 19  1  0
 19 20  2  0
 19 24  1  0
 20 21  1  0
 21 22  2  0
 22 23  1  0
 23 24  2  0
M  END
