WPC0476_minimised.pdb
     RDKit          3D

 21 22  0  0  0  0  0  0  0  0999 V2000
   12.9840    4.4830   23.8810 N   0  0  0  0  0  0  0  0  0  0  0  0
   13.7330    4.2210   22.9030 C   0  0  0  0  0  0  0  0  0  0  0  0
   14.3900    5.2700   22.3610 N   0  0  0  0  0  0  0  0  0  0  0  0
   14.3890    2.7510   22.2720 S   0  0  0  0  0  0  0  0  0  0  0  0
   13.7110    1.3580   23.2680 C   0  0  0  0  0  0  0  0  0  0  0  0
   12.2920    0.9750   22.9160 C   0  0  0  0  0  0  0  0  0  0  0  0
   12.0470   -0.0720   22.0110 C   0  0  0  0  0  0  0  0  0  0  0  0
   10.7290   -0.4580   21.7310 C   0  0  0  0  0  0  0  0  0  0  0  0
    9.6550    0.2100   22.3390 C   0  0  0  0  0  0  0  0  0  0  0  0
    8.3280   -0.0830   21.9730 N   0  0  0  0  0  0  0  0  0  0  0  0
    7.8540    0.0110   20.6950 C   0  0  0  0  0  0  0  0  0  0  0  0
    8.5630    0.1180   19.7140 O   0  0  0  0  0  0  0  0  0  0  0  0
    6.4890    0.0510   20.6300 N   0  0  0  0  0  0  0  0  0  0  0  0
    5.7710    0.5670   19.5270 C   0  0  0  0  0  0  0  0  0  0  0  0
    4.8090    1.5580   19.7590 C   0  0  0  0  0  0  0  0  0  0  0  0
    4.2390    2.1860   18.6460 C   0  0  0  0  0  0  0  0  0  0  0  0
    4.6630    1.8300   17.3580 C   0  0  0  0  0  0  0  0  0  0  0  0
    5.5490    0.8360   17.1220 N   0  0  0  0  0  0  0  0  0  0  0  0
    6.0980    0.2310   18.1950 C   0  0  0  0  0  0  0  0  0  0  0  0
    9.8980    1.2430   23.2540 C   0  0  0  0  0  0  0  0  0  0  0  0
   11.2150    1.6210   23.5480 C   0  0  0  0  0  0  0  0  0  0  0  0
  1  2  2  0
  2  3  1  0
  2  4  1  0
  4  5  1  0
  5  6  1  0
  6 21  2  0
  6  7  1  0
  7  8  2  0
  8  9  1  0
  9 10  1  0
  9 20  2  0
 10 11  1  0
 11 12  2  0
 11 13  1  0
 13 14  1  0
 14 15  2  0
 14 19  1  0
 15 16  1  0
 16 17  2  0
 17 18  1  0
 18 19  2  0
 20 21  1  0
M  END
