WPC0442_minimised.pdb
     RDKit          3D

 24 26  0  0  0  0  0  0  0  0999 V2000
    8.5420    0.2800   19.9910 O   0  0  0  0  0  0  0  0  0  0  0  0
    7.7710   -0.0220   20.8820 C   0  0  0  0  0  0  0  0  0  0  0  0
    8.1550   -0.4080   22.1410 N   0  0  0  0  0  0  0  0  0  0  0  0
    9.4800   -0.3230   22.6180 C   0  0  0  0  0  0  0  0  0  0  0  0
   10.5390   -0.8100   21.8360 C   0  0  0  0  0  0  0  0  0  0  0  0
   11.8630   -0.4910   22.1640 C   0  0  0  0  0  0  0  0  0  0  0  0
   12.1230    0.2940   23.2940 C   0  0  0  0  0  0  0  0  0  0  0  0
   13.7690    0.8960   23.5520 S   0  0  0  0  0  0  0  0  0  0  0  0
   13.8300    2.3640   22.4370 C   0  0  0  0  0  0  0  0  0  0  0  0
   12.9360    3.5140   22.8890 C   0  0  0  0  0  0  0  0  0  0  0  0
   11.5410    3.4500   22.7230 C   0  0  0  0  0  0  0  0  0  0  0  0
   10.7160    4.4880   23.1860 C   0  0  0  0  0  0  0  0  0  0  0  0
   11.2820    5.6140   23.7980 C   0  0  0  0  0  0  0  0  0  0  0  0
   12.6760    5.7100   23.9240 C   0  0  0  0  0  0  0  0  0  0  0  0
   13.4990    4.6710   23.4520 C   0  0  0  0  0  0  0  0  0  0  0  0
   11.0750    0.6800   24.1460 C   0  0  0  0  0  0  0  0  0  0  0  0
    9.7480    0.3790   23.8020 C   0  0  0  0  0  0  0  0  0  0  0  0
    6.4150    0.0290   20.7210 N   0  0  0  0  0  0  0  0  0  0  0  0
    5.7650    0.5850   19.5950 C   0  0  0  0  0  0  0  0  0  0  0  0
    4.7840    1.5650   19.7890 C   0  0  0  0  0  0  0  0  0  0  0  0
    4.2650    2.1980   18.6520 C   0  0  0  0  0  0  0  0  0  0  0  0
    4.7440    1.8460   17.3820 C   0  0  0  0  0  0  0  0  0  0  0  0
    5.6510    0.8630   17.1820 N   0  0  0  0  0  0  0  0  0  0  0  0
    6.1610    0.2650   18.2770 C   0  0  0  0  0  0  0  0  0  0  0  0
  1  2  2  0
  2  3  1  0
  2 18  1  0
  3  4  1  0
  4  5  2  0
  4 17  1  0
  5  6  1  0
  6  7  2  0
  7  8  1  0
  7 16  1  0
  8  9  1  0
  9 10  1  0
 10 11  2  0
 10 15  1  0
 11 12  1  0
 12 13  2  0
 13 14  1  0
 14 15  2  0
 16 17  2  0
 18 19  1  0
 19 20  2  0
 19 24  1  0
 20 21  1  0
 21 22  2  0
 22 23  1  0
 23 24  2  0
M  END
