WPC0149_minimised.pdb
     RDKit          3D

 23 24  0  0  0  0  0  0  0  0999 V2000
    8.0380    5.0450   21.9580 C   0  0  0  0  0  0  0  0  0  0  0  0
    6.9100    4.0350   22.1320 C   0  0  0  0  0  0  0  0  0  0  0  0
    5.7550    4.3740   22.2900 O   0  0  0  0  0  0  0  0  0  0  0  0
    7.3190    2.5850   22.1850 C   0  0  0  0  0  0  0  0  0  0  0  0
    6.1660    1.7530   22.6890 C   0  0  0  0  0  0  0  0  0  0  0  0
    6.0040    1.5110   23.8700 O   0  0  0  0  0  0  0  0  0  0  0  0
    5.2860    1.2180   21.7820 N   0  0  0  0  0  0  0  0  0  0  0  0
    5.4880    0.9960   20.4030 C   0  0  0  0  0  0  0  0  0  0  0  0
    4.8590    1.7940   19.4410 C   0  0  0  0  0  0  0  0  0  0  0  0
    5.1200    1.5660   18.0810 C   0  0  0  0  0  0  0  0  0  0  0  0
    5.9440    0.5850   17.6480 N   0  0  0  0  0  0  0  0  0  0  0  0
    6.5740   -0.1570   18.5820 C   0  0  0  0  0  0  0  0  0  0  0  0
    6.3710   -0.0030   19.9680 C   0  0  0  0  0  0  0  0  0  0  0  0
    7.2030   -0.6770   20.9080 N   0  0  0  0  0  0  0  0  0  0  0  0
    8.5290   -0.3580   21.0290 C   0  0  0  0  0  0  0  0  0  0  0  0
    9.0680    0.3560   20.2090 O   0  0  0  0  0  0  0  0  0  0  0  0
    9.1660   -0.8170   22.1500 N   0  0  0  0  0  0  0  0  0  0  0  0
   10.4900   -0.4510   22.4780 C   0  0  0  0  0  0  0  0  0  0  0  0
   11.5670   -1.0420   21.8000 C   0  0  0  0  0  0  0  0  0  0  0  0
   12.8780   -0.5820   22.0080 C   0  0  0  0  0  0  0  0  0  0  0  0
   13.1100    0.4820   22.8950 C   0  0  0  0  0  0  0  0  0  0  0  0
   12.0330    1.0700   23.5780 C   0  0  0  0  0  0  0  0  0  0  0  0
   10.7260    0.5960   23.3810 C   0  0  0  0  0  0  0  0  0  0  0  0
  1  2  1  0
  2  3  2  0
  2  4  1  0
  4  5  1  0
  5  6  2  0
  5  7  1  0
  7  8  1  0
  8  9  2  0
  8 13  1  0
  9 10  1  0
 10 11  2  0
 11 12  1  0
 12 13  2  0
 13 14  1  0
 14 15  1  0
 15 16  2  0
 15 17  1  0
 17 18  1  0
 18 19  2  0
 18 23  1  0
 19 20  1  0
 20 21  2  0
 21 22  1  0
 22 23  2  0
M  END
