WPC0647_minimised.pdb
     RDKit          3D

 19 20  0  0  0  0  0  0  0  0999 V2000
   12.6880    3.2600   22.9780 C   0  0  0  0  0  0  0  0  0  0  0  0
   13.6920    2.1800   22.9930 N   0  0  0  0  0  0  0  0  0  0  0  0
   13.3430    0.9300   23.6880 C   0  0  0  0  0  0  0  0  0  0  0  0
   11.9730    0.3990   23.3270 C   0  0  0  0  0  0  0  0  0  0  0  0
   11.8130   -0.4230   22.2010 C   0  0  0  0  0  0  0  0  0  0  0  0
   10.5280   -0.8210   21.8100 C   0  0  0  0  0  0  0  0  0  0  0  0
    9.4050   -0.3850   22.5280 C   0  0  0  0  0  0  0  0  0  0  0  0
    8.1080   -0.5760   22.0150 N   0  0  0  0  0  0  0  0  0  0  0  0
    7.7330   -0.2250   20.7460 C   0  0  0  0  0  0  0  0  0  0  0  0
    8.5050    0.0520   19.8480 O   0  0  0  0  0  0  0  0  0  0  0  0
    6.3760   -0.1530   20.5990 N   0  0  0  0  0  0  0  0  0  0  0  0
    5.7270    0.4580   19.5030 C   0  0  0  0  0  0  0  0  0  0  0  0
    4.7630    1.4440   19.7480 C   0  0  0  0  0  0  0  0  0  0  0  0
    4.2450    2.1350   18.6460 C   0  0  0  0  0  0  0  0  0  0  0  0
    4.7140    1.8370   17.3590 C   0  0  0  0  0  0  0  0  0  0  0  0
    5.6090    0.8550   17.1090 N   0  0  0  0  0  0  0  0  0  0  0  0
    6.1130    0.1950   18.1710 C   0  0  0  0  0  0  0  0  0  0  0  0
    9.5680    0.3700   23.6970 C   0  0  0  0  0  0  0  0  0  0  0  0
   10.8530    0.7570   24.1020 C   0  0  0  0  0  0  0  0  0  0  0  0
  1  2  1  0
  2  3  1  0
  3  4  1  0
  4 19  2  0
  4  5  1  0
  5  6  2  0
  6  7  1  0
  7  8  1  0
  7 18  2  0
  8  9  1  0
  9 10  2  0
  9 11  1  0
 11 12  1  0
 12 13  2  0
 12 17  1  0
 13 14  1  0
 14 15  2  0
 15 16  1  0
 16 17  2  0
 18 19  1  0
M  END
