WPC0396_minimised.pdb
     RDKit          3D

 21 22  0  0  0  0  0  0  0  0999 V2000
   13.0220    4.6500   22.5860 C   0  0  0  0  0  0  0  0  0  0  0  0
   12.5310    3.4810   23.4190 C   0  0  0  0  0  0  0  0  0  0  0  0
   11.8270    3.6260   24.4020 O   0  0  0  0  0  0  0  0  0  0  0  0
   13.2870    2.3760   23.1710 O   0  0  0  0  0  0  0  0  0  0  0  0
   13.0660    1.1320   23.8530 C   0  0  0  0  0  0  0  0  0  0  0  0
   11.7390    0.5410   23.4360 C   0  0  0  0  0  0  0  0  0  0  0  0
   11.6560   -0.2360   22.2710 C   0  0  0  0  0  0  0  0  0  0  0  0
   10.4060   -0.6850   21.8270 C   0  0  0  0  0  0  0  0  0  0  0  0
    9.2410   -0.3330   22.5260 C   0  0  0  0  0  0  0  0  0  0  0  0
    7.9690   -0.5510   21.9630 N   0  0  0  0  0  0  0  0  0  0  0  0
    7.6320   -0.1960   20.6860 C   0  0  0  0  0  0  0  0  0  0  0  0
    8.4270    0.0660   19.8020 O   0  0  0  0  0  0  0  0  0  0  0  0
    6.2820   -0.0960   20.5130 N   0  0  0  0  0  0  0  0  0  0  0  0
    5.6650    0.5370   19.4110 C   0  0  0  0  0  0  0  0  0  0  0  0
    4.7080    1.5320   19.6450 C   0  0  0  0  0  0  0  0  0  0  0  0
    4.2230    2.2390   18.5390 C   0  0  0  0  0  0  0  0  0  0  0  0
    4.7200    1.9520   17.2600 C   0  0  0  0  0  0  0  0  0  0  0  0
    5.6110    0.9630   17.0210 N   0  0  0  0  0  0  0  0  0  0  0  0
    6.0770    0.2820   18.0860 C   0  0  0  0  0  0  0  0  0  0  0  0
    9.3320    0.3770   23.7300 C   0  0  0  0  0  0  0  0  0  0  0  0
   10.5830    0.8070   24.1930 C   0  0  0  0  0  0  0  0  0  0  0  0
  1  2  1  0
  2  3  2  0
  2  4  1  0
  4  5  1  0
  5  6  1  0
  6 21  2  0
  6  7  1  0
  7  8  2  0
  8  9  1  0
  9 10  1  0
  9 20  2  0
 10 11  1  0
 11 12  2  0
 11 13  1  0
 13 14  1  0
 14 15  2  0
 14 19  1  0
 15 16  1  0
 16 17  2  0
 17 18  1  0
 18 19  2  0
 20 21  1  0
M  END
