WPC0309_minimised.pdb
     RDKit          3D

 17 18  0  0  0  0  0  0  0  0999 V2000
    8.8480    0.1060   19.9640 O   0  0  0  0  0  0  0  0  0  0  0  0
    8.2290    0.0480   21.0090 C   0  0  0  0  0  0  0  0  0  0  0  0
    6.8560    0.0900   21.0120 N   0  0  0  0  0  0  0  0  0  0  0  0
    6.0620    0.5020   19.9090 C   0  0  0  0  0  0  0  0  0  0  0  0
    5.1000    1.5000   20.1060 C   0  0  0  0  0  0  0  0  0  0  0  0
    4.4630    2.0260   18.9750 C   0  0  0  0  0  0  0  0  0  0  0  0
    4.8140    1.5570   17.7000 C   0  0  0  0  0  0  0  0  0  0  0  0
    5.6920    0.5490   17.5020 N   0  0  0  0  0  0  0  0  0  0  0  0
    6.3080    0.0470   18.5930 C   0  0  0  0  0  0  0  0  0  0  0  0
    8.8490   -0.0170   22.2610 N   0  0  0  0  0  0  0  0  0  0  0  0
    8.0730    0.0090   23.4530 O   0  0  0  0  0  0  0  0  0  0  0  0
   10.2520    0.0960   22.4400 C   0  0  0  0  0  0  0  0  0  0  0  0
   11.1240   -0.8400   21.8570 C   0  0  0  0  0  0  0  0  0  0  0  0
   12.5160   -0.6700   21.9550 C   0  0  0  0  0  0  0  0  0  0  0  0
   13.0400    0.4380   22.6400 C   0  0  0  0  0  0  0  0  0  0  0  0
   12.1700    1.3720   23.2260 C   0  0  0  0  0  0  0  0  0  0  0  0
   10.7800    1.2000   23.1300 C   0  0  0  0  0  0  0  0  0  0  0  0
  1  2  2  0
  2  3  1  0
  2 10  1  0
  3  4  1  0
  4  5  2  0
  4  9  1  0
  5  6  1  0
  6  7  2  0
  7  8  1  0
  8  9  2  0
 10 11  1  0
 10 12  1  0
 12 13  2  0
 12 17  1  0
 13 14  1  0
 14 15  2  0
 15 16  1  0
 16 17  2  0
M  END
