WPC0280_minimised.pdb
     RDKit          3D

 20 21  0  0  0  0  0  0  0  0999 V2000
    4.7400   -3.7840   23.1530 N   0  0  0  0  0  0  0  0  0  0  0  0
    5.3810   -2.8330   23.0340 C   0  0  0  0  0  0  0  0  0  0  0  0
    6.1690   -1.6240   22.7830 C   0  0  0  0  0  0  0  0  0  0  0  0
    6.9490   -1.7650   21.4610 C   0  0  0  0  0  0  0  0  0  0  0  0
    7.4090   -0.4730   20.9250 N   0  0  0  0  0  0  0  0  0  0  0  0
    8.6620    0.0760   21.1850 C   0  0  0  0  0  0  0  0  0  0  0  0
    9.0170    1.1100   20.6590 O   0  0  0  0  0  0  0  0  0  0  0  0
    9.5020   -0.6240   22.0200 N   0  0  0  0  0  0  0  0  0  0  0  0
   10.8570   -0.2990   22.2610 C   0  0  0  0  0  0  0  0  0  0  0  0
   11.8530   -1.2360   21.9550 C   0  0  0  0  0  0  0  0  0  0  0  0
   13.2100   -0.9020   22.0970 C   0  0  0  0  0  0  0  0  0  0  0  0
   13.5700    0.3650   22.5860 C   0  0  0  0  0  0  0  0  0  0  0  0
   12.5730    1.2970   22.9170 C   0  0  0  0  0  0  0  0  0  0  0  0
   11.2190    0.9680   22.7460 C   0  0  0  0  0  0  0  0  0  0  0  0
    6.5530    0.1410   19.9650 C   0  0  0  0  0  0  0  0  0  0  0  0
    5.5720    1.0650   20.3560 C   0  0  0  0  0  0  0  0  0  0  0  0
    4.8190    1.6910   19.3490 C   0  0  0  0  0  0  0  0  0  0  0  0
    5.0580    1.3730   18.0030 C   0  0  0  0  0  0  0  0  0  0  0  0
    5.9830    0.4640   17.6180 N   0  0  0  0  0  0  0  0  0  0  0  0
    6.7260   -0.1080   18.5870 C   0  0  0  0  0  0  0  0  0  0  0  0
  1  2  3  0
  2  3  1  0
  3  4  1  0
  4  5  1  0
  5  6  1  0
  5 15  1  0
  6  8  1  0
  6  7  2  0
  8  9  1  0
  9 10  2  0
  9 14  1  0
 10 11  1  0
 11 12  2  0
 12 13  1  0
 13 14  2  0
 15 16  2  0
 15 20  1  0
 16 17  1  0
 17 18  2  0
 18 19  1  0
 19 20  2  0
M  END
