WPC0696_minimised.pdb
     RDKit          3D

 24 25  0  0  0  0  0  0  0  0999 V2000
    9.8860    5.8940   22.8740 N   0  0  0  0  0  0  0  0  0  0  0  0
   11.1180    5.5320   23.3380 C   0  0  0  0  0  0  0  0  0  0  0  0
   11.7350    6.1560   24.7500 S   0  0  0  0  0  0  0  0  0  0  0  0
   11.7630    4.6980   22.4530 N   0  0  0  0  0  0  0  0  0  0  0  0
   12.9790    4.0980   22.6530 N   0  0  0  0  0  0  0  0  0  0  0  0
   13.1100    2.8970   22.2150 C   0  0  0  0  0  0  0  0  0  0  0  0
   14.3890    2.0980   22.2890 C   0  0  0  0  0  0  0  0  0  0  0  0
   14.1010    0.6450   23.3880 S   0  0  0  0  0  0  0  0  0  0  0  0
   12.3950    0.2330   23.1270 C   0  0  0  0  0  0  0  0  0  0  0  0
   12.0370   -0.6620   22.1090 C   0  0  0  0  0  0  0  0  0  0  0  0
   10.6810   -0.8970   21.8440 C   0  0  0  0  0  0  0  0  0  0  0  0
    9.6900   -0.2270   22.5790 C   0  0  0  0  0  0  0  0  0  0  0  0
    8.3430   -0.3050   22.1740 N   0  0  0  0  0  0  0  0  0  0  0  0
    7.9090    0.0580   20.9280 C   0  0  0  0  0  0  0  0  0  0  0  0
    8.6520    0.3780   20.0200 O   0  0  0  0  0  0  0  0  0  0  0  0
    6.5480    0.0630   20.8010 N   0  0  0  0  0  0  0  0  0  0  0  0
    5.8590    0.5790   19.6790 C   0  0  0  0  0  0  0  0  0  0  0  0
    4.8710    1.5500   19.8760 C   0  0  0  0  0  0  0  0  0  0  0  0
    4.3200    2.1530   18.7390 C   0  0  0  0  0  0  0  0  0  0  0  0
    4.7730    1.7780   17.4660 C   0  0  0  0  0  0  0  0  0  0  0  0
    5.6860    0.8010   17.2650 N   0  0  0  0  0  0  0  0  0  0  0  0
    6.2270    0.2320   18.3610 C   0  0  0  0  0  0  0  0  0  0  0  0
   10.0480    0.6240   23.6320 C   0  0  0  0  0  0  0  0  0  0  0  0
   11.4040    0.8510   23.9060 C   0  0  0  0  0  0  0  0  0  0  0  0
  1  2  1  0
  2  3  2  0
  2  4  1  0
  4  5  1  0
  5  6  2  0
  6  7  1  0
  7  8  1  0
  8  9  1  0
  9 24  2  0
  9 10  1  0
 10 11  2  0
 11 12  1  0
 12 13  1  0
 12 23  2  0
 13 14  1  0
 14 15  2  0
 14 16  1  0
 16 17  1  0
 17 18  2  0
 17 22  1  0
 18 19  1  0
 19 20  2  0
 20 21  1  0
 21 22  2  0
 23 24  1  0
M  END
