WPC0535_minimised.pdb
     RDKit          3D

 20 21  0  0  0  0  0  0  0  0999 V2000
   13.8060    5.2660   22.1850 C   0  0  0  0  0  0  0  0  0  0  0  0
   13.6450    4.0290   23.0860 C   0  0  0  0  0  0  0  0  0  0  0  0
   14.1770    2.7340   22.4290 C   0  0  0  0  0  0  0  0  0  0  0  0
   13.8950    1.4370   23.2230 C   0  0  0  0  0  0  0  0  0  0  0  0
   12.4890    0.9080   23.0080 C   0  0  0  0  0  0  0  0  0  0  0  0
   12.2460   -0.0310   21.9910 C   0  0  0  0  0  0  0  0  0  0  0  0
   10.9370   -0.4680   21.7410 C   0  0  0  0  0  0  0  0  0  0  0  0
    9.8650    0.0440   22.4880 C   0  0  0  0  0  0  0  0  0  0  0  0
    8.5310   -0.2320   22.1170 N   0  0  0  0  0  0  0  0  0  0  0  0
    8.0350   -0.0350   20.8560 C   0  0  0  0  0  0  0  0  0  0  0  0
    8.7250    0.1770   19.8790 O   0  0  0  0  0  0  0  0  0  0  0  0
    6.6690   -0.0350   20.7920 N   0  0  0  0  0  0  0  0  0  0  0  0
    5.9360    0.4670   19.6890 C   0  0  0  0  0  0  0  0  0  0  0  0
    4.9750    1.4610   19.9130 C   0  0  0  0  0  0  0  0  0  0  0  0
    4.3890    2.0640   18.7940 C   0  0  0  0  0  0  0  0  0  0  0  0
    4.7900    1.6770   17.5080 C   0  0  0  0  0  0  0  0  0  0  0  0
    5.6740    0.6800   17.2800 N   0  0  0  0  0  0  0  0  0  0  0  0
    6.2460    0.1050   18.3590 C   0  0  0  0  0  0  0  0  0  0  0  0
   10.1110    0.9350   23.5400 C   0  0  0  0  0  0  0  0  0  0  0  0
   11.4210    1.3620   23.8020 C   0  0  0  0  0  0  0  0  0  0  0  0
  1  2  1  0
  2  3  1  0
  3  4  1  0
  4  5  1  0
  5 20  2  0
  5  6  1  0
  6  7  2  0
  7  8  1  0
  8  9  1  0
  8 19  2  0
  9 10  1  0
 10 11  2  0
 10 12  1  0
 12 13  1  0
 13 14  2  0
 13 18  1  0
 14 15  1  0
 15 16  2  0
 16 17  1  0
 17 18  2  0
 19 20  1  0
M  END
