WPC0547_minimised.pdb
     RDKit          3D

 23 24  0  0  0  0  0  0  0  0999 V2000
    8.5750    4.0320   22.4020 C   0  0  0  0  0  0  0  0  0  0  0  0
    9.2650    5.4060   22.3040 C   0  0  0  0  0  0  0  0  0  0  0  0
   10.5870    5.3310   22.8860 O   0  0  0  0  0  0  0  0  0  0  0  0
   11.5930    4.6950   22.2140 C   0  0  0  0  0  0  0  0  0  0  0  0
   11.5050    4.2820   21.0710 O   0  0  0  0  0  0  0  0  0  0  0  0
   12.8780    4.6660   23.0350 C   0  0  0  0  0  0  0  0  0  0  0  0
   13.7680    3.0510   22.8590 S   0  0  0  0  0  0  0  0  0  0  0  0
   12.4680    1.8420   23.0050 C   0  0  0  0  0  0  0  0  0  0  0  0
   12.4340    0.7880   22.0810 C   0  0  0  0  0  0  0  0  0  0  0  0
   11.2690    0.0210   21.9410 C   0  0  0  0  0  0  0  0  0  0  0  0
   10.1500    0.2970   22.7430 C   0  0  0  0  0  0  0  0  0  0  0  0
    8.8810   -0.1840   22.3570 N   0  0  0  0  0  0  0  0  0  0  0  0
    8.2970    0.1780   21.1680 C   0  0  0  0  0  0  0  0  0  0  0  0
    8.8770    0.8120   20.3080 O   0  0  0  0  0  0  0  0  0  0  0  0
    6.9870   -0.1920   21.0260 N   0  0  0  0  0  0  0  0  0  0  0  0
    6.1920    0.2130   19.9260 C   0  0  0  0  0  0  0  0  0  0  0  0
    5.1240    1.0910   20.1400 C   0  0  0  0  0  0  0  0  0  0  0  0
    4.4620    1.5980   19.0160 C   0  0  0  0  0  0  0  0  0  0  0  0
    4.8850    1.2230   17.7330 C   0  0  0  0  0  0  0  0  0  0  0  0
    5.8860    0.3430   17.5150 N   0  0  0  0  0  0  0  0  0  0  0  0
    6.5420   -0.1230   18.5990 C   0  0  0  0  0  0  0  0  0  0  0  0
   10.2420    1.2390   23.7780 C   0  0  0  0  0  0  0  0  0  0  0  0
   11.4010    2.0190   23.9050 C   0  0  0  0  0  0  0  0  0  0  0  0
  1  2  1  0
  2  3  1  0
  3  4  1  0
  4  5  2  0
  4  6  1  0
  6  7  1  0
  7  8  1  0
  8 23  2  0
  8  9  1  0
  9 10  2  0
 10 11  1  0
 11 12  1  0
 11 22  2  0
 12 13  1  0
 13 14  2  0
 13 15  1  0
 15 16  1  0
 16 17  2  0
 16 21  1  0
 17 18  1  0
 18 19  2  0
 19 20  1  0
 20 21  2  0
 22 23  1  0
M  END
