WPC0515_minimised.pdb
     RDKit          3D

 20 21  0  0  0  0  0  0  0  0999 V2000
   11.8960    3.4100   22.2740 N   0  0  0  0  0  0  0  0  0  0  0  0
   13.2540    3.4890   22.3190 N   0  0  0  0  0  0  0  0  0  0  0  0
   14.0440    2.5210   22.6610 C   0  0  0  0  0  0  0  0  0  0  0  0
   13.7070    1.1150   23.1650 C   0  0  0  0  0  0  0  0  0  0  0  0
   12.2950    0.5920   22.9730 C   0  0  0  0  0  0  0  0  0  0  0  0
   12.0130   -0.2760   21.9090 C   0  0  0  0  0  0  0  0  0  0  0  0
   10.6940   -0.6850   21.6810 C   0  0  0  0  0  0  0  0  0  0  0  0
    9.6510   -0.2060   22.4870 C   0  0  0  0  0  0  0  0  0  0  0  0
    8.3120   -0.3950   22.0910 N   0  0  0  0  0  0  0  0  0  0  0  0
    7.8460   -0.0780   20.8420 C   0  0  0  0  0  0  0  0  0  0  0  0
    8.5640    0.2270   19.9080 O   0  0  0  0  0  0  0  0  0  0  0  0
    6.4830   -0.0800   20.7400 N   0  0  0  0  0  0  0  0  0  0  0  0
    5.7810    0.4660   19.6400 C   0  0  0  0  0  0  0  0  0  0  0  0
    4.8180    1.4550   19.8710 C   0  0  0  0  0  0  0  0  0  0  0  0
    4.2670    2.0990   18.7570 C   0  0  0  0  0  0  0  0  0  0  0  0
    4.7000    1.7500   17.4690 C   0  0  0  0  0  0  0  0  0  0  0  0
    5.5900    0.7590   17.2340 N   0  0  0  0  0  0  0  0  0  0  0  0
    6.1260    0.1460   18.3080 C   0  0  0  0  0  0  0  0  0  0  0  0
    9.9410    0.5860   23.6060 C   0  0  0  0  0  0  0  0  0  0  0  0
   11.2660    0.9690   23.8590 C   0  0  0  0  0  0  0  0  0  0  0  0
  1  2  1  0
  2  3  2  0
  3  4  1  0
  4  5  1  0
  5 20  2  0
  5  6  1  0
  6  7  2  0
  7  8  1  0
  8  9  1  0
  8 19  2  0
  9 10  1  0
 10 11  2  0
 10 12  1  0
 12 13  1  0
 13 14  2  0
 13 18  1  0
 14 15  1  0
 15 16  2  0
 16 17  1  0
 17 18  2  0
 19 20  1  0
M  END
