WPC0417_minimised.pdb
     RDKit          3D

 23 24  0  0  1  0  0  0  0  0999 V2000
   13.8420    0.3940   21.3900 C   0  0  0  0  0  0  0  0  0  0  0  0
   13.7950    1.1000   22.7610 C   0  0  2  0  0  0  0  0  0  0  0  0
   13.0470    0.2600   23.7300 N   0  0  0  0  0  0  0  0  0  0  0  0
   11.7200   -0.0620   23.4940 C   0  0  0  0  0  0  0  0  0  0  0  0
   11.3980   -1.1830   22.7110 C   0  0  0  0  0  0  0  0  0  0  0  0
   10.0700   -1.4220   22.3310 C   0  0  0  0  0  0  0  0  0  0  0  0
    9.0600   -0.5450   22.7490 C   0  0  0  0  0  0  0  0  0  0  0  0
    7.7580   -0.6490   22.2200 N   0  0  0  0  0  0  0  0  0  0  0  0
    7.4660   -0.5300   20.8880 C   0  0  0  0  0  0  0  0  0  0  0  0
    8.2640   -0.6700   19.9800 O   0  0  0  0  0  0  0  0  0  0  0  0
    6.1610   -0.1710   20.6950 N   0  0  0  0  0  0  0  0  0  0  0  0
    5.6250    0.4570   19.5470 C   0  0  0  0  0  0  0  0  0  0  0  0
    4.6960    1.4880   19.7380 C   0  0  0  0  0  0  0  0  0  0  0  0
    4.2430    2.1780   18.6070 C   0  0  0  0  0  0  0  0  0  0  0  0
    4.7380    1.8330   17.3430 C   0  0  0  0  0  0  0  0  0  0  0  0
    5.6020    0.8120   17.1430 N   0  0  0  0  0  0  0  0  0  0  0  0
    6.0450    0.1520   18.2330 C   0  0  0  0  0  0  0  0  0  0  0  0
    9.3660    0.5300   23.5980 C   0  0  0  0  0  0  0  0  0  0  0  0
   10.6980    0.7690   23.9700 C   0  0  0  0  0  0  0  0  0  0  0  0
   13.2650    2.5570   22.6430 C   0  0  0  0  0  0  0  0  0  0  0  0
   12.1240    2.8620   22.3460 O   0  0  0  0  0  0  0  0  0  0  0  0
   14.1900    3.5580   22.8970 N   0  0  0  0  0  0  0  0  0  0  0  0
   13.8880    4.9380   22.7360 N   0  0  0  0  0  0  0  0  0  0  0  0
  2  1  1  6
  2 20  1  0
  2  3  1  0
  3  4  1  0
  4 19  2  0
  4  5  1  0
  5  6  2  0
  6  7  1  0
  7  8  1  0
  7 18  2  0
  8  9  1  0
  9 10  2  0
  9 11  1  0
 11 12  1  0
 12 13  2  0
 12 17  1  0
 13 14  1  0
 14 15  2  0
 15 16  1  0
 16 17  2  0
 18 19  1  0
 20 22  1  0
 20 21  2  0
 22 23  1  0
M  END
