WPC0520_minimised.pdb
     RDKit          3D

 19 20  0  0  0  0  0  0  0  0999 V2000
   12.2730    3.0440   23.4180 C   0  0  0  0  0  0  0  0  0  0  0  0
   13.3570    2.0910   23.3780 O   0  0  0  0  0  0  0  0  0  0  0  0
   13.1330    0.7650   23.8970 C   0  0  0  0  0  0  0  0  0  0  0  0
   11.7800    0.2280   23.4820 C   0  0  0  0  0  0  0  0  0  0  0  0
   11.6420   -0.4270   22.2510 C   0  0  0  0  0  0  0  0  0  0  0  0
   10.3690   -0.7970   21.8060 C   0  0  0  0  0  0  0  0  0  0  0  0
    9.2320   -0.4780   22.5640 C   0  0  0  0  0  0  0  0  0  0  0  0
    7.9430   -0.6050   22.0080 N   0  0  0  0  0  0  0  0  0  0  0  0
    7.6000   -0.1910   20.7480 C   0  0  0  0  0  0  0  0  0  0  0  0
    8.3900    0.1060   19.8720 O   0  0  0  0  0  0  0  0  0  0  0  0
    6.2490   -0.0950   20.5770 N   0  0  0  0  0  0  0  0  0  0  0  0
    5.6290    0.5310   19.4730 C   0  0  0  0  0  0  0  0  0  0  0  0
    4.6730    1.5280   19.7010 C   0  0  0  0  0  0  0  0  0  0  0  0
    4.1850    2.2250   18.5890 C   0  0  0  0  0  0  0  0  0  0  0  0
    4.6720    1.9190   17.3100 C   0  0  0  0  0  0  0  0  0  0  0  0
    5.5620    0.9280   17.0780 N   0  0  0  0  0  0  0  0  0  0  0  0
    6.0370    0.2630   18.1490 C   0  0  0  0  0  0  0  0  0  0  0  0
    9.3770    0.1000   23.8320 C   0  0  0  0  0  0  0  0  0  0  0  0
   10.6540    0.4410   24.3000 C   0  0  0  0  0  0  0  0  0  0  0  0
  1  2  1  0
  2  3  1  0
  3  4  1  0
  4 19  2  0
  4  5  1  0
  5  6  2  0
  6  7  1  0
  7  8  1  0
  7 18  2  0
  8  9  1  0
  9 10  2  0
  9 11  1  0
 11 12  1  0
 12 13  2  0
 12 17  1  0
 13 14  1  0
 14 15  2  0
 15 16  1  0
 16 17  2  0
 18 19  1  0
M  END
