WPC0914_minimised.pdb
     RDKit          3D

 23 24  0  0  0  0  0  0  0  0999 V2000
   14.2410    6.2600   21.7580 C   0  0  0  0  0  0  0  0  0  0  0  0
   13.5030    4.9450   21.8380 C   0  0  0  0  0  0  0  0  0  0  0  0
   13.0780    4.3690   20.8570 O   0  0  0  0  0  0  0  0  0  0  0  0
   13.4000    4.4450   23.1220 N   0  0  0  0  0  0  0  0  0  0  0  0
   12.9020    3.1540   23.4380 N   0  0  0  0  0  0  0  0  0  0  0  0
   13.7950    2.0780   22.9750 C   0  0  0  0  0  0  0  0  0  0  0  0
   13.4520    0.7050   23.5860 C   0  0  0  0  0  0  0  0  0  0  0  0
   12.0240    0.2790   23.3020 C   0  0  0  0  0  0  0  0  0  0  0  0
   11.7520   -0.6160   22.2550 C   0  0  0  0  0  0  0  0  0  0  0  0
   10.4250   -0.8990   21.9080 C   0  0  0  0  0  0  0  0  0  0  0  0
    9.3700   -0.2860   22.5990 C   0  0  0  0  0  0  0  0  0  0  0  0
    8.0520   -0.3860   22.1140 N   0  0  0  0  0  0  0  0  0  0  0  0
    7.6910   -0.0930   20.8270 C   0  0  0  0  0  0  0  0  0  0  0  0
    8.4710    0.0810   19.9100 O   0  0  0  0  0  0  0  0  0  0  0  0
    6.3390    0.0360   20.6800 N   0  0  0  0  0  0  0  0  0  0  0  0
    5.6960    0.5910   19.5500 C   0  0  0  0  0  0  0  0  0  0  0  0
    4.7270    1.5810   19.7480 C   0  0  0  0  0  0  0  0  0  0  0  0
    4.1970    2.2070   18.6140 C   0  0  0  0  0  0  0  0  0  0  0  0
    4.6570    1.8400   17.3420 C   0  0  0  0  0  0  0  0  0  0  0  0
    5.5560    0.8500   17.1380 N   0  0  0  0  0  0  0  0  0  0  0  0
    6.0770    0.2570   18.2320 C   0  0  0  0  0  0  0  0  0  0  0  0
    9.6370    0.5320   23.7050 C   0  0  0  0  0  0  0  0  0  0  0  0
   10.9640    0.8080   24.0620 C   0  0  0  0  0  0  0  0  0  0  0  0
  1  2  1  0
  2  3  2  0
  2  4  1  0
  4  5  1  0
  5  6  1  0
  6  7  1  0
  7  8  1  0
  8 23  2  0
  8  9  1  0
  9 10  2  0
 10 11  1  0
 11 12  1  0
 11 22  2  0
 12 13  1  0
 13 14  2  0
 13 15  1  0
 15 16  1  0
 16 17  2  0
 16 21  1  0
 17 18  1  0
 18 19  2  0
 19 20  1  0
 20 21  2  0
 22 23  1  0
M  END
