WPC0745_minimised.pdb
     RDKit          3D

 24 26  0  0  0  0  0  0  0  0999 V2000
   12.7490    7.2020   25.6720 C   0  0  0  0  0  0  0  0  0  0  0  0
   12.3670    6.1020   24.7260 C   0  0  0  0  0  0  0  0  0  0  0  0
   13.2740    5.2900   24.2210 N   0  0  0  0  0  0  0  0  0  0  0  0
   12.6890    4.3840   23.3740 C   0  0  0  0  0  0  0  0  0  0  0  0
   13.5020    3.4160   22.5650 C   0  0  0  0  0  0  0  0  0  0  0  0
   13.7220    1.7350   23.3120 S   0  0  0  0  0  0  0  0  0  0  0  0
   12.1430    0.9620   23.1190 C   0  0  0  0  0  0  0  0  0  0  0  0
   11.9860   -0.0090   22.1210 C   0  0  0  0  0  0  0  0  0  0  0  0
   10.7100   -0.5190   21.8470 C   0  0  0  0  0  0  0  0  0  0  0  0
    9.5980   -0.0500   22.5660 C   0  0  0  0  0  0  0  0  0  0  0  0
    8.2930   -0.3480   22.1250 N   0  0  0  0  0  0  0  0  0  0  0  0
    7.8560   -0.0950   20.8510 C   0  0  0  0  0  0  0  0  0  0  0  0
    8.5900    0.1770   19.9200 O   0  0  0  0  0  0  0  0  0  0  0  0
    6.4940   -0.1030   20.7280 N   0  0  0  0  0  0  0  0  0  0  0  0
    5.8040    0.4500   19.6230 C   0  0  0  0  0  0  0  0  0  0  0  0
    4.8410    1.4410   19.8530 C   0  0  0  0  0  0  0  0  0  0  0  0
    4.3010    2.0950   18.7390 C   0  0  0  0  0  0  0  0  0  0  0  0
    4.7420    1.7530   17.4530 C   0  0  0  0  0  0  0  0  0  0  0  0
    5.6310    0.7620   17.2180 N   0  0  0  0  0  0  0  0  0  0  0  0
    6.1610    0.1410   18.2920 C   0  0  0  0  0  0  0  0  0  0  0  0
    9.7750    0.8460   23.6320 C   0  0  0  0  0  0  0  0  0  0  0  0
   11.0540    1.3490   23.9150 C   0  0  0  0  0  0  0  0  0  0  0  0
   11.3300    4.5040   23.2360 C   0  0  0  0  0  0  0  0  0  0  0  0
   10.7150    5.8030   24.2240 S   0  0  0  0  0  0  0  0  0  0  0  0
  1  2  1  0
  2  3  2  0
  2 24  1  0
  3  4  1  0
  4 23  2  0
  4  5  1  0
  5  6  1  0
  6  7  1  0
  7 22  1  0
  7  8  2  0
  8  9  1  0
  9 10  2  0
 10 11  1  0
 10 21  1  0
 11 12  1  0
 12 13  2  0
 12 14  1  0
 14 15  1  0
 15 16  2  0
 15 20  1  0
 16 17  1  0
 17 18  2  0
 18 19  1  0
 19 20  2  0
 21 22  2  0
 23 24  1  0
M  END
