WPC0610_minimised.pdb
     RDKit          3D

 21 22  0  0  0  0  0  0  0  0999 V2000
    8.4450    0.0580   19.8560 O   0  0  0  0  0  0  0  0  0  0  0  0
    7.6640   -0.2850   20.7240 C   0  0  0  0  0  0  0  0  0  0  0  0
    8.0180   -0.7240   21.9720 N   0  0  0  0  0  0  0  0  0  0  0  0
    9.2950   -0.5350   22.5360 C   0  0  0  0  0  0  0  0  0  0  0  0
   10.4530   -0.7940   21.7880 C   0  0  0  0  0  0  0  0  0  0  0  0
   11.6990   -0.3340   22.2310 C   0  0  0  0  0  0  0  0  0  0  0  0
   11.7830    0.3570   23.4490 C   0  0  0  0  0  0  0  0  0  0  0  0
   13.0760    1.0240   23.8570 C   0  0  0  0  0  0  0  0  0  0  0  0
   13.1890    2.4070   23.3540 N   0  0  0  0  0  0  0  0  0  0  0  0
   11.9780    3.2520   23.4410 C   0  0  0  0  0  0  0  0  0  0  0  0
   12.2500    4.6930   22.9570 C   0  0  0  0  0  0  0  0  0  0  0  0
   11.0210    5.3980   22.7690 O   0  0  0  0  0  0  0  0  0  0  0  0
   10.6430    0.4980   24.2630 C   0  0  0  0  0  0  0  0  0  0  0  0
    9.3950    0.0640   23.7990 C   0  0  0  0  0  0  0  0  0  0  0  0
    6.3100   -0.2050   20.5600 N   0  0  0  0  0  0  0  0  0  0  0  0
    5.6810    0.4450   19.4740 C   0  0  0  0  0  0  0  0  0  0  0  0
    4.7330    1.4430   19.7300 C   0  0  0  0  0  0  0  0  0  0  0  0
    4.2350    2.1610   18.6350 C   0  0  0  0  0  0  0  0  0  0  0  0
    4.7070    1.8760   17.3460 C   0  0  0  0  0  0  0  0  0  0  0  0
    5.5930    0.8870   17.0880 N   0  0  0  0  0  0  0  0  0  0  0  0
    6.0750    0.2000   18.1420 C   0  0  0  0  0  0  0  0  0  0  0  0
  1  2  2  0
  2  3  1  0
  2 15  1  0
  3  4  1  0
  4  5  2  0
  4 14  1  0
  5  6  1  0
  6  7  2  0
  7  8  1  0
  7 13  1  0
  8  9  1  0
  9 10  1  0
 10 11  1  0
 11 12  1  0
 13 14  2  0
 15 16  1  0
 16 17  2  0
 16 21  1  0
 17 18  1  0
 18 19  2  0
 19 20  1  0
 20 21  2  0
M  END
