WPC0980_minimised.pdb
     RDKit          3D

 23 24  0  0  0  0  0  0  0  0999 V2000
   13.4860    4.3580   21.3430 C   0  0  0  0  0  0  0  0  0  0  0  0
   13.6840    4.2360   22.8660 C   0  0  0  0  0  0  0  0  0  0  0  0
   12.8380    5.2800   23.6150 C   0  0  0  0  0  0  0  0  0  0  0  0
   13.2470    2.9410   23.3190 O   0  0  0  0  0  0  0  0  0  0  0  0
   13.9680    1.8250   23.0070 C   0  0  0  0  0  0  0  0  0  0  0  0
   15.0200    1.8260   22.3980 O   0  0  0  0  0  0  0  0  0  0  0  0
   13.4160    0.5590   23.6500 C   0  0  0  0  0  0  0  0  0  0  0  0
   11.9610    0.2760   23.3170 C   0  0  0  0  0  0  0  0  0  0  0  0
   11.6290   -0.7270   22.3910 C   0  0  0  0  0  0  0  0  0  0  0  0
   10.2910   -0.9270   22.0240 C   0  0  0  0  0  0  0  0  0  0  0  0
    9.2820   -0.1440   22.6020 C   0  0  0  0  0  0  0  0  0  0  0  0
    7.9580   -0.2310   22.1320 N   0  0  0  0  0  0  0  0  0  0  0  0
    7.5950    0.0270   20.8400 C   0  0  0  0  0  0  0  0  0  0  0  0
    8.3790    0.1820   19.9250 O   0  0  0  0  0  0  0  0  0  0  0  0
    6.2440    0.1440   20.6830 N   0  0  0  0  0  0  0  0  0  0  0  0
    5.6090    0.6820   19.5390 C   0  0  0  0  0  0  0  0  0  0  0  0
    4.6400    1.6770   19.7140 C   0  0  0  0  0  0  0  0  0  0  0  0
    4.1290    2.2930   18.5670 C   0  0  0  0  0  0  0  0  0  0  0  0
    4.6040    1.9120   17.3050 C   0  0  0  0  0  0  0  0  0  0  0  0
    5.5010    0.9150   17.1230 N   0  0  0  0  0  0  0  0  0  0  0  0
    6.0030    0.3300   18.2290 C   0  0  0  0  0  0  0  0  0  0  0  0
    9.6010    0.8060   23.5820 C   0  0  0  0  0  0  0  0  0  0  0  0
   10.9400    1.0160   23.9400 C   0  0  0  0  0  0  0  0  0  0  0  0
  1  2  1  0
  2  3  1  0
  2  4  1  0
  4  5  1  0
  5  6  2  0
  5  7  1  0
  7  8  1  0
  8 23  2  0
  8  9  1  0
  9 10  2  0
 10 11  1  0
 11 12  1  0
 11 22  2  0
 12 13  1  0
 13 14  2  0
 13 15  1  0
 15 16  1  0
 16 17  2  0
 16 21  1  0
 17 18  1  0
 18 19  2  0
 19 20  1  0
 20 21  2  0
 22 23  1  0
M  END
