WPC0904_minimised.pdb
     RDKit          3D

 20 21  0  0  1  0  0  0  0  0999 V2000
   13.9550   -1.9340   23.5440 C   0  0  0  0  0  0  0  0  0  0  0  0
   13.2010   -0.6210   23.8350 C   0  0  1  0  0  0  0  0  0  0  0  0
   13.8500    0.5480   23.0660 C   0  0  0  0  0  0  0  0  0  0  0  0
   13.1730    1.8160   23.3500 N   0  0  0  0  0  0  0  0  0  0  0  0
   11.7250   -0.7170   23.4690 C   0  0  0  0  0  0  0  0  0  0  0  0
   11.3390   -1.2670   22.2350 C   0  0  0  0  0  0  0  0  0  0  0  0
   10.0030   -1.2080   21.8280 C   0  0  0  0  0  0  0  0  0  0  0  0
    9.0490   -0.5640   22.6270 C   0  0  0  0  0  0  0  0  0  0  0  0
    7.7550   -0.3340   22.1190 N   0  0  0  0  0  0  0  0  0  0  0  0
    7.4830    0.1310   20.8600 C   0  0  0  0  0  0  0  0  0  0  0  0
    8.3190    0.3490   20.0020 O   0  0  0  0  0  0  0  0  0  0  0  0
    6.1480    0.3280   20.6540 N   0  0  0  0  0  0  0  0  0  0  0  0
    5.5700    0.8730   19.4860 C   0  0  0  0  0  0  0  0  0  0  0  0
    4.5790    1.8520   19.6130 C   0  0  0  0  0  0  0  0  0  0  0  0
    4.1150    2.4570   18.4400 C   0  0  0  0  0  0  0  0  0  0  0  0
    4.6600    2.0850   17.2040 C   0  0  0  0  0  0  0  0  0  0  0  0
    5.5760    1.0990   17.0660 N   0  0  0  0  0  0  0  0  0  0  0  0
    6.0270    0.5210   18.1970 C   0  0  0  0  0  0  0  0  0  0  0  0
    9.4120   -0.0670   23.8870 C   0  0  0  0  0  0  0  0  0  0  0  0
   10.7480   -0.1510   24.3100 C   0  0  0  0  0  0  0  0  0  0  0  0
  2  1  1  6
  2  3  1  0
  2  5  1  0
  3  4  1  0
  5 20  2  0
  5  6  1  0
  6  7  2  0
  7  8  1  0
  8  9  1  0
  8 19  2  0
  9 10  1  0
 10 11  2  0
 10 12  1  0
 12 13  1  0
 13 14  2  0
 13 18  1  0
 14 15  1  0
 15 16  2  0
 16 17  1  0
 17 18  2  0
 19 20  1  0
M  END
