WPC0237_minimised.pdb
     RDKit          3D

 23 24  0  0  0  0  0  0  0  0999 V2000
    6.5880    0.2480   27.2320 C   0  0  0  0  0  0  0  0  0  0  0  0
    5.5040   -0.4550   26.3900 C   0  0  0  0  0  0  0  0  0  0  0  0
    5.3930    0.1320   24.9650 C   0  0  0  0  0  0  0  0  0  0  0  0
    4.1870   -0.4560   24.1960 C   0  0  0  0  0  0  0  0  0  0  0  0
    4.3130   -0.1480   22.7840 O   0  0  0  0  0  0  0  0  0  0  0  0
    5.2420   -0.8510   22.0680 C   0  0  0  0  0  0  0  0  0  0  0  0
    5.6680   -1.9340   22.4410 O   0  0  0  0  0  0  0  0  0  0  0  0
    5.5390   -0.3380   20.6850 C   0  0  0  0  0  0  0  0  0  0  0  0
    4.6150    0.3920   19.9040 C   0  0  0  0  0  0  0  0  0  0  0  0
    4.9340    0.7240   18.5710 C   0  0  0  0  0  0  0  0  0  0  0  0
    6.0950    0.3660   17.9810 N   0  0  0  0  0  0  0  0  0  0  0  0
    7.0300   -0.2040   18.7680 C   0  0  0  0  0  0  0  0  0  0  0  0
    6.8030   -0.5700   20.1120 C   0  0  0  0  0  0  0  0  0  0  0  0
    7.8680   -1.0440   20.9200 N   0  0  0  0  0  0  0  0  0  0  0  0
    9.0050   -0.3270   21.1620 C   0  0  0  0  0  0  0  0  0  0  0  0
    9.2080    0.7460   20.6340 O   0  0  0  0  0  0  0  0  0  0  0  0
    9.8840   -0.9250   22.0200 N   0  0  0  0  0  0  0  0  0  0  0  0
   11.1830   -0.4460   22.2850 C   0  0  0  0  0  0  0  0  0  0  0  0
   12.2740   -1.2740   22.0040 C   0  0  0  0  0  0  0  0  0  0  0  0
   13.5820   -0.7970   22.1610 C   0  0  0  0  0  0  0  0  0  0  0  0
   13.8000    0.5060   22.6370 C   0  0  0  0  0  0  0  0  0  0  0  0
   12.7060    1.3320   22.9400 C   0  0  0  0  0  0  0  0  0  0  0  0
   11.3970    0.8590   22.7560 C   0  0  0  0  0  0  0  0  0  0  0  0
  1  2  1  0
  2  3  1  0
  3  4  1  0
  4  5  1  0
  5  6  1  0
  6  7  2  0
  6  8  1  0
  8  9  2  0
  8 13  1  0
  9 10  1  0
 10 11  2  0
 11 12  1  0
 12 13  2  0
 13 14  1  0
 14 15  1  0
 15 16  2  0
 15 17  1  0
 17 18  1  0
 18 19  2  0
 18 23  1  0
 19 20  1  0
 20 21  2  0
 21 22  1  0
 22 23  2  0
M  END
