WPC0510_minimised.pdb
     RDKit          3D

 24 25  0  0  0  0  0  0  0  0999 V2000
    9.9120    5.9940   23.6520 N   0  0  0  0  0  0  0  0  0  0  0  0
   10.7720    5.3770   23.1950 C   0  0  0  0  0  0  0  0  0  0  0  0
   11.8970    4.6290   22.6260 C   0  0  0  0  0  0  0  0  0  0  0  0
   13.1080    4.5600   23.5400 C   0  0  0  0  0  0  0  0  0  0  0  0
   13.2100    5.2170   24.5540 O   0  0  0  0  0  0  0  0  0  0  0  0
   14.1650    3.7480   23.2050 N   0  0  0  0  0  0  0  0  0  0  0  0
   14.1850    2.6260   22.2650 C   0  0  0  0  0  0  0  0  0  0  0  0
   13.9480    1.2560   22.9380 C   0  0  0  0  0  0  0  0  0  0  0  0
   12.5070    0.8020   22.8600 C   0  0  0  0  0  0  0  0  0  0  0  0
   12.1380   -0.1220   21.8710 C   0  0  0  0  0  0  0  0  0  0  0  0
   10.7930   -0.4730   21.7150 C   0  0  0  0  0  0  0  0  0  0  0  0
    9.8080    0.1150   22.5220 C   0  0  0  0  0  0  0  0  0  0  0  0
    8.4460   -0.0590   22.1980 N   0  0  0  0  0  0  0  0  0  0  0  0
    7.9350    0.1690   20.9470 C   0  0  0  0  0  0  0  0  0  0  0  0
    8.6220    0.4230   19.9770 O   0  0  0  0  0  0  0  0  0  0  0  0
    6.5690    0.1260   20.8710 N   0  0  0  0  0  0  0  0  0  0  0  0
    5.8360    0.5790   19.7470 C   0  0  0  0  0  0  0  0  0  0  0  0
    4.8600    1.5650   19.9290 C   0  0  0  0  0  0  0  0  0  0  0  0
    4.2860    2.1310   18.7840 C   0  0  0  0  0  0  0  0  0  0  0  0
    4.7110    1.7110   17.5160 C   0  0  0  0  0  0  0  0  0  0  0  0
    5.6070    0.7150   17.3280 N   0  0  0  0  0  0  0  0  0  0  0  0
    6.1680    0.1800   18.4320 C   0  0  0  0  0  0  0  0  0  0  0  0
   10.1830    0.9770   23.5640 C   0  0  0  0  0  0  0  0  0  0  0  0
   11.5360    1.3090   23.7430 C   0  0  0  0  0  0  0  0  0  0  0  0
  1  2  3  0
  2  3  1  0
  3  4  1  0
  4  5  2  0
  4  6  1  0
  6  7  1  0
  7  8  1  0
  8  9  1  0
  9 24  2  0
  9 10  1  0
 10 11  2  0
 11 12  1  0
 12 13  1  0
 12 23  2  0
 13 14  1  0
 14 15  2  0
 14 16  1  0
 16 17  1  0
 17 18  2  0
 17 22  1  0
 18 19  1  0
 19 20  2  0
 20 21  1  0
 21 22  2  0
 23 24  1  0
M  END
