WPC0391_minimised.pdb
     RDKit          3D

 22 23  0  0  0  0  0  0  0  0999 V2000
   11.5500    3.9850   23.6940 C   0  0  0  0  0  0  0  0  0  0  0  0
   12.2930    3.3740   22.4830 C   0  0  0  0  0  0  0  0  0  0  0  0
   13.0380    4.5080   21.7490 C   0  0  0  0  0  0  0  0  0  0  0  0
   11.3450    2.8430   21.5690 O   0  0  0  0  0  0  0  0  0  0  0  0
   13.3030    2.2510   22.8660 C   0  0  0  0  0  0  0  0  0  0  0  0
   12.8360    1.1500   23.8560 C   0  0  0  0  0  0  0  0  0  0  0  0
   11.5600    0.4220   23.4800 C   0  0  0  0  0  0  0  0  0  0  0  0
   11.5220   -0.4070   22.3490 C   0  0  0  0  0  0  0  0  0  0  0  0
   10.2960   -0.9140   21.9010 C   0  0  0  0  0  0  0  0  0  0  0  0
    9.1090   -0.5830   22.5700 C   0  0  0  0  0  0  0  0  0  0  0  0
    7.8530   -0.8130   21.9750 N   0  0  0  0  0  0  0  0  0  0  0  0
    7.5470   -0.4580   20.6870 C   0  0  0  0  0  0  0  0  0  0  0  0
    8.3540   -0.2810   19.7930 O   0  0  0  0  0  0  0  0  0  0  0  0
    6.2070   -0.2510   20.5220 N   0  0  0  0  0  0  0  0  0  0  0  0
    5.6240    0.4300   19.4280 C   0  0  0  0  0  0  0  0  0  0  0  0
    4.6920    1.4450   19.6800 C   0  0  0  0  0  0  0  0  0  0  0  0
    4.2180    2.1790   18.5850 C   0  0  0  0  0  0  0  0  0  0  0  0
    4.6970    1.8930   17.2990 C   0  0  0  0  0  0  0  0  0  0  0  0
    5.5670    0.8900   17.0440 N   0  0  0  0  0  0  0  0  0  0  0  0
    6.0280    0.1880   18.0980 C   0  0  0  0  0  0  0  0  0  0  0  0
    9.1620    0.1310   23.7730 C   0  0  0  0  0  0  0  0  0  0  0  0
   10.3900    0.6200   24.2380 C   0  0  0  0  0  0  0  0  0  0  0  0
  1  2  1  0
  2  3  1  0
  2  4  1  0
  2  5  1  0
  5  6  1  0
  6  7  1  0
  7 22  2  0
  7  8  1  0
  8  9  2  0
  9 10  1  0
 10 11  1  0
 10 21  2  0
 11 12  1  0
 12 13  2  0
 12 14  1  0
 14 15  1  0
 15 16  2  0
 15 20  1  0
 16 17  1  0
 17 18  2  0
 18 19  1  0
 19 20  2  0
 21 22  1  0
M  END
