WPC0761_minimised.pdb
     RDKit          3D

 23 24  0  0  0  0  0  0  0  0999 V2000
   12.5480    4.5060   20.6780 N   0  0  0  0  0  0  0  0  0  0  0  0
   13.3860    5.2900   21.5870 C   0  0  0  0  0  0  0  0  0  0  0  0
   14.8600    4.8930   21.4530 C   0  0  0  0  0  0  0  0  0  0  0  0
   15.0810    3.3780   21.3880 C   0  0  0  0  0  0  0  0  0  0  0  0
   14.3850    2.6130   22.5180 C   0  0  0  0  0  0  0  0  0  0  0  0
   14.8300    1.2240   22.4930 N   0  0  0  0  0  0  0  0  0  0  0  0
   14.1320    0.3010   23.3950 C   0  0  0  0  0  0  0  0  0  0  0  0
   12.6340    0.2050   23.1430 C   0  0  0  0  0  0  0  0  0  0  0  0
   12.1330   -0.7560   22.2500 C   0  0  0  0  0  0  0  0  0  0  0  0
   10.7560   -0.8340   21.9930 C   0  0  0  0  0  0  0  0  0  0  0  0
    9.8680    0.0370   22.6420 C   0  0  0  0  0  0  0  0  0  0  0  0
    8.4980    0.0300   22.3060 N   0  0  0  0  0  0  0  0  0  0  0  0
    8.0170    0.2720   21.0470 C   0  0  0  0  0  0  0  0  0  0  0  0
    8.7270    0.4700   20.0840 O   0  0  0  0  0  0  0  0  0  0  0  0
    6.6530    0.2940   20.9600 N   0  0  0  0  0  0  0  0  0  0  0  0
    5.9310    0.6970   19.8090 C   0  0  0  0  0  0  0  0  0  0  0  0
    4.9300    1.6660   19.9460 C   0  0  0  0  0  0  0  0  0  0  0  0
    4.3340    2.1550   18.7790 C   0  0  0  0  0  0  0  0  0  0  0  0
    4.7580    1.6770   17.5310 C   0  0  0  0  0  0  0  0  0  0  0  0
    5.6770    0.6950   17.3860 N   0  0  0  0  0  0  0  0  0  0  0  0
    6.2650    0.2380   18.5130 C   0  0  0  0  0  0  0  0  0  0  0  0
   10.3550    0.9660   23.5720 C   0  0  0  0  0  0  0  0  0  0  0  0
   11.7350    1.0520   23.8180 C   0  0  0  0  0  0  0  0  0  0  0  0
  1  2  1  0
  2  3  1  0
  3  4  1  0
  4  5  1  0
  5  6  1  0
  6  7  1  0
  7  8  1  0
  8 23  2  0
  8  9  1  0
  9 10  2  0
 10 11  1  0
 11 12  1  0
 11 22  2  0
 12 13  1  0
 13 14  2  0
 13 15  1  0
 15 16  1  0
 16 17  2  0
 16 21  1  0
 17 18  1  0
 18 19  2  0
 19 20  1  0
 20 21  2  0
 22 23  1  0
M  END
