WPC0916_minimised.pdb
     RDKit          3D

 23 24  0  0  0  0  0  0  0  0999 V2000
    8.5250    0.1910   19.9030 O   0  0  0  0  0  0  0  0  0  0  0  0
    7.7710    0.0570   20.8470 C   0  0  0  0  0  0  0  0  0  0  0  0
    8.1760   -0.1770   22.1330 N   0  0  0  0  0  0  0  0  0  0  0  0
    9.5130   -0.1120   22.5770 C   0  0  0  0  0  0  0  0  0  0  0  0
   10.5280   -0.8020   21.8930 C   0  0  0  0  0  0  0  0  0  0  0  0
   11.8700   -0.6280   22.2610 C   0  0  0  0  0  0  0  0  0  0  0  0
   12.1950    0.2360   23.3160 C   0  0  0  0  0  0  0  0  0  0  0  0
   13.8980    0.5090   23.7350 S   0  0  0  0  0  0  0  0  0  0  0  0
   14.4020    1.9070   22.6670 C   0  0  0  0  0  0  0  0  0  0  0  0
   13.4470    3.1080   22.7960 C   0  0  0  0  0  0  0  0  0  0  0  0
   14.2050    4.4360   22.6150 C   0  0  0  0  0  0  0  0  0  0  0  0
   13.2860    5.6590   22.7540 C   0  0  0  0  0  0  0  0  0  0  0  0
   12.8690    5.9910   24.2070 C   0  0  0  0  0  0  0  0  0  0  0  0
   11.4680    5.8240   24.4010 O   0  0  0  0  0  0  0  0  0  0  0  0
   11.1780    0.8790   24.0400 C   0  0  0  0  0  0  0  0  0  0  0  0
    9.8370    0.7080   23.6680 C   0  0  0  0  0  0  0  0  0  0  0  0
    6.4130    0.1660   20.7290 N   0  0  0  0  0  0  0  0  0  0  0  0
    5.7380    0.6690   19.5920 C   0  0  0  0  0  0  0  0  0  0  0  0
    4.7630    1.6570   19.7740 C   0  0  0  0  0  0  0  0  0  0  0  0
    4.2060    2.2400   18.6300 C   0  0  0  0  0  0  0  0  0  0  0  0
    4.6460    1.8340   17.3620 C   0  0  0  0  0  0  0  0  0  0  0  0
    5.5440    0.8400   17.1750 N   0  0  0  0  0  0  0  0  0  0  0  0
    6.0900    0.2880   18.2780 C   0  0  0  0  0  0  0  0  0  0  0  0
  1  2  2  0
  2  3  1  0
  2 17  1  0
  3  4  1  0
  4  5  2  0
  4 16  1  0
  5  6  1  0
  6  7  2  0
  7  8  1  0
  7 15  1  0
  8  9  1  0
  9 10  1  0
 10 11  1  0
 11 12  1  0
 12 13  1  0
 13 14  1  0
 15 16  2  0
 17 18  1  0
 18 19  2  0
 18 23  1  0
 19 20  1  0
 20 21  2  0
 21 22  1  0
 22 23  2  0
M  END
