WPC0576_minimised.pdb
     RDKit          3D

 20 21  0  0  0  0  0  0  0  0999 V2000
   14.2800    4.5520   22.6730 O   0  0  0  0  0  0  0  0  0  0  0  0
   13.8620    3.4470   22.3860 C   0  0  0  0  0  0  0  0  0  0  0  0
   14.5800    2.3530   22.7850 N   0  0  0  0  0  0  0  0  0  0  0  0
   14.2370    0.9440   22.5840 C   0  0  0  0  0  0  0  0  0  0  0  0
   12.7570    0.6020   22.6160 C   0  0  0  0  0  0  0  0  0  0  0  0
   12.2910   -0.4230   21.7770 C   0  0  0  0  0  0  0  0  0  0  0  0
   10.9230   -0.7150   21.7190 C   0  0  0  0  0  0  0  0  0  0  0  0
   10.0090    0.0280   22.4780 C   0  0  0  0  0  0  0  0  0  0  0  0
    8.6280   -0.0950   22.2150 N   0  0  0  0  0  0  0  0  0  0  0  0
    8.0940    0.1060   20.9690 C   0  0  0  0  0  0  0  0  0  0  0  0
    8.7690    0.2850   19.9750 O   0  0  0  0  0  0  0  0  0  0  0  0
    6.7260    0.1280   20.9260 N   0  0  0  0  0  0  0  0  0  0  0  0
    5.9860    0.5710   19.8000 C   0  0  0  0  0  0  0  0  0  0  0  0
    5.0170    1.5650   19.9780 C   0  0  0  0  0  0  0  0  0  0  0  0
    4.4320    2.1150   18.8310 C   0  0  0  0  0  0  0  0  0  0  0  0
    4.8440    1.6790   17.5640 C   0  0  0  0  0  0  0  0  0  0  0  0
    5.7270    0.6730   17.3810 N   0  0  0  0  0  0  0  0  0  0  0  0
    6.2940    0.1460   18.4870 C   0  0  0  0  0  0  0  0  0  0  0  0
   10.4730    0.9940   23.3810 C   0  0  0  0  0  0  0  0  0  0  0  0
   11.8480    1.2720   23.4590 C   0  0  0  0  0  0  0  0  0  0  0  0
  1  2  2  0
  2  3  1  0
  3  4  1  0
  4  5  1  0
  5 20  2  0
  5  6  1  0
  6  7  2  0
  7  8  1  0
  8  9  1  0
  8 19  2  0
  9 10  1  0
 10 11  2  0
 10 12  1  0
 12 13  1  0
 13 14  2  0
 13 18  1  0
 14 15  1  0
 15 16  2  0
 16 17  1  0
 17 18  2  0
 19 20  1  0
M  END
