WPC0882_minimised.pdb
     RDKit          3D

 23 25  0  0  0  0  0  0  0  0999 V2000
   15.1500    1.6380   22.6600 O   0  0  0  0  0  0  0  0  0  0  0  0
   14.0000    1.6320   23.0370 C   0  0  0  0  0  0  0  0  0  0  0  0
   13.3770    0.3680   23.5990 C   0  0  0  0  0  0  0  0  0  0  0  0
   11.9130    0.1670   23.2570 C   0  0  0  0  0  0  0  0  0  0  0  0
   11.5650   -0.6700   22.1850 C   0  0  0  0  0  0  0  0  0  0  0  0
   10.2210   -0.8170   21.8270 C   0  0  0  0  0  0  0  0  0  0  0  0
    9.2230   -0.1220   22.5260 C   0  0  0  0  0  0  0  0  0  0  0  0
    7.8980   -0.1270   22.0530 N   0  0  0  0  0  0  0  0  0  0  0  0
    7.5480    0.1590   20.7630 C   0  0  0  0  0  0  0  0  0  0  0  0
    8.3400    0.3070   19.8530 O   0  0  0  0  0  0  0  0  0  0  0  0
    6.2000    0.3000   20.6020 N   0  0  0  0  0  0  0  0  0  0  0  0
    5.5700    0.8210   19.4500 C   0  0  0  0  0  0  0  0  0  0  0  0
    4.5860    1.8030   19.6080 C   0  0  0  0  0  0  0  0  0  0  0  0
    4.0800    2.4050   18.4510 C   0  0  0  0  0  0  0  0  0  0  0  0
    4.5790    2.0260   17.1970 C   0  0  0  0  0  0  0  0  0  0  0  0
    5.4860    1.0360   17.0320 N   0  0  0  0  0  0  0  0  0  0  0  0
    5.9790    0.4630   18.1470 C   0  0  0  0  0  0  0  0  0  0  0  0
    9.5600    0.6590   23.6400 C   0  0  0  0  0  0  0  0  0  0  0  0
   10.9050    0.7960   24.0130 C   0  0  0  0  0  0  0  0  0  0  0  0
   13.2240    2.7660   23.0420 N   0  0  0  0  0  0  0  0  0  0  0  0
   13.7490    4.0830   22.8310 C   0  0  0  0  0  0  0  0  0  0  0  0
   12.7320    5.1520   23.1330 C   0  0  0  0  0  0  0  0  0  0  0  0
   13.0940    4.8280   21.7030 C   0  0  0  0  0  0  0  0  0  0  0  0
  1  2  2  0
  2  3  1  0
  2 20  1  0
  3  4  1  0
  4  5  2  0
  4 19  1  0
  5  6  1  0
  6  7  2  0
  7  8  1  0
  7 18  1  0
  8  9  1  0
  9 11  1  0
  9 10  2  0
 11 12  1  0
 12 13  2  0
 12 17  1  0
 13 14  1  0
 14 15  2  0
 15 16  1  0
 16 17  2  0
 18 19  2  0
 20 21  1  0
 21 22  1  0
 21 23  1  0
 22 23  1  0
M  END
