WPC0584_minimised.pdb
     RDKit          3D

 23 24  0  0  0  0  0  0  0  0999 V2000
   10.9350    4.8090   22.8710 N   0  0  0  0  0  0  0  0  0  0  0  0
   12.2100    4.5390   23.2230 C   0  0  0  0  0  0  0  0  0  0  0  0
   12.7540    5.0470   24.1820 O   0  0  0  0  0  0  0  0  0  0  0  0
   12.7140    3.5810   22.4120 O   0  0  0  0  0  0  0  0  0  0  0  0
   14.1140    3.2750   22.5080 C   0  0  0  0  0  0  0  0  0  0  0  0
   14.3750    1.7830   22.1940 C   0  0  0  0  0  0  0  0  0  0  0  0
   13.7680    0.7720   23.1900 C   0  0  0  0  0  0  0  0  0  0  0  0
   12.2970    0.4940   22.9630 C   0  0  0  0  0  0  0  0  0  0  0  0
   11.9070   -0.4450   21.9950 C   0  0  0  0  0  0  0  0  0  0  0  0
   10.5470   -0.6760   21.7570 C   0  0  0  0  0  0  0  0  0  0  0  0
    9.5730    0.0420   22.4660 C   0  0  0  0  0  0  0  0  0  0  0  0
    8.2180   -0.0600   22.0930 N   0  0  0  0  0  0  0  0  0  0  0  0
    7.7620    0.1600   20.8210 C   0  0  0  0  0  0  0  0  0  0  0  0
    8.4840    0.3380   19.8590 O   0  0  0  0  0  0  0  0  0  0  0  0
    6.3990    0.2030   20.7310 N   0  0  0  0  0  0  0  0  0  0  0  0
    5.6920    0.6850   19.6060 C   0  0  0  0  0  0  0  0  0  0  0  0
    4.7110    1.6660   19.7960 C   0  0  0  0  0  0  0  0  0  0  0  0
    4.1430    2.2450   18.6550 C   0  0  0  0  0  0  0  0  0  0  0  0
    4.5790    1.8430   17.3840 C   0  0  0  0  0  0  0  0  0  0  0  0
    5.4820    0.8550   17.1900 N   0  0  0  0  0  0  0  0  0  0  0  0
    6.0360    0.3050   18.2890 C   0  0  0  0  0  0  0  0  0  0  0  0
    9.9570    0.9430   23.4690 C   0  0  0  0  0  0  0  0  0  0  0  0
   11.3190    1.1630   23.7220 C   0  0  0  0  0  0  0  0  0  0  0  0
  1  2  1  0
  2  3  2  0
  2  4  1  0
  4  5  1  0
  5  6  1  0
  6  7  1  0
  7  8  1  0
  8 23  2  0
  8  9  1  0
  9 10  2  0
 10 11  1  0
 11 12  1  0
 11 22  2  0
 12 13  1  0
 13 14  2  0
 13 15  1  0
 15 16  1  0
 16 17  2  0
 16 21  1  0
 17 18  1  0
 18 19  2  0
 19 20  1  0
 20 21  2  0
 22 23  1  0
M  END
