WPC0555_minimised.pdb
     RDKit          3D

 21 22  0  0  1  0  0  0  0  0999 V2000
   12.1250    3.9780   23.1010 C   0  0  0  0  0  0  0  0  0  0  0  0
   13.5660    3.8100   22.5900 C   0  0  1  0  0  0  0  0  0  0  0  0
   14.4580    4.4720   23.4850 O   0  0  0  0  0  0  0  0  0  0  0  0
   14.0290    2.3420   22.3480 C   0  0  0  0  0  0  0  0  0  0  0  0
   13.6180    1.2410   23.3630 C   0  0  0  0  0  0  0  0  0  0  0  0
   12.2390    0.6590   23.1180 C   0  0  0  0  0  0  0  0  0  0  0  0
   12.0290   -0.1760   22.0110 C   0  0  0  0  0  0  0  0  0  0  0  0
   10.7360   -0.6220   21.7130 C   0  0  0  0  0  0  0  0  0  0  0  0
    9.6470   -0.2190   22.4980 C   0  0  0  0  0  0  0  0  0  0  0  0
    8.3250   -0.4430   22.0580 N   0  0  0  0  0  0  0  0  0  0  0  0
    7.8790   -0.1330   20.8000 C   0  0  0  0  0  0  0  0  0  0  0  0
    8.6030    0.1430   19.8630 O   0  0  0  0  0  0  0  0  0  0  0  0
    6.5160   -0.1030   20.6980 N   0  0  0  0  0  0  0  0  0  0  0  0
    5.8210    0.4640   19.6030 C   0  0  0  0  0  0  0  0  0  0  0  0
    4.8680    1.4600   19.8460 C   0  0  0  0  0  0  0  0  0  0  0  0
    4.3140    2.1140   18.7380 C   0  0  0  0  0  0  0  0  0  0  0  0
    4.7390    1.7730   17.4470 C   0  0  0  0  0  0  0  0  0  0  0  0
    5.6210    0.7780   17.2000 N   0  0  0  0  0  0  0  0  0  0  0  0
    6.1600    0.1540   18.2670 C   0  0  0  0  0  0  0  0  0  0  0  0
    9.8680    0.5310   23.6620 C   0  0  0  0  0  0  0  0  0  0  0  0
   11.1660    0.9570   23.9790 C   0  0  0  0  0  0  0  0  0  0  0  0
  2  1  1  1
  2  3  1  0
  2  4  1  0
  4  5  1  0
  5  6  1  0
  6 21  2  0
  6  7  1  0
  7  8  2  0
  8  9  1  0
  9 10  1  0
  9 20  2  0
 10 11  1  0
 11 12  2  0
 11 13  1  0
 13 14  1  0
 14 15  2  0
 14 19  1  0
 15 16  1  0
 16 17  2  0
 17 18  1  0
 18 19  2  0
 20 21  1  0
M  END
