WPC0658_minimised.pdb
     RDKit          3D

 23 25  0  0  0  0  0  0  0  0999 V2000
    8.4910    0.0130   19.8970 O   0  0  0  0  0  0  0  0  0  0  0  0
    7.7180   -0.2060   20.8100 C   0  0  0  0  0  0  0  0  0  0  0  0
    8.0880   -0.5600   22.0810 N   0  0  0  0  0  0  0  0  0  0  0  0
    9.4010   -0.4440   22.5780 C   0  0  0  0  0  0  0  0  0  0  0  0
   10.4880   -0.9350   21.8420 C   0  0  0  0  0  0  0  0  0  0  0  0
   11.7970   -0.5920   22.1990 C   0  0  0  0  0  0  0  0  0  0  0  0
   12.0230    0.2410   23.3060 C   0  0  0  0  0  0  0  0  0  0  0  0
   13.4230    0.7350   23.6150 C   0  0  0  0  0  0  0  0  0  0  0  0
   13.8220    1.9060   22.8180 N   0  0  0  0  0  0  0  0  0  0  0  0
   13.2970    3.1570   22.9130 C   0  0  0  0  0  0  0  0  0  0  0  0
   14.0810    4.1310   22.5230 N   0  0  0  0  0  0  0  0  0  0  0  0
   13.4790    5.3480   22.7400 C   0  0  0  0  0  0  0  0  0  0  0  0
   12.2630    5.2760   23.3750 C   0  0  0  0  0  0  0  0  0  0  0  0
   11.7980    3.6250   23.6770 S   0  0  0  0  0  0  0  0  0  0  0  0
   10.9380    0.6040   24.1300 C   0  0  0  0  0  0  0  0  0  0  0  0
    9.6270    0.2790   23.7550 C   0  0  0  0  0  0  0  0  0  0  0  0
    6.3660   -0.0720   20.6750 N   0  0  0  0  0  0  0  0  0  0  0  0
    5.7190    0.5200   19.5650 C   0  0  0  0  0  0  0  0  0  0  0  0
    4.7660    1.5210   19.7890 C   0  0  0  0  0  0  0  0  0  0  0  0
    4.2310    2.1720   18.6700 C   0  0  0  0  0  0  0  0  0  0  0  0
    4.6690    1.8170   17.3860 C   0  0  0  0  0  0  0  0  0  0  0  0
    5.5550    0.8200   17.1590 N   0  0  0  0  0  0  0  0  0  0  0  0
    6.0800    0.2040   18.2370 C   0  0  0  0  0  0  0  0  0  0  0  0
  1  2  2  0
  2  3  1  0
  2 17  1  0
  3  4  1  0
  4  5  2  0
  4 16  1  0
  5  6  1  0
  6  7  2  0
  7  8  1  0
  7 15  1  0
  8  9  1  0
  9 10  1  0
 10 11  2  0
 10 14  1  0
 11 12  1  0
 12 13  2  0
 13 14  1  0
 15 16  2  0
 17 18  1  0
 18 19  2  0
 18 23  1  0
 19 20  1  0
 20 21  2  0
 21 22  1  0
 22 23  2  0
M  END
