WPC0754_minimised.pdb
     RDKit          3D

 18 19  0  0  0  0  0  0  0  0999 V2000
    8.7730    0.1480   19.8860 O   0  0  0  0  0  0  0  0  0  0  0  0
    8.1070    0.0030   20.8910 C   0  0  0  0  0  0  0  0  0  0  0  0
    8.6480   -0.1370   22.1410 N   0  0  0  0  0  0  0  0  0  0  0  0
   10.0120    0.0970   22.4160 C   0  0  0  0  0  0  0  0  0  0  0  0
   11.0030   -0.6370   21.7480 C   0  0  0  0  0  0  0  0  0  0  0  0
   12.3510   -0.2610   21.8500 C   0  0  0  0  0  0  0  0  0  0  0  0
   12.7130    0.8480   22.6340 C   0  0  0  0  0  0  0  0  0  0  0  0
   14.1590    1.3060   22.6680 C   0  0  0  0  0  0  0  0  0  0  0  0
   14.3110    3.1460   22.5800 S   0  0  0  0  0  0  0  0  0  0  0  0
   11.7230    1.5370   23.3600 C   0  0  0  0  0  0  0  0  0  0  0  0
   10.3750    1.1640   23.2480 C   0  0  0  0  0  0  0  0  0  0  0  0
    6.7390    0.0270   20.8630 N   0  0  0  0  0  0  0  0  0  0  0  0
    5.9860    0.4940   19.7560 C   0  0  0  0  0  0  0  0  0  0  0  0
    5.0280    1.4930   19.9670 C   0  0  0  0  0  0  0  0  0  0  0  0
    4.4260    2.0650   18.8400 C   0  0  0  0  0  0  0  0  0  0  0  0
    4.8110    1.6470   17.5590 C   0  0  0  0  0  0  0  0  0  0  0  0
    5.6890    0.6410   17.3450 N   0  0  0  0  0  0  0  0  0  0  0  0
    6.2720    0.0920   18.4310 C   0  0  0  0  0  0  0  0  0  0  0  0
  1  2  2  0
  2  3  1  0
  2 12  1  0
  3  4  1  0
  4  5  2  0
  4 11  1  0
  5  6  1  0
  6  7  2  0
  7  8  1  0
  7 10  1  0
  8  9  1  0
 10 11  2  0
 12 13  1  0
 13 14  2  0
 13 18  1  0
 14 15  1  0
 15 16  2  0
 16 17  1  0
 17 18  2  0
M  END
