WPC0892_minimised.pdb
     RDKit          3D

 22 23  0  0  0  0  0  0  0  0999 V2000
   13.8380    4.7560   21.1320 C   0  0  0  0  0  0  0  0  0  0  0  0
   13.7910    4.7410   22.6690 C   0  0  0  0  0  0  0  0  0  0  0  0
   13.0550    3.5430   23.2500 C   0  0  0  0  0  0  0  0  0  0  0  0
   12.1900    3.6880   24.0910 O   0  0  0  0  0  0  0  0  0  0  0  0
   13.5280    2.3070   22.8680 N   0  0  0  0  0  0  0  0  0  0  0  0
   13.2340    1.0560   23.5780 C   0  0  0  0  0  0  0  0  0  0  0  0
   11.8620    0.5040   23.2540 C   0  0  0  0  0  0  0  0  0  0  0  0
   11.7010   -0.4480   22.2340 C   0  0  0  0  0  0  0  0  0  0  0  0
   10.4150   -0.8700   21.8680 C   0  0  0  0  0  0  0  0  0  0  0  0
    9.2900   -0.3380   22.5160 C   0  0  0  0  0  0  0  0  0  0  0  0
    7.9940   -0.5710   22.0180 N   0  0  0  0  0  0  0  0  0  0  0  0
    7.6230   -0.3010   20.7290 C   0  0  0  0  0  0  0  0  0  0  0  0
    8.3980   -0.1430   19.8050 O   0  0  0  0  0  0  0  0  0  0  0  0
    6.2720   -0.1480   20.5920 N   0  0  0  0  0  0  0  0  0  0  0  0
    5.6460    0.4810   19.4910 C   0  0  0  0  0  0  0  0  0  0  0  0
    4.7070    1.4910   19.7330 C   0  0  0  0  0  0  0  0  0  0  0  0
    4.2090    2.1960   18.6300 C   0  0  0  0  0  0  0  0  0  0  0  0
    4.6700    1.8840   17.3430 C   0  0  0  0  0  0  0  0  0  0  0  0
    5.5430    0.8810   17.0960 N   0  0  0  0  0  0  0  0  0  0  0  0
    6.0280    0.2080   18.1590 C   0  0  0  0  0  0  0  0  0  0  0  0
    9.4520    0.5460   23.5900 C   0  0  0  0  0  0  0  0  0  0  0  0
   10.7370    0.9620   23.9630 C   0  0  0  0  0  0  0  0  0  0  0  0
  1  2  1  0
  2  3  1  0
  3  4  2  0
  3  5  1  0
  5  6  1  0
  6  7  1  0
  7 22  2  0
  7  8  1  0
  8  9  2  0
  9 10  1  0
 10 11  1  0
 10 21  2  0
 11 12  1  0
 12 13  2  0
 12 14  1  0
 14 15  1  0
 15 16  2  0
 15 20  1  0
 16 17  1  0
 17 18  2  0
 18 19  1  0
 19 20  2  0
 21 22  1  0
M  END
