WPC0012_minimised.pdb
     RDKit          3D

 24 25  0  0  0  0  0  0  0  0999 V2000
    8.2490    4.9660   21.4720 C   0  0  0  0  0  0  0  0  0  0  0  0
    7.7710    3.5560   21.9030 C   0  0  0  0  0  0  0  0  0  0  0  0
    8.3040    3.3850   23.3260 C   0  0  0  0  0  0  0  0  0  0  0  0
    8.4060    2.3970   21.1080 C   0  0  0  0  0  0  0  0  0  0  0  0
    6.2120    3.5300   21.8020 C   0  0  0  0  0  0  0  0  0  0  0  0
    5.4930    2.2640   22.2810 C   0  0  0  0  0  0  0  0  0  0  0  0
    5.2650    2.0240   23.4520 O   0  0  0  0  0  0  0  0  0  0  0  0
    5.0270    1.3320   21.3890 N   0  0  0  0  0  0  0  0  0  0  0  0
    5.3060    1.1450   20.0190 C   0  0  0  0  0  0  0  0  0  0  0  0
    4.8150    2.0150   19.0370 C   0  0  0  0  0  0  0  0  0  0  0  0
    5.1380    1.7800   17.6930 C   0  0  0  0  0  0  0  0  0  0  0  0
    5.8910    0.7300   17.2960 N   0  0  0  0  0  0  0  0  0  0  0  0
    6.3580   -0.1050   18.2450 C   0  0  0  0  0  0  0  0  0  0  0  0
    6.0780    0.0450   19.6150 C   0  0  0  0  0  0  0  0  0  0  0  0
    6.6830   -0.7920   20.5940 N   0  0  0  0  0  0  0  0  0  0  0  0
    8.0380   -0.8850   20.7340 C   0  0  0  0  0  0  0  0  0  0  0  0
    8.7840   -0.5850   19.8270 O   0  0  0  0  0  0  0  0  0  0  0  0
    8.4250   -1.2100   22.0080 N   0  0  0  0  0  0  0  0  0  0  0  0
    9.6180   -0.7760   22.6370 C   0  0  0  0  0  0  0  0  0  0  0  0
   10.8430   -0.6810   21.9510 C   0  0  0  0  0  0  0  0  0  0  0  0
   11.9590   -0.0930   22.5670 C   0  0  0  0  0  0  0  0  0  0  0  0
   11.8600    0.3850   23.8830 C   0  0  0  0  0  0  0  0  0  0  0  0
   10.6520    0.2570   24.5870 C   0  0  0  0  0  0  0  0  0  0  0  0
    9.5340   -0.3180   23.9620 C   0  0  0  0  0  0  0  0  0  0  0  0
  1  2  1  0
  2  3  1  0
  2  4  1  0
  2  5  1  0
  5  6  1  0
  6  7  2  0
  6  8  1  0
  8  9  1  0
  9 10  2  0
  9 14  1  0
 10 11  1  0
 11 12  2  0
 12 13  1  0
 13 14  2  0
 14 15  1  0
 15 16  1  0
 16 17  2  0
 16 18  1  0
 18 19  1  0
 19 20  2  0
 19 24  1  0
 20 21  1  0
 21 22  2  0
 22 23  1  0
 23 24  2  0
M  END
