WPC0861_minimised.pdb
     RDKit          3D

 24 26  0  0  0  0  0  0  0  0999 V2000
   11.0450    5.5500   23.9660 C   0  0  0  0  0  0  0  0  0  0  0  0
   12.2490    4.8240   23.4430 C   0  0  0  0  0  0  0  0  0  0  0  0
   13.5000    5.3560   23.2700 N   0  0  0  0  0  0  0  0  0  0  0  0
   14.3530    4.4030   22.8220 N   0  0  0  0  0  0  0  0  0  0  0  0
   13.5680    3.3460   22.7450 C   0  0  0  0  0  0  0  0  0  0  0  0
   14.3250    1.8360   22.2700 S   0  0  0  0  0  0  0  0  0  0  0  0
   13.6280    0.5750   23.4080 C   0  0  0  0  0  0  0  0  0  0  0  0
   12.1810    0.2380   23.1270 C   0  0  0  0  0  0  0  0  0  0  0  0
   11.8600   -0.6430   22.0840 C   0  0  0  0  0  0  0  0  0  0  0  0
   10.5170   -0.9330   21.8130 C   0  0  0  0  0  0  0  0  0  0  0  0
    9.4970   -0.3270   22.5580 C   0  0  0  0  0  0  0  0  0  0  0  0
    8.1610   -0.4600   22.1410 N   0  0  0  0  0  0  0  0  0  0  0  0
    7.7200   -0.0860   20.9020 C   0  0  0  0  0  0  0  0  0  0  0  0
    8.4450    0.3230   20.0140 O   0  0  0  0  0  0  0  0  0  0  0  0
    6.3650   -0.1820   20.7580 N   0  0  0  0  0  0  0  0  0  0  0  0
    5.6570    0.3150   19.6420 C   0  0  0  0  0  0  0  0  0  0  0  0
    4.6180    1.2280   19.8510 C   0  0  0  0  0  0  0  0  0  0  0  0
    4.0420    1.8210   18.7230 C   0  0  0  0  0  0  0  0  0  0  0  0
    4.5240    1.4980   17.4470 C   0  0  0  0  0  0  0  0  0  0  0  0
    5.4930    0.5810   17.2310 N   0  0  0  0  0  0  0  0  0  0  0  0
    6.0580    0.0200   18.3200 C   0  0  0  0  0  0  0  0  0  0  0  0
    9.8130    0.5080   23.6360 C   0  0  0  0  0  0  0  0  0  0  0  0
   11.1560    0.7810   23.9250 C   0  0  0  0  0  0  0  0  0  0  0  0
   12.2720    3.5500   23.1400 N   0  0  0  0  0  0  0  0  0  0  0  0
  1  2  1  0
  2 24  2  0
  2  3  1  0
  3  4  1  0
  4  5  2  0
  5  6  1  0
  5 24  1  0
  6  7  1  0
  7  8  1  0
  8 23  1  0
  8  9  2  0
  9 10  1  0
 10 11  2  0
 11 12  1  0
 11 22  1  0
 12 13  1  0
 13 14  2  0
 13 15  1  0
 15 16  1  0
 16 17  2  0
 16 21  1  0
 17 18  1  0
 18 19  2  0
 19 20  1  0
 20 21  2  0
 22 23  2  0
M  END
