WPC0405_minimised.pdb
     RDKit          3D

 19 20  0  0  0  0  0  0  0  0999 V2000
   14.1240    4.1850   23.2730 N   0  0  0  0  0  0  0  0  0  0  0  0
   12.9430    3.3490   23.3350 O   0  0  0  0  0  0  0  0  0  0  0  0
   13.2340    1.9290   23.3700 C   0  0  0  0  0  0  0  0  0  0  0  0
   11.9480    1.1620   23.1450 C   0  0  0  0  0  0  0  0  0  0  0  0
   11.8820    0.1690   22.1540 C   0  0  0  0  0  0  0  0  0  0  0  0
   10.6550   -0.4410   21.8590 C   0  0  0  0  0  0  0  0  0  0  0  0
    9.4930   -0.0510   22.5420 C   0  0  0  0  0  0  0  0  0  0  0  0
    8.2220   -0.4440   22.0800 N   0  0  0  0  0  0  0  0  0  0  0  0
    7.7950   -0.2100   20.8010 C   0  0  0  0  0  0  0  0  0  0  0  0
    8.5300    0.0360   19.8630 O   0  0  0  0  0  0  0  0  0  0  0  0
    6.4330   -0.1960   20.6830 N   0  0  0  0  0  0  0  0  0  0  0  0
    5.7520    0.3900   19.5890 C   0  0  0  0  0  0  0  0  0  0  0  0
    4.8150    1.4000   19.8380 C   0  0  0  0  0  0  0  0  0  0  0  0
    4.2830    2.0800   18.7350 C   0  0  0  0  0  0  0  0  0  0  0  0
    4.7070    1.7420   17.4420 C   0  0  0  0  0  0  0  0  0  0  0  0
    5.5780    0.7390   17.1920 N   0  0  0  0  0  0  0  0  0  0  0  0
    6.0990    0.0920   18.2540 C   0  0  0  0  0  0  0  0  0  0  0  0
    9.5740    0.8750   23.5910 C   0  0  0  0  0  0  0  0  0  0  0  0
   10.8020    1.4770   23.8980 C   0  0  0  0  0  0  0  0  0  0  0  0
  1  2  1  0
  2  3  1  0
  3  4  1  0
  4 19  2  0
  4  5  1  0
  5  6  2  0
  6  7  1  0
  7  8  1  0
  7 18  2  0
  8  9  1  0
  9 10  2  0
  9 11  1  0
 11 12  1  0
 12 13  2  0
 12 17  1  0
 13 14  1  0
 14 15  2  0
 15 16  1  0
 16 17  2  0
 18 19  1  0
M  END
