WPC0552_minimised.pdb
     RDKit          3D

 22 23  0  0  0  0  0  0  0  0999 V2000
   12.7630    5.4060   23.7530 C   0  0  0  0  0  0  0  0  0  0  0  0
   13.4180    4.1360   23.5940 O   0  0  0  0  0  0  0  0  0  0  0  0
   13.4250    3.5760   22.3510 C   0  0  0  0  0  0  0  0  0  0  0  0
   13.0020    4.1450   21.3630 O   0  0  0  0  0  0  0  0  0  0  0  0
   14.2480    2.2860   22.2930 C   0  0  0  0  0  0  0  0  0  0  0  0
   13.7870    1.1500   23.2310 C   0  0  0  0  0  0  0  0  0  0  0  0
   12.3640    0.7120   22.9710 C   0  0  0  0  0  0  0  0  0  0  0  0
   12.0950   -0.2900   22.0260 C   0  0  0  0  0  0  0  0  0  0  0  0
   10.7690   -0.6630   21.7680 C   0  0  0  0  0  0  0  0  0  0  0  0
    9.7130   -0.0250   22.4360 C   0  0  0  0  0  0  0  0  0  0  0  0
    8.3800   -0.2670   22.0530 N   0  0  0  0  0  0  0  0  0  0  0  0
    7.9150   -0.0850   20.7800 C   0  0  0  0  0  0  0  0  0  0  0  0
    8.6290    0.0930   19.8130 O   0  0  0  0  0  0  0  0  0  0  0  0
    6.5500   -0.0570   20.7020 N   0  0  0  0  0  0  0  0  0  0  0  0
    5.8330    0.4680   19.6020 C   0  0  0  0  0  0  0  0  0  0  0  0
    4.8680    1.4550   19.8390 C   0  0  0  0  0  0  0  0  0  0  0  0
    4.2880    2.0770   18.7270 C   0  0  0  0  0  0  0  0  0  0  0  0
    4.7010    1.7140   17.4370 C   0  0  0  0  0  0  0  0  0  0  0  0
    5.5910    0.7260   17.1980 N   0  0  0  0  0  0  0  0  0  0  0  0
    6.1550    0.1320   18.2690 C   0  0  0  0  0  0  0  0  0  0  0  0
    9.9820    0.9460   23.4090 C   0  0  0  0  0  0  0  0  0  0  0  0
   11.3080    1.3120   23.6800 C   0  0  0  0  0  0  0  0  0  0  0  0
  1  2  1  0
  2  3  1  0
  3  4  2  0
  3  5  1  0
  5  6  1  0
  6  7  1  0
  7 22  2  0
  7  8  1  0
  8  9  2  0
  9 10  1  0
 10 11  1  0
 10 21  2  0
 11 12  1  0
 12 13  2  0
 12 14  1  0
 14 15  1  0
 15 16  2  0
 15 20  1  0
 16 17  1  0
 17 18  2  0
 18 19  1  0
 19 20  2  0
 21 22  1  0
M  END
