WPC0489_minimised.pdb
     RDKit          3D

 22 23  0  0  0  0  0  0  0  0999 V2000
   12.3670    3.9850   23.9780 N   0  0  0  0  0  0  0  0  0  0  0  0
   13.1210    3.6220   23.0180 C   0  0  0  0  0  0  0  0  0  0  0  0
   13.4590    4.5300   21.8480 C   0  0  0  0  0  0  0  0  0  0  0  0
   13.5960    5.8300   22.2020 F   0  0  0  0  0  0  0  0  0  0  0  0
   13.7560    2.3990   23.0250 N   0  0  0  0  0  0  0  0  0  0  0  0
   13.3510    1.1670   23.7110 C   0  0  0  0  0  0  0  0  0  0  0  0
   11.9900    0.6710   23.2810 C   0  0  0  0  0  0  0  0  0  0  0  0
   11.8570   -0.2460   22.2250 C   0  0  0  0  0  0  0  0  0  0  0  0
   10.5800   -0.6640   21.8260 C   0  0  0  0  0  0  0  0  0  0  0  0
    9.4400   -0.1660   22.4760 C   0  0  0  0  0  0  0  0  0  0  0  0
    8.1500   -0.4330   21.9800 N   0  0  0  0  0  0  0  0  0  0  0  0
    7.7600   -0.1620   20.6990 C   0  0  0  0  0  0  0  0  0  0  0  0
    8.5220    0.0650   19.7800 O   0  0  0  0  0  0  0  0  0  0  0  0
    6.4020   -0.0990   20.5660 N   0  0  0  0  0  0  0  0  0  0  0  0
    5.7400    0.4970   19.4700 C   0  0  0  0  0  0  0  0  0  0  0  0
    4.7840    1.4900   19.7150 C   0  0  0  0  0  0  0  0  0  0  0  0
    4.2560    2.1700   18.6110 C   0  0  0  0  0  0  0  0  0  0  0  0
    4.7120    1.8590   17.3220 C   0  0  0  0  0  0  0  0  0  0  0  0
    5.6000    0.8700   17.0740 N   0  0  0  0  0  0  0  0  0  0  0  0
    6.1090    0.2160   18.1370 C   0  0  0  0  0  0  0  0  0  0  0  0
    9.5750    0.7050   23.5640 C   0  0  0  0  0  0  0  0  0  0  0  0
   10.8490    1.1200   23.9690 C   0  0  0  0  0  0  0  0  0  0  0  0
  1  2  2  0
  2  3  1  0
  2  5  1  0
  3  4  1  0
  5  6  1  0
  6  7  1  0
  7 22  2  0
  7  8  1  0
  8  9  2  0
  9 10  1  0
 10 11  1  0
 10 21  2  0
 11 12  1  0
 12 13  2  0
 12 14  1  0
 14 15  1  0
 15 16  2  0
 15 20  1  0
 16 17  1  0
 17 18  2  0
 18 19  1  0
 19 20  2  0
 21 22  1  0
M  END
