WPC0733_minimised.pdb
     RDKit          3D

 21 22  0  0  0  0  0  0  0  0999 V2000
   12.7680    4.6130   22.2850 C   0  0  0  0  0  0  0  0  0  0  0  0
   13.3010    3.5530   23.0940 O   0  0  0  0  0  0  0  0  0  0  0  0
   14.5440    3.0590   22.5470 N   0  0  0  0  0  0  0  0  0  0  0  0
   14.3470    1.7030   22.0070 C   0  0  0  0  0  0  0  0  0  0  0  0
   13.8910    0.6530   23.0420 C   0  0  0  0  0  0  0  0  0  0  0  0
   12.4180    0.3220   22.8950 C   0  0  0  0  0  0  0  0  0  0  0  0
   12.0130   -0.6780   21.9950 C   0  0  0  0  0  0  0  0  0  0  0  0
   10.6480   -0.9160   21.7870 C   0  0  0  0  0  0  0  0  0  0  0  0
    9.6870   -0.1480   22.4590 C   0  0  0  0  0  0  0  0  0  0  0  0
    8.3320   -0.2410   22.0900 N   0  0  0  0  0  0  0  0  0  0  0  0
    7.8810    0.0150   20.8240 C   0  0  0  0  0  0  0  0  0  0  0  0
    8.6090    0.2060   19.8690 O   0  0  0  0  0  0  0  0  0  0  0  0
    6.5180    0.0820   20.7340 N   0  0  0  0  0  0  0  0  0  0  0  0
    5.8170    0.5930   19.6160 C   0  0  0  0  0  0  0  0  0  0  0  0
    4.8380    1.5710   19.8250 C   0  0  0  0  0  0  0  0  0  0  0  0
    4.2720    2.1760   18.6960 C   0  0  0  0  0  0  0  0  0  0  0  0
    4.7080    1.8020   17.4170 C   0  0  0  0  0  0  0  0  0  0  0  0
    5.6100    0.8170   17.2030 N   0  0  0  0  0  0  0  0  0  0  0  0
    6.1610    0.2420   18.2920 C   0  0  0  0  0  0  0  0  0  0  0  0
   10.0870    0.8120   23.3990 C   0  0  0  0  0  0  0  0  0  0  0  0
   11.4520    1.0440   23.6180 C   0  0  0  0  0  0  0  0  0  0  0  0
  1  2  1  0
  2  3  1  0
  3  4  1  0
  4  5  1  0
  5  6  1  0
  6 21  2  0
  6  7  1  0
  7  8  2  0
  8  9  1  0
  9 10  1  0
  9 20  2  0
 10 11  1  0
 11 12  2  0
 11 13  1  0
 13 14  1  0
 14 15  2  0
 14 19  1  0
 15 16  1  0
 16 17  2  0
 17 18  1  0
 18 19  2  0
 20 21  1  0
M  END
