WPC0429_minimised.pdb
     RDKit          3D

 20 21  0  0  1  0  0  0  0  0999 V2000
   14.5940    1.3330   22.6600 C   0  0  0  0  0  0  0  0  0  0  0  0
   14.1260    0.4030   23.2520 C   0  0  0  0  0  0  0  0  0  0  0  0
   13.4950   -0.6990   23.9850 C   0  0  2  0  0  0  0  0  0  0  0  0
   14.1450   -1.9120   23.6300 O   0  0  0  0  0  0  0  0  0  0  0  0
   12.0240   -0.7560   23.6080 C   0  0  0  0  0  0  0  0  0  0  0  0
   11.6600   -1.2060   22.3280 C   0  0  0  0  0  0  0  0  0  0  0  0
   10.3270   -1.1480   21.9140 C   0  0  0  0  0  0  0  0  0  0  0  0
    9.3460   -0.6010   22.7520 C   0  0  0  0  0  0  0  0  0  0  0  0
    8.0370   -0.3980   22.2660 N   0  0  0  0  0  0  0  0  0  0  0  0
    7.7160    0.0630   21.0150 C   0  0  0  0  0  0  0  0  0  0  0  0
    8.5200    0.3290   20.1410 O   0  0  0  0  0  0  0  0  0  0  0  0
    6.3690    0.1920   20.8340 N   0  0  0  0  0  0  0  0  0  0  0  0
    5.7430    0.7110   19.6770 C   0  0  0  0  0  0  0  0  0  0  0  0
    4.7400    1.6760   19.8230 C   0  0  0  0  0  0  0  0  0  0  0  0
    4.2200    2.2510   18.6580 C   0  0  0  0  0  0  0  0  0  0  0  0
    4.7170    1.8580   17.4080 C   0  0  0  0  0  0  0  0  0  0  0  0
    5.6430    0.8840   17.2520 N   0  0  0  0  0  0  0  0  0  0  0  0
    6.1570    0.3430   18.3770 C   0  0  0  0  0  0  0  0  0  0  0  0
    9.6890   -0.1990   24.0510 C   0  0  0  0  0  0  0  0  0  0  0  0
   11.0240   -0.2840   24.4820 C   0  0  0  0  0  0  0  0  0  0  0  0
  1  2  3  0
  2  3  1  0
  3  4  1  6
  3  5  1  0
  5 20  2  0
  5  6  1  0
  6  7  2  0
  7  8  1  0
  8  9  1  0
  8 19  2  0
  9 10  1  0
 10 11  2  0
 10 12  1  0
 12 13  1  0
 13 14  2  0
 13 18  1  0
 14 15  1  0
 15 16  2  0
 16 17  1  0
 17 18  2  0
 19 20  1  0
M  END
