WPC0717_minimised.pdb
     RDKit          3D

 24 25  0  0  0  0  0  0  0  0999 V2000
   12.4510    6.7650   25.1550 C   0  0  0  0  0  0  0  0  0  0  0  0
   11.3730    5.7680   24.6930 C   0  0  0  0  0  0  0  0  0  0  0  0
   12.0060    4.6660   24.0200 O   0  0  0  0  0  0  0  0  0  0  0  0
   12.3240    4.9030   22.6340 C   0  0  0  0  0  0  0  0  0  0  0  0
   12.7760    3.5800   21.9910 C   0  0  0  0  0  0  0  0  0  0  0  0
   14.1210    3.1140   22.5840 C   0  0  0  0  0  0  0  0  0  0  0  0
   14.5020    1.7250   22.2640 N   0  0  0  0  0  0  0  0  0  0  0  0
   13.9950    0.6780   23.1730 C   0  0  0  0  0  0  0  0  0  0  0  0
   12.5170    0.3760   23.0280 C   0  0  0  0  0  0  0  0  0  0  0  0
   12.0920   -0.5510   22.0640 C   0  0  0  0  0  0  0  0  0  0  0  0
   10.7240   -0.7710   21.8600 C   0  0  0  0  0  0  0  0  0  0  0  0
    9.7750   -0.0580   22.6060 C   0  0  0  0  0  0  0  0  0  0  0  0
    8.4130   -0.1190   22.2470 N   0  0  0  0  0  0  0  0  0  0  0  0
    7.9460    0.1170   20.9790 C   0  0  0  0  0  0  0  0  0  0  0  0
    8.6610    0.2810   20.0090 O   0  0  0  0  0  0  0  0  0  0  0  0
    6.5810    0.1840   20.8980 N   0  0  0  0  0  0  0  0  0  0  0  0
    5.8670    0.6370   19.7620 C   0  0  0  0  0  0  0  0  0  0  0  0
    4.8870    1.6220   19.9310 C   0  0  0  0  0  0  0  0  0  0  0  0
    4.3000    2.1610   18.7800 C   0  0  0  0  0  0  0  0  0  0  0  0
    4.7130    1.7120   17.5160 C   0  0  0  0  0  0  0  0  0  0  0  0
    5.6120    0.7170   17.3420 N   0  0  0  0  0  0  0  0  0  0  0  0
    6.1900    0.2120   18.4530 C   0  0  0  0  0  0  0  0  0  0  0  0
   10.1950    0.8030   23.6310 C   0  0  0  0  0  0  0  0  0  0  0  0
   11.5660    1.0110   23.8500 C   0  0  0  0  0  0  0  0  0  0  0  0
  1  2  1  0
  2  3  1  0
  3  4  1  0
  4  5  1  0
  5  6  1  0
  6  7  1  0
  7  8  1  0
  8  9  1  0
  9 24  2  0
  9 10  1  0
 10 11  2  0
 11 12  1  0
 12 13  1  0
 12 23  2  0
 13 14  1  0
 14 15  2  0
 14 16  1  0
 16 17  1  0
 17 18  2  0
 17 22  1  0
 18 19  1  0
 19 20  2  0
 20 21  1  0
 21 22  2  0
 23 24  1  0
M  END
