WPC0239_minimised.pdb
     RDKit          3D

 24 26  0  0  0  0  0  0  0  0999 V2000
    9.2260    0.8540   20.6880 O   0  0  0  0  0  0  0  0  0  0  0  0
    8.8590   -0.0220   21.4450 C   0  0  0  0  0  0  0  0  0  0  0  0
    9.6720   -0.5690   22.3990 N   0  0  0  0  0  0  0  0  0  0  0  0
   11.0400   -0.2570   22.5240 C   0  0  0  0  0  0  0  0  0  0  0  0
   12.0020   -1.1870   22.1060 C   0  0  0  0  0  0  0  0  0  0  0  0
   13.3650   -0.8470   22.1200 C   0  0  0  0  0  0  0  0  0  0  0  0
   13.7620    0.4200   22.5780 C   0  0  0  0  0  0  0  0  0  0  0  0
   12.7980    1.3470   23.0060 C   0  0  0  0  0  0  0  0  0  0  0  0
   11.4370    1.0110   22.9730 C   0  0  0  0  0  0  0  0  0  0  0  0
    7.6070   -0.5740   21.3640 N   0  0  0  0  0  0  0  0  0  0  0  0
    6.6560   -0.2170   20.3690 C   0  0  0  0  0  0  0  0  0  0  0  0
    7.0320   -0.1570   19.0060 C   0  0  0  0  0  0  0  0  0  0  0  0
    6.2200    0.2700   18.0160 N   0  0  0  0  0  0  0  0  0  0  0  0
    5.0060    0.7330   18.3750 C   0  0  0  0  0  0  0  0  0  0  0  0
    4.5280    0.6740   19.6960 C   0  0  0  0  0  0  0  0  0  0  0  0
    5.3560    0.1840   20.7200 C   0  0  0  0  0  0  0  0  0  0  0  0
    4.9040    0.1680   22.0700 N   0  0  0  0  0  0  0  0  0  0  0  0
    4.3840    1.2070   22.8190 C   0  0  0  0  0  0  0  0  0  0  0  0
    3.7650    0.9490   23.8380 O   0  0  0  0  0  0  0  0  0  0  0  0
    4.5440    2.5900   22.3030 C   0  0  0  0  0  0  0  0  0  0  0  0
    3.7420    3.6260   22.7080 C   0  0  0  0  0  0  0  0  0  0  0  0
    4.1410    4.7230   21.9080 C   0  0  0  0  0  0  0  0  0  0  0  0
    5.1950    4.2800   21.1620 C   0  0  0  0  0  0  0  0  0  0  0  0
    5.4780    2.9590   21.3630 O   0  0  0  0  0  0  0  0  0  0  0  0
  1  2  2  0
  2  3  1  0
  2 10  1  0
  3  4  1  0
  4  5  2  0
  4  9  1  0
  5  6  1  0
  6  7  2  0
  7  8  1  0
  8  9  2  0
 10 11  1  0
 11 12  2  0
 11 16  1  0
 12 13  1  0
 13 14  2  0
 14 15  1  0
 15 16  2  0
 16 17  1  0
 17 18  1  0
 18 19  2  0
 18 20  1  0
 20 21  2  0
 20 24  1  0
 21 22  1  0
 22 23  2  0
 23 24  1  0
M  END
