WPC0867_minimised.pdb
     RDKit          3D

 21 22  0  0  1  0  0  0  0  0999 V2000
   11.9690    2.3560   22.1120 C   0  0  0  0  0  0  0  0  0  0  0  0
   13.0600    2.1780   23.1880 C   0  0  0  0  0  0  0  0  0  0  0  0
   13.8610    0.8490   23.1000 C   0  0  0  0  0  0  0  0  0  0  0  0
   13.3430   -0.2610   24.0440 C   0  0  2  0  0  0  0  0  0  0  0  0
   14.2230   -1.4230   23.9770 N   0  0  0  0  0  0  0  0  0  0  0  0
   11.9140   -0.6320   23.6940 C   0  0  0  0  0  0  0  0  0  0  0  0
   11.6350   -1.2880   22.4810 C   0  0  0  0  0  0  0  0  0  0  0  0
   10.3160   -1.3920   22.0270 C   0  0  0  0  0  0  0  0  0  0  0  0
    9.2690   -0.8290   22.7700 C   0  0  0  0  0  0  0  0  0  0  0  0
    7.9800   -0.7170   22.2100 N   0  0  0  0  0  0  0  0  0  0  0  0
    7.7070   -0.2620   20.9450 C   0  0  0  0  0  0  0  0  0  0  0  0
    8.5350   -0.0480   20.0790 O   0  0  0  0  0  0  0  0  0  0  0  0
    6.3710   -0.0460   20.7560 N   0  0  0  0  0  0  0  0  0  0  0  0
    5.7790    0.5500   19.6180 C   0  0  0  0  0  0  0  0  0  0  0  0
    4.8090    1.5430   19.8030 C   0  0  0  0  0  0  0  0  0  0  0  0
    4.3000    2.1750   18.6620 C   0  0  0  0  0  0  0  0  0  0  0  0
    4.7750    1.8070   17.3950 C   0  0  0  0  0  0  0  0  0  0  0  0
    5.6750    0.8160   17.2040 N   0  0  0  0  0  0  0  0  0  0  0  0
    6.1800    0.2210   18.3040 C   0  0  0  0  0  0  0  0  0  0  0  0
    9.5280   -0.2660   24.0280 C   0  0  0  0  0  0  0  0  0  0  0  0
   10.8490   -0.1710   24.4930 C   0  0  0  0  0  0  0  0  0  0  0  0
  1  2  1  0
  2  3  1  0
  3  4  1  0
  4  5  1  6
  4  6  1  0
  6 21  2  0
  6  7  1  0
  7  8  2  0
  8  9  1  0
  9 10  1  0
  9 20  2  0
 10 11  1  0
 11 12  2  0
 11 13  1  0
 13 14  1  0
 14 15  2  0
 14 19  1  0
 15 16  1  0
 16 17  2  0
 17 18  1  0
 18 19  2  0
 20 21  1  0
M  END
