WPC0638_minimised.pdb
     RDKit          3D

 23 25  0  0  0  0  0  0  0  0999 V2000
    8.5800    0.2290   19.9440 O   0  0  0  0  0  0  0  0  0  0  0  0
    7.8300   -0.0800   20.8510 C   0  0  0  0  0  0  0  0  0  0  0  0
    8.2390   -0.4740   22.0990 N   0  0  0  0  0  0  0  0  0  0  0  0
    9.5720   -0.3940   22.5540 C   0  0  0  0  0  0  0  0  0  0  0  0
   10.6230   -0.8230   21.7310 C   0  0  0  0  0  0  0  0  0  0  0  0
   11.9490   -0.5220   22.0570 C   0  0  0  0  0  0  0  0  0  0  0  0
   12.2300    0.1820   23.2360 C   0  0  0  0  0  0  0  0  0  0  0  0
   13.6570    0.6050   23.5260 C   0  0  0  0  0  0  0  0  0  0  0  0
   14.1450    1.7950   22.6750 C   0  0  0  0  0  0  0  0  0  0  0  0
   13.6550    3.1170   23.1190 N   0  0  0  0  0  0  0  0  0  0  0  0
   12.2180    3.4190   22.9780 C   0  0  0  0  0  0  0  0  0  0  0  0
   12.1600    4.9480   23.0480 C   0  0  0  0  0  0  0  0  0  0  0  0
   13.4290    5.3690   22.3000 C   0  0  0  0  0  0  0  0  0  0  0  0
   14.4380    4.2540   22.6100 C   0  0  0  0  0  0  0  0  0  0  0  0
   11.1860    0.4950   24.1280 C   0  0  0  0  0  0  0  0  0  0  0  0
    9.8550    0.2250   23.7780 C   0  0  0  0  0  0  0  0  0  0  0  0
    6.4710   -0.0270   20.7200 N   0  0  0  0  0  0  0  0  0  0  0  0
    5.8050    0.5400   19.6090 C   0  0  0  0  0  0  0  0  0  0  0  0
    4.8400    1.5310   19.8240 C   0  0  0  0  0  0  0  0  0  0  0  0
    4.3180    2.1820   18.7000 C   0  0  0  0  0  0  0  0  0  0  0  0
    4.7800    1.8390   17.4210 C   0  0  0  0  0  0  0  0  0  0  0  0
    5.6710    0.8460   17.2010 N   0  0  0  0  0  0  0  0  0  0  0  0
    6.1810    0.2270   18.2850 C   0  0  0  0  0  0  0  0  0  0  0  0
  1  2  2  0
  2  3  1  0
  2 17  1  0
  3  4  1  0
  4  5  2  0
  4 16  1  0
  5  6  1  0
  6  7  2  0
  7  8  1  0
  7 15  1  0
  8  9  1  0
  9 10  1  0
 10 11  1  0
 10 14  1  0
 11 12  1  0
 12 13  1  0
 13 14  1  0
 15 16  2  0
 17 18  1  0
 18 19  2  0
 18 23  1  0
 19 20  1  0
 20 21  2  0
 21 22  1  0
 22 23  2  0
M  END
