WPC0798_minimised.pdb
     RDKit          3D

 19 20  0  0  0  0  0  0  0  0999 V2000
   12.3430    2.9380   23.1530 C   0  0  0  0  0  0  0  0  0  0  0  0
   13.3840    1.8180   22.9150 C   0  0  0  0  0  0  0  0  0  0  0  0
   13.1160    0.5190   23.6940 C   0  0  0  0  0  0  0  0  0  0  0  0
   11.7230   -0.0050   23.4130 C   0  0  0  0  0  0  0  0  0  0  0  0
   11.4970   -0.7830   22.2670 C   0  0  0  0  0  0  0  0  0  0  0  0
   10.1850   -1.0720   21.8740 C   0  0  0  0  0  0  0  0  0  0  0  0
    9.1030   -0.5570   22.6010 C   0  0  0  0  0  0  0  0  0  0  0  0
    7.8090   -0.5770   22.0460 N   0  0  0  0  0  0  0  0  0  0  0  0
    7.5180   -0.1480   20.7760 C   0  0  0  0  0  0  0  0  0  0  0  0
    8.3420    0.0860   19.9110 O   0  0  0  0  0  0  0  0  0  0  0  0
    6.1780    0.0340   20.5850 N   0  0  0  0  0  0  0  0  0  0  0  0
    5.5910    0.6490   19.4560 C   0  0  0  0  0  0  0  0  0  0  0  0
    4.6200    1.6390   19.6480 C   0  0  0  0  0  0  0  0  0  0  0  0
    4.1410    2.3060   18.5150 C   0  0  0  0  0  0  0  0  0  0  0  0
    4.6530    1.9830   17.2510 C   0  0  0  0  0  0  0  0  0  0  0  0
    5.5580    0.9980   17.0520 N   0  0  0  0  0  0  0  0  0  0  0  0
    6.0250    0.3600   18.1440 C   0  0  0  0  0  0  0  0  0  0  0  0
    9.3260    0.1270   23.8030 C   0  0  0  0  0  0  0  0  0  0  0  0
   10.6400    0.3930   24.2180 C   0  0  0  0  0  0  0  0  0  0  0  0
  1  2  1  0
  2  3  1  0
  3  4  1  0
  4 19  2  0
  4  5  1  0
  5  6  2  0
  6  7  1  0
  7  8  1  0
  7 18  2  0
  8  9  1  0
  9 10  2  0
  9 11  1  0
 11 12  1  0
 12 13  2  0
 12 17  1  0
 13 14  1  0
 14 15  2  0
 15 16  1  0
 16 17  2  0
 18 19  1  0
M  END
