WPC0352_minimised.pdb
     RDKit          3D

 20 21  0  0  0  0  0  0  0  0999 V2000
    9.8190   -4.9590   24.8950 C   0  0  0  0  0  0  0  0  0  0  0  0
    9.0300   -3.9880   24.1800 O   0  0  0  0  0  0  0  0  0  0  0  0
    9.7830   -2.8660   23.6860 C   0  0  0  0  0  0  0  0  0  0  0  0
    8.8040   -1.9620   22.9020 C   0  0  0  0  0  0  0  0  0  0  0  0
    9.4050   -0.7970   22.2030 N   0  0  0  0  0  0  0  0  0  0  0  0
    8.6880   -0.0520   21.2740 C   0  0  0  0  0  0  0  0  0  0  0  0
    9.1970    0.8360   20.6180 O   0  0  0  0  0  0  0  0  0  0  0  0
    7.3640   -0.3680   21.0850 N   0  0  0  0  0  0  0  0  0  0  0  0
    6.5500    0.1930   20.0670 C   0  0  0  0  0  0  0  0  0  0  0  0
    5.5680    1.1400   20.3850 C   0  0  0  0  0  0  0  0  0  0  0  0
    4.8790    1.7510   19.3240 C   0  0  0  0  0  0  0  0  0  0  0  0
    5.1810    1.3920   18.0000 C   0  0  0  0  0  0  0  0  0  0  0  0
    6.1010    0.4520   17.6870 N   0  0  0  0  0  0  0  0  0  0  0  0
    6.7870   -0.1040   18.7080 C   0  0  0  0  0  0  0  0  0  0  0  0
   10.7550   -0.4410   22.4610 C   0  0  0  0  0  0  0  0  0  0  0  0
   11.7990   -1.0820   21.7770 C   0  0  0  0  0  0  0  0  0  0  0  0
   13.1270   -0.6570   21.9410 C   0  0  0  0  0  0  0  0  0  0  0  0
   13.4110    0.4310   22.7800 C   0  0  0  0  0  0  0  0  0  0  0  0
   12.3670    1.0850   23.4530 C   0  0  0  0  0  0  0  0  0  0  0  0
   11.0430    0.6440   23.3030 C   0  0  0  0  0  0  0  0  0  0  0  0
  1  2  1  0
  2  3  1  0
  3  4  1  0
  4  5  1  0
  5  6  1  0
  5 15  1  0
  6  8  1  0
  6  7  2  0
  8  9  1  0
  9 10  2  0
  9 14  1  0
 10 11  1  0
 11 12  2  0
 12 13  1  0
 13 14  2  0
 15 16  2  0
 15 20  1  0
 16 17  1  0
 17 18  2  0
 18 19  1  0
 19 20  2  0
M  END
