WPC0837_minimised.pdb
     RDKit          3D

 24 26  0  0  0  0  0  0  0  0999 V2000
   11.0090    2.8600   21.4440 C   0  0  0  0  0  0  0  0  0  0  0  0
   11.5940    3.6980   22.4930 N   0  0  0  0  0  0  0  0  0  0  0  0
   11.0610    4.8660   22.9970 C   0  0  0  0  0  0  0  0  0  0  0  0
   11.9930    5.3750   23.8700 C   0  0  0  0  0  0  0  0  0  0  0  0
   13.0960    4.5590   23.9340 N   0  0  0  0  0  0  0  0  0  0  0  0
   12.7860    3.5420   23.1620 C   0  0  0  0  0  0  0  0  0  0  0  0
   13.9780    2.3450   22.6670 S   0  0  0  0  0  0  0  0  0  0  0  0
   13.5740    0.8240   23.6330 C   0  0  0  0  0  0  0  0  0  0  0  0
   12.1640    0.3380   23.3820 C   0  0  0  0  0  0  0  0  0  0  0  0
   11.9090   -0.5790   22.3490 C   0  0  0  0  0  0  0  0  0  0  0  0
   10.5860   -0.8960   22.0150 C   0  0  0  0  0  0  0  0  0  0  0  0
    9.5240   -0.3050   22.7150 C   0  0  0  0  0  0  0  0  0  0  0  0
    8.2090   -0.4360   22.2350 N   0  0  0  0  0  0  0  0  0  0  0  0
    7.8160   -0.0250   20.9910 C   0  0  0  0  0  0  0  0  0  0  0  0
    8.5780    0.3790   20.1310 O   0  0  0  0  0  0  0  0  0  0  0  0
    6.4630   -0.0780   20.8150 N   0  0  0  0  0  0  0  0  0  0  0  0
    5.7830    0.4430   19.6910 C   0  0  0  0  0  0  0  0  0  0  0  0
    4.7730    1.3920   19.8900 C   0  0  0  0  0  0  0  0  0  0  0  0
    4.2060    1.9830   18.7540 C   0  0  0  0  0  0  0  0  0  0  0  0
    4.6600    1.6110   17.4810 C   0  0  0  0  0  0  0  0  0  0  0  0
    5.6030    0.6630   17.2780 N   0  0  0  0  0  0  0  0  0  0  0  0
    6.1660    0.1120   18.3730 C   0  0  0  0  0  0  0  0  0  0  0  0
    9.7780    0.5330   23.8080 C   0  0  0  0  0  0  0  0  0  0  0  0
   11.0990    0.8530   24.1450 C   0  0  0  0  0  0  0  0  0  0  0  0
  1  2  1  0
  2  3  1  0
  2  6  1  0
  3  4  2  0
  4  5  1  0
  5  6  2  0
  6  7  1  0
  7  8  1  0
  8  9  1  0
  9 24  1  0
  9 10  2  0
 10 11  1  0
 11 12  2  0
 12 13  1  0
 12 23  1  0
 13 14  1  0
 14 15  2  0
 14 16  1  0
 16 17  1  0
 17 18  2  0
 17 22  1  0
 18 19  1  0
 19 20  2  0
 20 21  1  0
 21 22  2  0
 23 24  2  0
M  END
