WPC0812_minimised.pdb
     RDKit          3D

 21 22  0  0  1  0  0  0  0  0999 V2000
   13.1580    4.6910   23.9080 N   0  0  0  0  0  0  0  0  0  0  0  0
   12.9380    3.8140   23.0510 C   0  0  0  0  0  0  0  0  0  0  0  0
   12.8860    4.2400   21.8000 N   0  0  0  0  0  0  0  0  0  0  0  0
   13.7650    2.7620   23.0150 N   0  0  0  0  0  0  0  0  0  0  0  0
   13.4640    1.3860   23.4400 C   0  0  0  0  0  0  0  0  0  0  0  0
   12.0700    0.9110   23.0980 C   0  0  0  0  0  0  0  0  0  0  0  0
   11.8880   -0.0920   22.1310 C   0  0  0  0  0  0  0  0  0  0  0  0
   10.5960   -0.5280   21.8140 C   0  0  0  0  0  0  0  0  0  0  0  0
    9.4850    0.0370   22.4580 C   0  0  0  0  0  0  0  0  0  0  0  0
    8.1810   -0.2630   22.0230 N   0  0  0  0  0  0  0  0  0  0  0  0
    7.7590   -0.0780   20.7360 C   0  0  0  0  0  0  0  0  0  0  0  0
    8.5030    0.1290   19.7970 O   0  0  0  0  0  0  0  0  0  0  0  0
    6.3980   -0.0690   20.6160 N   0  0  0  0  0  0  0  0  0  0  0  0
    5.7140    0.4920   19.5140 C   0  0  0  0  0  0  0  0  0  0  0  0
    4.7520    1.4810   19.7520 C   0  0  0  0  0  0  0  0  0  0  0  0
    4.2220    2.1510   18.6430 C   0  0  0  0  0  0  0  0  0  0  0  0
    4.6770    1.8300   17.3570 C   0  0  0  0  0  0  0  0  0  0  0  0
    5.5660    0.8400   17.1140 N   0  0  0  0  0  0  0  0  0  0  0  0
    6.0800    0.1990   18.1820 C   0  0  0  0  0  0  0  0  0  0  0  0
    9.6670    0.9950   23.4650 C   0  0  0  0  0  0  0  0  0  0  0  0
   10.9600    1.4270   23.7920 C   0  0  0  0  0  0  0  0  0  0  0  0
  2  1  1  0
  2  3  1  0
  2  4  1  0
  4  5  1  0
  5  6  1  0
  6 21  2  0
  6  7  1  0
  7  8  2  0
  8  9  1  0
  9 10  1  0
  9 20  2  0
 10 11  1  0
 11 12  2  0
 11 13  1  0
 13 14  1  0
 14 15  2  0
 14 19  1  0
 15 16  1  0
 16 17  2  0
 17 18  1  0
 18 19  2  0
 20 21  1  0
M  END
