WPC0822_minimised.pdb
     RDKit          3D

 19 20  0  0  0  0  0  0  0  0999 V2000
   12.7540    3.5310   22.3750 C   0  0  0  0  0  0  0  0  0  0  0  0
   13.8300    2.8480   22.7840 C   0  0  0  0  0  0  0  0  0  0  0  0
   13.8420    1.1690   23.2680 S   0  0  0  0  0  0  0  0  0  0  0  0
   12.1880    0.5570   23.0720 C   0  0  0  0  0  0  0  0  0  0  0  0
   11.9380   -0.4020   22.0810 C   0  0  0  0  0  0  0  0  0  0  0  0
   10.6210   -0.7970   21.8170 C   0  0  0  0  0  0  0  0  0  0  0  0
    9.5580   -0.2250   22.5330 C   0  0  0  0  0  0  0  0  0  0  0  0
    8.2330   -0.4200   22.0980 N   0  0  0  0  0  0  0  0  0  0  0  0
    7.8130   -0.1260   20.8290 C   0  0  0  0  0  0  0  0  0  0  0  0
    8.5620    0.1290   19.9050 O   0  0  0  0  0  0  0  0  0  0  0  0
    6.4530   -0.0870   20.7030 N   0  0  0  0  0  0  0  0  0  0  0  0
    5.7760    0.4760   19.5950 C   0  0  0  0  0  0  0  0  0  0  0  0
    4.8080    1.4610   19.8240 C   0  0  0  0  0  0  0  0  0  0  0  0
    4.2690    2.1130   18.7090 C   0  0  0  0  0  0  0  0  0  0  0  0
    4.7200    1.7790   17.4240 C   0  0  0  0  0  0  0  0  0  0  0  0
    5.6150    0.7920   17.1910 N   0  0  0  0  0  0  0  0  0  0  0  0
    6.1410    0.1700   18.2660 C   0  0  0  0  0  0  0  0  0  0  0  0
    9.8160    0.6660   23.5850 C   0  0  0  0  0  0  0  0  0  0  0  0
   11.1360    1.0530   23.8610 C   0  0  0  0  0  0  0  0  0  0  0  0
  1  2  2  0
  2  3  1  0
  3  4  1  0
  4 19  2  0
  4  5  1  0
  5  6  2  0
  6  7  1  0
  7  8  1  0
  7 18  2  0
  8  9  1  0
  9 10  2  0
  9 11  1  0
 11 12  1  0
 12 13  2  0
 12 17  1  0
 13 14  1  0
 14 15  2  0
 15 16  1  0
 16 17  2  0
 18 19  1  0
M  END
