WPC0620_minimised.pdb
     RDKit          3D

 20 21  0  0  0  0  0  0  0  0999 V2000
   10.7170    4.7080   24.7120 N   0  0  0  0  0  0  0  0  0  0  0  0
   11.5150    4.2120   24.0430 C   0  0  0  0  0  0  0  0  0  0  0  0
   12.7500    3.5370   23.1060 S   0  0  0  0  0  0  0  0  0  0  0  0
   12.8780    1.7640   23.6330 C   0  0  0  0  0  0  0  0  0  0  0  0
   11.6400    0.9630   23.3010 C   0  0  0  0  0  0  0  0  0  0  0  0
   11.6470    0.0880   22.2040 C   0  0  0  0  0  0  0  0  0  0  0  0
   10.4600   -0.5430   21.8130 C   0  0  0  0  0  0  0  0  0  0  0  0
    9.2650   -0.2800   22.5000 C   0  0  0  0  0  0  0  0  0  0  0  0
    8.0220   -0.6410   21.9470 N   0  0  0  0  0  0  0  0  0  0  0  0
    7.6590   -0.3250   20.6660 C   0  0  0  0  0  0  0  0  0  0  0  0
    8.4360   -0.0670   19.7660 O   0  0  0  0  0  0  0  0  0  0  0  0
    6.3050   -0.2380   20.5120 N   0  0  0  0  0  0  0  0  0  0  0  0
    5.6750    0.4190   19.4300 C   0  0  0  0  0  0  0  0  0  0  0  0
    4.7390    1.4260   19.6970 C   0  0  0  0  0  0  0  0  0  0  0  0
    4.2420    2.1570   18.6110 C   0  0  0  0  0  0  0  0  0  0  0  0
    4.7060    1.8780   17.3170 C   0  0  0  0  0  0  0  0  0  0  0  0
    5.5820    0.8830   17.0490 N   0  0  0  0  0  0  0  0  0  0  0  0
    6.0600    0.1810   18.0940 C   0  0  0  0  0  0  0  0  0  0  0  0
    9.2810    0.5060   23.6600 C   0  0  0  0  0  0  0  0  0  0  0  0
   10.4730    1.1160   24.0710 C   0  0  0  0  0  0  0  0  0  0  0  0
  1  2  3  0
  2  3  1  0
  3  4  1  0
  4  5  1  0
  5 20  2  0
  5  6  1  0
  6  7  2  0
  7  8  1  0
  8  9  1  0
  8 19  2  0
  9 10  1  0
 10 11  2  0
 10 12  1  0
 12 13  1  0
 13 14  2  0
 13 18  1  0
 14 15  1  0
 15 16  2  0
 16 17  1  0
 17 18  2  0
 19 20  1  0
M  END
