WPC0720_minimised.pdb
     RDKit          3D

 20 21  0  0  0  0  0  0  0  0999 V2000
   13.5410    4.7930   22.6170 C   0  0  0  0  0  0  0  0  0  0  0  0
   13.4790    3.4860   23.2090 O   0  0  0  0  0  0  0  0  0  0  0  0
   14.1250    2.4540   22.4430 C   0  0  0  0  0  0  0  0  0  0  0  0
   13.8350    1.0710   23.0630 C   0  0  0  0  0  0  0  0  0  0  0  0
   12.3940    0.6330   22.8800 C   0  0  0  0  0  0  0  0  0  0  0  0
   12.0750   -0.3740   21.9530 C   0  0  0  0  0  0  0  0  0  0  0  0
   10.7360   -0.7240   21.7360 C   0  0  0  0  0  0  0  0  0  0  0  0
    9.7110   -0.0620   22.4280 C   0  0  0  0  0  0  0  0  0  0  0  0
    8.3650   -0.2570   22.0570 N   0  0  0  0  0  0  0  0  0  0  0  0
    7.8970   -0.0410   20.7890 C   0  0  0  0  0  0  0  0  0  0  0  0
    8.6130    0.1370   19.8230 O   0  0  0  0  0  0  0  0  0  0  0  0
    6.5330    0.0160   20.7080 N   0  0  0  0  0  0  0  0  0  0  0  0
    5.8300    0.5440   19.5990 C   0  0  0  0  0  0  0  0  0  0  0  0
    4.8670    1.5350   19.8220 C   0  0  0  0  0  0  0  0  0  0  0  0
    4.3080    2.1640   18.7020 C   0  0  0  0  0  0  0  0  0  0  0  0
    4.7400    1.8040   17.4180 C   0  0  0  0  0  0  0  0  0  0  0  0
    5.6250    0.8070   17.1900 N   0  0  0  0  0  0  0  0  0  0  0  0
    6.1670    0.2060   18.2690 C   0  0  0  0  0  0  0  0  0  0  0  0
   10.0280    0.9000   23.3960 C   0  0  0  0  0  0  0  0  0  0  0  0
   11.3680    1.2430   23.6250 C   0  0  0  0  0  0  0  0  0  0  0  0
  1  2  1  0
  2  3  1  0
  3  4  1  0
  4  5  1  0
  5 20  2  0
  5  6  1  0
  6  7  2  0
  7  8  1  0
  8  9  1  0
  8 19  2  0
  9 10  1  0
 10 11  2  0
 10 12  1  0
 12 13  1  0
 13 14  2  0
 13 18  1  0
 14 15  1  0
 15 16  2  0
 16 17  1  0
 17 18  2  0
 19 20  1  0
M  END
