WPC0353_minimised.pdb
     RDKit          3D

 18 19  0  0  0  0  0  0  0  0999 V2000
    8.4320   -2.4970   23.4200 C   0  0  0  0  0  0  0  0  0  0  0  0
    8.5650   -0.9750   23.6190 C   0  0  0  0  0  0  0  0  0  0  0  0
    9.2220   -0.3260   22.4710 N   0  0  0  0  0  0  0  0  0  0  0  0
    8.5410    0.1320   21.3510 C   0  0  0  0  0  0  0  0  0  0  0  0
    9.1140    0.6820   20.4340 O   0  0  0  0  0  0  0  0  0  0  0  0
    7.1800   -0.0620   21.2760 N   0  0  0  0  0  0  0  0  0  0  0  0
    6.3890    0.3730   20.1780 C   0  0  0  0  0  0  0  0  0  0  0  0
    5.3830    1.3270   20.3770 C   0  0  0  0  0  0  0  0  0  0  0  0
    4.7460    1.8510   19.2430 C   0  0  0  0  0  0  0  0  0  0  0  0
    5.1210    1.4060   17.9650 C   0  0  0  0  0  0  0  0  0  0  0  0
    6.0530    0.4480   17.7630 N   0  0  0  0  0  0  0  0  0  0  0  0
    6.6900   -0.0280   18.8550 C   0  0  0  0  0  0  0  0  0  0  0  0
   10.6250   -0.1380   22.5520 C   0  0  0  0  0  0  0  0  0  0  0  0
   11.4990   -1.0870   21.9940 C   0  0  0  0  0  0  0  0  0  0  0  0
   12.8850   -0.8530   21.9830 C   0  0  0  0  0  0  0  0  0  0  0  0
   13.3980    0.3320   22.5360 C   0  0  0  0  0  0  0  0  0  0  0  0
   12.5260    1.2820   23.0900 C   0  0  0  0  0  0  0  0  0  0  0  0
   11.1420    1.0480   23.0990 C   0  0  0  0  0  0  0  0  0  0  0  0
  1  2  1  0
  2  3  1  0
  3  4  1  0
  3 13  1  0
  4  6  1  0
  4  5  2  0
  6  7  1  0
  7  8  2  0
  7 12  1  0
  8  9  1  0
  9 10  2  0
 10 11  1  0
 11 12  2  0
 13 14  2  0
 13 18  1  0
 14 15  1  0
 15 16  2  0
 16 17  1  0
 17 18  2  0
M  END
