WPC1224_minimised.pdb
     RDKit          3D

 23 24  0  0  0  0  0  0  0  0999 V2000
    8.3080    4.5930   22.1470 C   0  0  0  0  0  0  0  0  0  0  0  0
    9.0990    5.3920   23.2070 C   0  0  0  0  0  0  0  0  0  0  0  0
   10.6100    5.5190   22.9280 C   0  0  0  0  0  0  0  0  0  0  0  0
   11.3560    4.1770   22.9900 C   0  0  0  0  0  0  0  0  0  0  0  0
   13.1340    4.3410   22.5540 S   0  0  1  0  0  0  0  0  0  0  0  0
   13.5330    5.0240   24.0550 O   0  0  0  0  0  0  0  0  0  0  0  0
   13.6930    2.6500   23.0900 C   0  0  0  0  0  0  0  0  0  0  0  0
   13.0090    1.4380   22.4590 C   0  0  0  0  0  0  0  0  0  0  0  0
   13.7550    0.6130   21.6010 C   0  0  0  0  0  0  0  0  0  0  0  0
   13.1830   -0.5390   21.0440 C   0  0  0  0  0  0  0  0  0  0  0  0
   11.8350   -0.8310   21.3000 C   0  0  0  0  0  0  0  0  0  0  0  0
   11.0670    0.0020   22.1200 C   0  0  0  0  0  0  0  0  0  0  0  0
    9.6580   -0.1350   22.1610 N   0  0  0  0  0  0  0  0  0  0  0  0
    8.8650    0.0540   21.0510 C   0  0  0  0  0  0  0  0  0  0  0  0
    9.3130    0.2220   19.9400 O   0  0  0  0  0  0  0  0  0  0  0  0
    7.5030    0.0700   21.2310 N   0  0  0  0  0  0  0  0  0  0  0  0
    6.5980    0.4340   20.1910 C   0  0  0  0  0  0  0  0  0  0  0  0
    5.6620    1.4500   20.4180 C   0  0  0  0  0  0  0  0  0  0  0  0
    4.9140    1.9130   19.3240 C   0  0  0  0  0  0  0  0  0  0  0  0
    5.1310    1.3620   18.0500 C   0  0  0  0  0  0  0  0  0  0  0  0
    5.9780    0.3350   17.8250 N   0  0  0  0  0  0  0  0  0  0  0  0
    6.7090   -0.0940   18.8800 C   0  0  0  0  0  0  0  0  0  0  0  0
   11.6810    1.0750   22.7720 C   0  0  0  0  0  0  0  0  0  0  0  0
  1  2  1  0
  2  3  1  0
  3  4  1  0
  5  4  1  0
  5  6  1  1
  5  7  1  0
  7  8  1  0
  8 23  2  0
  8  9  1  0
  9 10  2  0
 10 11  1  0
 11 12  2  0
 12 13  1  0
 12 23  1  0
 13 14  1  0
 14 15  2  0
 14 16  1  0
 16 17  1  0
 17 18  2  0
 17 22  1  0
 18 19  1  0
 19 20  2  0
 20 21  1  0
 21 22  2  0
M  END
