WPC1499_minimised.pdb
     RDKit          3D

 23 24  0  0  0  0  0  0  0  0999 V2000
   14.1200    4.7320   23.3020 N   0  0  0  0  0  0  0  0  0  0  0  0
   12.7440    5.0050   22.6110 S   0  0  0  0  0  0  0  0  0  0  0  0
   13.4890    5.2990   21.4250 O   0  0  0  0  0  0  0  0  0  0  0  0
   12.5080    5.9000   23.7040 O   0  0  0  0  0  0  0  0  0  0  0  0
   12.6240    3.4650   23.0220 N   0  0  0  0  0  0  0  0  0  0  0  0
   11.3950    3.1190   23.7300 C   0  0  0  0  0  0  0  0  0  0  0  0
   11.4910    1.7030   24.3180 C   0  0  0  0  0  0  0  0  0  0  0  0
   11.1110    0.6190   23.3380 C   0  0  0  0  0  0  0  0  0  0  0  0
   12.0970   -0.1520   22.7000 C   0  0  0  0  0  0  0  0  0  0  0  0
   11.7230   -1.1960   21.8400 C   0  0  0  0  0  0  0  0  0  0  0  0
   10.3630   -1.4380   21.5950 C   0  0  0  0  0  0  0  0  0  0  0  0
    9.3860   -0.6280   22.1870 C   0  0  0  0  0  0  0  0  0  0  0  0
    8.0420   -0.7170   21.7890 N   0  0  0  0  0  0  0  0  0  0  0  0
    7.6320   -0.3620   20.5380 C   0  0  0  0  0  0  0  0  0  0  0  0
    8.3880   -0.1970   19.6010 O   0  0  0  0  0  0  0  0  0  0  0  0
    6.2870   -0.1470   20.4550 N   0  0  0  0  0  0  0  0  0  0  0  0
    5.6460    0.5090   19.3800 C   0  0  0  0  0  0  0  0  0  0  0  0
    4.7040    1.5090   19.6540 C   0  0  0  0  0  0  0  0  0  0  0  0
    4.1930    2.2350   18.5700 C   0  0  0  0  0  0  0  0  0  0  0  0
    4.6550    1.9650   17.2740 C   0  0  0  0  0  0  0  0  0  0  0  0
    5.5280    0.9710   16.9980 N   0  0  0  0  0  0  0  0  0  0  0  0
    6.0110    0.2650   18.0380 C   0  0  0  0  0  0  0  0  0  0  0  0
    9.7560    0.3830   23.0750 C   0  0  0  0  0  0  0  0  0  0  0  0
  1  2  1  0
  2  3  2  0
  2  4  2  0
  2  5  1  0
  5  6  1  0
  6  7  1  0
  7  8  1  0
  8 23  2  0
  8  9  1  0
  9 10  2  0
 10 11  1  0
 11 12  2  0
 12 13  1  0
 12 23  1  0
 13 14  1  0
 14 15  2  0
 14 16  1  0
 16 17  1  0
 17 18  2  0
 17 22  1  0
 18 19  1  0
 19 20  2  0
 20 21  1  0
 21 22  2  0
M  END
