WPC1005_minimised.pdb
     RDKit          3D

 23 25  0  0  0  0  0  0  0  0999 V2000
    8.9100    0.3070   20.0700 O   0  0  0  0  0  0  0  0  0  0  0  0
    8.2710   -0.0500   21.0400 C   0  0  0  0  0  0  0  0  0  0  0  0
    8.8340   -0.2750   22.2720 N   0  0  0  0  0  0  0  0  0  0  0  0
   10.1320    0.1760   22.6010 C   0  0  0  0  0  0  0  0  0  0  0  0
   11.2280   -0.1790   21.7980 C   0  0  0  0  0  0  0  0  0  0  0  0
   12.4270    0.5420   21.8860 C   0  0  0  0  0  0  0  0  0  0  0  0
   12.5350    1.6160   22.7860 C   0  0  0  0  0  0  0  0  0  0  0  0
   13.7000    2.5850   22.6610 C   0  0  0  0  0  0  0  0  0  0  0  0
   13.1460    4.1560   21.8710 S   0  0  0  0  0  0  0  0  0  0  0  0
   12.2220    4.9270   23.1400 C   0  0  0  0  0  0  0  0  0  0  0  0
   10.9570    5.3820   22.9380 N   0  0  0  0  0  0  0  0  0  0  0  0
   10.5600    6.0170   24.0740 N   0  0  0  0  0  0  0  0  0  0  0  0
   11.6140    5.8890   24.8760 C   0  0  0  0  0  0  0  0  0  0  0  0
   12.6730    5.1930   24.3380 N   0  0  0  0  0  0  0  0  0  0  0  0
   11.4920    1.8600   23.6990 C   0  0  0  0  0  0  0  0  0  0  0  0
   10.2870    1.1470   23.6000 C   0  0  0  0  0  0  0  0  0  0  0  0
    6.9100   -0.1870   20.9820 N   0  0  0  0  0  0  0  0  0  0  0  0
    6.1370    0.2930   19.8920 C   0  0  0  0  0  0  0  0  0  0  0  0
    5.1700    1.2790   20.1260 C   0  0  0  0  0  0  0  0  0  0  0  0
    4.5540    1.8680   19.0140 C   0  0  0  0  0  0  0  0  0  0  0  0
    4.9230    1.4650   17.7220 C   0  0  0  0  0  0  0  0  0  0  0  0
    5.8170    0.4790   17.4860 N   0  0  0  0  0  0  0  0  0  0  0  0
    6.4240   -0.0730   18.5580 C   0  0  0  0  0  0  0  0  0  0  0  0
  1  2  2  0
  2  3  1  0
  2 17  1  0
  3  4  1  0
  4  5  2  0
  4 16  1  0
  5  6  1  0
  6  7  2  0
  7  8  1  0
  7 15  1  0
  8  9  1  0
  9 10  1  0
 10 11  1  0
 10 14  2  0
 11 12  1  0
 12 13  2  0
 13 14  1  0
 15 16  2  0
 17 18  1  0
 18 19  2  0
 18 23  1  0
 19 20  1  0
 20 21  2  0
 21 22  1  0
 22 23  2  0
M  END
