WPC1602_minimised.pdb
     RDKit          3D

 22 24  0  0  0  0  0  0  0  0999 V2000
    8.4310   -0.1360   19.6400 O   0  0  0  0  0  0  0  0  0  0  0  0
    7.7370   -0.2130   20.6350 C   0  0  0  0  0  0  0  0  0  0  0  0
    6.3820   -0.0350   20.6070 N   0  0  0  0  0  0  0  0  0  0  0  0
    5.6750    0.5330   19.5210 C   0  0  0  0  0  0  0  0  0  0  0  0
    4.7410    1.5440   19.7790 C   0  0  0  0  0  0  0  0  0  0  0  0
    4.1750    2.2030   18.6810 C   0  0  0  0  0  0  0  0  0  0  0  0
    4.5730    1.8550   17.3830 C   0  0  0  0  0  0  0  0  0  0  0  0
    5.4330    0.8440   17.1230 N   0  0  0  0  0  0  0  0  0  0  0  0
    5.9740    0.2070   18.1790 C   0  0  0  0  0  0  0  0  0  0  0  0
    8.2340   -0.4260   21.8890 N   0  0  0  0  0  0  0  0  0  0  0  0
    9.6050   -0.3410   22.1980 C   0  0  0  0  0  0  0  0  0  0  0  0
   10.5270   -1.2040   21.5900 C   0  0  0  0  0  0  0  0  0  0  0  0
   11.9050   -1.0140   21.7800 C   0  0  0  0  0  0  0  0  0  0  0  0
   12.3540    0.0240   22.6100 C   0  0  0  0  0  0  0  0  0  0  0  0
   11.4260    0.8540   23.2640 C   0  0  0  0  0  0  0  0  0  0  0  0
   11.8970    1.8810   24.2670 C   0  0  0  0  0  0  0  0  0  0  0  0
   11.9200    3.2750   23.8090 N   0  0  0  0  0  0  0  0  0  0  0  0
   13.0470    3.9390   23.3340 C   0  0  0  0  0  0  0  0  0  0  0  0
   12.7040    5.2570   23.2210 C   0  0  0  0  0  0  0  0  0  0  0  0
   11.3460    5.3990   23.5860 C   0  0  0  0  0  0  0  0  0  0  0  0
   10.8620    4.1690   23.9380 C   0  0  0  0  0  0  0  0  0  0  0  0
   10.0520    0.6760   23.0480 C   0  0  0  0  0  0  0  0  0  0  0  0
  1  2  2  0
  2  3  1  0
  2 10  1  0
  3  4  1  0
  4  5  2  0
  4  9  1  0
  5  6  1  0
  6  7  2  0
  7  8  1  0
  8  9  2  0
 10 11  1  0
 11 22  1  0
 11 12  2  0
 12 13  1  0
 13 14  2  0
 14 15  1  0
 15 16  1  0
 15 22  2  0
 16 17  1  0
 17 18  1  0
 17 21  1  0
 18 19  2  0
 19 20  1  0
 20 21  2  0
M  END
