WPC1397_minimised.pdb
     RDKit          3D

 24 26  0  0  0  0  0  0  0  0999 V2000
    8.7740    0.1020   20.1140 O   0  0  0  0  0  0  0  0  0  0  0  0
    8.0670   -0.4020   20.9640 C   0  0  0  0  0  0  0  0  0  0  0  0
    6.7040   -0.4030   20.8500 N   0  0  0  0  0  0  0  0  0  0  0  0
    6.0090    0.2440   19.7970 C   0  0  0  0  0  0  0  0  0  0  0  0
    5.0790    1.2500   20.0890 C   0  0  0  0  0  0  0  0  0  0  0  0
    4.5340    1.9670   19.0140 C   0  0  0  0  0  0  0  0  0  0  0  0
    4.9310    1.6650   17.7020 C   0  0  0  0  0  0  0  0  0  0  0  0
    5.7980    0.6690   17.4090 N   0  0  0  0  0  0  0  0  0  0  0  0
    6.3370   -0.0050   18.4450 C   0  0  0  0  0  0  0  0  0  0  0  0
    8.5480   -0.9620   22.1190 N   0  0  0  0  0  0  0  0  0  0  0  0
    9.8880   -0.8010   22.5190 C   0  0  0  0  0  0  0  0  0  0  0  0
   10.9200   -1.4070   21.7890 C   0  0  0  0  0  0  0  0  0  0  0  0
   12.2480   -0.9750   21.9430 C   0  0  0  0  0  0  0  0  0  0  0  0
   12.5310    0.0950   22.8070 C   0  0  0  0  0  0  0  0  0  0  0  0
   11.4960    0.6720   23.5590 C   0  0  0  0  0  0  0  0  0  0  0  0
   11.7770    2.1460   24.4950 S   0  0  0  0  0  0  0  0  0  0  0  0
   11.7660    3.4860   23.2330 C   0  0  0  0  0  0  0  0  0  0  0  0
   10.3520    3.9160   22.8870 C   0  0  0  0  0  0  0  0  0  0  0  0
    9.9330    5.2340   23.1320 C   0  0  0  0  0  0  0  0  0  0  0  0
    8.6620    5.6530   22.7100 C   0  0  0  0  0  0  0  0  0  0  0  0
    7.7800    4.7420   22.1030 C   0  0  0  0  0  0  0  0  0  0  0  0
    8.1800    3.4170   21.8970 C   0  0  0  0  0  0  0  0  0  0  0  0
    9.4800    3.0270   22.2340 C   0  0  0  0  0  0  0  0  0  0  0  0
   10.1890    0.1830   23.4650 C   0  0  0  0  0  0  0  0  0  0  0  0
  1  2  2  0
  2  3  1  0
  2 10  1  0
  3  4  1  0
  4  5  2  0
  4  9  1  0
  5  6  1  0
  6  7  2  0
  7  8  1  0
  8  9  2  0
 10 11  1  0
 11 24  1  0
 11 12  2  0
 12 13  1  0
 13 14  2  0
 14 15  1  0
 15 16  1  0
 15 24  2  0
 16 17  1  0
 17 18  1  0
 18 19  2  0
 18 23  1  0
 19 20  1  0
 20 21  2  0
 21 22  1  0
 22 23  2  0
M  END
