WPC1283_minimised.pdb
     RDKit          3D

 22 23  0  0  1  0  0  0  0  0999 V2000
    9.4370    0.6610   20.7030 O   0  0  0  0  0  0  0  0  0  0  0  0
    8.8300   -0.2320   21.3870 C   0  0  0  0  0  0  0  0  0  0  0  0
    7.5660   -0.5230   21.0560 N   0  0  0  0  0  0  0  0  0  0  0  0
    6.8010    0.0430   20.0010 C   0  0  0  0  0  0  0  0  0  0  0  0
    5.6260    0.7490   20.2840 C   0  0  0  0  0  0  0  0  0  0  0  0
    4.9730    1.3860   19.2150 C   0  0  0  0  0  0  0  0  0  0  0  0
    5.4890    1.2580   17.9170 C   0  0  0  0  0  0  0  0  0  0  0  0
    6.5950    0.5510   17.6270 N   0  0  0  0  0  0  0  0  0  0  0  0
    7.2790    0.0040   18.6570 C   0  0  0  0  0  0  0  0  0  0  0  0
    9.4350   -0.8700   22.4170 N   0  0  0  0  0  0  0  0  0  0  0  0
   10.7580   -0.5710   22.7810 C   0  0  0  0  0  0  0  0  0  0  0  0
   11.7990   -1.1730   22.0450 C   0  0  0  0  0  0  0  0  0  0  0  0
   13.1320   -0.7310   22.3330 C   0  0  0  0  0  0  0  0  0  0  0  0
   13.3120    0.4500   23.0760 C   0  0  0  0  0  0  0  0  0  0  0  0
   12.2100    1.2770   23.5120 C   0  0  1  0  0  0  0  0  0  0  0  0
   11.9730    2.7380   22.3850 S   0  0  0  0  0  0  0  0  0  0  0  0
   12.0700    4.2560   23.3610 C   0  0  0  0  0  0  0  0  0  0  0  0
   10.4560    5.1440   23.1890 P   0  0  0  0  0  0  0  0  0  0  0  0
   10.1260    6.1130   24.5190 O   0  0  0  0  0  0  0  0  0  0  0  0
    9.2730    4.1170   22.8590 O   0  0  0  0  0  0  0  0  0  0  0  0
   10.3270    4.9030   24.6730 O   0  0  0  0  0  0  0  0  0  0  0  0
   10.9870    0.5750   23.6280 C   0  0  0  0  0  0  0  0  0  0  0  0
  1  2  2  0
  2 10  1  0
  2  3  1  0
  3  4  1  0
  4  5  2  0
  4  9  1  0
  5  6  1  0
  6  7  2  0
  7  8  1  0
  8  9  2  0
 10 11  1  0
 11 12  2  0
 11 22  1  0
 12 13  1  0
 13 14  2  0
 14 15  1  0
 15 16  1  6
 15 22  1  0
 16 17  1  0
 17 18  1  0
 18 19  2  0
 18 20  1  0
 18 21  1  0
M  END
