WPC1051_minimised.pdb
     RDKit          3D

 23 24  0  0  0  0  0  0  0  0999 V2000
   12.1970    7.4470   25.7970 N   0  0  0  0  0  0  0  0  0  0  0  0
   13.0120    6.7530   24.7940 C   0  0  0  0  0  0  0  0  0  0  0  0
   12.2610    5.7330   23.9050 C   0  0  0  0  0  0  0  0  0  0  0  0
   13.0870    5.3950   22.7210 N   0  0  0  0  0  0  0  0  0  0  0  0
   12.9480    4.0230   22.1950 C   0  0  0  0  0  0  0  0  0  0  0  0
   13.7310    3.0850   23.1280 C   0  0  0  0  0  0  0  0  0  0  0  0
   13.9240    1.3250   22.6180 S   0  0  0  0  0  0  0  0  0  0  0  0
   12.2780    0.6510   22.6500 C   0  0  0  0  0  0  0  0  0  0  0  0
   12.0010   -0.4420   21.8160 C   0  0  0  0  0  0  0  0  0  0  0  0
   10.6850   -0.9090   21.6970 C   0  0  0  0  0  0  0  0  0  0  0  0
    9.6460   -0.2700   22.3870 C   0  0  0  0  0  0  0  0  0  0  0  0
    8.3090   -0.5110   22.0200 N   0  0  0  0  0  0  0  0  0  0  0  0
    7.8440   -0.2410   20.7600 C   0  0  0  0  0  0  0  0  0  0  0  0
    8.5630   -0.0210   19.8040 O   0  0  0  0  0  0  0  0  0  0  0  0
    6.4810   -0.1710   20.6820 N   0  0  0  0  0  0  0  0  0  0  0  0
    5.7850    0.4080   19.5940 C   0  0  0  0  0  0  0  0  0  0  0  0
    4.8440    1.4120   19.8490 C   0  0  0  0  0  0  0  0  0  0  0  0
    4.2890    2.0790   18.7500 C   0  0  0  0  0  0  0  0  0  0  0  0
    4.7030    1.7420   17.4530 C   0  0  0  0  0  0  0  0  0  0  0  0
    5.5740    0.7400   17.1960 N   0  0  0  0  0  0  0  0  0  0  0  0
    6.1110    0.1020   18.2540 C   0  0  0  0  0  0  0  0  0  0  0  0
    9.9340    0.7540   23.2980 C   0  0  0  0  0  0  0  0  0  0  0  0
   11.2530    1.2060   23.4410 C   0  0  0  0  0  0  0  0  0  0  0  0
  1  2  1  0
  2  3  1  0
  3  4  1  0
  4  5  1  0
  5  6  1  0
  6  7  1  0
  7  8  1  0
  8 23  2  0
  8  9  1  0
  9 10  2  0
 10 11  1  0
 11 12  1  0
 11 22  2  0
 12 13  1  0
 13 14  2  0
 13 15  1  0
 15 16  1  0
 16 17  2  0
 16 21  1  0
 17 18  1  0
 18 19  2  0
 19 20  1  0
 20 21  2  0
 22 23  1  0
M  END
