WPC1136_minimised.pdb
     RDKit          3D

 23 24  0  0  0  0  0  0  0  0999 V2000
   11.6920    6.5580   24.7940 O   0  0  0  0  0  0  0  0  0  0  0  0
   12.0320    5.7170   23.9900 C   0  0  0  0  0  0  0  0  0  0  0  0
   13.2470    5.1490   24.0190 O   0  0  0  0  0  0  0  0  0  0  0  0
   11.0980    5.1090   22.9570 C   0  0  0  0  0  0  0  0  0  0  0  0
   10.0710    4.1140   23.5470 C   0  0  0  0  0  0  0  0  0  0  0  0
   10.7060    3.0760   24.4980 C   0  0  0  0  0  0  0  0  0  0  0  0
   12.1210    2.1850   23.7170 S   0  0  0  0  0  0  0  0  0  0  0  0
   11.4660    0.7300   22.9400 C   0  0  0  0  0  0  0  0  0  0  0  0
   12.3660   -0.2630   22.5300 C   0  0  0  0  0  0  0  0  0  0  0  0
   11.8900   -1.4540   21.9630 C   0  0  0  0  0  0  0  0  0  0  0  0
   10.5110   -1.6340   21.7690 C   0  0  0  0  0  0  0  0  0  0  0  0
    9.6180   -0.6210   22.1390 C   0  0  0  0  0  0  0  0  0  0  0  0
    8.2540   -0.7110   21.8170 N   0  0  0  0  0  0  0  0  0  0  0  0
    7.7530   -0.2590   20.6320 C   0  0  0  0  0  0  0  0  0  0  0  0
    8.4480    0.0850   19.6970 O   0  0  0  0  0  0  0  0  0  0  0  0
    6.3900   -0.1710   20.5970 N   0  0  0  0  0  0  0  0  0  0  0  0
    5.6790    0.4560   19.5470 C   0  0  0  0  0  0  0  0  0  0  0  0
    4.7630    1.4730   19.8420 C   0  0  0  0  0  0  0  0  0  0  0  0
    4.2070    2.1770   18.7660 C   0  0  0  0  0  0  0  0  0  0  0  0
    4.5930    1.8610   17.4540 C   0  0  0  0  0  0  0  0  0  0  0  0
    5.4450    0.8520   17.1630 N   0  0  0  0  0  0  0  0  0  0  0  0
    5.9800    0.1770   18.1970 C   0  0  0  0  0  0  0  0  0  0  0  0
   10.0910    0.5540   22.7290 C   0  0  0  0  0  0  0  0  0  0  0  0
  1  2  2  0
  2  3  1  0
  2  4  1  0
  4  5  1  0
  5  6  1  0
  6  7  1  0
  7  8  1  0
  8 23  2  0
  8  9  1  0
  9 10  2  0
 10 11  1  0
 11 12  2  0
 12 13  1  0
 12 23  1  0
 13 14  1  0
 14 15  2  0
 14 16  1  0
 16 17  1  0
 17 18  2  0
 17 22  1  0
 18 19  1  0
 19 20  2  0
 20 21  1  0
 21 22  2  0
M  END
