WPC1613_minimised.pdb
     RDKit          3D

 22 23  0  0  0  0  0  0  0  0999 V2000
   14.3690    5.8000   21.5010 C   0  0  0  0  0  0  0  0  0  0  0  0
   13.2220    5.2080   21.8300 C   0  0  0  0  0  0  0  0  0  0  0  0
   12.5570    5.3020   23.1740 C   0  0  0  0  0  0  0  0  0  0  0  0
   11.1030    5.2360   22.9850 N   0  0  0  0  0  0  0  0  0  0  0  0
   10.2900    4.8050   24.1330 C   0  0  0  0  0  0  0  0  0  0  0  0
   10.7220    3.4520   24.7480 C   0  0  0  0  0  0  0  0  0  0  0  0
   10.7300    2.2590   23.8060 C   0  0  0  0  0  0  0  0  0  0  0  0
   11.9390    1.6800   23.3750 C   0  0  0  0  0  0  0  0  0  0  0  0
   11.9280    0.5440   22.5480 C   0  0  0  0  0  0  0  0  0  0  0  0
   10.7050   -0.0120   22.1390 C   0  0  0  0  0  0  0  0  0  0  0  0
    9.5000    0.5610   22.5750 C   0  0  0  0  0  0  0  0  0  0  0  0
    8.2550    0.0760   22.1330 N   0  0  0  0  0  0  0  0  0  0  0  0
    7.8550    0.1020   20.8300 C   0  0  0  0  0  0  0  0  0  0  0  0
    8.6090    0.2380   19.8870 O   0  0  0  0  0  0  0  0  0  0  0  0
    6.4960    0.0530   20.6940 N   0  0  0  0  0  0  0  0  0  0  0  0
    5.8090    0.5490   19.5640 C   0  0  0  0  0  0  0  0  0  0  0  0
    4.8340    1.5350   19.7590 C   0  0  0  0  0  0  0  0  0  0  0  0
    4.2890    2.1450   18.6240 C   0  0  0  0  0  0  0  0  0  0  0  0
    4.7470    1.7740   17.3530 C   0  0  0  0  0  0  0  0  0  0  0  0
    5.6490    0.7870   17.1520 N   0  0  0  0  0  0  0  0  0  0  0  0
    6.1770    0.2010   18.2470 C   0  0  0  0  0  0  0  0  0  0  0  0
    9.5140    1.6850   23.4090 C   0  0  0  0  0  0  0  0  0  0  0  0
  1  2  2  0
  2  3  1  0
  3  4  1  0
  4  5  1  0
  5  6  1  0
  6  7  1  0
  7 22  2  0
  7  8  1  0
  8  9  2  0
  9 10  1  0
 10 11  2  0
 11 12  1  0
 11 22  1  0
 12 13  1  0
 13 14  2  0
 13 15  1  0
 15 16  1  0
 16 17  2  0
 16 21  1  0
 17 18  1  0
 18 19  2  0
 19 20  1  0
 20 21  2  0
M  END
