WPC1768_minimised.pdb
     RDKit          3D

 24 25  0  0  0  0  0  0  0  0999 V2000
    7.4140    3.2640   22.5210 N   0  0  0  0  0  0  0  0  0  0  0  0
    7.9050    4.3990   22.2750 C   0  0  0  0  0  0  0  0  0  0  0  0
    7.4820    5.1760   21.2860 N   0  0  0  0  0  0  0  0  0  0  0  0
    8.7400    5.1620   23.0420 N   0  0  0  0  0  0  0  0  0  0  0  0
    9.8200    4.7430   23.7460 C   0  0  0  0  0  0  0  0  0  0  0  0
   10.4930    5.5140   24.3990 O   0  0  0  0  0  0  0  0  0  0  0  0
   10.0580    3.4100   23.6470 N   0  0  0  0  0  0  0  0  0  0  0  0
   11.1450    2.6530   24.2500 C   0  0  0  0  0  0  0  0  0  0  0  0
   11.2620    1.3220   23.5320 C   0  0  0  0  0  0  0  0  0  0  0  0
   12.4920    0.8500   23.0380 C   0  0  0  0  0  0  0  0  0  0  0  0
   12.5280   -0.2980   22.2260 C   0  0  0  0  0  0  0  0  0  0  0  0
   11.3330   -0.9590   21.8850 C   0  0  0  0  0  0  0  0  0  0  0  0
   10.1110   -0.4930   22.3900 C   0  0  0  0  0  0  0  0  0  0  0  0
    8.8730   -0.9710   21.9170 N   0  0  0  0  0  0  0  0  0  0  0  0
    8.2930   -0.4580   20.7880 C   0  0  0  0  0  0  0  0  0  0  0  0
    8.9090    0.1330   19.9250 O   0  0  0  0  0  0  0  0  0  0  0  0
    6.9320   -0.5940   20.7250 N   0  0  0  0  0  0  0  0  0  0  0  0
    6.1480    0.0550   19.7390 C   0  0  0  0  0  0  0  0  0  0  0  0
    5.2340    1.0480   20.1150 C   0  0  0  0  0  0  0  0  0  0  0  0
    4.6180    1.7880   19.0940 C   0  0  0  0  0  0  0  0  0  0  0  0
    4.9390    1.5240   17.7530 C   0  0  0  0  0  0  0  0  0  0  0  0
    5.7930    0.5450   17.3840 N   0  0  0  0  0  0  0  0  0  0  0  0
    6.3960   -0.1560   18.3670 C   0  0  0  0  0  0  0  0  0  0  0  0
   10.0840    0.6140   23.2380 C   0  0  0  0  0  0  0  0  0  0  0  0
  1  2  2  0
  2  3  1  0
  2  4  1  0
  4  5  1  0
  5  6  2  0
  5  7  1  0
  7  8  1  0
  8  9  1  0
  9 24  2  0
  9 10  1  0
 10 11  2  0
 11 12  1  0
 12 13  2  0
 13 14  1  0
 13 24  1  0
 14 15  1  0
 15 16  2  0
 15 17  1  0
 17 18  1  0
 18 19  2  0
 18 23  1  0
 19 20  1  0
 20 21  2  0
 21 22  1  0
 22 23  2  0
M  END
