WPC1892_minimised.pdb
     RDKit          3D

 24 25  0  0  1  0  0  0  0  0999 V2000
    8.6120    5.3940   22.0230 C   0  0  0  0  0  0  0  0  0  0  0  0
    9.7970    5.8510   22.8490 C   0  0  0  0  0  0  0  0  0  0  0  0
    9.7250    6.6820   23.7260 O   0  0  0  0  0  0  0  0  0  0  0  0
   10.9670    5.1950   22.6120 N   0  0  0  0  0  0  0  0  0  0  0  0
   11.9060    4.8720   23.6810 C   0  0  2  0  0  0  0  0  0  0  0  0
   12.9500    5.9740   23.8860 C   0  0  0  0  0  0  0  0  0  0  0  0
   12.5690    3.5220   23.3680 C   0  0  0  0  0  0  0  0  0  0  0  0
   11.7950    2.2360   24.4180 S   0  0  0  0  0  0  0  0  0  0  0  0
   11.8880    0.8240   23.3700 C   0  0  0  0  0  0  0  0  0  0  0  0
   13.1110    0.3180   22.9070 C   0  0  0  0  0  0  0  0  0  0  0  0
   13.1140   -0.7510   21.9960 C   0  0  0  0  0  0  0  0  0  0  0  0
   11.8950   -1.2830   21.5420 C   0  0  0  0  0  0  0  0  0  0  0  0
   10.6790   -0.7590   22.0020 C   0  0  0  0  0  0  0  0  0  0  0  0
    9.4450   -1.1520   21.4470 N   0  0  0  0  0  0  0  0  0  0  0  0
    8.6340   -0.2830   20.7670 C   0  0  0  0  0  0  0  0  0  0  0  0
    8.9550    0.8600   20.5150 O   0  0  0  0  0  0  0  0  0  0  0  0
    7.4300   -0.7970   20.3730 N   0  0  0  0  0  0  0  0  0  0  0  0
    6.5180   -0.0940   19.5470 C   0  0  0  0  0  0  0  0  0  0  0  0
    5.8030    1.0010   20.0550 C   0  0  0  0  0  0  0  0  0  0  0  0
    5.0080    1.7380   19.1650 C   0  0  0  0  0  0  0  0  0  0  0  0
    4.9800    1.3850   17.8070 C   0  0  0  0  0  0  0  0  0  0  0  0
    5.6510    0.3180   17.3190 N   0  0  0  0  0  0  0  0  0  0  0  0
    6.4060   -0.3950   18.1770 C   0  0  0  0  0  0  0  0  0  0  0  0
   10.6820    0.2820   22.9310 C   0  0  0  0  0  0  0  0  0  0  0  0
  1  2  1  0
  2  3  2  0
  2  4  1  0
  4  5  1  0
  5  6  1  6
  5  7  1  0
  7  8  1  0
  8  9  1  0
  9 24  2  0
  9 10  1  0
 10 11  2  0
 11 12  1  0
 12 13  2  0
 13 14  1  0
 13 24  1  0
 14 15  1  0
 15 16  2  0
 15 17  1  0
 17 18  1  0
 18 19  2  0
 18 23  1  0
 19 20  1  0
 20 21  2  0
 21 22  1  0
 22 23  2  0
M  END
