WPC1912_minimised.pdb
     RDKit          3D

 24 26  0  0  1  0  0  0  0  0999 V2000
   13.9130    4.5140   23.6870 N   0  0  0  0  0  0  0  0  0  0  0  0
   12.6000    4.5370   23.3170 C   0  0  0  0  0  0  0  0  0  0  0  0
   12.2350    5.1380   22.2590 N   0  0  0  0  0  0  0  0  0  0  0  0
   10.8910    5.3590   22.3690 N   0  0  0  0  0  0  0  0  0  0  0  0
   10.3770    4.9570   23.5640 C   0  0  0  0  0  0  0  0  0  0  0  0
    9.2160    5.0400   23.9110 O   0  0  0  0  0  0  0  0  0  0  0  0
   11.5230    4.3810   24.3530 C   0  0  1  0  0  0  0  0  0  0  0  0
   11.2160    2.9330   24.8070 C   0  0  0  0  0  0  0  0  0  0  0  0
   11.0060    1.9090   23.7070 C   0  0  0  0  0  0  0  0  0  0  0  0
   12.0960    1.1970   23.1740 C   0  0  0  0  0  0  0  0  0  0  0  0
   11.8830    0.1750   22.2350 C   0  0  0  0  0  0  0  0  0  0  0  0
   10.5750   -0.1430   21.8350 C   0  0  0  0  0  0  0  0  0  0  0  0
    9.4860    0.5660   22.3690 C   0  0  0  0  0  0  0  0  0  0  0  0
    8.1630    0.2850   21.9770 N   0  0  0  0  0  0  0  0  0  0  0  0
    7.7090    0.2990   20.6910 C   0  0  0  0  0  0  0  0  0  0  0  0
    8.4300    0.3380   19.7150 O   0  0  0  0  0  0  0  0  0  0  0  0
    6.3460    0.3300   20.6070 N   0  0  0  0  0  0  0  0  0  0  0  0
    5.6300    0.7750   19.4730 C   0  0  0  0  0  0  0  0  0  0  0  0
    4.6470    1.7560   19.6510 C   0  0  0  0  0  0  0  0  0  0  0  0
    4.0690    2.3110   18.5050 C   0  0  0  0  0  0  0  0  0  0  0  0
    4.5020    1.8920   17.2400 C   0  0  0  0  0  0  0  0  0  0  0  0
    5.4110    0.9060   17.0570 N   0  0  0  0  0  0  0  0  0  0  0  0
    5.9680    0.3720   18.1630 C   0  0  0  0  0  0  0  0  0  0  0  0
    9.7030    1.5890   23.2990 C   0  0  0  0  0  0  0  0  0  0  0  0
  1  2  1  0
  2  3  2  0
  2  7  1  0
  3  4  1  0
  4  5  1  0
  5  6  2  0
  5  7  1  0
  7  8  1  6
  8  9  1  0
  9 24  1  0
  9 10  2  0
 10 11  1  0
 11 12  2  0
 12 13  1  0
 13 14  1  0
 13 24  2  0
 14 15  1  0
 15 16  2  0
 15 17  1  0
 17 18  1  0
 18 19  2  0
 18 23  1  0
 19 20  1  0
 20 21  2  0
 21 22  1  0
 22 23  2  0
M  END
