WPC1836_minimised.pdb
     RDKit          3D

 22 23  0  0  1  0  0  0  0  0999 V2000
    8.4240   -0.2780   19.5760 O   0  0  0  0  0  0  0  0  0  0  0  0
    7.7330   -0.6190   20.5150 C   0  0  0  0  0  0  0  0  0  0  0  0
    6.3670   -0.5490   20.4840 N   0  0  0  0  0  0  0  0  0  0  0  0
    5.6640    0.1610   19.4830 C   0  0  0  0  0  0  0  0  0  0  0  0
    4.7870    1.1910   19.8500 C   0  0  0  0  0  0  0  0  0  0  0  0
    4.2450    1.9810   18.8270 C   0  0  0  0  0  0  0  0  0  0  0  0
    4.6050    1.7320   17.4930 C   0  0  0  0  0  0  0  0  0  0  0  0
    5.4260    0.7210   17.1330 N   0  0  0  0  0  0  0  0  0  0  0  0
    5.9500   -0.0350   18.1160 C   0  0  0  0  0  0  0  0  0  0  0  0
    8.2380   -0.9940   21.7270 N   0  0  0  0  0  0  0  0  0  0  0  0
    9.4890   -0.5200   22.1520 C   0  0  0  0  0  0  0  0  0  0  0  0
   10.6170   -1.3450   22.2340 C   0  0  0  0  0  0  0  0  0  0  0  0
   11.8710   -0.7780   22.5250 C   0  0  0  0  0  0  0  0  0  0  0  0
   11.9870    0.6080   22.7500 C   0  0  0  0  0  0  0  0  0  0  0  0
   10.8420    1.4200   22.6800 C   0  0  0  0  0  0  0  0  0  0  0  0
   10.8640    3.1860   22.8420 S   0  0  0  0  0  0  0  0  0  0  0  0
   12.0620    3.5890   24.1620 C   0  0  0  0  0  0  0  0  0  0  0  0
   13.2910    4.3770   23.6490 C   0  0  1  0  0  0  0  0  0  0  0  0
   14.3270    3.4840   23.2710 O   0  0  0  0  0  0  0  0  0  0  0  0
   12.9730    5.3340   22.4920 C   0  0  0  0  0  0  0  0  0  0  0  0
   14.0400    6.2680   22.2780 O   0  0  0  0  0  0  0  0  0  0  0  0
    9.6050    0.8540   22.3780 C   0  0  0  0  0  0  0  0  0  0  0  0
  1  2  2  0
  2 10  1  0
  2  3  1  0
  3  4  1  0
  4  5  2  0
  4  9  1  0
  5  6  1  0
  6  7  2  0
  7  8  1  0
  8  9  2  0
 10 11  1  0
 11 12  2  0
 11 22  1  0
 12 13  1  0
 13 14  2  0
 14 15  1  0
 15 16  1  0
 15 22  2  0
 16 17  1  0
 17 18  1  0
 18 20  1  0
 18 19  1  6
 20 21  1  0
M  END
