WPC1021_minimised.pdb
     RDKit          3D

 22 23  0  0  0  0  0  0  0  0999 V2000
   13.0970    5.2030   21.7070 N   0  0  0  0  0  0  0  0  0  0  0  0
   13.6450    4.3160   22.5760 C   0  0  0  0  0  0  0  0  0  0  0  0
   14.5990    4.6410   23.2490 O   0  0  0  0  0  0  0  0  0  0  0  0
   12.9930    2.9480   22.6580 C   0  0  0  0  0  0  0  0  0  0  0  0
   14.2460    1.6250   22.3460 S   0  0  0  0  0  0  0  0  0  0  0  0
   13.6070    0.2680   23.3930 C   0  0  0  0  0  0  0  0  0  0  0  0
   12.1470   -0.0190   23.1120 C   0  0  0  0  0  0  0  0  0  0  0  0
   11.7990   -0.8240   22.0180 C   0  0  0  0  0  0  0  0  0  0  0  0
   10.4480   -1.0270   21.7090 C   0  0  0  0  0  0  0  0  0  0  0  0
    9.4460   -0.4050   22.4660 C   0  0  0  0  0  0  0  0  0  0  0  0
    8.1110   -0.4270   22.0160 N   0  0  0  0  0  0  0  0  0  0  0  0
    7.7330   -0.0520   20.7560 C   0  0  0  0  0  0  0  0  0  0  0  0
    8.5120    0.2030   19.8570 O   0  0  0  0  0  0  0  0  0  0  0  0
    6.3790    0.0480   20.6080 N   0  0  0  0  0  0  0  0  0  0  0  0
    5.7350    0.6240   19.4890 C   0  0  0  0  0  0  0  0  0  0  0  0
    4.7530    1.6000   19.6970 C   0  0  0  0  0  0  0  0  0  0  0  0
    4.2470    2.2610   18.5710 C   0  0  0  0  0  0  0  0  0  0  0  0
    4.7470    1.9500   17.3000 C   0  0  0  0  0  0  0  0  0  0  0  0
    5.6520    0.9680   17.0840 N   0  0  0  0  0  0  0  0  0  0  0  0
    6.1400    0.3330   18.1680 C   0  0  0  0  0  0  0  0  0  0  0  0
    9.7860    0.3440   23.5990 C   0  0  0  0  0  0  0  0  0  0  0  0
   11.1360    0.5270   23.9270 C   0  0  0  0  0  0  0  0  0  0  0  0
  1  2  1  0
  2  3  2  0
  2  4  1  0
  4  5  1  0
  5  6  1  0
  6  7  1  0
  7 22  2  0
  7  8  1  0
  8  9  2  0
  9 10  1  0
 10 11  1  0
 10 21  2  0
 11 12  1  0
 12 13  2  0
 12 14  1  0
 14 15  1  0
 15 16  2  0
 15 20  1  0
 16 17  1  0
 17 18  2  0
 18 19  1  0
 19 20  2  0
 21 22  1  0
M  END
