WPC1592_minimised.pdb
     RDKit          3D

 23 24  0  0  0  0  0  0  0  0999 V2000
   12.5500    6.8560   25.8270 N   0  0  0  0  0  0  0  0  0  0  0  0
   12.4000    6.1210   24.7020 C   0  0  0  0  0  0  0  0  0  0  0  0
   13.2190    5.3090   24.3390 O   0  0  0  0  0  0  0  0  0  0  0  0
   11.1690    6.3250   24.1830 O   0  0  0  0  0  0  0  0  0  0  0  0
   10.7330    5.4790   23.0950 C   0  0  0  0  0  0  0  0  0  0  0  0
    9.8440    4.3580   23.6610 C   0  0  0  0  0  0  0  0  0  0  0  0
   10.5960    3.2150   24.3980 C   0  0  0  0  0  0  0  0  0  0  0  0
   10.7490    1.9580   23.5610 C   0  0  0  0  0  0  0  0  0  0  0  0
   12.0060    1.5110   23.1180 C   0  0  0  0  0  0  0  0  0  0  0  0
   12.1040    0.3520   22.3270 C   0  0  0  0  0  0  0  0  0  0  0  0
   10.9420   -0.3520   21.9630 C   0  0  0  0  0  0  0  0  0  0  0  0
    9.6900    0.0940   22.4140 C   0  0  0  0  0  0  0  0  0  0  0  0
    8.4830   -0.4840   21.9780 N   0  0  0  0  0  0  0  0  0  0  0  0
    7.9930   -0.2790   20.7210 C   0  0  0  0  0  0  0  0  0  0  0  0
    8.6830   -0.0150   19.7580 O   0  0  0  0  0  0  0  0  0  0  0  0
    6.6270   -0.2940   20.6620 N   0  0  0  0  0  0  0  0  0  0  0  0
    5.9000    0.3060   19.6060 C   0  0  0  0  0  0  0  0  0  0  0  0
    4.9910    1.3310   19.9020 C   0  0  0  0  0  0  0  0  0  0  0  0
    4.4140    2.0200   18.8280 C   0  0  0  0  0  0  0  0  0  0  0  0
    4.7750    1.6840   17.5140 C   0  0  0  0  0  0  0  0  0  0  0  0
    5.6220    0.6730   17.2220 N   0  0  0  0  0  0  0  0  0  0  0  0
    6.1800    0.0110   18.2560 C   0  0  0  0  0  0  0  0  0  0  0  0
    9.6000    1.2300   23.2230 C   0  0  0  0  0  0  0  0  0  0  0  0
  1  2  1  0
  2  3  2  0
  2  4  1  0
  4  5  1  0
  5  6  1  0
  6  7  1  0
  7  8  1  0
  8 23  2  0
  8  9  1  0
  9 10  2  0
 10 11  1  0
 11 12  2  0
 12 13  1  0
 12 23  1  0
 13 14  1  0
 14 15  2  0
 14 16  1  0
 16 17  1  0
 17 18  2  0
 17 22  1  0
 18 19  1  0
 19 20  2  0
 20 21  1  0
 21 22  2  0
M  END
