WPC1628_minimised.pdb
     RDKit          3D

 19 20  0  0  0  0  0  0  0  0999 V2000
   13.1380    5.1300   23.4510 N   0  0  0  0  0  0  0  0  0  0  0  0
   12.1500    4.5370   23.4890 C   0  0  0  0  0  0  0  0  0  0  0  0
   10.8950    3.7870   23.6080 C   0  0  0  0  0  0  0  0  0  0  0  0
   10.9750    2.3190   23.1890 C   0  0  0  0  0  0  0  0  0  0  0  0
   12.1860    1.6040   23.0560 C   0  0  0  0  0  0  0  0  0  0  0  0
   12.1780    0.2740   22.6000 C   0  0  0  0  0  0  0  0  0  0  0  0
   10.9620   -0.3640   22.3000 C   0  0  0  0  0  0  0  0  0  0  0  0
    9.7570    0.3330   22.4660 C   0  0  0  0  0  0  0  0  0  0  0  0
    8.5200   -0.2310   22.0990 N   0  0  0  0  0  0  0  0  0  0  0  0
    8.0150   -0.1070   20.8370 C   0  0  0  0  0  0  0  0  0  0  0  0
    8.6980    0.1450   19.8660 O   0  0  0  0  0  0  0  0  0  0  0  0
    6.6510   -0.1910   20.7690 N   0  0  0  0  0  0  0  0  0  0  0  0
    5.9050    0.3370   19.6870 C   0  0  0  0  0  0  0  0  0  0  0  0
    4.9510    1.3300   19.9450 C   0  0  0  0  0  0  0  0  0  0  0  0
    4.3630    1.9710   18.8480 C   0  0  0  0  0  0  0  0  0  0  0  0
    4.7520    1.6160   17.5480 C   0  0  0  0  0  0  0  0  0  0  0  0
    5.6380    0.6280   17.2890 N   0  0  0  0  0  0  0  0  0  0  0  0
    6.2100    0.0160   18.3460 C   0  0  0  0  0  0  0  0  0  0  0  0
    9.7680    1.6630   22.9040 C   0  0  0  0  0  0  0  0  0  0  0  0
  1  2  3  0
  2  3  1  0
  3  4  1  0
  4 19  2  0
  4  5  1  0
  5  6  2  0
  6  7  1  0
  7  8  2  0
  8  9  1  0
  8 19  1  0
  9 10  1  0
 10 11  2  0
 10 12  1  0
 12 13  1  0
 13 14  2  0
 13 18  1  0
 14 15  1  0
 15 16  2  0
 16 17  1  0
 17 18  2  0
M  END
