WPC1936_minimised.pdb
     RDKit          3D

 21 22  0  0  0  0  0  0  0  0999 V2000
   12.9050    4.5470   23.0560 C   0  0  0  0  0  0  0  0  0  0  0  0
   12.0420    4.7550   24.2350 N   0  0  0  0  0  0  0  0  0  0  0  0
   11.8920    6.1750   24.5860 C   0  0  0  0  0  0  0  0  0  0  0  0
   10.7420    4.0540   24.1190 C   0  0  0  0  0  0  0  0  0  0  0  0
   10.8260    2.6060   24.6440 C   0  0  0  0  0  0  0  0  0  0  0  0
   10.8230    1.5060   23.6010 C   0  0  0  0  0  0  0  0  0  0  0  0
   12.0210    0.9230   23.1470 C   0  0  0  0  0  0  0  0  0  0  0  0
   11.9850   -0.1570   22.2490 C   0  0  0  0  0  0  0  0  0  0  0  0
   10.7480   -0.6680   21.8190 C   0  0  0  0  0  0  0  0  0  0  0  0
    9.5560   -0.0890   22.2780 C   0  0  0  0  0  0  0  0  0  0  0  0
    8.2990   -0.5260   21.8240 N   0  0  0  0  0  0  0  0  0  0  0  0
    7.8310   -0.2740   20.5690 C   0  0  0  0  0  0  0  0  0  0  0  0
    8.5360    0.0250   19.6270 O   0  0  0  0  0  0  0  0  0  0  0  0
    6.4660   -0.2890   20.4940 N   0  0  0  0  0  0  0  0  0  0  0  0
    5.7460    0.3350   19.4500 C   0  0  0  0  0  0  0  0  0  0  0  0
    4.8140    1.3310   19.7660 C   0  0  0  0  0  0  0  0  0  0  0  0
    4.2500    2.0530   18.7060 C   0  0  0  0  0  0  0  0  0  0  0  0
    4.6490    1.7770   17.3900 C   0  0  0  0  0  0  0  0  0  0  0  0
    5.5200    0.7900   17.0780 N   0  0  0  0  0  0  0  0  0  0  0  0
    6.0600    0.0950   18.0970 C   0  0  0  0  0  0  0  0  0  0  0  0
    9.5960    0.9940   23.1620 C   0  0  0  0  0  0  0  0  0  0  0  0
  1  2  1  0
  2  3  1  0
  2  4  1  0
  4  5  1  0
  5  6  1  0
  6 21  2  0
  6  7  1  0
  7  8  2  0
  8  9  1  0
  9 10  2  0
 10 11  1  0
 10 21  1  0
 11 12  1  0
 12 13  2  0
 12 14  1  0
 14 15  1  0
 15 16  2  0
 15 20  1  0
 16 17  1  0
 17 18  2  0
 18 19  1  0
 19 20  2  0
M  END
