WPC1566_minimised.pdb
     RDKit          3D

 23 24  0  0  0  0  0  0  0  0999 V2000
    9.6360    6.2160   22.7800 N   0  0  0  0  0  0  0  0  0  0  0  0
   10.6190    5.4950   23.3880 C   0  0  0  0  0  0  0  0  0  0  0  0
   11.3690    6.0410   24.7600 S   0  0  0  0  0  0  0  0  0  0  0  0
   10.8360    4.2850   22.7740 N   0  0  0  0  0  0  0  0  0  0  0  0
   11.6020    3.2670   23.2740 N   0  0  0  0  0  0  0  0  0  0  0  0
   11.1630    2.5900   24.2750 C   0  0  0  0  0  0  0  0  0  0  0  0
   11.6810    1.2070   24.5690 C   0  0  0  0  0  0  0  0  0  0  0  0
   11.2250    0.2350   23.5090 C   0  0  0  0  0  0  0  0  0  0  0  0
   12.1540   -0.4070   22.6740 C   0  0  0  0  0  0  0  0  0  0  0  0
   11.7090   -1.3210   21.7100 C   0  0  0  0  0  0  0  0  0  0  0  0
   10.3330   -1.5350   21.5410 C   0  0  0  0  0  0  0  0  0  0  0  0
    9.4060   -0.8170   22.3050 C   0  0  0  0  0  0  0  0  0  0  0  0
    8.0460   -0.8110   21.9440 N   0  0  0  0  0  0  0  0  0  0  0  0
    7.6110   -0.3510   20.7320 C   0  0  0  0  0  0  0  0  0  0  0  0
    8.3500   -0.0760   19.8060 O   0  0  0  0  0  0  0  0  0  0  0  0
    6.2560   -0.1880   20.6550 N   0  0  0  0  0  0  0  0  0  0  0  0
    5.5950    0.4390   19.5730 C   0  0  0  0  0  0  0  0  0  0  0  0
    4.6670    1.4560   19.8320 C   0  0  0  0  0  0  0  0  0  0  0  0
    4.1390    2.1470   18.7340 C   0  0  0  0  0  0  0  0  0  0  0  0
    4.5580    1.8150   17.4370 C   0  0  0  0  0  0  0  0  0  0  0  0
    5.4220    0.8080   17.1770 N   0  0  0  0  0  0  0  0  0  0  0  0
    5.9330    0.1470   18.2330 C   0  0  0  0  0  0  0  0  0  0  0  0
    9.8490    0.0340   23.3180 C   0  0  0  0  0  0  0  0  0  0  0  0
  1  2  1  0
  2  3  2  0
  2  4  1  0
  4  5  1  0
  5  6  1  0
  6  7  1  0
  7  8  1  0
  8 23  2  0
  8  9  1  0
  9 10  2  0
 10 11  1  0
 11 12  2  0
 12 13  1  0
 12 23  1  0
 13 14  1  0
 14 15  2  0
 14 16  1  0
 16 17  1  0
 17 18  2  0
 17 22  1  0
 18 19  1  0
 19 20  2  0
 20 21  1  0
 21 22  2  0
M  END
