WPC1522_minimised.pdb
     RDKit          3D

 23 24  0  0  1  0  0  0  0  0999 V2000
   12.4000    4.8430   22.1890 N   0  0  0  0  0  0  0  0  0  0  0  0
   11.2100    4.2880   22.8900 C   0  0  1  0  0  0  0  0  0  0  0  0
   11.6470    3.3960   24.0750 C   0  0  0  0  0  0  0  0  0  0  0  0
   12.5090    2.1610   23.7050 C   0  0  0  0  0  0  0  0  0  0  0  0
   11.8460    1.0320   22.9330 C   0  0  0  0  0  0  0  0  0  0  0  0
   12.6810    0.0640   22.3470 C   0  0  0  0  0  0  0  0  0  0  0  0
   12.1330   -1.0600   21.7130 C   0  0  0  0  0  0  0  0  0  0  0  0
   10.7410   -1.2150   21.6530 C   0  0  0  0  0  0  0  0  0  0  0  0
    9.9020   -0.2430   22.2110 C   0  0  0  0  0  0  0  0  0  0  0  0
    8.5100   -0.3260   22.0150 N   0  0  0  0  0  0  0  0  0  0  0  0
    7.9120    0.0090   20.8330 C   0  0  0  0  0  0  0  0  0  0  0  0
    8.5390    0.3610   19.8540 O   0  0  0  0  0  0  0  0  0  0  0  0
    6.5440   -0.0460   20.8290 N   0  0  0  0  0  0  0  0  0  0  0  0
    5.7580    0.4480   19.7580 C   0  0  0  0  0  0  0  0  0  0  0  0
    4.7970    1.4340   20.0090 C   0  0  0  0  0  0  0  0  0  0  0  0
    4.1870    2.0420   18.9040 C   0  0  0  0  0  0  0  0  0  0  0  0
    4.5570    1.6560   17.6070 C   0  0  0  0  0  0  0  0  0  0  0  0
    5.4420    0.6650   17.3560 N   0  0  0  0  0  0  0  0  0  0  0  0
    6.0390    0.0920   18.4200 C   0  0  0  0  0  0  0  0  0  0  0  0
   10.4490    0.8700   22.8630 C   0  0  0  0  0  0  0  0  0  0  0  0
   10.2430    5.3890   23.4020 C   0  0  0  0  0  0  0  0  0  0  0  0
   10.3130    5.8720   24.5150 O   0  0  0  0  0  0  0  0  0  0  0  0
    9.3920    5.9010   22.4980 O   0  0  0  0  0  0  0  0  0  0  0  0
  2  1  1  1
  2 21  1  0
  2  3  1  0
  3  4  1  0
  4  5  1  0
  5 20  2  0
  5  6  1  0
  6  7  2  0
  7  8  1  0
  8  9  2  0
  9 10  1  0
  9 20  1  0
 10 11  1  0
 11 12  2  0
 11 13  1  0
 13 14  1  0
 14 15  2  0
 14 19  1  0
 15 16  1  0
 16 17  2  0
 17 18  1  0
 18 19  2  0
 21 22  2  0
 21 23  1  0
M  END
