WPC1691_minimised.pdb
     RDKit          3D

 21 23  0  0  0  0  0  0  0  0999 V2000
    8.3500   -0.0120   19.6120 O   0  0  0  0  0  0  0  0  0  0  0  0
    7.5750   -0.1140   20.5430 C   0  0  0  0  0  0  0  0  0  0  0  0
    6.2290    0.0820   20.4190 N   0  0  0  0  0  0  0  0  0  0  0  0
    5.5990    0.6890   19.3100 C   0  0  0  0  0  0  0  0  0  0  0  0
    4.6430    1.6860   19.5370 C   0  0  0  0  0  0  0  0  0  0  0  0
    4.1400    2.3700   18.4240 C   0  0  0  0  0  0  0  0  0  0  0  0
    4.6260    2.0630   17.1460 C   0  0  0  0  0  0  0  0  0  0  0  0
    5.5140    1.0710   16.9150 N   0  0  0  0  0  0  0  0  0  0  0  0
    5.9900    0.4050   17.9840 C   0  0  0  0  0  0  0  0  0  0  0  0
    7.9480   -0.3660   21.8310 N   0  0  0  0  0  0  0  0  0  0  0  0
    9.2610   -0.1900   22.3050 C   0  0  0  0  0  0  0  0  0  0  0  0
   10.3370   -0.8970   21.7490 C   0  0  0  0  0  0  0  0  0  0  0  0
   11.6510   -0.5990   22.1420 C   0  0  0  0  0  0  0  0  0  0  0  0
   11.8810    0.4020   23.1010 C   0  0  0  0  0  0  0  0  0  0  0  0
   10.7980    1.0910   23.6790 C   0  0  0  0  0  0  0  0  0  0  0  0
   11.0270    2.1350   24.7550 C   0  0  0  0  0  0  0  0  0  0  0  0
   10.3010    3.3980   24.5580 N   0  0  0  0  0  0  0  0  0  0  0  0
   10.6490    4.1320   23.3700 C   0  0  0  0  0  0  0  0  0  0  0  0
   11.7830    5.1190   23.4490 C   0  0  0  0  0  0  0  0  0  0  0  0
   10.3550    5.6070   23.3720 C   0  0  0  0  0  0  0  0  0  0  0  0
    9.4890    0.7870   23.2780 C   0  0  0  0  0  0  0  0  0  0  0  0
  1  2  2  0
  2  3  1  0
  2 10  1  0
  3  4  1  0
  4  5  2  0
  4  9  1  0
  5  6  1  0
  6  7  2  0
  7  8  1  0
  8  9  2  0
 10 11  1  0
 11 21  1  0
 11 12  2  0
 12 13  1  0
 13 14  2  0
 14 15  1  0
 15 16  1  0
 15 21  2  0
 16 17  1  0
 17 18  1  0
 18 19  1  0
 18 20  1  0
 19 20  1  0
M  END
