WPC1269_minimised.pdb
     RDKit          3D

 21 22  0  0  0  0  0  0  0  0999 V2000
   12.9730    4.9780   21.5820 N   0  0  0  0  0  0  0  0  0  0  0  0
   13.3950    5.0620   22.8690 C   0  0  0  0  0  0  0  0  0  0  0  0
   14.5330    4.7650   23.1530 O   0  0  0  0  0  0  0  0  0  0  0  0
   12.3800    5.4640   23.9220 C   0  0  0  0  0  0  0  0  0  0  0  0
   10.6900    4.7520   23.6630 S   0  0  0  0  0  0  0  0  0  0  0  0
   10.7890    2.9730   23.4220 C   0  0  0  0  0  0  0  0  0  0  0  0
   11.9850    2.2280   23.4290 C   0  0  0  0  0  0  0  0  0  0  0  0
   11.9700    0.8440   23.1910 C   0  0  0  0  0  0  0  0  0  0  0  0
   10.7580    0.1900   22.9230 C   0  0  0  0  0  0  0  0  0  0  0  0
    9.5680    0.9280   22.8970 C   0  0  0  0  0  0  0  0  0  0  0  0
    8.3630    0.3320   22.4810 N   0  0  0  0  0  0  0  0  0  0  0  0
    7.9780    0.3170   21.1720 C   0  0  0  0  0  0  0  0  0  0  0  0
    8.7350    0.5440   20.2500 O   0  0  0  0  0  0  0  0  0  0  0  0
    6.6390    0.1140   20.9860 N   0  0  0  0  0  0  0  0  0  0  0  0
    5.9560    0.5350   19.8210 C   0  0  0  0  0  0  0  0  0  0  0  0
    4.9580    1.5080   19.9510 C   0  0  0  0  0  0  0  0  0  0  0  0
    4.4310    2.0630   18.7790 C   0  0  0  0  0  0  0  0  0  0  0  0
    4.9190    1.6420   17.5350 C   0  0  0  0  0  0  0  0  0  0  0  0
    5.8410    0.6630   17.3950 N   0  0  0  0  0  0  0  0  0  0  0  0
    6.3620    0.1400   18.5260 C   0  0  0  0  0  0  0  0  0  0  0  0
    9.5850    2.3080   23.1510 C   0  0  0  0  0  0  0  0  0  0  0  0
  1  2  1  0
  2  3  2  0
  2  4  1  0
  4  5  1  0
  5  6  1  0
  6 21  2  0
  6  7  1  0
  7  8  2  0
  8  9  1  0
  9 10  2  0
 10 11  1  0
 10 21  1  0
 11 12  1  0
 12 13  2  0
 12 14  1  0
 14 15  1  0
 15 16  2  0
 15 20  1  0
 16 17  1  0
 17 18  2  0
 18 19  1  0
 19 20  2  0
M  END
