WPC1031_minimised.pdb
     RDKit          3D

 24 26  0  0  1  0  0  0  0  0999 V2000
   10.9680    4.9550   22.8250 N   0  0  0  0  0  0  0  0  0  0  0  0
   12.3070    4.8890   22.7740 C   0  0  1  0  0  0  0  0  0  0  0  0
   13.0090    4.1330   23.5070 N   0  0  0  0  0  0  0  0  0  0  0  0
   14.3460    4.0540   22.9020 C   0  0  1  0  0  0  0  0  0  0  0  0
   14.5490    2.6890   22.2080 C   0  0  0  0  0  0  0  0  0  0  0  0
   14.3360    1.1820   23.2490 S   0  0  0  0  0  0  0  0  0  0  0  0
   12.6280    0.7580   23.0260 C   0  0  0  0  0  0  0  0  0  0  0  0
   12.2790   -0.1500   22.0170 C   0  0  0  0  0  0  0  0  0  0  0  0
   10.9290   -0.4520   21.7940 C   0  0  0  0  0  0  0  0  0  0  0  0
    9.9260    0.1660   22.5570 C   0  0  0  0  0  0  0  0  0  0  0  0
    8.5690   -0.0010   22.2060 N   0  0  0  0  0  0  0  0  0  0  0  0
    8.0740    0.1940   20.9430 C   0  0  0  0  0  0  0  0  0  0  0  0
    8.7700    0.4110   19.9710 O   0  0  0  0  0  0  0  0  0  0  0  0
    6.7080    0.1650   20.8700 N   0  0  0  0  0  0  0  0  0  0  0  0
    5.9630    0.5960   19.7450 C   0  0  0  0  0  0  0  0  0  0  0  0
    4.9620    1.5560   19.9290 C   0  0  0  0  0  0  0  0  0  0  0  0
    4.3480    2.0840   18.7880 C   0  0  0  0  0  0  0  0  0  0  0  0
    4.7560    1.6510   17.5180 C   0  0  0  0  0  0  0  0  0  0  0  0
    5.6780    0.6790   17.3290 N   0  0  0  0  0  0  0  0  0  0  0  0
    6.2810    0.1830   18.4310 C   0  0  0  0  0  0  0  0  0  0  0  0
   10.2780    1.0290   23.6050 C   0  0  0  0  0  0  0  0  0  0  0  0
   11.6310    1.3210   23.8400 C   0  0  0  0  0  0  0  0  0  0  0  0
   14.3090    5.1960   21.8650 C   0  0  0  0  0  0  0  0  0  0  0  0
   12.9030    5.3820   21.6770 O   0  0  0  0  0  0  0  0  0  0  0  0
  2  1  1  6
  2  3  1  0
  2 24  1  0
  3  4  1  0
  4 23  1  0
  4  5  1  6
  5  6  1  0
  6  7  1  0
  7 22  1  0
  7  8  2  0
  8  9  1  0
  9 10  2  0
 10 11  1  0
 10 21  1  0
 11 12  1  0
 12 13  2  0
 12 14  1  0
 14 15  1  0
 15 16  2  0
 15 20  1  0
 16 17  1  0
 17 18  2  0
 18 19  1  0
 19 20  2  0
 21 22  2  0
 23 24  1  0
M  END
