WPC1590_minimised.pdb
     RDKit          3D

 21 22  0  0  1  0  0  0  0  0999 V2000
    9.4790    1.0240   20.7400 O   0  0  0  0  0  0  0  0  0  0  0  0
    8.4820   -0.6150   21.5670 C   0  0  0  0  0  0  0  0  0  0  0  0
    7.6440   -0.5360   20.9930 N   0  0  0  0  0  0  0  0  0  0  0  0
    6.7590   -0.0130   19.9110 C   0  0  0  0  0  0  0  0  0  0  0  0
    5.5590    0.6080   20.1280 C   0  0  0  0  0  0  0  0  0  0  0  0
    4.9030    1.2470   19.0700 C   0  0  0  0  0  0  0  0  0  0  0  0
    5.5090    1.2450   17.8230 C   0  0  0  0  0  0  0  0  0  0  0  0
    6.6790    0.6260   17.5870 N   0  0  0  0  0  0  0  0  0  0  0  0
    7.3150    0.0500   18.6320 C   0  0  0  0  0  0  0  0  0  0  0  0
    9.4620   -0.8180   22.3200 N   0  0  0  0  0  0  0  0  0  0  0  0
   10.7530   -0.5500   22.8960 C   0  0  1  0  0  0  0  0  0  0  0  0
   11.8040   -0.9300   22.0520 C   0  0  0  0  0  0  0  0  0  0  0  0
   13.1310   -0.3970   22.3870 C   0  0  0  0  0  0  0  0  0  0  0  0
   13.1490    0.5270   23.3590 C   0  0  0  0  0  0  0  0  0  0  0  0
   11.9720    1.2700   23.8000 C   0  0  1  0  0  0  0  0  0  0  0  0
   10.8810    2.5280   23.0370 S   0  0  0  0  0  0  0  0  0  0  0  0
   12.0860    3.7900   24.0690 S   0  0  0  0  0  0  0  0  0  0  0  0
   13.1930    3.7520   23.1460 O   0  0  0  0  0  0  0  0  0  0  0  0
   11.8560    4.8670   24.8120 O   0  0  0  0  0  0  0  0  0  0  0  0
   10.5670    3.6640   23.3840 O   0  0  0  0  0  0  0  0  0  0  0  0
   10.7470    0.1650   23.8870 C   0  0  0  0  0  0  0  0  0  0  0  0
  1  2  2  0
  2 10  1  0
  2  3  1  0
  3  4  1  0
  4  5  2  0
  4  9  1  0
  5  6  1  0
  6  7  2  0
  7  8  1  0
  8  9  2  0
 11 10  1  6
 11 12  1  0
 11 21  1  0
 12 13  2  0
 13 14  1  0
 14 15  1  0
 15 16  1  6
 15 21  1  0
 16 17  1  0
 17 18  2  0
 17 19  2  0
 17 20  1  0
M  END
