WPC1102_minimised.pdb
     RDKit          3D

 24 25  0  0  0  0  0  0  0  0999 V2000
    6.3240    4.1560   21.9440 C   0  0  0  0  0  0  0  0  0  0  0  0
    7.5930    4.5350   22.1260 C   0  0  0  0  0  0  0  0  0  0  0  0
    8.6170    3.6950   22.8440 C   0  0  0  0  0  0  0  0  0  0  0  0
    9.4230    4.5070   23.7210 O   0  0  0  0  0  0  0  0  0  0  0  0
   10.4410    3.6980   24.2910 N   0  0  0  0  0  0  0  0  0  0  0  0
   11.5870    3.4400   23.5570 C   0  0  0  0  0  0  0  0  0  0  0  0
   12.0360    4.2150   22.7360 O   0  0  0  0  0  0  0  0  0  0  0  0
   12.2720    2.1120   23.8780 C   0  0  0  0  0  0  0  0  0  0  0  0
   11.7420    0.9150   23.1050 C   0  0  0  0  0  0  0  0  0  0  0  0
   12.6350    0.0520   22.4450 C   0  0  0  0  0  0  0  0  0  0  0  0
   12.1490   -1.0600   21.7380 C   0  0  0  0  0  0  0  0  0  0  0  0
   10.7670   -1.2900   21.6620 C   0  0  0  0  0  0  0  0  0  0  0  0
    9.8740   -0.4190   22.2960 C   0  0  0  0  0  0  0  0  0  0  0  0
    8.4890   -0.5040   22.0410 N   0  0  0  0  0  0  0  0  0  0  0  0
    7.9460   -0.1580   20.8320 C   0  0  0  0  0  0  0  0  0  0  0  0
    8.6150    0.0930   19.8510 O   0  0  0  0  0  0  0  0  0  0  0  0
    6.5790   -0.0720   20.8110 N   0  0  0  0  0  0  0  0  0  0  0  0
    5.8480    0.4640   19.7200 C   0  0  0  0  0  0  0  0  0  0  0  0
    4.8990    1.4670   19.9560 C   0  0  0  0  0  0  0  0  0  0  0  0
    4.3300    2.1010   18.8440 C   0  0  0  0  0  0  0  0  0  0  0  0
    4.7210    1.7190   17.5520 C   0  0  0  0  0  0  0  0  0  0  0  0
    5.5880    0.7100   17.3140 N   0  0  0  0  0  0  0  0  0  0  0  0
    6.1480    0.1140   18.3850 C   0  0  0  0  0  0  0  0  0  0  0  0
   10.3640    0.6490   23.0540 C   0  0  0  0  0  0  0  0  0  0  0  0
  1  2  2  0
  2  3  1  0
  3  4  1  0
  4  5  1  0
  5  6  1  0
  6  7  2  0
  6  8  1  0
  8  9  1  0
  9 24  2  0
  9 10  1  0
 10 11  2  0
 11 12  1  0
 12 13  2  0
 13 14  1  0
 13 24  1  0
 14 15  1  0
 15 16  2  0
 15 17  1  0
 17 18  1  0
 18 19  2  0
 18 23  1  0
 19 20  1  0
 20 21  2  0
 21 22  1  0
 22 23  2  0
M  END
