WPC1702_minimised.pdb
     RDKit          3D

 24 25  0  0  0  0  0  0  0  0999 V2000
   12.9880    5.0050   23.5420 C   0  0  0  0  0  0  0  0  0  0  0  0
   11.8160    4.3730   22.7690 C   0  0  0  0  0  0  0  0  0  0  0  0
   11.5210    3.0670   23.3030 O   0  0  0  0  0  0  0  0  0  0  0  0
   10.8180    2.9550   24.4620 C   0  0  0  0  0  0  0  0  0  0  0  0
   10.4420    3.8930   25.1440 O   0  0  0  0  0  0  0  0  0  0  0  0
   10.5770    1.5330   24.7980 C   0  0  0  0  0  0  0  0  0  0  0  0
    9.9180    1.1480   25.9150 C   0  0  0  0  0  0  0  0  0  0  0  0
    9.6570   -0.5180   26.3460 S   0  0  0  0  0  0  0  0  0  0  0  0
    9.3490   -1.2680   24.7640 C   0  0  0  0  0  0  0  0  0  0  0  0
   10.1380   -2.3190   24.2720 C   0  0  0  0  0  0  0  0  0  0  0  0
    9.9330   -2.8060   22.9750 C   0  0  0  0  0  0  0  0  0  0  0  0
    8.9320   -2.2430   22.1690 C   0  0  0  0  0  0  0  0  0  0  0  0
    8.1120   -1.2260   22.6810 C   0  0  0  0  0  0  0  0  0  0  0  0
    7.0500   -0.6760   21.9450 N   0  0  0  0  0  0  0  0  0  0  0  0
    7.0570   -0.2460   20.6530 C   0  0  0  0  0  0  0  0  0  0  0  0
    7.9900   -0.3500   19.8810 O   0  0  0  0  0  0  0  0  0  0  0  0
    5.8500    0.3160   20.3490 N   0  0  0  0  0  0  0  0  0  0  0  0
    5.4470    0.9480   19.1530 C   0  0  0  0  0  0  0  0  0  0  0  0
    4.4440    1.9210   19.2330 C   0  0  0  0  0  0  0  0  0  0  0  0
    4.0790    2.5780   18.0540 C   0  0  0  0  0  0  0  0  0  0  0  0
    4.7430    2.2730   16.8610 C   0  0  0  0  0  0  0  0  0  0  0  0
    5.6790    1.3000   16.7620 N   0  0  0  0  0  0  0  0  0  0  0  0
    6.0240    0.6600   17.8980 C   0  0  0  0  0  0  0  0  0  0  0  0
    8.3190   -0.7430   23.9750 C   0  0  0  0  0  0  0  0  0  0  0  0
  1  2  1  0
  2  3  1  0
  3  4  1  0
  4  5  2  0
  4  6  1  0
  6  7  2  0
  7  8  1  0
  8  9  1  0
  9 24  2  0
  9 10  1  0
 10 11  2  0
 11 12  1  0
 12 13  2  0
 13 14  1  0
 13 24  1  0
 14 15  1  0
 15 16  2  0
 15 17  1  0
 17 18  1  0
 18 19  2  0
 18 23  1  0
 19 20  1  0
 20 21  2  0
 21 22  1  0
 22 23  2  0
M  END
