WPC1967_minimised.pdb
     RDKit          3D

 24 25  0  0  0  0  0  0  0  0999 V2000
    7.6100    3.2310   23.3770 O   0  0  0  0  0  0  0  0  0  0  0  0
    8.1690    4.0500   22.6760 C   0  0  0  0  0  0  0  0  0  0  0  0
    7.6040    4.3350   21.5000 O   0  0  0  0  0  0  0  0  0  0  0  0
    9.0350    5.2090   23.2490 C   0  0  0  0  0  0  0  0  0  0  0  0
   10.3030    5.5910   22.5620 N   0  0  0  0  0  0  0  0  0  0  0  0
   11.3790    4.5830   22.5250 C   0  0  0  0  0  0  0  0  0  0  0  0
   12.0300    4.3390   23.8940 C   0  0  0  0  0  0  0  0  0  0  0  0
   11.1250    3.0640   24.8680 S   0  0  0  0  0  0  0  0  0  0  0  0
   11.1690    1.6260   23.8280 C   0  0  0  0  0  0  0  0  0  0  0  0
   12.3560    1.1640   23.2340 C   0  0  0  0  0  0  0  0  0  0  0  0
   12.3060    0.1150   22.2980 C   0  0  0  0  0  0  0  0  0  0  0  0
   11.0650   -0.4420   21.9370 C   0  0  0  0  0  0  0  0  0  0  0  0
    9.8860    0.0210   22.5430 C   0  0  0  0  0  0  0  0  0  0  0  0
    8.6130   -0.3670   22.0820 N   0  0  0  0  0  0  0  0  0  0  0  0
    8.0970    0.0750   20.8960 C   0  0  0  0  0  0  0  0  0  0  0  0
    8.7600    0.5970   20.0250 O   0  0  0  0  0  0  0  0  0  0  0  0
    6.7480   -0.0830   20.7670 N   0  0  0  0  0  0  0  0  0  0  0  0
    6.0030    0.4580   19.6930 C   0  0  0  0  0  0  0  0  0  0  0  0
    5.0850    1.4880   19.9360 C   0  0  0  0  0  0  0  0  0  0  0  0
    4.4780    2.0940   18.8280 C   0  0  0  0  0  0  0  0  0  0  0  0
    4.8140    1.6670   17.5340 C   0  0  0  0  0  0  0  0  0  0  0  0
    5.6840    0.6610   17.2920 N   0  0  0  0  0  0  0  0  0  0  0  0
    6.2770    0.0880   18.3590 C   0  0  0  0  0  0  0  0  0  0  0  0
    9.9500    1.0200   23.5160 C   0  0  0  0  0  0  0  0  0  0  0  0
  1  2  2  0
  2  3  1  0
  2  4  1  0
  4  5  1  0
  5  6  1  0
  6  7  1  0
  7  8  1  0
  8  9  1  0
  9 24  2  0
  9 10  1  0
 10 11  2  0
 11 12  1  0
 12 13  2  0
 13 14  1  0
 13 24  1  0
 14 15  1  0
 15 16  2  0
 15 17  1  0
 17 18  1  0
 18 19  2  0
 18 23  1  0
 19 20  1  0
 20 21  2  0
 21 22  1  0
 22 23  2  0
M  END
