WPC1346_minimised.pdb
     RDKit          3D

 22 23  0  0  0  0  0  0  0  0999 V2000
   10.1630    6.3010   24.0200 O   0  0  0  0  0  0  0  0  0  0  0  0
   10.2580    5.4320   23.1780 C   0  0  0  0  0  0  0  0  0  0  0  0
   11.2930    5.4200   22.3340 O   0  0  0  0  0  0  0  0  0  0  0  0
    9.5790    4.0810   23.3340 C   0  0  0  0  0  0  0  0  0  0  0  0
   10.3310    3.2140   24.3700 C   0  0  0  0  0  0  0  0  0  0  0  0
   11.8890    2.5280   23.6560 S   0  0  0  0  0  0  0  0  0  0  0  0
   11.4590    0.9420   22.9650 C   0  0  0  0  0  0  0  0  0  0  0  0
   12.4730    0.0070   22.7090 C   0  0  0  0  0  0  0  0  0  0  0  0
   12.1490   -1.2700   22.2160 C   0  0  0  0  0  0  0  0  0  0  0  0
   10.8090   -1.6020   21.9590 C   0  0  0  0  0  0  0  0  0  0  0  0
    9.8040   -0.6510   22.1730 C   0  0  0  0  0  0  0  0  0  0  0  0
    8.4690   -0.8990   21.8100 N   0  0  0  0  0  0  0  0  0  0  0  0
    7.9130   -0.3720   20.6800 C   0  0  0  0  0  0  0  0  0  0  0  0
    8.5640    0.1600   19.8030 O   0  0  0  0  0  0  0  0  0  0  0  0
    6.5470   -0.4320   20.6300 N   0  0  0  0  0  0  0  0  0  0  0  0
    5.7950    0.2170   19.6210 C   0  0  0  0  0  0  0  0  0  0  0  0
    4.8770    1.2170   19.9660 C   0  0  0  0  0  0  0  0  0  0  0  0
    4.3030    1.9610   18.9250 C   0  0  0  0  0  0  0  0  0  0  0  0
    4.6660    1.6920   17.5960 C   0  0  0  0  0  0  0  0  0  0  0  0
    5.5220    0.7030   17.2550 N   0  0  0  0  0  0  0  0  0  0  0  0
    6.0810   -0.0050   18.2570 C   0  0  0  0  0  0  0  0  0  0  0  0
   10.1280    0.6120   22.6740 C   0  0  0  0  0  0  0  0  0  0  0  0
  1  2  2  0
  2  3  1  0
  2  4  1  0
  4  5  1  0
  5  6  1  0
  6  7  1  0
  7 22  2  0
  7  8  1  0
  8  9  2  0
  9 10  1  0
 10 11  2  0
 11 12  1  0
 11 22  1  0
 12 13  1  0
 13 14  2  0
 13 15  1  0
 15 16  1  0
 16 17  2  0
 16 21  1  0
 17 18  1  0
 18 19  2  0
 19 20  1  0
 20 21  2  0
M  END
