WPC1660_minimised.pdb
     RDKit          3D

 24 25  0  0  1  0  0  0  0  0999 V2000
   10.0990    6.2740   23.7550 C   0  0  0  0  0  0  0  0  0  0  0  0
   10.0550    5.1930   22.6710 C   0  0  0  0  0  0  0  0  0  0  0  0
   10.9960    4.0080   22.9850 C   0  0  2  0  0  0  0  0  0  0  0  0
   10.4800    3.3230   24.2040 N   0  0  0  0  0  0  0  0  0  0  0  0
   11.1960    2.0970   24.5830 C   0  0  0  0  0  0  0  0  0  0  0  0
   11.0340    0.9810   23.5740 C   0  0  0  0  0  0  0  0  0  0  0  0
   12.1570    0.3840   22.9740 C   0  0  0  0  0  0  0  0  0  0  0  0
   11.9890   -0.6590   22.0490 C   0  0  0  0  0  0  0  0  0  0  0  0
   10.6950   -1.0800   21.7040 C   0  0  0  0  0  0  0  0  0  0  0  0
    9.5770   -0.4620   22.2810 C   0  0  0  0  0  0  0  0  0  0  0  0
    8.2750   -0.7340   21.8290 N   0  0  0  0  0  0  0  0  0  0  0  0
    7.8370   -0.3570   20.5920 C   0  0  0  0  0  0  0  0  0  0  0  0
    8.5720   -0.0450   19.6760 O   0  0  0  0  0  0  0  0  0  0  0  0
    6.4750   -0.2850   20.5020 N   0  0  0  0  0  0  0  0  0  0  0  0
    5.7940    0.3700   19.4510 C   0  0  0  0  0  0  0  0  0  0  0  0
    4.8630    1.3700   19.7560 C   0  0  0  0  0  0  0  0  0  0  0  0
    4.3290    2.1100   18.6930 C   0  0  0  0  0  0  0  0  0  0  0  0
    4.7560    1.8480   17.3830 C   0  0  0  0  0  0  0  0  0  0  0  0
    5.6220    0.8560   17.0780 N   0  0  0  0  0  0  0  0  0  0  0  0
    6.1310    0.1420   18.1000 C   0  0  0  0  0  0  0  0  0  0  0  0
    9.7450    0.5470   23.2310 C   0  0  0  0  0  0  0  0  0  0  0  0
   12.4850    4.4790   22.9990 C   0  0  0  0  0  0  0  0  0  0  0  0
   13.0630    4.6630   21.7780 N   0  0  0  0  0  0  0  0  0  0  0  0
   13.1480    4.7170   23.9910 O   0  0  0  0  0  0  0  0  0  0  0  0
  1  2  1  0
  3  2  1  1
  3 22  1  0
  3  4  1  0
  4  5  1  0
  5  6  1  0
  6 21  2  0
  6  7  1  0
  7  8  2  0
  8  9  1  0
  9 10  2  0
 10 11  1  0
 10 21  1  0
 11 12  1  0
 12 13  2  0
 12 14  1  0
 14 15  1  0
 15 16  2  0
 15 20  1  0
 16 17  1  0
 17 18  2  0
 18 19  1  0
 19 20  2  0
 22 23  1  0
 22 24  2  0
M  END
