WPC1310_minimised.pdb
     RDKit          3D

 23 24  0  0  0  0  0  0  0  0999 V2000
    9.5930    4.9680   23.0900 N   0  0  0  0  0  0  0  0  0  0  0  0
   10.6930    5.4000   23.8900 N   0  0  0  0  0  0  0  0  0  0  0  0
   11.9690    4.8670   23.9400 C   0  0  0  0  0  0  0  0  0  0  0  0
   12.7790    5.3740   24.6860 O   0  0  0  0  0  0  0  0  0  0  0  0
   12.3180    3.6560   23.0810 C   0  0  0  0  0  0  0  0  0  0  0  0
   11.6920    2.3330   23.5790 C   0  0  0  0  0  0  0  0  0  0  0  0
   12.5340    0.8690   22.8140 S   0  0  0  0  0  0  0  0  0  0  0  0
   11.2850   -0.4040   22.7830 C   0  0  0  0  0  0  0  0  0  0  0  0
   11.5850   -1.7250   23.1530 C   0  0  0  0  0  0  0  0  0  0  0  0
   10.5800   -2.7060   23.1720 C   0  0  0  0  0  0  0  0  0  0  0  0
    9.2770   -2.3780   22.7670 C   0  0  0  0  0  0  0  0  0  0  0  0
    8.9940   -1.0760   22.3330 C   0  0  0  0  0  0  0  0  0  0  0  0
    7.7130   -0.7480   21.8540 N   0  0  0  0  0  0  0  0  0  0  0  0
    7.4600   -0.0970   20.6810 C   0  0  0  0  0  0  0  0  0  0  0  0
    8.3130    0.2660   19.8920 O   0  0  0  0  0  0  0  0  0  0  0  0
    6.1260    0.1120   20.4820 N   0  0  0  0  0  0  0  0  0  0  0  0
    5.5580    0.7580   19.3620 C   0  0  0  0  0  0  0  0  0  0  0  0
    4.5640    1.7250   19.5510 C   0  0  0  0  0  0  0  0  0  0  0  0
    4.1020    2.4070   18.4180 C   0  0  0  0  0  0  0  0  0  0  0  0
    4.6540    2.1190   17.1620 C   0  0  0  0  0  0  0  0  0  0  0  0
    5.5820    1.1540   16.9660 N   0  0  0  0  0  0  0  0  0  0  0  0
    6.0270    0.5010   18.0560 C   0  0  0  0  0  0  0  0  0  0  0  0
    9.9930   -0.0940   22.3470 C   0  0  0  0  0  0  0  0  0  0  0  0
  1  2  1  0
  2  3  1  0
  3  4  2  0
  3  5  1  0
  5  6  1  0
  6  7  1  0
  7  8  1  0
  8 23  2  0
  8  9  1  0
  9 10  2  0
 10 11  1  0
 11 12  2  0
 12 13  1  0
 12 23  1  0
 13 14  1  0
 14 15  2  0
 14 16  1  0
 16 17  1  0
 17 18  2  0
 17 22  1  0
 18 19  1  0
 19 20  2  0
 20 21  1  0
 21 22  2  0
M  END
