WPC1186_minimised.pdb
     RDKit          3D

 24 26  0  0  0  0  0  0  0  0999 V2000
    8.5470    0.0190   19.7120 O   0  0  0  0  0  0  0  0  0  0  0  0
    7.8290   -0.3170   20.6320 C   0  0  0  0  0  0  0  0  0  0  0  0
    6.4640   -0.3090   20.5440 N   0  0  0  0  0  0  0  0  0  0  0  0
    5.7580    0.3240   19.4960 C   0  0  0  0  0  0  0  0  0  0  0  0
    4.8200    1.3160   19.8060 C   0  0  0  0  0  0  0  0  0  0  0  0
    4.2620    2.0380   18.7430 C   0  0  0  0  0  0  0  0  0  0  0  0
    4.6710    1.7640   17.4300 C   0  0  0  0  0  0  0  0  0  0  0  0
    5.5460    0.7800   17.1210 N   0  0  0  0  0  0  0  0  0  0  0  0
    6.0830    0.0870   18.1440 C   0  0  0  0  0  0  0  0  0  0  0  0
    8.2840   -0.6560   21.8740 N   0  0  0  0  0  0  0  0  0  0  0  0
    9.5730   -0.3310   22.3330 C   0  0  0  0  0  0  0  0  0  0  0  0
   10.7170   -0.9100   21.7660 C   0  0  0  0  0  0  0  0  0  0  0  0
   11.9930   -0.4700   22.1530 C   0  0  0  0  0  0  0  0  0  0  0  0
   12.1180    0.5460   23.1150 C   0  0  0  0  0  0  0  0  0  0  0  0
   10.9680    1.1150   23.6950 C   0  0  0  0  0  0  0  0  0  0  0  0
   11.0750    2.1680   24.7800 C   0  0  0  0  0  0  0  0  0  0  0  0
   10.5670    3.5750   24.3890 C   0  0  0  0  0  0  0  0  0  0  0  0
   11.6760    4.4730   23.8680 C   0  0  0  0  0  0  0  0  0  0  0  0
   12.3690    4.1360   22.6970 C   0  0  0  0  0  0  0  0  0  0  0  0
   13.3950    4.9840   22.2630 C   0  0  0  0  0  0  0  0  0  0  0  0
   13.6820    6.1350   23.0030 C   0  0  0  0  0  0  0  0  0  0  0  0
   13.0090    6.4790   24.1190 N   0  0  0  0  0  0  0  0  0  0  0  0
   12.0300    5.6590   24.5400 C   0  0  0  0  0  0  0  0  0  0  0  0
    9.7000    0.6670   23.3040 C   0  0  0  0  0  0  0  0  0  0  0  0
  1  2  2  0
  2  3  1  0
  2 10  1  0
  3  4  1  0
  4  5  2  0
  4  9  1  0
  5  6  1  0
  6  7  2  0
  7  8  1  0
  8  9  2  0
 10 11  1  0
 11 24  1  0
 11 12  2  0
 12 13  1  0
 13 14  2  0
 14 15  1  0
 15 16  1  0
 15 24  2  0
 16 17  1  0
 17 18  1  0
 18 19  2  0
 18 23  1  0
 19 20  1  0
 20 21  2  0
 21 22  1  0
 22 23  2  0
M  END
