WPC1952_minimised.pdb
     RDKit          3D

 21 22  0  0  0  0  0  0  0  0999 V2000
   10.3780    4.0320   24.5540 N   0  0  0  0  0  0  0  0  0  0  0  0
   11.2810    3.8050   23.6820 C   0  0  0  0  0  0  0  0  0  0  0  0
   12.1010    2.5270   23.6960 C   0  0  0  0  0  0  0  0  0  0  0  0
   11.5590    1.3250   22.9390 C   0  0  0  0  0  0  0  0  0  0  0  0
   12.4610    0.3370   22.5020 C   0  0  0  0  0  0  0  0  0  0  0  0
   11.9950   -0.8250   21.8680 C   0  0  0  0  0  0  0  0  0  0  0  0
   10.6180   -1.0020   21.6680 C   0  0  0  0  0  0  0  0  0  0  0  0
    9.7170   -0.0170   22.0960 C   0  0  0  0  0  0  0  0  0  0  0  0
    8.3430   -0.1370   21.8190 N   0  0  0  0  0  0  0  0  0  0  0  0
    7.8240   -0.0590   20.5590 C   0  0  0  0  0  0  0  0  0  0  0  0
    8.5010   -0.0950   19.5510 O   0  0  0  0  0  0  0  0  0  0  0  0
    6.4710    0.1340   20.5420 N   0  0  0  0  0  0  0  0  0  0  0  0
    5.7480    0.6580   19.4440 C   0  0  0  0  0  0  0  0  0  0  0  0
    4.8030    1.6610   19.6860 C   0  0  0  0  0  0  0  0  0  0  0  0
    4.2130    2.2810   18.5790 C   0  0  0  0  0  0  0  0  0  0  0  0
    4.6110    1.9160   17.2870 C   0  0  0  0  0  0  0  0  0  0  0  0
    5.4810    0.9100   17.0430 N   0  0  0  0  0  0  0  0  0  0  0  0
    6.0360    0.3000   18.1080 C   0  0  0  0  0  0  0  0  0  0  0  0
   10.1820    1.1390   22.7350 C   0  0  0  0  0  0  0  0  0  0  0  0
   11.6550    4.8190   22.8150 N   0  0  0  0  0  0  0  0  0  0  0  0
   13.0490    5.1600   22.7520 O   0  0  0  0  0  0  0  0  0  0  0  0
  1  2  2  0
  2 20  1  0
  2  3  1  0
  3  4  1  0
  4 19  2  0
  4  5  1  0
  5  6  2  0
  6  7  1  0
  7  8  2  0
  8  9  1  0
  8 19  1  0
  9 10  1  0
 10 11  2  0
 10 12  1  0
 12 13  1  0
 13 14  2  0
 13 18  1  0
 14 15  1  0
 15 16  2  0
 16 17  1  0
 17 18  2  0
 20 21  1  0
M  END
