WPC1578_minimised.pdb
     RDKit          3D

 24 26  0  0  0  0  0  0  0  0999 V2000
    9.0500    0.9330   20.6320 O   0  0  0  0  0  0  0  0  0  0  0  0
    8.7500   -0.2390   20.7490 C   0  0  0  0  0  0  0  0  0  0  0  0
    7.5610   -0.7490   20.3080 N   0  0  0  0  0  0  0  0  0  0  0  0
    6.6300   -0.0470   19.5050 C   0  0  0  0  0  0  0  0  0  0  0  0
    5.9120    1.0390   20.0260 C   0  0  0  0  0  0  0  0  0  0  0  0
    5.0460    1.7270   19.1620 C   0  0  0  0  0  0  0  0  0  0  0  0
    4.9560    1.3380   17.8160 C   0  0  0  0  0  0  0  0  0  0  0  0
    5.6360    0.2820   17.3160 N   0  0  0  0  0  0  0  0  0  0  0  0
    6.4570   -0.3850   18.1510 C   0  0  0  0  0  0  0  0  0  0  0  0
    9.5780   -1.1820   21.2950 N   0  0  0  0  0  0  0  0  0  0  0  0
   10.8500   -0.8940   21.8210 C   0  0  0  0  0  0  0  0  0  0  0  0
   12.0230   -1.2790   21.1540 C   0  0  0  0  0  0  0  0  0  0  0  0
   13.2780   -0.8880   21.6410 C   0  0  0  0  0  0  0  0  0  0  0  0
   13.3550   -0.1060   22.8000 C   0  0  0  0  0  0  0  0  0  0  0  0
   12.1800    0.2530   23.4860 C   0  0  0  0  0  0  0  0  0  0  0  0
   12.2520    1.0650   24.7560 C   0  0  0  0  0  0  0  0  0  0  0  0
   12.1170    2.5120   24.5170 N   0  0  0  0  0  0  0  0  0  0  0  0
   13.0800    3.0780   23.5500 C   0  0  0  0  0  0  0  0  0  0  0  0
   12.9570    4.6030   23.5920 C   0  0  0  0  0  0  0  0  0  0  0  0
   11.5910    5.0000   23.0110 C   0  0  0  0  0  0  0  0  0  0  0  0
   11.8060    5.1740   21.6270 O   0  0  0  0  0  0  0  0  0  0  0  0
   10.4930    3.9210   23.2140 C   0  0  0  0  0  0  0  0  0  0  0  0
   10.7360    3.0500   24.4660 C   0  0  0  0  0  0  0  0  0  0  0  0
   10.9320   -0.1390   22.9910 C   0  0  0  0  0  0  0  0  0  0  0  0
  1  2  2  0
  2  3  1  0
  2 10  1  0
  3  4  1  0
  4  5  2  0
  4  9  1  0
  5  6  1  0
  6  7  2  0
  7  8  1  0
  8  9  2  0
 10 11  1  0
 11 24  1  0
 11 12  2  0
 12 13  1  0
 13 14  2  0
 14 15  1  0
 15 16  1  0
 15 24  2  0
 16 17  1  0
 17 18  1  0
 17 23  1  0
 18 19  1  0
 19 20  1  0
 20 21  1  0
 20 22  1  0
 22 23  1  0
M  END
