WPC1793_minimised.pdb
     RDKit          3D

 23 24  0  0  0  0  0  0  0  0999 V2000
   12.6200    6.5160   24.9820 N   0  0  0  0  0  0  0  0  0  0  0  0
   11.6390    5.8640   24.3020 C   0  0  0  0  0  0  0  0  0  0  0  0
   10.5010    5.9140   24.7070 O   0  0  0  0  0  0  0  0  0  0  0  0
   12.0360    5.0890   23.0570 C   0  0  0  0  0  0  0  0  0  0  0  0
   12.3200    3.5890   23.3100 C   0  0  0  0  0  0  0  0  0  0  0  0
   11.3230    2.9190   24.2860 C   0  0  0  0  0  0  0  0  0  0  0  0
   11.6630    1.4440   24.5800 C   0  0  0  0  0  0  0  0  0  0  0  0
   11.2750    0.5020   23.4650 C   0  0  0  0  0  0  0  0  0  0  0  0
   12.2510   -0.1600   22.7010 C   0  0  0  0  0  0  0  0  0  0  0  0
   11.8630   -1.1120   21.7470 C   0  0  0  0  0  0  0  0  0  0  0  0
   10.4990   -1.3590   21.5310 C   0  0  0  0  0  0  0  0  0  0  0  0
    9.5280   -0.6350   22.2310 C   0  0  0  0  0  0  0  0  0  0  0  0
    8.1710   -0.7120   21.8680 N   0  0  0  0  0  0  0  0  0  0  0  0
    7.7170   -0.3670   20.6260 C   0  0  0  0  0  0  0  0  0  0  0  0
    8.4380   -0.1950   19.6620 O   0  0  0  0  0  0  0  0  0  0  0  0
    6.3640   -0.1770   20.5750 N   0  0  0  0  0  0  0  0  0  0  0  0
    5.6860    0.4510   19.5040 C   0  0  0  0  0  0  0  0  0  0  0  0
    4.7660    1.4690   19.7830 C   0  0  0  0  0  0  0  0  0  0  0  0
    4.2230    2.1700   18.6990 C   0  0  0  0  0  0  0  0  0  0  0  0
    4.6280    1.8520   17.3940 C   0  0  0  0  0  0  0  0  0  0  0  0
    5.4800    0.8400   17.1150 N   0  0  0  0  0  0  0  0  0  0  0  0
    6.0000    0.1650   18.1580 C   0  0  0  0  0  0  0  0  0  0  0  0
    9.9140    0.2700   23.2210 C   0  0  0  0  0  0  0  0  0  0  0  0
  1  2  1  0
  2  3  2  0
  2  4  1  0
  4  5  1  0
  5  6  1  0
  6  7  1  0
  7  8  1  0
  8 23  2  0
  8  9  1  0
  9 10  2  0
 10 11  1  0
 11 12  2  0
 12 13  1  0
 12 23  1  0
 13 14  1  0
 14 15  2  0
 14 16  1  0
 16 17  1  0
 17 18  2  0
 17 22  1  0
 18 19  1  0
 19 20  2  0
 20 21  1  0
 21 22  2  0
M  END
