WPC1515_minimised.pdb
     RDKit          3D

 23 24  0  0  1  0  0  0  0  0999 V2000
    8.6820    5.5600   22.4240 C   0  0  0  0  0  0  0  0  0  0  0  0
    9.8360    5.2470   23.3520 C   0  0  0  0  0  0  0  0  0  0  0  0
   10.0250    5.8600   24.3820 O   0  0  0  0  0  0  0  0  0  0  0  0
   10.6530    4.2270   22.9470 N   0  0  0  0  0  0  0  0  0  0  0  0
   11.8580    3.8090   23.6620 C   0  0  2  0  0  0  0  0  0  0  0  0
   13.0910    4.0490   22.7770 C   0  0  0  0  0  0  0  0  0  0  0  0
   11.7370    2.3650   24.2130 C   0  0  0  0  0  0  0  0  0  0  0  0
   11.3830    1.2590   23.2390 C   0  0  0  0  0  0  0  0  0  0  0  0
   12.3860    0.4210   22.7190 C   0  0  0  0  0  0  0  0  0  0  0  0
   12.0420   -0.6850   21.9240 C   0  0  0  0  0  0  0  0  0  0  0  0
   10.6910   -0.9540   21.6560 C   0  0  0  0  0  0  0  0  0  0  0  0
    9.6930   -0.1150   22.1690 C   0  0  0  0  0  0  0  0  0  0  0  0
    8.3430   -0.3160   21.8320 N   0  0  0  0  0  0  0  0  0  0  0  0
    7.8480   -0.0940   20.5820 C   0  0  0  0  0  0  0  0  0  0  0  0
    8.5460    0.0910   19.6050 O   0  0  0  0  0  0  0  0  0  0  0  0
    6.4850   -0.0150   20.5370 N   0  0  0  0  0  0  0  0  0  0  0  0
    5.7680    0.5580   19.4620 C   0  0  0  0  0  0  0  0  0  0  0  0
    4.8210    1.5530   19.7310 C   0  0  0  0  0  0  0  0  0  0  0  0
    4.2620    2.2300   18.6390 C   0  0  0  0  0  0  0  0  0  0  0  0
    4.6850    1.9170   17.3390 C   0  0  0  0  0  0  0  0  0  0  0  0
    5.5600    0.9220   17.0700 N   0  0  0  0  0  0  0  0  0  0  0  0
    6.0890    0.2640   18.1190 C   0  0  0  0  0  0  0  0  0  0  0  0
   10.0370    0.9850   22.9640 C   0  0  0  0  0  0  0  0  0  0  0  0
  1  2  1  0
  2  3  2  0
  2  4  1  0
  4  5  1  0
  5  6  1  6
  5  7  1  0
  7  8  1  0
  8 23  2  0
  8  9  1  0
  9 10  2  0
 10 11  1  0
 11 12  2  0
 12 13  1  0
 12 23  1  0
 13 14  1  0
 14 15  2  0
 14 16  1  0
 16 17  1  0
 17 18  2  0
 17 22  1  0
 18 19  1  0
 19 20  2  0
 20 21  1  0
 21 22  2  0
M  END
