WPC1549_minimised.pdb
     RDKit          3D

 24 26  0  0  0  0  0  0  0  0999 V2000
    9.3700    3.9240   23.3700 N   0  0  0  0  0  0  0  0  0  0  0  0
   10.5890    4.4610   23.5380 C   0  0  0  0  0  0  0  0  0  0  0  0
   10.7880    5.7640   23.4790 N   0  0  0  0  0  0  0  0  0  0  0  0
   12.1940    5.9400   23.5780 O   0  0  0  0  0  0  0  0  0  0  0  0
   12.7300    4.7010   23.6320 C   0  0  0  0  0  0  0  0  0  0  0  0
   14.0810    4.5820   23.6560 N   0  0  0  0  0  0  0  0  0  0  0  0
   11.7910    3.7350   23.6750 C   0  0  0  0  0  0  0  0  0  0  0  0
   11.9430    2.2820   24.0900 C   0  0  0  0  0  0  0  0  0  0  0  0
   11.4980    1.1740   23.1550 C   0  0  0  0  0  0  0  0  0  0  0  0
   12.4620    0.3860   22.4970 C   0  0  0  0  0  0  0  0  0  0  0  0
   12.0730   -0.7380   21.7520 C   0  0  0  0  0  0  0  0  0  0  0  0
   10.7120   -1.0550   21.6370 C   0  0  0  0  0  0  0  0  0  0  0  0
    9.7490   -0.2600   22.2700 C   0  0  0  0  0  0  0  0  0  0  0  0
    8.3820   -0.4500   21.9970 N   0  0  0  0  0  0  0  0  0  0  0  0
    7.8480   -0.1910   20.7660 C   0  0  0  0  0  0  0  0  0  0  0  0
    8.5230    0.0160   19.7760 O   0  0  0  0  0  0  0  0  0  0  0  0
    6.4830   -0.1210   20.7450 N   0  0  0  0  0  0  0  0  0  0  0  0
    5.7470    0.4290   19.6680 C   0  0  0  0  0  0  0  0  0  0  0  0
    4.8180    1.4440   19.9270 C   0  0  0  0  0  0  0  0  0  0  0  0
    4.2360    2.0880   18.8280 C   0  0  0  0  0  0  0  0  0  0  0  0
    4.6100    1.7170   17.5280 C   0  0  0  0  0  0  0  0  0  0  0  0
    5.4680    0.7050   17.2700 N   0  0  0  0  0  0  0  0  0  0  0  0
    6.0290    0.0860   18.3270 C   0  0  0  0  0  0  0  0  0  0  0  0
   10.1420    0.8200   23.0670 C   0  0  0  0  0  0  0  0  0  0  0  0
  1  2  1  0
  2  3  2  0
  2  7  1  0
  3  4  1  0
  4  5  1  0
  5  6  1  0
  5  7  2  0
  7  8  1  0
  8  9  1  0
  9 24  1  0
  9 10  2  0
 10 11  1  0
 11 12  2  0
 12 13  1  0
 13 14  1  0
 13 24  2  0
 14 15  1  0
 15 16  2  0
 15 17  1  0
 17 18  1  0
 18 19  2  0
 18 23  1  0
 19 20  1  0
 20 21  2  0
 21 22  1  0
 22 23  2  0
M  END
