WPC1606_minimised.pdb
     RDKit          3D

 23 25  0  0  0  0  0  0  0  0999 V2000
    8.5910   -0.3770   19.8610 O   0  0  0  0  0  0  0  0  0  0  0  0
    7.9020   -0.5450   20.8470 C   0  0  0  0  0  0  0  0  0  0  0  0
    6.5440   -0.3750   20.8170 N   0  0  0  0  0  0  0  0  0  0  0  0
    5.8400    0.2150   19.7360 C   0  0  0  0  0  0  0  0  0  0  0  0
    4.9150    1.2320   20.0020 C   0  0  0  0  0  0  0  0  0  0  0  0
    4.3370    1.8920   18.9090 C   0  0  0  0  0  0  0  0  0  0  0  0
    4.7080    1.5310   17.6060 C   0  0  0  0  0  0  0  0  0  0  0  0
    5.5640    0.5220   17.3370 N   0  0  0  0  0  0  0  0  0  0  0  0
    6.1270   -0.1070   18.3890 C   0  0  0  0  0  0  0  0  0  0  0  0
    8.4030   -0.8670   22.0820 N   0  0  0  0  0  0  0  0  0  0  0  0
    9.7710   -0.7510   22.4100 C   0  0  0  0  0  0  0  0  0  0  0  0
   10.7490   -1.3630   21.6170 C   0  0  0  0  0  0  0  0  0  0  0  0
   12.1040   -1.0360   21.7730 C   0  0  0  0  0  0  0  0  0  0  0  0
   12.4800   -0.0970   22.7440 C   0  0  0  0  0  0  0  0  0  0  0  0
   11.5090    0.4630   23.5940 C   0  0  0  0  0  0  0  0  0  0  0  0
   11.9130    1.4250   24.6920 C   0  0  0  0  0  0  0  0  0  0  0  0
   11.7690    2.8680   24.3820 N   0  0  0  0  0  0  0  0  0  0  0  0
   10.3680    3.3340   24.2370 C   0  0  0  0  0  0  0  0  0  0  0  0
    9.8120    3.2550   22.7820 C   0  0  0  0  0  0  0  0  0  0  0  0
   10.8830    3.1760   21.8110 O   0  0  0  0  0  0  0  0  0  0  0  0
   12.0000    4.0240   22.1330 C   0  0  0  0  0  0  0  0  0  0  0  0
   12.7100    3.4070   23.3610 C   0  0  0  0  0  0  0  0  0  0  0  0
   10.1580    0.1070   23.4420 C   0  0  0  0  0  0  0  0  0  0  0  0
  1  2  2  0
  2  3  1  0
  2 10  1  0
  3  4  1  0
  4  5  2  0
  4  9  1  0
  5  6  1  0
  6  7  2  0
  7  8  1  0
  8  9  2  0
 10 11  1  0
 11 23  1  0
 11 12  2  0
 12 13  1  0
 13 14  2  0
 14 15  1  0
 15 16  1  0
 15 23  2  0
 16 17  1  0
 17 18  1  0
 17 22  1  0
 18 19  1  0
 19 20  1  0
 20 21  1  0
 21 22  1  0
M  END
