WPC1632_minimised.pdb
     RDKit          3D

 24 25  0  0  0  0  0  0  0  0999 V2000
   12.9610    8.4240   25.6570 C   0  0  0  0  0  0  0  0  0  0  0  0
   12.7350    6.9160   25.8450 C   0  0  0  0  0  0  0  0  0  0  0  0
   12.5720    6.1120   24.5430 C   0  0  0  0  0  0  0  0  0  0  0  0
   11.0810    5.9130   24.1930 C   0  0  0  0  0  0  0  0  0  0  0  0
   10.8650    4.9960   22.9800 C   0  0  0  0  0  0  0  0  0  0  0  0
   11.4160    3.5670   23.1530 C   0  0  0  0  0  0  0  0  0  0  0  0
   10.9090    2.9530   24.3890 N   0  0  0  0  0  0  0  0  0  0  0  0
   11.4570    1.6180   24.6630 C   0  0  0  0  0  0  0  0  0  0  0  0
   11.0980    0.6080   23.5970 C   0  0  0  0  0  0  0  0  0  0  0  0
   12.1050   -0.0390   22.8590 C   0  0  0  0  0  0  0  0  0  0  0  0
   11.7620   -1.0020   21.8980 C   0  0  0  0  0  0  0  0  0  0  0  0
   10.4100   -1.2760   21.6430 C   0  0  0  0  0  0  0  0  0  0  0  0
    9.4080   -0.5760   22.3250 C   0  0  0  0  0  0  0  0  0  0  0  0
    8.0670   -0.6700   21.9120 N   0  0  0  0  0  0  0  0  0  0  0  0
    7.6490   -0.2690   20.6740 C   0  0  0  0  0  0  0  0  0  0  0  0
    8.3960   -0.0000   19.7530 O   0  0  0  0  0  0  0  0  0  0  0  0
    6.2930   -0.1350   20.5780 N   0  0  0  0  0  0  0  0  0  0  0  0
    5.6390    0.4960   19.4950 C   0  0  0  0  0  0  0  0  0  0  0  0
    4.7140    1.5140   19.7540 C   0  0  0  0  0  0  0  0  0  0  0  0
    4.2020    2.2190   18.6570 C   0  0  0  0  0  0  0  0  0  0  0  0
    4.6370    1.9000   17.3620 C   0  0  0  0  0  0  0  0  0  0  0  0
    5.4990    0.8910   17.1040 N   0  0  0  0  0  0  0  0  0  0  0  0
    5.9920    0.2140   18.1580 C   0  0  0  0  0  0  0  0  0  0  0  0
    9.7490    0.3390   23.3250 C   0  0  0  0  0  0  0  0  0  0  0  0
  1  2  1  0
  2  3  1  0
  3  4  1  0
  4  5  1  0
  5  6  1  0
  6  7  1  0
  7  8  1  0
  8  9  1  0
  9 24  2  0
  9 10  1  0
 10 11  2  0
 11 12  1  0
 12 13  2  0
 13 14  1  0
 13 24  1  0
 14 15  1  0
 15 16  2  0
 15 17  1  0
 17 18  1  0
 18 19  2  0
 18 23  1  0
 19 20  1  0
 20 21  2  0
 21 22  1  0
 22 23  2  0
M  END
