WPC1273_minimised.pdb
     RDKit          3D

 20 21  0  0  0  0  0  0  0  0999 V2000
   14.1050    5.3360   22.3550 C   0  0  0  0  0  0  0  0  0  0  0  0
   13.2490    4.6170   23.2550 O   0  0  0  0  0  0  0  0  0  0  0  0
   11.8830    4.5770   22.8140 C   0  0  0  0  0  0  0  0  0  0  0  0
   11.0730    3.6770   23.7640 C   0  0  0  0  0  0  0  0  0  0  0  0
   11.0630    2.2180   23.3310 C   0  0  0  0  0  0  0  0  0  0  0  0
   12.2550    1.4860   23.1790 C   0  0  0  0  0  0  0  0  0  0  0  0
   12.2210    0.1660   22.6960 C   0  0  0  0  0  0  0  0  0  0  0  0
   10.9910   -0.4400   22.3860 C   0  0  0  0  0  0  0  0  0  0  0  0
    9.8010    0.2820   22.5560 C   0  0  0  0  0  0  0  0  0  0  0  0
    8.5570   -0.2480   22.1610 N   0  0  0  0  0  0  0  0  0  0  0  0
    8.0440   -0.0500   20.9110 C   0  0  0  0  0  0  0  0  0  0  0  0
    8.7130    0.3090   19.9650 O   0  0  0  0  0  0  0  0  0  0  0  0
    6.6880   -0.2000   20.8210 N   0  0  0  0  0  0  0  0  0  0  0  0
    5.9380    0.3160   19.7370 C   0  0  0  0  0  0  0  0  0  0  0  0
    4.9800    1.3070   19.9840 C   0  0  0  0  0  0  0  0  0  0  0  0
    4.3940    1.9390   18.8790 C   0  0  0  0  0  0  0  0  0  0  0  0
    4.7880    1.5730   17.5830 C   0  0  0  0  0  0  0  0  0  0  0  0
    5.6770    0.5860   17.3350 N   0  0  0  0  0  0  0  0  0  0  0  0
    6.2510   -0.0120   18.3990 C   0  0  0  0  0  0  0  0  0  0  0  0
    9.8400    1.6040   23.0190 C   0  0  0  0  0  0  0  0  0  0  0  0
  1  2  1  0
  2  3  1  0
  3  4  1  0
  4  5  1  0
  5 20  2  0
  5  6  1  0
  6  7  2  0
  7  8  1  0
  8  9  2  0
  9 10  1  0
  9 20  1  0
 10 11  1  0
 11 12  2  0
 11 13  1  0
 13 14  1  0
 14 15  2  0
 14 19  1  0
 15 16  1  0
 16 17  2  0
 17 18  1  0
 18 19  2  0
M  END
