WPC1122_minimised.pdb
     RDKit          3D

 22 23  0  0  0  0  0  0  0  0999 V2000
   13.9190    5.8540   21.7970 C   0  0  0  0  0  0  0  0  0  0  0  0
   12.7100    5.0520   21.9930 N   0  0  0  0  0  0  0  0  0  0  0  0
   12.3780    4.5110   23.1940 C   0  0  0  0  0  0  0  0  0  0  0  0
   12.9270    4.7870   24.2430 O   0  0  0  0  0  0  0  0  0  0  0  0
   11.6410    3.4090   22.9390 O   0  0  0  0  0  0  0  0  0  0  0  0
   11.5110    2.4090   23.9550 C   0  0  0  0  0  0  0  0  0  0  0  0
   11.1520    1.1100   23.2660 C   0  0  0  0  0  0  0  0  0  0  0  0
   12.1650    0.2380   22.8240 C   0  0  0  0  0  0  0  0  0  0  0  0
   11.8330   -0.9360   22.1280 C   0  0  0  0  0  0  0  0  0  0  0  0
   10.4870   -1.2270   21.8540 C   0  0  0  0  0  0  0  0  0  0  0  0
    9.4810   -0.3490   22.2810 C   0  0  0  0  0  0  0  0  0  0  0  0
    8.1470   -0.5330   21.8790 N   0  0  0  0  0  0  0  0  0  0  0  0
    7.7170   -0.2390   20.6180 C   0  0  0  0  0  0  0  0  0  0  0  0
    8.4610   -0.0520   19.6760 O   0  0  0  0  0  0  0  0  0  0  0  0
    6.3590   -0.1080   20.5300 N   0  0  0  0  0  0  0  0  0  0  0  0
    5.6890    0.5070   19.4480 C   0  0  0  0  0  0  0  0  0  0  0  0
    4.7430    1.5040   19.7130 C   0  0  0  0  0  0  0  0  0  0  0  0
    4.2130    2.2050   18.6230 C   0  0  0  0  0  0  0  0  0  0  0  0
    4.6600    1.9110   17.3270 C   0  0  0  0  0  0  0  0  0  0  0  0
    5.5380    0.9180   17.0590 N   0  0  0  0  0  0  0  0  0  0  0  0
    6.0430    0.2410   18.1080 C   0  0  0  0  0  0  0  0  0  0  0  0
    9.8100    0.8110   22.9920 C   0  0  0  0  0  0  0  0  0  0  0  0
  1  2  1  0
  2  3  1  0
  3  4  2  0
  3  5  1  0
  5  6  1  0
  6  7  1  0
  7 22  2  0
  7  8  1  0
  8  9  2  0
  9 10  1  0
 10 11  2  0
 11 12  1  0
 11 22  1  0
 12 13  1  0
 13 14  2  0
 13 15  1  0
 15 16  1  0
 16 17  2  0
 16 21  1  0
 17 18  1  0
 18 19  2  0
 19 20  1  0
 20 21  2  0
M  END
