WPC1236_minimised.pdb
     RDKit          3D

 24 25  0  0  0  0  0  0  0  0999 V2000
    8.3780   -0.1460   19.6810 O   0  0  0  0  0  0  0  0  0  0  0  0
    7.6210   -0.3260   20.6160 C   0  0  0  0  0  0  0  0  0  0  0  0
    6.2730   -0.1280   20.5240 N   0  0  0  0  0  0  0  0  0  0  0  0
    5.6300    0.5110   19.4390 C   0  0  0  0  0  0  0  0  0  0  0  0
    4.6990    1.5230   19.6990 C   0  0  0  0  0  0  0  0  0  0  0  0
    4.1870    2.2330   18.6050 C   0  0  0  0  0  0  0  0  0  0  0  0
    4.6360    1.9310   17.3120 C   0  0  0  0  0  0  0  0  0  0  0  0
    5.5020    0.9260   17.0490 N   0  0  0  0  0  0  0  0  0  0  0  0
    5.9880    0.2400   18.1000 C   0  0  0  0  0  0  0  0  0  0  0  0
    8.0260   -0.6850   21.8710 N   0  0  0  0  0  0  0  0  0  0  0  0
    9.3670   -0.6090   22.2900 C   0  0  0  0  0  0  0  0  0  0  0  0
   10.3710   -1.3020   21.6030 C   0  0  0  0  0  0  0  0  0  0  0  0
   11.7220   -1.0530   21.8850 C   0  0  0  0  0  0  0  0  0  0  0  0
   12.0610   -0.1250   22.8810 C   0  0  0  0  0  0  0  0  0  0  0  0
   11.0510    0.5100   23.6250 C   0  0  0  0  0  0  0  0  0  0  0  0
   11.4010    1.4340   24.7690 C   0  0  0  0  0  0  0  0  0  0  0  0
   10.9000    2.8810   24.5810 C   0  0  0  0  0  0  0  0  0  0  0  0
   11.5470    3.5930   23.3740 C   0  0  0  0  0  0  0  0  0  0  0  0
   11.5830    5.1090   23.5710 C   0  0  0  0  0  0  0  0  0  0  0  0
   10.5610    5.7530   23.7680 O   0  0  0  0  0  0  0  0  0  0  0  0
   12.9920    5.7290   23.6220 C   0  0  0  0  0  0  0  0  0  0  0  0
   12.9810    6.9530   24.2030 F   0  0  0  0  0  0  0  0  0  0  0  0
   13.5370    5.8510   22.3890 F   0  0  0  0  0  0  0  0  0  0  0  0
    9.7030    0.2680   23.3230 C   0  0  0  0  0  0  0  0  0  0  0  0
  1  2  2  0
  2 10  1  0
  2  3  1  0
  3  4  1  0
  4  5  2  0
  4  9  1  0
  5  6  1  0
  6  7  2  0
  7  8  1  0
  8  9  2  0
 10 11  1  0
 11 12  2  0
 11 24  1  0
 12 13  1  0
 13 14  2  0
 14 15  1  0
 15 16  1  0
 15 24  2  0
 16 17  1  0
 17 18  1  0
 18 19  1  0
 19 21  1  0
 19 20  2  0
 21 22  1  0
 21 23  1  0
M  END
