WPC1023_minimised.pdb
     RDKit          3D

 23 25  0  0  0  0  0  0  0  0999 V2000
    8.4950    0.1950   19.8250 O   0  0  0  0  0  0  0  0  0  0  0  0
    7.7610   -0.0370   20.7670 C   0  0  0  0  0  0  0  0  0  0  0  0
    8.2040   -0.2880   22.0360 N   0  0  0  0  0  0  0  0  0  0  0  0
    9.5360   -0.0970   22.4530 C   0  0  0  0  0  0  0  0  0  0  0  0
   10.5970   -0.6130   21.6940 C   0  0  0  0  0  0  0  0  0  0  0  0
   11.9190   -0.2630   21.9930 C   0  0  0  0  0  0  0  0  0  0  0  0
   12.1850    0.5860   23.0770 C   0  0  0  0  0  0  0  0  0  0  0  0
   13.6130    0.9640   23.3990 C   0  0  0  0  0  0  0  0  0  0  0  0
   14.0830    2.1920   22.7410 N   0  0  0  0  0  0  0  0  0  0  0  0
   13.4820    3.4120   22.8530 C   0  0  0  0  0  0  0  0  0  0  0  0
   12.1600    3.6830   22.6980 N   0  0  0  0  0  0  0  0  0  0  0  0
   11.9580    4.9860   23.0180 N   0  0  0  0  0  0  0  0  0  0  0  0
   13.1400    5.4490   23.3210 N   0  0  0  0  0  0  0  0  0  0  0  0
   14.1160    4.4920   23.2180 N   0  0  0  0  0  0  0  0  0  0  0  0
   11.1270    1.0330   23.8930 C   0  0  0  0  0  0  0  0  0  0  0  0
    9.8030    0.7040   23.5720 C   0  0  0  0  0  0  0  0  0  0  0  0
    6.4000   -0.0090   20.6570 N   0  0  0  0  0  0  0  0  0  0  0  0
    5.7090    0.5360   19.5490 C   0  0  0  0  0  0  0  0  0  0  0  0
    4.7450    1.5250   19.7740 C   0  0  0  0  0  0  0  0  0  0  0  0
    4.2030    2.1700   18.6560 C   0  0  0  0  0  0  0  0  0  0  0  0
    4.6510    1.8270   17.3730 C   0  0  0  0  0  0  0  0  0  0  0  0
    5.5410    0.8360   17.1430 N   0  0  0  0  0  0  0  0  0  0  0  0
    6.0650    0.2160   18.2200 C   0  0  0  0  0  0  0  0  0  0  0  0
  1  2  2  0
  2  3  1  0
  2 17  1  0
  3  4  1  0
  4  5  2  0
  4 16  1  0
  5  6  1  0
  6  7  2  0
  7  8  1  0
  7 15  1  0
  8  9  1  0
  9 10  1  0
 10 11  1  0
 10 14  2  0
 11 12  1  0
 12 13  2  0
 13 14  1  0
 15 16  2  0
 17 18  1  0
 18 19  2  0
 18 23  1  0
 19 20  1  0
 20 21  2  0
 21 22  1  0
 22 23  2  0
M  END
