WPC1516_minimised.pdb
     RDKit          3D

 23 24  0  0  0  0  0  0  0  0999 V2000
   10.7730    5.3650   23.0600 N   0  0  0  0  0  0  0  0  0  0  0  0
   12.2720    4.8480   23.2050 S   0  0  0  0  0  0  0  0  0  0  0  0
   12.7840    5.3280   21.9550 O   0  0  0  0  0  0  0  0  0  0  0  0
   12.6750    5.3870   24.4780 O   0  0  0  0  0  0  0  0  0  0  0  0
   12.0580    3.0910   23.2810 C   0  0  0  0  0  0  0  0  0  0  0  0
   11.1600    2.6360   24.4530 C   0  0  0  0  0  0  0  0  0  0  0  0
   11.3860    1.1520   24.7930 C   0  0  0  0  0  0  0  0  0  0  0  0
   11.0030    0.2440   23.6510 C   0  0  0  0  0  0  0  0  0  0  0  0
   11.9900   -0.3650   22.8560 C   0  0  0  0  0  0  0  0  0  0  0  0
   11.6180   -1.2400   21.8270 C   0  0  0  0  0  0  0  0  0  0  0  0
   10.2580   -1.4510   21.5580 C   0  0  0  0  0  0  0  0  0  0  0  0
    9.2790   -0.7670   22.2880 C   0  0  0  0  0  0  0  0  0  0  0  0
    7.9440   -0.7620   21.8480 N   0  0  0  0  0  0  0  0  0  0  0  0
    7.5770   -0.2810   20.6230 C   0  0  0  0  0  0  0  0  0  0  0  0
    8.3610    0.0060   19.7380 O   0  0  0  0  0  0  0  0  0  0  0  0
    6.2290   -0.1040   20.5000 N   0  0  0  0  0  0  0  0  0  0  0  0
    5.6070    0.5540   19.4150 C   0  0  0  0  0  0  0  0  0  0  0  0
    4.6620    1.5550   19.6690 C   0  0  0  0  0  0  0  0  0  0  0  0
    4.1730    2.2770   18.5720 C   0  0  0  0  0  0  0  0  0  0  0  0
    4.6560    1.9970   17.2850 C   0  0  0  0  0  0  0  0  0  0  0  0
    5.5350    1.0020   17.0300 N   0  0  0  0  0  0  0  0  0  0  0  0
    6.0020    0.3060   18.0840 C   0  0  0  0  0  0  0  0  0  0  0  0
    9.6470    0.0510   23.3580 C   0  0  0  0  0  0  0  0  0  0  0  0
  1  2  1  0
  2  3  2  0
  2  4  2  0
  2  5  1  0
  5  6  1  0
  6  7  1  0
  7  8  1  0
  8 23  2  0
  8  9  1  0
  9 10  2  0
 10 11  1  0
 11 12  2  0
 12 13  1  0
 12 23  1  0
 13 14  1  0
 14 15  2  0
 14 16  1  0
 16 17  1  0
 17 18  2  0
 17 22  1  0
 18 19  1  0
 19 20  2  0
 20 21  1  0
 21 22  2  0
M  END
