WPC1752_minimised.pdb
     RDKit          3D

 24 25  0  0  0  0  0  0  0  0999 V2000
    8.7710    1.3020   20.5460 O   0  0  0  0  0  0  0  0  0  0  0  0
    8.5690    0.1470   20.8710 C   0  0  0  0  0  0  0  0  0  0  0  0
    7.4690   -0.5340   20.4270 N   0  0  0  0  0  0  0  0  0  0  0  0
    6.5110    0.0570   19.5620 C   0  0  0  0  0  0  0  0  0  0  0  0
    5.7300    1.1300   20.0180 C   0  0  0  0  0  0  0  0  0  0  0  0
    4.9170    1.7950   19.0890 C   0  0  0  0  0  0  0  0  0  0  0  0
    4.9280    1.3910   17.7460 C   0  0  0  0  0  0  0  0  0  0  0  0
    5.6570    0.3400   17.3080 N   0  0  0  0  0  0  0  0  0  0  0  0
    6.4360   -0.3010   18.2030 C   0  0  0  0  0  0  0  0  0  0  0  0
    9.4170   -0.5400   21.6980 N   0  0  0  0  0  0  0  0  0  0  0  0
   10.5030    0.1020   22.3260 C   0  0  0  0  0  0  0  0  0  0  0  0
   11.8300   -0.2430   22.0370 C   0  0  0  0  0  0  0  0  0  0  0  0
   12.8710    0.5750   22.5100 C   0  0  0  0  0  0  0  0  0  0  0  0
   12.5810    1.7520   23.2260 C   0  0  0  0  0  0  0  0  0  0  0  0
   11.2480    2.0930   23.5210 C   0  0  0  0  0  0  0  0  0  0  0  0
   10.8520    3.3250   24.3260 C   0  0  0  0  0  0  0  0  0  0  0  0
   11.4100    4.9480   23.8070 S   0  0  0  0  0  0  0  0  0  0  0  0
   11.0990    5.8710   24.8740 O   0  0  0  0  0  0  0  0  0  0  0  0
   12.7540    4.9100   23.2870 O   0  0  0  0  0  0  0  0  0  0  0  0
   10.4520    5.4600   22.5800 N   0  0  0  0  0  0  0  0  0  0  0  0
    9.0250    5.7130   22.8460 C   0  0  0  0  0  0  0  0  0  0  0  0
    8.0700    4.8840   21.9540 C   0  0  0  0  0  0  0  0  0  0  0  0
    8.1990    3.4900   22.2430 O   0  0  0  0  0  0  0  0  0  0  0  0
   10.2280    1.2300   23.1090 C   0  0  0  0  0  0  0  0  0  0  0  0
  1  2  2  0
  2 10  1  0
  2  3  1  0
  3  4  1  0
  4  5  2  0
  4  9  1  0
  5  6  1  0
  6  7  2  0
  7  8  1  0
  8  9  2  0
 10 11  1  0
 11 12  2  0
 11 24  1  0
 12 13  1  0
 13 14  2  0
 14 15  1  0
 15 16  1  0
 15 24  2  0
 16 17  1  0
 17 20  1  0
 17 18  2  0
 17 19  2  0
 20 21  1  0
 21 22  1  0
 22 23  1  0
M  END
