WPC1426_minimised.pdb
     RDKit          3D

 22 23  0  0  0  0  0  0  0  0999 V2000
   12.3220    6.0910   24.2560 C   0  0  0  0  0  0  0  0  0  0  0  0
   12.9160    4.8890   23.4770 C   0  0  0  0  0  0  0  0  0  0  0  0
   13.4670    5.3200   22.1040 C   0  0  0  0  0  0  0  0  0  0  0  0
   11.8650    3.7550   23.3230 C   0  0  0  0  0  0  0  0  0  0  0  0
   11.6310    3.0160   24.6520 C   0  0  0  0  0  0  0  0  0  0  0  0
   10.0320    2.1450   24.7650 S   0  0  0  0  0  0  0  0  0  0  0  0
   10.1170    0.7890   23.6260 C   0  0  0  0  0  0  0  0  0  0  0  0
   11.3090    0.1260   23.2810 C   0  0  0  0  0  0  0  0  0  0  0  0
   11.2740   -0.9490   22.3740 C   0  0  0  0  0  0  0  0  0  0  0  0
   10.0500   -1.3470   21.8100 C   0  0  0  0  0  0  0  0  0  0  0  0
    8.8720   -0.6760   22.1610 C   0  0  0  0  0  0  0  0  0  0  0  0
    7.6480   -0.9420   21.5350 N   0  0  0  0  0  0  0  0  0  0  0  0
    7.3740   -0.4930   20.2790 C   0  0  0  0  0  0  0  0  0  0  0  0
    8.2170   -0.2450   19.4380 O   0  0  0  0  0  0  0  0  0  0  0  0
    6.0390   -0.2630   20.1040 N   0  0  0  0  0  0  0  0  0  0  0  0
    5.4890    0.5050   19.0550 C   0  0  0  0  0  0  0  0  0  0  0  0
    4.5340    1.4880   19.3470 C   0  0  0  0  0  0  0  0  0  0  0  0
    4.1090    2.3120   18.2970 C   0  0  0  0  0  0  0  0  0  0  0  0
    4.6690    2.1530   17.0210 C   0  0  0  0  0  0  0  0  0  0  0  0
    5.5690    1.1880   16.7290 N   0  0  0  0  0  0  0  0  0  0  0  0
    5.9650    0.3870   17.7340 C   0  0  0  0  0  0  0  0  0  0  0  0
    8.9060    0.3790   23.0710 C   0  0  0  0  0  0  0  0  0  0  0  0
  1  2  1  0
  2  3  1  0
  2  4  1  0
  4  5  1  0
  5  6  1  0
  6  7  1  0
  7 22  2  0
  7  8  1  0
  8  9  2  0
  9 10  1  0
 10 11  2  0
 11 12  1  0
 11 22  1  0
 12 13  1  0
 13 14  2  0
 13 15  1  0
 15 16  1  0
 16 17  2  0
 16 21  1  0
 17 18  1  0
 18 19  2  0
 19 20  1  0
 20 21  2  0
M  END
