WPC1888_minimised.pdb
     RDKit          3D

 19 20  0  0  0  0  0  0  0  0999 V2000
   12.9930    5.1070   22.3650 C   0  0  0  0  0  0  0  0  0  0  0  0
   12.5700    5.3130   23.6150 C   0  0  0  0  0  0  0  0  0  0  0  0
   11.2100    4.4800   24.3120 S   0  0  0  0  0  0  0  0  0  0  0  0
   11.1610    2.8290   23.6210 C   0  0  0  0  0  0  0  0  0  0  0  0
   12.3290    2.0900   23.3510 C   0  0  0  0  0  0  0  0  0  0  0  0
   12.2400    0.7860   22.8360 C   0  0  0  0  0  0  0  0  0  0  0  0
   10.9820    0.2170   22.5770 C   0  0  0  0  0  0  0  0  0  0  0  0
    9.8170    0.9530   22.8410 C   0  0  0  0  0  0  0  0  0  0  0  0
    8.5490    0.4420   22.4920 N   0  0  0  0  0  0  0  0  0  0  0  0
    8.1040    0.3700   21.2020 C   0  0  0  0  0  0  0  0  0  0  0  0
    8.8300    0.5020   20.2380 O   0  0  0  0  0  0  0  0  0  0  0  0
    6.7500    0.2160   21.0760 N   0  0  0  0  0  0  0  0  0  0  0  0
    6.0320    0.5770   19.9100 C   0  0  0  0  0  0  0  0  0  0  0  0
    5.0210    1.5380   20.0250 C   0  0  0  0  0  0  0  0  0  0  0  0
    4.4520    2.0320   18.8460 C   0  0  0  0  0  0  0  0  0  0  0  0
    4.9110    1.5620   17.6070 C   0  0  0  0  0  0  0  0  0  0  0  0
    5.8420    0.5890   17.4830 N   0  0  0  0  0  0  0  0  0  0  0  0
    6.4030    0.1270   18.6220 C   0  0  0  0  0  0  0  0  0  0  0  0
    9.9090    2.2510   23.3660 C   0  0  0  0  0  0  0  0  0  0  0  0
  1  2  2  0
  2  3  1  0
  3  4  1  0
  4 19  2  0
  4  5  1  0
  5  6  2  0
  6  7  1  0
  7  8  2  0
  8  9  1  0
  8 19  1  0
  9 10  1  0
 10 11  2  0
 10 12  1  0
 12 13  1  0
 13 14  2  0
 13 18  1  0
 14 15  1  0
 15 16  2  0
 16 17  1  0
 17 18  2  0
M  END
