WPC1324_minimised.pdb
     RDKit          3D

 24 25  0  0  0  0  0  0  0  0999 V2000
    8.1480    3.3890   21.8330 C   0  0  0  0  0  0  0  0  0  0  0  0
    7.8600    4.6570   22.1410 C   0  0  0  0  0  0  0  0  0  0  0  0
    8.8430    5.7580   22.5140 C   0  0  0  0  0  0  0  0  0  0  0  0
   10.2000    5.3100   22.4480 O   0  0  0  0  0  0  0  0  0  0  0  0
   10.6970    4.5290   23.4290 C   0  0  0  0  0  0  0  0  0  0  0  0
   10.2770    4.4530   24.5680 O   0  0  0  0  0  0  0  0  0  0  0  0
   11.6490    3.7250   22.8720 N   0  0  0  0  0  0  0  0  0  0  0  0
   12.2740    2.5910   23.5610 C   0  0  0  0  0  0  0  0  0  0  0  0
   11.8480    1.2440   23.0070 C   0  0  0  0  0  0  0  0  0  0  0  0
   12.7980    0.3330   22.5090 C   0  0  0  0  0  0  0  0  0  0  0  0
   12.3790   -0.8740   21.9240 C   0  0  0  0  0  0  0  0  0  0  0  0
   11.0080   -1.1630   21.8220 C   0  0  0  0  0  0  0  0  0  0  0  0
   10.0620   -0.2620   22.3320 C   0  0  0  0  0  0  0  0  0  0  0  0
    8.6870   -0.4410   22.0760 N   0  0  0  0  0  0  0  0  0  0  0  0
    8.1290   -0.1620   20.8580 C   0  0  0  0  0  0  0  0  0  0  0  0
    8.7850    0.0740   19.8640 O   0  0  0  0  0  0  0  0  0  0  0  0
    6.7610   -0.1070   20.8450 N   0  0  0  0  0  0  0  0  0  0  0  0
    6.0100    0.4310   19.7680 C   0  0  0  0  0  0  0  0  0  0  0  0
    5.0700    1.4370   20.0270 C   0  0  0  0  0  0  0  0  0  0  0  0
    4.4740    2.0720   18.9290 C   0  0  0  0  0  0  0  0  0  0  0  0
    4.8400    1.6980   17.6270 C   0  0  0  0  0  0  0  0  0  0  0  0
    5.7050    0.6920   17.3680 N   0  0  0  0  0  0  0  0  0  0  0  0
    6.2810    0.0850   18.4250 C   0  0  0  0  0  0  0  0  0  0  0  0
   10.4840    0.9170   22.9580 C   0  0  0  0  0  0  0  0  0  0  0  0
  1  2  2  0
  2  3  1  0
  3  4  1  0
  4  5  1  0
  5  6  2  0
  5  7  1  0
  7  8  1  0
  8  9  1  0
  9 24  2  0
  9 10  1  0
 10 11  2  0
 11 12  1  0
 12 13  2  0
 13 14  1  0
 13 24  1  0
 14 15  1  0
 15 16  2  0
 15 17  1  0
 17 18  1  0
 18 19  2  0
 18 23  1  0
 19 20  1  0
 20 21  2  0
 21 22  1  0
 22 23  2  0
M  END
