WPC1489_minimised.pdb
     RDKit          3D

 24 26  0  0  1  0  0  0  0  0999 V2000
    8.5320    0.1160   19.6700 O   0  0  0  0  0  0  0  0  0  0  0  0
    7.8690   -0.0110   20.6770 C   0  0  0  0  0  0  0  0  0  0  0  0
    6.5120    0.1620   20.6800 N   0  0  0  0  0  0  0  0  0  0  0  0
    5.7710    0.6780   19.5890 C   0  0  0  0  0  0  0  0  0  0  0  0
    4.8220    1.6810   19.8240 C   0  0  0  0  0  0  0  0  0  0  0  0
    4.2230    2.2830   18.7100 C   0  0  0  0  0  0  0  0  0  0  0  0
    4.6070    1.8950   17.4190 C   0  0  0  0  0  0  0  0  0  0  0  0
    5.4750    0.8870   17.1830 N   0  0  0  0  0  0  0  0  0  0  0  0
    6.0460    0.3010   18.2540 C   0  0  0  0  0  0  0  0  0  0  0  0
    8.4130   -0.3000   21.8950 N   0  0  0  0  0  0  0  0  0  0  0  0
    9.8030   -0.4020   22.0980 C   0  0  0  0  0  0  0  0  0  0  0  0
   10.4950   -1.5230   21.6210 C   0  0  0  0  0  0  0  0  0  0  0  0
   11.8950   -1.5600   21.6840 C   0  0  0  0  0  0  0  0  0  0  0  0
   12.6020   -0.4780   22.2160 C   0  0  0  0  0  0  0  0  0  0  0  0
   11.9100    0.6280   22.7210 C   0  0  0  0  0  0  0  0  0  0  0  0
   12.8790    1.9210   23.4460 S   0  0  0  0  0  0  0  0  0  0  0  0
   12.0770    3.5260   23.0340 C   0  0  1  0  0  0  0  0  0  0  0  0
   10.8580    3.6230   23.8180 O   0  0  0  0  0  0  0  0  0  0  0  0
   10.2040    4.8950   23.6990 C   0  0  0  0  0  0  0  0  0  0  0  0
   11.1360    5.9700   24.2990 C   0  0  0  0  0  0  0  0  0  0  0  0
   12.5500    5.8130   23.9150 N   0  0  0  0  0  0  0  0  0  0  0  0
   13.0660    4.6770   23.3390 C   0  0  0  0  0  0  0  0  0  0  0  0
   14.2670    4.6370   23.1510 O   0  0  0  0  0  0  0  0  0  0  0  0
   10.5070    0.6700   22.6640 C   0  0  0  0  0  0  0  0  0  0  0  0
  1  2  2  0
  2  3  1  0
  2 10  1  0
  3  4  1  0
  4  5  2  0
  4  9  1  0
  5  6  1  0
  6  7  2  0
  7  8  1  0
  8  9  2  0
 10 11  1  0
 11 24  1  0
 11 12  2  0
 12 13  1  0
 13 14  2  0
 14 15  1  0
 15 16  1  0
 15 24  2  0
 17 16  1  1
 17 18  1  0
 17 22  1  0
 18 19  1  0
 19 20  1  0
 20 21  1  0
 21 22  1  0
 22 23  2  0
M  END
