WPC1028_minimised.pdb
     RDKit          3D

 24 26  0  0  0  0  0  0  0  0999 V2000
    8.5350   -0.0160   19.8380 O   0  0  0  0  0  0  0  0  0  0  0  0
    7.7740   -0.3250   20.7370 C   0  0  0  0  0  0  0  0  0  0  0  0
    8.1610   -0.7180   21.9920 N   0  0  0  0  0  0  0  0  0  0  0  0
    9.4500   -0.5010   22.5220 C   0  0  0  0  0  0  0  0  0  0  0  0
   10.5900   -0.7690   21.7500 C   0  0  0  0  0  0  0  0  0  0  0  0
   11.8370   -0.2700   22.1390 C   0  0  0  0  0  0  0  0  0  0  0  0
   11.9470    0.4750   23.3220 C   0  0  0  0  0  0  0  0  0  0  0  0
   13.2410    1.1950   23.6230 C   0  0  0  0  0  0  0  0  0  0  0  0
   13.3670    2.5450   22.8720 C   0  0  0  0  0  0  0  0  0  0  0  0
   12.4960    3.6990   23.3560 C   0  0  0  0  0  0  0  0  0  0  0  0
   13.1060    4.8850   23.7920 C   0  0  0  0  0  0  0  0  0  0  0  0
   12.2910    5.9600   24.1670 C   0  0  0  0  0  0  0  0  0  0  0  0
   10.8990    5.8200   24.0690 C   0  0  0  0  0  0  0  0  0  0  0  0
   10.3030    4.6990   23.6430 N   0  0  0  0  0  0  0  0  0  0  0  0
   11.0870    3.6720   23.2590 C   0  0  0  0  0  0  0  0  0  0  0  0
   10.8360    0.6100   24.1750 C   0  0  0  0  0  0  0  0  0  0  0  0
    9.5810    0.1360   23.7640 C   0  0  0  0  0  0  0  0  0  0  0  0
    6.4170   -0.2500   20.5990 N   0  0  0  0  0  0  0  0  0  0  0  0
    5.7610    0.3880   19.5200 C   0  0  0  0  0  0  0  0  0  0  0  0
    4.8170    1.3870   19.7880 C   0  0  0  0  0  0  0  0  0  0  0  0
    4.2930    2.0960   18.6990 C   0  0  0  0  0  0  0  0  0  0  0  0
    4.7350    1.8000   17.4010 C   0  0  0  0  0  0  0  0  0  0  0  0
    5.6120    0.8070   17.1310 N   0  0  0  0  0  0  0  0  0  0  0  0
    6.1240    0.1330   18.1800 C   0  0  0  0  0  0  0  0  0  0  0  0
  1  2  2  0
  2  3  1  0
  2 18  1  0
  3  4  1  0
  4  5  2  0
  4 17  1  0
  5  6  1  0
  6  7  2  0
  7  8  1  0
  7 16  1  0
  8  9  1  0
  9 10  1  0
 10 11  2  0
 10 15  1  0
 11 12  1  0
 12 13  2  0
 13 14  1  0
 14 15  2  0
 16 17  2  0
 18 19  1  0
 19 20  2  0
 19 24  1  0
 20 21  1  0
 21 22  2  0
 22 23  1  0
 23 24  2  0
M  END
