WPC1193_minimised.pdb
     RDKit          3D

 24 25  0  0  0  0  0  0  0  0999 V2000
   13.7310    5.5380   21.9970 C   0  0  0  0  0  0  0  0  0  0  0  0
   12.6960    4.8390   22.4710 C   0  0  0  0  0  0  0  0  0  0  0  0
   11.9080    5.1900   23.7100 C   0  0  0  0  0  0  0  0  0  0  0  0
   10.6700    4.3810   23.7570 N   0  0  0  0  0  0  0  0  0  0  0  0
   10.8180    3.1140   24.5130 C   0  0  0  0  0  0  0  0  0  0  0  0
   10.8670    1.8700   23.6350 C   0  0  0  0  0  0  0  0  0  0  0  0
   12.0940    1.3680   23.1590 C   0  0  0  0  0  0  0  0  0  0  0  0
   12.1240    0.2280   22.3360 C   0  0  0  0  0  0  0  0  0  0  0  0
   10.9250   -0.4040   21.9660 C   0  0  0  0  0  0  0  0  0  0  0  0
    9.7040    0.0850   22.4550 C   0  0  0  0  0  0  0  0  0  0  0  0
    8.4670   -0.4240   22.0150 N   0  0  0  0  0  0  0  0  0  0  0  0
    8.0010   -0.2240   20.7470 C   0  0  0  0  0  0  0  0  0  0  0  0
    8.7090    0.0060   19.7880 O   0  0  0  0  0  0  0  0  0  0  0  0
    6.6360   -0.2130   20.6690 N   0  0  0  0  0  0  0  0  0  0  0  0
    5.9210    0.3740   19.5980 C   0  0  0  0  0  0  0  0  0  0  0  0
    4.9980    1.3900   19.8770 C   0  0  0  0  0  0  0  0  0  0  0  0
    4.4190    2.0610   18.7920 C   0  0  0  0  0  0  0  0  0  0  0  0
    4.7930    1.7160   17.4850 C   0  0  0  0  0  0  0  0  0  0  0  0
    5.6540    0.7110   17.2080 N   0  0  0  0  0  0  0  0  0  0  0  0
    6.2130    0.0680   18.2520 C   0  0  0  0  0  0  0  0  0  0  0  0
    9.6800    1.1930   23.3080 C   0  0  0  0  0  0  0  0  0  0  0  0
    9.4680    4.8150   23.2580 C   0  0  0  0  0  0  0  0  0  0  0  0
    8.4030    4.1660   23.2750 N   0  0  0  0  0  0  0  0  0  0  0  0
    9.5260    5.8630   22.4510 N   0  0  0  0  0  0  0  0  0  0  0  0
  1  2  2  0
  2  3  1  0
  3  4  1  0
  4 22  1  0
  4  5  1  0
  5  6  1  0
  6 21  2  0
  6  7  1  0
  7  8  2  0
  8  9  1  0
  9 10  2  0
 10 11  1  0
 10 21  1  0
 11 12  1  0
 12 13  2  0
 12 14  1  0
 14 15  1  0
 15 16  2  0
 15 20  1  0
 16 17  1  0
 17 18  2  0
 18 19  1  0
 19 20  2  0
 22 23  2  0
 22 24  1  0
M  END
