WPC1215_minimised.pdb
     RDKit          3D

 20 21  0  0  0  0  0  0  0  0999 V2000
   13.9250    5.9470   21.2820 O   0  0  0  0  0  0  0  0  0  0  0  0
   13.5440    5.3450   22.2650 C   0  0  0  0  0  0  0  0  0  0  0  0
   12.2390    4.9450   22.3900 N   0  0  0  0  0  0  0  0  0  0  0  0
   11.6920    4.3060   23.5830 C   0  0  0  0  0  0  0  0  0  0  0  0
   11.4760    2.8170   23.3760 C   0  0  0  0  0  0  0  0  0  0  0  0
   12.5690    1.9350   23.2990 C   0  0  0  0  0  0  0  0  0  0  0  0
   12.3650    0.5750   23.0170 C   0  0  0  0  0  0  0  0  0  0  0  0
   11.0630    0.0860   22.8180 C   0  0  0  0  0  0  0  0  0  0  0  0
    9.9700    0.9610   22.9030 C   0  0  0  0  0  0  0  0  0  0  0  0
    8.6710    0.5220   22.5760 N   0  0  0  0  0  0  0  0  0  0  0  0
    8.2140    0.4610   21.2890 C   0  0  0  0  0  0  0  0  0  0  0  0
    8.9430    0.5610   20.3250 O   0  0  0  0  0  0  0  0  0  0  0  0
    6.8570    0.3380   21.1680 N   0  0  0  0  0  0  0  0  0  0  0  0
    6.1380    0.6520   19.9870 C   0  0  0  0  0  0  0  0  0  0  0  0
    5.1080    1.5970   20.0700 C   0  0  0  0  0  0  0  0  0  0  0  0
    4.5240    2.0330   18.8750 C   0  0  0  0  0  0  0  0  0  0  0  0
    4.9890    1.5290   17.6530 C   0  0  0  0  0  0  0  0  0  0  0  0
    5.9360    0.5690   17.5610 N   0  0  0  0  0  0  0  0  0  0  0  0
    6.5110    0.1610   18.7140 C   0  0  0  0  0  0  0  0  0  0  0  0
   10.1760    2.3200   23.1810 C   0  0  0  0  0  0  0  0  0  0  0  0
  1  2  2  0
  2  3  1  0
  3  4  1  0
  4  5  1  0
  5 20  2  0
  5  6  1  0
  6  7  2  0
  7  8  1  0
  8  9  2  0
  9 10  1  0
  9 20  1  0
 10 11  1  0
 11 12  2  0
 11 13  1  0
 13 14  1  0
 14 15  2  0
 14 19  1  0
 15 16  1  0
 16 17  2  0
 17 18  1  0
 18 19  2  0
M  END
