WPC1670_minimised.pdb
     RDKit          3D

 24 25  0  0  0  0  0  0  0  0999 V2000
    8.3480    5.6540   22.2020 C   0  0  0  0  0  0  0  0  0  0  0  0
    8.8850    4.5680   23.0240 N   0  0  0  0  0  0  0  0  0  0  0  0
    8.3720    3.2310   22.6810 C   0  0  0  0  0  0  0  0  0  0  0  0
    9.9780    4.8290   23.8410 C   0  0  0  0  0  0  0  0  0  0  0  0
   10.2220    5.9600   24.2220 O   0  0  0  0  0  0  0  0  0  0  0  0
   10.9450    3.6930   24.1490 C   0  0  0  0  0  0  0  0  0  0  0  0
   11.8560    3.3800   22.9460 C   0  0  0  0  0  0  0  0  0  0  0  0
   13.0230    2.0160   23.3500 S   0  0  0  0  0  0  0  0  0  0  0  0
   12.2290    0.4930   22.8880 C   0  0  0  0  0  0  0  0  0  0  0  0
   13.0240   -0.6440   22.7090 C   0  0  0  0  0  0  0  0  0  0  0  0
   12.4250   -1.8880   22.4610 C   0  0  0  0  0  0  0  0  0  0  0  0
   11.0310   -1.9850   22.3120 C   0  0  0  0  0  0  0  0  0  0  0  0
   10.2430   -0.8300   22.4060 C   0  0  0  0  0  0  0  0  0  0  0  0
    8.8620   -0.8650   22.1140 N   0  0  0  0  0  0  0  0  0  0  0  0
    8.2970   -0.1720   21.0770 C   0  0  0  0  0  0  0  0  0  0  0  0
    8.9350    0.5400   20.3290 O   0  0  0  0  0  0  0  0  0  0  0  0
    6.9460   -0.3280   20.9360 N   0  0  0  0  0  0  0  0  0  0  0  0
    6.2000    0.2630   19.8860 C   0  0  0  0  0  0  0  0  0  0  0  0
    5.2290    1.2310   20.1700 C   0  0  0  0  0  0  0  0  0  0  0  0
    4.6250    1.8860   19.0870 C   0  0  0  0  0  0  0  0  0  0  0  0
    5.0050    1.5590   17.7750 C   0  0  0  0  0  0  0  0  0  0  0  0
    5.9100    0.5960   17.4920 N   0  0  0  0  0  0  0  0  0  0  0  0
    6.5100   -0.0130   18.5360 C   0  0  0  0  0  0  0  0  0  0  0  0
   10.8430    0.3970   22.7180 C   0  0  0  0  0  0  0  0  0  0  0  0
  1  2  1  0
  2  3  1  0
  2  4  1  0
  4  5  2  0
  4  6  1  0
  6  7  1  0
  7  8  1  0
  8  9  1  0
  9 24  2  0
  9 10  1  0
 10 11  2  0
 11 12  1  0
 12 13  2  0
 13 14  1  0
 13 24  1  0
 14 15  1  0
 15 16  2  0
 15 17  1  0
 17 18  1  0
 18 19  2  0
 18 23  1  0
 19 20  1  0
 20 21  2  0
 21 22  1  0
 22 23  2  0
M  END
