WPC1763_minimised.pdb
     RDKit          3D

 21 22  0  0  0  0  0  0  0  0999 V2000
   12.2990    6.5840   25.2270 C   0  0  0  0  0  0  0  0  0  0  0  0
   11.8210    5.9700   24.3160 C   0  0  0  0  0  0  0  0  0  0  0  0
   11.1860    5.2070   23.2290 C   0  0  0  0  0  0  0  0  0  0  0  0
   10.1030    4.2430   23.7530 C   0  0  0  0  0  0  0  0  0  0  0  0
   10.6790    3.0130   24.4980 C   0  0  0  0  0  0  0  0  0  0  0  0
   10.7740    1.7750   23.6240 C   0  0  0  0  0  0  0  0  0  0  0  0
   12.0090    1.2720   23.1780 C   0  0  0  0  0  0  0  0  0  0  0  0
   12.0500    0.1350   22.3500 C   0  0  0  0  0  0  0  0  0  0  0  0
   10.8550   -0.4950   21.9610 C   0  0  0  0  0  0  0  0  0  0  0  0
    9.6250    0.0070   22.4140 C   0  0  0  0  0  0  0  0  0  0  0  0
    8.3960   -0.5090   21.9620 N   0  0  0  0  0  0  0  0  0  0  0  0
    7.9200   -0.2680   20.7050 C   0  0  0  0  0  0  0  0  0  0  0  0
    8.6220    0.0290   19.7600 O   0  0  0  0  0  0  0  0  0  0  0  0
    6.5550   -0.2950   20.6250 N   0  0  0  0  0  0  0  0  0  0  0  0
    5.8330    0.3090   19.5680 C   0  0  0  0  0  0  0  0  0  0  0  0
    4.8970    1.3060   19.8670 C   0  0  0  0  0  0  0  0  0  0  0  0
    4.3260    2.0070   18.7970 C   0  0  0  0  0  0  0  0  0  0  0  0
    4.7140    1.7030   17.4840 C   0  0  0  0  0  0  0  0  0  0  0  0
    5.5880    0.7150   17.1860 N   0  0  0  0  0  0  0  0  0  0  0  0
    6.1430    0.0470   18.2160 C   0  0  0  0  0  0  0  0  0  0  0  0
    9.5890    1.1260   23.2510 C   0  0  0  0  0  0  0  0  0  0  0  0
  1  2  3  0
  2  3  1  0
  3  4  1  0
  4  5  1  0
  5  6  1  0
  6 21  2  0
  6  7  1  0
  7  8  2  0
  8  9  1  0
  9 10  2  0
 10 11  1  0
 10 21  1  0
 11 12  1  0
 12 13  2  0
 12 14  1  0
 14 15  1  0
 15 16  2  0
 15 20  1  0
 16 17  1  0
 17 18  2  0
 18 19  1  0
 19 20  2  0
M  END
