WPC1571_minimised.pdb
     RDKit          3D

 21 22  0  0  0  0  0  0  0  0999 V2000
    8.3450   -0.0690   19.6240 O   0  0  0  0  0  0  0  0  0  0  0  0
    7.5870   -0.1780   20.5680 C   0  0  0  0  0  0  0  0  0  0  0  0
    6.2400    0.0150   20.4660 N   0  0  0  0  0  0  0  0  0  0  0  0
    5.5970    0.6250   19.3660 C   0  0  0  0  0  0  0  0  0  0  0  0
    4.6520    1.6300   19.6060 C   0  0  0  0  0  0  0  0  0  0  0  0
    4.1420    2.3200   18.4990 C   0  0  0  0  0  0  0  0  0  0  0  0
    4.6110    2.0120   17.2150 C   0  0  0  0  0  0  0  0  0  0  0  0
    5.4880    1.0120   16.9720 N   0  0  0  0  0  0  0  0  0  0  0  0
    5.9690    0.3410   18.0350 C   0  0  0  0  0  0  0  0  0  0  0  0
    7.9880   -0.4440   21.8450 N   0  0  0  0  0  0  0  0  0  0  0  0
    9.3240   -0.3440   22.2710 C   0  0  0  0  0  0  0  0  0  0  0  0
   10.3320   -1.0960   21.6520 C   0  0  0  0  0  0  0  0  0  0  0  0
   11.6790   -0.8720   21.9740 C   0  0  0  0  0  0  0  0  0  0  0  0
   12.0090    0.0910   22.9410 C   0  0  0  0  0  0  0  0  0  0  0  0
   10.9920    0.8050   23.6020 C   0  0  0  0  0  0  0  0  0  0  0  0
   11.3320    1.7570   24.7270 C   0  0  0  0  0  0  0  0  0  0  0  0
   10.8610    3.1410   24.5440 N   0  0  0  0  0  0  0  0  0  0  0  0
   11.4360    3.8280   23.3640 C   0  0  0  0  0  0  0  0  0  0  0  0
   11.1180    5.3430   23.3840 C   0  0  0  0  0  0  0  0  0  0  0  0
    9.9350    5.5670   24.1440 O   0  0  0  0  0  0  0  0  0  0  0  0
    9.6510    0.5910   23.2580 C   0  0  0  0  0  0  0  0  0  0  0  0
  1  2  2  0
  2 10  1  0
  2  3  1  0
  3  4  1  0
  4  5  2  0
  4  9  1  0
  5  6  1  0
  6  7  2  0
  7  8  1  0
  8  9  2  0
 10 11  1  0
 11 12  2  0
 11 21  1  0
 12 13  1  0
 13 14  2  0
 14 15  1  0
 15 16  1  0
 15 21  2  0
 16 17  1  0
 17 18  1  0
 18 19  1  0
 19 20  1  0
M  END
