WPC1897_minimised.pdb
     RDKit          3D

 21 22  0  0  0  0  0  0  0  0999 V2000
   12.4840    4.8860   21.9840 N   0  0  0  0  0  0  0  0  0  0  0  0
   12.2590    4.7830   23.3160 C   0  0  0  0  0  0  0  0  0  0  0  0
   13.1660    4.9590   24.1000 O   0  0  0  0  0  0  0  0  0  0  0  0
   10.8440    4.4260   23.7500 C   0  0  0  0  0  0  0  0  0  0  0  0
   10.8150    3.0790   24.5020 C   0  0  0  0  0  0  0  0  0  0  0  0
   10.8860    1.8610   23.6010 C   0  0  0  0  0  0  0  0  0  0  0  0
   12.1170    1.3280   23.1750 C   0  0  0  0  0  0  0  0  0  0  0  0
   12.1440    0.1850   22.3560 C   0  0  0  0  0  0  0  0  0  0  0  0
   10.9420   -0.4280   21.9630 C   0  0  0  0  0  0  0  0  0  0  0  0
    9.7170    0.1020   22.3960 C   0  0  0  0  0  0  0  0  0  0  0  0
    8.4850   -0.4220   21.9590 N   0  0  0  0  0  0  0  0  0  0  0  0
    7.9780   -0.1720   20.7170 C   0  0  0  0  0  0  0  0  0  0  0  0
    8.6490    0.2000   19.7770 O   0  0  0  0  0  0  0  0  0  0  0  0
    6.6170   -0.2790   20.6410 N   0  0  0  0  0  0  0  0  0  0  0  0
    5.8690    0.3050   19.5910 C   0  0  0  0  0  0  0  0  0  0  0  0
    4.9310    1.3010   19.8930 C   0  0  0  0  0  0  0  0  0  0  0  0
    4.3540    1.9970   18.8230 C   0  0  0  0  0  0  0  0  0  0  0  0
    4.7380    1.6910   17.5090 C   0  0  0  0  0  0  0  0  0  0  0  0
    5.6100    0.7020   17.2100 N   0  0  0  0  0  0  0  0  0  0  0  0
    6.1710    0.0380   18.2390 C   0  0  0  0  0  0  0  0  0  0  0  0
    9.6930    1.2390   23.2100 C   0  0  0  0  0  0  0  0  0  0  0  0
  1  2  1  0
  2  3  2  0
  2  4  1  0
  4  5  1  0
  5  6  1  0
  6 21  2  0
  6  7  1  0
  7  8  2  0
  8  9  1  0
  9 10  2  0
 10 11  1  0
 10 21  1  0
 11 12  1  0
 12 13  2  0
 12 14  1  0
 14 15  1  0
 15 16  2  0
 15 20  1  0
 16 17  1  0
 17 18  2  0
 18 19  1  0
 19 20  2  0
M  END
