WPC1943_minimised.pdb
     RDKit          3D

 21 22  0  0  0  0  0  0  0  0999 V2000
   14.2180    5.3890   21.8650 O   0  0  0  0  0  0  0  0  0  0  0  0
   13.1360    4.9540   22.2070 C   0  0  0  0  0  0  0  0  0  0  0  0
   13.0340    3.8040   22.9440 N   0  0  0  0  0  0  0  0  0  0  0  0
   11.7400    3.2860   23.3940 C   0  0  0  0  0  0  0  0  0  0  0  0
   11.8510    1.9060   24.0720 C   0  0  0  0  0  0  0  0  0  0  0  0
   11.4090    0.7650   23.1860 C   0  0  0  0  0  0  0  0  0  0  0  0
   12.3510   -0.0860   22.5840 C   0  0  0  0  0  0  0  0  0  0  0  0
   11.9190   -1.1720   21.8080 C   0  0  0  0  0  0  0  0  0  0  0  0
   10.5460   -1.3890   21.6160 C   0  0  0  0  0  0  0  0  0  0  0  0
    9.6100   -0.5150   22.1830 C   0  0  0  0  0  0  0  0  0  0  0  0
    8.2470   -0.6140   21.8500 N   0  0  0  0  0  0  0  0  0  0  0  0
    7.7650   -0.2520   20.6250 C   0  0  0  0  0  0  0  0  0  0  0  0
    8.4740    0.0070   19.6730 O   0  0  0  0  0  0  0  0  0  0  0  0
    6.4030   -0.1460   20.5730 N   0  0  0  0  0  0  0  0  0  0  0  0
    5.7030    0.4660   19.5060 C   0  0  0  0  0  0  0  0  0  0  0  0
    4.7700    1.4710   19.7870 C   0  0  0  0  0  0  0  0  0  0  0  0
    4.2230    2.1710   18.7040 C   0  0  0  0  0  0  0  0  0  0  0  0
    4.6380    1.8660   17.3990 C   0  0  0  0  0  0  0  0  0  0  0  0
    5.5000    0.8630   17.1180 N   0  0  0  0  0  0  0  0  0  0  0  0
    6.0240    0.1890   18.1600 C   0  0  0  0  0  0  0  0  0  0  0  0
   10.0390    0.5500   22.9810 C   0  0  0  0  0  0  0  0  0  0  0  0
  1  2  2  0
  2  3  1  0
  3  4  1  0
  4  5  1  0
  5  6  1  0
  6 21  2  0
  6  7  1  0
  7  8  2  0
  8  9  1  0
  9 10  2  0
 10 11  1  0
 10 21  1  0
 11 12  1  0
 12 13  2  0
 12 14  1  0
 14 15  1  0
 15 16  2  0
 15 20  1  0
 16 17  1  0
 17 18  2  0
 18 19  1  0
 19 20  2  0
M  END
