WPC1449_minimised.pdb
     RDKit          3D

 23 24  0  0  1  0  0  0  0  0999 V2000
    9.3710    0.5680   20.7700 O   0  0  0  0  0  0  0  0  0  0  0  0
    8.8770   -0.3060   21.3140 C   0  0  0  0  0  0  0  0  0  0  0  0
    7.5260   -0.6010   21.0410 N   0  0  0  0  0  0  0  0  0  0  0  0
    6.7800    0.0070   19.9910 C   0  0  0  0  0  0  0  0  0  0  0  0
    5.5920    0.7350   20.2600 C   0  0  0  0  0  0  0  0  0  0  0  0
    4.9310    1.3610   19.2030 C   0  0  0  0  0  0  0  0  0  0  0  0
    5.4320    1.2280   17.8930 C   0  0  0  0  0  0  0  0  0  0  0  0
    6.5380    0.5060   17.6050 N   0  0  0  0  0  0  0  0  0  0  0  0
    7.2040   -0.0440   18.6270 C   0  0  0  0  0  0  0  0  0  0  0  0
    9.4400   -1.1530   22.2970 N   0  0  0  0  0  0  0  0  0  0  0  0
   10.7130   -1.0690   22.7700 C   0  0  1  0  0  0  0  0  0  0  0  0
   11.8160   -1.3460   21.9280 C   0  0  0  0  0  0  0  0  0  0  0  0
   13.0740   -0.9330   22.1550 C   0  0  0  0  0  0  0  0  0  0  0  0
   13.3120    0.0250   23.1540 C   0  0  0  0  0  0  0  0  0  0  0  0
   12.1390    0.5900   23.7520 C   0  0  1  0  0  0  0  0  0  0  0  0
   11.7880    2.2130   22.9510 S   0  0  0  0  0  0  0  0  0  0  0  0
   11.8900    3.6050   23.9590 C   0  0  0  0  0  0  0  0  0  0  0  0
   10.3660    4.0590   24.2510 C   0  0  0  0  0  0  0  0  0  0  0  0
   10.0530    5.6490   23.2910 P   0  0  0  0  0  0  0  0  0  0  0  0
   11.3160    6.0420   22.7330 O   0  0  0  0  0  0  0  0  0  0  0  0
   11.0170    6.6260   23.7390 O   0  0  0  0  0  0  0  0  0  0  0  0
    8.8490    6.2970   22.5140 O   0  0  0  0  0  0  0  0  0  0  0  0
   10.9600   -0.1110   23.7890 C   0  0  0  0  0  0  0  0  0  0  0  0
  1  2  2  0
  2 10  1  0
  2  3  1  0
  3  4  1  0
  4  5  2  0
  4  9  1  0
  5  6  1  0
  6  7  2  0
  7  8  1  0
  8  9  2  0
 11 10  1  6
 11 12  1  0
 11 23  1  0
 12 13  2  0
 13 14  1  0
 14 15  1  0
 15 16  1  6
 15 23  1  0
 16 17  1  0
 17 18  1  0
 18 19  1  0
 19 20  2  0
 19 21  1  0
 19 22  1  0
M  END
