WPC1939_minimised.pdb
     RDKit          3D

 21 22  0  0  0  0  0  0  0  0999 V2000
    9.1750    0.5620   20.4790 O   0  0  0  0  0  0  0  0  0  0  0  0
    8.6630   -0.3750   21.0750 C   0  0  0  0  0  0  0  0  0  0  0  0
    7.2910   -0.7020   20.8900 N   0  0  0  0  0  0  0  0  0  0  0  0
    6.5420   -0.0170   19.8510 C   0  0  0  0  0  0  0  0  0  0  0  0
    5.4390    0.7810   20.1700 C   0  0  0  0  0  0  0  0  0  0  0  0
    4.8510    1.4910   19.1120 C   0  0  0  0  0  0  0  0  0  0  0  0
    5.3420    1.3570   17.8250 C   0  0  0  0  0  0  0  0  0  0  0  0
    6.3830    0.5740   17.5170 N   0  0  0  0  0  0  0  0  0  0  0  0
    7.0720    0.0230   18.5470 C   0  0  0  0  0  0  0  0  0  0  0  0
    9.3620   -1.2360   22.0470 N   0  0  0  0  0  0  0  0  0  0  0  0
   10.6380   -0.9110   22.5780 C   0  0  0  0  0  0  0  0  0  0  0  0
   11.7980   -1.1580   21.8170 C   0  0  0  0  0  0  0  0  0  0  0  0
   13.0780   -0.5690   22.1180 C   0  0  0  0  0  0  0  0  0  0  0  0
   13.0830    0.6250   22.8480 C   0  0  0  0  0  0  0  0  0  0  0  0
   11.8580    0.9740   23.4710 C   0  0  0  0  0  0  0  0  0  0  0  0
   11.8640    2.0150   24.4330 C   0  0  0  0  0  0  0  0  0  0  0  0
   11.6030    3.4120   23.6320 P   0  0  0  0  0  0  0  0  0  0  0  0
   10.9820    4.8570   24.0670 O   0  0  0  0  0  0  0  0  0  0  0  0
   12.4210    4.1860   22.4960 O   0  0  0  0  0  0  0  0  0  0  0  0
   11.5530    4.7140   24.5200 O   0  0  0  0  0  0  0  0  0  0  0  0
   10.6820    0.2620   23.3490 C   0  0  0  0  0  0  0  0  0  0  0  0
  1  2  2  0
  2 10  1  0
  2  3  1  0
  3  4  1  0
  4  5  2  0
  4  9  1  0
  5  6  1  0
  6  7  2  0
  7  8  1  0
  8  9  2  0
 10 11  1  0
 11 12  2  0
 11 21  1  0
 12 13  1  0
 13 14  2  0
 14 15  1  0
 15 16  1  0
 15 21  2  0
 16 17  1  0
 17 18  2  0
 17 19  1  0
 17 20  1  0
M  END
