WPC1569_minimised.pdb
     RDKit          3D

 22 23  0  0  0  0  0  0  0  0999 V2000
   11.0720    6.4060   24.2650 O   0  0  0  0  0  0  0  0  0  0  0  0
   10.7530    5.6100   23.4030 C   0  0  0  0  0  0  0  0  0  0  0  0
    9.7880    5.9240   22.5210 O   0  0  0  0  0  0  0  0  0  0  0  0
   11.2410    4.1460   23.3880 C   0  0  0  0  0  0  0  0  0  0  0  0
   10.5680    3.2910   24.4020 N   0  0  0  0  0  0  0  0  0  0  0  0
   11.1920    1.9870   24.6650 C   0  0  0  0  0  0  0  0  0  0  0  0
   10.9580    0.9580   23.5840 C   0  0  0  0  0  0  0  0  0  0  0  0
   12.0410    0.3060   22.9670 C   0  0  0  0  0  0  0  0  0  0  0  0
   11.8060   -0.7170   22.0340 C   0  0  0  0  0  0  0  0  0  0  0  0
   10.4890   -1.0660   21.7020 C   0  0  0  0  0  0  0  0  0  0  0  0
    9.4130   -0.3870   22.2890 C   0  0  0  0  0  0  0  0  0  0  0  0
    8.0960   -0.6030   21.8510 N   0  0  0  0  0  0  0  0  0  0  0  0
    7.6670   -0.2280   20.6120 C   0  0  0  0  0  0  0  0  0  0  0  0
    8.4070    0.0800   19.6990 O   0  0  0  0  0  0  0  0  0  0  0  0
    6.3070   -0.1560   20.5120 N   0  0  0  0  0  0  0  0  0  0  0  0
    5.6340    0.4750   19.4420 C   0  0  0  0  0  0  0  0  0  0  0  0
    4.6890    1.4710   19.7170 C   0  0  0  0  0  0  0  0  0  0  0  0
    4.1640    2.1830   18.6310 C   0  0  0  0  0  0  0  0  0  0  0  0
    4.6120    1.8990   17.3330 C   0  0  0  0  0  0  0  0  0  0  0  0
    5.4940    0.9110   17.0590 N   0  0  0  0  0  0  0  0  0  0  0  0
    5.9960    0.2240   18.1020 C   0  0  0  0  0  0  0  0  0  0  0  0
    9.6450    0.6060   23.2430 C   0  0  0  0  0  0  0  0  0  0  0  0
  1  2  2  0
  2  3  1  0
  2  4  1  0
  4  5  1  0
  5  6  1  0
  6  7  1  0
  7 22  2  0
  7  8  1  0
  8  9  2  0
  9 10  1  0
 10 11  2  0
 11 12  1  0
 11 22  1  0
 12 13  1  0
 13 14  2  0
 13 15  1  0
 15 16  1  0
 16 17  2  0
 16 21  1  0
 17 18  1  0
 18 19  2  0
 19 20  1  0
 20 21  2  0
M  END
