WPC1178_minimised.pdb
     RDKit          3D

 24 26  0  0  0  0  0  0  0  0999 V2000
   13.5710    5.3010   22.1720 C   0  0  0  0  0  0  0  0  0  0  0  0
   12.5660    4.5360   23.0140 C   0  0  0  0  0  0  0  0  0  0  0  0
   11.3350    5.1060   23.3880 C   0  0  0  0  0  0  0  0  0  0  0  0
   10.4250    4.3840   24.1740 C   0  0  0  0  0  0  0  0  0  0  0  0
   10.7350    3.0790   24.5860 C   0  0  0  0  0  0  0  0  0  0  0  0
   11.9440    2.4950   24.1810 C   0  0  0  0  0  0  0  0  0  0  0  0
   12.3680    0.8440   24.6680 S   0  0  0  0  0  0  0  0  0  0  0  0
   11.5810   -0.0370   23.3630 C   0  0  0  0  0  0  0  0  0  0  0  0
   12.3680   -0.7210   22.4270 C   0  0  0  0  0  0  0  0  0  0  0  0
   11.7480   -1.4920   21.4400 C   0  0  0  0  0  0  0  0  0  0  0  0
   10.3480   -1.5400   21.3780 C   0  0  0  0  0  0  0  0  0  0  0  0
    9.5680   -0.7670   22.2450 C   0  0  0  0  0  0  0  0  0  0  0  0
    8.1940   -0.6100   21.9820 N   0  0  0  0  0  0  0  0  0  0  0  0
    7.7260   -0.1400   20.7850 C   0  0  0  0  0  0  0  0  0  0  0  0
    8.4420    0.1310   19.8400 O   0  0  0  0  0  0  0  0  0  0  0  0
    6.3690    0.0150   20.7330 N   0  0  0  0  0  0  0  0  0  0  0  0
    5.6800    0.5880   19.6360 C   0  0  0  0  0  0  0  0  0  0  0  0
    4.7370    1.5960   19.8660 C   0  0  0  0  0  0  0  0  0  0  0  0
    4.2000    2.2480   18.7490 C   0  0  0  0  0  0  0  0  0  0  0  0
    4.6300    1.8920   17.4620 C   0  0  0  0  0  0  0  0  0  0  0  0
    5.4940    0.8780   17.2290 N   0  0  0  0  0  0  0  0  0  0  0  0
    6.0120    0.2540   18.3040 C   0  0  0  0  0  0  0  0  0  0  0  0
   10.1830   -0.0410   23.2670 C   0  0  0  0  0  0  0  0  0  0  0  0
   12.8560    3.2230   23.4080 C   0  0  0  0  0  0  0  0  0  0  0  0
  1  2  1  0
  2 24  2  0
  2  3  1  0
  3  4  2  0
  4  5  1  0
  5  6  2  0
  6  7  1  0
  6 24  1  0
  7  8  1  0
  8 23  1  0
  8  9  2  0
  9 10  1  0
 10 11  2  0
 11 12  1  0
 12 13  1  0
 12 23  2  0
 13 14  1  0
 14 15  2  0
 14 16  1  0
 16 17  1  0
 17 18  2  0
 17 22  1  0
 18 19  1  0
 19 20  2  0
 20 21  1  0
 21 22  2  0
M  END
