WPC1589_minimised.pdb
     RDKit          3D

 21 22  0  0  1  0  0  0  0  0999 V2000
    9.3310    0.7830   20.8410 O   0  0  0  0  0  0  0  0  0  0  0  0
    8.7230   -0.2710   21.4210 C   0  0  0  0  0  0  0  0  0  0  0  0
    7.5390   -0.6070   20.9950 N   0  0  0  0  0  0  0  0  0  0  0  0
    6.7840   -0.0150   19.9180 C   0  0  0  0  0  0  0  0  0  0  0  0
    5.5530    0.6060   20.1340 C   0  0  0  0  0  0  0  0  0  0  0  0
    4.8990    1.2460   19.0730 C   0  0  0  0  0  0  0  0  0  0  0  0
    5.5080    1.2470   17.8190 C   0  0  0  0  0  0  0  0  0  0  0  0
    6.6780    0.6220   17.5870 N   0  0  0  0  0  0  0  0  0  0  0  0
    7.3190    0.0490   18.6290 C   0  0  0  0  0  0  0  0  0  0  0  0
    9.4230   -0.9090   22.3720 N   0  0  0  0  0  0  0  0  0  0  0  0
   10.7220   -0.5970   22.8560 C   0  0  0  0  0  0  0  0  0  0  0  0
   11.8230   -0.9280   22.0540 C   0  0  0  0  0  0  0  0  0  0  0  0
   13.0970   -0.4110   22.3780 C   0  0  0  0  0  0  0  0  0  0  0  0
   13.1630    0.5730   23.3500 C   0  0  0  0  0  0  0  0  0  0  0  0
   11.9420    1.1600   23.8460 C   0  0  1  0  0  0  0  0  0  0  0  0
   10.8460    2.6600   23.1010 S   0  0  0  0  0  0  0  0  0  0  0  0
   12.0900    3.7440   24.0200 S   0  0  0  0  0  0  0  0  0  0  0  0
   13.1750    3.7330   23.0820 O   0  0  0  0  0  0  0  0  0  0  0  0
   11.8620    4.8790   24.8160 O   0  0  0  0  0  0  0  0  0  0  0  0
   10.5660    3.6980   23.4220 O   0  0  0  0  0  0  0  0  0  0  0  0
   10.8490    0.2410   23.9280 C   0  0  0  0  0  0  0  0  0  0  0  0
  1  2  2  0
  2 10  1  0
  2  3  1  0
  3  4  1  0
  4  5  2  0
  4  9  1  0
  5  6  1  0
  6  7  2  0
  7  8  1  0
  8  9  2  0
 10 11  1  0
 11 12  2  0
 11 21  1  0
 12 13  1  0
 13 14  2  0
 14 15  1  0
 15 16  1  6
 15 21  1  0
 16 17  1  0
 17 18  2  0
 17 19  2  0
 17 20  1  0
M  END
