WPC1687_minimised.pdb
     RDKit          3D

 22 23  0  0  0  0  0  0  0  0999 V2000
   14.2560    5.5480   21.9630 C   0  0  0  0  0  0  0  0  0  0  0  0
   12.9230    5.0270   22.0720 O   0  0  0  0  0  0  0  0  0  0  0  0
   12.3870    4.8940   23.3150 C   0  0  0  0  0  0  0  0  0  0  0  0
   12.9500    5.2130   24.3500 O   0  0  0  0  0  0  0  0  0  0  0  0
   11.0110    4.2450   23.2790 C   0  0  0  0  0  0  0  0  0  0  0  0
   10.8700    3.0650   24.2660 C   0  0  0  0  0  0  0  0  0  0  0  0
   10.9390    1.7260   23.5580 C   0  0  0  0  0  0  0  0  0  0  0  0
   12.1690    1.1390   23.2110 C   0  0  0  0  0  0  0  0  0  0  0  0
   12.1930   -0.0620   22.4790 C   0  0  0  0  0  0  0  0  0  0  0  0
   10.9880   -0.6790   22.0970 C   0  0  0  0  0  0  0  0  0  0  0  0
    9.7640   -0.0930   22.4520 C   0  0  0  0  0  0  0  0  0  0  0  0
    8.5370   -0.6020   21.9880 N   0  0  0  0  0  0  0  0  0  0  0  0
    8.0080   -0.2400   20.7820 C   0  0  0  0  0  0  0  0  0  0  0  0
    8.6600    0.2550   19.8850 O   0  0  0  0  0  0  0  0  0  0  0  0
    6.6530   -0.4000   20.6880 N   0  0  0  0  0  0  0  0  0  0  0  0
    5.8940    0.1900   19.6500 C   0  0  0  0  0  0  0  0  0  0  0  0
    4.9590    1.1860   19.9620 C   0  0  0  0  0  0  0  0  0  0  0  0
    4.3680    1.8810   18.8970 C   0  0  0  0  0  0  0  0  0  0  0  0
    4.7340    1.5700   17.5780 C   0  0  0  0  0  0  0  0  0  0  0  0
    5.6080    0.5860   17.2700 N   0  0  0  0  0  0  0  0  0  0  0  0
    6.1870   -0.0720   18.2950 C   0  0  0  0  0  0  0  0  0  0  0  0
    9.7430    1.1020   23.1780 C   0  0  0  0  0  0  0  0  0  0  0  0
  1  2  1  0
  2  3  1  0
  3  4  2  0
  3  5  1  0
  5  6  1  0
  6  7  1  0
  7 22  2  0
  7  8  1  0
  8  9  2  0
  9 10  1  0
 10 11  2  0
 11 12  1  0
 11 22  1  0
 12 13  1  0
 13 14  2  0
 13 15  1  0
 15 16  1  0
 16 17  2  0
 16 21  1  0
 17 18  1  0
 18 19  2  0
 19 20  1  0
 20 21  2  0
M  END
