WPC1279_minimised.pdb
     RDKit          3D

 22 23  0  0  1  0  0  0  0  0999 V2000
    9.4170    0.6570   20.7280 O   0  0  0  0  0  0  0  0  0  0  0  0
    8.8430   -0.1710   21.3450 C   0  0  0  0  0  0  0  0  0  0  0  0
    7.5360   -0.5480   21.0480 N   0  0  0  0  0  0  0  0  0  0  0  0
    6.8080    0.0350   19.9860 C   0  0  0  0  0  0  0  0  0  0  0  0
    5.6180    0.7250   20.2650 C   0  0  0  0  0  0  0  0  0  0  0  0
    4.9700    1.3550   19.2070 C   0  0  0  0  0  0  0  0  0  0  0  0
    5.4890    1.2590   17.9060 C   0  0  0  0  0  0  0  0  0  0  0  0
    6.6120    0.5550   17.6320 N   0  0  0  0  0  0  0  0  0  0  0  0
    7.2840    0.0070   18.6570 C   0  0  0  0  0  0  0  0  0  0  0  0
    9.4190   -0.8790   22.4130 N   0  0  0  0  0  0  0  0  0  0  0  0
   10.7400   -0.5820   22.7920 C   0  0  1  0  0  0  0  0  0  0  0  0
   11.8160   -1.1550   22.0660 C   0  0  0  0  0  0  0  0  0  0  0  0
   13.1270   -0.7440   22.3530 C   0  0  0  0  0  0  0  0  0  0  0  0
   13.3200    0.4300   23.1670 C   0  0  0  0  0  0  0  0  0  0  0  0
   12.1970    1.2050   23.5920 C   0  0  1  0  0  0  0  0  0  0  0  0
   12.0180    2.6550   22.5250 S   0  0  0  0  0  0  0  0  0  0  0  0
   12.1070    4.2040   23.4330 C   0  0  0  0  0  0  0  0  0  0  0  0
   10.4690    5.0070   23.2610 P   0  0  0  0  0  0  0  0  0  0  0  0
   10.1390    6.0590   24.5000 O   0  0  0  0  0  0  0  0  0  0  0  0
   10.2570    4.7230   24.7500 O   0  0  0  0  0  0  0  0  0  0  0  0
    9.3250    3.9890   22.8760 O   0  0  0  0  0  0  0  0  0  0  0  0
   10.9920    0.5330   23.6890 C   0  0  0  0  0  0  0  0  0  0  0  0
  1  2  2  0
  2 10  1  0
  2  3  1  0
  3  4  1  0
  4  5  2  0
  4  9  1  0
  5  6  1  0
  6  7  2  0
  7  8  1  0
  8  9  2  0
 11 10  1  6
 11 12  1  0
 11 22  1  0
 12 13  2  0
 13 14  1  0
 14 15  1  0
 15 16  1  6
 15 22  1  0
 16 17  1  0
 17 18  1  0
 18 19  2  0
 18 20  1  0
 18 21  1  0
M  END
