WPC1577_minimised.pdb
     RDKit          3D

 20 21  0  0  1  0  0  0  0  0999 V2000
   11.6310    4.6650   22.9900 C   0  0  0  0  0  0  0  0  0  0  0  0
   10.4880    4.2840   23.9450 C   0  0  1  0  0  0  0  0  0  0  0  0
    9.2180    4.2790   23.2200 N   0  0  0  0  0  0  0  0  0  0  0  0
   10.7520    2.9220   24.6270 C   0  0  0  0  0  0  0  0  0  0  0  0
   10.7810    1.7180   23.6960 C   0  0  0  0  0  0  0  0  0  0  0  0
   11.9940    1.1850   23.2210 C   0  0  0  0  0  0  0  0  0  0  0  0
   11.9880    0.0810   22.3500 C   0  0  0  0  0  0  0  0  0  0  0  0
   10.7680   -0.4910   21.9500 C   0  0  0  0  0  0  0  0  0  0  0  0
    9.5610    0.0360   22.4330 C   0  0  0  0  0  0  0  0  0  0  0  0
    8.3150   -0.4300   21.9750 N   0  0  0  0  0  0  0  0  0  0  0  0
    7.8590   -0.2050   20.7090 C   0  0  0  0  0  0  0  0  0  0  0  0
    8.5730    0.0830   19.7690 O   0  0  0  0  0  0  0  0  0  0  0  0
    6.4960   -0.2430   20.6120 N   0  0  0  0  0  0  0  0  0  0  0  0
    5.7810    0.3500   19.5460 C   0  0  0  0  0  0  0  0  0  0  0  0
    4.8430    1.3500   19.8310 C   0  0  0  0  0  0  0  0  0  0  0  0
    4.2780    2.0400   18.7510 C   0  0  0  0  0  0  0  0  0  0  0  0
    4.6750    1.7240   17.4430 C   0  0  0  0  0  0  0  0  0  0  0  0
    5.5510    0.7330   17.1590 N   0  0  0  0  0  0  0  0  0  0  0  0
    6.0980    0.0740   18.1990 C   0  0  0  0  0  0  0  0  0  0  0  0
    9.5700    1.1240   23.3110 C   0  0  0  0  0  0  0  0  0  0  0  0
  2  1  1  6
  2  3  1  0
  2  4  1  0
  4  5  1  0
  5 20  2  0
  5  6  1  0
  6  7  2  0
  7  8  1  0
  8  9  2  0
  9 10  1  0
  9 20  1  0
 10 11  1  0
 11 12  2  0
 11 13  1  0
 13 14  1  0
 14 15  2  0
 14 19  1  0
 15 16  1  0
 16 17  2  0
 17 18  1  0
 18 19  2  0
M  END
