WPC1462_minimised.pdb
     RDKit          3D

 24 25  0  0  0  0  0  0  0  0999 V2000
   10.0530    5.6340   23.0080 C   0  0  0  0  0  0  0  0  0  0  0  0
   11.4710    5.6060   23.4310 N   0  0  0  0  0  0  0  0  0  0  0  0
   12.3590    5.0040   22.4110 C   0  0  0  0  0  0  0  0  0  0  0  0
   11.6420    5.0120   24.7810 C   0  0  0  0  0  0  0  0  0  0  0  0
   11.2620    3.5260   24.9280 C   0  0  0  0  0  0  0  0  0  0  0  0
   10.3180    3.1620   25.5960 O   0  0  0  0  0  0  0  0  0  0  0  0
   12.1130    2.6200   24.3380 N   0  0  0  0  0  0  0  0  0  0  0  0
   12.1500    1.2020   24.6870 C   0  0  0  0  0  0  0  0  0  0  0  0
   12.1270    0.3550   23.4500 C   0  0  0  0  0  0  0  0  0  0  0  0
   13.3170   -0.0120   22.7990 C   0  0  0  0  0  0  0  0  0  0  0  0
   13.2630   -0.8470   21.6750 C   0  0  0  0  0  0  0  0  0  0  0  0
   12.0180   -1.2770   21.1910 C   0  0  0  0  0  0  0  0  0  0  0  0
   10.8300   -0.8730   21.8190 C   0  0  0  0  0  0  0  0  0  0  0  0
    9.5660   -1.1950   21.2880 N   0  0  0  0  0  0  0  0  0  0  0  0
    8.7260   -0.2700   20.7300 C   0  0  0  0  0  0  0  0  0  0  0  0
    9.0260    0.8980   20.5860 O   0  0  0  0  0  0  0  0  0  0  0  0
    7.5290   -0.7790   20.3080 N   0  0  0  0  0  0  0  0  0  0  0  0
    6.5950   -0.0680   19.5150 C   0  0  0  0  0  0  0  0  0  0  0  0
    5.9140    1.0410   20.0370 C   0  0  0  0  0  0  0  0  0  0  0  0
    5.0660    1.7570   19.1770 C   0  0  0  0  0  0  0  0  0  0  0  0
    4.9570    1.3700   17.8320 C   0  0  0  0  0  0  0  0  0  0  0  0
    5.5960    0.2880   17.3320 N   0  0  0  0  0  0  0  0  0  0  0  0
    6.3990   -0.4040   18.1630 C   0  0  0  0  0  0  0  0  0  0  0  0
   10.8900   -0.0610   22.9510 C   0  0  0  0  0  0  0  0  0  0  0  0
  1  2  1  0
  2  3  1  0
  2  4  1  0
  4  5  1  0
  5  6  2  0
  5  7  1  0
  7  8  1  0
  8  9  1  0
  9 24  2  0
  9 10  1  0
 10 11  2  0
 11 12  1  0
 12 13  2  0
 13 14  1  0
 13 24  1  0
 14 15  1  0
 15 16  2  0
 15 17  1  0
 17 18  1  0
 18 19  2  0
 18 23  1  0
 19 20  1  0
 20 21  2  0
 21 22  1  0
 22 23  2  0
M  END
