WPC1362_minimised.pdb
     RDKit          3D

 21 22  0  0  0  0  0  0  0  0999 V2000
    8.4990   -0.0310   19.6800 O   0  0  0  0  0  0  0  0  0  0  0  0
    7.7850   -0.2330   20.6420 C   0  0  0  0  0  0  0  0  0  0  0  0
    6.4200   -0.1700   20.5780 N   0  0  0  0  0  0  0  0  0  0  0  0
    5.7170    0.4260   19.5050 C   0  0  0  0  0  0  0  0  0  0  0  0
    4.7820    1.4320   19.7830 C   0  0  0  0  0  0  0  0  0  0  0  0
    4.2290    2.1240   18.6990 C   0  0  0  0  0  0  0  0  0  0  0  0
    4.6360    1.8080   17.3940 C   0  0  0  0  0  0  0  0  0  0  0  0
    5.5040    0.8090   17.1170 N   0  0  0  0  0  0  0  0  0  0  0  0
    6.0360    0.1440   18.1600 C   0  0  0  0  0  0  0  0  0  0  0  0
    8.2560   -0.4620   21.9020 N   0  0  0  0  0  0  0  0  0  0  0  0
    9.5620   -0.1150   22.2900 C   0  0  0  0  0  0  0  0  0  0  0  0
   10.6710   -0.8690   21.8760 C   0  0  0  0  0  0  0  0  0  0  0  0
   11.9690   -0.4250   22.1790 C   0  0  0  0  0  0  0  0  0  0  0  0
   12.1510    0.7730   22.8910 C   0  0  0  0  0  0  0  0  0  0  0  0
   11.0360    1.5300   23.2990 C   0  0  0  0  0  0  0  0  0  0  0  0
   11.2060    2.8490   24.0260 C   0  0  0  0  0  0  0  0  0  0  0  0
   10.9910    4.0580   23.0980 C   0  0  0  0  0  0  0  0  0  0  0  0
   11.2270    5.3890   23.8250 N   0  0  0  0  0  0  0  0  0  0  0  0
   10.2380    6.0590   24.1020 O   0  0  0  0  0  0  0  0  0  0  0  0
   12.3700    5.6400   24.1910 O   0  0  0  0  0  0  0  0  0  0  0  0
    9.7450    1.0750   23.0010 C   0  0  0  0  0  0  0  0  0  0  0  0
  1  2  2  0
  2 10  1  0
  2  3  1  0
  3  4  1  0
  4  5  2  0
  4  9  1  0
  5  6  1  0
  6  7  2  0
  7  8  1  0
  8  9  2  0
 10 11  1  0
 11 12  2  0
 11 21  1  0
 12 13  1  0
 13 14  2  0
 14 15  1  0
 15 16  1  0
 15 21  2  0
 16 17  1  0
 17 18  1  0
 18 19  1  0
 18 20  2  0
M  CHG  2  18   1  19  -1
M  END
