WPC1743_minimised.pdb
     RDKit          3D

 24 25  0  0  0  0  0  0  0  0999 V2000
   14.0760    5.4930   20.6280 C   0  0  0  0  0  0  0  0  0  0  0  0
   14.3230    5.7090   22.1200 C   0  0  0  0  0  0  0  0  0  0  0  0
   13.8160    4.5640   23.0070 C   0  0  0  0  0  0  0  0  0  0  0  0
   12.2970    4.6150   23.2160 C   0  0  0  0  0  0  0  0  0  0  0  0
   11.9350    3.4350   23.9390 O   0  0  0  0  0  0  0  0  0  0  0  0
   10.6310    3.3030   24.3000 C   0  0  0  0  0  0  0  0  0  0  0  0
    9.8150    4.2080   24.2690 O   0  0  0  0  0  0  0  0  0  0  0  0
   10.3720    1.9290   24.8970 C   0  0  0  0  0  0  0  0  0  0  0  0
   10.3550    0.8470   23.8360 C   0  0  0  0  0  0  0  0  0  0  0  0
   11.5520    0.3190   23.3190 C   0  0  0  0  0  0  0  0  0  0  0  0
   11.5150   -0.6650   22.3170 C   0  0  0  0  0  0  0  0  0  0  0  0
   10.2770   -1.1090   21.8230 C   0  0  0  0  0  0  0  0  0  0  0  0
    9.0880   -0.5650   22.3290 C   0  0  0  0  0  0  0  0  0  0  0  0
    7.8400   -0.8530   21.7540 N   0  0  0  0  0  0  0  0  0  0  0  0
    7.5270   -0.5000   20.4750 C   0  0  0  0  0  0  0  0  0  0  0  0
    8.3420   -0.3050   19.5930 O   0  0  0  0  0  0  0  0  0  0  0  0
    6.1860   -0.2990   20.3180 N   0  0  0  0  0  0  0  0  0  0  0  0
    5.6040    0.4230   19.2540 C   0  0  0  0  0  0  0  0  0  0  0  0
    4.6690    1.4250   19.5430 C   0  0  0  0  0  0  0  0  0  0  0  0
    4.2080    2.2100   18.4790 C   0  0  0  0  0  0  0  0  0  0  0  0
    4.7100    1.9910   17.1890 C   0  0  0  0  0  0  0  0  0  0  0  0
    5.5870    1.0040   16.8990 N   0  0  0  0  0  0  0  0  0  0  0  0
    6.0260    0.2450   17.9210 C   0  0  0  0  0  0  0  0  0  0  0  0
    9.1260    0.3990   23.3400 C   0  0  0  0  0  0  0  0  0  0  0  0
  1  2  1  0
  2  3  1  0
  3  4  1  0
  4  5  1  0
  5  6  1  0
  6  7  2  0
  6  8  1  0
  8  9  1  0
  9 24  2  0
  9 10  1  0
 10 11  2  0
 11 12  1  0
 12 13  2  0
 13 14  1  0
 13 24  1  0
 14 15  1  0
 15 16  2  0
 15 17  1  0
 17 18  1  0
 18 19  2  0
 18 23  1  0
 19 20  1  0
 20 21  2  0
 21 22  1  0
 22 23  2  0
M  END
