WPC1558_minimised.pdb
     RDKit          3D

 22 23  0  0  1  0  0  0  0  0999 V2000
    9.6290    4.1810   23.3260 C   0  0  0  0  0  0  0  0  0  0  0  0
   10.6300    3.9370   24.4780 C   0  0  1  0  0  0  0  0  0  0  0  0
   10.7910    2.4390   24.8470 C   0  0  0  0  0  0  0  0  0  0  0  0
   10.7850    1.3970   23.7400 C   0  0  0  0  0  0  0  0  0  0  0  0
   11.9820    0.8490   23.2400 C   0  0  0  0  0  0  0  0  0  0  0  0
   11.9440   -0.1710   22.2740 C   0  0  0  0  0  0  0  0  0  0  0  0
   10.7070   -0.6580   21.8200 C   0  0  0  0  0  0  0  0  0  0  0  0
    9.5150   -0.1220   22.3300 C   0  0  0  0  0  0  0  0  0  0  0  0
    8.2560   -0.5180   21.8440 N   0  0  0  0  0  0  0  0  0  0  0  0
    7.8160   -0.2330   20.5850 C   0  0  0  0  0  0  0  0  0  0  0  0
    8.5410    0.0700   19.6590 O   0  0  0  0  0  0  0  0  0  0  0  0
    6.4530   -0.2270   20.4850 N   0  0  0  0  0  0  0  0  0  0  0  0
    5.7570    0.4030   19.4290 C   0  0  0  0  0  0  0  0  0  0  0  0
    4.8200    1.4010   19.7260 C   0  0  0  0  0  0  0  0  0  0  0  0
    4.2790    2.1250   18.6560 C   0  0  0  0  0  0  0  0  0  0  0  0
    4.7030    1.8490   17.3480 C   0  0  0  0  0  0  0  0  0  0  0  0
    5.5760    0.8610   17.0520 N   0  0  0  0  0  0  0  0  0  0  0  0
    6.0960    0.1640   18.0810 C   0  0  0  0  0  0  0  0  0  0  0  0
    9.5570    0.8920   23.2910 C   0  0  0  0  0  0  0  0  0  0  0  0
   11.9390    4.6170   24.2900 N   0  0  0  0  0  0  0  0  0  0  0  0
   12.6030    4.3820   22.9900 C   0  0  0  0  0  0  0  0  0  0  0  0
   11.9100    6.0480   24.6420 C   0  0  0  0  0  0  0  0  0  0  0  0
  2  1  1  6
  2 20  1  0
  2  3  1  0
  3  4  1  0
  4 19  2  0
  4  5  1  0
  5  6  2  0
  6  7  1  0
  7  8  2  0
  8  9  1  0
  8 19  1  0
  9 10  1  0
 10 11  2  0
 10 12  1  0
 12 13  1  0
 13 14  2  0
 13 18  1  0
 14 15  1  0
 15 16  2  0
 16 17  1  0
 17 18  2  0
 20 21  1  0
 20 22  1  0
M  END
