WPC1537_minimised.pdb
     RDKit          3D

 24 26  0  0  1  0  0  0  0  0999 V2000
   10.5190    2.1120   21.8000 C   0  0  0  0  0  0  0  0  0  0  0  0
   11.0920    2.7070   23.0930 C   0  0  1  0  0  0  0  0  0  0  0  0
   10.0340    2.7680   24.2160 C   0  0  0  0  0  0  0  0  0  0  0  0
    9.9310    1.4990   25.1050 C   0  0  0  0  0  0  0  0  0  0  0  0
    9.6310    0.2160   24.3540 C   0  0  0  0  0  0  0  0  0  0  0  0
   10.4690   -0.9040   24.4770 C   0  0  0  0  0  0  0  0  0  0  0  0
   10.2060   -2.0780   23.7470 C   0  0  0  0  0  0  0  0  0  0  0  0
    9.0930   -2.1310   22.8900 C   0  0  0  0  0  0  0  0  0  0  0  0
    8.2470   -1.0180   22.7920 C   0  0  0  0  0  0  0  0  0  0  0  0
    7.1240   -1.0110   21.9570 N   0  0  0  0  0  0  0  0  0  0  0  0
    7.1050   -0.4580   20.7100 C   0  0  0  0  0  0  0  0  0  0  0  0
    8.0840   -0.2420   20.0220 O   0  0  0  0  0  0  0  0  0  0  0  0
    5.8280   -0.1230   20.3570 N   0  0  0  0  0  0  0  0  0  0  0  0
    5.4320    0.6120   19.2190 C   0  0  0  0  0  0  0  0  0  0  0  0
    4.4430    1.5930   19.3580 C   0  0  0  0  0  0  0  0  0  0  0  0
    4.1080    2.3440   18.2260 C   0  0  0  0  0  0  0  0  0  0  0  0
    4.7730    2.1050   17.0170 C   0  0  0  0  0  0  0  0  0  0  0  0
    5.7030    1.1340   16.8650 N   0  0  0  0  0  0  0  0  0  0  0  0
    6.0330    0.4180   17.9580 C   0  0  0  0  0  0  0  0  0  0  0  0
    8.5030    0.1400   23.5310 C   0  0  0  0  0  0  0  0  0  0  0  0
   12.5080    2.3260   23.4580 C   0  0  0  0  0  0  0  0  0  0  0  0
   12.2100    3.7450   23.0400 C   0  0  0  0  0  0  0  0  0  0  0  0
   12.3430    5.2070   24.3120 Br  0  0  0  0  0  0  0  0  0  0  0  0
   13.0050    4.3660   21.3880 Br  0  0  0  0  0  0  0  0  0  0  0  0
  2  1  1  6
  2  3  1  0
  2 21  1  0
  2 22  1  0
  3  4  1  0
  4  5  1  0
  5  6  2  0
  5 20  1  0
  6  7  1  0
  7  8  2  0
  8  9  1  0
  9 10  1  0
  9 20  2  0
 10 11  1  0
 11 13  1  0
 11 12  2  0
 13 14  1  0
 14 15  2  0
 14 19  1  0
 15 16  1  0
 16 17  2  0
 17 18  1  0
 18 19  2  0
 21 22  1  0
 22 24  1  0
 22 23  1  0
M  END
