WPC1767_minimised.pdb
     RDKit          3D

 24 25  0  0  0  0  0  0  0  0999 V2000
    8.5000    0.0580   19.7030 O   0  0  0  0  0  0  0  0  0  0  0  0
    7.7850   -0.2260   20.6430 C   0  0  0  0  0  0  0  0  0  0  0  0
    6.4210   -0.1700   20.5720 N   0  0  0  0  0  0  0  0  0  0  0  0
    5.7170    0.4350   19.5050 C   0  0  0  0  0  0  0  0  0  0  0  0
    4.7760    1.4330   19.7860 C   0  0  0  0  0  0  0  0  0  0  0  0
    4.2240    2.1270   18.7020 C   0  0  0  0  0  0  0  0  0  0  0  0
    4.6390    1.8210   17.3970 C   0  0  0  0  0  0  0  0  0  0  0  0
    5.5130    0.8280   17.1180 N   0  0  0  0  0  0  0  0  0  0  0  0
    6.0450    0.1620   18.1600 C   0  0  0  0  0  0  0  0  0  0  0  0
    8.2550   -0.5620   21.8800 N   0  0  0  0  0  0  0  0  0  0  0  0
    9.5960   -0.3710   22.2590 C   0  0  0  0  0  0  0  0  0  0  0  0
   10.6170   -1.1320   21.6750 C   0  0  0  0  0  0  0  0  0  0  0  0
   11.9600   -0.8220   21.9320 C   0  0  0  0  0  0  0  0  0  0  0  0
   12.2760    0.2460   22.7860 C   0  0  0  0  0  0  0  0  0  0  0  0
   11.2500    0.9960   23.3940 C   0  0  0  0  0  0  0  0  0  0  0  0
   11.5870    2.0990   24.3810 C   0  0  0  0  0  0  0  0  0  0  0  0
   11.5780    3.4860   23.8480 N   0  0  0  0  0  0  0  0  0  0  0  0
   12.5930    3.6840   22.7790 C   0  0  0  0  0  0  0  0  0  0  0  0
   13.3740    5.0140   22.8640 C   0  0  0  0  0  0  0  0  0  0  0  0
   14.1590    5.2250   21.6880 O   0  0  0  0  0  0  0  0  0  0  0  0
   10.2040    3.9040   23.4400 C   0  0  0  0  0  0  0  0  0  0  0  0
   10.0370    5.4300   23.3030 C   0  0  0  0  0  0  0  0  0  0  0  0
   10.6300    6.0130   24.4540 O   0  0  0  0  0  0  0  0  0  0  0  0
    9.9100    0.6750   23.1320 C   0  0  0  0  0  0  0  0  0  0  0  0
  1  2  2  0
  2 10  1  0
  2  3  1  0
  3  4  1  0
  4  5  2  0
  4  9  1  0
  5  6  1  0
  6  7  2  0
  7  8  1  0
  8  9  2  0
 10 11  1  0
 11 12  2  0
 11 24  1  0
 12 13  1  0
 13 14  2  0
 14 15  1  0
 15 16  1  0
 15 24  2  0
 16 17  1  0
 17 18  1  0
 17 21  1  0
 18 19  1  0
 19 20  1  0
 21 22  1  0
 22 23  1  0
M  END
