WPC1067_minimised.pdb
     RDKit          3D

 21 22  0  0  1  0  0  0  0  0999 V2000
   13.1710    4.7310   22.5930 C   0  0  0  0  0  0  0  0  0  0  0  0
   12.8300    3.4510   23.2320 N   0  0  0  0  0  0  0  0  0  0  0  0
   13.6580    2.3260   22.7500 C   0  0  0  0  0  0  0  0  0  0  0  0
   13.3610    0.9950   23.4850 C   0  0  2  0  0  0  0  0  0  0  0  0
   14.3430    0.0070   23.1650 O   0  0  0  0  0  0  0  0  0  0  0  0
   11.9560    0.4930   23.1940 C   0  0  0  0  0  0  0  0  0  0  0  0
   11.7110   -0.4500   22.1770 C   0  0  0  0  0  0  0  0  0  0  0  0
   10.3970   -0.8100   21.8600 C   0  0  0  0  0  0  0  0  0  0  0  0
    9.3220   -0.2200   22.5370 C   0  0  0  0  0  0  0  0  0  0  0  0
    8.0100   -0.3930   22.0590 N   0  0  0  0  0  0  0  0  0  0  0  0
    7.6380   -0.1190   20.7710 C   0  0  0  0  0  0  0  0  0  0  0  0
    8.4160    0.0770   19.8560 O   0  0  0  0  0  0  0  0  0  0  0  0
    6.2830   -0.0280   20.6230 N   0  0  0  0  0  0  0  0  0  0  0  0
    5.6410    0.5530   19.5050 C   0  0  0  0  0  0  0  0  0  0  0  0
    4.6770    1.5440   19.7230 C   0  0  0  0  0  0  0  0  0  0  0  0
    4.1640    2.2090   18.6020 C   0  0  0  0  0  0  0  0  0  0  0  0
    4.6390    1.8800   17.3250 C   0  0  0  0  0  0  0  0  0  0  0  0
    5.5320    0.8880   17.1020 N   0  0  0  0  0  0  0  0  0  0  0  0
    6.0310    0.2540   18.1820 C   0  0  0  0  0  0  0  0  0  0  0  0
    9.5580    0.6620   23.5990 C   0  0  0  0  0  0  0  0  0  0  0  0
   10.8740    1.0120   23.9320 C   0  0  0  0  0  0  0  0  0  0  0  0
  1  2  1  0
  2  3  1  0
  3  4  1  0
  4  5  1  6
  4  6  1  0
  6 21  2  0
  6  7  1  0
  7  8  2  0
  8  9  1  0
  9 10  1  0
  9 20  2  0
 10 11  1  0
 11 12  2  0
 11 13  1  0
 13 14  1  0
 14 15  2  0
 14 19  1  0
 15 16  1  0
 16 17  2  0
 17 18  1  0
 18 19  2  0
 20 21  1  0
M  END
