WPC1633_minimised.pdb
     RDKit          3D

 22 23  0  0  0  0  0  0  0  0999 V2000
   10.0620    6.2660   23.4170 N   0  0  0  0  0  0  0  0  0  0  0  0
   10.8270    5.5320   24.4330 C   0  0  0  0  0  0  0  0  0  0  0  0
   12.3440    5.7700   24.2840 C   0  0  0  0  0  0  0  0  0  0  0  0
   13.0340    5.2190   22.6630 S   0  0  0  0  0  0  0  0  0  0  0  0
   12.1310    3.6490   22.3370 C   0  0  0  0  0  0  0  0  0  0  0  0
   12.5440    2.5170   23.2950 C   0  0  0  0  0  0  0  0  0  0  0  0
   11.9730    1.1600   22.9120 C   0  0  0  0  0  0  0  0  0  0  0  0
   12.8270    0.0630   22.7050 C   0  0  0  0  0  0  0  0  0  0  0  0
   12.3000   -1.1930   22.3630 C   0  0  0  0  0  0  0  0  0  0  0  0
   10.9140   -1.3580   22.2190 C   0  0  0  0  0  0  0  0  0  0  0  0
   10.0600   -0.2640   22.4110 C   0  0  0  0  0  0  0  0  0  0  0  0
    8.6810   -0.3860   22.1470 N   0  0  0  0  0  0  0  0  0  0  0  0
    8.1210   -0.0170   20.9560 C   0  0  0  0  0  0  0  0  0  0  0  0
    8.7780    0.3860   20.0190 O   0  0  0  0  0  0  0  0  0  0  0  0
    6.7570   -0.1080   20.8990 N   0  0  0  0  0  0  0  0  0  0  0  0
    5.9920    0.3760   19.8070 C   0  0  0  0  0  0  0  0  0  0  0  0
    5.0020    1.3390   20.0360 C   0  0  0  0  0  0  0  0  0  0  0  0
    4.3930    1.9250   18.9190 C   0  0  0  0  0  0  0  0  0  0  0  0
    4.7910    1.5400   17.6300 C   0  0  0  0  0  0  0  0  0  0  0  0
    5.7030    0.5700   17.3980 N   0  0  0  0  0  0  0  0  0  0  0  0
    6.3030    0.0210   18.4750 C   0  0  0  0  0  0  0  0  0  0  0  0
   10.5860    0.9890   22.7600 C   0  0  0  0  0  0  0  0  0  0  0  0
  1  2  1  0
  2  3  1  0
  3  4  1  0
  4  5  1  0
  5  6  1  0
  6  7  1  0
  7 22  2  0
  7  8  1  0
  8  9  2  0
  9 10  1  0
 10 11  2  0
 11 12  1  0
 11 22  1  0
 12 13  1  0
 13 14  2  0
 13 15  1  0
 15 16  1  0
 16 17  2  0
 16 21  1  0
 17 18  1  0
 18 19  2  0
 19 20  1  0
 20 21  2  0
M  END
