WPC1353_minimised.pdb
     RDKit          3D

 23 25  0  0  0  0  0  0  0  0999 V2000
    9.7390    5.5800   23.1560 C   0  0  0  0  0  0  0  0  0  0  0  0
   11.0910    5.6200   23.8060 C   0  0  0  0  0  0  0  0  0  0  0  0
   11.4010    6.2700   24.9020 N   0  0  0  0  0  0  0  0  0  0  0  0
   12.7800    6.0420   25.0390 O   0  0  0  0  0  0  0  0  0  0  0  0
   13.3030    5.2390   24.0100 N   0  0  0  0  0  0  0  0  0  0  0  0
   12.2500    4.9980   23.2710 C   0  0  0  0  0  0  0  0  0  0  0  0
   12.4390    4.0790   21.7980 S   0  0  0  0  0  0  0  0  0  0  0  0
   11.8120    2.6080   22.5890 C   0  0  0  0  0  0  0  0  0  0  0  0
   12.6310    1.8640   23.4460 C   0  0  0  0  0  0  0  0  0  0  0  0
   12.1220    0.7240   24.0900 C   0  0  0  0  0  0  0  0  0  0  0  0
   10.8140    0.2820   23.8220 C   0  0  0  0  0  0  0  0  0  0  0  0
   10.0200    0.9790   22.8990 C   0  0  0  0  0  0  0  0  0  0  0  0
    8.7340    0.5030   22.5480 N   0  0  0  0  0  0  0  0  0  0  0  0
    8.2480    0.4660   21.2670 C   0  0  0  0  0  0  0  0  0  0  0  0
    8.9350    0.7010   20.2930 O   0  0  0  0  0  0  0  0  0  0  0  0
    6.9080    0.2100   21.1590 N   0  0  0  0  0  0  0  0  0  0  0  0
    6.1570    0.5230   19.9970 C   0  0  0  0  0  0  0  0  0  0  0  0
    5.1230    1.4600   20.1070 C   0  0  0  0  0  0  0  0  0  0  0  0
    4.5160    1.9050   18.9270 C   0  0  0  0  0  0  0  0  0  0  0  0
    4.9600    1.4130   17.6920 C   0  0  0  0  0  0  0  0  0  0  0  0
    5.9170    0.4660   17.5740 N   0  0  0  0  0  0  0  0  0  0  0  0
    6.5170    0.0520   18.7120 C   0  0  0  0  0  0  0  0  0  0  0  0
   10.5170    2.1520   22.3050 C   0  0  0  0  0  0  0  0  0  0  0  0
  1  2  1  0
  2  3  2  0
  2  6  1  0
  3  4  1  0
  4  5  1  0
  5  6  2  0
  6  7  1  0
  7  8  1  0
  8 23  1  0
  8  9  2  0
  9 10  1  0
 10 11  2  0
 11 12  1  0
 12 13  1  0
 12 23  2  0
 13 14  1  0
 14 15  2  0
 14 16  1  0
 16 17  1  0
 17 18  2  0
 17 22  1  0
 18 19  1  0
 19 20  2  0
 20 21  1  0
 21 22  2  0
M  END
