WPC1409_minimised.pdb
     RDKit          3D

 21 22  0  0  0  0  0  0  0  0999 V2000
    9.1220    0.5320   20.4650 O   0  0  0  0  0  0  0  0  0  0  0  0
    8.5770   -0.3790   21.0820 C   0  0  0  0  0  0  0  0  0  0  0  0
    7.2600   -0.7050   20.8630 N   0  0  0  0  0  0  0  0  0  0  0  0
    6.4870   -0.0510   19.8630 C   0  0  0  0  0  0  0  0  0  0  0  0
    5.3840    0.7580   20.2020 C   0  0  0  0  0  0  0  0  0  0  0  0
    4.7810    1.4560   19.1580 C   0  0  0  0  0  0  0  0  0  0  0  0
    5.2690    1.3680   17.8740 C   0  0  0  0  0  0  0  0  0  0  0  0
    6.2930    0.5430   17.5430 N   0  0  0  0  0  0  0  0  0  0  0  0
    6.9160   -0.1230   18.5250 C   0  0  0  0  0  0  0  0  0  0  0  0
    9.2720   -1.1400   21.9840 N   0  0  0  0  0  0  0  0  0  0  0  0
   10.5690   -0.8020   22.4340 C   0  0  0  0  0  0  0  0  0  0  0  0
   11.7200   -1.1340   21.7940 C   0  0  0  0  0  0  0  0  0  0  0  0
   12.9560   -0.6480   22.0800 C   0  0  0  0  0  0  0  0  0  0  0  0
   13.0180    0.5330   22.9380 C   0  0  0  0  0  0  0  0  0  0  0  0
   11.8470    0.9490   23.5600 C   0  0  0  0  0  0  0  0  0  0  0  0
   11.9000    2.2670   24.4070 C   0  0  0  0  0  0  0  0  0  0  0  0
   11.3090    3.7540   23.4170 S   0  0  0  0  0  0  0  0  0  0  0  0
   12.2540    4.7200   22.9600 O   0  0  0  0  0  0  0  0  0  0  0  0
   10.0170    4.0620   23.3750 O   0  0  0  0  0  0  0  0  0  0  0  0
   11.8130    4.8660   24.2980 O   0  0  0  0  0  0  0  0  0  0  0  0
   10.5990    0.3310   23.3130 C   0  0  0  0  0  0  0  0  0  0  0  0
  1  2  2  0
  2 10  1  0
  2  3  1  0
  3  4  1  0
  4  5  2  0
  4  9  1  0
  5  6  1  0
  6  7  2  0
  7  8  1  0
  8  9  2  0
 10 11  1  0
 11 12  2  0
 11 21  1  0
 12 13  1  0
 13 14  2  0
 14 15  1  0
 15 16  1  0
 15 21  2  0
 16 17  1  0
 17 18  2  0
 17 19  2  0
 17 20  1  0
M  END
