WPC1330_minimised.pdb
     RDKit          3D

 23 25  0  0  0  0  0  0  0  0999 V2000
    8.7390    0.2550   19.9770 O   0  0  0  0  0  0  0  0  0  0  0  0
    8.0740   -0.2040   20.8830 C   0  0  0  0  0  0  0  0  0  0  0  0
    6.7100   -0.2700   20.8120 N   0  0  0  0  0  0  0  0  0  0  0  0
    5.9670    0.3080   19.7530 C   0  0  0  0  0  0  0  0  0  0  0  0
    5.0220    1.3030   20.0330 C   0  0  0  0  0  0  0  0  0  0  0  0
    4.4460    1.9770   18.9470 C   0  0  0  0  0  0  0  0  0  0  0  0
    4.8320    1.6460   17.6390 C   0  0  0  0  0  0  0  0  0  0  0  0
    5.7080    0.6560   17.3590 N   0  0  0  0  0  0  0  0  0  0  0  0
    6.2730    0.0180   18.4040 C   0  0  0  0  0  0  0  0  0  0  0  0
    8.6180   -0.6450   22.0570 N   0  0  0  0  0  0  0  0  0  0  0  0
    9.9730   -0.4310   22.3750 C   0  0  0  0  0  0  0  0  0  0  0  0
   10.9450   -1.3960   22.0740 C   0  0  0  0  0  0  0  0  0  0  0  0
   12.3060   -1.0810   22.2150 C   0  0  0  0  0  0  0  0  0  0  0  0
   12.6860    0.2020   22.6460 C   0  0  0  0  0  0  0  0  0  0  0  0
   11.7120    1.1620   22.9610 C   0  0  0  0  0  0  0  0  0  0  0  0
   12.2380    2.8060   23.4100 S   0  0  0  0  0  0  0  0  0  0  0  0
   10.8790    3.5680   24.3980 C   0  0  0  0  0  0  0  0  0  0  0  0
    9.9950    4.4790   23.6030 C   0  0  0  0  0  0  0  0  0  0  0  0
    9.2140    4.1110   22.5370 N   0  0  0  0  0  0  0  0  0  0  0  0
    8.5380    5.2360   22.1230 C   0  0  0  0  0  0  0  0  0  0  0  0
    9.0000    6.2440   22.9210 C   0  0  0  0  0  0  0  0  0  0  0  0
    9.8670    5.7630   23.8680 N   0  0  0  0  0  0  0  0  0  0  0  0
   10.3540    0.8330   22.8380 C   0  0  0  0  0  0  0  0  0  0  0  0
  1  2  2  0
  2  3  1  0
  2 10  1  0
  3  4  1  0
  4  5  2  0
  4  9  1  0
  5  6  1  0
  6  7  2  0
  7  8  1  0
  8  9  2  0
 10 11  1  0
 11 23  1  0
 11 12  2  0
 12 13  1  0
 13 14  2  0
 14 15  1  0
 15 16  1  0
 15 23  2  0
 16 17  1  0
 17 18  1  0
 18 19  1  0
 18 22  2  0
 19 20  1  0
 20 21  2  0
 21 22  1  0
M  END
