WPC1302_minimised.pdb
     RDKit          3D

 24 26  0  0  0  0  0  0  0  0999 V2000
    8.4830   -0.3810   19.6530 O   0  0  0  0  0  0  0  0  0  0  0  0
    7.7380   -0.7500   20.5390 C   0  0  0  0  0  0  0  0  0  0  0  0
    6.3770   -0.6450   20.4540 N   0  0  0  0  0  0  0  0  0  0  0  0
    5.7180    0.1070   19.4530 C   0  0  0  0  0  0  0  0  0  0  0  0
    4.8180    1.1150   19.8250 C   0  0  0  0  0  0  0  0  0  0  0  0
    4.2990    1.9310   18.8110 C   0  0  0  0  0  0  0  0  0  0  0  0
    4.7020    1.7280   17.4820 C   0  0  0  0  0  0  0  0  0  0  0  0
    5.5480    0.7400   17.1160 N   0  0  0  0  0  0  0  0  0  0  0  0
    6.0500   -0.0420   18.0910 C   0  0  0  0  0  0  0  0  0  0  0  0
    8.1620   -1.2140   21.7500 N   0  0  0  0  0  0  0  0  0  0  0  0
    9.3620   -0.7470   22.3100 C   0  0  0  0  0  0  0  0  0  0  0  0
   10.6200   -1.1600   21.8470 C   0  0  0  0  0  0  0  0  0  0  0  0
   11.7790   -0.5010   22.2920 C   0  0  0  0  0  0  0  0  0  0  0  0
   11.6700    0.5700   23.1970 C   0  0  0  0  0  0  0  0  0  0  0  0
   10.4040    0.9640   23.6660 C   0  0  0  0  0  0  0  0  0  0  0  0
   10.2220    2.1500   24.5810 C   0  0  0  0  0  0  0  0  0  0  0  0
    9.6700    3.6300   23.6310 S   0  0  0  0  0  0  0  0  0  0  0  0
   11.1670    4.5320   23.5290 C   0  0  0  0  0  0  0  0  0  0  0  0
   11.3580    5.8550   23.8390 N   0  0  0  0  0  0  0  0  0  0  0  0
   12.6510    6.0150   23.7550 N   0  0  0  0  0  0  0  0  0  0  0  0
   13.2930    4.8370   23.4030 C   0  0  0  0  0  0  0  0  0  0  0  0
   14.4830    4.6400   23.2590 O   0  0  0  0  0  0  0  0  0  0  0  0
   12.2980    3.9020   23.3330 N   0  0  0  0  0  0  0  0  0  0  0  0
    9.2580    0.2960   23.2290 C   0  0  0  0  0  0  0  0  0  0  0  0
  1  2  2  0
  2 10  1  0
  2  3  1  0
  3  4  1  0
  4  5  2  0
  4  9  1  0
  5  6  1  0
  6  7  2  0
  7  8  1  0
  8  9  2  0
 10 11  1  0
 11 12  2  0
 11 24  1  0
 12 13  1  0
 13 14  2  0
 14 15  1  0
 15 16  1  0
 15 24  2  0
 16 17  1  0
 17 18  1  0
 18 19  1  0
 18 23  2  0
 19 20  2  0
 20 21  1  0
 21 22  2  0
 21 23  1  0
M  END
