WPC1436_minimised.pdb
     RDKit          3D

 23 24  0  0  0  0  0  0  0  0999 V2000
    9.4160    0.3050   20.7600 O   0  0  0  0  0  0  0  0  0  0  0  0
    8.8370   -0.4700   21.3070 C   0  0  0  0  0  0  0  0  0  0  0  0
    7.4840   -0.7250   21.1090 N   0  0  0  0  0  0  0  0  0  0  0  0
    6.7840   -0.0250   19.9660 C   0  0  0  0  0  0  0  0  0  0  0  0
    5.6250    0.7260   20.3140 C   0  0  0  0  0  0  0  0  0  0  0  0
    4.9720    1.3590   19.2250 C   0  0  0  0  0  0  0  0  0  0  0  0
    5.4180    1.2030   17.9400 C   0  0  0  0  0  0  0  0  0  0  0  0
    6.5670    0.5160   17.6210 N   0  0  0  0  0  0  0  0  0  0  0  0
    7.2220   -0.0670   18.7170 C   0  0  0  0  0  0  0  0  0  0  0  0
    9.3910   -1.4140   22.2360 N   0  0  0  0  0  0  0  0  0  0  0  0
   10.6540   -1.0390   22.8650 C   0  0  0  0  0  0  0  0  0  0  0  0
   11.8230   -1.2020   22.0000 C   0  0  0  0  0  0  0  0  0  0  0  0
   12.9550   -0.3390   22.3370 C   0  0  0  0  0  0  0  0  0  0  0  0
   12.7710    0.6860   23.1670 C   0  0  0  0  0  0  0  0  0  0  0  0
   11.5710    0.8950   23.8690 C   0  0  0  0  0  0  0  0  0  0  0  0
   10.7410    2.4460   23.7130 S   0  0  0  0  0  0  0  0  0  0  0  0
   11.8070    3.9970   24.1020 C   0  0  0  0  0  0  0  0  0  0  0  0
   13.2040    3.9760   23.4410 C   0  0  0  0  0  0  0  0  0  0  0  0
   13.3860    5.3460   22.5690 P   0  0  0  0  0  0  0  0  0  0  0  0
   13.9300    5.7420   21.2260 O   0  0  0  0  0  0  0  0  0  0  0  0
   13.1750    6.5390   23.4100 O   0  0  0  0  0  0  0  0  0  0  0  0
   14.6470    5.5490   21.9420 O   0  0  0  0  0  0  0  0  0  0  0  0
   10.5620   -0.2050   23.7880 C   0  0  0  0  0  0  0  0  0  0  0  0
  1  2  2  0
  2 10  1  0
  2  3  1  0
  3  4  1  0
  4  5  2  0
  4  9  1  0
  5  6  1  0
  6  7  2  0
  7  8  1  0
  8  9  2  0
 10 11  1  0
 11 12  2  0
 11 23  1  0
 12 13  1  0
 13 14  2  0
 14 15  1  0
 15 16  1  0
 15 23  2  0
 16 17  1  0
 17 18  1  0
 18 19  1  0
 19 20  2  0
 19 21  1  0
 19 22  1  0
M  END
