WPC1547_minimised.pdb
     RDKit          3D

 22 23  0  0  1  0  0  0  0  0999 V2000
   10.3220    5.5790   22.7790 N   0  0  0  0  0  0  0  0  0  0  0  0
   11.4420    5.0960   23.6350 C   0  0  1  0  0  0  0  0  0  0  0  0
   11.0360    3.8220   24.4090 C   0  0  0  0  0  0  0  0  0  0  0  0
   10.9550    2.5280   23.6090 C   0  0  0  0  0  0  0  0  0  0  0  0
   12.1180    1.8000   23.2860 C   0  0  0  0  0  0  0  0  0  0  0  0
   12.0260    0.5680   22.6160 C   0  0  0  0  0  0  0  0  0  0  0  0
   10.7680    0.0510   22.2700 C   0  0  0  0  0  0  0  0  0  0  0  0
    9.6080    0.7640   22.6040 C   0  0  0  0  0  0  0  0  0  0  0  0
    8.3370    0.2930   22.2180 N   0  0  0  0  0  0  0  0  0  0  0  0
    7.9080    0.2650   20.9230 C   0  0  0  0  0  0  0  0  0  0  0  0
    8.6420    0.4060   19.9680 O   0  0  0  0  0  0  0  0  0  0  0  0
    6.5500    0.1610   20.7980 N   0  0  0  0  0  0  0  0  0  0  0  0
    5.8460    0.6060   19.6560 C   0  0  0  0  0  0  0  0  0  0  0  0
    4.8630    1.5890   19.8220 C   0  0  0  0  0  0  0  0  0  0  0  0
    4.3210    2.1690   18.6690 C   0  0  0  0  0  0  0  0  0  0  0  0
    4.7850    1.7680   17.4100 C   0  0  0  0  0  0  0  0  0  0  0  0
    5.6890    0.7770   17.2370 N   0  0  0  0  0  0  0  0  0  0  0  0
    6.2170    0.2230   18.3480 C   0  0  0  0  0  0  0  0  0  0  0  0
    9.7010    1.9960   23.2670 C   0  0  0  0  0  0  0  0  0  0  0  0
   12.8150    4.9260   22.9350 C   0  0  0  0  0  0  0  0  0  0  0  0
   13.8540    4.6950   23.5260 O   0  0  0  0  0  0  0  0  0  0  0  0
   12.7700    5.0850   21.6060 O   0  0  0  0  0  0  0  0  0  0  0  0
  2  1  1  6
  2 20  1  0
  2  3  1  0
  3  4  1  0
  4 19  2  0
  4  5  1  0
  5  6  2  0
  6  7  1  0
  7  8  2  0
  8  9  1  0
  8 19  1  0
  9 10  1  0
 10 11  2  0
 10 12  1  0
 12 13  1  0
 13 14  2  0
 13 18  1  0
 14 15  1  0
 15 16  2  0
 16 17  1  0
 17 18  2  0
 20 21  2  0
 20 22  1  0
M  END
