WPC1497_minimised.pdb
     RDKit          3D

 21 22  0  0  0  0  0  0  0  0999 V2000
   12.5970    5.9030   24.2570 N   0  0  0  0  0  0  0  0  0  0  0  0
   12.0080    5.2060   23.1030 C   0  0  0  0  0  0  0  0  0  0  0  0
   12.1320    3.6800   23.2420 C   0  0  0  0  0  0  0  0  0  0  0  0
   11.1920    3.1120   24.3260 C   0  0  0  0  0  0  0  0  0  0  0  0
   11.4900    1.6340   24.6590 C   0  0  0  0  0  0  0  0  0  0  0  0
   11.1560    0.6670   23.5460 C   0  0  0  0  0  0  0  0  0  0  0  0
   12.1760    0.0210   22.8250 C   0  0  0  0  0  0  0  0  0  0  0  0
   11.8500   -0.9480   21.8640 C   0  0  0  0  0  0  0  0  0  0  0  0
   10.5020   -1.2360   21.6020 C   0  0  0  0  0  0  0  0  0  0  0  0
    9.4870   -0.5400   22.2710 C   0  0  0  0  0  0  0  0  0  0  0  0
    8.1440   -0.6770   21.8800 N   0  0  0  0  0  0  0  0  0  0  0  0
    7.6970   -0.3420   20.6330 C   0  0  0  0  0  0  0  0  0  0  0  0
    8.4270   -0.1330   19.6830 O   0  0  0  0  0  0  0  0  0  0  0  0
    6.3390   -0.2040   20.5670 N   0  0  0  0  0  0  0  0  0  0  0  0
    5.6590    0.4270   19.5000 C   0  0  0  0  0  0  0  0  0  0  0  0
    4.7280    1.4330   19.7850 C   0  0  0  0  0  0  0  0  0  0  0  0
    4.1920    2.1480   18.7060 C   0  0  0  0  0  0  0  0  0  0  0  0
    4.6130    1.8510   17.4010 C   0  0  0  0  0  0  0  0  0  0  0  0
    5.4740    0.8490   17.1150 N   0  0  0  0  0  0  0  0  0  0  0  0
    5.9900    0.1630   18.1530 C   0  0  0  0  0  0  0  0  0  0  0  0
    9.8120    0.3900   23.2610 C   0  0  0  0  0  0  0  0  0  0  0  0
  1  2  1  0
  2  3  1  0
  3  4  1  0
  4  5  1  0
  5  6  1  0
  6 21  2  0
  6  7  1  0
  7  8  2  0
  8  9  1  0
  9 10  2  0
 10 11  1  0
 10 21  1  0
 11 12  1  0
 12 13  2  0
 12 14  1  0
 14 15  1  0
 15 16  2  0
 15 20  1  0
 16 17  1  0
 17 18  2  0
 18 19  1  0
 19 20  2  0
M  END
