WPC1629_minimised.pdb
     RDKit          3D

 24 25  0  0  0  0  0  0  0  0999 V2000
    5.7560    3.9160   21.9390 C   0  0  0  0  0  0  0  0  0  0  0  0
    6.9460    3.0810   22.4420 C   0  0  0  0  0  0  0  0  0  0  0  0
    8.3850    4.1780   22.7750 S   0  0  0  0  0  0  0  0  0  0  0  0
    9.4880    3.0910   23.5240 C   0  0  0  0  0  0  0  0  0  0  0  0
    9.1720    2.1100   24.2920 N   0  0  0  0  0  0  0  0  0  0  0  0
   10.1450    1.3320   25.0750 C   0  0  0  0  0  0  0  0  0  0  0  0
   10.7130    3.4320   22.9890 N   0  0  0  0  0  0  0  0  0  0  0  0
   11.9660    2.6600   22.8790 C   0  0  0  0  0  0  0  0  0  0  0  0
   11.8320    1.2060   22.4110 C   0  0  0  0  0  0  0  0  0  0  0  0
   12.9130    0.3160   22.5630 C   0  0  0  0  0  0  0  0  0  0  0  0
   12.7430   -1.0560   22.3060 C   0  0  0  0  0  0  0  0  0  0  0  0
   11.4770   -1.5570   21.9630 C   0  0  0  0  0  0  0  0  0  0  0  0
   10.4160   -0.6740   21.7400 C   0  0  0  0  0  0  0  0  0  0  0  0
    9.1240   -1.1450   21.4070 N   0  0  0  0  0  0  0  0  0  0  0  0
    8.3130   -0.5430   20.4850 C   0  0  0  0  0  0  0  0  0  0  0  0
    8.7080    0.3100   19.7190 O   0  0  0  0  0  0  0  0  0  0  0  0
    6.9960   -0.9130   20.4820 N   0  0  0  0  0  0  0  0  0  0  0  0
    6.0830   -0.2720   19.6090 C   0  0  0  0  0  0  0  0  0  0  0  0
    5.2680    0.7650   20.0850 C   0  0  0  0  0  0  0  0  0  0  0  0
    4.6050    1.5650   19.1390 C   0  0  0  0  0  0  0  0  0  0  0  0
    4.7770    1.3030   17.7710 C   0  0  0  0  0  0  0  0  0  0  0  0
    5.5280    0.2790   17.3110 N   0  0  0  0  0  0  0  0  0  0  0  0
    6.1800   -0.4730   18.2180 C   0  0  0  0  0  0  0  0  0  0  0  0
   10.6200    0.7020   21.9090 C   0  0  0  0  0  0  0  0  0  0  0  0
  1  2  1  0
  2  3  1  0
  3  4  1  0
  4  5  2  0
  4  7  1  0
  5  6  1  0
  7  8  1  0
  8  9  1  0
  9 24  2  0
  9 10  1  0
 10 11  2  0
 11 12  1  0
 12 13  2  0
 13 14  1  0
 13 24  1  0
 14 15  1  0
 15 16  2  0
 15 17  1  0
 17 18  1  0
 18 19  2  0
 18 23  1  0
 19 20  1  0
 20 21  2  0
 21 22  1  0
 22 23  2  0
M  END
