WPC1192_minimised.pdb
     RDKit          3D

 19 20  0  0  0  0  0  0  0  0999 V2000
   11.7500    4.6240   22.9710 C   0  0  0  0  0  0  0  0  0  0  0  0
   10.5300    4.1680   23.7940 C   0  0  0  0  0  0  0  0  0  0  0  0
   10.7930    2.8410   24.5340 C   0  0  0  0  0  0  0  0  0  0  0  0
   10.8080    1.6230   23.6280 C   0  0  0  0  0  0  0  0  0  0  0  0
   12.0140    1.0580   23.1730 C   0  0  0  0  0  0  0  0  0  0  0  0
   11.9930   -0.0590   22.3180 C   0  0  0  0  0  0  0  0  0  0  0  0
   10.7650   -0.6120   21.9180 C   0  0  0  0  0  0  0  0  0  0  0  0
    9.5650   -0.0520   22.3810 C   0  0  0  0  0  0  0  0  0  0  0  0
    8.3120   -0.5070   21.9300 N   0  0  0  0  0  0  0  0  0  0  0  0
    7.8510   -0.2750   20.6680 C   0  0  0  0  0  0  0  0  0  0  0  0
    8.5630   -0.0060   19.7210 O   0  0  0  0  0  0  0  0  0  0  0  0
    6.4860   -0.2830   20.5850 N   0  0  0  0  0  0  0  0  0  0  0  0
    5.7700    0.3240   19.5270 C   0  0  0  0  0  0  0  0  0  0  0  0
    4.8310    1.3200   19.8250 C   0  0  0  0  0  0  0  0  0  0  0  0
    4.2700    2.0260   18.7530 C   0  0  0  0  0  0  0  0  0  0  0  0
    4.6680    1.7270   17.4420 C   0  0  0  0  0  0  0  0  0  0  0  0
    5.5420    0.7390   17.1460 N   0  0  0  0  0  0  0  0  0  0  0  0
    6.0880    0.0650   18.1780 C   0  0  0  0  0  0  0  0  0  0  0  0
    9.5880    1.0540   23.2370 C   0  0  0  0  0  0  0  0  0  0  0  0
  1  2  1  0
  2  3  1  0
  3  4  1  0
  4 19  2  0
  4  5  1  0
  5  6  2  0
  6  7  1  0
  7  8  2  0
  8  9  1  0
  8 19  1  0
  9 10  1  0
 10 11  2  0
 10 12  1  0
 12 13  1  0
 13 14  2  0
 13 18  1  0
 14 15  1  0
 15 16  2  0
 16 17  1  0
 17 18  2  0
M  END
