WPC1815_minimised.pdb
     RDKit          3D

 24 25  0  0  0  0  0  0  0  0999 V2000
    8.5510    0.1850   19.7910 O   0  0  0  0  0  0  0  0  0  0  0  0
    7.8760   -0.2740   20.6910 C   0  0  0  0  0  0  0  0  0  0  0  0
    6.5100   -0.3000   20.6300 N   0  0  0  0  0  0  0  0  0  0  0  0
    5.7780    0.3250   19.5930 C   0  0  0  0  0  0  0  0  0  0  0  0
    4.8500    1.3270   19.9030 C   0  0  0  0  0  0  0  0  0  0  0  0
    4.2850    2.0410   18.8370 C   0  0  0  0  0  0  0  0  0  0  0  0
    4.6700    1.7450   17.5200 C   0  0  0  0  0  0  0  0  0  0  0  0
    5.5350    0.7520   17.2130 N   0  0  0  0  0  0  0  0  0  0  0  0
    6.0830    0.0720   18.2380 C   0  0  0  0  0  0  0  0  0  0  0  0
    8.4020   -0.7510   21.8560 N   0  0  0  0  0  0  0  0  0  0  0  0
    9.7440   -0.5390   22.2190 C   0  0  0  0  0  0  0  0  0  0  0  0
   10.7030   -1.5520   22.0850 C   0  0  0  0  0  0  0  0  0  0  0  0
   12.0560   -1.2670   22.3330 C   0  0  0  0  0  0  0  0  0  0  0  0
   12.4380    0.0250   22.7350 C   0  0  0  0  0  0  0  0  0  0  0  0
   11.4690    1.0240   22.9130 C   0  0  0  0  0  0  0  0  0  0  0  0
   11.9770    2.6380   23.4660 S   0  0  0  0  0  0  0  0  0  0  0  0
   10.5240    3.3590   24.3480 C   0  0  0  0  0  0  0  0  0  0  0  0
    9.7080    4.3020   23.4360 C   0  0  0  0  0  0  0  0  0  0  0  0
   10.4790    5.5550   22.9720 C   0  0  0  0  0  0  0  0  0  0  0  0
   10.8060    6.3920   24.1040 O   0  0  0  0  0  0  0  0  0  0  0  0
   12.1030    6.3050   24.7110 N   0  0  0  0  0  0  0  0  0  0  0  0
   12.9330    5.5470   24.2220 O   0  0  0  0  0  0  0  0  0  0  0  0
   12.3190    7.1140   25.6040 O   0  0  0  0  0  0  0  0  0  0  0  0
   10.1260    0.7410   22.6340 C   0  0  0  0  0  0  0  0  0  0  0  0
  1  2  2  0
  2 10  1  0
  2  3  1  0
  3  4  1  0
  4  5  2  0
  4  9  1  0
  5  6  1  0
  6  7  2  0
  7  8  1  0
  8  9  2  0
 10 11  1  0
 11 12  2  0
 11 24  1  0
 12 13  1  0
 13 14  2  0
 14 15  1  0
 15 16  1  0
 15 24  2  0
 16 17  1  0
 17 18  1  0
 18 19  1  0
 19 20  1  0
 20 21  1  0
 21 22  1  0
 21 23  2  0
M  CHG  2  21   1  22  -1
M  END
