WPC1699_minimised.pdb
     RDKit          3D

 24 25  0  0  1  0  0  0  0  0999 V2000
    9.4500    5.2090   23.3860 C   0  0  0  0  0  0  0  0  0  0  0  0
   10.8080    4.9680   22.6990 C   0  0  0  0  0  0  0  0  0  0  0  0
   12.0340    4.8690   23.6340 C   0  0  1  0  0  0  0  0  0  0  0  0
   12.0910    6.0070   24.6850 C   0  0  0  0  0  0  0  0  0  0  0  0
   11.8690    3.3050   24.6190 S   0  0  0  0  0  0  0  0  0  0  0  0
   11.6920    1.8920   23.5560 C   0  0  0  0  0  0  0  0  0  0  0  0
   12.8040    1.1910   23.0570 C   0  0  0  0  0  0  0  0  0  0  0  0
   12.6120    0.0380   22.2750 C   0  0  0  0  0  0  0  0  0  0  0  0
   11.3110   -0.4300   22.0200 C   0  0  0  0  0  0  0  0  0  0  0  0
   10.2040    0.2520   22.5520 C   0  0  0  0  0  0  0  0  0  0  0  0
    8.8880   -0.1460   22.2340 N   0  0  0  0  0  0  0  0  0  0  0  0
    8.2680    0.2290   21.0770 C   0  0  0  0  0  0  0  0  0  0  0  0
    8.8450    0.8240   20.1940 O   0  0  0  0  0  0  0  0  0  0  0  0
    6.9400   -0.0810   20.9810 N   0  0  0  0  0  0  0  0  0  0  0  0
    6.1400    0.3650   19.9000 C   0  0  0  0  0  0  0  0  0  0  0  0
    5.1570    1.3370   20.1250 C   0  0  0  0  0  0  0  0  0  0  0  0
    4.5350    1.9040   19.0050 C   0  0  0  0  0  0  0  0  0  0  0  0
    4.9080    1.4860   17.7180 C   0  0  0  0  0  0  0  0  0  0  0  0
    5.8220    0.5150   17.4930 N   0  0  0  0  0  0  0  0  0  0  0  0
    6.4410   -0.0070   18.5720 C   0  0  0  0  0  0  0  0  0  0  0  0
   10.3990    1.4110   23.3140 C   0  0  0  0  0  0  0  0  0  0  0  0
   13.3350    4.9140   22.8010 C   0  0  0  0  0  0  0  0  0  0  0  0
   13.5970    5.7710   21.9780 O   0  0  0  0  0  0  0  0  0  0  0  0
   14.3010    4.1630   23.3350 O   0  0  0  0  0  0  0  0  0  0  0  0
  1  2  1  0
  3  2  1  0
  3  4  1  1
  3 22  1  0
  3  5  1  0
  5  6  1  0
  6 21  2  0
  6  7  1  0
  7  8  2  0
  8  9  1  0
  9 10  2  0
 10 11  1  0
 10 21  1  0
 11 12  1  0
 12 13  2  0
 12 14  1  0
 14 15  1  0
 15 16  2  0
 15 20  1  0
 16 17  1  0
 17 18  2  0
 18 19  1  0
 19 20  2  0
 22 23  2  0
 22 24  1  0
M  END
