WPC1357_minimised.pdb
     RDKit          3D

 22 23  0  0  0  0  0  0  0  0999 V2000
   10.2520    5.6730   23.3220 C   0  0  0  0  0  0  0  0  0  0  0  0
   11.4950    4.8750   22.9350 C   0  0  0  0  0  0  0  0  0  0  0  0
   12.3430    5.3100   22.1800 O   0  0  0  0  0  0  0  0  0  0  0  0
   11.6640    3.5390   23.5510 C   0  0  0  0  0  0  0  0  0  0  0  0
   10.8730    3.0510   24.5310 C   0  0  0  0  0  0  0  0  0  0  0  0
   11.0790    1.4690   25.2030 S   0  0  0  0  0  0  0  0  0  0  0  0
   11.4580    0.4640   23.8050 C   0  0  0  0  0  0  0  0  0  0  0  0
   12.7630    0.2990   23.3140 C   0  0  0  0  0  0  0  0  0  0  0  0
   12.9740   -0.4740   22.1590 C   0  0  0  0  0  0  0  0  0  0  0  0
   11.8780   -1.0500   21.4920 C   0  0  0  0  0  0  0  0  0  0  0  0
   10.5770   -0.8580   21.9840 C   0  0  0  0  0  0  0  0  0  0  0  0
    9.4320   -1.2430   21.2650 N   0  0  0  0  0  0  0  0  0  0  0  0
    8.6070   -0.3290   20.6690 C   0  0  0  0  0  0  0  0  0  0  0  0
    8.8870    0.8480   20.5710 O   0  0  0  0  0  0  0  0  0  0  0  0
    7.4390   -0.8480   20.1860 N   0  0  0  0  0  0  0  0  0  0  0  0
    6.5050   -0.1250   19.4060 C   0  0  0  0  0  0  0  0  0  0  0  0
    5.8230    0.9750   19.9470 C   0  0  0  0  0  0  0  0  0  0  0  0
    4.9710    1.7020   19.1020 C   0  0  0  0  0  0  0  0  0  0  0  0
    4.8630    1.3380   17.7510 C   0  0  0  0  0  0  0  0  0  0  0  0
    5.5030    0.2660   17.2340 N   0  0  0  0  0  0  0  0  0  0  0  0
    6.3050   -0.4430   18.0510 C   0  0  0  0  0  0  0  0  0  0  0  0
   10.3770   -0.1150   23.1460 C   0  0  0  0  0  0  0  0  0  0  0  0
  1  2  1  0
  2  3  2  0
  2  4  1  0
  4  5  2  0
  5  6  1  0
  6  7  1  0
  7 22  2  0
  7  8  1  0
  8  9  2  0
  9 10  1  0
 10 11  2  0
 11 12  1  0
 11 22  1  0
 12 13  1  0
 13 14  2  0
 13 15  1  0
 15 16  1  0
 16 17  2  0
 16 21  1  0
 17 18  1  0
 18 19  2  0
 19 20  1  0
 20 21  2  0
M  END
