WPC1729_minimised.pdb
     RDKit          3D

 24 26  0  0  1  0  0  0  0  0999 V2000
    8.0950    5.4080   22.1260 C   0  0  0  0  0  0  0  0  0  0  0  0
    8.8420    4.1640   22.4460 C   0  0  2  0  0  0  0  0  0  0  0  0
    9.9490    4.1700   23.1650 N   0  0  0  0  0  0  0  0  0  0  0  0
   10.6180    2.9970   22.9160 C   0  0  0  0  0  0  0  0  0  0  0  0
   11.9890    2.7270   23.4590 C   0  0  0  0  0  0  0  0  0  0  0  0
   12.0300    1.2740   24.5960 S   0  0  0  0  0  0  0  0  0  0  0  0
   11.5210   -0.0570   23.5580 C   0  0  0  0  0  0  0  0  0  0  0  0
   12.4260   -0.5870   22.6280 C   0  0  0  0  0  0  0  0  0  0  0  0
   11.9850   -1.5400   21.7030 C   0  0  0  0  0  0  0  0  0  0  0  0
   10.6230   -1.8730   21.6520 C   0  0  0  0  0  0  0  0  0  0  0  0
    9.7040   -1.2600   22.5120 C   0  0  0  0  0  0  0  0  0  0  0  0
    8.3350   -1.2380   22.1660 N   0  0  0  0  0  0  0  0  0  0  0  0
    7.8970   -0.7490   20.9580 C   0  0  0  0  0  0  0  0  0  0  0  0
    8.6320   -0.5230   20.0150 O   0  0  0  0  0  0  0  0  0  0  0  0
    6.5540   -0.4890   20.8970 N   0  0  0  0  0  0  0  0  0  0  0  0
    5.9210    0.1970   19.8260 C   0  0  0  0  0  0  0  0  0  0  0  0
    5.0510    1.2590   20.1080 C   0  0  0  0  0  0  0  0  0  0  0  0
    4.5430    1.9950   19.0270 C   0  0  0  0  0  0  0  0  0  0  0  0
    4.9180    1.6570   17.7170 C   0  0  0  0  0  0  0  0  0  0  0  0
    5.7240    0.6100   17.4330 N   0  0  0  0  0  0  0  0  0  0  0  0
    6.2230   -0.0880   18.4740 C   0  0  0  0  0  0  0  0  0  0  0  0
   10.1650   -0.4190   23.5310 C   0  0  0  0  0  0  0  0  0  0  0  0
   10.0070    2.1470   22.0290 C   0  0  0  0  0  0  0  0  0  0  0  0
    8.3790    2.6450   21.7190 S   0  0  0  0  0  0  0  0  0  0  0  0
  2  1  1  6
  2  3  1  0
  2 24  1  0
  3  4  1  0
  4 23  2  0
  4  5  1  0
  5  6  1  0
  6  7  1  0
  7 22  1  0
  7  8  2  0
  8  9  1  0
  9 10  2  0
 10 11  1  0
 11 12  1  0
 11 22  2  0
 12 13  1  0
 13 14  2  0
 13 15  1  0
 15 16  1  0
 16 17  2  0
 16 21  1  0
 17 18  1  0
 18 19  2  0
 19 20  1  0
 20 21  2  0
 23 24  1  0
M  END
