WPC1562_minimised.pdb
     RDKit          3D

 24 26  0  0  0  0  0  0  0  0999 V2000
    8.6900   -0.1120   19.8470 O   0  0  0  0  0  0  0  0  0  0  0  0
    7.9790   -0.2850   20.8160 C   0  0  0  0  0  0  0  0  0  0  0  0
    6.6170   -0.2560   20.7300 N   0  0  0  0  0  0  0  0  0  0  0  0
    5.9110    0.3110   19.6450 C   0  0  0  0  0  0  0  0  0  0  0  0
    4.9890    1.3330   19.9000 C   0  0  0  0  0  0  0  0  0  0  0  0
    4.4020    1.9730   18.8000 C   0  0  0  0  0  0  0  0  0  0  0  0
    4.7630    1.5840   17.5020 C   0  0  0  0  0  0  0  0  0  0  0  0
    5.6230    0.5730   17.2450 N   0  0  0  0  0  0  0  0  0  0  0  0
    6.1990   -0.0310   18.3060 C   0  0  0  0  0  0  0  0  0  0  0  0
    8.4180   -0.4600   22.0970 N   0  0  0  0  0  0  0  0  0  0  0  0
    9.6400    0.0390   22.5830 C   0  0  0  0  0  0  0  0  0  0  0  0
   10.8800   -0.3990   22.0950 C   0  0  0  0  0  0  0  0  0  0  0  0
   12.0610    0.2120   22.5510 C   0  0  0  0  0  0  0  0  0  0  0  0
   11.9940    1.2710   23.4740 C   0  0  0  0  0  0  0  0  0  0  0  0
   10.7490    1.7130   23.9590 C   0  0  0  0  0  0  0  0  0  0  0  0
   10.6380    2.8560   24.9620 C   0  0  0  0  0  0  0  0  0  0  0  0
   10.2530    4.4910   24.2050 S   0  0  2  0  0  0  0  0  0  0  0  0
    8.9840    4.0500   23.1450 O   0  0  0  0  0  0  0  0  0  0  0  0
   11.8410    4.7040   23.3570 C   0  0  0  0  0  0  0  0  0  0  0  0
   11.8540    4.9890   22.0290 N   0  0  0  0  0  0  0  0  0  0  0  0
   13.1280    5.2040   21.6020 N   0  0  0  0  0  0  0  0  0  0  0  0
   13.8200    4.9970   22.7110 C   0  0  0  0  0  0  0  0  0  0  0  0
   13.0670    4.6990   23.8220 N   0  0  0  0  0  0  0  0  0  0  0  0
    9.5810    1.0710   23.5250 C   0  0  0  0  0  0  0  0  0  0  0  0
  1  2  2  0
  2  3  1  0
  2 10  1  0
  3  4  1  0
  4  5  2  0
  4  9  1  0
  5  6  1  0
  6  7  2  0
  7  8  1  0
  8  9  2  0
 10 11  1  0
 11 24  1  0
 11 12  2  0
 12 13  1  0
 13 14  2  0
 14 15  1  0
 15 16  1  0
 15 24  2  0
 17 16  1  0
 17 18  1  6
 17 19  1  0
 19 20  1  0
 19 23  2  0
 20 21  1  0
 21 22  2  0
 22 23  1  0
M  END
