WPC1796_minimised.pdb
     RDKit          3D

 23 25  0  0  0  0  0  0  0  0999 V2000
    8.7100    0.3150   19.9590 O   0  0  0  0  0  0  0  0  0  0  0  0
    8.0200   -0.0930   20.8700 C   0  0  0  0  0  0  0  0  0  0  0  0
    6.6670   -0.2530   20.7500 N   0  0  0  0  0  0  0  0  0  0  0  0
    5.9260    0.2810   19.6700 C   0  0  0  0  0  0  0  0  0  0  0  0
    4.9520    1.2530   19.9300 C   0  0  0  0  0  0  0  0  0  0  0  0
    4.3590    1.8900   18.8320 C   0  0  0  0  0  0  0  0  0  0  0  0
    4.7630    1.5490   17.5330 C   0  0  0  0  0  0  0  0  0  0  0  0
    5.6720    0.5840   17.2730 N   0  0  0  0  0  0  0  0  0  0  0  0
    6.2550   -0.0180   18.3310 C   0  0  0  0  0  0  0  0  0  0  0  0
    8.4970   -0.3500   22.1230 N   0  0  0  0  0  0  0  0  0  0  0  0
    9.7250    0.1580   22.5870 C   0  0  0  0  0  0  0  0  0  0  0  0
   10.9460   -0.4170   22.2050 C   0  0  0  0  0  0  0  0  0  0  0  0
   12.1520    0.1860   22.6010 C   0  0  0  0  0  0  0  0  0  0  0  0
   12.1320    1.3640   23.3680 C   0  0  0  0  0  0  0  0  0  0  0  0
   10.9050    1.9400   23.7460 C   0  0  0  0  0  0  0  0  0  0  0  0
   10.8440    3.2170   24.5650 C   0  0  0  0  0  0  0  0  0  0  0  0
   10.6690    4.4890   23.7180 C   0  0  0  0  0  0  0  0  0  0  0  0
   11.8890    4.8290   22.9870 N   0  0  0  0  0  0  0  0  0  0  0  0
   12.9310    5.6220   23.4130 C   0  0  0  0  0  0  0  0  0  0  0  0
   13.8290    5.6440   22.3760 C   0  0  0  0  0  0  0  0  0  0  0  0
   13.3790    4.8780   21.3400 N   0  0  0  0  0  0  0  0  0  0  0  0
   12.2300    4.3680   21.7370 C   0  0  0  0  0  0  0  0  0  0  0  0
    9.7070    1.3270   23.3560 C   0  0  0  0  0  0  0  0  0  0  0  0
  1  2  2  0
  2  3  1  0
  2 10  1  0
  3  4  1  0
  4  5  2  0
  4  9  1  0
  5  6  1  0
  6  7  2  0
  7  8  1  0
  8  9  2  0
 10 11  1  0
 11 23  1  0
 11 12  2  0
 12 13  1  0
 13 14  2  0
 14 15  1  0
 15 16  1  0
 15 23  2  0
 16 17  1  0
 17 18  1  0
 18 19  1  0
 18 22  1  0
 19 20  2  0
 20 21  1  0
 21 22  2  0
M  END
