WPC1365_minimised.pdb
     RDKit          3D

 23 24  0  0  0  0  0  0  0  0999 V2000
    9.2380    5.5200   22.6610 C   0  0  0  0  0  0  0  0  0  0  0  0
    9.5210    4.0390   23.0030 C   0  0  0  0  0  0  0  0  0  0  0  0
   11.0760    3.7820   23.9330 P   0  0  0  0  0  0  0  0  0  0  0  0
   11.2060    4.7810   25.0180 O   0  0  0  0  0  0  0  0  0  0  0  0
   12.5760    3.7340   22.8900 C   0  0  0  0  0  0  0  0  0  0  0  0
   13.1800    5.1050   22.5410 C   0  0  0  0  0  0  0  0  0  0  0  0
   11.0210    2.1080   24.6440 C   0  0  0  0  0  0  0  0  0  0  0  0
   10.8580    0.9840   23.6460 C   0  0  0  0  0  0  0  0  0  0  0  0
   11.9810    0.3450   23.0890 C   0  0  0  0  0  0  0  0  0  0  0  0
   11.8120   -0.6890   22.1520 C   0  0  0  0  0  0  0  0  0  0  0  0
   10.5190   -1.0710   21.7650 C   0  0  0  0  0  0  0  0  0  0  0  0
    9.4030   -0.4230   22.3140 C   0  0  0  0  0  0  0  0  0  0  0  0
    8.1110   -0.6640   21.8220 N   0  0  0  0  0  0  0  0  0  0  0  0
    7.7210   -0.2760   20.5740 C   0  0  0  0  0  0  0  0  0  0  0  0
    8.4910    0.0400   19.6880 O   0  0  0  0  0  0  0  0  0  0  0  0
    6.3640   -0.1940   20.4440 N   0  0  0  0  0  0  0  0  0  0  0  0
    5.7140    0.4650   19.3760 C   0  0  0  0  0  0  0  0  0  0  0  0
    4.7630    1.4540   19.6580 C   0  0  0  0  0  0  0  0  0  0  0  0
    4.2570    2.1930   18.5810 C   0  0  0  0  0  0  0  0  0  0  0  0
    4.7300    1.9420   17.2850 C   0  0  0  0  0  0  0  0  0  0  0  0
    5.6150    0.9600   17.0030 N   0  0  0  0  0  0  0  0  0  0  0  0
    6.0980    0.2460   18.0370 C   0  0  0  0  0  0  0  0  0  0  0  0
    9.5720    0.5880   23.2650 C   0  0  0  0  0  0  0  0  0  0  0  0
  1  2  1  0
  2  3  1  0
  3  4  2  0
  3  5  1  0
  3  7  1  0
  5  6  1  0
  7  8  1  0
  8 23  2  0
  8  9  1  0
  9 10  2  0
 10 11  1  0
 11 12  2  0
 12 13  1  0
 12 23  1  0
 13 14  1  0
 14 15  2  0
 14 16  1  0
 16 17  1  0
 17 18  2  0
 17 22  1  0
 18 19  1  0
 19 20  2  0
 20 21  1  0
 21 22  2  0
M  END
