WPC1661_minimised.pdb
     RDKit          3D

 23 24  0  0  1  0  0  0  0  0999 V2000
    8.4920    0.0150   19.6390 O   0  0  0  0  0  0  0  0  0  0  0  0
    7.7710   -0.1670   20.5990 C   0  0  0  0  0  0  0  0  0  0  0  0
    6.4070   -0.1380   20.5220 N   0  0  0  0  0  0  0  0  0  0  0  0
    5.7020    0.4490   19.4460 C   0  0  0  0  0  0  0  0  0  0  0  0
    4.7580    1.4450   19.7230 C   0  0  0  0  0  0  0  0  0  0  0  0
    4.2020    2.1330   18.6380 C   0  0  0  0  0  0  0  0  0  0  0  0
    4.6170    1.8230   17.3350 C   0  0  0  0  0  0  0  0  0  0  0  0
    5.4950    0.8320   17.0590 N   0  0  0  0  0  0  0  0  0  0  0  0
    6.0310    0.1710   18.1030 C   0  0  0  0  0  0  0  0  0  0  0  0
    8.2240   -0.3330   21.8750 N   0  0  0  0  0  0  0  0  0  0  0  0
    9.5120    0.0430   22.2980 C   0  0  0  0  0  0  0  0  0  0  0  0
   10.6630   -0.5720   21.7860 C   0  0  0  0  0  0  0  0  0  0  0  0
   11.9330   -0.1280   22.1900 C   0  0  0  0  0  0  0  0  0  0  0  0
   12.0420    0.9280   23.1120 C   0  0  0  0  0  0  0  0  0  0  0  0
   10.8850    1.5480   23.6200 C   0  0  0  0  0  0  0  0  0  0  0  0
   10.9700    2.5990   24.7090 C   0  0  0  0  0  0  0  0  0  0  0  0
   10.4640    4.0230   24.3630 C   0  0  0  0  0  0  0  0  0  0  0  0
   11.3600    4.9430   23.4870 C   0  0  1  0  0  0  0  0  0  0  0  0
   11.1380    6.2770   23.9470 O   0  0  0  0  0  0  0  0  0  0  0  0
   12.8810    4.6650   23.5690 C   0  0  0  0  0  0  0  0  0  0  0  0
   13.7460    5.5200   22.6260 C   0  0  0  0  0  0  0  0  0  0  0  0
   13.3910    5.3090   21.2720 O   0  0  0  0  0  0  0  0  0  0  0  0
    9.6230    1.0940   23.2130 C   0  0  0  0  0  0  0  0  0  0  0  0
  1  2  2  0
  2 10  1  0
  2  3  1  0
  3  4  1  0
  4  5  2  0
  4  9  1  0
  5  6  1  0
  6  7  2  0
  7  8  1  0
  8  9  2  0
 10 11  1  0
 11 12  2  0
 11 23  1  0
 12 13  1  0
 13 14  2  0
 14 15  1  0
 15 16  1  0
 15 23  2  0
 16 17  1  0
 17 18  1  0
 18 20  1  0
 18 19  1  1
 20 21  1  0
 21 22  1  0
M  END
