WPC1464_minimised.pdb
     RDKit          3D

 22 23  0  0  0  0  0  0  0  0999 V2000
    8.1620    4.3110   22.6760 N   0  0  0  0  0  0  0  0  0  0  0  0
    9.2040    4.2990   23.1700 C   0  0  0  0  0  0  0  0  0  0  0  0
   10.4830    4.2520   23.8890 C   0  0  0  0  0  0  0  0  0  0  0  0
   11.6020    4.7040   23.0540 C   0  0  0  0  0  0  0  0  0  0  0  0
   12.5230    5.0810   22.4710 N   0  0  0  0  0  0  0  0  0  0  0  0
   10.7570    2.8740   24.5420 C   0  0  0  0  0  0  0  0  0  0  0  0
   10.7690    1.6800   23.6010 C   0  0  0  0  0  0  0  0  0  0  0  0
   11.9760    1.1490   23.1100 C   0  0  0  0  0  0  0  0  0  0  0  0
   11.9610    0.0370   22.2490 C   0  0  0  0  0  0  0  0  0  0  0  0
   10.7370   -0.5390   21.8690 C   0  0  0  0  0  0  0  0  0  0  0  0
    9.5350   -0.0090   22.3600 C   0  0  0  0  0  0  0  0  0  0  0  0
    8.2830   -0.4650   21.9080 N   0  0  0  0  0  0  0  0  0  0  0  0
    7.8420   -0.2590   20.6320 C   0  0  0  0  0  0  0  0  0  0  0  0
    8.5700   -0.0580   19.6820 O   0  0  0  0  0  0  0  0  0  0  0  0
    6.4800   -0.2080   20.5450 N   0  0  0  0  0  0  0  0  0  0  0  0
    5.7880    0.4040   19.4750 C   0  0  0  0  0  0  0  0  0  0  0  0
    4.8670    1.4200   19.7600 C   0  0  0  0  0  0  0  0  0  0  0  0
    4.3080    2.1140   18.6810 C   0  0  0  0  0  0  0  0  0  0  0  0
    4.7010    1.7950   17.3730 C   0  0  0  0  0  0  0  0  0  0  0  0
    5.5630    0.7920   17.0890 N   0  0  0  0  0  0  0  0  0  0  0  0
    6.1000    0.1230   18.1290 C   0  0  0  0  0  0  0  0  0  0  0  0
    9.5540    1.0800   23.2360 C   0  0  0  0  0  0  0  0  0  0  0  0
  1  2  3  0
  2  3  1  0
  3  4  1  0
  3  6  1  0
  4  5  3  0
  6  7  1  0
  7 22  2  0
  7  8  1  0
  8  9  2  0
  9 10  1  0
 10 11  2  0
 11 12  1  0
 11 22  1  0
 12 13  1  0
 13 14  2  0
 13 15  1  0
 15 16  1  0
 16 17  2  0
 16 21  1  0
 17 18  1  0
 18 19  2  0
 19 20  1  0
 20 21  2  0
M  END
