WPC1467_minimised.pdb
     RDKit          3D

 24 26  0  0  0  0  0  0  0  0999 V2000
    9.6310    3.0520   22.3240 C   0  0  0  0  0  0  0  0  0  0  0  0
   10.8360    3.6800   22.8880 N   0  0  0  0  0  0  0  0  0  0  0  0
   11.8050    4.4090   22.2280 C   0  0  0  0  0  0  0  0  0  0  0  0
   12.7040    4.8320   23.1790 C   0  0  0  0  0  0  0  0  0  0  0  0
   12.3370    4.3870   24.4240 N   0  0  0  0  0  0  0  0  0  0  0  0
   11.2260    3.7250   24.1980 C   0  0  0  0  0  0  0  0  0  0  0  0
   10.4440    2.7250   25.4020 S   0  0  0  0  0  0  0  0  0  0  0  0
   11.4720    1.2010   25.3570 C   0  0  0  0  0  0  0  0  0  0  0  0
   11.2860    0.4260   24.0820 C   0  0  0  0  0  0  0  0  0  0  0  0
   12.3750    0.2070   23.2210 C   0  0  0  0  0  0  0  0  0  0  0  0
   12.1870   -0.5000   22.0270 C   0  0  0  0  0  0  0  0  0  0  0  0
   10.8950   -0.9090   21.6660 C   0  0  0  0  0  0  0  0  0  0  0  0
    9.8000   -0.6340   22.4960 C   0  0  0  0  0  0  0  0  0  0  0  0
    8.4820   -0.8130   22.0280 N   0  0  0  0  0  0  0  0  0  0  0  0
    7.9880   -0.1880   20.9140 C   0  0  0  0  0  0  0  0  0  0  0  0
    8.6630    0.4710   20.1480 O   0  0  0  0  0  0  0  0  0  0  0  0
    6.6420   -0.3390   20.7410 N   0  0  0  0  0  0  0  0  0  0  0  0
    5.9220    0.2650   19.6840 C   0  0  0  0  0  0  0  0  0  0  0  0
    4.9550    1.2390   19.9650 C   0  0  0  0  0  0  0  0  0  0  0  0
    4.3750    1.9100   18.8800 C   0  0  0  0  0  0  0  0  0  0  0  0
    4.7750    1.5920   17.5730 C   0  0  0  0  0  0  0  0  0  0  0  0
    5.6840    0.6310   17.2940 N   0  0  0  0  0  0  0  0  0  0  0  0
    6.2590    0.0040   18.3390 C   0  0  0  0  0  0  0  0  0  0  0  0
   10.0050   -0.0210   23.7330 C   0  0  0  0  0  0  0  0  0  0  0  0
  1  2  1  0
  2  3  1  0
  2  6  1  0
  3  4  2  0
  4  5  1  0
  5  6  2  0
  6  7  1  0
  7  8  1  0
  8  9  1  0
  9 24  1  0
  9 10  2  0
 10 11  1  0
 11 12  2  0
 12 13  1  0
 13 14  1  0
 13 24  2  0
 14 15  1  0
 15 16  2  0
 15 17  1  0
 17 18  1  0
 18 19  2  0
 18 23  1  0
 19 20  1  0
 20 21  2  0
 21 22  1  0
 22 23  2  0
M  END
