WPC1162_minimised.pdb
     RDKit          3D

 20 21  0  0  0  0  0  0  0  0999 V2000
   12.2500    5.2180   23.0650 C   0  0  0  0  0  0  0  0  0  0  0  0
   12.2450    3.6880   23.1980 C   0  0  0  0  0  0  0  0  0  0  0  0
   11.2410    3.1970   24.2590 C   0  0  0  0  0  0  0  0  0  0  0  0
   11.4570    1.7150   24.6340 C   0  0  0  0  0  0  0  0  0  0  0  0
   11.1230    0.7350   23.5320 C   0  0  0  0  0  0  0  0  0  0  0  0
   12.1420    0.0600   22.8370 C   0  0  0  0  0  0  0  0  0  0  0  0
   11.8150   -0.9220   21.8900 C   0  0  0  0  0  0  0  0  0  0  0  0
   10.4670   -1.1990   21.6170 C   0  0  0  0  0  0  0  0  0  0  0  0
    9.4540   -0.4790   22.2640 C   0  0  0  0  0  0  0  0  0  0  0  0
    8.1110   -0.6120   21.8690 N   0  0  0  0  0  0  0  0  0  0  0  0
    7.6750   -0.3140   20.6100 C   0  0  0  0  0  0  0  0  0  0  0  0
    8.4110   -0.1540   19.6550 O   0  0  0  0  0  0  0  0  0  0  0  0
    6.3200   -0.1500   20.5390 N   0  0  0  0  0  0  0  0  0  0  0  0
    5.6520    0.4720   19.4590 C   0  0  0  0  0  0  0  0  0  0  0  0
    4.7210    1.4820   19.7300 C   0  0  0  0  0  0  0  0  0  0  0  0
    4.1910    2.1870   18.6420 C   0  0  0  0  0  0  0  0  0  0  0  0
    4.6200    1.8800   17.3420 C   0  0  0  0  0  0  0  0  0  0  0  0
    5.4820    0.8750   17.0700 N   0  0  0  0  0  0  0  0  0  0  0  0
    5.9890    0.1950   18.1170 C   0  0  0  0  0  0  0  0  0  0  0  0
    9.7790    0.4690   23.2370 C   0  0  0  0  0  0  0  0  0  0  0  0
  1  2  1  0
  2  3  1  0
  3  4  1  0
  4  5  1  0
  5 20  2  0
  5  6  1  0
  6  7  2  0
  7  8  1  0
  8  9  2  0
  9 10  1  0
  9 20  1  0
 10 11  1  0
 11 12  2  0
 11 13  1  0
 13 14  1  0
 14 15  2  0
 14 19  1  0
 15 16  1  0
 16 17  2  0
 17 18  1  0
 18 19  2  0
M  END
