WPC1876_minimised.pdb
     RDKit          3D

 23 24  0  0  0  0  0  0  0  0999 V2000
    8.8520    0.7800   20.4140 O   0  0  0  0  0  0  0  0  0  0  0  0
    8.2850   -0.1440   20.9620 C   0  0  0  0  0  0  0  0  0  0  0  0
    6.9840   -0.4650   20.6980 N   0  0  0  0  0  0  0  0  0  0  0  0
    6.2000    0.1810   19.7120 C   0  0  0  0  0  0  0  0  0  0  0  0
    5.3150    1.2060   20.0720 C   0  0  0  0  0  0  0  0  0  0  0  0
    4.6340    1.8710   19.0420 C   0  0  0  0  0  0  0  0  0  0  0  0
    4.8680    1.5070   17.7060 C   0  0  0  0  0  0  0  0  0  0  0  0
    5.7060    0.5060   17.3550 N   0  0  0  0  0  0  0  0  0  0  0  0
    6.3740   -0.1180   18.3460 C   0  0  0  0  0  0  0  0  0  0  0  0
    8.8850   -0.9770   21.8640 N   0  0  0  0  0  0  0  0  0  0  0  0
   10.2420   -0.8830   22.2300 C   0  0  0  0  0  0  0  0  0  0  0  0
   11.1190   -1.9430   21.9640 C   0  0  0  0  0  0  0  0  0  0  0  0
   12.4950   -1.7990   22.2090 C   0  0  0  0  0  0  0  0  0  0  0  0
   12.9850   -0.6000   22.7390 C   0  0  0  0  0  0  0  0  0  0  0  0
   12.0930    0.4210   23.0800 C   0  0  0  0  0  0  0  0  0  0  0  0
   12.6850    1.8430   23.9320 S   0  0  0  0  0  0  0  0  0  0  0  0
   13.7000    2.7170   22.6820 C   0  0  0  0  0  0  0  0  0  0  0  0
   12.8020    3.6010   21.8000 C   0  0  0  0  0  0  0  0  0  0  0  0
   12.6190    5.0250   22.3690 C   0  0  0  0  0  0  0  0  0  0  0  0
   11.8750    5.1510   23.7210 C   0  0  0  0  0  0  0  0  0  0  0  0
   10.3900    4.7340   23.6630 C   0  0  0  0  0  0  0  0  0  0  0  0
    9.6540    5.6610   22.8700 O   0  0  0  0  0  0  0  0  0  0  0  0
   10.7270    0.2950   22.8110 C   0  0  0  0  0  0  0  0  0  0  0  0
  1  2  2  0
  2 10  1  0
  2  3  1  0
  3  4  1  0
  4  5  2  0
  4  9  1  0
  5  6  1  0
  6  7  2  0
  7  8  1  0
  8  9  2  0
 10 11  1  0
 11 12  2  0
 11 23  1  0
 12 13  1  0
 13 14  2  0
 14 15  1  0
 15 16  1  0
 15 23  2  0
 16 17  1  0
 17 18  1  0
 18 19  1  0
 19 20  1  0
 20 21  1  0
 21 22  1  0
M  END
