WPC1920_minimised.pdb
     RDKit          3D

 17 18  0  0  0  0  0  0  0  0999 V2000
    8.7250    0.1290   19.8360 O   0  0  0  0  0  0  0  0  0  0  0  0
    8.0640    0.0130   20.8470 C   0  0  0  0  0  0  0  0  0  0  0  0
    6.6950    0.0190   20.8270 N   0  0  0  0  0  0  0  0  0  0  0  0
    5.9320    0.4880   19.7280 C   0  0  0  0  0  0  0  0  0  0  0  0
    4.9710    1.4820   19.9530 C   0  0  0  0  0  0  0  0  0  0  0  0
    4.3600    2.0630   18.8360 C   0  0  0  0  0  0  0  0  0  0  0  0
    4.7380    1.6550   17.5480 C   0  0  0  0  0  0  0  0  0  0  0  0
    5.6230    0.6580   17.3220 N   0  0  0  0  0  0  0  0  0  0  0  0
    6.2130    0.1010   18.3990 C   0  0  0  0  0  0  0  0  0  0  0  0
    8.6140   -0.0610   22.0950 N   0  0  0  0  0  0  0  0  0  0  0  0
    9.9580    0.2680   22.3640 C   0  0  0  0  0  0  0  0  0  0  0  0
   10.9900   -0.6510   22.1150 C   0  0  0  0  0  0  0  0  0  0  0  0
   12.3290   -0.2750   22.3190 C   0  0  0  0  0  0  0  0  0  0  0  0
   12.6320    1.0220   22.7710 C   0  0  0  0  0  0  0  0  0  0  0  0
   11.5970    1.9460   22.9920 C   0  0  0  0  0  0  0  0  0  0  0  0
   11.9580    3.5990   23.4370 Cl  0  0  0  0  0  0  0  0  0  0  0  0
   10.2630    1.5660   22.7950 C   0  0  0  0  0  0  0  0  0  0  0  0
  1  2  2  0
  2 10  1  0
  2  3  1  0
  3  4  1  0
  4  5  2  0
  4  9  1  0
  5  6  1  0
  6  7  2  0
  7  8  1  0
  8  9  2  0
 10 11  1  0
 11 12  2  0
 11 17  1  0
 12 13  1  0
 13 14  2  0
 14 15  1  0
 15 16  1  0
 15 17  2  0
M  END
