WPC1551_minimised.pdb
     RDKit          3D

 23 25  0  0  0  0  0  0  0  0999 V2000
    8.6850    0.3020   19.9690 O   0  0  0  0  0  0  0  0  0  0  0  0
    7.9800   -0.0640   20.8860 C   0  0  0  0  0  0  0  0  0  0  0  0
    6.6260   -0.2050   20.7600 N   0  0  0  0  0  0  0  0  0  0  0  0
    5.8980    0.3210   19.6670 C   0  0  0  0  0  0  0  0  0  0  0  0
    4.9280    1.3000   19.9090 C   0  0  0  0  0  0  0  0  0  0  0  0
    4.3460    1.9290   18.8010 C   0  0  0  0  0  0  0  0  0  0  0  0
    4.7570    1.5720   17.5080 C   0  0  0  0  0  0  0  0  0  0  0  0
    5.6610    0.5970   17.2650 N   0  0  0  0  0  0  0  0  0  0  0  0
    6.2330    0.0030   18.3320 C   0  0  0  0  0  0  0  0  0  0  0  0
    8.4380   -0.2910   22.1520 N   0  0  0  0  0  0  0  0  0  0  0  0
    9.6720    0.2010   22.6150 C   0  0  0  0  0  0  0  0  0  0  0  0
   10.8840   -0.3940   22.2340 C   0  0  0  0  0  0  0  0  0  0  0  0
   12.1000    0.1900   22.6280 C   0  0  0  0  0  0  0  0  0  0  0  0
   12.0980    1.3700   23.3930 C   0  0  0  0  0  0  0  0  0  0  0  0
   10.8810    1.9680   23.7700 C   0  0  0  0  0  0  0  0  0  0  0  0
   10.8460    3.2550   24.5760 C   0  0  0  0  0  0  0  0  0  0  0  0
   10.6880    4.5250   23.7180 C   0  0  0  0  0  0  0  0  0  0  0  0
   11.9090    4.8350   22.9750 N   0  0  0  0  0  0  0  0  0  0  0  0
   12.9180    5.7020   23.3820 C   0  0  0  0  0  0  0  0  0  0  0  0
   13.8590    5.6820   22.3870 C   0  0  0  0  0  0  0  0  0  0  0  0
   13.4590    4.7650   21.4040 C   0  0  0  0  0  0  0  0  0  0  0  0
   12.2500    4.2470   21.7680 C   0  0  0  0  0  0  0  0  0  0  0  0
    9.6730    1.3730   23.3810 C   0  0  0  0  0  0  0  0  0  0  0  0
  1  2  2  0
  2  3  1  0
  2 10  1  0
  3  4  1  0
  4  5  2  0
  4  9  1  0
  5  6  1  0
  6  7  2  0
  7  8  1  0
  8  9  2  0
 10 11  1  0
 11 23  1  0
 11 12  2  0
 12 13  1  0
 13 14  2  0
 14 15  1  0
 15 16  1  0
 15 23  2  0
 16 17  1  0
 17 18  1  0
 18 19  1  0
 18 22  1  0
 19 20  2  0
 20 21  1  0
 21 22  2  0
M  END
