WPC1042_minimised.pdb
     RDKit          3D

 24 25  0  0  0  0  0  0  0  0999 V2000
   12.3150    6.5980   25.5050 C   0  0  0  0  0  0  0  0  0  0  0  0
   12.7640    5.8170   24.2570 C   0  0  0  0  0  0  0  0  0  0  0  0
   11.6010    5.2120   23.4420 C   0  0  0  0  0  0  0  0  0  0  0  0
   12.1390    4.3720   22.2640 C   0  0  0  0  0  0  0  0  0  0  0  0
   12.3520    2.9740   22.6430 N   0  0  0  0  0  0  0  0  0  0  0  0
   13.5610    2.4350   23.0100 C   0  0  0  0  0  0  0  0  0  0  0  0
   14.5660    3.1140   23.0200 O   0  0  0  0  0  0  0  0  0  0  0  0
   13.5480    0.9620   23.4470 C   0  0  0  0  0  0  0  0  0  0  0  0
   12.1850    0.3030   23.2910 C   0  0  0  0  0  0  0  0  0  0  0  0
   11.9460   -0.5590   22.2100 C   0  0  0  0  0  0  0  0  0  0  0  0
   10.6360   -0.9530   21.9160 C   0  0  0  0  0  0  0  0  0  0  0  0
    9.5670   -0.4810   22.6910 C   0  0  0  0  0  0  0  0  0  0  0  0
    8.2450   -0.6180   22.2230 N   0  0  0  0  0  0  0  0  0  0  0  0
    7.8380   -0.2070   20.9800 C   0  0  0  0  0  0  0  0  0  0  0  0
    8.5910    0.1540   20.0940 O   0  0  0  0  0  0  0  0  0  0  0  0
    6.4800   -0.1970   20.8330 N   0  0  0  0  0  0  0  0  0  0  0  0
    5.8030    0.3550   19.7200 C   0  0  0  0  0  0  0  0  0  0  0  0
    4.8260    1.3340   19.9360 C   0  0  0  0  0  0  0  0  0  0  0  0
    4.2630    1.9500   18.8120 C   0  0  0  0  0  0  0  0  0  0  0  0
    4.6920    1.5770   17.5300 C   0  0  0  0  0  0  0  0  0  0  0  0
    5.6060    0.6040   17.3100 N   0  0  0  0  0  0  0  0  0  0  0  0
    6.1630    0.0270   18.3940 C   0  0  0  0  0  0  0  0  0  0  0  0
    9.8160    0.2690   23.8480 C   0  0  0  0  0  0  0  0  0  0  0  0
   11.1290    0.6510   24.1570 C   0  0  0  0  0  0  0  0  0  0  0  0
  1  2  1  0
  2  3  1  0
  3  4  1  0
  4  5  1  0
  5  6  1  0
  6  7  2  0
  6  8  1  0
  8  9  1  0
  9 24  2  0
  9 10  1  0
 10 11  2  0
 11 12  1  0
 12 13  1  0
 12 23  2  0
 13 14  1  0
 14 15  2  0
 14 16  1  0
 16 17  1  0
 17 18  2  0
 17 22  1  0
 18 19  1  0
 19 20  2  0
 20 21  1  0
 21 22  2  0
 23 24  1  0
M  END
