WPC1786_minimised.pdb
     RDKit          3D

 24 26  0  0  0  0  0  0  0  0999 V2000
   14.0440    4.6900   23.3130 N   0  0  0  0  0  0  0  0  0  0  0  0
   12.6620    4.5740   23.4640 C   0  0  0  0  0  0  0  0  0  0  0  0
   11.9450    5.7320   23.7900 C   0  0  0  0  0  0  0  0  0  0  0  0
   10.5450    5.6540   23.8570 C   0  0  0  0  0  0  0  0  0  0  0  0
    9.9240    4.4090   23.6820 C   0  0  0  0  0  0  0  0  0  0  0  0
   10.6140    3.2760   23.4730 N   0  0  0  0  0  0  0  0  0  0  0  0
   11.9500    3.3480   23.3100 C   0  0  0  0  0  0  0  0  0  0  0  0
   12.8910    1.8520   22.9530 S   0  0  0  0  0  0  0  0  0  0  0  0
   11.8080    0.4390   22.7270 C   0  0  0  0  0  0  0  0  0  0  0  0
   12.3820   -0.8180   22.9580 C   0  0  0  0  0  0  0  0  0  0  0  0
   11.6050   -1.9860   22.9320 C   0  0  0  0  0  0  0  0  0  0  0  0
   10.2440   -1.9080   22.6040 C   0  0  0  0  0  0  0  0  0  0  0  0
    9.6820   -0.6660   22.2760 C   0  0  0  0  0  0  0  0  0  0  0  0
    8.3250   -0.5780   21.9050 N   0  0  0  0  0  0  0  0  0  0  0  0
    7.8830   -0.1110   20.7010 C   0  0  0  0  0  0  0  0  0  0  0  0
    8.6120    0.1720   19.7730 O   0  0  0  0  0  0  0  0  0  0  0  0
    6.5260    0.0250   20.6380 N   0  0  0  0  0  0  0  0  0  0  0  0
    5.8230    0.6010   19.5540 C   0  0  0  0  0  0  0  0  0  0  0  0
    4.8520    1.5770   19.8060 C   0  0  0  0  0  0  0  0  0  0  0  0
    4.2710    2.2140   18.7020 C   0  0  0  0  0  0  0  0  0  0  0  0
    4.6850    1.8740   17.4060 C   0  0  0  0  0  0  0  0  0  0  0  0
    5.5860    0.8980   17.1530 N   0  0  0  0  0  0  0  0  0  0  0  0
    6.1480    0.2890   18.2160 C   0  0  0  0  0  0  0  0  0  0  0  0
   10.4650    0.5010   22.3180 C   0  0  0  0  0  0  0  0  0  0  0  0
  1  2  1  0
  2  3  2  0
  2  7  1  0
  3  4  1  0
  4  5  2  0
  5  6  1  0
  6  7  2  0
  7  8  1  0
  8  9  1  0
  9 24  1  0
  9 10  2  0
 10 11  1  0
 11 12  2  0
 12 13  1  0
 13 14  1  0
 13 24  2  0
 14 15  1  0
 15 16  2  0
 15 17  1  0
 17 18  1  0
 18 19  2  0
 18 23  1  0
 19 20  1  0
 20 21  2  0
 21 22  1  0
 22 23  2  0
M  END
