WPC1619_minimised.pdb
     RDKit          3D

 24 26  0  0  0  0  0  0  0  0999 V2000
    8.6020    0.1210   19.8020 O   0  0  0  0  0  0  0  0  0  0  0  0
    7.8520   -0.2000   20.7020 C   0  0  0  0  0  0  0  0  0  0  0  0
    6.4960   -0.2620   20.5530 N   0  0  0  0  0  0  0  0  0  0  0  0
    5.8070    0.3510   19.4810 C   0  0  0  0  0  0  0  0  0  0  0  0
    4.8500    1.3330   19.7640 C   0  0  0  0  0  0  0  0  0  0  0  0
    4.3090    2.0440   18.6860 C   0  0  0  0  0  0  0  0  0  0  0  0
    4.7510    1.7700   17.3840 C   0  0  0  0  0  0  0  0  0  0  0  0
    5.6460    0.7980   17.1010 N   0  0  0  0  0  0  0  0  0  0  0  0
    6.1710    0.1160   18.1390 C   0  0  0  0  0  0  0  0  0  0  0  0
    8.2590   -0.4300   21.9830 N   0  0  0  0  0  0  0  0  0  0  0  0
    9.4480    0.1150   22.4990 C   0  0  0  0  0  0  0  0  0  0  0  0
   10.6940   -0.4870   22.2710 C   0  0  0  0  0  0  0  0  0  0  0  0
   11.8610    0.1390   22.7430 C   0  0  0  0  0  0  0  0  0  0  0  0
   11.7750    1.3620   23.4310 C   0  0  0  0  0  0  0  0  0  0  0  0
   10.5260    1.9880   23.6190 C   0  0  0  0  0  0  0  0  0  0  0  0
   10.3820    3.3540   24.2860 C   0  0  0  0  0  0  0  0  0  0  0  0
   11.4090    4.3380   23.9410 N   0  0  0  0  0  0  0  0  0  0  0  0
   12.1680    4.4120   22.8010 C   0  0  0  0  0  0  0  0  0  0  0  0
   13.0250    5.4340   23.0600 C   0  0  0  0  0  0  0  0  0  0  0  0
   14.1330    5.8610   22.1410 C   0  0  0  0  0  0  0  0  0  0  0  0
   13.8710    5.6020   20.8460 F   0  0  0  0  0  0  0  0  0  0  0  0
   12.7260    5.9990   24.2710 N   0  0  0  0  0  0  0  0  0  0  0  0
   11.7310    5.3440   24.7960 N   0  0  0  0  0  0  0  0  0  0  0  0
    9.3670    1.3450   23.1620 C   0  0  0  0  0  0  0  0  0  0  0  0
  1  2  2  0
  2 10  1  0
  2  3  1  0
  3  4  1  0
  4  5  2  0
  4  9  1  0
  5  6  1  0
  6  7  2  0
  7  8  1  0
  8  9  2  0
 10 11  1  0
 11 12  2  0
 11 24  1  0
 12 13  1  0
 13 14  2  0
 14 15  1  0
 15 16  1  0
 15 24  2  0
 16 17  1  0
 17 18  1  0
 17 23  1  0
 18 19  2  0
 19 20  1  0
 19 22  1  0
 20 21  1  0
 22 23  2  0
M  END
