WPC1620_minimised.pdb
     RDKit          3D

 20 21  0  0  0  0  0  0  0  0999 V2000
   11.5220    4.0120   22.6130 N   0  0  0  0  0  0  0  0  0  0  0  0
   10.9200    3.6280   23.7680 C   0  0  0  0  0  0  0  0  0  0  0  0
   10.0910    4.3370   24.2980 O   0  0  0  0  0  0  0  0  0  0  0  0
   11.3750    2.2900   24.3280 C   0  0  0  0  0  0  0  0  0  0  0  0
   11.0720    1.1150   23.4180 C   0  0  0  0  0  0  0  0  0  0  0  0
   12.1090    0.3290   22.8810 C   0  0  0  0  0  0  0  0  0  0  0  0
   11.8070   -0.7660   22.0550 C   0  0  0  0  0  0  0  0  0  0  0  0
   10.4680   -1.0630   21.7550 C   0  0  0  0  0  0  0  0  0  0  0  0
    9.4390   -0.2670   22.2760 C   0  0  0  0  0  0  0  0  0  0  0  0
    8.1050   -0.4570   21.8770 N   0  0  0  0  0  0  0  0  0  0  0  0
    7.6680   -0.1940   20.6110 C   0  0  0  0  0  0  0  0  0  0  0  0
    8.4060   -0.0330   19.6600 O   0  0  0  0  0  0  0  0  0  0  0  0
    6.3110   -0.0590   20.5280 N   0  0  0  0  0  0  0  0  0  0  0  0
    5.6390    0.5450   19.4420 C   0  0  0  0  0  0  0  0  0  0  0  0
    4.7020    1.5520   19.6990 C   0  0  0  0  0  0  0  0  0  0  0  0
    4.1700    2.2400   18.6010 C   0  0  0  0  0  0  0  0  0  0  0  0
    4.6040    1.9210   17.3070 C   0  0  0  0  0  0  0  0  0  0  0  0
    5.4750    0.9190   17.0480 N   0  0  0  0  0  0  0  0  0  0  0  0
    5.9830    0.2550   18.1040 C   0  0  0  0  0  0  0  0  0  0  0  0
    9.7390    0.8110   23.1150 C   0  0  0  0  0  0  0  0  0  0  0  0
  1  2  1  0
  2  3  2  0
  2  4  1  0
  4  5  1  0
  5 20  2  0
  5  6  1  0
  6  7  2  0
  7  8  1  0
  8  9  2  0
  9 10  1  0
  9 20  1  0
 10 11  1  0
 11 12  2  0
 11 13  1  0
 13 14  1  0
 14 15  2  0
 14 19  1  0
 15 16  1  0
 16 17  2  0
 17 18  1  0
 18 19  2  0
M  END
