WPC1060_minimised.pdb
     RDKit          3D

 19 20  0  0  1  0  0  0  0  0999 V2000
   14.0060   -2.0270   23.6350 C   0  0  0  0  0  0  0  0  0  0  0  0
   13.4210   -0.6490   23.9700 C   0  0  1  0  0  0  0  0  0  0  0  0
   14.1980    0.3370   23.3070 O   0  0  0  0  0  0  0  0  0  0  0  0
   11.9780   -0.5280   23.5120 C   0  0  0  0  0  0  0  0  0  0  0  0
   11.6290   -0.8780   22.1970 C   0  0  0  0  0  0  0  0  0  0  0  0
   10.2970   -0.7900   21.7780 C   0  0  0  0  0  0  0  0  0  0  0  0
    9.3050   -0.3020   22.6420 C   0  0  0  0  0  0  0  0  0  0  0  0
    7.9760   -0.1300   22.1900 N   0  0  0  0  0  0  0  0  0  0  0  0
    7.5980    0.2690   20.9350 C   0  0  0  0  0  0  0  0  0  0  0  0
    8.3660    0.5090   20.0240 O   0  0  0  0  0  0  0  0  0  0  0  0
    6.2440    0.3710   20.7830 N   0  0  0  0  0  0  0  0  0  0  0  0
    5.5960    0.8490   19.6190 C   0  0  0  0  0  0  0  0  0  0  0  0
    4.6000    1.8240   19.7460 C   0  0  0  0  0  0  0  0  0  0  0  0
    4.0850    2.3800   18.5700 C   0  0  0  0  0  0  0  0  0  0  0  0
    4.5830    1.9630   17.3280 C   0  0  0  0  0  0  0  0  0  0  0  0
    5.4980    0.9770   17.1900 N   0  0  0  0  0  0  0  0  0  0  0  0
    6.0010    0.4490   18.3250 C   0  0  0  0  0  0  0  0  0  0  0  0
    9.6430    0.0260   23.9630 C   0  0  0  0  0  0  0  0  0  0  0  0
   10.9720   -0.1010   24.4000 C   0  0  0  0  0  0  0  0  0  0  0  0
  2  1  1  6
  2  3  1  0
  2  4  1  0
  4 19  2  0
  4  5  1  0
  5  6  2  0
  6  7  1  0
  7  8  1  0
  7 18  2  0
  8  9  1  0
  9 10  2  0
  9 11  1  0
 11 12  1  0
 12 13  2  0
 12 17  1  0
 13 14  1  0
 14 15  2  0
 15 16  1  0
 16 17  2  0
 18 19  1  0
M  END
