WPC1560_minimised.pdb
     RDKit          3D

 20 21  0  0  0  0  0  0  0  0999 V2000
    8.5180    0.0970   19.7480 O   0  0  0  0  0  0  0  0  0  0  0  0
    7.8200   -0.2810   20.6660 C   0  0  0  0  0  0  0  0  0  0  0  0
    6.4570   -0.3220   20.5780 N   0  0  0  0  0  0  0  0  0  0  0  0
    5.7400    0.2980   19.5280 C   0  0  0  0  0  0  0  0  0  0  0  0
    4.8100    1.3010   19.8320 C   0  0  0  0  0  0  0  0  0  0  0  0
    4.2520    2.0140   18.7630 C   0  0  0  0  0  0  0  0  0  0  0  0
    4.6450    1.7160   17.4500 C   0  0  0  0  0  0  0  0  0  0  0  0
    5.5150    0.7260   17.1490 N   0  0  0  0  0  0  0  0  0  0  0  0
    6.0570    0.0450   18.1770 C   0  0  0  0  0  0  0  0  0  0  0  0
    8.2970   -0.6170   21.9010 N   0  0  0  0  0  0  0  0  0  0  0  0
    9.5640   -0.2100   22.3590 C   0  0  0  0  0  0  0  0  0  0  0  0
   10.7440   -0.7650   21.8440 C   0  0  0  0  0  0  0  0  0  0  0  0
   11.9900   -0.2430   22.2280 C   0  0  0  0  0  0  0  0  0  0  0  0
   12.0500    0.8350   23.1290 C   0  0  0  0  0  0  0  0  0  0  0  0
   10.8640    1.3840   23.6500 C   0  0  0  0  0  0  0  0  0  0  0  0
   10.8910    2.5290   24.6420 C   0  0  0  0  0  0  0  0  0  0  0  0
   10.3140    3.8510   24.1000 C   0  0  0  0  0  0  0  0  0  0  0  0
   11.2770    4.5600   23.1380 C   0  0  0  0  0  0  0  0  0  0  0  0
   10.6070    5.6880   22.5980 O   0  0  0  0  0  0  0  0  0  0  0  0
    9.6260    0.8500   23.2670 C   0  0  0  0  0  0  0  0  0  0  0  0
  1  2  2  0
  2 10  1  0
  2  3  1  0
  3  4  1  0
  4  5  2  0
  4  9  1  0
  5  6  1  0
  6  7  2  0
  7  8  1  0
  8  9  2  0
 10 11  1  0
 11 12  2  0
 11 20  1  0
 12 13  1  0
 13 14  2  0
 14 15  1  0
 15 16  1  0
 15 20  2  0
 16 17  1  0
 17 18  1  0
 18 19  1  0
M  END
