WPC1662_minimised.pdb
     RDKit          3D

 24 25  0  0  0  0  0  0  0  0999 V2000
    6.9500    3.1730   22.5240 N   0  0  0  0  0  0  0  0  0  0  0  0
    7.6600    4.1770   22.3080 C   0  0  0  0  0  0  0  0  0  0  0  0
    7.3810    5.0340   21.3400 N   0  0  0  0  0  0  0  0  0  0  0  0
    8.8890    4.3590   22.8070 N   0  0  0  0  0  0  0  0  0  0  0  0
    9.6340    5.4960   22.9350 C   0  0  0  0  0  0  0  0  0  0  0  0
    9.1170    6.6450   22.9180 N   0  0  0  0  0  0  0  0  0  0  0  0
   11.3050    5.1390   23.1610 S   0  0  0  0  0  0  0  0  0  0  0  0
   11.2840    3.8140   24.4240 C   0  0  0  0  0  0  0  0  0  0  0  0
   11.3240    2.4240   23.8050 C   0  0  0  0  0  0  0  0  0  0  0  0
   12.5340    1.8830   23.3320 C   0  0  0  0  0  0  0  0  0  0  0  0
   12.5410    0.6530   22.6510 C   0  0  0  0  0  0  0  0  0  0  0  0
   11.3320   -0.0160   22.3990 C   0  0  0  0  0  0  0  0  0  0  0  0
   10.1270    0.5180   22.8820 C   0  0  0  0  0  0  0  0  0  0  0  0
    8.8860   -0.0010   22.4590 N   0  0  0  0  0  0  0  0  0  0  0  0
    8.3790    0.2570   21.2140 C   0  0  0  0  0  0  0  0  0  0  0  0
    9.0410    0.7290   20.3130 O   0  0  0  0  0  0  0  0  0  0  0  0
    7.0500   -0.0270   21.0570 N   0  0  0  0  0  0  0  0  0  0  0  0
    6.2860    0.4040   19.9420 C   0  0  0  0  0  0  0  0  0  0  0  0
    5.2470    1.3210   20.1390 C   0  0  0  0  0  0  0  0  0  0  0  0
    4.6360    1.8720   19.0050 C   0  0  0  0  0  0  0  0  0  0  0  0
    5.0740    1.4910   17.7290 C   0  0  0  0  0  0  0  0  0  0  0  0
    6.0360    0.5640   17.5280 N   0  0  0  0  0  0  0  0  0  0  0  0
    6.6460    0.0580   18.6220 C   0  0  0  0  0  0  0  0  0  0  0  0
   10.1330    1.7020   23.6290 C   0  0  0  0  0  0  0  0  0  0  0  0
  1  2  2  0
  2  3  1  0
  2  4  1  0
  4  5  1  0
  5  6  2  0
  5  7  1  0
  7  8  1  0
  8  9  1  0
  9 24  2  0
  9 10  1  0
 10 11  2  0
 11 12  1  0
 12 13  2  0
 13 14  1  0
 13 24  1  0
 14 15  1  0
 15 16  2  0
 15 17  1  0
 17 18  1  0
 18 19  2  0
 18 23  1  0
 19 20  1  0
 20 21  2  0
 21 22  1  0
 22 23  2  0
M  END
