WPC1919_minimised.pdb
     RDKit          3D

 24 26  0  0  0  0  0  0  0  0999 V2000
    8.5700   -0.0800   19.6580 O   0  0  0  0  0  0  0  0  0  0  0  0
    7.8120   -0.3940   20.5550 C   0  0  0  0  0  0  0  0  0  0  0  0
    6.4520   -0.3530   20.4330 N   0  0  0  0  0  0  0  0  0  0  0  0
    5.7800    0.3210   19.3880 C   0  0  0  0  0  0  0  0  0  0  0  0
    4.8400    1.3090   19.7070 C   0  0  0  0  0  0  0  0  0  0  0  0
    4.3080    2.0650   18.6550 C   0  0  0  0  0  0  0  0  0  0  0  0
    4.7420    1.8270   17.3430 C   0  0  0  0  0  0  0  0  0  0  0  0
    5.6190    0.8490   17.0250 N   0  0  0  0  0  0  0  0  0  0  0  0
    6.1350    0.1250   18.0380 C   0  0  0  0  0  0  0  0  0  0  0  0
    8.2130   -0.7310   21.8130 N   0  0  0  0  0  0  0  0  0  0  0  0
    9.4380   -0.2980   22.3460 C   0  0  0  0  0  0  0  0  0  0  0  0
   10.6640   -0.8170   21.9070 C   0  0  0  0  0  0  0  0  0  0  0  0
   11.8650   -0.2690   22.3890 C   0  0  0  0  0  0  0  0  0  0  0  0
   11.8300    0.8070   23.2930 C   0  0  0  0  0  0  0  0  0  0  0  0
   10.5960    1.3290   23.7240 C   0  0  0  0  0  0  0  0  0  0  0  0
   10.5230    2.5000   24.6840 C   0  0  0  0  0  0  0  0  0  0  0  0
   10.1190    3.8290   24.0150 C   0  0  0  0  0  0  0  0  0  0  0  0
   11.1230    4.2530   23.0420 N   0  0  0  0  0  0  0  0  0  0  0  0
   12.3070    4.8410   23.3940 C   0  0  0  0  0  0  0  0  0  0  0  0
   12.5950    5.1220   24.5420 O   0  0  0  0  0  0  0  0  0  0  0  0
   13.2310    5.0790   22.2400 C   0  0  0  0  0  0  0  0  0  0  0  0
   14.7160    5.0240   22.4810 C   0  0  0  0  0  0  0  0  0  0  0  0
   14.0480    3.9320   21.7030 C   0  0  0  0  0  0  0  0  0  0  0  0
    9.4040    0.7630   23.2560 C   0  0  0  0  0  0  0  0  0  0  0  0
  1  2  2  0
  2  3  1  0
  2 10  1  0
  3  4  1  0
  4  5  2  0
  4  9  1  0
  5  6  1  0
  6  7  2  0
  7  8  1  0
  8  9  2  0
 10 11  1  0
 11 24  1  0
 11 12  2  0
 12 13  1  0
 13 14  2  0
 14 15  1  0
 15 16  1  0
 15 24  2  0
 16 17  1  0
 17 18  1  0
 18 19  1  0
 19 20  2  0
 19 21  1  0
 21 22  1  0
 21 23  1  0
 22 23  1  0
M  END
