WPC1413_minimised.pdb
     RDKit          3D

 20 21  0  0  0  0  0  0  0  0999 V2000
   13.9260    6.0020   22.1230 N   0  0  0  0  0  0  0  0  0  0  0  0
   13.1650    4.8210   22.5420 C   0  0  0  0  0  0  0  0  0  0  0  0
   11.8670    5.1900   23.2850 C   0  0  0  0  0  0  0  0  0  0  0  0
   11.3020    4.0570   24.1760 C   0  0  0  0  0  0  0  0  0  0  0  0
   11.1450    2.6840   23.5250 C   0  0  0  0  0  0  0  0  0  0  0  0
   12.2500    1.8300   23.3320 C   0  0  0  0  0  0  0  0  0  0  0  0
   12.0810    0.5550   22.7660 C   0  0  0  0  0  0  0  0  0  0  0  0
   10.7970    0.1080   22.4190 C   0  0  0  0  0  0  0  0  0  0  0  0
    9.6890    0.9380   22.6430 C   0  0  0  0  0  0  0  0  0  0  0  0
    8.3910    0.5150   22.2950 N   0  0  0  0  0  0  0  0  0  0  0  0
    7.9580    0.3620   21.0100 C   0  0  0  0  0  0  0  0  0  0  0  0
    8.6960    0.3520   20.0470 O   0  0  0  0  0  0  0  0  0  0  0  0
    6.5970    0.2970   20.9000 N   0  0  0  0  0  0  0  0  0  0  0  0
    5.8850    0.6640   19.7340 C   0  0  0  0  0  0  0  0  0  0  0  0
    4.8850    1.6360   19.8560 C   0  0  0  0  0  0  0  0  0  0  0  0
    4.3140    2.1340   18.6810 C   0  0  0  0  0  0  0  0  0  0  0  0
    4.7700    1.6690   17.4410 C   0  0  0  0  0  0  0  0  0  0  0  0
    5.6870    0.6840   17.3110 N   0  0  0  0  0  0  0  0  0  0  0  0
    6.2440    0.2080   18.4450 C   0  0  0  0  0  0  0  0  0  0  0  0
    9.8630    2.2210   23.1820 C   0  0  0  0  0  0  0  0  0  0  0  0
  1  2  1  0
  2  3  1  0
  3  4  1  0
  4  5  1  0
  5 20  2  0
  5  6  1  0
  6  7  2  0
  7  8  1  0
  8  9  2  0
  9 10  1  0
  9 20  1  0
 10 11  1  0
 11 12  2  0
 11 13  1  0
 13 14  1  0
 14 15  2  0
 14 19  1  0
 15 16  1  0
 16 17  2  0
 17 18  1  0
 18 19  2  0
M  END
