WPC1791_minimised.pdb
     RDKit          3D

 24 26  0  0  0  0  0  0  0  0999 V2000
    6.8890    4.6430   21.8360 N   0  0  0  0  0  0  0  0  0  0  0  0
    8.1700    4.5000   22.2590 C   0  0  0  0  0  0  0  0  0  0  0  0
    8.7300    5.4460   22.9800 N   0  0  0  0  0  0  0  0  0  0  0  0
    9.9750    5.0770   23.4250 N   0  0  0  0  0  0  0  0  0  0  0  0
   10.2960    3.8540   23.0320 C   0  0  0  0  0  0  0  0  0  0  0  0
   11.6650    3.2740   23.2960 C   0  0  0  0  0  0  0  0  0  0  0  0
   11.6840    1.9630   24.1230 C   0  0  0  0  0  0  0  0  0  0  0  0
   11.3620    0.7180   23.3230 C   0  0  0  0  0  0  0  0  0  0  0  0
   12.3780    0.0340   22.6310 C   0  0  0  0  0  0  0  0  0  0  0  0
   12.0620   -1.0790   21.8360 C   0  0  0  0  0  0  0  0  0  0  0  0
   10.7220   -1.4670   21.6880 C   0  0  0  0  0  0  0  0  0  0  0  0
    9.7100   -0.7670   22.3550 C   0  0  0  0  0  0  0  0  0  0  0  0
    8.3650   -0.9200   21.9690 N   0  0  0  0  0  0  0  0  0  0  0  0
    7.9160   -0.4810   20.7520 C   0  0  0  0  0  0  0  0  0  0  0  0
    8.6440   -0.1960   19.8210 O   0  0  0  0  0  0  0  0  0  0  0  0
    6.5590   -0.3240   20.6850 N   0  0  0  0  0  0  0  0  0  0  0  0
    5.8890    0.3370   19.6260 C   0  0  0  0  0  0  0  0  0  0  0  0
    4.9710    1.3530   19.9210 C   0  0  0  0  0  0  0  0  0  0  0  0
    4.4330    2.0750   18.8470 C   0  0  0  0  0  0  0  0  0  0  0  0
    4.8410    1.7820   17.5370 C   0  0  0  0  0  0  0  0  0  0  0  0
    5.6930    0.7750   17.2430 N   0  0  0  0  0  0  0  0  0  0  0  0
    6.2100    0.0800   18.2750 C   0  0  0  0  0  0  0  0  0  0  0  0
   10.0370    0.2720   23.2300 C   0  0  0  0  0  0  0  0  0  0  0  0
    9.0540    3.0220   22.1190 S   0  0  0  0  0  0  0  0  0  0  0  0
  1  2  1  0
  2 24  1  0
  2  3  2  0
  3  4  1  0
  4  5  2  0
  5  6  1  0
  5 24  1  0
  6  7  1  0
  7  8  1  0
  8 23  1  0
  8  9  2  0
  9 10  1  0
 10 11  2  0
 11 12  1  0
 12 13  1  0
 12 23  2  0
 13 14  1  0
 14 15  2  0
 14 16  1  0
 16 17  1  0
 17 18  2  0
 17 22  1  0
 18 19  1  0
 19 20  2  0
 20 21  1  0
 21 22  2  0
M  END
