WPC1712_minimised.pdb
     RDKit          3D

 20 21  0  0  0  0  0  0  0  0999 V2000
   12.1260    6.0020   24.0320 O   0  0  0  0  0  0  0  0  0  0  0  0
   12.8760    5.2840   23.3900 C   0  0  0  0  0  0  0  0  0  0  0  0
   12.6450    3.9640   23.1580 O   0  0  0  0  0  0  0  0  0  0  0  0
   11.3690    3.4120   23.5260 C   0  0  0  0  0  0  0  0  0  0  0  0
   11.2570    1.9610   23.0730 C   0  0  0  0  0  0  0  0  0  0  0  0
   12.3850    1.1350   22.8950 C   0  0  0  0  0  0  0  0  0  0  0  0
   12.2340   -0.1740   22.4020 C   0  0  0  0  0  0  0  0  0  0  0  0
   10.9520   -0.6770   22.1190 C   0  0  0  0  0  0  0  0  0  0  0  0
    9.8260    0.1330   22.3290 C   0  0  0  0  0  0  0  0  0  0  0  0
    8.5320   -0.3080   21.9900 N   0  0  0  0  0  0  0  0  0  0  0  0
    8.0020   -0.1490   20.7430 C   0  0  0  0  0  0  0  0  0  0  0  0
    8.6710    0.0870   19.7580 O   0  0  0  0  0  0  0  0  0  0  0  0
    6.6350   -0.1890   20.7060 N   0  0  0  0  0  0  0  0  0  0  0  0
    5.8770    0.3510   19.6400 C   0  0  0  0  0  0  0  0  0  0  0  0
    4.9310    1.3450   19.9200 C   0  0  0  0  0  0  0  0  0  0  0  0
    4.3330    1.9990   18.8350 C   0  0  0  0  0  0  0  0  0  0  0  0
    4.7060    1.6560   17.5280 C   0  0  0  0  0  0  0  0  0  0  0  0
    5.5800    0.6630   17.2490 N   0  0  0  0  0  0  0  0  0  0  0  0
    6.1600    0.0380   18.2930 C   0  0  0  0  0  0  0  0  0  0  0  0
    9.9820    1.4450   22.7950 C   0  0  0  0  0  0  0  0  0  0  0  0
  1  2  2  0
  2  3  1  0
  3  4  1  0
  4  5  1  0
  5 20  2  0
  5  6  1  0
  6  7  2  0
  7  8  1  0
  8  9  2  0
  9 10  1  0
  9 20  1  0
 10 11  1  0
 11 12  2  0
 11 13  1  0
 13 14  1  0
 14 15  2  0
 14 19  1  0
 15 16  1  0
 16 17  2  0
 17 18  1  0
 18 19  2  0
M  END
