WPC1506_minimised.pdb
     RDKit          3D

 23 24  0  0  1  0  0  0  0  0999 V2000
   13.7200    4.9370   23.0100 N   0  0  0  0  0  0  0  0  0  0  0  0
   12.5870    4.7330   23.0710 C   0  0  0  0  0  0  0  0  0  0  0  0
   11.1620    4.4160   23.1600 C   0  0  1  0  0  0  0  0  0  0  0  0
   10.8450    3.2370   24.5340 S   0  0  0  0  0  0  0  0  0  0  0  0
   10.9040    1.6960   23.6590 C   0  0  0  0  0  0  0  0  0  0  0  0
   12.1170    1.1470   23.2100 C   0  0  0  0  0  0  0  0  0  0  0  0
   12.1040   -0.0050   22.4040 C   0  0  0  0  0  0  0  0  0  0  0  0
   10.8790   -0.5960   22.0420 C   0  0  0  0  0  0  0  0  0  0  0  0
    9.6730   -0.0410   22.5020 C   0  0  0  0  0  0  0  0  0  0  0  0
    8.4240   -0.5010   22.0430 N   0  0  0  0  0  0  0  0  0  0  0  0
    7.9410   -0.1850   20.8050 C   0  0  0  0  0  0  0  0  0  0  0  0
    8.6380    0.2150   19.8950 O   0  0  0  0  0  0  0  0  0  0  0  0
    6.5810   -0.2710   20.6960 N   0  0  0  0  0  0  0  0  0  0  0  0
    5.8590    0.3160   19.6310 C   0  0  0  0  0  0  0  0  0  0  0  0
    4.9170    1.3150   19.9110 C   0  0  0  0  0  0  0  0  0  0  0  0
    4.3540    2.0020   18.8270 C   0  0  0  0  0  0  0  0  0  0  0  0
    4.7510    1.6790   17.5210 C   0  0  0  0  0  0  0  0  0  0  0  0
    5.6300    0.6910   17.2420 N   0  0  0  0  0  0  0  0  0  0  0  0
    6.1790    0.0380   18.2850 C   0  0  0  0  0  0  0  0  0  0  0  0
    9.6900    1.0950   23.3170 C   0  0  0  0  0  0  0  0  0  0  0  0
   10.2840    5.6510   23.3230 C   0  0  0  0  0  0  0  0  0  0  0  0
    9.1910    5.7680   22.5200 N   0  0  0  0  0  0  0  0  0  0  0  0
   10.4910    6.5280   24.1280 O   0  0  0  0  0  0  0  0  0  0  0  0
  1  2  3  0
  3  2  1  1
  3 21  1  0
  3  4  1  0
  4  5  1  0
  5 20  2  0
  5  6  1  0
  6  7  2  0
  7  8  1  0
  8  9  2  0
  9 10  1  0
  9 20  1  0
 10 11  1  0
 11 12  2  0
 11 13  1  0
 13 14  1  0
 14 15  2  0
 14 19  1  0
 15 16  1  0
 16 17  2  0
 17 18  1  0
 18 19  2  0
 21 22  1  0
 21 23  2  0
M  END
