WPC1780_minimised.pdb
     RDKit          3D

 21 22  0  0  0  0  0  0  0  0999 V2000
   13.7760    5.6040   21.9990 C   0  0  0  0  0  0  0  0  0  0  0  0
   12.4230    4.8970   22.1830 C   0  0  0  0  0  0  0  0  0  0  0  0
   12.3560    4.0770   23.4770 C   0  0  0  0  0  0  0  0  0  0  0  0
   10.9090    3.6280   23.7860 C   0  0  0  0  0  0  0  0  0  0  0  0
   10.8620    2.3050   24.5740 C   0  0  0  0  0  0  0  0  0  0  0  0
   10.8390    1.1010   23.6550 C   0  0  0  0  0  0  0  0  0  0  0  0
   12.0220    0.5000   23.1860 C   0  0  0  0  0  0  0  0  0  0  0  0
   11.9550   -0.5790   22.2870 C   0  0  0  0  0  0  0  0  0  0  0  0
   10.7050   -1.0590   21.8620 C   0  0  0  0  0  0  0  0  0  0  0  0
    9.5300   -0.4560   22.3300 C   0  0  0  0  0  0  0  0  0  0  0  0
    8.2670   -0.8160   21.8290 N   0  0  0  0  0  0  0  0  0  0  0  0
    7.8130   -0.3940   20.6140 C   0  0  0  0  0  0  0  0  0  0  0  0
    8.5260    0.0310   19.7270 O   0  0  0  0  0  0  0  0  0  0  0  0
    6.4500   -0.4130   20.5120 N   0  0  0  0  0  0  0  0  0  0  0  0
    5.7440    0.2490   19.4820 C   0  0  0  0  0  0  0  0  0  0  0  0
    4.8140    1.2430   19.8110 C   0  0  0  0  0  0  0  0  0  0  0  0
    4.2600    1.9880   18.7610 C   0  0  0  0  0  0  0  0  0  0  0  0
    4.6600    1.7290   17.4420 C   0  0  0  0  0  0  0  0  0  0  0  0
    5.5300    0.7470   17.1160 N   0  0  0  0  0  0  0  0  0  0  0  0
    6.0670    0.0360   18.1270 C   0  0  0  0  0  0  0  0  0  0  0  0
    9.5980    0.6140   23.2250 C   0  0  0  0  0  0  0  0  0  0  0  0
  1  2  1  0
  2  3  1  0
  3  4  1  0
  4  5  1  0
  5  6  1  0
  6 21  2  0
  6  7  1  0
  7  8  2  0
  8  9  1  0
  9 10  2  0
 10 11  1  0
 10 21  1  0
 11 12  1  0
 12 13  2  0
 12 14  1  0
 14 15  1  0
 15 16  2  0
 15 20  1  0
 16 17  1  0
 17 18  2  0
 18 19  1  0
 19 20  2  0
M  END
