WPC1034_minimised.pdb
     RDKit          3D

 23 24  0  0  0  0  0  0  0  0999 V2000
   14.3330    6.1020   22.0400 N   0  0  0  0  0  0  0  0  0  0  0  0
   13.9910    4.7570   22.3250 N   0  0  0  0  0  0  0  0  0  0  0  0
   12.9040    4.4170   23.1060 C   0  0  0  0  0  0  0  0  0  0  0  0
   11.9260    5.5370   23.8490 S   0  0  0  0  0  0  0  0  0  0  0  0
   12.7250    3.0770   23.3150 N   0  0  0  0  0  0  0  0  0  0  0  0
   13.5980    2.0000   22.8310 C   0  0  0  0  0  0  0  0  0  0  0  0
   13.3070    0.6460   23.5090 C   0  0  0  0  0  0  0  0  0  0  0  0
   11.8850    0.1780   23.2670 C   0  0  0  0  0  0  0  0  0  0  0  0
   11.6170   -0.7190   22.2190 C   0  0  0  0  0  0  0  0  0  0  0  0
   10.2930   -1.0100   21.8740 C   0  0  0  0  0  0  0  0  0  0  0  0
    9.2360   -0.4040   22.5660 C   0  0  0  0  0  0  0  0  0  0  0  0
    7.9250   -0.4820   22.0610 N   0  0  0  0  0  0  0  0  0  0  0  0
    7.5900   -0.1390   20.7780 C   0  0  0  0  0  0  0  0  0  0  0  0
    8.3890    0.0520   19.8800 O   0  0  0  0  0  0  0  0  0  0  0  0
    6.2430    0.0150   20.6150 N   0  0  0  0  0  0  0  0  0  0  0  0
    5.6240    0.6070   19.4900 C   0  0  0  0  0  0  0  0  0  0  0  0
    4.6600    1.6010   19.6950 C   0  0  0  0  0  0  0  0  0  0  0  0
    4.1550    2.2580   18.5670 C   0  0  0  0  0  0  0  0  0  0  0  0
    4.6330    1.9180   17.2940 C   0  0  0  0  0  0  0  0  0  0  0  0
    5.5270    0.9240   17.0830 N   0  0  0  0  0  0  0  0  0  0  0  0
    6.0210    0.3000   18.1710 C   0  0  0  0  0  0  0  0  0  0  0  0
    9.4980    0.3990   23.6850 C   0  0  0  0  0  0  0  0  0  0  0  0
   10.8240    0.6810   24.0440 C   0  0  0  0  0  0  0  0  0  0  0  0
  1  2  1  0
  2  3  1  0
  3  4  2  0
  3  5  1  0
  5  6  1  0
  6  7  1  0
  7  8  1  0
  8 23  2  0
  8  9  1  0
  9 10  2  0
 10 11  1  0
 11 12  1  0
 11 22  2  0
 12 13  1  0
 13 14  2  0
 13 15  1  0
 15 16  1  0
 16 17  2  0
 16 21  1  0
 17 18  1  0
 18 19  2  0
 19 20  1  0
 20 21  2  0
 22 23  1  0
M  END
