WPC1714_minimised.pdb
     RDKit          3D

 24 25  0  0  1  0  0  0  0  0999 V2000
    7.4600    4.0150   22.1880 C   0  0  0  0  0  0  0  0  0  0  0  0
    8.4060    5.2150   21.9940 C   0  0  0  0  0  0  0  0  0  0  0  0
    9.7790    4.8730   22.3780 N   0  0  0  0  0  0  0  0  0  0  0  0
   10.3150    5.1290   23.6120 C   0  0  0  0  0  0  0  0  0  0  0  0
    9.7360    5.8390   24.4000 O   0  0  0  0  0  0  0  0  0  0  0  0
   11.6620    4.5150   23.9910 C   0  0  2  0  0  0  0  0  0  0  0  0
   12.6360    5.6350   24.4000 C   0  0  0  0  0  0  0  0  0  0  0  0
   12.4780    3.5100   22.6800 S   0  0  0  0  0  0  0  0  0  0  0  0
   11.8720    1.8350   22.8300 C   0  0  0  0  0  0  0  0  0  0  0  0
   12.7930    0.7760   22.8940 C   0  0  0  0  0  0  0  0  0  0  0  0
   12.3500   -0.5560   22.8040 C   0  0  0  0  0  0  0  0  0  0  0  0
   10.9810   -0.8370   22.6800 C   0  0  0  0  0  0  0  0  0  0  0  0
   10.0600    0.2170   22.6250 C   0  0  0  0  0  0  0  0  0  0  0  0
    8.7070   -0.0330   22.3180 N   0  0  0  0  0  0  0  0  0  0  0  0
    8.1750    0.2190   21.0840 C   0  0  0  0  0  0  0  0  0  0  0  0
    8.8480    0.5680   20.1360 O   0  0  0  0  0  0  0  0  0  0  0  0
    6.8160    0.0970   20.9930 N   0  0  0  0  0  0  0  0  0  0  0  0
    6.0720    0.5420   19.8720 C   0  0  0  0  0  0  0  0  0  0  0  0
    5.0950    1.5280   20.0520 C   0  0  0  0  0  0  0  0  0  0  0  0
    4.5100    2.0800   18.9050 C   0  0  0  0  0  0  0  0  0  0  0  0
    4.9210    1.6450   17.6360 C   0  0  0  0  0  0  0  0  0  0  0  0
    5.8240    0.6550   17.4530 N   0  0  0  0  0  0  0  0  0  0  0  0
    6.3990    0.1350   18.5580 C   0  0  0  0  0  0  0  0  0  0  0  0
   10.5050    1.5460   22.7000 C   0  0  0  0  0  0  0  0  0  0  0  0
  1  2  1  0
  2  3  1  0
  3  4  1  0
  4  5  2  0
  4  6  1  0
  6  7  1  6
  6  8  1  0
  8  9  1  0
  9 24  2  0
  9 10  1  0
 10 11  2  0
 11 12  1  0
 12 13  2  0
 13 14  1  0
 13 24  1  0
 14 15  1  0
 15 16  2  0
 15 17  1  0
 17 18  1  0
 18 19  2  0
 18 23  1  0
 19 20  1  0
 20 21  2  0
 21 22  1  0
 22 23  2  0
M  END
