WPC1443_minimised.pdb
     RDKit          3D

 23 24  0  0  1  0  0  0  0  0999 V2000
    9.3750    0.6040   20.7520 O   0  0  0  0  0  0  0  0  0  0  0  0
    8.8570   -0.3400   21.2980 C   0  0  0  0  0  0  0  0  0  0  0  0
    7.5340   -0.5750   21.0360 N   0  0  0  0  0  0  0  0  0  0  0  0
    6.7610    0.0180   19.9710 C   0  0  0  0  0  0  0  0  0  0  0  0
    5.5860    0.7370   20.2570 C   0  0  0  0  0  0  0  0  0  0  0  0
    4.9300    1.3550   19.1870 C   0  0  0  0  0  0  0  0  0  0  0  0
    5.4520    1.2360   17.8880 C   0  0  0  0  0  0  0  0  0  0  0  0
    6.5620    0.5160   17.5980 N   0  0  0  0  0  0  0  0  0  0  0  0
    7.2260   -0.0350   18.6330 C   0  0  0  0  0  0  0  0  0  0  0  0
    9.4450   -1.1060   22.2970 N   0  0  0  0  0  0  0  0  0  0  0  0
   10.7420   -1.0110   22.8050 C   0  0  1  0  0  0  0  0  0  0  0  0
   11.8010   -1.2790   21.9110 C   0  0  0  0  0  0  0  0  0  0  0  0
   13.0960   -0.9130   22.2160 C   0  0  0  0  0  0  0  0  0  0  0  0
   13.2750    0.0960   23.1530 C   0  0  0  0  0  0  0  0  0  0  0  0
   12.1610    0.7020   23.7620 C   0  0  1  0  0  0  0  0  0  0  0  0
   11.8580    2.2590   22.7980 S   0  0  0  0  0  0  0  0  0  0  0  0
   12.0320    3.8460   23.9470 C   0  0  0  0  0  0  0  0  0  0  0  0
   10.3950    4.4140   24.0780 C   0  0  0  0  0  0  0  0  0  0  0  0
    9.8510    5.9940   23.1020 P   0  0  0  0  0  0  0  0  0  0  0  0
   10.2280    7.1070   24.0130 O   0  0  0  0  0  0  0  0  0  0  0  0
   11.0710    5.5710   22.0770 O   0  0  0  0  0  0  0  0  0  0  0  0
   10.9920    6.5010   24.0270 O   0  0  0  0  0  0  0  0  0  0  0  0
   10.9400   -0.0080   23.7630 C   0  0  0  0  0  0  0  0  0  0  0  0
  1  2  2  0
  2 10  1  0
  2  3  1  0
  3  4  1  0
  4  5  2  0
  4  9  1  0
  5  6  1  0
  6  7  2  0
  7  8  1  0
  8  9  2  0
 11 10  1  6
 11 12  1  0
 11 23  1  0
 12 13  1  0
 13 14  2  0
 14 15  1  0
 15 16  1  6
 15 23  1  0
 16 17  1  0
 17 18  1  0
 18 19  1  0
 19 20  2  0
 19 21  1  0
 19 22  1  0
M  END
