WPC1141_minimised.pdb
     RDKit          3D

 24 25  0  0  1  0  0  0  0  0999 V2000
    9.8300    3.0970   23.9960 N   0  0  0  0  0  0  0  0  0  0  0  0
   11.1720    2.6430   24.3720 C   0  0  1  0  0  0  0  0  0  0  0  0
   11.1440    1.1390   24.7450 C   0  0  0  0  0  0  0  0  0  0  0  0
   10.7530    0.2240   23.6050 C   0  0  0  0  0  0  0  0  0  0  0  0
   11.7430   -0.4250   22.8470 C   0  0  0  0  0  0  0  0  0  0  0  0
   11.3830   -1.3090   21.8230 C   0  0  0  0  0  0  0  0  0  0  0  0
   10.0280   -1.4980   21.5220 C   0  0  0  0  0  0  0  0  0  0  0  0
    9.0460   -0.7910   22.2240 C   0  0  0  0  0  0  0  0  0  0  0  0
    7.7280   -0.7550   21.7430 N   0  0  0  0  0  0  0  0  0  0  0  0
    7.4200   -0.2550   20.5100 C   0  0  0  0  0  0  0  0  0  0  0  0
    8.2420    0.0160   19.6540 O   0  0  0  0  0  0  0  0  0  0  0  0
    6.0820   -0.0330   20.3520 N   0  0  0  0  0  0  0  0  0  0  0  0
    5.5040    0.6510   19.2600 C   0  0  0  0  0  0  0  0  0  0  0  0
    4.5460    1.6430   19.4980 C   0  0  0  0  0  0  0  0  0  0  0  0
    4.0950    2.3850   18.3990 C   0  0  0  0  0  0  0  0  0  0  0  0
    4.6320    2.1370   17.1280 C   0  0  0  0  0  0  0  0  0  0  0  0
    5.5270    1.1530   16.8860 N   0  0  0  0  0  0  0  0  0  0  0  0
    5.9500    0.4330   17.9400 C   0  0  0  0  0  0  0  0  0  0  0  0
    9.4000    0.0330   23.2940 C   0  0  0  0  0  0  0  0  0  0  0  0
   12.1740    3.0020   23.2500 C   0  0  2  0  0  0  0  0  0  0  0  0
   13.4000    2.2470   23.3730 O   0  0  0  0  0  0  0  0  0  0  0  0
   12.4510    4.5170   23.2880 C   0  0  0  0  0  0  0  0  0  0  0  0
   13.1380    5.0450   24.1420 O   0  0  0  0  0  0  0  0  0  0  0  0
   12.0540    5.2180   22.2110 O   0  0  0  0  0  0  0  0  0  0  0  0
  2  1  1  6
  2 20  1  0
  2  3  1  0
  3  4  1  0
  4 19  2  0
  4  5  1  0
  5  6  2  0
  6  7  1  0
  7  8  2  0
  8  9  1  0
  8 19  1  0
  9 10  1  0
 10 11  2  0
 10 12  1  0
 12 13  1  0
 13 14  2  0
 13 18  1  0
 14 15  1  0
 15 16  2  0
 16 17  1  0
 17 18  2  0
 20 22  1  0
 20 21  1  1
 22 23  2  0
 22 24  1  0
M  END
