WPC1285_minimised.pdb
     RDKit          3D

 21 22  0  0  0  0  0  0  0  0999 V2000
   13.9450    5.5900   21.9840 C   0  0  0  0  0  0  0  0  0  0  0  0
   13.0350    5.0470   23.0940 C   0  0  0  0  0  0  0  0  0  0  0  0
   11.6150    5.1840   22.7360 N   0  0  0  0  0  0  0  0  0  0  0  0
   10.6190    4.7960   23.7520 C   0  0  0  0  0  0  0  0  0  0  0  0
   10.8960    3.4520   24.4680 C   0  0  0  0  0  0  0  0  0  0  0  0
   10.8440    2.1970   23.6090 C   0  0  0  0  0  0  0  0  0  0  0  0
   12.0150    1.4910   23.2710 C   0  0  0  0  0  0  0  0  0  0  0  0
   11.9420    0.3070   22.5170 C   0  0  0  0  0  0  0  0  0  0  0  0
   10.6920   -0.1890   22.1120 C   0  0  0  0  0  0  0  0  0  0  0  0
    9.5230    0.4960   22.4760 C   0  0  0  0  0  0  0  0  0  0  0  0
    8.2560    0.0460   22.0600 N   0  0  0  0  0  0  0  0  0  0  0  0
    7.8370    0.0630   20.7630 C   0  0  0  0  0  0  0  0  0  0  0  0
    8.5810    0.1720   19.8100 O   0  0  0  0  0  0  0  0  0  0  0  0
    6.4760    0.0350   20.6440 N   0  0  0  0  0  0  0  0  0  0  0  0
    5.7810    0.5480   19.5250 C   0  0  0  0  0  0  0  0  0  0  0  0
    4.8120    1.5360   19.7380 C   0  0  0  0  0  0  0  0  0  0  0  0
    4.2690    2.1670   18.6140 C   0  0  0  0  0  0  0  0  0  0  0  0
    4.7220    1.8150   17.3360 C   0  0  0  0  0  0  0  0  0  0  0  0
    5.6170    0.8250   17.1180 N   0  0  0  0  0  0  0  0  0  0  0  0
    6.1420    0.2160   18.2020 C   0  0  0  0  0  0  0  0  0  0  0  0
    9.5990    1.6820   23.2170 C   0  0  0  0  0  0  0  0  0  0  0  0
  1  2  1  0
  2  3  1  0
  3  4  1  0
  4  5  1  0
  5  6  1  0
  6 21  2  0
  6  7  1  0
  7  8  2  0
  8  9  1  0
  9 10  2  0
 10 11  1  0
 10 21  1  0
 11 12  1  0
 12 13  2  0
 12 14  1  0
 14 15  1  0
 15 16  2  0
 15 20  1  0
 16 17  1  0
 17 18  2  0
 18 19  1  0
 19 20  2  0
M  END
