WPC2232_minimised.pdb
     RDKit          3D

 24 26  0  0  1  0  0  0  0  0999 V2000
    9.2640    5.1080   23.0700 C   0  0  0  0  0  0  0  0  0  0  0  0
   10.7150    5.2890   23.4380 C   0  0  0  0  0  0  0  0  0  0  0  0
   11.2220    6.3100   24.0300 N   0  0  0  0  0  0  0  0  0  0  0  0
   12.5710    6.0960   24.1060 N   0  0  0  0  0  0  0  0  0  0  0  0
   12.9640    4.9060   23.5580 C   0  0  0  0  0  0  0  0  0  0  0  0
   14.1160    4.5330   23.4450 O   0  0  0  0  0  0  0  0  0  0  0  0
   11.6980    4.1820   23.1680 C   0  0  1  0  0  0  0  0  0  0  0  0
   11.2990    2.8570   24.3810 S   0  0  0  0  0  0  0  0  0  0  0  0
   11.2110    1.3940   23.3950 C   0  0  0  0  0  0  0  0  0  0  0  0
   12.3680    0.7680   22.9050 C   0  0  0  0  0  0  0  0  0  0  0  0
   12.2490   -0.3870   22.1120 C   0  0  0  0  0  0  0  0  0  0  0  0
   10.9750   -0.9030   21.8120 C   0  0  0  0  0  0  0  0  0  0  0  0
    9.8250   -0.2650   22.3030 C   0  0  0  0  0  0  0  0  0  0  0  0
    8.5340   -0.6640   21.9080 N   0  0  0  0  0  0  0  0  0  0  0  0
    7.9970   -0.3040   20.7050 C   0  0  0  0  0  0  0  0  0  0  0  0
    8.6580    0.1080   19.7750 O   0  0  0  0  0  0  0  0  0  0  0  0
    6.6320   -0.3600   20.6550 N   0  0  0  0  0  0  0  0  0  0  0  0
    5.8820    0.2530   19.6220 C   0  0  0  0  0  0  0  0  0  0  0  0
    4.9620    1.2590   19.9440 C   0  0  0  0  0  0  0  0  0  0  0  0
    4.3820    1.9730   18.8860 C   0  0  0  0  0  0  0  0  0  0  0  0
    4.7450    1.6720   17.5640 C   0  0  0  0  0  0  0  0  0  0  0  0
    5.6000    0.6750   17.2460 N   0  0  0  0  0  0  0  0  0  0  0  0
    6.1640   -0.0060   18.2640 C   0  0  0  0  0  0  0  0  0  0  0  0
    9.9470    0.8760   23.1010 C   0  0  0  0  0  0  0  0  0  0  0  0
  1  2  1  0
  2  3  2  0
  2  7  1  0
  3  4  1  0
  4  5  1  0
  5  6  2  0
  5  7  1  0
  7  8  1  1
  8  9  1  0
  9 24  1  0
  9 10  2  0
 10 11  1  0
 11 12  2  0
 12 13  1  0
 13 14  1  0
 13 24  2  0
 14 15  1  0
 15 16  2  0
 15 17  1  0
 17 18  1  0
 18 19  2  0
 18 23  1  0
 19 20  1  0
 20 21  2  0
 21 22  1  0
 22 23  2  0
M  END
