WPC2883_minimised.pdb
     RDKit          3D

 20 21  0  0  0  0  0  0  0  0999 V2000
   15.9020    1.5460   19.2880 C   0  0  0  0  0  0  0  0  0  0  0  0
   15.2750    0.2310   19.7840 C   0  0  0  0  0  0  0  0  0  0  0  0
   14.5480    0.4230   21.0490 N   0  0  0  0  0  0  0  0  0  0  0  0
   13.6710   -0.6820   21.4800 C   0  0  0  0  0  0  0  0  0  0  0  0
   12.5300   -0.1520   22.3470 C   0  0  0  0  0  0  0  0  0  0  0  0
   11.1870   -0.4640   22.0480 C   0  0  0  0  0  0  0  0  0  0  0  0
   10.1330    0.1090   22.7830 C   0  0  0  0  0  0  0  0  0  0  0  0
   12.7990    0.7390   23.4030 C   0  0  0  0  0  0  0  0  0  0  0  0
   11.7440    1.3200   24.1240 C   0  0  0  0  0  0  0  0  0  0  0  0
    8.7840   -0.1090   22.4190 N   0  0  0  0  0  0  0  0  0  0  0  0
   10.4150    0.9940   23.8290 C   0  0  0  0  0  0  0  0  0  0  0  0
    8.2160    0.3520   21.2620 C   0  0  0  0  0  0  0  0  0  0  0  0
    8.8350    0.9310   20.3970 O   0  0  0  0  0  0  0  0  0  0  0  0
    6.8750    0.1060   21.1280 N   0  0  0  0  0  0  0  0  0  0  0  0
    6.1160    0.5130   19.9990 C   0  0  0  0  0  0  0  0  0  0  0  0
    6.4730    0.1130   18.6920 C   0  0  0  0  0  0  0  0  0  0  0  0
    5.0730    1.4340   20.1610 C   0  0  0  0  0  0  0  0  0  0  0  0
    5.8420    0.5450   17.5780 N   0  0  0  0  0  0  0  0  0  0  0  0
    4.4470    1.9210   19.0050 C   0  0  0  0  0  0  0  0  0  0  0  0
    4.8690    1.4680   17.7450 C   0  0  0  0  0  0  0  0  0  0  0  0
  1  2  1  0
  2  3  1  0
  3  4  1  0
  4  5  1  0
  5  8  2  0
  5  6  1  0
  6  7  2  0
  7 10  1  0
  7 11  1  0
  8  9  1  0
  9 11  2  0
 10 12  1  0
 12 13  2  0
 12 14  1  0
 14 15  1  0
 15 16  2  0
 15 17  1  0
 16 18  1  0
 17 19  2  0
 18 20  2  0
 19 20  1  0
M  END
