WPC2639_minimised.pdb
     RDKit          3D

 24 26  0  0  1  0  0  0  0  0999 V2000
   12.0200    6.0500   24.9700 C   0  0  0  0  0  0  0  0  0  0  0  0
   11.3670    5.0800   23.9640 C   0  0  0  0  0  0  0  0  0  0  0  0
   10.0510    5.6230   23.3710 C   0  0  0  0  0  0  0  0  0  0  0  0
   12.3790    4.6160   22.8860 C   0  0  0  0  0  0  0  0  0  0  0  0
   12.6660    3.2720   23.2820 O   0  0  0  0  0  0  0  0  0  0  0  0
   11.7120    2.8890   24.1600 C   0  0  1  0  0  0  0  0  0  0  0  0
   11.7390    1.4510   24.5960 C   0  0  0  0  0  0  0  0  0  0  0  0
   11.2760    0.5040   23.5150 C   0  0  0  0  0  0  0  0  0  0  0  0
   12.2120   -0.1950   22.7320 C   0  0  0  0  0  0  0  0  0  0  0  0
   11.7710   -1.1270   21.7820 C   0  0  0  0  0  0  0  0  0  0  0  0
   10.3950   -1.3150   21.5830 C   0  0  0  0  0  0  0  0  0  0  0  0
    9.4650   -0.5500   22.2990 C   0  0  0  0  0  0  0  0  0  0  0  0
    8.1040   -0.5710   21.9400 N   0  0  0  0  0  0  0  0  0  0  0  0
    7.6600   -0.2400   20.6900 C   0  0  0  0  0  0  0  0  0  0  0  0
    8.3930   -0.0790   19.7320 O   0  0  0  0  0  0  0  0  0  0  0  0
    6.3080   -0.0590   20.6190 N   0  0  0  0  0  0  0  0  0  0  0  0
    5.6400    0.5390   19.5240 C   0  0  0  0  0  0  0  0  0  0  0  0
    4.7080    1.5540   19.7700 C   0  0  0  0  0  0  0  0  0  0  0  0
    4.1790    2.2310   18.6640 C   0  0  0  0  0  0  0  0  0  0  0  0
    4.6070    1.8920   17.3720 C   0  0  0  0  0  0  0  0  0  0  0  0
    5.4690    0.8800   17.1240 N   0  0  0  0  0  0  0  0  0  0  0  0
    5.9770    0.2290   18.1880 C   0  0  0  0  0  0  0  0  0  0  0  0
    9.9030    0.3380   23.2860 C   0  0  0  0  0  0  0  0  0  0  0  0
   11.0270    3.8420   24.6690 N   0  0  0  0  0  0  0  0  0  0  0  0
  1  2  1  0
  2  3  1  0
  2 24  1  0
  2  4  1  0
  4  5  1  0
  5  6  1  0
  6  7  1  1
  6 24  1  0
  7  8  1  0
  8 23  1  0
  8  9  2  0
  9 10  1  0
 10 11  2  0
 11 12  1  0
 12 13  1  0
 12 23  2  0
 13 14  1  0
 14 15  2  0
 14 16  1  0
 16 17  1  0
 17 18  2  0
 17 22  1  0
 18 19  1  0
 19 20  2  0
 20 21  1  0
 21 22  2  0
M  END
