WPC2797_minimised.pdb
     RDKit          3D

 17 18  0  0  0  0  0  0  0  0999 V2000
   13.4170   -1.1570   21.4220 F   0  0  0  0  0  0  0  0  0  0  0  0
   12.4670   -0.4270   22.0420 C   0  0  0  0  0  0  0  0  0  0  0  0
   11.1110   -0.7320   21.8520 C   0  0  0  0  0  0  0  0  0  0  0  0
   10.1220    0.0440   22.4780 C   0  0  0  0  0  0  0  0  0  0  0  0
   12.8410    0.6500   22.8580 C   0  0  0  0  0  0  0  0  0  0  0  0
   11.8520    1.4250   23.4860 C   0  0  0  0  0  0  0  0  0  0  0  0
    8.7520   -0.1740   22.2120 N   0  0  0  0  0  0  0  0  0  0  0  0
   10.4950    1.1150   23.3030 C   0  0  0  0  0  0  0  0  0  0  0  0
    8.1820   -0.0050   20.9800 C   0  0  0  0  0  0  0  0  0  0  0  0
    8.8300    0.1810   19.9710 O   0  0  0  0  0  0  0  0  0  0  0  0
    6.8130   -0.0070   20.9640 N   0  0  0  0  0  0  0  0  0  0  0  0
    6.0410    0.4460   19.8620 C   0  0  0  0  0  0  0  0  0  0  0  0
    6.3150    0.0390   18.5360 C   0  0  0  0  0  0  0  0  0  0  0  0
    5.0740    1.4360   20.0750 C   0  0  0  0  0  0  0  0  0  0  0  0
    5.7110    0.5700   17.4530 N   0  0  0  0  0  0  0  0  0  0  0  0
    4.4530    1.9960   18.9510 C   0  0  0  0  0  0  0  0  0  0  0  0
    4.8220    1.5660   17.6680 C   0  0  0  0  0  0  0  0  0  0  0  0
  1  2  1  0
  2  3  2  0
  2  5  1  0
  3  4  1  0
  4  8  2  0
  4  7  1  0
  5  6  2  0
  6  8  1  0
  7  9  1  0
  9 10  2  0
  9 11  1  0
 11 12  1  0
 12 13  2  0
 12 14  1  0
 13 15  1  0
 14 16  2  0
 15 17  2  0
 16 17  1  0
M  END
