WPC2403_minimised.pdb
     RDKit          3D

 24 25  0  0  0  0  0  0  0  0999 V2000
    8.3650    4.9250   22.3020 C   0  0  0  0  0  0  0  0  0  0  0  0
    9.4060    6.2390   23.0710 S   0  0  0  0  0  0  0  0  0  0  0  0
   11.0570    5.4090   23.1590 C   0  0  0  0  0  0  0  0  0  0  0  0
   11.0610    4.0750   23.9070 C   0  0  0  0  0  0  0  0  0  0  0  0
   10.1770    3.7700   24.6840 O   0  0  0  0  0  0  0  0  0  0  0  0
   12.1350    3.2260   23.6720 N   0  0  0  0  0  0  0  0  0  0  0  0
   13.3290    3.6360   22.9120 C   0  0  0  0  0  0  0  0  0  0  0  0
   12.1420    1.8510   24.2050 C   0  0  0  0  0  0  0  0  0  0  0  0
   11.6330    0.8110   23.2360 C   0  0  0  0  0  0  0  0  0  0  0  0
   12.5300   -0.0470   22.5750 C   0  0  0  0  0  0  0  0  0  0  0  0
   12.0410   -1.0700   21.7500 C   0  0  0  0  0  0  0  0  0  0  0  0
   10.6580   -1.2190   21.5720 C   0  0  0  0  0  0  0  0  0  0  0  0
    9.7660   -0.3350   22.1950 C   0  0  0  0  0  0  0  0  0  0  0  0
    8.3900   -0.3830   21.9000 N   0  0  0  0  0  0  0  0  0  0  0  0
    7.8860   -0.1290   20.6570 C   0  0  0  0  0  0  0  0  0  0  0  0
    8.5790   -0.0060   19.6660 O   0  0  0  0  0  0  0  0  0  0  0  0
    6.5280    0.0290   20.6280 N   0  0  0  0  0  0  0  0  0  0  0  0
    5.8120    0.5840   19.5400 C   0  0  0  0  0  0  0  0  0  0  0  0
    4.8610    1.5800   19.7920 C   0  0  0  0  0  0  0  0  0  0  0  0
    4.2870    2.2260   18.6890 C   0  0  0  0  0  0  0  0  0  0  0  0
    4.6990    1.8860   17.3930 C   0  0  0  0  0  0  0  0  0  0  0  0
    5.5730    0.8860   17.1390 N   0  0  0  0  0  0  0  0  0  0  0  0
    6.1170    0.2570   18.2000 C   0  0  0  0  0  0  0  0  0  0  0  0
   10.2520    0.6700   23.0380 C   0  0  0  0  0  0  0  0  0  0  0  0
  1  2  1  0
  2  3  1  0
  3  4  1  0
  4  5  2  0
  4  6  1  0
  6  7  1  0
  6  8  1  0
  8  9  1  0
  9 24  2  0
  9 10  1  0
 10 11  2  0
 11 12  1  0
 12 13  2  0
 13 14  1  0
 13 24  1  0
 14 15  1  0
 15 16  2  0
 15 17  1  0
 17 18  1  0
 18 19  2  0
 18 23  1  0
 19 20  1  0
 20 21  2  0
 21 22  1  0
 22 23  2  0
M  END
