WPC2878_minimised.pdb
     RDKit          3D

 19 20  0  0  0  0  0  0  0  0999 V2000
   15.1460    0.4650   20.3690 O   0  0  0  0  0  0  0  0  0  0  0  0
   14.2810    0.7350   21.4720 N   0  0  0  0  0  0  0  0  0  0  0  0
   13.3310   -0.3750   21.6340 C   0  0  0  0  0  0  0  0  0  0  0  0
   12.1140    0.0530   22.4460 C   0  0  0  0  0  0  0  0  0  0  0  0
   10.8180   -0.2580   21.9930 C   0  0  0  0  0  0  0  0  0  0  0  0
    9.6850    0.1760   22.7000 C   0  0  0  0  0  0  0  0  0  0  0  0
   12.2590    0.8010   23.6310 C   0  0  0  0  0  0  0  0  0  0  0  0
   11.1240    1.2250   24.3420 C   0  0  0  0  0  0  0  0  0  0  0  0
    8.3780   -0.0520   22.2200 N   0  0  0  0  0  0  0  0  0  0  0  0
    9.8410    0.9060   23.8830 C   0  0  0  0  0  0  0  0  0  0  0  0
    7.9460    0.1930   20.9450 C   0  0  0  0  0  0  0  0  0  0  0  0
    8.6740    0.4690   20.0130 O   0  0  0  0  0  0  0  0  0  0  0  0
    6.5850    0.1400   20.8190 N   0  0  0  0  0  0  0  0  0  0  0  0
    5.8690    0.6100   19.6920 C   0  0  0  0  0  0  0  0  0  0  0  0
    6.2280    0.2520   18.3730 C   0  0  0  0  0  0  0  0  0  0  0  0
    4.8530    1.5540   19.8860 C   0  0  0  0  0  0  0  0  0  0  0  0
    5.6340    0.7670   17.2760 N   0  0  0  0  0  0  0  0  0  0  0  0
    4.2610    2.1160   18.7490 C   0  0  0  0  0  0  0  0  0  0  0  0
    4.6940    1.7190   17.4750 C   0  0  0  0  0  0  0  0  0  0  0  0
  1  2  1  0
  2  3  1  0
  3  4  1  0
  4  7  2  0
  4  5  1  0
  5  6  2  0
  6  9  1  0
  6 10  1  0
  7  8  1  0
  8 10  2  0
  9 11  1  0
 11 12  2  0
 11 13  1  0
 13 14  1  0
 14 15  2  0
 14 16  1  0
 15 17  1  0
 16 18  2  0
 17 19  2  0
 18 19  1  0
M  END
