WPC2251_minimised.pdb
     RDKit          3D

 21 22  0  0  0  0  0  0  0  0999 V2000
   12.7990    5.1800   24.1140 N   0  0  0  0  0  0  0  0  0  0  0  0
   11.9460    4.4980   22.9610 S   0  0  0  0  0  0  0  0  0  0  0  0
   10.7750    5.0790   23.5710 O   0  0  0  0  0  0  0  0  0  0  0  0
   12.8000    5.1870   22.0280 O   0  0  0  0  0  0  0  0  0  0  0  0
   12.3970    2.8490   23.4960 C   0  0  0  0  0  0  0  0  0  0  0  0
   11.8080    1.6280   22.8160 C   0  0  0  0  0  0  0  0  0  0  0  0
   12.6670    0.5810   22.4340 C   0  0  0  0  0  0  0  0  0  0  0  0
   12.1490   -0.6000   21.8820 C   0  0  0  0  0  0  0  0  0  0  0  0
   10.7630   -0.7440   21.7300 C   0  0  0  0  0  0  0  0  0  0  0  0
    9.9010    0.2890   22.1290 C   0  0  0  0  0  0  0  0  0  0  0  0
    8.5130    0.1660   21.9270 N   0  0  0  0  0  0  0  0  0  0  0  0
    7.9330    0.1320   20.6920 C   0  0  0  0  0  0  0  0  0  0  0  0
    8.5730    0.0730   19.6620 O   0  0  0  0  0  0  0  0  0  0  0  0
    6.5700    0.2420   20.7100 N   0  0  0  0  0  0  0  0  0  0  0  0
    5.7940    0.6770   19.6090 C   0  0  0  0  0  0  0  0  0  0  0  0
    4.8290    1.6670   19.8270 C   0  0  0  0  0  0  0  0  0  0  0  0
    4.2040    2.2260   18.7060 C   0  0  0  0  0  0  0  0  0  0  0  0
    4.5800    1.8070   17.4230 C   0  0  0  0  0  0  0  0  0  0  0  0
    5.4600    0.8040   17.2040 N   0  0  0  0  0  0  0  0  0  0  0  0
    6.0550    0.2600   18.2840 C   0  0  0  0  0  0  0  0  0  0  0  0
   10.4200    1.4740   22.6720 C   0  0  0  0  0  0  0  0  0  0  0  0
  1  2  1  0
  2  3  2  0
  2  4  2  0
  2  5  1  0
  5  6  1  0
  6 21  2  0
  6  7  1  0
  7  8  2  0
  8  9  1  0
  9 10  2  0
 10 11  1  0
 10 21  1  0
 11 12  1  0
 12 13  2  0
 12 14  1  0
 14 15  1  0
 15 16  2  0
 15 20  1  0
 16 17  1  0
 17 18  2  0
 18 19  1  0
 19 20  2  0
M  END
