WPC2750_minimised.pdb
     RDKit          3D

 20 22  0  0  1  0  0  0  0  0999 V2000
   14.3130   -1.2840   20.3120 N   0  0  0  0  0  0  0  0  0  0  0  0
   13.0980   -1.1760   21.0660 C   0  0  1  0  0  0  0  0  0  0  0  0
   12.9950   -1.9780   22.3310 C   0  0  0  0  0  0  0  0  0  0  0  0
   13.1870   -0.4800   22.3970 C   0  0  2  0  0  0  0  0  0  0  0  0
   12.1020    0.4660   22.8200 C   0  0  0  0  0  0  0  0  0  0  0  0
   10.7520    0.1560   22.5880 C   0  0  0  0  0  0  0  0  0  0  0  0
    9.7440    1.0750   22.9030 C   0  0  0  0  0  0  0  0  0  0  0  0
   12.4300    1.7140   23.3770 C   0  0  0  0  0  0  0  0  0  0  0  0
   11.4200    2.6340   23.7080 C   0  0  0  0  0  0  0  0  0  0  0  0
    8.4140    0.8000   22.5300 N   0  0  0  0  0  0  0  0  0  0  0  0
   10.0740    2.3110   23.4750 C   0  0  0  0  0  0  0  0  0  0  0  0
    8.0100    0.6380   21.2330 C   0  0  0  0  0  0  0  0  0  0  0  0
    8.7760    0.5980   20.2900 O   0  0  0  0  0  0  0  0  0  0  0  0
    6.6520    0.5710   21.0820 N   0  0  0  0  0  0  0  0  0  0  0  0
    5.9630    0.8370   19.8750 C   0  0  0  0  0  0  0  0  0  0  0  0
    6.3650    0.3100   18.6250 C   0  0  0  0  0  0  0  0  0  0  0  0
    4.9220    1.7710   19.9130 C   0  0  0  0  0  0  0  0  0  0  0  0
    5.8110    0.6830   17.4490 N   0  0  0  0  0  0  0  0  0  0  0  0
    4.3610    2.1710   18.6970 C   0  0  0  0  0  0  0  0  0  0  0  0
    4.8580    1.6410   17.5000 C   0  0  0  0  0  0  0  0  0  0  0  0
  2  1  1  1
  2  3  1  0
  2  4  1  0
  3  4  1  0
  4  5  1  6
  5  8  1  0
  5  6  2  0
  6  7  1  0
  7 10  1  0
  7 11  2  0
  8  9  2  0
  9 11  1  0
 10 12  1  0
 12 13  2  0
 12 14  1  0
 14 15  1  0
 15 16  2  0
 15 17  1  0
 16 18  1  0
 17 19  2  0
 18 20  2  0
 19 20  1  0
M  END
