WPC2065_minimised.pdb
     RDKit          3D

 24 25  0  0  1  0  0  0  0  0999 V2000
    9.9780    2.8430   24.0690 C   0  0  0  0  0  0  0  0  0  0  0  0
   11.5060    2.6490   24.0710 C   0  0  0  0  0  0  0  0  0  0  0  0
   12.1930    3.1790   22.7770 C   0  0  2  0  0  0  0  0  0  0  0  0
   13.3520    1.8940   22.1070 S   0  0  0  0  0  0  0  0  0  0  0  0
   12.3990    0.3890   22.0530 C   0  0  0  0  0  0  0  0  0  0  0  0
   13.0130   -0.8070   22.4380 C   0  0  0  0  0  0  0  0  0  0  0  0
   12.2470   -1.9730   22.5920 C   0  0  0  0  0  0  0  0  0  0  0  0
   10.8670   -1.9500   22.3330 C   0  0  0  0  0  0  0  0  0  0  0  0
   10.2610   -0.7640   21.8950 C   0  0  0  0  0  0  0  0  0  0  0  0
    8.8710   -0.7120   21.6640 N   0  0  0  0  0  0  0  0  0  0  0  0
    8.2870   -0.3440   20.4850 C   0  0  0  0  0  0  0  0  0  0  0  0
    8.8960   -0.1800   19.4490 O   0  0  0  0  0  0  0  0  0  0  0  0
    6.9360   -0.1430   20.5830 N   0  0  0  0  0  0  0  0  0  0  0  0
    6.1290    0.4270   19.5680 C   0  0  0  0  0  0  0  0  0  0  0  0
    5.2100    1.4280   19.9050 C   0  0  0  0  0  0  0  0  0  0  0  0
    4.5120    2.0520   18.8630 C   0  0  0  0  0  0  0  0  0  0  0  0
    4.7730    1.6850   17.5350 C   0  0  0  0  0  0  0  0  0  0  0  0
    5.6180    0.6840   17.2050 N   0  0  0  0  0  0  0  0  0  0  0  0
    6.2880    0.0820   18.2080 C   0  0  0  0  0  0  0  0  0  0  0  0
   11.0300    0.4010   21.7460 C   0  0  0  0  0  0  0  0  0  0  0  0
   12.9330    4.5470   22.9340 C   0  0  0  0  0  0  0  0  0  0  0  0
   12.0790    5.6110   23.6630 C   0  0  0  0  0  0  0  0  0  0  0  0
   13.4000    5.0750   21.5630 C   0  0  0  0  0  0  0  0  0  0  0  0
   14.1180    4.3620   23.6800 O   0  0  0  0  0  0  0  0  0  0  0  0
  1  2  1  0
  3  2  1  1
  3 21  1  0
  3  4  1  0
  4  5  1  0
  5 20  2  0
  5  6  1  0
  6  7  2  0
  7  8  1  0
  8  9  2  0
  9 10  1  0
  9 20  1  0
 10 11  1  0
 11 12  2  0
 11 13  1  0
 13 14  1  0
 14 15  2  0
 14 19  1  0
 15 16  1  0
 16 17  2  0
 17 18  1  0
 18 19  2  0
 21 22  1  0
 21 23  1  0
 21 24  1  0
M  END
