WPC2870_minimised.pdb
     RDKit          3D

 21 22  0  0  1  0  0  0  0  0999 V2000
   15.7830    0.5530   18.3550 C   0  0  0  0  0  0  0  0  0  0  0  0
   15.4740   -0.2940   19.6070 C   0  0  0  0  0  0  0  0  0  0  0  0
   14.1310    0.0500   20.2890 C   0  0  0  0  0  0  0  0  0  0  0  0
   13.9000   -0.5560   21.6820 C   0  0  2  0  0  0  0  0  0  0  0  0
   13.7450   -1.9620   21.5890 O   0  0  0  0  0  0  0  0  0  0  0  0
   12.6870    0.0840   22.3460 C   0  0  0  0  0  0  0  0  0  0  0  0
   11.3700   -0.3280   22.0500 C   0  0  0  0  0  0  0  0  0  0  0  0
   10.2740    0.3130   22.6550 C   0  0  0  0  0  0  0  0  0  0  0  0
   12.8860    1.1680   23.2220 C   0  0  0  0  0  0  0  0  0  0  0  0
   11.7880    1.8140   23.8110 C   0  0  0  0  0  0  0  0  0  0  0  0
    8.9470   -0.0180   22.3060 N   0  0  0  0  0  0  0  0  0  0  0  0
   10.4850    1.3740   23.5450 C   0  0  0  0  0  0  0  0  0  0  0  0
    8.3970    0.2420   21.0810 C   0  0  0  0  0  0  0  0  0  0  0  0
    9.0440    0.6100   20.1260 O   0  0  0  0  0  0  0  0  0  0  0  0
    7.0360    0.1000   21.0200 N   0  0  0  0  0  0  0  0  0  0  0  0
    6.2480    0.5140   19.9170 C   0  0  0  0  0  0  0  0  0  0  0  0
    6.5300    0.0920   18.5980 C   0  0  0  0  0  0  0  0  0  0  0  0
    5.2360    1.4620   20.1200 C   0  0  0  0  0  0  0  0  0  0  0  0
    5.8620    0.5410   17.5130 N   0  0  0  0  0  0  0  0  0  0  0  0
    4.5690    1.9570   18.9930 C   0  0  0  0  0  0  0  0  0  0  0  0
    4.9230    1.4920   17.7170 C   0  0  0  0  0  0  0  0  0  0  0  0
  1  2  1  0
  2  3  1  0
  3  4  1  0
  4  5  1  6
  4  6  1  0
  6  9  2  0
  6  7  1  0
  7  8  2  0
  8 11  1  0
  8 12  1  0
  9 10  1  0
 10 12  2  0
 11 13  1  0
 13 14  2  0
 13 15  1  0
 15 16  1  0
 16 17  2  0
 16 18  1  0
 17 19  1  0
 18 20  2  0
 19 21  2  0
 20 21  1  0
M  END
