WPC2517_minimised.pdb
     RDKit          3D

 24 26  0  0  0  0  0  0  0  0999 V2000
    9.0650    0.1980   20.1370 O   0  0  0  0  0  0  0  0  0  0  0  0
    8.6060   -0.7200   20.7830 C   0  0  0  0  0  0  0  0  0  0  0  0
    7.2640   -0.9990   20.7250 N   0  0  0  0  0  0  0  0  0  0  0  0
    6.3910   -0.2960   19.8500 C   0  0  0  0  0  0  0  0  0  0  0  0
    5.5950    0.7500   20.3340 C   0  0  0  0  0  0  0  0  0  0  0  0
    4.8750    1.5180   19.4050 C   0  0  0  0  0  0  0  0  0  0  0  0
    4.9870    1.2340   18.0340 C   0  0  0  0  0  0  0  0  0  0  0  0
    5.7440    0.2210   17.5590 N   0  0  0  0  0  0  0  0  0  0  0  0
    6.4430   -0.5060   18.4550 C   0  0  0  0  0  0  0  0  0  0  0  0
    9.3760   -1.4830   21.6320 N   0  0  0  0  0  0  0  0  0  0  0  0
   10.5890   -0.9700   22.1470 C   0  0  0  0  0  0  0  0  0  0  0  0
   11.8300   -1.0910   21.5020 C   0  0  0  0  0  0  0  0  0  0  0  0
   12.9090   -0.2710   21.8890 C   0  0  0  0  0  0  0  0  0  0  0  0
   12.7090    0.7420   22.8440 C   0  0  0  0  0  0  0  0  0  0  0  0
   11.4580    0.8680   23.4630 C   0  0  0  0  0  0  0  0  0  0  0  0
   11.0710    2.2720   24.4790 S   0  0  0  0  0  0  0  0  0  0  0  0
    9.6820    3.1550   23.6190 C   0  0  0  0  0  0  0  0  0  0  0  0
    8.3930    2.3390   23.3070 C   0  0  0  0  0  0  0  0  0  0  0  0
    7.7330    1.5680   24.3920 N   0  0  0  0  0  0  0  0  0  0  0  0
    8.2140    1.1070   25.6090 C   0  0  0  0  0  0  0  0  0  0  0  0
    7.2750    0.4110   26.2120 N   0  0  0  0  0  0  0  0  0  0  0  0
    6.2230    0.4540   25.3460 C   0  0  0  0  0  0  0  0  0  0  0  0
    6.4510    1.1460   24.2400 N   0  0  0  0  0  0  0  0  0  0  0  0
   10.4540   -0.0620   23.1900 C   0  0  0  0  0  0  0  0  0  0  0  0
  1  2  2  0
  2  3  1  0
  2 10  1  0
  3  4  1  0
  4  5  2  0
  4  9  1  0
  5  6  1  0
  6  7  2  0
  7  8  1  0
  8  9  2  0
 10 11  1  0
 11 24  1  0
 11 12  2  0
 12 13  1  0
 13 14  2  0
 14 15  1  0
 15 16  1  0
 15 24  2  0
 16 17  1  0
 17 18  1  0
 18 19  1  0
 19 20  1  0
 19 23  1  0
 20 21  2  0
 21 22  1  0
 22 23  2  0
M  END
