WPC2204_minimised.pdb
     RDKit          3D

 24 25  0  0  0  0  0  0  0  0999 V2000
   12.6190    6.6900   24.8090 O   0  0  0  0  0  0  0  0  0  0  0  0
   11.9030    6.0140   24.1010 C   0  0  0  0  0  0  0  0  0  0  0  0
   10.5930    6.2940   23.9890 O   0  0  0  0  0  0  0  0  0  0  0  0
   12.4520    5.1040   22.9900 C   0  0  0  0  0  0  0  0  0  0  0  0
   12.5070    3.6700   23.3510 N   0  0  0  0  0  0  0  0  0  0  0  0
   11.4060    2.9140   23.6980 C   0  0  0  0  0  0  0  0  0  0  0  0
    9.8470    3.5100   23.6780 S   0  0  0  0  0  0  0  0  0  0  0  0
   11.7250    1.5370   24.2640 C   0  0  0  0  0  0  0  0  0  0  0  0
   11.3270    0.4350   23.3120 C   0  0  0  0  0  0  0  0  0  0  0  0
   12.2930   -0.2980   22.6030 C   0  0  0  0  0  0  0  0  0  0  0  0
   11.8910   -1.3400   21.7540 C   0  0  0  0  0  0  0  0  0  0  0  0
   10.5240   -1.6070   21.5770 C   0  0  0  0  0  0  0  0  0  0  0  0
    9.5630   -0.8270   22.2290 C   0  0  0  0  0  0  0  0  0  0  0  0
    8.2050   -0.9060   21.8750 N   0  0  0  0  0  0  0  0  0  0  0  0
    7.7540   -0.5250   20.6420 C   0  0  0  0  0  0  0  0  0  0  0  0
    8.4750   -0.3610   19.6780 O   0  0  0  0  0  0  0  0  0  0  0  0
    6.4080   -0.2870   20.6030 N   0  0  0  0  0  0  0  0  0  0  0  0
    5.7410    0.3720   19.5420 C   0  0  0  0  0  0  0  0  0  0  0  0
    4.8380    1.3990   19.8390 C   0  0  0  0  0  0  0  0  0  0  0  0
    4.2950    2.1200   18.7670 C   0  0  0  0  0  0  0  0  0  0  0  0
    4.6860    1.8130   17.4560 C   0  0  0  0  0  0  0  0  0  0  0  0
    5.5260    0.7960   17.1590 N   0  0  0  0  0  0  0  0  0  0  0  0
    6.0440    0.1000   18.1900 C   0  0  0  0  0  0  0  0  0  0  0  0
    9.9640    0.1650   23.1240 C   0  0  0  0  0  0  0  0  0  0  0  0
  1  2  2  0
  2  3  1  0
  2  4  1  0
  4  5  1  0
  5  6  1  0
  6  7  2  0
  6  8  1  0
  8  9  1  0
  9 24  2  0
  9 10  1  0
 10 11  2  0
 11 12  1  0
 12 13  2  0
 13 14  1  0
 13 24  1  0
 14 15  1  0
 15 16  2  0
 15 17  1  0
 17 18  1  0
 18 19  2  0
 18 23  1  0
 19 20  1  0
 20 21  2  0
 21 22  1  0
 22 23  2  0
M  END
