WPC2855_minimised.pdb
     RDKit          3D

 17 18  0  0  0  0  0  0  0  0999 V2000
   13.3560   -1.0760   21.4350 C   0  0  0  0  0  0  0  0  0  0  0  0
   12.2620   -0.3030   22.1460 C   0  0  0  0  0  0  0  0  0  0  0  0
   10.9110   -0.6050   21.9030 C   0  0  0  0  0  0  0  0  0  0  0  0
    9.8940    0.1380   22.5210 C   0  0  0  0  0  0  0  0  0  0  0  0
   12.5890    0.7470   23.0220 C   0  0  0  0  0  0  0  0  0  0  0  0
   11.5710    1.4840   23.6490 C   0  0  0  0  0  0  0  0  0  0  0  0
    8.5390   -0.0810   22.1910 N   0  0  0  0  0  0  0  0  0  0  0  0
   10.2240    1.1740   23.4050 C   0  0  0  0  0  0  0  0  0  0  0  0
    8.0290    0.0440   20.9280 C   0  0  0  0  0  0  0  0  0  0  0  0
    8.7170    0.1790   19.9360 O   0  0  0  0  0  0  0  0  0  0  0  0
    6.6620    0.0610   20.8720 N   0  0  0  0  0  0  0  0  0  0  0  0
    5.9220    0.5220   19.7550 C   0  0  0  0  0  0  0  0  0  0  0  0
    6.2310    0.1280   18.4340 C   0  0  0  0  0  0  0  0  0  0  0  0
    4.9470    1.5070   19.9550 C   0  0  0  0  0  0  0  0  0  0  0  0
    5.6510    0.6670   17.3410 N   0  0  0  0  0  0  0  0  0  0  0  0
    4.3510    2.0750   18.8210 C   0  0  0  0  0  0  0  0  0  0  0  0
    4.7550    1.6590   17.5450 C   0  0  0  0  0  0  0  0  0  0  0  0
  1  2  1  0
  2  3  2  0
  2  5  1  0
  3  4  1  0
  4  8  2  0
  4  7  1  0
  5  6  2  0
  6  8  1  0
  7  9  1  0
  9 10  2  0
  9 11  1  0
 11 12  1  0
 12 13  2  0
 12 14  1  0
 13 15  1  0
 14 16  2  0
 15 17  2  0
 16 17  1  0
M  END
