WPC2469_minimised.pdb
     RDKit          3D

 24 26  0  0  1  0  0  0  0  0999 V2000
    8.3370    3.1920   21.9660 N   0  0  0  0  0  0  0  0  0  0  0  0
    9.0900    3.2150   23.0780 C   0  0  0  0  0  0  0  0  0  0  0  0
    9.1450    2.3350   23.9910 N   0  0  0  0  0  0  0  0  0  0  0  0
   10.3940    2.6290   24.7510 C   0  0  1  0  0  0  0  0  0  0  0  0
   11.2890    1.3790   24.9380 C   0  0  0  0  0  0  0  0  0  0  0  0
   11.5550    0.5530   23.6970 C   0  0  0  0  0  0  0  0  0  0  0  0
   12.8290    0.5140   23.1010 C   0  0  0  0  0  0  0  0  0  0  0  0
   13.0390   -0.2590   21.9490 C   0  0  0  0  0  0  0  0  0  0  0  0
   11.9600   -0.9330   21.3530 C   0  0  0  0  0  0  0  0  0  0  0  0
   10.6860   -0.8610   21.9340 C   0  0  0  0  0  0  0  0  0  0  0  0
    9.5240   -1.2550   21.2470 N   0  0  0  0  0  0  0  0  0  0  0  0
    8.6990   -0.3380   20.6490 C   0  0  0  0  0  0  0  0  0  0  0  0
    8.9780    0.8410   20.5350 O   0  0  0  0  0  0  0  0  0  0  0  0
    7.5210   -0.8430   20.1810 N   0  0  0  0  0  0  0  0  0  0  0  0
    6.5850   -0.1070   19.4150 C   0  0  0  0  0  0  0  0  0  0  0  0
    5.9220    0.9990   19.9690 C   0  0  0  0  0  0  0  0  0  0  0  0
    5.0700    1.7400   19.1360 C   0  0  0  0  0  0  0  0  0  0  0  0
    4.9400    1.3800   17.7850 C   0  0  0  0  0  0  0  0  0  0  0  0
    5.5620    0.3030   17.2560 N   0  0  0  0  0  0  0  0  0  0  0  0
    6.3640   -0.4180   18.0620 C   0  0  0  0  0  0  0  0  0  0  0  0
   10.5040   -0.1730   23.1320 C   0  0  0  0  0  0  0  0  0  0  0  0
   11.0530    3.7430   23.9320 C   0  0  0  0  0  0  0  0  0  0  0  0
   12.1410    4.2640   24.0940 O   0  0  0  0  0  0  0  0  0  0  0  0
   10.1590    4.0490   22.9680 N   0  0  0  0  0  0  0  0  0  0  0  0
  1  2  1  0
  2  3  2  0
  2 24  1  0
  3  4  1  0
  4 22  1  0
  4  5  1  6
  5  6  1  0
  6 21  1  0
  6  7  2  0
  7  8  1  0
  8  9  2  0
  9 10  1  0
 10 11  1  0
 10 21  2  0
 11 12  1  0
 12 13  2  0
 12 14  1  0
 14 15  1  0
 15 16  2  0
 15 20  1  0
 16 17  1  0
 17 18  2  0
 18 19  1  0
 19 20  2  0
 22 24  1  0
 22 23  2  0
M  END
