WPC2012_minimised.pdb
     RDKit          3D

 22 23  0  0  0  0  0  0  0  0999 V2000
   12.1890    6.1890   24.3640 N   0  0  0  0  0  0  0  0  0  0  0  0
   11.0820    5.5200   23.9220 C   0  0  0  0  0  0  0  0  0  0  0  0
    9.9920    6.0220   24.0970 O   0  0  0  0  0  0  0  0  0  0  0  0
   11.3340    4.1420   23.2770 C   0  0  0  0  0  0  0  0  0  0  0  0
   11.7810    3.0990   24.2470 N   0  0  0  0  0  0  0  0  0  0  0  0
   12.5750    1.9850   23.6990 C   0  0  0  0  0  0  0  0  0  0  0  0
   11.8280    0.9120   22.9300 C   0  0  0  0  0  0  0  0  0  0  0  0
   12.5950   -0.1010   22.3290 C   0  0  0  0  0  0  0  0  0  0  0  0
   11.9720   -1.1680   21.6700 C   0  0  0  0  0  0  0  0  0  0  0  0
   10.5750   -1.2110   21.5830 C   0  0  0  0  0  0  0  0  0  0  0  0
    9.8030   -0.1840   22.1430 C   0  0  0  0  0  0  0  0  0  0  0  0
    8.4120   -0.1510   21.9200 N   0  0  0  0  0  0  0  0  0  0  0  0
    7.8590   -0.0110   20.6780 C   0  0  0  0  0  0  0  0  0  0  0  0
    8.5110   -0.0250   19.6530 O   0  0  0  0  0  0  0  0  0  0  0  0
    6.5060    0.1910   20.6850 N   0  0  0  0  0  0  0  0  0  0  0  0
    5.7590    0.6760   19.5830 C   0  0  0  0  0  0  0  0  0  0  0  0
    4.8160    1.6860   19.8050 C   0  0  0  0  0  0  0  0  0  0  0  0
    4.2080    2.2670   18.6870 C   0  0  0  0  0  0  0  0  0  0  0  0
    4.5810    1.8520   17.4010 C   0  0  0  0  0  0  0  0  0  0  0  0
    5.4420    0.8340   17.1770 N   0  0  0  0  0  0  0  0  0  0  0  0
    6.0190    0.2670   18.2550 C   0  0  0  0  0  0  0  0  0  0  0  0
   10.4230    0.8650   22.8360 C   0  0  0  0  0  0  0  0  0  0  0  0
  1  2  1  0
  2  3  2  0
  2  4  1  0
  4  5  1  0
  5  6  1  0
  6  7  1  0
  7 22  2  0
  7  8  1  0
  8  9  2  0
  9 10  1  0
 10 11  2  0
 11 12  1  0
 11 22  1  0
 12 13  1  0
 13 14  2  0
 13 15  1  0
 15 16  1  0
 16 17  2  0
 16 21  1  0
 17 18  1  0
 18 19  2  0
 19 20  1  0
 20 21  2  0
M  END
