WPC2276_minimised.pdb
     RDKit          3D

 20 21  0  0  0  0  0  0  0  0999 V2000
    8.8750    0.6250   20.3270 O   0  0  0  0  0  0  0  0  0  0  0  0
    8.1250    0.4350   21.2620 C   0  0  0  0  0  0  0  0  0  0  0  0
    6.7820    0.2320   21.0950 N   0  0  0  0  0  0  0  0  0  0  0  0
    6.0830    0.5960   19.9180 C   0  0  0  0  0  0  0  0  0  0  0  0
    5.0600    1.5450   20.0220 C   0  0  0  0  0  0  0  0  0  0  0  0
    4.5100    2.0440   18.8350 C   0  0  0  0  0  0  0  0  0  0  0  0
    5.0010    1.5930   17.6030 C   0  0  0  0  0  0  0  0  0  0  0  0
    5.9420    0.6300   17.4890 N   0  0  0  0  0  0  0  0  0  0  0  0
    6.4860    0.1630   18.6340 C   0  0  0  0  0  0  0  0  0  0  0  0
    8.5290    0.4830   22.5650 N   0  0  0  0  0  0  0  0  0  0  0  0
    9.7690    1.0250   22.9530 C   0  0  0  0  0  0  0  0  0  0  0  0
   10.8970    0.2030   23.0800 C   0  0  0  0  0  0  0  0  0  0  0  0
   12.1460    0.7820   23.3530 C   0  0  0  0  0  0  0  0  0  0  0  0
   12.2600    2.1730   23.5010 C   0  0  0  0  0  0  0  0  0  0  0  0
   11.1300    3.0020   23.3780 C   0  0  0  0  0  0  0  0  0  0  0  0
   11.1740    4.7890   23.5270 S   0  0  0  0  0  0  0  0  0  0  0  0
   12.9240    5.3750   23.6050 C   0  0  0  0  0  0  0  0  0  0  0  0
   13.7880    5.0090   22.3820 C   0  0  0  0  0  0  0  0  0  0  0  0
   13.1340    5.3690   21.1790 O   0  0  0  0  0  0  0  0  0  0  0  0
    9.8870    2.4150   23.1010 C   0  0  0  0  0  0  0  0  0  0  0  0
  1  2  2  0
  2 10  1  0
  2  3  1  0
  3  4  1  0
  4  5  2  0
  4  9  1  0
  5  6  1  0
  6  7  2  0
  7  8  1  0
  8  9  2  0
 10 11  1  0
 11 12  2  0
 11 20  1  0
 12 13  1  0
 13 14  2  0
 14 15  1  0
 15 16  1  0
 15 20  2  0
 16 17  1  0
 17 18  1  0
 18 19  1  0
M  END
