WPC2018_minimised.pdb
     RDKit          3D

 23 25  0  0  1  0  0  0  0  0999 V2000
    9.5920    6.0570   23.0510 C   0  0  0  0  0  0  0  0  0  0  0  0
   10.5530    5.1470   23.8310 C   0  0  2  0  0  0  0  0  0  0  0  0
   12.0520    5.4500   23.6390 C   0  0  0  0  0  0  0  0  0  0  0  0
   12.6640    4.1250   23.7770 N   0  0  0  0  0  0  0  0  0  0  0  0
   11.7760    3.2370   23.5390 C   0  0  1  0  0  0  0  0  0  0  0  0
   11.8920    1.8260   24.0570 C   0  0  0  0  0  0  0  0  0  0  0  0
   11.4040    0.7370   23.1280 C   0  0  0  0  0  0  0  0  0  0  0  0
   12.3170   -0.1240   22.4950 C   0  0  0  0  0  0  0  0  0  0  0  0
   11.8490   -1.1990   21.7260 C   0  0  0  0  0  0  0  0  0  0  0  0
   10.4690   -1.3930   21.5670 C   0  0  0  0  0  0  0  0  0  0  0  0
    9.5620   -0.5020   22.1550 C   0  0  0  0  0  0  0  0  0  0  0  0
    8.1930   -0.5750   21.8430 N   0  0  0  0  0  0  0  0  0  0  0  0
    7.7040   -0.2300   20.6160 C   0  0  0  0  0  0  0  0  0  0  0  0
    8.4070   -0.0040   19.6510 O   0  0  0  0  0  0  0  0  0  0  0  0
    6.3430   -0.1000   20.5790 N   0  0  0  0  0  0  0  0  0  0  0  0
    5.6410    0.5070   19.5120 C   0  0  0  0  0  0  0  0  0  0  0  0
    4.7160    1.5210   19.7890 C   0  0  0  0  0  0  0  0  0  0  0  0
    4.1680    2.2150   18.7030 C   0  0  0  0  0  0  0  0  0  0  0  0
    4.5730    1.8950   17.3990 C   0  0  0  0  0  0  0  0  0  0  0  0
    5.4280    0.8850   17.1220 N   0  0  0  0  0  0  0  0  0  0  0  0
    5.9520    0.2150   18.1660 C   0  0  0  0  0  0  0  0  0  0  0  0
   10.0260    0.5480   22.9520 C   0  0  0  0  0  0  0  0  0  0  0  0
   10.5210    3.7710   23.3700 N   0  0  0  0  0  0  0  0  0  0  0  0
  2  1  1  6
  2 23  1  0
  2  3  1  0
  3  4  1  0
  4  5  1  0
  5  6  1  1
  5 23  1  0
  6  7  1  0
  7 22  1  0
  7  8  2  0
  8  9  1  0
  9 10  2  0
 10 11  1  0
 11 12  1  0
 11 22  2  0
 12 13  1  0
 13 14  2  0
 13 15  1  0
 15 16  1  0
 16 17  2  0
 16 21  1  0
 17 18  1  0
 18 19  2  0
 19 20  1  0
 20 21  2  0
M  END
