WPC2854_minimised.pdb
     RDKit          3D

 20 21  0  0  0  0  0  0  0  0999 V2000
   15.7350    0.3180   19.6740 N   0  0  0  0  0  0  0  0  0  0  0  0
   14.7730   -0.5250   20.1400 N   0  0  0  0  0  0  0  0  0  0  0  0
   14.0890   -0.1740   21.1760 C   0  0  0  0  0  0  0  0  0  0  0  0
   12.9850   -1.0260   21.7410 C   0  0  0  0  0  0  0  0  0  0  0  0
   11.8830   -0.2260   22.4230 C   0  0  0  0  0  0  0  0  0  0  0  0
   10.5490   -0.4110   22.0230 C   0  0  0  0  0  0  0  0  0  0  0  0
    9.5130    0.3050   22.6420 C   0  0  0  0  0  0  0  0  0  0  0  0
   12.1720    0.6940   23.4490 C   0  0  0  0  0  0  0  0  0  0  0  0
   11.1330    1.4110   24.0670 C   0  0  0  0  0  0  0  0  0  0  0  0
    8.1800    0.1630   22.2060 N   0  0  0  0  0  0  0  0  0  0  0  0
    9.8040    1.2090   23.6710 C   0  0  0  0  0  0  0  0  0  0  0  0
    7.7590    0.3330   20.9170 C   0  0  0  0  0  0  0  0  0  0  0  0
    8.5040    0.5050   19.9730 O   0  0  0  0  0  0  0  0  0  0  0  0
    6.3970    0.3260   20.7870 N   0  0  0  0  0  0  0  0  0  0  0  0
    5.7000    0.7680   19.6380 C   0  0  0  0  0  0  0  0  0  0  0  0
    6.0780    0.3790   18.3330 C   0  0  0  0  0  0  0  0  0  0  0  0
    4.6860    1.7190   19.7970 C   0  0  0  0  0  0  0  0  0  0  0  0
    5.5140    0.8830   17.2160 N   0  0  0  0  0  0  0  0  0  0  0  0
    4.1200    2.2640   18.6390 C   0  0  0  0  0  0  0  0  0  0  0  0
    4.5820    1.8490   17.3820 C   0  0  0  0  0  0  0  0  0  0  0  0
  1  2  1  0
  2  3  2  0
  3  4  1  0
  4  5  1  0
  5  8  2  0
  5  6  1  0
  6  7  2  0
  7 10  1  0
  7 11  1  0
  8  9  1  0
  9 11  2  0
 10 12  1  0
 12 13  2  0
 12 14  1  0
 14 15  1  0
 15 16  2  0
 15 17  1  0
 16 18  1  0
 17 19  2  0
 18 20  2  0
 19 20  1  0
M  END
