WPC2329_minimised.pdb
     RDKit          3D

 22 24  0  0  0  0  0  0  0  0999 V2000
    8.6900    0.1210   19.8190 O   0  0  0  0  0  0  0  0  0  0  0  0
    7.9760   -0.1600   20.7580 C   0  0  0  0  0  0  0  0  0  0  0  0
    6.6180   -0.2540   20.6500 N   0  0  0  0  0  0  0  0  0  0  0  0
    5.8970    0.3200   19.5780 C   0  0  0  0  0  0  0  0  0  0  0  0
    4.9560    1.3190   19.8560 C   0  0  0  0  0  0  0  0  0  0  0  0
    4.3880    2.0010   18.7720 C   0  0  0  0  0  0  0  0  0  0  0  0
    4.7890    1.6820   17.4670 C   0  0  0  0  0  0  0  0  0  0  0  0
    5.6670    0.6920   17.1890 N   0  0  0  0  0  0  0  0  0  0  0  0
    6.2170    0.0380   18.2330 C   0  0  0  0  0  0  0  0  0  0  0  0
    8.4270   -0.3000   22.0370 N   0  0  0  0  0  0  0  0  0  0  0  0
    9.5980    0.3350   22.4910 C   0  0  0  0  0  0  0  0  0  0  0  0
   10.8660   -0.2370   22.3210 C   0  0  0  0  0  0  0  0  0  0  0  0
   12.0030    0.4610   22.7660 C   0  0  0  0  0  0  0  0  0  0  0  0
   11.8660    1.7260   23.3650 C   0  0  0  0  0  0  0  0  0  0  0  0
   10.5950    2.3240   23.4890 C   0  0  0  0  0  0  0  0  0  0  0  0
   10.3560    3.6950   24.1210 C   0  0  0  0  0  0  0  0  0  0  0  0
   11.4360    4.7340   24.0090 C   0  0  0  0  0  0  0  0  0  0  0  0
   12.4100    4.7980   23.0570 C   0  0  0  0  0  0  0  0  0  0  0  0
   13.1830    5.8560   23.4770 N   0  0  0  0  0  0  0  0  0  0  0  0
   12.6330    6.4580   24.5620 N   0  0  0  0  0  0  0  0  0  0  0  0
   11.5670    5.7820   24.8770 N   0  0  0  0  0  0  0  0  0  0  0  0
    9.4680    1.6070   23.0600 C   0  0  0  0  0  0  0  0  0  0  0  0
  1  2  2  0
  2  3  1  0
  2 10  1  0
  3  4  1  0
  4  5  2  0
  4  9  1  0
  5  6  1  0
  6  7  2  0
  7  8  1  0
  8  9  2  0
 10 11  1  0
 11 22  1  0
 11 12  2  0
 12 13  1  0
 13 14  2  0
 14 15  1  0
 15 16  1  0
 15 22  2  0
 16 17  1  0
 17 18  2  0
 17 21  1  0
 18 19  1  0
 19 20  1  0
 20 21  2  0
M  END
