WPC2401_minimised.pdb
     RDKit          3D

 24 25  0  0  0  0  0  0  0  0999 V2000
    9.2960    6.1630   22.9250 C   0  0  0  0  0  0  0  0  0  0  0  0
    8.5020    5.0770   22.1760 C   0  0  0  0  0  0  0  0  0  0  0  0
    8.8280    3.6340   22.6400 C   0  0  0  0  0  0  0  0  0  0  0  0
   10.1310    3.5060   23.4250 C   0  0  0  0  0  0  0  0  0  0  0  0
   10.2090    3.6660   24.6320 O   0  0  0  0  0  0  0  0  0  0  0  0
   11.1760    3.1760   22.6280 O   0  0  0  0  0  0  0  0  0  0  0  0
   12.4660    2.9420   23.2090 C   0  0  0  0  0  0  0  0  0  0  0  0
   12.4650    1.5890   23.9590 C   0  0  0  0  0  0  0  0  0  0  0  0
   11.8930    0.4480   23.1450 C   0  0  0  0  0  0  0  0  0  0  0  0
   12.7350   -0.3630   22.3670 C   0  0  0  0  0  0  0  0  0  0  0  0
   12.1890   -1.3940   21.5920 C   0  0  0  0  0  0  0  0  0  0  0  0
   10.7990   -1.5860   21.5640 C   0  0  0  0  0  0  0  0  0  0  0  0
    9.9570   -0.7500   22.3060 C   0  0  0  0  0  0  0  0  0  0  0  0
    8.5700   -0.7530   22.0560 N   0  0  0  0  0  0  0  0  0  0  0  0
    8.0420   -0.2210   20.9100 C   0  0  0  0  0  0  0  0  0  0  0  0
    8.7210    0.2360   20.0130 O   0  0  0  0  0  0  0  0  0  0  0  0
    6.6750   -0.2140   20.8470 N   0  0  0  0  0  0  0  0  0  0  0  0
    5.9490    0.3650   19.7760 C   0  0  0  0  0  0  0  0  0  0  0  0
    4.9970    1.3580   20.0380 C   0  0  0  0  0  0  0  0  0  0  0  0
    4.4300    2.0210   18.9400 C   0  0  0  0  0  0  0  0  0  0  0  0
    4.8310    1.6810   17.6380 C   0  0  0  0  0  0  0  0  0  0  0  0
    5.7090    0.6870   17.3750 N   0  0  0  0  0  0  0  0  0  0  0  0
    6.2660    0.0620   18.4330 C   0  0  0  0  0  0  0  0  0  0  0  0
   10.5060    0.2310   23.1330 C   0  0  0  0  0  0  0  0  0  0  0  0
  1  2  1  0
  2  3  1  0
  3  4  1  0
  4  5  2  0
  4  6  1  0
  6  7  1  0
  7  8  1  0
  8  9  1  0
  9 24  2  0
  9 10  1  0
 10 11  2  0
 11 12  1  0
 12 13  2  0
 13 14  1  0
 13 24  1  0
 14 15  1  0
 15 16  2  0
 15 17  1  0
 17 18  1  0
 18 19  2  0
 18 23  1  0
 19 20  1  0
 20 21  2  0
 21 22  1  0
 22 23  2  0
M  END
