WPC2326_minimised.pdb
     RDKit          3D

 23 24  0  0  1  0  0  0  0  0999 V2000
    8.6200    0.1880   19.7600 O   0  0  0  0  0  0  0  0  0  0  0  0
    7.9250   -0.1780   20.6850 C   0  0  0  0  0  0  0  0  0  0  0  0
    6.5630   -0.2460   20.5940 N   0  0  0  0  0  0  0  0  0  0  0  0
    5.8380    0.3520   19.5370 C   0  0  0  0  0  0  0  0  0  0  0  0
    4.8990    1.3500   19.8300 C   0  0  0  0  0  0  0  0  0  0  0  0
    4.3360    2.0500   18.7550 C   0  0  0  0  0  0  0  0  0  0  0  0
    4.7370    1.7500   17.4450 C   0  0  0  0  0  0  0  0  0  0  0  0
    5.6120    0.7610   17.1540 N   0  0  0  0  0  0  0  0  0  0  0  0
    6.1560    0.0890   18.1880 C   0  0  0  0  0  0  0  0  0  0  0  0
    8.4050   -0.4580   21.9320 N   0  0  0  0  0  0  0  0  0  0  0  0
    9.6440    0.0290   22.3890 C   0  0  0  0  0  0  0  0  0  0  0  0
   10.8600   -0.4450   21.8740 C   0  0  0  0  0  0  0  0  0  0  0  0
   12.0670    0.1620   22.2620 C   0  0  0  0  0  0  0  0  0  0  0  0
   12.0520    1.2480   23.1540 C   0  0  0  0  0  0  0  0  0  0  0  0
   10.8310    1.7170   23.6720 C   0  0  0  0  0  0  0  0  0  0  0  0
   10.7860    2.8540   24.6720 C   0  0  0  0  0  0  0  0  0  0  0  0
   10.6540    4.2740   24.0730 C   0  0  2  0  0  0  0  0  0  0  0  0
    9.4230    4.4050   23.1510 C   0  0  0  0  0  0  0  0  0  0  0  0
    9.0970    6.1510   22.6750 S   0  0  0  0  0  0  0  0  0  0  0  0
   11.9960    4.7600   23.5000 C   0  0  0  0  0  0  0  0  0  0  0  0
   12.9380    5.0020   24.2290 O   0  0  0  0  0  0  0  0  0  0  0  0
   12.1180    4.9010   22.1680 O   0  0  0  0  0  0  0  0  0  0  0  0
    9.6340    1.0920   23.2960 C   0  0  0  0  0  0  0  0  0  0  0  0
  1  2  2  0
  2 10  1  0
  2  3  1  0
  3  4  1  0
  4  5  2  0
  4  9  1  0
  5  6  1  0
  6  7  2  0
  7  8  1  0
  8  9  2  0
 10 11  1  0
 11 12  2  0
 11 23  1  0
 12 13  1  0
 13 14  2  0
 14 15  1  0
 15 16  1  0
 15 23  2  0
 17 16  1  6
 17 18  1  0
 17 20  1  0
 18 19  1  0
 20 21  2  0
 20 22  1  0
M  END
