WPC2216_minimised.pdb
     RDKit          3D

 24 26  0  0  1  0  0  0  0  0999 V2000
   14.5120    5.7410   22.1680 N   0  0  0  0  0  0  0  0  0  0  0  0
   13.3140    5.4570   22.6960 C   0  0  1  0  0  0  0  0  0  0  0  0
   12.3420    4.9430   22.0790 N   0  0  0  0  0  0  0  0  0  0  0  0
   11.3050    4.6330   23.0680 C   0  0  1  0  0  0  0  0  0  0  0  0
   11.2900    3.0990   23.2170 C   0  0  0  0  0  0  0  0  0  0  0  0
   10.4130    2.5170   24.7250 S   0  0  0  0  0  0  0  0  0  0  0  0
   10.0230    0.8550   24.2430 C   0  0  0  0  0  0  0  0  0  0  0  0
   10.7320   -0.2490   24.7400 C   0  0  0  0  0  0  0  0  0  0  0  0
   10.4120   -1.5480   24.2960 C   0  0  0  0  0  0  0  0  0  0  0  0
    9.3640   -1.7390   23.3840 C   0  0  0  0  0  0  0  0  0  0  0  0
    8.6550   -0.6320   22.9040 C   0  0  0  0  0  0  0  0  0  0  0  0
    7.5510   -0.8000   22.0590 N   0  0  0  0  0  0  0  0  0  0  0  0
    7.4190   -0.2460   20.8210 C   0  0  0  0  0  0  0  0  0  0  0  0
    8.3270    0.2050   20.1480 O   0  0  0  0  0  0  0  0  0  0  0  0
    6.1050   -0.2080   20.4550 N   0  0  0  0  0  0  0  0  0  0  0  0
    5.5870    0.4890   19.3460 C   0  0  0  0  0  0  0  0  0  0  0  0
    4.5880    1.4480   19.5490 C   0  0  0  0  0  0  0  0  0  0  0  0
    4.1650    2.1860   18.4380 C   0  0  0  0  0  0  0  0  0  0  0  0
    4.7470    1.9470   17.1860 C   0  0  0  0  0  0  0  0  0  0  0  0
    5.6900    0.9980   16.9790 N   0  0  0  0  0  0  0  0  0  0  0  0
    6.1130    0.3020   18.0520 C   0  0  0  0  0  0  0  0  0  0  0  0
    8.9880    0.6610   23.3230 C   0  0  0  0  0  0  0  0  0  0  0  0
   11.7960    5.4040   24.3100 C   0  0  0  0  0  0  0  0  0  0  0  0
   13.1860    5.5990   24.0260 O   0  0  0  0  0  0  0  0  0  0  0  0
  2  1  1  1
  2  3  1  0
  2 24  1  0
  3  4  1  0
  4 23  1  0
  4  5  1  1
  5  6  1  0
  6  7  1  0
  7 22  1  0
  7  8  2  0
  8  9  1  0
  9 10  2  0
 10 11  1  0
 11 12  1  0
 11 22  2  0
 12 13  1  0
 13 14  2  0
 13 15  1  0
 15 16  1  0
 16 17  2  0
 16 21  1  0
 17 18  1  0
 18 19  2  0
 19 20  1  0
 20 21  2  0
 23 24  1  0
M  END
