WPC2811_minimised.pdb
     RDKit          3D

 21 23  0  0  1  0  0  0  0  0999 V2000
   13.1470   -1.3280   21.6310 C   0  0  0  0  0  0  0  0  0  0  0  0
   13.4540   -0.1450   22.0320 N   0  0  0  0  0  0  0  0  0  0  0  0
   12.7250    0.1420   23.2830 C   0  0  0  0  0  0  0  0  0  0  0  0
   11.6990    1.2610   23.1440 C   0  0  0  0  0  0  0  0  0  0  0  0
   10.3400    0.9650   22.9420 C   0  0  0  0  0  0  0  0  0  0  0  0
    9.3940    1.9850   22.8280 C   0  0  0  0  0  0  0  0  0  0  0  0
   12.0990    2.6070   23.2010 C   0  0  0  0  0  0  0  0  0  0  0  0
   11.1470    3.6370   23.1060 C   0  0  0  0  0  0  0  0  0  0  0  0
   12.0940   -1.1600   23.5850 N   0  0  0  0  0  0  0  0  0  0  0  0
   12.2940   -1.9680   22.6070 C   0  0  0  0  0  0  0  0  0  0  0  0
    8.0750    1.6400   22.4780 N   0  0  0  0  0  0  0  0  0  0  0  0
    9.7880    3.3250   22.9330 C   0  0  0  0  0  0  0  0  0  0  0  0
    7.7360    1.1380   21.2520 C   0  0  0  0  0  0  0  0  0  0  0  0
    8.5450    0.8860   20.3790 O   0  0  0  0  0  0  0  0  0  0  0  0
    6.3890    0.9890   21.0750 N   0  0  0  0  0  0  0  0  0  0  0  0
    5.7360    1.1180   19.8270 C   0  0  0  0  0  0  0  0  0  0  0  0
    6.2160    0.5320   18.6320 C   0  0  0  0  0  0  0  0  0  0  0  0
    4.6650    2.0150   19.7620 C   0  0  0  0  0  0  0  0  0  0  0  0
    5.7150    0.8240   17.4110 N   0  0  0  0  0  0  0  0  0  0  0  0
    4.1630    2.3360   18.4990 C   0  0  0  0  0  0  0  0  0  0  0  0
    4.7430    1.7620   17.3620 C   0  0  0  0  0  0  0  0  0  0  0  0
  1  2  2  0
  1 10  1  0
  2  3  1  0
  3  9  1  0
  3  4  1  0
  4  7  1  0
  4  5  2  0
  5  6  1  0
  6 11  1  0
  6 12  2  0
  7  8  2  0
  8 12  1  0
  9 10  2  0
 11 13  1  0
 13 14  2  0
 13 15  1  0
 15 16  1  0
 16 17  2  0
 16 18  1  0
 17 19  1  0
 18 20  2  0
 19 21  2  0
 20 21  1  0
M  END
