WPC2710_minimised.pdb
     RDKit          3D

 23 24  0  0  1  0  0  0  0  0999 V2000
   16.6420    2.0000   19.8060 O   0  0  0  0  0  0  0  0  0  0  0  0
   15.8650    0.8250   19.9510 C   0  0  0  0  0  0  0  0  0  0  0  0
   14.9140    0.9480   21.1620 C   0  0  0  0  0  0  0  0  0  0  0  0
   14.1790   -0.3660   21.5190 C   0  0  2  0  0  0  0  0  0  0  0  0
   13.9230   -1.1280   20.3430 O   0  0  0  0  0  0  0  0  0  0  0  0
   12.8590   -0.0620   22.2580 C   0  0  0  0  0  0  0  0  0  0  0  0
   12.0390   -1.3120   22.6480 C   0  0  0  0  0  0  0  0  0  0  0  0
   10.7390   -0.8910   23.3080 C   0  0  0  0  0  0  0  0  0  0  0  0
    9.5900   -0.7460   22.5180 C   0  0  0  0  0  0  0  0  0  0  0  0
    8.3950   -0.2740   23.0820 C   0  0  0  0  0  0  0  0  0  0  0  0
   10.6830   -0.5710   24.6760 C   0  0  0  0  0  0  0  0  0  0  0  0
    9.4830   -0.1280   25.2520 C   0  0  0  0  0  0  0  0  0  0  0  0
    7.2370   -0.0740   22.3030 N   0  0  0  0  0  0  0  0  0  0  0  0
    8.3390    0.0200   24.4530 C   0  0  0  0  0  0  0  0  0  0  0  0
    7.1510    0.2830   20.9840 C   0  0  0  0  0  0  0  0  0  0  0  0
    8.0810    0.4050   20.2070 O   0  0  0  0  0  0  0  0  0  0  0  0
    5.8470    0.4860   20.6320 N   0  0  0  0  0  0  0  0  0  0  0  0
    5.3660    0.9990   19.4080 C   0  0  0  0  0  0  0  0  0  0  0  0
    5.9200    0.6380   18.1600 C   0  0  0  0  0  0  0  0  0  0  0  0
    4.3360    1.9450   19.4500 C   0  0  0  0  0  0  0  0  0  0  0  0
    5.5080    1.1630   16.9890 N   0  0  0  0  0  0  0  0  0  0  0  0
    3.9260    2.5090   18.2400 C   0  0  0  0  0  0  0  0  0  0  0  0
    4.5540    2.1220   17.0490 C   0  0  0  0  0  0  0  0  0  0  0  0
  1  2  1  0
  2  3  1  0
  3  4  1  0
  4  5  1  6
  4  6  1  0
  6  7  1  0
  7  8  1  0
  8 11  2  0
  8  9  1  0
  9 10  2  0
 10 13  1  0
 10 14  1  0
 11 12  1  0
 12 14  2  0
 13 15  1  0
 15 16  2  0
 15 17  1  0
 17 18  1  0
 18 19  2  0
 18 20  1  0
 19 21  1  0
 20 22  2  0
 21 23  2  0
 22 23  1  0
M  END
