WPC2136_minimised.pdb
     RDKit          3D

 24 25  0  0  1  0  0  0  0  0999 V2000
   12.2660    5.8720   24.4130 N   0  0  0  0  0  0  0  0  0  0  0  0
   12.0980    5.0950   23.1540 C   0  0  2  0  0  0  0  0  0  0  0  0
   11.5830    3.6720   23.4420 C   0  0  0  0  0  0  0  0  0  0  0  0
   10.2900    3.6250   24.2770 C   0  0  0  0  0  0  0  0  0  0  0  0
   10.2130    2.0440   25.2140 S   0  0  0  0  0  0  0  0  0  0  0  0
   10.2830    0.8090   23.9500 C   0  0  0  0  0  0  0  0  0  0  0  0
   11.5060    0.2890   23.4940 C   0  0  0  0  0  0  0  0  0  0  0  0
   11.5180   -0.6620   22.4570 C   0  0  0  0  0  0  0  0  0  0  0  0
   10.3070   -1.0790   21.8800 C   0  0  0  0  0  0  0  0  0  0  0  0
    9.0930   -0.5490   22.3450 C   0  0  0  0  0  0  0  0  0  0  0  0
    7.8710   -0.8270   21.7160 N   0  0  0  0  0  0  0  0  0  0  0  0
    7.5840   -0.3980   20.4560 C   0  0  0  0  0  0  0  0  0  0  0  0
    8.4190   -0.1170   19.6190 O   0  0  0  0  0  0  0  0  0  0  0  0
    6.2420   -0.2300   20.2700 N   0  0  0  0  0  0  0  0  0  0  0  0
    5.6650    0.5050   19.2120 C   0  0  0  0  0  0  0  0  0  0  0  0
    4.7020    1.4800   19.4980 C   0  0  0  0  0  0  0  0  0  0  0  0
    4.2490    2.2750   18.4380 C   0  0  0  0  0  0  0  0  0  0  0  0
    4.7900    2.0960   17.1570 C   0  0  0  0  0  0  0  0  0  0  0  0
    5.6970    1.1360   16.8700 N   0  0  0  0  0  0  0  0  0  0  0  0
    6.1230    0.3640   17.8880 C   0  0  0  0  0  0  0  0  0  0  0  0
    9.0810    0.3840   23.3820 C   0  0  0  0  0  0  0  0  0  0  0  0
   13.4000    4.9880   22.3270 C   0  0  0  0  0  0  0  0  0  0  0  0
   14.5070    4.9500   22.8300 O   0  0  0  0  0  0  0  0  0  0  0  0
   13.2310    5.0400   20.9960 O   0  0  0  0  0  0  0  0  0  0  0  0
  2  1  1  1
  2 22  1  0
  2  3  1  0
  3  4  1  0
  4  5  1  0
  5  6  1  0
  6 21  2  0
  6  7  1  0
  7  8  2  0
  8  9  1  0
  9 10  2  0
 10 11  1  0
 10 21  1  0
 11 12  1  0
 12 13  2  0
 12 14  1  0
 14 15  1  0
 15 16  2  0
 15 20  1  0
 16 17  1  0
 17 18  2  0
 18 19  1  0
 19 20  2  0
 22 23  2  0
 22 24  1  0
M  END
