WPC2198_minimised.pdb
     RDKit          3D

 22 23  0  0  0  0  0  0  0  0999 V2000
   14.2450    6.4260   21.8730 C   0  0  0  0  0  0  0  0  0  0  0  0
   13.8300    4.9510   21.8790 C   0  0  0  0  0  0  0  0  0  0  0  0
   12.9760    4.5520   23.0910 C   0  0  0  0  0  0  0  0  0  0  0  0
   11.5550    4.8670   22.8740 N   0  0  0  0  0  0  0  0  0  0  0  0
   10.6070    4.4690   23.9350 C   0  0  0  0  0  0  0  0  0  0  0  0
   10.8500    3.0760   24.5700 C   0  0  0  0  0  0  0  0  0  0  0  0
   10.7540    1.8660   23.6500 C   0  0  0  0  0  0  0  0  0  0  0  0
   11.8940    1.1050   23.3230 C   0  0  0  0  0  0  0  0  0  0  0  0
   11.7830   -0.0350   22.5090 C   0  0  0  0  0  0  0  0  0  0  0  0
   10.5220   -0.4410   22.0450 C   0  0  0  0  0  0  0  0  0  0  0  0
    9.3820    0.2920   22.4050 C   0  0  0  0  0  0  0  0  0  0  0  0
    8.1070   -0.0750   21.9420 N   0  0  0  0  0  0  0  0  0  0  0  0
    7.7250    0.0040   20.6360 C   0  0  0  0  0  0  0  0  0  0  0  0
    8.4950    0.1100   19.7030 O   0  0  0  0  0  0  0  0  0  0  0  0
    6.3670    0.0400   20.4960 N   0  0  0  0  0  0  0  0  0  0  0  0
    5.7010    0.5950   19.3810 C   0  0  0  0  0  0  0  0  0  0  0  0
    4.7290    1.5770   19.6060 C   0  0  0  0  0  0  0  0  0  0  0  0
    4.2050    2.2410   18.4910 C   0  0  0  0  0  0  0  0  0  0  0  0
    4.6860    1.9300   17.2120 C   0  0  0  0  0  0  0  0  0  0  0  0
    5.5870    0.9470   16.9830 N   0  0  0  0  0  0  0  0  0  0  0  0
    6.0860    0.3030   18.0560 C   0  0  0  0  0  0  0  0  0  0  0  0
    9.4970    1.4410   23.1980 C   0  0  0  0  0  0  0  0  0  0  0  0
  1  2  1  0
  2  3  1  0
  3  4  1  0
  4  5  1  0
  5  6  1  0
  6  7  1  0
  7 22  2  0
  7  8  1  0
  8  9  2  0
  9 10  1  0
 10 11  2  0
 11 12  1  0
 11 22  1  0
 12 13  1  0
 13 14  2  0
 13 15  1  0
 15 16  1  0
 16 17  2  0
 16 21  1  0
 17 18  1  0
 18 19  2  0
 19 20  1  0
 20 21  2  0
M  END
