WPC2693_minimised.pdb
     RDKit          3D

 22 24  0  0  1  0  0  0  0  0999 V2000
   12.7360   -2.8170   20.5940 N   0  0  0  0  0  0  0  0  0  0  0  0
   13.4720   -1.7570   20.9490 C   0  0  1  0  0  0  0  0  0  0  0  0
   13.3950   -0.6770   20.3000 N   0  0  0  0  0  0  0  0  0  0  0  0
   13.5660    0.4340   21.2480 C   0  0  0  0  0  0  0  0  0  0  0  0
   13.3860   -0.2410   22.6120 C   0  0  1  0  0  0  0  0  0  0  0  0
   11.9950   -0.0850   23.2300 C   0  0  0  0  0  0  0  0  0  0  0  0
   10.8130   -0.1930   22.4660 C   0  0  0  0  0  0  0  0  0  0  0  0
    9.5520   -0.0980   23.0880 C   0  0  0  0  0  0  0  0  0  0  0  0
   11.8890    0.1070   24.6160 C   0  0  0  0  0  0  0  0  0  0  0  0
   10.6370    0.1660   25.2430 C   0  0  0  0  0  0  0  0  0  0  0  0
   13.5720   -1.6160   22.2730 O   0  0  0  0  0  0  0  0  0  0  0  0
    8.3360   -0.1820   22.3750 N   0  0  0  0  0  0  0  0  0  0  0  0
    9.4700    0.0690   24.4770 C   0  0  0  0  0  0  0  0  0  0  0  0
    8.0700    0.2220   21.0950 C   0  0  0  0  0  0  0  0  0  0  0  0
    8.8920    0.5910   20.2800 O   0  0  0  0  0  0  0  0  0  0  0  0
    6.7280    0.1820   20.8420 N   0  0  0  0  0  0  0  0  0  0  0  0
    6.0760    0.6850   19.6960 C   0  0  0  0  0  0  0  0  0  0  0  0
    6.4720    0.3260   18.3900 C   0  0  0  0  0  0  0  0  0  0  0  0
    5.0380    1.6090   19.8650 C   0  0  0  0  0  0  0  0  0  0  0  0
    5.8830    0.8180   17.2790 N   0  0  0  0  0  0  0  0  0  0  0  0
    4.4540    2.1480   18.7130 C   0  0  0  0  0  0  0  0  0  0  0  0
    4.9150    1.7470   17.4520 C   0  0  0  0  0  0  0  0  0  0  0  0
  2  1  1  1
  2 11  1  0
  2  3  1  0
  3  4  1  0
  4  5  1  0
  5  6  1  6
  5 11  1  0
  6  9  1  0
  6  7  2  0
  7  8  1  0
  8 12  1  0
  8 13  2  0
  9 10  2  0
 10 13  1  0
 12 14  1  0
 14 15  2  0
 14 16  1  0
 16 17  1  0
 17 18  2  0
 17 19  1  0
 18 20  1  0
 19 21  2  0
 20 22  2  0
 21 22  1  0
M  END
