WPC2371_minimised.pdb
     RDKit          3D

 24 26  0  0  0  0  0  0  0  0999 V2000
    8.4960   -0.0910   19.7270 O   0  0  0  0  0  0  0  0  0  0  0  0
    7.7680   -0.2300   20.6880 C   0  0  0  0  0  0  0  0  0  0  0  0
    6.4070   -0.1530   20.6030 N   0  0  0  0  0  0  0  0  0  0  0  0
    5.7180    0.4210   19.5100 C   0  0  0  0  0  0  0  0  0  0  0  0
    4.7780    1.4270   19.7640 C   0  0  0  0  0  0  0  0  0  0  0  0
    4.2240    2.0910   18.6630 C   0  0  0  0  0  0  0  0  0  0  0  0
    4.6360    1.7470   17.3680 C   0  0  0  0  0  0  0  0  0  0  0  0
    5.5110    0.7480   17.1130 N   0  0  0  0  0  0  0  0  0  0  0  0
    6.0470    0.1120   18.1730 C   0  0  0  0  0  0  0  0  0  0  0  0
    8.2080   -0.4050   21.9690 N   0  0  0  0  0  0  0  0  0  0  0  0
    9.5120   -0.1000   22.4060 C   0  0  0  0  0  0  0  0  0  0  0  0
   10.6450   -0.6460   21.7820 C   0  0  0  0  0  0  0  0  0  0  0  0
   11.9310   -0.2370   22.1740 C   0  0  0  0  0  0  0  0  0  0  0  0
   12.0780    0.7150   23.1960 C   0  0  0  0  0  0  0  0  0  0  0  0
   10.9410    1.2410   23.8380 C   0  0  0  0  0  0  0  0  0  0  0  0
   11.0810    2.2010   24.9970 C   0  0  0  0  0  0  0  0  0  0  0  0
   10.6780    3.9490   24.5890 S   0  0  0  0  0  0  0  0  0  0  0  0
   11.9950    4.3570   23.4770 C   0  0  0  0  0  0  0  0  0  0  0  0
   11.6760    4.4360   22.1930 N   0  0  0  0  0  0  0  0  0  0  0  0
   12.6480    4.6930   21.3250 C   0  0  0  0  0  0  0  0  0  0  0  0
   13.9630    4.8650   21.7340 C   0  0  0  0  0  0  0  0  0  0  0  0
   14.2130    4.7200   23.0920 C   0  0  0  0  0  0  0  0  0  0  0  0
   13.2310    4.4900   23.9740 N   0  0  0  0  0  0  0  0  0  0  0  0
    9.6620    0.8300   23.4400 C   0  0  0  0  0  0  0  0  0  0  0  0
  1  2  2  0
  2  3  1  0
  2 10  1  0
  3  4  1  0
  4  5  2  0
  4  9  1  0
  5  6  1  0
  6  7  2  0
  7  8  1  0
  8  9  2  0
 10 11  1  0
 11 24  1  0
 11 12  2  0
 12 13  1  0
 13 14  2  0
 14 15  1  0
 15 16  1  0
 15 24  2  0
 16 17  1  0
 17 18  1  0
 18 19  2  0
 18 23  1  0
 19 20  1  0
 20 21  2  0
 21 22  1  0
 22 23  2  0
M  END
