WPC2873_minimised.pdb
     RDKit          3D

 19 20  0  0  0  0  0  0  0  0999 V2000
   13.9230   -1.6980   20.6430 N   0  0  0  0  0  0  0  0  0  0  0  0
   13.6140   -0.8500   21.3550 C   0  0  0  0  0  0  0  0  0  0  0  0
   13.3280    0.1890   22.1430 N   0  0  0  0  0  0  0  0  0  0  0  0
   12.0900    0.5040   22.6810 C   0  0  0  0  0  0  0  0  0  0  0  0
   10.8950   -0.1270   22.2890 C   0  0  0  0  0  0  0  0  0  0  0  0
    9.6710    0.2870   22.8390 C   0  0  0  0  0  0  0  0  0  0  0  0
   12.0420    1.5420   23.6200 C   0  0  0  0  0  0  0  0  0  0  0  0
   10.8250    1.9270   24.2020 C   0  0  0  0  0  0  0  0  0  0  0  0
    8.4440   -0.2000   22.3480 N   0  0  0  0  0  0  0  0  0  0  0  0
    9.6390    1.2930   23.8130 C   0  0  0  0  0  0  0  0  0  0  0  0
    8.0210    0.0010   21.0640 C   0  0  0  0  0  0  0  0  0  0  0  0
    8.7540    0.3230   20.1520 O   0  0  0  0  0  0  0  0  0  0  0  0
    6.6670   -0.1180   20.9060 N   0  0  0  0  0  0  0  0  0  0  0  0
    5.9630    0.3930   19.7900 C   0  0  0  0  0  0  0  0  0  0  0  0
    6.3170    0.0550   18.4650 C   0  0  0  0  0  0  0  0  0  0  0  0
    4.9830    1.3710   20.0000 C   0  0  0  0  0  0  0  0  0  0  0  0
    5.7560    0.6260   17.3790 N   0  0  0  0  0  0  0  0  0  0  0  0
    4.4170    1.9810   18.8740 C   0  0  0  0  0  0  0  0  0  0  0  0
    4.8440    1.6020   17.5930 C   0  0  0  0  0  0  0  0  0  0  0  0
  1  2  3  0
  2  3  1  0
  3  4  1  0
  4  7  2  0
  4  5  1  0
  5  6  2  0
  6  9  1  0
  6 10  1  0
  7  8  1  0
  8 10  2  0
  9 11  1  0
 11 12  2  0
 11 13  1  0
 13 14  1  0
 14 15  2  0
 14 16  1  0
 15 17  1  0
 16 18  2  0
 17 19  2  0
 18 19  1  0
M  END
