WPC2083_minimised.pdb
     RDKit          3D

 20 21  0  0  0  0  0  0  0  0999 V2000
   13.1270    5.2140   22.6680 N   0  0  0  0  0  0  0  0  0  0  0  0
   12.0480    4.9590   22.9850 C   0  0  0  0  0  0  0  0  0  0  0  0
   10.4980    4.6120   23.5610 S   0  0  0  0  0  0  0  0  0  0  0  0
   10.7990    3.0580   24.4960 C   0  0  0  0  0  0  0  0  0  0  0  0
   10.8310    1.8280   23.6100 C   0  0  0  0  0  0  0  0  0  0  0  0
   12.0450    1.2840   23.1510 C   0  0  0  0  0  0  0  0  0  0  0  0
   12.0390    0.1460   22.3240 C   0  0  0  0  0  0  0  0  0  0  0  0
   10.8190   -0.4450   21.9510 C   0  0  0  0  0  0  0  0  0  0  0  0
    9.6110    0.0970   22.4160 C   0  0  0  0  0  0  0  0  0  0  0  0
    8.3630   -0.3930   21.9860 N   0  0  0  0  0  0  0  0  0  0  0  0
    7.8990   -0.2210   20.7140 C   0  0  0  0  0  0  0  0  0  0  0  0
    8.6100    0.0120   19.7580 O   0  0  0  0  0  0  0  0  0  0  0  0
    6.5340   -0.2360   20.6300 N   0  0  0  0  0  0  0  0  0  0  0  0
    5.8180    0.3470   19.5590 C   0  0  0  0  0  0  0  0  0  0  0  0
    4.8810    1.3490   19.8390 C   0  0  0  0  0  0  0  0  0  0  0  0
    4.3150    2.0340   18.7560 C   0  0  0  0  0  0  0  0  0  0  0  0
    4.7130    1.7140   17.4500 C   0  0  0  0  0  0  0  0  0  0  0  0
    5.5860    0.7190   17.1700 N   0  0  0  0  0  0  0  0  0  0  0  0
    6.1320    0.0630   18.2130 C   0  0  0  0  0  0  0  0  0  0  0  0
    9.6200    1.2230   23.2470 C   0  0  0  0  0  0  0  0  0  0  0  0
  1  2  3  0
  2  3  1  0
  3  4  1  0
  4  5  1  0
  5 20  2  0
  5  6  1  0
  6  7  2  0
  7  8  1  0
  8  9  2  0
  9 10  1  0
  9 20  1  0
 10 11  1  0
 11 12  2  0
 11 13  1  0
 13 14  1  0
 14 15  2  0
 14 19  1  0
 15 16  1  0
 16 17  2  0
 17 18  1  0
 18 19  2  0
M  END
