WPC2090_minimised.pdb
     RDKit          3D

 24 25  0  0  0  0  0  0  0  0999 V2000
   11.0660    5.4010   23.0470 N   0  0  0  0  0  0  0  0  0  0  0  0
   12.2190    5.7940   23.6660 C   0  0  0  0  0  0  0  0  0  0  0  0
   12.2010    6.4930   25.1630 S   0  0  0  0  0  0  0  0  0  0  0  0
   13.3770    5.6910   22.9190 N   0  0  0  0  0  0  0  0  0  0  0  0
   13.4300    5.1930   21.6360 N   0  0  0  0  0  0  0  0  0  0  0  0
   13.6510    3.9450   21.3930 C   0  0  0  0  0  0  0  0  0  0  0  0
   14.0520    2.9240   22.4360 C   0  0  0  0  0  0  0  0  0  0  0  0
   12.5400    2.4940   23.4010 S   0  0  0  0  0  0  0  0  0  0  0  0
   11.9860    0.8990   22.8640 C   0  0  0  0  0  0  0  0  0  0  0  0
   12.8610   -0.1940   22.7780 C   0  0  0  0  0  0  0  0  0  0  0  0
   12.3580   -1.4680   22.4630 C   0  0  0  0  0  0  0  0  0  0  0  0
   10.9840   -1.6430   22.2250 C   0  0  0  0  0  0  0  0  0  0  0  0
   10.1190   -0.5420   22.2870 C   0  0  0  0  0  0  0  0  0  0  0  0
    8.7500   -0.6800   21.9850 N   0  0  0  0  0  0  0  0  0  0  0  0
    8.1830   -0.1770   20.8490 C   0  0  0  0  0  0  0  0  0  0  0  0
    8.8280    0.3310   19.9570 O   0  0  0  0  0  0  0  0  0  0  0  0
    6.8190   -0.2550   20.7960 N   0  0  0  0  0  0  0  0  0  0  0  0
    6.0520    0.3230   19.7540 C   0  0  0  0  0  0  0  0  0  0  0  0
    5.1100    1.3150   20.0510 C   0  0  0  0  0  0  0  0  0  0  0  0
    4.5010    1.9780   18.9760 C   0  0  0  0  0  0  0  0  0  0  0  0
    4.8520    1.6370   17.6600 C   0  0  0  0  0  0  0  0  0  0  0  0
    5.7260    0.6480   17.3650 N   0  0  0  0  0  0  0  0  0  0  0  0
    6.3260    0.0270   18.4010 C   0  0  0  0  0  0  0  0  0  0  0  0
   10.6210    0.7250   22.6090 C   0  0  0  0  0  0  0  0  0  0  0  0
  1  2  1  0
  2  3  2  0
  2  4  1  0
  4  5  1  0
  5  6  2  0
  6  7  1  0
  7  8  1  0
  8  9  1  0
  9 24  2  0
  9 10  1  0
 10 11  2  0
 11 12  1  0
 12 13  2  0
 13 14  1  0
 13 24  1  0
 14 15  1  0
 15 16  2  0
 15 17  1  0
 17 18  1  0
 18 19  2  0
 18 23  1  0
 19 20  1  0
 20 21  2  0
 21 22  1  0
 22 23  2  0
M  END
