WPC2739_minimised.pdb
     RDKit          3D

 21 22  0  0  0  0  0  0  0  0999 V2000
   11.7960   -0.6830   21.6340 C   0  0  0  0  0  0  0  0  0  0  0  0
   13.2940   -0.5220   21.8300 C   0  0  0  0  0  0  0  0  0  0  0  0
   14.0700   -1.1450   21.1280 O   0  0  0  0  0  0  0  0  0  0  0  0
   13.8050    0.4300   22.9130 C   0  0  0  0  0  0  0  0  0  0  0  0
   12.7260    0.5370   24.4040 S   0  0  0  0  0  0  0  0  0  0  0  0
   11.4330    1.6460   23.9210 C   0  0  0  0  0  0  0  0  0  0  0  0
   10.1410    1.1310   23.7680 C   0  0  0  0  0  0  0  0  0  0  0  0
    9.1440    1.9270   23.2000 C   0  0  0  0  0  0  0  0  0  0  0  0
   11.7100    2.9810   23.5840 C   0  0  0  0  0  0  0  0  0  0  0  0
   10.6830    3.8050   23.0990 C   0  0  0  0  0  0  0  0  0  0  0  0
    7.9600    1.3240   22.7480 N   0  0  0  0  0  0  0  0  0  0  0  0
    9.4010    3.2710   22.8940 C   0  0  0  0  0  0  0  0  0  0  0  0
    7.7620    0.9830   21.4380 C   0  0  0  0  0  0  0  0  0  0  0  0
    8.6320    1.0070   20.5850 O   0  0  0  0  0  0  0  0  0  0  0  0
    6.4610    0.6720   21.1630 N   0  0  0  0  0  0  0  0  0  0  0  0
    5.8550    0.8970   19.9070 C   0  0  0  0  0  0  0  0  0  0  0  0
    6.3680    0.3730   18.6980 C   0  0  0  0  0  0  0  0  0  0  0  0
    4.7970    1.8110   19.8600 C   0  0  0  0  0  0  0  0  0  0  0  0
    5.8930    0.7230   17.4810 N   0  0  0  0  0  0  0  0  0  0  0  0
    4.3250    2.1940   18.6020 C   0  0  0  0  0  0  0  0  0  0  0  0
    4.9170    1.6590   17.4520 C   0  0  0  0  0  0  0  0  0  0  0  0
  1  2  1  0
  2  3  2  0
  2  4  1  0
  4  5  1  0
  5  6  1  0
  6  9  2  0
  6  7  1  0
  7  8  2  0
  8 11  1  0
  8 12  1  0
  9 10  1  0
 10 12  2  0
 11 13  1  0
 13 14  2  0
 13 15  1  0
 15 16  1  0
 16 17  2  0
 16 18  1  0
 17 19  1  0
 18 20  2  0
 19 21  2  0
 20 21  1  0
M  END
