WPC2139_minimised.pdb
     RDKit          3D

 23 24  0  0  0  0  0  0  0  0999 V2000
   14.0600    5.4380   20.9110 C   0  0  0  0  0  0  0  0  0  0  0  0
   13.7160    4.9520   22.3170 C   0  0  0  0  0  0  0  0  0  0  0  0
   12.2700    4.9150   22.5280 N   0  0  0  0  0  0  0  0  0  0  0  0
   11.7540    4.8100   23.7900 C   0  0  0  0  0  0  0  0  0  0  0  0
   12.3810    5.1830   24.7640 O   0  0  0  0  0  0  0  0  0  0  0  0
   10.4130    4.1070   23.9220 C   0  0  0  0  0  0  0  0  0  0  0  0
   10.5810    2.7460   24.6400 C   0  0  0  0  0  0  0  0  0  0  0  0
   10.7430    1.5740   23.6920 C   0  0  0  0  0  0  0  0  0  0  0  0
   12.0080    1.1100   23.2860 C   0  0  0  0  0  0  0  0  0  0  0  0
   12.1060    0.0080   22.4170 C   0  0  0  0  0  0  0  0  0  0  0  0
   10.9420   -0.6280   21.9500 C   0  0  0  0  0  0  0  0  0  0  0  0
    9.6840   -0.1630   22.3630 C   0  0  0  0  0  0  0  0  0  0  0  0
    8.4860   -0.6970   21.8550 N   0  0  0  0  0  0  0  0  0  0  0  0
    7.9900   -0.3410   20.6350 C   0  0  0  0  0  0  0  0  0  0  0  0
    8.6690    0.1120   19.7360 O   0  0  0  0  0  0  0  0  0  0  0  0
    6.6300   -0.4400   20.5430 N   0  0  0  0  0  0  0  0  0  0  0  0
    5.8900    0.2030   19.5240 C   0  0  0  0  0  0  0  0  0  0  0  0
    4.9650    1.1980   19.8680 C   0  0  0  0  0  0  0  0  0  0  0  0
    4.3940    1.9440   18.8280 C   0  0  0  0  0  0  0  0  0  0  0  0
    4.7730    1.6880   17.5020 C   0  0  0  0  0  0  0  0  0  0  0  0
    5.6360    0.7050   17.1620 N   0  0  0  0  0  0  0  0  0  0  0  0
    6.1900   -0.0070   18.1630 C   0  0  0  0  0  0  0  0  0  0  0  0
    9.5890    0.9290   23.2300 C   0  0  0  0  0  0  0  0  0  0  0  0
  1  2  1  0
  2  3  1  0
  3  4  1  0
  4  5  2  0
  4  6  1  0
  6  7  1  0
  7  8  1  0
  8 23  2  0
  8  9  1  0
  9 10  2  0
 10 11  1  0
 11 12  2  0
 12 13  1  0
 12 23  1  0
 13 14  1  0
 14 15  2  0
 14 16  1  0
 16 17  1  0
 17 18  2  0
 17 22  1  0
 18 19  1  0
 19 20  2  0
 20 21  1  0
 21 22  2  0
M  END
