WPC2055_minimised.pdb
     RDKit          3D

 24 26  0  0  0  0  0  0  0  0999 V2000
   13.9900    5.6290   22.0310 C   0  0  0  0  0  0  0  0  0  0  0  0
   12.9630    5.3560   23.0830 C   0  0  0  0  0  0  0  0  0  0  0  0
   12.2010    4.1690   23.0560 C   0  0  0  0  0  0  0  0  0  0  0  0
   11.4100    4.2790   24.1420 C   0  0  0  0  0  0  0  0  0  0  0  0
   10.4670    3.2280   24.6390 C   0  0  0  0  0  0  0  0  0  0  0  0
   11.1410    1.8520   24.8480 C   0  0  0  0  0  0  0  0  0  0  0  0
   11.0010    0.8830   23.6970 C   0  0  0  0  0  0  0  0  0  0  0  0
   12.1360    0.3720   23.0410 C   0  0  0  0  0  0  0  0  0  0  0  0
   11.9890   -0.6020   22.0410 C   0  0  0  0  0  0  0  0  0  0  0  0
   10.7050   -1.0400   21.6810 C   0  0  0  0  0  0  0  0  0  0  0  0
    9.5750   -0.4980   22.3070 C   0  0  0  0  0  0  0  0  0  0  0  0
    8.2780   -0.7890   21.8480 N   0  0  0  0  0  0  0  0  0  0  0  0
    7.8260   -0.3890   20.6240 C   0  0  0  0  0  0  0  0  0  0  0  0
    8.5460   -0.0170   19.7190 O   0  0  0  0  0  0  0  0  0  0  0  0
    6.4630   -0.3650   20.5330 N   0  0  0  0  0  0  0  0  0  0  0  0
    5.7650    0.2930   19.4950 C   0  0  0  0  0  0  0  0  0  0  0  0
    4.8380    1.2930   19.8160 C   0  0  0  0  0  0  0  0  0  0  0  0
    4.2930    2.0370   18.7610 C   0  0  0  0  0  0  0  0  0  0  0  0
    4.7010    1.7740   17.4440 C   0  0  0  0  0  0  0  0  0  0  0  0
    5.5650    0.7850   17.1260 N   0  0  0  0  0  0  0  0  0  0  0  0
    6.0920    0.0730   18.1410 C   0  0  0  0  0  0  0  0  0  0  0  0
    9.7240    0.4410   23.3290 C   0  0  0  0  0  0  0  0  0  0  0  0
   11.6190    5.4320   24.8280 O   0  0  0  0  0  0  0  0  0  0  0  0
   12.6410    6.1190   24.1220 N   0  0  0  0  0  0  0  0  0  0  0  0
  1  2  1  0
  2  3  1  0
  2 24  2  0
  3  4  2  0
  4 23  1  0
  4  5  1  0
  5  6  1  0
  6  7  1  0
  7 22  1  0
  7  8  2  0
  8  9  1  0
  9 10  2  0
 10 11  1  0
 11 12  1  0
 11 22  2  0
 12 13  1  0
 13 14  2  0
 13 15  1  0
 15 16  1  0
 16 17  2  0
 16 21  1  0
 17 18  1  0
 18 19  2  0
 19 20  1  0
 20 21  2  0
 23 24  1  0
M  END
