WPC2796_minimised.pdb
     RDKit          3D

 19 20  0  0  1  0  0  0  0  0999 V2000
   13.3640   -1.3280   21.5320 C   0  0  0  0  0  0  0  0  0  0  0  0
   13.1130    0.0230   22.2200 C   0  0  2  0  0  0  0  0  0  0  0  0
   14.2990    0.3910   22.9890 N   0  0  0  0  0  0  0  0  0  0  0  0
   11.8230    0.0360   23.0390 C   0  0  0  0  0  0  0  0  0  0  0  0
   10.5980   -0.0770   22.3580 C   0  0  0  0  0  0  0  0  0  0  0  0
    9.3740   -0.0270   23.0470 C   0  0  0  0  0  0  0  0  0  0  0  0
   11.8020    0.1770   24.4410 C   0  0  0  0  0  0  0  0  0  0  0  0
   10.5850    0.1830   25.1420 C   0  0  0  0  0  0  0  0  0  0  0  0
    8.1250   -0.0830   22.3830 N   0  0  0  0  0  0  0  0  0  0  0  0
    9.3730    0.0890   24.4440 C   0  0  0  0  0  0  0  0  0  0  0  0
    7.8290    0.2750   21.0940 C   0  0  0  0  0  0  0  0  0  0  0  0
    8.6320    0.6030   20.2430 O   0  0  0  0  0  0  0  0  0  0  0  0
    6.4840    0.2380   20.8530 N   0  0  0  0  0  0  0  0  0  0  0  0
    5.8500    0.7210   19.6860 C   0  0  0  0  0  0  0  0  0  0  0  0
    6.2860    0.3560   18.3930 C   0  0  0  0  0  0  0  0  0  0  0  0
    4.8240    1.6630   19.8170 C   0  0  0  0  0  0  0  0  0  0  0  0
    5.7580    0.8660   17.2610 N   0  0  0  0  0  0  0  0  0  0  0  0
    4.2960    2.2150   18.6440 C   0  0  0  0  0  0  0  0  0  0  0  0
    4.8050    1.8170   17.4010 C   0  0  0  0  0  0  0  0  0  0  0  0
  2  1  1  1
  2  4  1  0
  2  3  1  0
  4  5  2  0
  4  7  1  0
  5  6  1  0
  6 10  2  0
  6  9  1  0
  7  8  2  0
  8 10  1  0
  9 11  1  0
 11 12  2  0
 11 13  1  0
 13 14  1  0
 14 15  2  0
 14 16  1  0
 15 17  1  0
 16 18  2  0
 17 19  2  0
 18 19  1  0
M  END
