WPC2746_minimised.pdb
     RDKit          3D

 19 20  0  0  0  0  0  0  0  0999 V2000
   14.8340   -2.1860   19.6540 O   0  0  0  0  0  0  0  0  0  0  0  0
   13.7310   -1.1930   21.2050 I   0  0  0  0  0  0  0  0  0  0  0  0
   15.0370   -1.1140   19.5660 O   0  0  0  0  0  0  0  0  0  0  0  0
   12.2540   -0.2410   22.3420 C   0  0  0  0  0  0  0  0  0  0  0  0
   10.9860   -0.8340   22.2770 C   0  0  0  0  0  0  0  0  0  0  0  0
    9.9690   -0.3380   23.0860 C   0  0  0  0  0  0  0  0  0  0  0  0
   12.4970    0.8720   23.1700 C   0  0  0  0  0  0  0  0  0  0  0  0
   11.5040    1.2610   24.0840 C   0  0  0  0  0  0  0  0  0  0  0  0
    8.6350   -0.7200   22.7340 N   0  0  0  0  0  0  0  0  0  0  0  0
   10.2400    0.6480   24.0530 C   0  0  0  0  0  0  0  0  0  0  0  0
    8.1730   -0.1860   21.5010 C   0  0  0  0  0  0  0  0  0  0  0  0
    8.8760    0.5300   20.7760 O   0  0  0  0  0  0  0  0  0  0  0  0
    7.0240   -0.8450   20.9830 N   0  0  0  0  0  0  0  0  0  0  0  0
    6.4010   -0.1450   19.9410 C   0  0  0  0  0  0  0  0  0  0  0  0
    6.9300   -0.1560   18.7210 C   0  0  0  0  0  0  0  0  0  0  0  0
    5.3240    0.6820   20.1650 C   0  0  0  0  0  0  0  0  0  0  0  0
    6.4530    0.5190   17.7190 N   0  0  0  0  0  0  0  0  0  0  0  0
    4.8720    1.4150   19.1660 C   0  0  0  0  0  0  0  0  0  0  0  0
    5.4400    1.2900   17.9370 C   0  0  0  0  0  0  0  0  0  0  0  0
  1  2  1  0
  2  4  1  0
  2  3  1  0
  4  5  2  0
  4  7  1  0
  5  6  1  0
  6 10  2  0
  6  9  1  0
  7  8  2  0
  8 10  1  0
  9 11  1  0
 11 12  2  0
 11 13  1  0
 13 14  1  0
 14 15  2  0
 14 16  1  0
 15 17  1  0
 16 18  2  0
 17 19  2  0
 18 19  1  0
M  END
