WPC2817_minimised.pdb
     RDKit          3D

 17 18  0  0  0  0  0  0  0  0999 V2000
   13.5700   -1.1130   21.4220 S   0  0  0  0  0  0  0  0  0  0  0  0
   12.3150   -0.1320   22.2060 C   0  0  0  0  0  0  0  0  0  0  0  0
   10.9620   -0.4360   21.9960 C   0  0  0  0  0  0  0  0  0  0  0  0
    9.9560    0.3560   22.5720 C   0  0  0  0  0  0  0  0  0  0  0  0
   12.6610    0.9700   23.0040 C   0  0  0  0  0  0  0  0  0  0  0  0
   11.6560    1.7600   23.5870 C   0  0  0  0  0  0  0  0  0  0  0  0
    8.5990    0.1250   22.2670 N   0  0  0  0  0  0  0  0  0  0  0  0
   10.3040    1.4470   23.3790 C   0  0  0  0  0  0  0  0  0  0  0  0
    8.0830    0.1840   21.0010 C   0  0  0  0  0  0  0  0  0  0  0  0
    8.7680    0.2760   20.0040 O   0  0  0  0  0  0  0  0  0  0  0  0
    6.7140    0.1760   20.9450 N   0  0  0  0  0  0  0  0  0  0  0  0
    5.9640    0.5860   19.8140 C   0  0  0  0  0  0  0  0  0  0  0  0
    6.2880    0.1780   18.4990 C   0  0  0  0  0  0  0  0  0  0  0  0
    4.9520    1.5370   19.9940 C   0  0  0  0  0  0  0  0  0  0  0  0
    5.6820    0.6670   17.3970 N   0  0  0  0  0  0  0  0  0  0  0  0
    4.3390    2.0630   18.8500 C   0  0  0  0  0  0  0  0  0  0  0  0
    4.7540    1.6320   17.5820 C   0  0  0  0  0  0  0  0  0  0  0  0
  1  2  1  0
  2  3  2  0
  2  5  1  0
  3  4  1  0
  4  8  2  0
  4  7  1  0
  5  6  2  0
  6  8  1  0
  7  9  1  0
  9 10  2  0
  9 11  1  0
 11 12  1  0
 12 13  2  0
 12 14  1  0
 13 15  1  0
 14 16  2  0
 15 17  2  0
 16 17  1  0
M  END
