WPC2510_minimised.pdb
     RDKit          3D

 23 24  0  0  0  0  0  0  0  0999 V2000
   13.0620    5.2380   24.1250 N   0  0  0  0  0  0  0  0  0  0  0  0
   12.1720    4.9280   22.8620 S   0  0  0  0  0  0  0  0  0  0  0  0
   13.2350    5.4450   22.0410 O   0  0  0  0  0  0  0  0  0  0  0  0
   11.1440    5.7410   23.4680 O   0  0  0  0  0  0  0  0  0  0  0  0
   12.2260    3.3920   23.2900 O   0  0  0  0  0  0  0  0  0  0  0  0
   11.1190    2.9350   24.0690 C   0  0  0  0  0  0  0  0  0  0  0  0
   11.4180    1.4920   24.5020 C   0  0  0  0  0  0  0  0  0  0  0  0
   11.0680    0.4720   23.4480 C   0  0  0  0  0  0  0  0  0  0  0  0
   12.0730   -0.2050   22.7360 C   0  0  0  0  0  0  0  0  0  0  0  0
   11.7260   -1.2070   21.8170 C   0  0  0  0  0  0  0  0  0  0  0  0
   10.3710   -1.4850   21.5750 C   0  0  0  0  0  0  0  0  0  0  0  0
    9.3730   -0.7520   22.2280 C   0  0  0  0  0  0  0  0  0  0  0  0
    8.0310   -0.8440   21.8220 N   0  0  0  0  0  0  0  0  0  0  0  0
    7.6190   -0.4440   20.5830 C   0  0  0  0  0  0  0  0  0  0  0  0
    8.3730   -0.2320   19.6530 O   0  0  0  0  0  0  0  0  0  0  0  0
    6.2690   -0.2430   20.5040 N   0  0  0  0  0  0  0  0  0  0  0  0
    5.6250    0.4300   19.4400 C   0  0  0  0  0  0  0  0  0  0  0  0
    4.7000    1.4400   19.7300 C   0  0  0  0  0  0  0  0  0  0  0  0
    4.1910    2.1830   18.6570 C   0  0  0  0  0  0  0  0  0  0  0  0
    4.6350    1.9140   17.3540 C   0  0  0  0  0  0  0  0  0  0  0  0
    5.4960    0.9130   17.0640 N   0  0  0  0  0  0  0  0  0  0  0  0
    5.9800    0.1950   18.0950 C   0  0  0  0  0  0  0  0  0  0  0  0
    9.7180    0.2010   23.1870 C   0  0  0  0  0  0  0  0  0  0  0  0
  1  2  1  0
  2  3  2  0
  2  4  2  0
  2  5  1  0
  5  6  1  0
  6  7  1  0
  7  8  1  0
  8 23  2  0
  8  9  1  0
  9 10  2  0
 10 11  1  0
 11 12  2  0
 12 13  1  0
 12 23  1  0
 13 14  1  0
 14 15  2  0
 14 16  1  0
 16 17  1  0
 17 18  2  0
 17 22  1  0
 18 19  1  0
 19 20  2  0
 20 21  1  0
 21 22  2  0
M  END
