WPC2462_minimised.pdb
     RDKit          3D

 18 19  0  0  0  0  0  0  0  0999 V2000
   11.5890    3.8510   22.9750 C   0  0  0  0  0  0  0  0  0  0  0  0
   12.1000    2.5420   23.6090 C   0  0  0  0  0  0  0  0  0  0  0  0
   11.6250    1.2680   22.9290 C   0  0  0  0  0  0  0  0  0  0  0  0
   12.5550    0.3100   22.4840 C   0  0  0  0  0  0  0  0  0  0  0  0
   12.1160   -0.8780   21.8780 C   0  0  0  0  0  0  0  0  0  0  0  0
   10.7420   -1.1090   21.7100 C   0  0  0  0  0  0  0  0  0  0  0  0
    9.8130   -0.1560   22.1480 C   0  0  0  0  0  0  0  0  0  0  0  0
    8.4400   -0.3170   21.8830 N   0  0  0  0  0  0  0  0  0  0  0  0
    7.8940   -0.1320   20.6450 C   0  0  0  0  0  0  0  0  0  0  0  0
    8.5540   -0.0180   19.6320 O   0  0  0  0  0  0  0  0  0  0  0  0
    6.5300   -0.0210   20.6490 N   0  0  0  0  0  0  0  0  0  0  0  0
    5.7780    0.5160   19.5750 C   0  0  0  0  0  0  0  0  0  0  0  0
    4.8370    1.5170   19.8430 C   0  0  0  0  0  0  0  0  0  0  0  0
    4.2310    2.1510   18.7510 C   0  0  0  0  0  0  0  0  0  0  0  0
    4.5980    1.7860   17.4470 C   0  0  0  0  0  0  0  0  0  0  0  0
    5.4640    0.7830   17.1800 N   0  0  0  0  0  0  0  0  0  0  0  0
    6.0440    0.1720   18.2310 C   0  0  0  0  0  0  0  0  0  0  0  0
   10.2520    1.0210   22.7680 C   0  0  0  0  0  0  0  0  0  0  0  0
  1  2  1  0
  2  3  1  0
  3 18  2  0
  3  4  1  0
  4  5  2  0
  5  6  1  0
  6  7  2  0
  7  8  1  0
  7 18  1  0
  8  9  1  0
  9 10  2  0
  9 11  1  0
 11 12  1  0
 12 13  2  0
 12 17  1  0
 13 14  1  0
 14 15  2  0
 15 16  1  0
 16 17  2  0
M  END
