WPC2689_minimised.pdb
     RDKit          3D

 22 23  0  0  1  0  0  0  0  0999 V2000
   16.0890    1.4010   19.7900 C   0  0  0  0  0  0  0  0  0  0  0  0
   15.2030    0.4960   20.2100 C   0  0  0  0  0  0  0  0  0  0  0  0
   14.1740    0.7400   21.3030 C   0  0  0  0  0  0  0  0  0  0  0  0
   13.2090   -0.4580   21.5370 C   0  0  2  0  0  0  0  0  0  0  0  0
   13.9680   -1.6170   22.1830 C   0  0  0  0  0  0  0  0  0  0  0  0
   12.7870   -0.9440   20.2700 O   0  0  0  0  0  0  0  0  0  0  0  0
   11.9950   -0.0560   22.3910 C   0  0  0  0  0  0  0  0  0  0  0  0
   10.6810   -0.3830   21.9900 C   0  0  0  0  0  0  0  0  0  0  0  0
    9.5680    0.0720   22.7120 C   0  0  0  0  0  0  0  0  0  0  0  0
   12.1620    0.6720   23.5890 C   0  0  0  0  0  0  0  0  0  0  0  0
   11.0450    1.0830   24.3380 C   0  0  0  0  0  0  0  0  0  0  0  0
    8.2630   -0.1100   22.2120 N   0  0  0  0  0  0  0  0  0  0  0  0
    9.7500    0.7910   23.8970 C   0  0  0  0  0  0  0  0  0  0  0  0
    7.8740    0.1650   20.9290 C   0  0  0  0  0  0  0  0  0  0  0  0
    8.6400    0.4260   20.0200 O   0  0  0  0  0  0  0  0  0  0  0  0
    6.5160    0.1530   20.7750 N   0  0  0  0  0  0  0  0  0  0  0  0
    5.8270    0.6390   19.6400 C   0  0  0  0  0  0  0  0  0  0  0  0
    6.1900    0.2660   18.3270 C   0  0  0  0  0  0  0  0  0  0  0  0
    4.8240    1.5970   19.8230 C   0  0  0  0  0  0  0  0  0  0  0  0
    5.6150    0.7880   17.2230 N   0  0  0  0  0  0  0  0  0  0  0  0
    4.2440    2.1580   18.6790 C   0  0  0  0  0  0  0  0  0  0  0  0
    4.6830    1.7510   17.4110 C   0  0  0  0  0  0  0  0  0  0  0  0
  1  2  2  0
  2  3  1  0
  4  3  1  0
  4  5  1  1
  4  6  1  0
  4  7  1  0
  7 10  2  0
  7  8  1  0
  8  9  2  0
  9 12  1  0
  9 13  1  0
 10 11  1  0
 11 13  2  0
 12 14  1  0
 14 15  2  0
 14 16  1  0
 16 17  1  0
 17 18  2  0
 17 19  1  0
 18 20  1  0
 19 21  2  0
 20 22  2  0
 21 22  1  0
M  END
