WPC2835_minimised.pdb
     RDKit          3D

 21 22  0  0  1  0  0  0  0  0999 V2000
   16.1570    1.3410   18.9610 C   0  0  0  0  0  0  0  0  0  0  0  0
   15.4060    0.2700   19.7730 C   0  0  2  0  0  0  0  0  0  0  0  0
   14.6130   -0.5230   18.9100 O   0  0  0  0  0  0  0  0  0  0  0  0
   14.5190    0.8520   20.8990 C   0  0  0  0  0  0  0  0  0  0  0  0
   13.7850   -0.2160   21.7480 C   0  0  0  0  0  0  0  0  0  0  0  0
   12.5610    0.3730   22.4310 C   0  0  0  0  0  0  0  0  0  0  0  0
   11.2670   -0.0320   22.0530 C   0  0  0  0  0  0  0  0  0  0  0  0
   10.1370    0.5510   22.6490 C   0  0  0  0  0  0  0  0  0  0  0  0
   12.7140    1.3710   23.4070 C   0  0  0  0  0  0  0  0  0  0  0  0
   11.5850    1.9540   24.0030 C   0  0  0  0  0  0  0  0  0  0  0  0
    8.8280    0.2110   22.2440 N   0  0  0  0  0  0  0  0  0  0  0  0
   10.2990    1.5350   23.6340 C   0  0  0  0  0  0  0  0  0  0  0  0
    8.3570    0.2410   20.9590 C   0  0  0  0  0  0  0  0  0  0  0  0
    9.0590    0.3340   19.9700 O   0  0  0  0  0  0  0  0  0  0  0  0
    6.9900    0.2130   20.8940 N   0  0  0  0  0  0  0  0  0  0  0  0
    6.2150    0.6120   19.7770 C   0  0  0  0  0  0  0  0  0  0  0  0
    6.4880    0.1750   18.4620 C   0  0  0  0  0  0  0  0  0  0  0  0
    5.1960    1.5510   19.9790 C   0  0  0  0  0  0  0  0  0  0  0  0
    5.8130    0.6170   17.3780 N   0  0  0  0  0  0  0  0  0  0  0  0
    4.5140    2.0300   18.8550 C   0  0  0  0  0  0  0  0  0  0  0  0
    4.8700    1.5650   17.5810 C   0  0  0  0  0  0  0  0  0  0  0  0
  2  1  1  6
  2  3  1  0
  2  4  1  0
  4  5  1  0
  5  6  1  0
  6  9  2  0
  6  7  1  0
  7  8  2  0
  8 11  1  0
  8 12  1  0
  9 10  1  0
 10 12  2  0
 11 13  1  0
 13 14  2  0
 13 15  1  0
 15 16  1  0
 16 17  2  0
 16 18  1  0
 17 19  1  0
 18 20  2  0
 19 21  2  0
 20 21  1  0
M  END
