WPC2894_minimised.pdb
     RDKit          3D

 20 21  0  0  0  0  0  0  0  0999 V2000
   15.2580    0.3290   20.2620 C   0  0  0  0  0  0  0  0  0  0  0  0
   14.2440   -0.6800   20.8570 C   0  0  0  0  0  0  0  0  0  0  0  0
   13.0220   -0.0440   21.5430 C   0  0  0  0  0  0  0  0  0  0  0  0
   13.4740    0.9830   23.0070 S   0  0  0  0  0  0  0  0  0  0  0  0
   11.9870    1.9470   23.1780 C   0  0  0  0  0  0  0  0  0  0  0  0
   10.7360    1.3210   23.0710 C   0  0  0  0  0  0  0  0  0  0  0  0
    9.5660    2.0870   23.0350 C   0  0  0  0  0  0  0  0  0  0  0  0
   12.0600    3.3450   23.2860 C   0  0  0  0  0  0  0  0  0  0  0  0
   10.8830    4.1120   23.3020 C   0  0  0  0  0  0  0  0  0  0  0  0
    8.3430    1.4730   22.6990 N   0  0  0  0  0  0  0  0  0  0  0  0
    9.6350    3.4810   23.1720 C   0  0  0  0  0  0  0  0  0  0  0  0
    8.0220    1.1020   21.4200 C   0  0  0  0  0  0  0  0  0  0  0  0
    8.8180    1.0800   20.5010 O   0  0  0  0  0  0  0  0  0  0  0  0
    6.6950    0.8120   21.2470 N   0  0  0  0  0  0  0  0  0  0  0  0
    6.0090    0.9480   20.0150 C   0  0  0  0  0  0  0  0  0  0  0  0
    6.4580    0.3610   18.8090 C   0  0  0  0  0  0  0  0  0  0  0  0
    4.9190    1.8260   19.9780 C   0  0  0  0  0  0  0  0  0  0  0  0
    5.8940    0.6140   17.6050 N   0  0  0  0  0  0  0  0  0  0  0  0
    4.3570    2.1150   18.7320 C   0  0  0  0  0  0  0  0  0  0  0  0
    4.8900    1.5210   17.5810 C   0  0  0  0  0  0  0  0  0  0  0  0
  1  2  1  0
  2  3  1  0
  3  4  1  0
  4  5  1  0
  5  8  2  0
  5  6  1  0
  6  7  2  0
  7 10  1  0
  7 11  1  0
  8  9  1  0
  9 11  2  0
 10 12  1  0
 12 13  2  0
 12 14  1  0
 14 15  1  0
 15 16  2  0
 15 17  1  0
 16 18  1  0
 17 19  2  0
 18 20  2  0
 19 20  1  0
M  END
