WPC2763_minimised.pdb
     RDKit          3D

 23 24  0  0  1  0  0  0  0  0999 V2000
   14.3010    1.5770   22.3360 C   0  0  0  0  0  0  0  0  0  0  0  0
   14.7810    0.5310   21.4060 N   0  0  0  0  0  0  0  0  0  0  0  0
   15.6430    0.9890   20.2960 C   0  0  0  0  0  0  0  0  0  0  0  0
   13.9920   -0.6990   21.1540 C   0  0  0  0  0  0  0  0  0  0  0  0
   12.4920   -0.6240   21.5230 C   0  0  0  0  0  0  0  0  0  0  0  0
   12.2270   -1.0250   22.9850 C   0  0  2  0  0  0  0  0  0  0  0  0
   12.3750   -2.4320   23.0980 O   0  0  0  0  0  0  0  0  0  0  0  0
   10.8590   -0.6300   23.5210 C   0  0  0  0  0  0  0  0  0  0  0  0
    9.7310   -0.5770   22.6820 C   0  0  0  0  0  0  0  0  0  0  0  0
    8.4880   -0.1720   23.1890 C   0  0  0  0  0  0  0  0  0  0  0  0
   10.7100   -0.3170   24.8850 C   0  0  0  0  0  0  0  0  0  0  0  0
    9.4590    0.0460   25.4030 C   0  0  0  0  0  0  0  0  0  0  0  0
    7.3540   -0.0570   22.3610 N   0  0  0  0  0  0  0  0  0  0  0  0
    8.3490    0.1260   24.5520 C   0  0  0  0  0  0  0  0  0  0  0  0
    7.2930    0.3050   21.0420 C   0  0  0  0  0  0  0  0  0  0  0  0
    8.2380    0.4880   20.2950 O   0  0  0  0  0  0  0  0  0  0  0  0
    5.9910    0.4480   20.6630 N   0  0  0  0  0  0  0  0  0  0  0  0
    5.5150    0.9700   19.4430 C   0  0  0  0  0  0  0  0  0  0  0  0
    6.0620    0.5990   18.1960 C   0  0  0  0  0  0  0  0  0  0  0  0
    4.4960    1.9270   19.4880 C   0  0  0  0  0  0  0  0  0  0  0  0
    5.6520    1.1280   17.0250 N   0  0  0  0  0  0  0  0  0  0  0  0
    4.0880    2.4930   18.2770 C   0  0  0  0  0  0  0  0  0  0  0  0
    4.7040    2.0940   17.0850 C   0  0  0  0  0  0  0  0  0  0  0  0
  1  2  1  0
  2  3  1  0
  2  4  1  0
  4  5  1  0
  5  6  1  0
  6  7  1  6
  6  8  1  0
  8 11  2  0
  8  9  1  0
  9 10  2  0
 10 13  1  0
 10 14  1  0
 11 12  1  0
 12 14  2  0
 13 15  1  0
 15 16  2  0
 15 17  1  0
 17 18  1  0
 18 19  2  0
 18 20  1  0
 19 21  1  0
 20 22  2  0
 21 23  2  0
 22 23  1  0
M  END
