WPC2692_minimised.pdb
     RDKit          3D

 21 22  0  0  0  0  0  0  0  0999 V2000
   15.2840    1.3980   18.5550 O   0  0  0  0  0  0  0  0  0  0  0  0
   15.5880    0.7710   19.8000 C   0  0  0  0  0  0  0  0  0  0  0  0
   14.5780   -0.3460   20.1590 C   0  0  0  0  0  0  0  0  0  0  0  0
   13.9530   -0.1380   21.4820 N   0  0  0  0  0  0  0  0  0  0  0  0
   12.9030   -1.1190   21.8040 C   0  0  0  0  0  0  0  0  0  0  0  0
   11.7550   -0.5160   22.6110 C   0  0  0  0  0  0  0  0  0  0  0  0
   10.4320   -0.6220   22.1370 C   0  0  0  0  0  0  0  0  0  0  0  0
    9.3620   -0.0760   22.8670 C   0  0  0  0  0  0  0  0  0  0  0  0
   11.9880    0.1650   23.8220 C   0  0  0  0  0  0  0  0  0  0  0  0
   10.9120    0.6820   24.5640 C   0  0  0  0  0  0  0  0  0  0  0  0
    8.0390   -0.1250   22.3800 N   0  0  0  0  0  0  0  0  0  0  0  0
    9.6010    0.5560   24.0910 C   0  0  0  0  0  0  0  0  0  0  0  0
    7.6360    0.3100   21.1480 C   0  0  0  0  0  0  0  0  0  0  0  0
    8.3860    0.7150   20.2850 O   0  0  0  0  0  0  0  0  0  0  0  0
    6.2850    0.2450   20.9560 N   0  0  0  0  0  0  0  0  0  0  0  0
    5.6300    0.7120   19.7920 C   0  0  0  0  0  0  0  0  0  0  0  0
    6.0480    0.3120   18.5030 C   0  0  0  0  0  0  0  0  0  0  0  0
    4.6340    1.6870   19.9110 C   0  0  0  0  0  0  0  0  0  0  0  0
    5.5300    0.8100   17.3630 N   0  0  0  0  0  0  0  0  0  0  0  0
    4.1200    2.2340   18.7290 C   0  0  0  0  0  0  0  0  0  0  0  0
    4.6040    1.7890   17.4900 C   0  0  0  0  0  0  0  0  0  0  0  0
  1  2  1  0
  2  3  1  0
  3  4  1  0
  4  5  1  0
  5  6  1  0
  6  9  2  0
  6  7  1  0
  7  8  2  0
  8 11  1  0
  8 12  1  0
  9 10  1  0
 10 12  2  0
 11 13  1  0
 13 14  2  0
 13 15  1  0
 15 16  1  0
 16 17  2  0
 16 18  1  0
 17 19  1  0
 18 20  2  0
 19 21  2  0
 20 21  1  0
M  END
