WPC2832_minimised.pdb
     RDKit          3D

 20 21  0  0  0  0  0  0  0  0999 V2000
   15.6920    0.5900   19.8940 C   0  0  0  0  0  0  0  0  0  0  0  0
   14.7880   -0.4200   20.4710 N   0  0  0  0  0  0  0  0  0  0  0  0
   13.8220    0.1580   21.4240 C   0  0  0  0  0  0  0  0  0  0  0  0
   12.8490   -0.9220   21.9040 C   0  0  0  0  0  0  0  0  0  0  0  0
   11.6620   -0.3410   22.6570 C   0  0  0  0  0  0  0  0  0  0  0  0
   10.3770   -0.4530   22.1020 C   0  0  0  0  0  0  0  0  0  0  0  0
    9.2610    0.0710   22.7720 C   0  0  0  0  0  0  0  0  0  0  0  0
   11.8220    0.3140   23.8930 C   0  0  0  0  0  0  0  0  0  0  0  0
   10.6990    0.8030   24.5820 C   0  0  0  0  0  0  0  0  0  0  0  0
    7.9760    0.0180   22.1980 N   0  0  0  0  0  0  0  0  0  0  0  0
    9.4200    0.6790   24.0240 C   0  0  0  0  0  0  0  0  0  0  0  0
    7.6630    0.3010   20.8970 C   0  0  0  0  0  0  0  0  0  0  0  0
    8.4700    0.5260   20.0160 O   0  0  0  0  0  0  0  0  0  0  0  0
    6.3130    0.3280   20.6920 N   0  0  0  0  0  0  0  0  0  0  0  0
    5.6730    0.8120   19.5300 C   0  0  0  0  0  0  0  0  0  0  0  0
    6.1000    0.4550   18.2310 C   0  0  0  0  0  0  0  0  0  0  0  0
    4.6470    1.7530   19.6760 C   0  0  0  0  0  0  0  0  0  0  0  0
    5.5640    0.9750   17.1070 N   0  0  0  0  0  0  0  0  0  0  0  0
    4.1130    2.3150   18.5120 C   0  0  0  0  0  0  0  0  0  0  0  0
    4.6140    1.9270   17.2630 C   0  0  0  0  0  0  0  0  0  0  0  0
  1  2  1  0
  2  3  1  0
  3  4  1  0
  4  5  1  0
  5  8  2  0
  5  6  1  0
  6  7  2  0
  7 10  1  0
  7 11  1  0
  8  9  1  0
  9 11  2  0
 10 12  1  0
 12 13  2  0
 12 14  1  0
 14 15  1  0
 15 16  2  0
 15 17  1  0
 16 18  1  0
 17 19  2  0
 18 20  2  0
 19 20  1  0
M  END
