WPC2473_minimised.pdb
     RDKit          3D

 24 26  0  0  0  0  0  0  0  0999 V2000
    8.7870    0.0870   19.8960 O   0  0  0  0  0  0  0  0  0  0  0  0
    8.1500   -0.4910   20.7520 C   0  0  0  0  0  0  0  0  0  0  0  0
    6.7910   -0.6260   20.6630 N   0  0  0  0  0  0  0  0  0  0  0  0
    6.0320    0.0470   19.6750 C   0  0  0  0  0  0  0  0  0  0  0  0
    5.1310    1.0520   20.0530 C   0  0  0  0  0  0  0  0  0  0  0  0
    4.5430    1.8190   19.0370 C   0  0  0  0  0  0  0  0  0  0  0  0
    4.8760    1.5690   17.6960 C   0  0  0  0  0  0  0  0  0  0  0  0
    5.7180    0.5800   17.3250 N   0  0  0  0  0  0  0  0  0  0  0  0
    6.2950   -0.1470   18.3030 C   0  0  0  0  0  0  0  0  0  0  0  0
    8.6990   -0.9660   21.9130 N   0  0  0  0  0  0  0  0  0  0  0  0
    9.8920   -0.4220   22.4280 C   0  0  0  0  0  0  0  0  0  0  0  0
   11.1450   -0.7260   21.8740 C   0  0  0  0  0  0  0  0  0  0  0  0
   12.2740    0.0240   22.2480 C   0  0  0  0  0  0  0  0  0  0  0  0
   12.1350    1.1050   23.1360 C   0  0  0  0  0  0  0  0  0  0  0  0
   10.8760    1.4080   23.6860 C   0  0  0  0  0  0  0  0  0  0  0  0
   10.6770    2.6180   24.5820 C   0  0  0  0  0  0  0  0  0  0  0  0
   10.1420    3.8540   23.8820 C   0  0  0  0  0  0  0  0  0  0  0  0
    9.0080    3.7680   23.0970 C   0  0  0  0  0  0  0  0  0  0  0  0
    8.4830    4.9730   22.5270 C   0  0  0  0  0  0  0  0  0  0  0  0
    9.1260    6.1600   22.7820 C   0  0  0  0  0  0  0  0  0  0  0  0
   10.2410    6.2320   23.5610 O   0  0  0  0  0  0  0  0  0  0  0  0
   10.8410    5.1390   24.1020 C   0  0  0  0  0  0  0  0  0  0  0  0
   11.8360    5.2610   24.7940 O   0  0  0  0  0  0  0  0  0  0  0  0
    9.7740    0.6010   23.3710 C   0  0  0  0  0  0  0  0  0  0  0  0
  1  2  2  0
  2  3  1  0
  2 10  1  0
  3  4  1  0
  4  5  2  0
  4  9  1  0
  5  6  1  0
  6  7  2  0
  7  8  1  0
  8  9  2  0
 10 11  1  0
 11 24  1  0
 11 12  2  0
 12 13  1  0
 13 14  2  0
 14 15  1  0
 15 16  1  0
 15 24  2  0
 16 17  1  0
 17 18  2  0
 17 22  1  0
 18 19  1  0
 19 20  2  0
 20 21  1  0
 21 22  1  0
 22 23  2  0
M  END
