WPC2323_minimised.pdb
     RDKit          3D

 23 24  0  0  1  0  0  0  0  0999 V2000
   10.9350    5.0030   22.5630 N   0  0  0  0  0  0  0  0  0  0  0  0
   12.1670    5.0710   23.3850 C   0  0  2  0  0  0  0  0  0  0  0  0
   12.5700    3.6330   23.7550 C   0  0  0  0  0  0  0  0  0  0  0  0
   13.1990    2.6780   22.3190 S   0  0  0  0  0  0  0  0  0  0  0  0
   12.3410    1.1230   22.4640 C   0  0  0  0  0  0  0  0  0  0  0  0
   13.0610   -0.0680   22.6470 C   0  0  0  0  0  0  0  0  0  0  0  0
   12.3840   -1.3000   22.6950 C   0  0  0  0  0  0  0  0  0  0  0  0
   10.9870   -1.3400   22.5650 C   0  0  0  0  0  0  0  0  0  0  0  0
   10.2680   -0.1510   22.3730 C   0  0  0  0  0  0  0  0  0  0  0  0
    8.8770   -0.1920   22.1450 N   0  0  0  0  0  0  0  0  0  0  0  0
    8.3040    0.0720   20.9320 C   0  0  0  0  0  0  0  0  0  0  0  0
    8.9500    0.2840   19.9290 O   0  0  0  0  0  0  0  0  0  0  0  0
    6.9360    0.1020   20.9320 N   0  0  0  0  0  0  0  0  0  0  0  0
    6.1520    0.5510   19.8380 C   0  0  0  0  0  0  0  0  0  0  0  0
    5.1730    1.5270   20.0590 C   0  0  0  0  0  0  0  0  0  0  0  0
    4.5260    2.0670   18.9400 C   0  0  0  0  0  0  0  0  0  0  0  0
    4.8810    1.6300   17.6550 C   0  0  0  0  0  0  0  0  0  0  0  0
    5.7770    0.6430   17.4340 N   0  0  0  0  0  0  0  0  0  0  0  0
    6.4100    0.1340   18.5120 C   0  0  0  0  0  0  0  0  0  0  0  0
   10.9460    1.0790   22.3220 C   0  0  0  0  0  0  0  0  0  0  0  0
   11.9570    5.8970   24.6760 C   0  0  0  0  0  0  0  0  0  0  0  0
   10.9990    5.7390   25.4030 O   0  0  0  0  0  0  0  0  0  0  0  0
   12.7500    6.9750   24.8290 O   0  0  0  0  0  0  0  0  0  0  0  0
  2  1  1  1
  2 21  1  0
  2  3  1  0
  3  4  1  0
  4  5  1  0
  5 20  2  0
  5  6  1  0
  6  7  2  0
  7  8  1  0
  8  9  2  0
  9 10  1  0
  9 20  1  0
 10 11  1  0
 11 12  2  0
 11 13  1  0
 13 14  1  0
 14 15  2  0
 14 19  1  0
 15 16  1  0
 16 17  2  0
 17 18  1  0
 18 19  2  0
 21 22  2  0
 21 23  1  0
M  END
