WPC2520_minimised.pdb
     RDKit          3D

 23 25  0  0  0  0  0  0  0  0999 V2000
    9.0250    0.7570   20.5640 O   0  0  0  0  0  0  0  0  0  0  0  0
    8.6780   -0.3690   20.8580 C   0  0  0  0  0  0  0  0  0  0  0  0
    7.4450   -0.8520   20.5100 N   0  0  0  0  0  0  0  0  0  0  0  0
    6.5470   -0.1450   19.6700 C   0  0  0  0  0  0  0  0  0  0  0  0
    5.8170    0.9440   20.1710 C   0  0  0  0  0  0  0  0  0  0  0  0
    5.0380    1.6850   19.2690 C   0  0  0  0  0  0  0  0  0  0  0  0
    5.0350    1.3390   17.9080 C   0  0  0  0  0  0  0  0  0  0  0  0
    5.7210    0.2800   17.4240 N   0  0  0  0  0  0  0  0  0  0  0  0
    6.4700   -0.4300   18.2930 C   0  0  0  0  0  0  0  0  0  0  0  0
    9.4840   -1.2490   21.5340 N   0  0  0  0  0  0  0  0  0  0  0  0
   10.7780   -0.9000   21.9710 C   0  0  0  0  0  0  0  0  0  0  0  0
   11.9220   -1.4670   21.3970 C   0  0  0  0  0  0  0  0  0  0  0  0
   13.1990   -0.9640   21.6990 C   0  0  0  0  0  0  0  0  0  0  0  0
   13.3180    0.1520   22.5410 C   0  0  0  0  0  0  0  0  0  0  0  0
   12.1670    0.7210   23.1020 C   0  0  0  0  0  0  0  0  0  0  0  0
   12.2790    2.1890   24.0720 S   0  0  0  0  0  0  0  0  0  0  0  0
   11.4340    3.5170   23.1110 C   0  0  0  0  0  0  0  0  0  0  0  0
    9.8950    3.3460   23.2300 C   0  0  0  0  0  0  0  0  0  0  0  0
    9.0360    4.5820   22.8760 C   0  0  0  0  0  0  0  0  0  0  0  0
    9.7520    5.9320   23.0740 C   0  0  0  0  0  0  0  0  0  0  0  0
   10.8820    5.8380   24.1140 C   0  0  0  0  0  0  0  0  0  0  0  0
   11.9780    4.8880   23.5960 C   0  0  0  0  0  0  0  0  0  0  0  0
   10.9120    0.1580   22.8690 C   0  0  0  0  0  0  0  0  0  0  0  0
  1  2  2  0
  2  3  1  0
  2 10  1  0
  3  4  1  0
  4  5  2  0
  4  9  1  0
  5  6  1  0
  6  7  2  0
  7  8  1  0
  8  9  2  0
 10 11  1  0
 11 23  1  0
 11 12  2  0
 12 13  1  0
 13 14  2  0
 14 15  1  0
 15 16  1  0
 15 23  2  0
 16 17  1  0
 17 18  1  0
 17 22  1  0
 18 19  1  0
 19 20  1  0
 20 21  1  0
 21 22  1  0
M  END
