WPC2765_minimised.pdb
     RDKit          3D

 20 21  0  0  1  0  0  0  0  0999 V2000
   13.7120   -0.1770   22.5060 C   0  0  0  0  0  0  0  0  0  0  0  0
   12.2090    0.1200   22.6930 C   0  0  0  0  0  0  0  0  0  0  0  0
   11.5320   -0.8640   23.6710 C   0  0  2  0  0  0  0  0  0  0  0  0
   11.5440   -2.1730   23.1110 O   0  0  0  0  0  0  0  0  0  0  0  0
   10.1120   -0.4600   24.0250 C   0  0  0  0  0  0  0  0  0  0  0  0
    9.1070   -0.4750   23.0450 C   0  0  0  0  0  0  0  0  0  0  0  0
    7.8020   -0.0700   23.3650 C   0  0  0  0  0  0  0  0  0  0  0  0
    9.7960   -0.0540   25.3350 C   0  0  0  0  0  0  0  0  0  0  0  0
    8.4880    0.3320   25.6620 C   0  0  0  0  0  0  0  0  0  0  0  0
    6.7730   -0.0400   22.4020 N   0  0  0  0  0  0  0  0  0  0  0  0
    7.4920    0.3240   24.6750 C   0  0  0  0  0  0  0  0  0  0  0  0
    6.8590    0.2380   21.0660 C   0  0  0  0  0  0  0  0  0  0  0  0
    7.8820    0.3780   20.4190 O   0  0  0  0  0  0  0  0  0  0  0  0
    5.6040    0.3660   20.5410 N   0  0  0  0  0  0  0  0  0  0  0  0
    5.2760    0.9270   19.2900 C   0  0  0  0  0  0  0  0  0  0  0  0
    5.9830    0.6200   18.1080 C   0  0  0  0  0  0  0  0  0  0  0  0
    4.2630    1.8910   19.2500 C   0  0  0  0  0  0  0  0  0  0  0  0
    5.7450    1.2280   16.9260 N   0  0  0  0  0  0  0  0  0  0  0  0
    4.0240    2.5310   18.0310 C   0  0  0  0  0  0  0  0  0  0  0  0
    4.8070    2.2050   16.9180 C   0  0  0  0  0  0  0  0  0  0  0  0
  1  2  1  0
  2  3  1  0
  3  4  1  6
  3  5  1  0
  5  8  2  0
  5  6  1  0
  6  7  2  0
  7 10  1  0
  7 11  1  0
  8  9  1  0
  9 11  2  0
 10 12  1  0
 12 13  2  0
 12 14  1  0
 14 15  1  0
 15 16  2  0
 15 17  1  0
 16 18  1  0
 17 19  2  0
 18 20  2  0
 19 20  1  0
M  END
