WPC2879_minimised.pdb
     RDKit          3D

 20 21  0  0  1  0  0  0  0  0999 V2000
   14.0870   -1.0800   20.2600 N   0  0  0  0  0  0  0  0  0  0  0  0
   13.5880   -0.0570   21.2040 C   0  0  0  0  0  0  0  0  0  0  0  0
   13.0990   -0.6290   22.5530 C   0  0  2  0  0  0  0  0  0  0  0  0
   12.9350   -2.0860   22.5140 N   0  0  0  0  0  0  0  0  0  0  0  0
   11.8180    0.0370   23.0240 C   0  0  0  0  0  0  0  0  0  0  0  0
   10.5870   -0.2470   22.4020 C   0  0  0  0  0  0  0  0  0  0  0  0
    9.4050    0.3460   22.8710 C   0  0  0  0  0  0  0  0  0  0  0  0
   11.8520    0.9430   24.0970 C   0  0  0  0  0  0  0  0  0  0  0  0
   10.6690    1.5410   24.5590 C   0  0  0  0  0  0  0  0  0  0  0  0
    8.1600    0.0760   22.2720 N   0  0  0  0  0  0  0  0  0  0  0  0
    9.4450    1.2330   23.9530 C   0  0  0  0  0  0  0  0  0  0  0  0
    7.8620    0.2200   20.9470 C   0  0  0  0  0  0  0  0  0  0  0  0
    8.6770    0.4110   20.0650 O   0  0  0  0  0  0  0  0  0  0  0  0
    6.5130    0.1720   20.7280 N   0  0  0  0  0  0  0  0  0  0  0  0
    5.8540    0.6590   19.5780 C   0  0  0  0  0  0  0  0  0  0  0  0
    6.2710    0.3360   18.2690 C   0  0  0  0  0  0  0  0  0  0  0  0
    4.8150    1.5800   19.7550 C   0  0  0  0  0  0  0  0  0  0  0  0
    5.7090    0.8680   17.1630 N   0  0  0  0  0  0  0  0  0  0  0  0
    4.2570    2.1580   18.6110 C   0  0  0  0  0  0  0  0  0  0  0  0
    4.7460    1.8000   17.3470 C   0  0  0  0  0  0  0  0  0  0  0  0
  1  2  1  0
  2  3  1  0
  3  4  1  6
  3  5  1  0
  5  8  2  0
  5  6  1  0
  6  7  2  0
  7 10  1  0
  7 11  1  0
  8  9  1  0
  9 11  2  0
 10 12  1  0
 12 13  2  0
 12 14  1  0
 14 15  1  0
 15 16  2  0
 15 17  1  0
 16 18  1  0
 17 19  2  0
 18 20  2  0
 19 20  1  0
M  END
