WPC2339_minimised.pdb
     RDKit          3D

 24 25  0  0  0  0  0  0  0  0999 V2000
    9.8110    3.0160   22.3970 C   0  0  0  0  0  0  0  0  0  0  0  0
   10.5780    4.2690   22.9080 C   0  0  0  0  0  0  0  0  0  0  0  0
   11.9410    4.4540   22.2030 C   0  0  0  0  0  0  0  0  0  0  0  0
   10.7580    4.2460   24.4460 C   0  0  0  0  0  0  0  0  0  0  0  0
   10.9200    2.8500   25.0310 C   0  0  0  0  0  0  0  0  0  0  0  0
   10.1000    2.3740   25.7840 O   0  0  0  0  0  0  0  0  0  0  0  0
   12.0170    2.1440   24.6020 N   0  0  0  0  0  0  0  0  0  0  0  0
   12.1690    0.7090   24.8360 C   0  0  0  0  0  0  0  0  0  0  0  0
   11.5790   -0.0620   23.6850 C   0  0  0  0  0  0  0  0  0  0  0  0
   12.4050   -0.5750   22.6700 C   0  0  0  0  0  0  0  0  0  0  0  0
   11.8350   -1.2780   21.6010 C   0  0  0  0  0  0  0  0  0  0  0  0
   10.4400   -1.3870   21.5130 C   0  0  0  0  0  0  0  0  0  0  0  0
    9.6140   -0.7710   22.4600 C   0  0  0  0  0  0  0  0  0  0  0  0
    8.2430   -0.6020   22.1760 N   0  0  0  0  0  0  0  0  0  0  0  0
    7.7900   -0.0420   21.0090 C   0  0  0  0  0  0  0  0  0  0  0  0
    8.5200    0.3230   20.1060 O   0  0  0  0  0  0  0  0  0  0  0  0
    6.4310    0.0620   20.9160 N   0  0  0  0  0  0  0  0  0  0  0  0
    5.7530    0.5920   19.7910 C   0  0  0  0  0  0  0  0  0  0  0  0
    4.7940    1.5950   19.9690 C   0  0  0  0  0  0  0  0  0  0  0  0
    4.2510    2.1830   18.8180 C   0  0  0  0  0  0  0  0  0  0  0  0
    4.6820    1.7610   17.5510 C   0  0  0  0  0  0  0  0  0  0  0  0
    5.5720    0.7590   17.3680 N   0  0  0  0  0  0  0  0  0  0  0  0
    6.1040    0.2070   18.4760 C   0  0  0  0  0  0  0  0  0  0  0  0
   10.1810   -0.1700   23.5850 C   0  0  0  0  0  0  0  0  0  0  0  0
  1  2  1  0
  2  3  1  0
  2  4  1  0
  4  5  1  0
  5  6  2  0
  5  7  1  0
  7  8  1  0
  8  9  1  0
  9 24  2  0
  9 10  1  0
 10 11  2  0
 11 12  1  0
 12 13  2  0
 13 14  1  0
 13 24  1  0
 14 15  1  0
 15 16  2  0
 15 17  1  0
 17 18  1  0
 18 19  2  0
 18 23  1  0
 19 20  1  0
 20 21  2  0
 21 22  1  0
 22 23  2  0
M  END
