WPC2194_minimised.pdb
     RDKit          3D

 23 24  0  0  0  0  0  0  0  0999 V2000
   13.6850    4.8700   23.5810 N   0  0  0  0  0  0  0  0  0  0  0  0
   12.4020    4.7110   22.8810 C   0  0  0  0  0  0  0  0  0  0  0  0
   11.2270    5.3440   23.6720 C   0  0  0  0  0  0  0  0  0  0  0  0
    9.9170    4.7150   23.3930 N   0  0  0  0  0  0  0  0  0  0  0  0
    9.8030    3.2710   23.6950 C   0  0  0  0  0  0  0  0  0  0  0  0
   10.4440    2.9150   25.0560 C   0  0  0  0  0  0  0  0  0  0  0  0
   10.1210    1.1840   25.5740 S   0  0  0  0  0  0  0  0  0  0  0  0
   10.8030    0.3130   24.1980 C   0  0  0  0  0  0  0  0  0  0  0  0
   12.1350    0.4790   23.7830 C   0  0  0  0  0  0  0  0  0  0  0  0
   12.5620   -0.0870   22.5690 C   0  0  0  0  0  0  0  0  0  0  0  0
   11.6420   -0.7820   21.7620 C   0  0  0  0  0  0  0  0  0  0  0  0
   10.3130   -0.9260   22.1880 C   0  0  0  0  0  0  0  0  0  0  0  0
    9.2910   -1.3390   21.3230 N   0  0  0  0  0  0  0  0  0  0  0  0
    8.5430   -0.4170   20.6440 C   0  0  0  0  0  0  0  0  0  0  0  0
    8.8880    0.7380   20.4900 O   0  0  0  0  0  0  0  0  0  0  0  0
    7.3530   -0.8940   20.1750 N   0  0  0  0  0  0  0  0  0  0  0  0
    6.4490   -0.1400   19.3910 C   0  0  0  0  0  0  0  0  0  0  0  0
    5.7750    0.9590   19.9410 C   0  0  0  0  0  0  0  0  0  0  0  0
    4.9580    1.7220   19.0930 C   0  0  0  0  0  0  0  0  0  0  0  0
    4.8780    1.3920   17.7310 C   0  0  0  0  0  0  0  0  0  0  0  0
    5.5150    0.3220   17.2040 N   0  0  0  0  0  0  0  0  0  0  0  0
    6.2810   -0.4220   18.0240 C   0  0  0  0  0  0  0  0  0  0  0  0
    9.9060   -0.4050   23.4150 C   0  0  0  0  0  0  0  0  0  0  0  0
  1  2  1  0
  2  3  1  0
  3  4  1  0
  4  5  1  0
  5  6  1  0
  6  7  1  0
  7  8  1  0
  8 23  2  0
  8  9  1  0
  9 10  2  0
 10 11  1  0
 11 12  2  0
 12 13  1  0
 12 23  1  0
 13 14  1  0
 14 15  2  0
 14 16  1  0
 16 17  1  0
 17 18  2  0
 17 22  1  0
 18 19  1  0
 19 20  2  0
 20 21  1  0
 21 22  2  0
M  END
