WPC2124_minimised.pdb
     RDKit          3D

 24 25  0  0  0  0  0  0  0  0999 V2000
    7.3830    2.7830   23.2550 N   0  0  0  0  0  0  0  0  0  0  0  0
    8.4030    3.1660   22.6570 C   0  0  0  0  0  0  0  0  0  0  0  0
    8.6970    2.6210   21.4850 N   0  0  0  0  0  0  0  0  0  0  0  0
    9.0860    4.2680   22.8930 N   0  0  0  0  0  0  0  0  0  0  0  0
   10.4490    4.1590   23.7620 S   0  0  0  0  0  0  0  0  0  0  0  0
   11.4410    4.2130   22.7190 O   0  0  0  0  0  0  0  0  0  0  0  0
   10.3810    5.2380   24.7170 O   0  0  0  0  0  0  0  0  0  0  0  0
   10.5960    2.5950   24.6350 C   0  0  0  0  0  0  0  0  0  0  0  0
   10.7920    1.3570   23.7780 C   0  0  0  0  0  0  0  0  0  0  0  0
   12.0230    1.0900   23.1530 C   0  0  0  0  0  0  0  0  0  0  0  0
   12.1380    0.0120   22.2580 C   0  0  0  0  0  0  0  0  0  0  0  0
   11.0050   -0.7550   21.9410 C   0  0  0  0  0  0  0  0  0  0  0  0
    9.7790   -0.4850   22.5680 C   0  0  0  0  0  0  0  0  0  0  0  0
    8.5620   -0.9870   22.0640 N   0  0  0  0  0  0  0  0  0  0  0  0
    8.0720   -0.5600   20.8580 C   0  0  0  0  0  0  0  0  0  0  0  0
    8.7710   -0.0960   19.9800 O   0  0  0  0  0  0  0  0  0  0  0  0
    6.7090   -0.5840   20.7540 N   0  0  0  0  0  0  0  0  0  0  0  0
    6.0050    0.0970   19.7280 C   0  0  0  0  0  0  0  0  0  0  0  0
    5.1290    1.1400   20.0610 C   0  0  0  0  0  0  0  0  0  0  0  0
    4.5610    1.8790   19.0130 C   0  0  0  0  0  0  0  0  0  0  0  0
    4.8890    1.5640   17.6850 C   0  0  0  0  0  0  0  0  0  0  0  0
    5.7180    0.5490   17.3570 N   0  0  0  0  0  0  0  0  0  0  0  0
    6.2730   -0.1530   18.3660 C   0  0  0  0  0  0  0  0  0  0  0  0
    9.7000    0.5130   23.5430 C   0  0  0  0  0  0  0  0  0  0  0  0
  1  2  2  0
  2  3  1  0
  2  4  1  0
  4  5  1  0
  5  6  2  0
  5  7  2  0
  5  8  1  0
  8  9  1  0
  9 24  2  0
  9 10  1  0
 10 11  2  0
 11 12  1  0
 12 13  2  0
 13 14  1  0
 13 24  1  0
 14 15  1  0
 15 16  2  0
 15 17  1  0
 17 18  1  0
 18 19  2  0
 18 23  1  0
 19 20  1  0
 20 21  2  0
 21 22  1  0
 22 23  2  0
M  END
