WPC2149_minimised.pdb
     RDKit          3D

 24 26  0  0  0  0  0  0  0  0999 V2000
    8.5310    5.3030   22.2210 N   0  0  0  0  0  0  0  0  0  0  0  0
    9.6920    5.2110   22.9540 C   0  0  0  0  0  0  0  0  0  0  0  0
   10.1530    6.3140   23.6730 C   0  0  0  0  0  0  0  0  0  0  0  0
   11.3760    6.2420   24.3580 C   0  0  0  0  0  0  0  0  0  0  0  0
   12.1330    5.0670   24.3010 C   0  0  0  0  0  0  0  0  0  0  0  0
   11.6750    3.9430   23.5930 C   0  0  0  0  0  0  0  0  0  0  0  0
   12.7490    2.5060   23.5600 S   0  0  0  0  0  0  0  0  0  0  0  0
   11.9040    1.0670   22.9320 C   0  0  0  0  0  0  0  0  0  0  0  0
   12.6960    0.1180   22.2660 C   0  0  0  0  0  0  0  0  0  0  0  0
   12.1120   -1.0210   21.6960 C   0  0  0  0  0  0  0  0  0  0  0  0
   10.7210   -1.1890   21.7550 C   0  0  0  0  0  0  0  0  0  0  0  0
    9.9270   -0.2400   22.4160 C   0  0  0  0  0  0  0  0  0  0  0  0
    8.5330   -0.2570   22.2130 N   0  0  0  0  0  0  0  0  0  0  0  0
    7.9790    0.1450   21.0260 C   0  0  0  0  0  0  0  0  0  0  0  0
    8.6420    0.5150   20.0770 O   0  0  0  0  0  0  0  0  0  0  0  0
    6.6130    0.1140   20.9690 N   0  0  0  0  0  0  0  0  0  0  0  0
    5.8730    0.5860   19.8550 C   0  0  0  0  0  0  0  0  0  0  0  0
    4.9170    1.5920   20.0390 C   0  0  0  0  0  0  0  0  0  0  0  0
    4.3420    2.1590   18.8940 C   0  0  0  0  0  0  0  0  0  0  0  0
    4.7380    1.7120   17.6230 C   0  0  0  0  0  0  0  0  0  0  0  0
    5.6170    0.7030   17.4370 N   0  0  0  0  0  0  0  0  0  0  0  0
    6.1830    0.1710   18.5400 C   0  0  0  0  0  0  0  0  0  0  0  0
   10.5220    0.8510   23.0650 C   0  0  0  0  0  0  0  0  0  0  0  0
   10.4570    4.0380   22.8990 C   0  0  0  0  0  0  0  0  0  0  0  0
  1  2  1  0
  2 24  2  0
  2  3  1  0
  3  4  2  0
  4  5  1  0
  5  6  2  0
  6  7  1  0
  6 24  1  0
  7  8  1  0
  8 23  1  0
  8  9  2  0
  9 10  1  0
 10 11  2  0
 11 12  1  0
 12 13  1  0
 12 23  2  0
 13 14  1  0
 14 15  2  0
 14 16  1  0
 16 17  1  0
 17 18  2  0
 17 22  1  0
 18 19  1  0
 19 20  2  0
 20 21  1  0
 21 22  2  0
M  END
