WPC2168_minimised.pdb
     RDKit          3D

 22 23  0  0  0  0  0  0  0  0999 V2000
    9.8420    5.9380   23.2420 C   0  0  0  0  0  0  0  0  0  0  0  0
   10.9020    5.5800   24.3000 C   0  0  0  0  0  0  0  0  0  0  0  0
   11.2900    4.2040   24.1580 O   0  0  0  0  0  0  0  0  0  0  0  0
   12.1040    3.8280   23.1260 C   0  0  0  0  0  0  0  0  0  0  0  0
   12.7050    4.6390   22.4420 O   0  0  0  0  0  0  0  0  0  0  0  0
   12.6230    2.4140   23.3970 C   0  0  0  0  0  0  0  0  0  0  0  0
   11.9310    1.2670   22.6840 C   0  0  0  0  0  0  0  0  0  0  0  0
   12.7030    0.1790   22.2390 C   0  0  0  0  0  0  0  0  0  0  0  0
   12.0820   -0.9540   21.6970 C   0  0  0  0  0  0  0  0  0  0  0  0
   10.6840   -1.0060   21.6040 C   0  0  0  0  0  0  0  0  0  0  0  0
    9.9110    0.0810   22.0350 C   0  0  0  0  0  0  0  0  0  0  0  0
    8.5130    0.0600   21.8580 N   0  0  0  0  0  0  0  0  0  0  0  0
    7.9090    0.1090   20.6340 C   0  0  0  0  0  0  0  0  0  0  0  0
    8.5240    0.0770   19.5880 O   0  0  0  0  0  0  0  0  0  0  0  0
    6.5510    0.2610   20.6820 N   0  0  0  0  0  0  0  0  0  0  0  0
    5.7620    0.7060   19.5920 C   0  0  0  0  0  0  0  0  0  0  0  0
    4.8170    1.7140   19.8210 C   0  0  0  0  0  0  0  0  0  0  0  0
    4.1740    2.2680   18.7080 C   0  0  0  0  0  0  0  0  0  0  0  0
    4.5150    1.8290   17.4210 C   0  0  0  0  0  0  0  0  0  0  0  0
    5.3760    0.8120   17.1950 N   0  0  0  0  0  0  0  0  0  0  0  0
    5.9880    0.2710   18.2670 C   0  0  0  0  0  0  0  0  0  0  0  0
   10.5310    1.2160   22.5790 C   0  0  0  0  0  0  0  0  0  0  0  0
  1  2  1  0
  2  3  1  0
  3  4  1  0
  4  5  2  0
  4  6  1  0
  6  7  1  0
  7 22  2  0
  7  8  1  0
  8  9  2  0
  9 10  1  0
 10 11  2  0
 11 12  1  0
 11 22  1  0
 12 13  1  0
 13 14  2  0
 13 15  1  0
 15 16  1  0
 16 17  2  0
 16 21  1  0
 17 18  1  0
 18 19  2  0
 19 20  1  0
 20 21  2  0
M  END
