WPC2355_minimised.pdb
     RDKit          3D

 24 25  0  0  1  0  0  0  0  0999 V2000
    8.3250    4.4850   23.0450 O   0  0  0  0  0  0  0  0  0  0  0  0
    9.4120    4.4340   23.5730 C   0  0  0  0  0  0  0  0  0  0  0  0
   10.5030    3.9810   22.8880 N   0  0  0  0  0  0  0  0  0  0  0  0
   11.8090    3.7120   23.5270 C   0  0  1  0  0  0  0  0  0  0  0  0
   11.9070    2.2490   24.0420 C   0  0  0  0  0  0  0  0  0  0  0  0
   11.4860    1.1290   23.1100 C   0  0  0  0  0  0  0  0  0  0  0  0
   12.4510    0.2710   22.5510 C   0  0  0  0  0  0  0  0  0  0  0  0
   12.0540   -0.8450   21.7980 C   0  0  0  0  0  0  0  0  0  0  0  0
   10.6880   -1.1010   21.6000 C   0  0  0  0  0  0  0  0  0  0  0  0
    9.7270   -0.2410   22.1470 C   0  0  0  0  0  0  0  0  0  0  0  0
    8.3610   -0.4110   21.8570 N   0  0  0  0  0  0  0  0  0  0  0  0
    7.8350   -0.1700   20.6220 C   0  0  0  0  0  0  0  0  0  0  0  0
    8.5140   -0.0000   19.6290 O   0  0  0  0  0  0  0  0  0  0  0  0
    6.4710   -0.0750   20.6080 N   0  0  0  0  0  0  0  0  0  0  0  0
    5.7320    0.4920   19.5430 C   0  0  0  0  0  0  0  0  0  0  0  0
    4.8000    1.4980   19.8230 C   0  0  0  0  0  0  0  0  0  0  0  0
    4.2190    2.1670   18.7370 C   0  0  0  0  0  0  0  0  0  0  0  0
    4.6010    1.8310   17.4310 C   0  0  0  0  0  0  0  0  0  0  0  0
    5.4600    0.8240   17.1520 N   0  0  0  0  0  0  0  0  0  0  0  0
    6.0150    0.1800   18.1960 C   0  0  0  0  0  0  0  0  0  0  0  0
   10.1230    0.8580   22.9150 C   0  0  0  0  0  0  0  0  0  0  0  0
   13.0450    4.1670   22.7160 C   0  0  0  0  0  0  0  0  0  0  0  0
   14.1260    4.3100   23.2550 O   0  0  0  0  0  0  0  0  0  0  0  0
   12.7770    4.8440   21.5840 O   0  0  0  0  0  0  0  0  0  0  0  0
  1  2  2  0
  2  3  1  0
  3  4  1  0
  4 22  1  0
  4  5  1  6
  5  6  1  0
  6 21  2  0
  6  7  1  0
  7  8  2  0
  8  9  1  0
  9 10  2  0
 10 11  1  0
 10 21  1  0
 11 12  1  0
 12 13  2  0
 12 14  1  0
 14 15  1  0
 15 16  2  0
 15 20  1  0
 16 17  1  0
 17 18  2  0
 18 19  1  0
 19 20  2  0
 22 23  2  0
 22 24  1  0
M  END
