WPC2358_minimised.pdb
     RDKit          3D

 22 23  0  0  0  0  0  0  0  0999 V2000
   13.7920    5.3400   21.7360 N   0  0  0  0  0  0  0  0  0  0  0  0
   12.4210    5.1390   22.1480 N   0  0  0  0  0  0  0  0  0  0  0  0
   12.0420    5.0990   23.4750 C   0  0  0  0  0  0  0  0  0  0  0  0
   12.9030    5.3920   24.3570 N   0  0  0  0  0  0  0  0  0  0  0  0
   10.4210    4.5290   23.6610 S   0  0  0  0  0  0  0  0  0  0  0  0
   10.7470    3.0000   24.6270 C   0  0  0  0  0  0  0  0  0  0  0  0
   10.8050    1.7740   23.7380 C   0  0  0  0  0  0  0  0  0  0  0  0
   12.0290    1.2510   23.2830 C   0  0  0  0  0  0  0  0  0  0  0  0
   12.0440    0.1300   22.4340 C   0  0  0  0  0  0  0  0  0  0  0  0
   10.8340   -0.4630   22.0310 C   0  0  0  0  0  0  0  0  0  0  0  0
    9.6150    0.0610   22.4890 C   0  0  0  0  0  0  0  0  0  0  0  0
    8.3780   -0.4270   22.0250 N   0  0  0  0  0  0  0  0  0  0  0  0
    7.9200   -0.2010   20.7600 C   0  0  0  0  0  0  0  0  0  0  0  0
    8.6360    0.1020   19.8270 O   0  0  0  0  0  0  0  0  0  0  0  0
    6.5580   -0.2580   20.6530 N   0  0  0  0  0  0  0  0  0  0  0  0
    5.8390    0.3280   19.5850 C   0  0  0  0  0  0  0  0  0  0  0  0
    4.8830    1.3110   19.8680 C   0  0  0  0  0  0  0  0  0  0  0  0
    4.3220    2.0050   18.7880 C   0  0  0  0  0  0  0  0  0  0  0  0
    4.7370    1.7060   17.4820 C   0  0  0  0  0  0  0  0  0  0  0  0
    5.6250    0.7270   17.1990 N   0  0  0  0  0  0  0  0  0  0  0  0
    6.1730    0.0680   18.2390 C   0  0  0  0  0  0  0  0  0  0  0  0
    9.6040    1.1700   23.3430 C   0  0  0  0  0  0  0  0  0  0  0  0
  1  2  1  0
  2  3  1  0
  3  4  2  0
  3  5  1  0
  5  6  1  0
  6  7  1  0
  7 22  2  0
  7  8  1  0
  8  9  2  0
  9 10  1  0
 10 11  2  0
 11 12  1  0
 11 22  1  0
 12 13  1  0
 13 14  2  0
 13 15  1  0
 15 16  1  0
 16 17  2  0
 16 21  1  0
 17 18  1  0
 18 19  2  0
 19 20  1  0
 20 21  2  0
M  END
