WPC2088_minimised.pdb
     RDKit          3D

 24 25  0  0  0  0  0  0  0  0999 V2000
   12.6980    6.8690   25.3450 C   0  0  0  0  0  0  0  0  0  0  0  0
   12.3870    5.8700   24.3120 N   0  0  0  0  0  0  0  0  0  0  0  0
   13.4460    4.9670   24.0380 O   0  0  0  0  0  0  0  0  0  0  0  0
   11.0970    5.6690   23.8130 C   0  0  0  0  0  0  0  0  0  0  0  0
   10.2470    6.5360   23.9130 O   0  0  0  0  0  0  0  0  0  0  0  0
   10.7430    4.2890   23.2620 C   0  0  0  0  0  0  0  0  0  0  0  0
   10.2970    3.3280   24.3840 C   0  0  0  0  0  0  0  0  0  0  0  0
   11.2150    2.1040   24.5920 C   0  0  0  0  0  0  0  0  0  0  0  0
   11.0820    1.0140   23.5480 C   0  0  0  0  0  0  0  0  0  0  0  0
   12.2200    0.4700   22.9260 C   0  0  0  0  0  0  0  0  0  0  0  0
   12.0850   -0.5870   22.0100 C   0  0  0  0  0  0  0  0  0  0  0  0
   10.8060   -1.0750   21.6950 C   0  0  0  0  0  0  0  0  0  0  0  0
    9.6710   -0.5100   22.2900 C   0  0  0  0  0  0  0  0  0  0  0  0
    8.3710   -0.8380   21.8650 N   0  0  0  0  0  0  0  0  0  0  0  0
    7.8920   -0.4790   20.6370 C   0  0  0  0  0  0  0  0  0  0  0  0
    8.5970   -0.1970   19.6890 O   0  0  0  0  0  0  0  0  0  0  0  0
    6.5280   -0.3850   20.5880 N   0  0  0  0  0  0  0  0  0  0  0  0
    5.8270    0.2730   19.5500 C   0  0  0  0  0  0  0  0  0  0  0  0
    4.9170    1.2880   19.8730 C   0  0  0  0  0  0  0  0  0  0  0  0
    4.3570    2.0220   18.8180 C   0  0  0  0  0  0  0  0  0  0  0  0
    4.7320    1.7350   17.4970 C   0  0  0  0  0  0  0  0  0  0  0  0
    5.5800    0.7320   17.1770 N   0  0  0  0  0  0  0  0  0  0  0  0
    6.1200    0.0280   18.1910 C   0  0  0  0  0  0  0  0  0  0  0  0
    9.8120    0.5020   23.2390 C   0  0  0  0  0  0  0  0  0  0  0  0
  1  2  1  0
  2  3  1  0
  2  4  1  0
  4  5  2  0
  4  6  1  0
  6  7  1  0
  7  8  1  0
  8  9  1  0
  9 24  2  0
  9 10  1  0
 10 11  2  0
 11 12  1  0
 12 13  2  0
 13 14  1  0
 13 24  1  0
 14 15  1  0
 15 16  2  0
 15 17  1  0
 17 18  1  0
 18 19  2  0
 18 23  1  0
 19 20  1  0
 20 21  2  0
 21 22  1  0
 22 23  2  0
M  END
