WPC2586_minimised.pdb
     RDKit          3D

 22 23  0  0  0  0  0  0  0  0999 V2000
    8.6850    5.4090   22.9210 N   0  0  0  0  0  0  0  0  0  0  0  0
    9.7860    4.8370   23.6910 C   0  0  0  0  0  0  0  0  0  0  0  0
   11.0530    5.6430   23.3890 C   0  0  0  0  0  0  0  0  0  0  0  0
   12.3460    5.0130   23.9540 C   0  0  0  0  0  0  0  0  0  0  0  0
   13.4530    4.8410   22.8840 C   0  0  0  0  0  0  0  0  0  0  0  0
   12.9020    3.7630   21.4890 S   0  0  0  0  0  0  0  0  0  0  0  0
   12.2390    2.3240   22.3000 C   0  0  0  0  0  0  0  0  0  0  0  0
   12.9910    1.6460   23.2660 C   0  0  0  0  0  0  0  0  0  0  0  0
   12.4030    0.6080   24.0050 C   0  0  0  0  0  0  0  0  0  0  0  0
   11.0830    0.2040   23.7370 C   0  0  0  0  0  0  0  0  0  0  0  0
   10.3480    0.8390   22.7250 C   0  0  0  0  0  0  0  0  0  0  0  0
    9.0150    0.4400   22.4590 N   0  0  0  0  0  0  0  0  0  0  0  0
    8.4340    0.4050   21.2180 C   0  0  0  0  0  0  0  0  0  0  0  0
    9.0550    0.5800   20.1930 O   0  0  0  0  0  0  0  0  0  0  0  0
    7.0770    0.2180   21.2000 N   0  0  0  0  0  0  0  0  0  0  0  0
    6.2740    0.5300   20.0710 C   0  0  0  0  0  0  0  0  0  0  0  0
    5.2570    1.4810   20.2140 C   0  0  0  0  0  0  0  0  0  0  0  0
    4.6170    1.9330   19.0540 C   0  0  0  0  0  0  0  0  0  0  0  0
    5.0110    1.4320   17.8040 C   0  0  0  0  0  0  0  0  0  0  0  0
    5.9440    0.4650   17.6570 N   0  0  0  0  0  0  0  0  0  0  0  0
    6.5740    0.0450   18.7760 C   0  0  0  0  0  0  0  0  0  0  0  0
   10.9310    1.9110   22.0220 C   0  0  0  0  0  0  0  0  0  0  0  0
  1  2  1  0
  2  3  1  0
  3  4  1  0
  4  5  1  0
  5  6  1  0
  6  7  1  0
  7 22  2  0
  7  8  1  0
  8  9  2  0
  9 10  1  0
 10 11  2  0
 11 12  1  0
 11 22  1  0
 12 13  1  0
 13 14  2  0
 13 15  1  0
 15 16  1  0
 16 17  2  0
 16 21  1  0
 17 18  1  0
 18 19  2  0
 19 20  1  0
 20 21  2  0
M  END
