WPC2737_minimised.pdb
     RDKit          3D

 19 20  0  0  0  0  0  0  0  0999 V2000
   14.3120    0.1450   21.4930 O   0  0  0  0  0  0  0  0  0  0  0  0
   13.2170   -0.8670   22.2110 P   0  0  0  0  0  0  0  0  0  0  0  0
   12.6080   -1.6010   20.8530 O   0  0  0  0  0  0  0  0  0  0  0  0
   11.8970    0.2800   22.7210 C   0  0  0  0  0  0  0  0  0  0  0  0
   10.5610   -0.0010   22.3980 C   0  0  0  0  0  0  0  0  0  0  0  0
    9.5390    0.8660   22.8070 C   0  0  0  0  0  0  0  0  0  0  0  0
   12.2120    1.4400   23.4480 C   0  0  0  0  0  0  0  0  0  0  0  0
   11.1880    2.3140   23.8520 C   0  0  0  0  0  0  0  0  0  0  0  0
    8.2060    0.6190   22.4190 N   0  0  0  0  0  0  0  0  0  0  0  0
    9.8510    2.0230   23.5370 C   0  0  0  0  0  0  0  0  0  0  0  0
    7.7930    0.5480   21.1180 C   0  0  0  0  0  0  0  0  0  0  0  0
    8.5540    0.5660   20.1720 O   0  0  0  0  0  0  0  0  0  0  0  0
    6.4340    0.5030   20.9700 N   0  0  0  0  0  0  0  0  0  0  0  0
    5.7520    0.8360   19.7760 C   0  0  0  0  0  0  0  0  0  0  0  0
    6.1560    0.3580   18.5070 C   0  0  0  0  0  0  0  0  0  0  0  0
    4.7320    1.7920   19.8470 C   0  0  0  0  0  0  0  0  0  0  0  0
    5.6240    0.7950   17.3450 N   0  0  0  0  0  0  0  0  0  0  0  0
    4.1920    2.2570   18.6440 C   0  0  0  0  0  0  0  0  0  0  0  0
    4.6890    1.7690   17.4280 C   0  0  0  0  0  0  0  0  0  0  0  0
  1  2  1  0
  2  4  1  0
  2  3  1  0
  4  5  2  0
  4  7  1  0
  5  6  1  0
  6 10  2  0
  6  9  1  0
  7  8  2  0
  8 10  1  0
  9 11  1  0
 11 12  2  0
 11 13  1  0
 13 14  1  0
 14 15  2  0
 14 16  1  0
 15 17  1  0
 16 18  2  0
 17 19  2  0
 18 19  1  0
M  END
