WPC2162_minimised.pdb
     RDKit          3D

 22 24  0  0  0  0  0  0  0  0999 V2000
    8.4410   -0.0650   19.6300 O   0  0  0  0  0  0  0  0  0  0  0  0
    7.7090   -0.2150   20.5890 C   0  0  0  0  0  0  0  0  0  0  0  0
    6.3510   -0.0920   20.5150 N   0  0  0  0  0  0  0  0  0  0  0  0
    5.6670    0.5100   19.4360 C   0  0  0  0  0  0  0  0  0  0  0  0
    4.7230    1.5090   19.7070 C   0  0  0  0  0  0  0  0  0  0  0  0
    4.1800    2.2020   18.6170 C   0  0  0  0  0  0  0  0  0  0  0  0
    4.6080    1.8950   17.3180 C   0  0  0  0  0  0  0  0  0  0  0  0
    5.4820    0.8990   17.0470 N   0  0  0  0  0  0  0  0  0  0  0  0
    6.0030    0.2320   18.0940 C   0  0  0  0  0  0  0  0  0  0  0  0
    8.1540   -0.4540   21.8560 N   0  0  0  0  0  0  0  0  0  0  0  0
    9.4890   -0.2540   22.2530 C   0  0  0  0  0  0  0  0  0  0  0  0
   10.5310   -0.9960   21.6810 C   0  0  0  0  0  0  0  0  0  0  0  0
   11.8660   -0.6960   21.9950 C   0  0  0  0  0  0  0  0  0  0  0  0
   12.1500    0.3360   22.9050 C   0  0  0  0  0  0  0  0  0  0  0  0
   11.1000    1.0530   23.5080 C   0  0  0  0  0  0  0  0  0  0  0  0
   11.3830    2.0840   24.5780 C   0  0  0  0  0  0  0  0  0  0  0  0
   11.6270    3.4520   24.1100 N   0  0  0  0  0  0  0  0  0  0  0  0
   12.7290    3.8930   23.4020 C   0  0  0  0  0  0  0  0  0  0  0  0
   12.5700    5.2450   23.3590 C   0  0  0  0  0  0  0  0  0  0  0  0
   11.3620    5.5740   24.0210 C   0  0  0  0  0  0  0  0  0  0  0  0
   10.8150    4.4770   24.5120 N   0  0  0  0  0  0  0  0  0  0  0  0
    9.7710    0.7620   23.1720 C   0  0  0  0  0  0  0  0  0  0  0  0
  1  2  2  0
  2  3  1  0
  2 10  1  0
  3  4  1  0
  4  5  2  0
  4  9  1  0
  5  6  1  0
  6  7  2  0
  7  8  1  0
  8  9  2  0
 10 11  1  0
 11 22  1  0
 11 12  2  0
 12 13  1  0
 13 14  2  0
 14 15  1  0
 15 16  1  0
 15 22  2  0
 16 17  1  0
 17 18  1  0
 17 21  1  0
 18 19  2  0
 19 20  1  0
 20 21  2  0
M  END
