WPC2905_minimised.pdb
     RDKit          3D

 18 19  0  0  0  0  0  0  0  0999 V2000
   13.6330   -1.3830   20.9430 S   0  0  0  0  0  0  0  0  0  0  0  0
   13.4540   -0.1120   22.0120 C   0  0  0  0  0  0  0  0  0  0  0  0
   12.1520    0.3360   22.5980 C   0  0  0  0  0  0  0  0  0  0  0  0
   10.9180   -0.1900   22.1650 C   0  0  0  0  0  0  0  0  0  0  0  0
    9.7180    0.2610   22.7460 C   0  0  0  0  0  0  0  0  0  0  0  0
   12.1690    1.3200   23.6000 C   0  0  0  0  0  0  0  0  0  0  0  0
   10.9730    1.7560   24.1890 C   0  0  0  0  0  0  0  0  0  0  0  0
    8.4590   -0.1600   22.2660 N   0  0  0  0  0  0  0  0  0  0  0  0
    9.7500    1.2170   23.7710 C   0  0  0  0  0  0  0  0  0  0  0  0
    8.0330    0.0110   20.9790 C   0  0  0  0  0  0  0  0  0  0  0  0
    8.7690    0.2720   20.0490 O   0  0  0  0  0  0  0  0  0  0  0  0
    6.6730   -0.0630   20.8430 N   0  0  0  0  0  0  0  0  0  0  0  0
    5.9630    0.4440   19.7280 C   0  0  0  0  0  0  0  0  0  0  0  0
    6.3060    0.1000   18.4030 C   0  0  0  0  0  0  0  0  0  0  0  0
    4.9810    1.4190   19.9430 C   0  0  0  0  0  0  0  0  0  0  0  0
    5.7360    0.6670   17.3190 N   0  0  0  0  0  0  0  0  0  0  0  0
    4.4020    2.0210   18.8190 C   0  0  0  0  0  0  0  0  0  0  0  0
    4.8240    1.6410   17.5370 C   0  0  0  0  0  0  0  0  0  0  0  0
  1  2  2  0
  2  3  1  0
  3  4  2  0
  3  6  1  0
  4  5  1  0
  5  9  2  0
  5  8  1  0
  6  7  2  0
  7  9  1  0
  8 10  1  0
 10 11  2  0
 10 12  1  0
 12 13  1  0
 13 14  2  0
 13 15  1  0
 14 16  1  0
 15 17  2  0
 16 18  2  0
 17 18  1  0
M  END
