WPC2738_minimised.pdb
     RDKit          3D

 20 21  0  0  1  0  0  0  0  0999 V2000
   12.1040   -2.4980   23.3010 N   0  0  0  0  0  0  0  0  0  0  0  0
   11.9440   -1.0810   22.9950 C   0  0  1  0  0  0  0  0  0  0  0  0
   12.1530   -0.8630   21.4890 C   0  0  0  0  0  0  0  0  0  0  0  0
   13.8930   -1.1590   20.9450 S   0  0  0  0  0  0  0  0  0  0  0  0
   10.6090   -0.5850   23.5290 C   0  0  0  0  0  0  0  0  0  0  0  0
    9.4830   -0.4720   22.6960 C   0  0  0  0  0  0  0  0  0  0  0  0
    8.2710    0.0190   23.1990 C   0  0  0  0  0  0  0  0  0  0  0  0
   10.4870   -0.2540   24.8900 C   0  0  0  0  0  0  0  0  0  0  0  0
    9.2650    0.2030   25.4070 C   0  0  0  0  0  0  0  0  0  0  0  0
    7.1470    0.1720   22.3640 N   0  0  0  0  0  0  0  0  0  0  0  0
    8.1580    0.3490   24.5580 C   0  0  0  0  0  0  0  0  0  0  0  0
    7.1180    0.4740   21.0290 C   0  0  0  0  0  0  0  0  0  0  0  0
    8.0850    0.6080   20.2990 O   0  0  0  0  0  0  0  0  0  0  0  0
    5.8270    0.6090   20.6050 N   0  0  0  0  0  0  0  0  0  0  0  0
    5.3990    1.0960   19.3540 C   0  0  0  0  0  0  0  0  0  0  0  0
    6.0130    0.7170   18.1410 C   0  0  0  0  0  0  0  0  0  0  0  0
    4.3750    2.0480   19.3350 C   0  0  0  0  0  0  0  0  0  0  0  0
    5.6780    1.2500   16.9470 N   0  0  0  0  0  0  0  0  0  0  0  0
    4.0370    2.6090   18.1010 C   0  0  0  0  0  0  0  0  0  0  0  0
    4.7340    2.2200   16.9520 C   0  0  0  0  0  0  0  0  0  0  0  0
  2  1  1  6
  2  3  1  0
  2  5  1  0
  3  4  1  0
  5  8  2  0
  5  6  1  0
  6  7  2  0
  7 10  1  0
  7 11  1  0
  8  9  1  0
  9 11  2  0
 10 12  1  0
 12 13  2  0
 12 14  1  0
 14 15  1  0
 15 16  2  0
 15 17  1  0
 16 18  1  0
 17 19  2  0
 18 20  2  0
 19 20  1  0
M  END
