WPC2836_minimised.pdb
     RDKit          3D

 21 22  0  0  0  0  0  0  0  0999 V2000
   13.8860   -0.7930   21.3990 C   0  0  0  0  0  0  0  0  0  0  0  0
   12.5910   -0.6640   22.0080 O   0  0  0  0  0  0  0  0  0  0  0  0
   12.4650   -0.0360   23.3120 C   0  0  0  0  0  0  0  0  0  0  0  0
   12.6780    1.4840   23.1500 C   0  0  0  0  0  0  0  0  0  0  0  0
   13.5480   -0.6290   24.2550 C   0  0  0  0  0  0  0  0  0  0  0  0
   11.0160   -0.2780   23.7770 C   0  0  0  0  0  0  0  0  0  0  0  0
    9.9810   -0.4110   22.8270 C   0  0  0  0  0  0  0  0  0  0  0  0
    8.6390   -0.5380   23.2290 C   0  0  0  0  0  0  0  0  0  0  0  0
   10.6580   -0.2540   25.1400 C   0  0  0  0  0  0  0  0  0  0  0  0
    9.3270   -0.4030   25.5510 C   0  0  0  0  0  0  0  0  0  0  0  0
    7.5570   -0.5660   22.3230 N   0  0  0  0  0  0  0  0  0  0  0  0
    8.3180   -0.5530   24.5940 C   0  0  0  0  0  0  0  0  0  0  0  0
    7.4970   -0.1910   21.0080 C   0  0  0  0  0  0  0  0  0  0  0  0
    8.4350   -0.0160   20.2520 O   0  0  0  0  0  0  0  0  0  0  0  0
    6.1920   -0.0020   20.6510 N   0  0  0  0  0  0  0  0  0  0  0  0
    5.7120    0.6310   19.4860 C   0  0  0  0  0  0  0  0  0  0  0  0
    6.2380    0.3600   18.2060 C   0  0  0  0  0  0  0  0  0  0  0  0
    4.7130    1.6030   19.6210 C   0  0  0  0  0  0  0  0  0  0  0  0
    5.8220    0.9920   17.0890 N   0  0  0  0  0  0  0  0  0  0  0  0
    4.2960    2.2720   18.4660 C   0  0  0  0  0  0  0  0  0  0  0  0
    4.8880    1.9610   17.2350 C   0  0  0  0  0  0  0  0  0  0  0  0
  1  2  1  0
  2  3  1  0
  3  4  1  0
  3  5  1  0
  3  6  1  0
  6  9  2  0
  6  7  1  0
  7  8  2  0
  8 11  1  0
  8 12  1  0
  9 10  1  0
 10 12  2  0
 11 13  1  0
 13 14  2  0
 13 15  1  0
 15 16  1  0
 16 17  2  0
 16 18  1  0
 17 19  1  0
 18 20  2  0
 19 21  2  0
 20 21  1  0
M  END
