WPC2424_minimised.pdb
     RDKit          3D

 24 26  0  0  1  0  0  0  0  0999 V2000
    8.7890   -1.0810   19.7680 O   0  0  0  0  0  0  0  0  0  0  0  0
    8.0620   -1.0080   20.7410 C   0  0  0  0  0  0  0  0  0  0  0  0
    6.7370   -0.6700   20.6480 N   0  0  0  0  0  0  0  0  0  0  0  0
    6.1220    0.0450   19.5840 C   0  0  0  0  0  0  0  0  0  0  0  0
    5.2300    1.0810   19.8990 C   0  0  0  0  0  0  0  0  0  0  0  0
    4.7180    1.8680   18.8590 C   0  0  0  0  0  0  0  0  0  0  0  0
    5.1030    1.5980   17.5420 C   0  0  0  0  0  0  0  0  0  0  0  0
    5.9290    0.5790   17.2230 N   0  0  0  0  0  0  0  0  0  0  0  0
    6.4390   -0.1680   18.2260 C   0  0  0  0  0  0  0  0  0  0  0  0
    8.4670   -1.1880   22.0400 N   0  0  0  0  0  0  0  0  0  0  0  0
    9.7460   -0.8030   22.4990 C   0  0  0  0  0  0  0  0  0  0  0  0
   10.9190   -1.3200   21.9310 C   0  0  0  0  0  0  0  0  0  0  0  0
   12.1560   -0.6940   22.1650 C   0  0  0  0  0  0  0  0  0  0  0  0
   12.2100    0.4720   22.9490 C   0  0  0  0  0  0  0  0  0  0  0  0
   11.0370    0.9680   23.5390 C   0  0  0  0  0  0  0  0  0  0  0  0
   11.0050    2.5920   24.2650 S   0  0  0  0  0  0  0  0  0  0  0  0
   10.6820    3.6600   22.7900 C   0  0  0  0  0  0  0  0  0  0  0  0
    9.3480    3.2460   22.1990 C   0  0  0  0  0  0  0  0  0  0  0  0
    8.1240    3.9800   22.6070 C   0  0  0  0  0  0  0  0  0  0  0  0
    7.0740    3.0310   22.0940 C   0  0  0  0  0  0  0  0  0  0  0  0
    6.0470    2.7690   22.7030 O   0  0  0  0  0  0  0  0  0  0  0  0
    7.7400    2.1160   21.3210 O   0  0  0  0  0  0  0  0  0  0  0  0
    9.1410    2.3010   21.3610 N   0  0  0  0  0  0  0  0  0  0  0  0
    9.8230    0.2880   23.3720 C   0  0  0  0  0  0  0  0  0  0  0  0
  1  2  2  0
  2  3  1  0
  2 10  1  0
  3  4  1  0
  4  5  2  0
  4  9  1  0
  5  6  1  0
  6  7  2  0
  7  8  1  0
  8  9  2  0
 10 11  1  0
 11 24  1  0
 11 12  2  0
 12 13  1  0
 13 14  2  0
 14 15  1  0
 15 16  1  0
 15 24  2  0
 16 17  1  0
 18 17  1  0
 18 19  1  0
 18 23  1  0
 19 20  1  0
 20 21  2  0
 20 22  1  0
 22 23  1  0
M  END
