WPC2503_minimised.pdb
     RDKit          3D

 23 24  0  0  0  0  0  0  0  0999 V2000
    8.2690    5.4010   22.1200 C   0  0  0  0  0  0  0  0  0  0  0  0
    8.8890    4.2070   22.8600 C   0  0  0  0  0  0  0  0  0  0  0  0
   10.0900    4.6470   23.7150 C   0  0  0  0  0  0  0  0  0  0  0  0
   10.6860    3.5000   24.4020 N   0  0  0  0  0  0  0  0  0  0  0  0
   11.8780    2.9460   24.0030 C   0  0  0  0  0  0  0  0  0  0  0  0
   12.7370    3.5970   23.4450 O   0  0  0  0  0  0  0  0  0  0  0  0
   12.0520    1.4740   24.3470 C   0  0  0  0  0  0  0  0  0  0  0  0
   11.5180    0.5310   23.2940 C   0  0  0  0  0  0  0  0  0  0  0  0
   12.4000   -0.2530   22.5330 C   0  0  0  0  0  0  0  0  0  0  0  0
   11.8950   -1.2200   21.6540 C   0  0  0  0  0  0  0  0  0  0  0  0
   10.5080   -1.3710   21.5100 C   0  0  0  0  0  0  0  0  0  0  0  0
    9.6300   -0.5330   22.2070 C   0  0  0  0  0  0  0  0  0  0  0  0
    8.2570   -0.5340   21.8980 N   0  0  0  0  0  0  0  0  0  0  0  0
    7.7790   -0.1710   20.6710 C   0  0  0  0  0  0  0  0  0  0  0  0
    8.4880    0.0440   19.7080 O   0  0  0  0  0  0  0  0  0  0  0  0
    6.4200   -0.0260   20.6250 N   0  0  0  0  0  0  0  0  0  0  0  0
    5.7230    0.5610   19.5420 C   0  0  0  0  0  0  0  0  0  0  0  0
    4.7820    1.5650   19.7980 C   0  0  0  0  0  0  0  0  0  0  0  0
    4.2350    2.2380   18.6970 C   0  0  0  0  0  0  0  0  0  0  0  0
    4.6590    1.9090   17.4020 C   0  0  0  0  0  0  0  0  0  0  0  0
    5.5250    0.9040   17.1440 N   0  0  0  0  0  0  0  0  0  0  0  0
    6.0480    0.2550   18.2020 C   0  0  0  0  0  0  0  0  0  0  0  0
   10.1320    0.3990   23.1200 C   0  0  0  0  0  0  0  0  0  0  0  0
  1  2  1  0
  2  3  1  0
  3  4  1  0
  4  5  1  0
  5  6  2  0
  5  7  1  0
  7  8  1  0
  8 23  2  0
  8  9  1  0
  9 10  2  0
 10 11  1  0
 11 12  2  0
 12 13  1  0
 12 23  1  0
 13 14  1  0
 14 15  2  0
 14 16  1  0
 16 17  1  0
 17 18  2  0
 17 22  1  0
 18 19  1  0
 19 20  2  0
 20 21  1  0
 21 22  2  0
M  END
