WPC2536_minimised.pdb
     RDKit          3D

 22 23  0  0  1  0  0  0  0  0999 V2000
    9.8780    4.8060   23.2740 N   0  0  0  0  0  0  0  0  0  0  0  0
   10.9700    4.4310   24.1840 C   0  0  1  0  0  0  0  0  0  0  0  0
   10.8300    2.9790   24.6810 C   0  0  0  0  0  0  0  0  0  0  0  0
   10.8370    1.8760   23.6380 C   0  0  0  0  0  0  0  0  0  0  0  0
   12.0410    1.3120   23.1770 C   0  0  0  0  0  0  0  0  0  0  0  0
   12.0180    0.2180   22.2960 C   0  0  0  0  0  0  0  0  0  0  0  0
   10.7880   -0.3220   21.8820 C   0  0  0  0  0  0  0  0  0  0  0  0
    9.5890    0.2360   22.3510 C   0  0  0  0  0  0  0  0  0  0  0  0
    8.3350   -0.2410   21.9290 N   0  0  0  0  0  0  0  0  0  0  0  0
    7.8770   -0.1180   20.6510 C   0  0  0  0  0  0  0  0  0  0  0  0
    8.5910    0.0950   19.6920 O   0  0  0  0  0  0  0  0  0  0  0  0
    6.5140   -0.1570   20.5670 N   0  0  0  0  0  0  0  0  0  0  0  0
    5.7920    0.4120   19.4930 C   0  0  0  0  0  0  0  0  0  0  0  0
    4.8420    1.4020   19.7700 C   0  0  0  0  0  0  0  0  0  0  0  0
    4.2740    2.0820   18.6860 C   0  0  0  0  0  0  0  0  0  0  0  0
    4.6860    1.7710   17.3820 C   0  0  0  0  0  0  0  0  0  0  0  0
    5.5700    0.7850   17.1050 N   0  0  0  0  0  0  0  0  0  0  0  0
    6.1150    0.1310   18.1490 C   0  0  0  0  0  0  0  0  0  0  0  0
    9.6150    1.3310   23.2210 C   0  0  0  0  0  0  0  0  0  0  0  0
   12.6510    4.8000   23.4440 P   0  0  0  0  0  0  0  0  0  0  0  0
   12.3750    5.0860   21.8250 O   0  0  0  0  0  0  0  0  0  0  0  0
   12.8360    6.3700   23.9790 O   0  0  0  0  0  0  0  0  0  0  0  0
  2  1  1  6
  2 20  1  0
  2  3  1  0
  3  4  1  0
  4 19  2  0
  4  5  1  0
  5  6  2  0
  6  7  1  0
  7  8  2  0
  8  9  1  0
  8 19  1  0
  9 10  1  0
 10 11  2  0
 10 12  1  0
 12 13  1  0
 13 14  2  0
 13 18  1  0
 14 15  1  0
 15 16  2  0
 16 17  1  0
 17 18  2  0
 20 21  1  0
 20 22  1  0
M  END
