WPC2568_minimised.pdb
     RDKit          3D

 24 25  0  0  0  0  0  0  0  0999 V2000
   13.8970    4.6480   22.7610 C   0  0  0  0  0  0  0  0  0  0  0  0
   12.7020    4.5020   21.8020 C   0  0  0  0  0  0  0  0  0  0  0  0
   11.7390    3.3620   22.2050 C   0  0  0  0  0  0  0  0  0  0  0  0
   10.6330    3.8740   23.0130 N   0  0  0  0  0  0  0  0  0  0  0  0
   10.8000    4.0900   24.3450 C   0  0  0  0  0  0  0  0  0  0  0  0
   10.9680    5.6340   24.8960 S   0  0  0  0  0  0  0  0  0  0  0  0
   11.1890    3.0320   25.1220 N   0  0  0  0  0  0  0  0  0  0  0  0
   10.4820    1.7420   25.1970 C   0  0  0  0  0  0  0  0  0  0  0  0
   10.6690    0.7870   24.0370 C   0  0  0  0  0  0  0  0  0  0  0  0
   11.9390    0.3460   23.6200 C   0  0  0  0  0  0  0  0  0  0  0  0
   12.0540   -0.5210   22.5190 C   0  0  0  0  0  0  0  0  0  0  0  0
   10.8980   -0.9940   21.8750 C   0  0  0  0  0  0  0  0  0  0  0  0
    9.6350   -0.5900   22.3290 C   0  0  0  0  0  0  0  0  0  0  0  0
    8.4460   -0.9940   21.7020 N   0  0  0  0  0  0  0  0  0  0  0  0
    7.9820   -0.4320   20.5510 C   0  0  0  0  0  0  0  0  0  0  0  0
    8.6740    0.1770   19.7630 O   0  0  0  0  0  0  0  0  0  0  0  0
    6.6300   -0.5540   20.4070 N   0  0  0  0  0  0  0  0  0  0  0  0
    5.8920    0.1370   19.4220 C   0  0  0  0  0  0  0  0  0  0  0  0
    4.9470    1.0970   19.8040 C   0  0  0  0  0  0  0  0  0  0  0  0
    4.3500    1.8600   18.7910 C   0  0  0  0  0  0  0  0  0  0  0  0
    4.7250    1.6520   17.4550 C   0  0  0  0  0  0  0  0  0  0  0  0
    5.6160    0.7070   17.0810 N   0  0  0  0  0  0  0  0  0  0  0  0
    6.1980   -0.0170   18.0560 C   0  0  0  0  0  0  0  0  0  0  0  0
    9.5240    0.3030   23.3950 C   0  0  0  0  0  0  0  0  0  0  0  0
  1  2  1  0
  2  3  1  0
  3  4  1  0
  4  5  1  0
  5  6  2  0
  5  7  1  0
  7  8  1  0
  8  9  1  0
  9 24  2  0
  9 10  1  0
 10 11  2  0
 11 12  1  0
 12 13  2  0
 13 14  1  0
 13 24  1  0
 14 15  1  0
 15 16  2  0
 15 17  1  0
 17 18  1  0
 18 19  2  0
 18 23  1  0
 19 20  1  0
 20 21  2  0
 21 22  1  0
 22 23  2  0
M  END
