WPC2576_minimised.pdb
     RDKit          3D

 24 26  0  0  0  0  0  0  0  0999 V2000
    8.5200    0.0250   19.7920 O   0  0  0  0  0  0  0  0  0  0  0  0
    7.8560   -0.2080   20.7830 C   0  0  0  0  0  0  0  0  0  0  0  0
    6.4940   -0.0730   20.7860 N   0  0  0  0  0  0  0  0  0  0  0  0
    5.7570    0.4830   19.7100 C   0  0  0  0  0  0  0  0  0  0  0  0
    4.8310    1.5010   19.9670 C   0  0  0  0  0  0  0  0  0  0  0  0
    4.2510    2.1440   18.8650 C   0  0  0  0  0  0  0  0  0  0  0  0
    4.6210    1.7680   17.5650 C   0  0  0  0  0  0  0  0  0  0  0  0
    5.4690    0.7470   17.3090 N   0  0  0  0  0  0  0  0  0  0  0  0
    6.0300    0.1320   18.3680 C   0  0  0  0  0  0  0  0  0  0  0  0
    8.4030   -0.5910   21.9770 N   0  0  0  0  0  0  0  0  0  0  0  0
    9.7970   -0.6410   22.1750 C   0  0  0  0  0  0  0  0  0  0  0  0
   10.5590   -1.5820   21.4730 C   0  0  0  0  0  0  0  0  0  0  0  0
   11.9570   -1.4840   21.4540 C   0  0  0  0  0  0  0  0  0  0  0  0
   12.5920   -0.4530   22.1540 C   0  0  0  0  0  0  0  0  0  0  0  0
   11.8340    0.4620   22.8940 C   0  0  0  0  0  0  0  0  0  0  0  0
   12.7390    1.6770   23.8120 S   0  0  0  0  0  0  0  0  0  0  0  0
   11.9330    3.2620   23.6010 C   0  0  0  0  0  0  0  0  0  0  0  0
   10.5910    3.3420   23.7070 N   0  0  0  0  0  0  0  0  0  0  0  0
   10.0070    4.5530   23.6720 C   0  0  0  0  0  0  0  0  0  0  0  0
   10.7450    5.7470   23.6620 C   0  0  0  0  0  0  0  0  0  0  0  0
   12.1480    5.6750   23.6210 C   0  0  0  0  0  0  0  0  0  0  0  0
   12.7500    4.4170   23.5290 C   0  0  0  0  0  0  0  0  0  0  0  0
   14.1140    4.3600   23.4210 O   0  0  0  0  0  0  0  0  0  0  0  0
   10.4330    0.3540   22.9240 C   0  0  0  0  0  0  0  0  0  0  0  0
  1  2  2  0
  2  3  1  0
  2 10  1  0
  3  4  1  0
  4  5  2  0
  4  9  1  0
  5  6  1  0
  6  7  2  0
  7  8  1  0
  8  9  2  0
 10 11  1  0
 11 24  1  0
 11 12  2  0
 12 13  1  0
 13 14  2  0
 14 15  1  0
 15 16  1  0
 15 24  2  0
 16 17  1  0
 17 18  2  0
 17 22  1  0
 18 19  1  0
 19 20  2  0
 20 21  1  0
 21 22  2  0
 22 23  1  0
M  END
