WPC2013_minimised.pdb
     RDKit          3D

 22 23  0  0  1  0  0  0  0  0999 V2000
   12.2000    5.9440   24.4710 C   0  0  0  0  0  0  0  0  0  0  0  0
   11.8460    5.1960   23.1700 C   0  0  2  0  0  0  0  0  0  0  0  0
   10.5080    5.5380   22.7970 O   0  0  0  0  0  0  0  0  0  0  0  0
   12.0130    3.6640   23.3190 C   0  0  0  0  0  0  0  0  0  0  0  0
   11.2180    3.1200   24.4340 N   0  0  0  0  0  0  0  0  0  0  0  0
   11.4550    1.7010   24.7310 C   0  0  0  0  0  0  0  0  0  0  0  0
   11.0930    0.7610   23.6050 C   0  0  0  0  0  0  0  0  0  0  0  0
   12.1010    0.0870   22.8900 C   0  0  0  0  0  0  0  0  0  0  0  0
   11.7580   -0.8620   21.9170 C   0  0  0  0  0  0  0  0  0  0  0  0
   10.4060   -1.1050   21.6340 C   0  0  0  0  0  0  0  0  0  0  0  0
    9.4050   -0.3860   22.3000 C   0  0  0  0  0  0  0  0  0  0  0  0
    8.0610   -0.4910   21.8990 N   0  0  0  0  0  0  0  0  0  0  0  0
    7.6360   -0.1870   20.6370 C   0  0  0  0  0  0  0  0  0  0  0  0
    8.3820   -0.0100   19.6930 O   0  0  0  0  0  0  0  0  0  0  0  0
    6.2810   -0.0410   20.5480 N   0  0  0  0  0  0  0  0  0  0  0  0
    5.6160    0.5600   19.4550 C   0  0  0  0  0  0  0  0  0  0  0  0
    4.6690    1.5610   19.7040 C   0  0  0  0  0  0  0  0  0  0  0  0
    4.1450    2.2470   18.6010 C   0  0  0  0  0  0  0  0  0  0  0  0
    4.5940    1.9330   17.3110 C   0  0  0  0  0  0  0  0  0  0  0  0
    5.4720    0.9350   17.0600 N   0  0  0  0  0  0  0  0  0  0  0  0
    5.9720    0.2720   18.1200 C   0  0  0  0  0  0  0  0  0  0  0  0
    9.7440    0.5280   23.3010 C   0  0  0  0  0  0  0  0  0  0  0  0
  2  1  1  1
  2  3  1  0
  2  4  1  0
  4  5  1  0
  5  6  1  0
  6  7  1  0
  7 22  2  0
  7  8  1  0
  8  9  2  0
  9 10  1  0
 10 11  2  0
 11 12  1  0
 11 22  1  0
 12 13  1  0
 13 14  2  0
 13 15  1  0
 15 16  1  0
 16 17  2  0
 16 21  1  0
 17 18  1  0
 18 19  2  0
 19 20  1  0
 20 21  2  0
M  END
