WPC2108_minimised.pdb
     RDKit          3D

 24 26  0  0  0  0  0  0  0  0999 V2000
    8.5100    0.0270   19.7320 O   0  0  0  0  0  0  0  0  0  0  0  0
    7.8140   -0.1910   20.7040 C   0  0  0  0  0  0  0  0  0  0  0  0
    6.4520   -0.0910   20.6610 N   0  0  0  0  0  0  0  0  0  0  0  0
    5.7390    0.4850   19.5830 C   0  0  0  0  0  0  0  0  0  0  0  0
    4.8130    1.5020   19.8440 C   0  0  0  0  0  0  0  0  0  0  0  0
    4.2500    2.1660   18.7470 C   0  0  0  0  0  0  0  0  0  0  0  0
    4.6390    1.8110   17.4470 C   0  0  0  0  0  0  0  0  0  0  0  0
    5.4950    0.7970   17.1860 N   0  0  0  0  0  0  0  0  0  0  0  0
    6.0370    0.1600   18.2420 C   0  0  0  0  0  0  0  0  0  0  0  0
    8.3080   -0.4980   21.9400 N   0  0  0  0  0  0  0  0  0  0  0  0
    9.6680   -0.3640   22.2770 C   0  0  0  0  0  0  0  0  0  0  0  0
   10.6390   -1.1530   21.6450 C   0  0  0  0  0  0  0  0  0  0  0  0
   12.0030   -0.8890   21.8440 C   0  0  0  0  0  0  0  0  0  0  0  0
   12.3920    0.1570   22.6960 C   0  0  0  0  0  0  0  0  0  0  0  0
   11.4180    0.9120   23.3720 C   0  0  0  0  0  0  0  0  0  0  0  0
   11.8280    2.0050   24.3320 C   0  0  0  0  0  0  0  0  0  0  0  0
   11.8300    3.3340   23.7160 N   0  0  0  0  0  0  0  0  0  0  0  0
   12.9650    3.9460   23.2430 C   0  0  0  0  0  0  0  0  0  0  0  0
   14.1080    3.5570   23.3260 O   0  0  0  0  0  0  0  0  0  0  0  0
   12.5000    5.1930   22.6670 C   0  0  0  0  0  0  0  0  0  0  0  0
   11.1440    5.2770   22.8470 C   0  0  0  0  0  0  0  0  0  0  0  0
   10.6860    4.0690   23.5180 C   0  0  0  0  0  0  0  0  0  0  0  0
    9.5570    3.7860   23.8600 O   0  0  0  0  0  0  0  0  0  0  0  0
   10.0560    0.6510   23.1570 C   0  0  0  0  0  0  0  0  0  0  0  0
  1  2  2  0
  2  3  1  0
  2 10  1  0
  3  4  1  0
  4  5  2  0
  4  9  1  0
  5  6  1  0
  6  7  2  0
  7  8  1  0
  8  9  2  0
 10 11  1  0
 11 24  1  0
 11 12  2  0
 12 13  1  0
 13 14  2  0
 14 15  1  0
 15 16  1  0
 15 24  2  0
 16 17  1  0
 17 18  1  0
 17 22  1  0
 18 19  2  0
 18 20  1  0
 20 21  2  0
 21 22  1  0
 22 23  2  0
M  END
