WPC2745_minimised.pdb
     RDKit          3D

 22 23  0  0  0  0  0  0  0  0999 V2000
   14.0630   -1.2740   20.6210 N   0  0  0  0  0  0  0  0  0  0  0  0
   13.1750   -1.0830   21.3300 C   0  0  0  0  0  0  0  0  0  0  0  0
   12.0400   -0.9040   22.2390 C   0  0  0  0  0  0  0  0  0  0  0  0
   11.4960   -2.2680   22.7060 C   0  0  0  0  0  0  0  0  0  0  0  0
   10.3280   -2.1020   24.1110 S   0  0  0  0  0  0  0  0  0  0  0  0
    9.8500   -3.8830   24.3100 C   0  0  0  0  0  0  0  0  0  0  0  0
    8.3410   -4.0780   24.2270 C   0  0  0  0  0  0  0  0  0  0  0  0
    7.5680   -3.2780   23.3670 C   0  0  0  0  0  0  0  0  0  0  0  0
    6.1700   -3.3740   23.3610 C   0  0  0  0  0  0  0  0  0  0  0  0
    7.6980   -5.0290   25.0390 C   0  0  0  0  0  0  0  0  0  0  0  0
    6.2980   -5.1520   25.0140 C   0  0  0  0  0  0  0  0  0  0  0  0
    5.4290   -2.4110   22.6470 N   0  0  0  0  0  0  0  0  0  0  0  0
    5.5300   -4.3110   24.1880 C   0  0  0  0  0  0  0  0  0  0  0  0
    5.5860   -2.0720   21.3310 C   0  0  0  0  0  0  0  0  0  0  0  0
    6.0260   -2.8270   20.4840 O   0  0  0  0  0  0  0  0  0  0  0  0
    5.1220   -0.8050   21.0910 N   0  0  0  0  0  0  0  0  0  0  0  0
    5.1250   -0.0350   19.8970 C   0  0  0  0  0  0  0  0  0  0  0  0
    5.9150   -0.3290   18.7590 C   0  0  0  0  0  0  0  0  0  0  0  0
    4.3250    1.1170   19.8730 C   0  0  0  0  0  0  0  0  0  0  0  0
    5.9280    0.4370   17.6460 N   0  0  0  0  0  0  0  0  0  0  0  0
    4.3410    1.9110   18.7200 C   0  0  0  0  0  0  0  0  0  0  0  0
    5.1580    1.5470   17.6420 C   0  0  0  0  0  0  0  0  0  0  0  0
  1  2  3  0
  2  3  1  0
  3  4  1  0
  4  5  1  0
  5  6  1  0
  6  7  1  0
  7 10  2  0
  7  8  1  0
  8  9  2  0
  9 12  1  0
  9 13  1  0
 10 11  1  0
 11 13  2  0
 12 14  1  0
 14 15  2  0
 14 16  1  0
 16 17  1  0
 17 18  2  0
 17 19  1  0
 18 20  1  0
 19 21  2  0
 20 22  2  0
 21 22  1  0
M  END
