WPC2697_minimised.pdb
     RDKit          3D

 18 19  0  0  0  0  0  0  0  0999 V2000
   13.2480   -1.6650   21.5000 C   0  0  0  0  0  0  0  0  0  0  0  0
   13.3500   -0.3730   22.1080 O   0  0  0  0  0  0  0  0  0  0  0  0
   12.2370    0.3120   22.5440 C   0  0  0  0  0  0  0  0  0  0  0  0
   10.9250   -0.1210   22.2710 C   0  0  0  0  0  0  0  0  0  0  0  0
    9.8310    0.6240   22.7320 C   0  0  0  0  0  0  0  0  0  0  0  0
   12.4410    1.4960   23.2660 C   0  0  0  0  0  0  0  0  0  0  0  0
   11.3450    2.2430   23.7260 C   0  0  0  0  0  0  0  0  0  0  0  0
    8.5150    0.2530   22.3880 N   0  0  0  0  0  0  0  0  0  0  0  0
   10.0400    1.7980   23.4680 C   0  0  0  0  0  0  0  0  0  0  0  0
    8.0410    0.2420   21.1070 C   0  0  0  0  0  0  0  0  0  0  0  0
    8.7530    0.3460   20.1280 O   0  0  0  0  0  0  0  0  0  0  0  0
    6.6780    0.1680   21.0090 N   0  0  0  0  0  0  0  0  0  0  0  0
    5.9540    0.5600   19.8560 C   0  0  0  0  0  0  0  0  0  0  0  0
    6.3050    0.1250   18.5570 C   0  0  0  0  0  0  0  0  0  0  0  0
    4.9530    1.5290   19.9960 C   0  0  0  0  0  0  0  0  0  0  0  0
    5.7400    0.6120   17.4310 N   0  0  0  0  0  0  0  0  0  0  0  0
    4.3780    2.0470   18.8300 C   0  0  0  0  0  0  0  0  0  0  0  0
    4.8210    1.5930   17.5790 C   0  0  0  0  0  0  0  0  0  0  0  0
  1  2  1  0
  2  3  1  0
  3  4  2  0
  3  6  1  0
  4  5  1  0
  5  9  2  0
  5  8  1  0
  6  7  2  0
  7  9  1  0
  8 10  1  0
 10 11  2  0
 10 12  1  0
 12 13  1  0
 13 14  2  0
 13 15  1  0
 14 16  1  0
 15 17  2  0
 16 18  2  0
 17 18  1  0
M  END
