WPC2782_minimised.pdb
     RDKit          3D

 20 21  0  0  0  0  0  0  0  0999 V2000
   15.5440    0.3470   19.6980 C   0  0  0  0  0  0  0  0  0  0  0  0
   14.6800   -0.5430   20.4310 O   0  0  0  0  0  0  0  0  0  0  0  0
   13.5150    0.0780   21.0030 C   0  0  0  0  0  0  0  0  0  0  0  0
   13.1040   -0.7230   22.2350 C   0  0  0  0  0  0  0  0  0  0  0  0
   11.8370   -0.1700   22.8670 C   0  0  0  0  0  0  0  0  0  0  0  0
   10.5900   -0.3910   22.2540 C   0  0  0  0  0  0  0  0  0  0  0  0
    9.4160    0.1120   22.8390 C   0  0  0  0  0  0  0  0  0  0  0  0
   11.8980    0.5670   24.0620 C   0  0  0  0  0  0  0  0  0  0  0  0
   10.7210    1.0530   24.6530 C   0  0  0  0  0  0  0  0  0  0  0  0
    8.1560   -0.0580   22.2340 N   0  0  0  0  0  0  0  0  0  0  0  0
    9.4810    0.8200   24.0450 C   0  0  0  0  0  0  0  0  0  0  0  0
    7.8450    0.2090   20.9300 C   0  0  0  0  0  0  0  0  0  0  0  0
    8.6480    0.4600   20.0540 O   0  0  0  0  0  0  0  0  0  0  0  0
    6.4940    0.1980   20.7240 N   0  0  0  0  0  0  0  0  0  0  0  0
    5.8340    0.6980   19.5800 C   0  0  0  0  0  0  0  0  0  0  0  0
    6.2320    0.3550   18.2690 C   0  0  0  0  0  0  0  0  0  0  0  0
    4.8080    1.6340   19.7580 C   0  0  0  0  0  0  0  0  0  0  0  0
    5.6590    0.8740   17.1630 N   0  0  0  0  0  0  0  0  0  0  0  0
    4.2400    2.2010   18.6120 C   0  0  0  0  0  0  0  0  0  0  0  0
    4.7050    1.8160   17.3470 C   0  0  0  0  0  0  0  0  0  0  0  0
  1  2  1  0
  2  3  1  0
  3  4  1  0
  4  5  1  0
  5  8  2  0
  5  6  1  0
  6  7  2  0
  7 10  1  0
  7 11  1  0
  8  9  1  0
  9 11  2  0
 10 12  1  0
 12 13  2  0
 12 14  1  0
 14 15  1  0
 15 16  2  0
 15 17  1  0
 16 18  1  0
 17 19  2  0
 18 20  2  0
 19 20  1  0
M  END
