WPC2864_minimised.pdb
     RDKit          3D

 20 21  0  0  1  0  0  0  0  0999 V2000
   15.3060    0.8000   20.2010 C   0  0  0  0  0  0  0  0  0  0  0  0
   14.3020    0.9250   21.3830 C   0  0  0  0  0  0  0  0  0  0  0  0
   13.2610   -0.2210   21.4720 C   0  0  1  0  0  0  0  0  0  0  0  0
   13.9220   -1.5380   21.8920 C   0  0  0  0  0  0  0  0  0  0  0  0
   12.0670    0.1080   22.3740 C   0  0  0  0  0  0  0  0  0  0  0  0
   10.7610   -0.1020   21.8900 C   0  0  0  0  0  0  0  0  0  0  0  0
    9.6350    0.1790   22.6830 C   0  0  0  0  0  0  0  0  0  0  0  0
   12.2310    0.5850   23.6880 C   0  0  0  0  0  0  0  0  0  0  0  0
   11.1040    0.8330   24.4940 C   0  0  0  0  0  0  0  0  0  0  0  0
    8.3150    0.0260   22.1970 N   0  0  0  0  0  0  0  0  0  0  0  0
    9.8130    0.6340   23.9930 C   0  0  0  0  0  0  0  0  0  0  0  0
    7.8700    0.2970   20.9310 C   0  0  0  0  0  0  0  0  0  0  0  0
    8.5820    0.5830   19.9910 O   0  0  0  0  0  0  0  0  0  0  0  0
    6.5070    0.2410   20.8150 N   0  0  0  0  0  0  0  0  0  0  0  0
    5.7820    0.6910   19.6850 C   0  0  0  0  0  0  0  0  0  0  0  0
    6.1300    0.3060   18.3710 C   0  0  0  0  0  0  0  0  0  0  0  0
    4.7670    1.6370   19.8690 C   0  0  0  0  0  0  0  0  0  0  0  0
    5.5250    0.7950   17.2680 N   0  0  0  0  0  0  0  0  0  0  0  0
    4.1650    2.1750   18.7250 C   0  0  0  0  0  0  0  0  0  0  0  0
    4.5860    1.7510   17.4570 C   0  0  0  0  0  0  0  0  0  0  0  0
  1  2  1  0
  2  3  1  0
  3  4  1  1
  3  5  1  0
  5  8  2  0
  5  6  1  0
  6  7  2  0
  7 10  1  0
  7 11  1  0
  8  9  1  0
  9 11  2  0
 10 12  1  0
 12 13  2  0
 12 14  1  0
 14 15  1  0
 15 16  2  0
 15 17  1  0
 16 18  1  0
 17 19  2  0
 18 20  2  0
 19 20  1  0
M  END
