WPC2016_minimised.pdb
     RDKit          3D

 23 24  0  0  0  0  0  0  0  0999 V2000
   14.1420    5.2400   22.5210 C   0  0  0  0  0  0  0  0  0  0  0  0
   12.7230    5.0300   22.8370 N   0  0  0  0  0  0  0  0  0  0  0  0
   11.8670    4.6720   21.7140 C   0  0  0  0  0  0  0  0  0  0  0  0
   12.2210    5.1850   24.1170 C   0  0  0  0  0  0  0  0  0  0  0  0
   12.9440    5.3340   25.0810 O   0  0  0  0  0  0  0  0  0  0  0  0
   10.4860    4.7170   24.2890 S   0  0  0  0  0  0  0  0  0  0  0  0
   10.7530    3.0930   25.1050 C   0  0  0  0  0  0  0  0  0  0  0  0
   10.8370    1.9560   24.1060 C   0  0  0  0  0  0  0  0  0  0  0  0
   12.0730    1.5020   23.6080 C   0  0  0  0  0  0  0  0  0  0  0  0
   12.1150    0.4520   22.6750 C   0  0  0  0  0  0  0  0  0  0  0  0
   10.9210   -0.1410   22.2290 C   0  0  0  0  0  0  0  0  0  0  0  0
    9.6900    0.3110   22.7280 C   0  0  0  0  0  0  0  0  0  0  0  0
    8.4700   -0.1960   22.2380 N   0  0  0  0  0  0  0  0  0  0  0  0
    8.0000    0.0520   20.9800 C   0  0  0  0  0  0  0  0  0  0  0  0
    8.6770    0.5130   20.0850 O   0  0  0  0  0  0  0  0  0  0  0  0
    6.6640   -0.2010   20.8290 N   0  0  0  0  0  0  0  0  0  0  0  0
    5.9140    0.2820   19.7320 C   0  0  0  0  0  0  0  0  0  0  0  0
    4.9190    1.2400   19.9620 C   0  0  0  0  0  0  0  0  0  0  0  0
    4.3200    1.8370   18.8460 C   0  0  0  0  0  0  0  0  0  0  0  0
    4.7330    1.4640   17.5580 C   0  0  0  0  0  0  0  0  0  0  0  0
    5.6620    0.5090   17.3260 N   0  0  0  0  0  0  0  0  0  0  0  0
    6.2540   -0.0480   18.4030 C   0  0  0  0  0  0  0  0  0  0  0  0
    9.6510    1.3520   23.6650 C   0  0  0  0  0  0  0  0  0  0  0  0
  1  2  1  0
  2  3  1  0
  2  4  1  0
  4  5  2  0
  4  6  1  0
  6  7  1  0
  7  8  1  0
  8 23  2  0
  8  9  1  0
  9 10  2  0
 10 11  1  0
 11 12  2  0
 12 13  1  0
 12 23  1  0
 13 14  1  0
 14 15  2  0
 14 16  1  0
 16 17  1  0
 17 18  2  0
 17 22  1  0
 18 19  1  0
 19 20  2  0
 20 21  1  0
 21 22  2  0
M  END
