WPC2295_minimised.pdb
     RDKit          3D

 23 25  0  0  1  0  0  0  0  0999 V2000
    8.5080    0.0200   19.6780 O   0  0  0  0  0  0  0  0  0  0  0  0
    7.7850   -0.0770   20.6490 C   0  0  0  0  0  0  0  0  0  0  0  0
    6.4280    0.0590   20.5790 N   0  0  0  0  0  0  0  0  0  0  0  0
    5.7360    0.6140   19.4780 C   0  0  0  0  0  0  0  0  0  0  0  0
    4.7910    1.6200   19.7150 C   0  0  0  0  0  0  0  0  0  0  0  0
    4.2310    2.2610   18.6040 C   0  0  0  0  0  0  0  0  0  0  0  0
    4.6460    1.9010   17.3140 C   0  0  0  0  0  0  0  0  0  0  0  0
    5.5200    0.8970   17.0750 N   0  0  0  0  0  0  0  0  0  0  0  0
    6.0560    0.2770   18.1450 C   0  0  0  0  0  0  0  0  0  0  0  0
    8.2410   -0.2650   21.9210 N   0  0  0  0  0  0  0  0  0  0  0  0
    9.5790   -0.0570   22.2990 C   0  0  0  0  0  0  0  0  0  0  0  0
   10.6110   -0.8730   21.8100 C   0  0  0  0  0  0  0  0  0  0  0  0
   11.9500   -0.5740   22.1160 C   0  0  0  0  0  0  0  0  0  0  0  0
   12.2500    0.5400   22.9190 C   0  0  0  0  0  0  0  0  0  0  0  0
   11.2100    1.3420   23.4150 C   0  0  0  0  0  0  0  0  0  0  0  0
   11.5480    2.7630   24.4120 S   0  0  0  0  0  0  0  0  0  0  0  0
   11.4240    4.1360   23.2000 C   0  0  2  0  0  0  0  0  0  0  0  0
   12.7160    4.9600   23.1710 C   0  0  0  0  0  0  0  0  0  0  0  0
   12.4370    6.0720   24.1920 C   0  0  0  0  0  0  0  0  0  0  0  0
   11.0100    6.2470   24.1200 O   0  0  0  0  0  0  0  0  0  0  0  0
   10.3660    5.1400   23.6430 C   0  0  0  0  0  0  0  0  0  0  0  0
    9.1720    4.9350   23.7550 O   0  0  0  0  0  0  0  0  0  0  0  0
    9.8790    1.0480   23.1030 C   0  0  0  0  0  0  0  0  0  0  0  0
  1  2  2  0
  2  3  1  0
  2 10  1  0
  3  4  1  0
  4  5  2  0
  4  9  1  0
  5  6  1  0
  6  7  2  0
  7  8  1  0
  8  9  2  0
 10 11  1  0
 11 23  1  0
 11 12  2  0
 12 13  1  0
 13 14  2  0
 14 15  1  0
 15 16  1  0
 15 23  2  0
 17 16  1  1
 17 18  1  0
 17 21  1  0
 18 19  1  0
 19 20  1  0
 20 21  1  0
 21 22  2  0
M  END
