WPC2407_minimised.pdb
     RDKit          3D

 23 24  0  0  1  0  0  0  0  0999 V2000
   12.3550    6.6810   25.6600 C   0  0  0  0  0  0  0  0  0  0  0  0
   12.8180    6.0100   24.3340 C   0  0  0  0  0  0  0  0  0  0  0  0
   12.3370    4.7120   23.6010 C   0  0  2  0  0  0  0  0  0  0  0  0
   12.3380    4.9080   22.0730 C   0  0  0  0  0  0  0  0  0  0  0  0
   13.6090    5.3570   21.5890 O   0  0  0  0  0  0  0  0  0  0  0  0
   10.9870    4.2840   24.0420 N   0  0  0  0  0  0  0  0  0  0  0  0
   10.9240    2.9800   24.7170 C   0  0  0  0  0  0  0  0  0  0  0  0
   10.9280    1.8030   23.7590 C   0  0  0  0  0  0  0  0  0  0  0  0
   12.1260    1.2140   23.3090 C   0  0  0  0  0  0  0  0  0  0  0  0
   12.0860    0.1150   22.4320 C   0  0  0  0  0  0  0  0  0  0  0  0
   10.8500   -0.4060   22.0140 C   0  0  0  0  0  0  0  0  0  0  0  0
    9.6570    0.1710   22.4770 C   0  0  0  0  0  0  0  0  0  0  0  0
    8.3990   -0.2820   22.0370 N   0  0  0  0  0  0  0  0  0  0  0  0
    7.9240   -0.0770   20.7740 C   0  0  0  0  0  0  0  0  0  0  0  0
    8.6230    0.2340   19.8320 O   0  0  0  0  0  0  0  0  0  0  0  0
    6.5630   -0.1690   20.6800 N   0  0  0  0  0  0  0  0  0  0  0  0
    5.8280    0.3720   19.5990 C   0  0  0  0  0  0  0  0  0  0  0  0
    4.8640    1.3540   19.8580 C   0  0  0  0  0  0  0  0  0  0  0  0
    4.2850    2.0030   18.7600 C   0  0  0  0  0  0  0  0  0  0  0  0
    4.6920    1.6640   17.4620 C   0  0  0  0  0  0  0  0  0  0  0  0
    5.5880    0.6850   17.2020 N   0  0  0  0  0  0  0  0  0  0  0  0
    6.1520    0.0680   18.2590 C   0  0  0  0  0  0  0  0  0  0  0  0
    9.7000    1.2710   23.3400 C   0  0  0  0  0  0  0  0  0  0  0  0
  1  2  1  0
  3  2  1  1
  3  4  1  0
  3  6  1  0
  4  5  1  0
  6  7  1  0
  7  8  1  0
  8 23  2  0
  8  9  1  0
  9 10  2  0
 10 11  1  0
 11 12  2  0
 12 13  1  0
 12 23  1  0
 13 14  1  0
 14 15  2  0
 14 16  1  0
 16 17  1  0
 17 18  2  0
 17 22  1  0
 18 19  1  0
 19 20  2  0
 20 21  1  0
 21 22  2  0
M  END
