WPC2922_minimised.pdb
     RDKit          3D

 20 21  0  0  1  0  0  0  0  0999 V2000
   12.2860   -2.3550   23.0640 C   0  0  0  0  0  0  0  0  0  0  0  0
   12.4490   -0.8830   22.6580 C   0  0  1  0  0  0  0  0  0  0  0  0
   12.6570   -0.7570   21.1390 C   0  0  0  0  0  0  0  0  0  0  0  0
   14.0320   -0.8940   20.7830 O   0  0  0  0  0  0  0  0  0  0  0  0
   11.2290   -0.1140   23.1280 C   0  0  0  0  0  0  0  0  0  0  0  0
    9.9970   -0.2720   22.4750 C   0  0  0  0  0  0  0  0  0  0  0  0
    8.8610    0.4010   22.9390 C   0  0  0  0  0  0  0  0  0  0  0  0
   11.3110    0.7190   24.2560 C   0  0  0  0  0  0  0  0  0  0  0  0
   10.1670    1.3770   24.7350 C   0  0  0  0  0  0  0  0  0  0  0  0
    7.6380    0.2880   22.2570 N   0  0  0  0  0  0  0  0  0  0  0  0
    8.9400    1.2140   24.0760 C   0  0  0  0  0  0  0  0  0  0  0  0
    7.4610    0.4360   20.9110 C   0  0  0  0  0  0  0  0  0  0  0  0
    8.3560    0.5420   20.0910 O   0  0  0  0  0  0  0  0  0  0  0  0
    6.1340    0.4920   20.5970 N   0  0  0  0  0  0  0  0  0  0  0  0
    5.5880    0.9660   19.3870 C   0  0  0  0  0  0  0  0  0  0  0  0
    6.1100    0.6080   18.1260 C   0  0  0  0  0  0  0  0  0  0  0  0
    4.5540    1.9060   19.4580 C   0  0  0  0  0  0  0  0  0  0  0  0
    5.6740    1.1460   16.9680 N   0  0  0  0  0  0  0  0  0  0  0  0
    4.1120    2.4730   18.2600 C   0  0  0  0  0  0  0  0  0  0  0  0
    4.7190    2.1020   17.0550 C   0  0  0  0  0  0  0  0  0  0  0  0
  2  1  1  6
  2  3  1  0
  2  5  1  0
  3  4  1  0
  5  8  2  0
  5  6  1  0
  6  7  2  0
  7 10  1  0
  7 11  1  0
  8  9  1  0
  9 11  2  0
 10 12  1  0
 12 13  2  0
 12 14  1  0
 14 15  1  0
 15 16  2  0
 15 17  1  0
 16 18  1  0
 17 19  2  0
 18 20  2  0
 19 20  1  0
M  END
