WPC2734_minimised.pdb
     RDKit          3D

 20 21  0  0  0  0  0  0  0  0999 V2000
   12.8280   -0.8030   21.2500 C   0  0  0  0  0  0  0  0  0  0  0  0
   12.8250   -0.5570   22.7740 C   0  0  0  0  0  0  0  0  0  0  0  0
   13.5390    0.7880   23.0330 C   0  0  0  0  0  0  0  0  0  0  0  0
   13.6270   -1.7020   23.4340 C   0  0  0  0  0  0  0  0  0  0  0  0
   11.4040   -0.4820   23.3650 C   0  0  0  0  0  0  0  0  0  0  0  0
   10.2390   -0.5170   22.5690 C   0  0  0  0  0  0  0  0  0  0  0  0
    8.9680   -0.3370   23.1420 C   0  0  0  0  0  0  0  0  0  0  0  0
   11.2490   -0.3050   24.7520 C   0  0  0  0  0  0  0  0  0  0  0  0
    9.9850   -0.1560   25.3370 C   0  0  0  0  0  0  0  0  0  0  0  0
    7.7930   -0.2860   22.3610 N   0  0  0  0  0  0  0  0  0  0  0  0
    8.8420   -0.1700   24.5280 C   0  0  0  0  0  0  0  0  0  0  0  0
    7.6420    0.1290   21.0640 C   0  0  0  0  0  0  0  0  0  0  0  0
    8.5320    0.4040   20.2800 O   0  0  0  0  0  0  0  0  0  0  0  0
    6.3160    0.2180   20.7500 N   0  0  0  0  0  0  0  0  0  0  0  0
    5.7640    0.7570   19.5690 C   0  0  0  0  0  0  0  0  0  0  0  0
    6.2510    0.4210   18.2880 C   0  0  0  0  0  0  0  0  0  0  0  0
    4.7360    1.7000   19.6840 C   0  0  0  0  0  0  0  0  0  0  0  0
    5.7730    0.9670   17.1500 N   0  0  0  0  0  0  0  0  0  0  0  0
    4.2580    2.2840   18.5060 C   0  0  0  0  0  0  0  0  0  0  0  0
    4.8180    1.9170   17.2760 C   0  0  0  0  0  0  0  0  0  0  0  0
  1  2  1  0
  2  5  1  0
  2  3  1  0
  2  4  1  0
  5  6  2  0
  5  8  1  0
  6  7  1  0
  7 11  2  0
  7 10  1  0
  8  9  2  0
  9 11  1  0
 10 12  1  0
 12 13  2  0
 12 14  1  0
 14 15  1  0
 15 16  2  0
 15 17  1  0
 16 18  1  0
 17 19  2  0
 18 20  2  0
 19 20  1  0
M  END
