WPC2447_minimised.pdb
     RDKit          3D

 18 19  0  0  0  0  0  0  0  0999 V2000
   13.2220    5.0620   22.6290 C   0  0  0  0  0  0  0  0  0  0  0  0
   11.8860    4.5710   23.7950 S   0  0  0  0  0  0  0  0  0  0  0  0
   11.5920    2.8520   23.4040 C   0  0  0  0  0  0  0  0  0  0  0  0
   12.6580    1.9490   23.2520 C   0  0  0  0  0  0  0  0  0  0  0  0
   12.4110    0.6120   22.9030 C   0  0  0  0  0  0  0  0  0  0  0  0
   11.0910    0.1700   22.7140 C   0  0  0  0  0  0  0  0  0  0  0  0
   10.0240    1.0670   22.8730 C   0  0  0  0  0  0  0  0  0  0  0  0
    8.7050    0.6590   22.5800 N   0  0  0  0  0  0  0  0  0  0  0  0
    8.2300    0.5290   21.3050 C   0  0  0  0  0  0  0  0  0  0  0  0
    8.9430    0.5800   20.3260 O   0  0  0  0  0  0  0  0  0  0  0  0
    6.8700    0.4010   21.2050 N   0  0  0  0  0  0  0  0  0  0  0  0
    6.1410    0.6830   20.0220 C   0  0  0  0  0  0  0  0  0  0  0  0
    5.1110    1.6290   20.0920 C   0  0  0  0  0  0  0  0  0  0  0  0
    4.5250    2.0460   18.8920 C   0  0  0  0  0  0  0  0  0  0  0  0
    4.9860    1.5210   17.6770 C   0  0  0  0  0  0  0  0  0  0  0  0
    5.9310    0.5580   17.5980 N   0  0  0  0  0  0  0  0  0  0  0  0
    6.5080    0.1680   18.7570 C   0  0  0  0  0  0  0  0  0  0  0  0
   10.2760    2.4050   23.2170 C   0  0  0  0  0  0  0  0  0  0  0  0
  1  2  1  0
  2  3  1  0
  3 18  2  0
  3  4  1  0
  4  5  2  0
  5  6  1  0
  6  7  2  0
  7  8  1  0
  7 18  1  0
  8  9  1  0
  9 10  2  0
  9 11  1  0
 11 12  1  0
 12 13  2  0
 12 17  1  0
 13 14  1  0
 14 15  2  0
 15 16  1  0
 16 17  2  0
M  END
