WPC2716_minimised.pdb
     RDKit          3D

 21 22  0  0  0  0  0  0  0  0999 V2000
   16.3540    1.4980   18.8390 C   0  0  0  0  0  0  0  0  0  0  0  0
   16.0250    0.5080   19.9620 C   0  0  0  0  0  0  0  0  0  0  0  0
   14.7450   -0.3360   19.7880 C   0  0  0  0  0  0  0  0  0  0  0  0
   13.5550    0.2010   20.6050 C   0  0  0  0  0  0  0  0  0  0  0  0
   13.7090   -0.2840   22.3660 S   0  0  0  0  0  0  0  0  0  0  0  0
   12.0970   -0.0220   23.0900 C   0  0  0  0  0  0  0  0  0  0  0  0
   10.8990   -0.1650   22.3650 C   0  0  0  0  0  0  0  0  0  0  0  0
    9.6590    0.0030   23.0080 C   0  0  0  0  0  0  0  0  0  0  0  0
   12.0410    0.2600   24.4610 C   0  0  0  0  0  0  0  0  0  0  0  0
   10.8060    0.3800   25.1160 C   0  0  0  0  0  0  0  0  0  0  0  0
    8.4290   -0.1030   22.3240 N   0  0  0  0  0  0  0  0  0  0  0  0
    9.6170    0.2620   24.3850 C   0  0  0  0  0  0  0  0  0  0  0  0
    8.1390    0.2370   21.0310 C   0  0  0  0  0  0  0  0  0  0  0  0
    8.9440    0.5600   20.1780 O   0  0  0  0  0  0  0  0  0  0  0  0
    6.7910    0.1970   20.8100 N   0  0  0  0  0  0  0  0  0  0  0  0
    6.1090    0.6820   19.6720 C   0  0  0  0  0  0  0  0  0  0  0  0
    6.4670    0.3050   18.3600 C   0  0  0  0  0  0  0  0  0  0  0  0
    5.0730    1.6040   19.8580 C   0  0  0  0  0  0  0  0  0  0  0  0
    5.8450    0.7810   17.2600 N   0  0  0  0  0  0  0  0  0  0  0  0
    4.4530    2.1250   18.7170 C   0  0  0  0  0  0  0  0  0  0  0  0
    4.8790    1.7090   17.4480 C   0  0  0  0  0  0  0  0  0  0  0  0
  1  2  1  0
  2  3  1  0
  3  4  1  0
  4  5  1  0
  5  6  1  0
  6  9  2  0
  6  7  1  0
  7  8  2  0
  8 11  1  0
  8 12  1  0
  9 10  1  0
 10 12  2  0
 11 13  1  0
 13 14  2  0
 13 15  1  0
 15 16  1  0
 16 17  2  0
 16 18  1  0
 17 19  1  0
 18 20  2  0
 19 21  2  0
 20 21  1  0
M  END
