WPC2176_minimised.pdb
     RDKit          3D

 22 23  0  0  0  0  0  0  0  0999 V2000
   11.9270    5.8840   23.8210 O   0  0  0  0  0  0  0  0  0  0  0  0
   12.3090    5.0540   23.0180 C   0  0  0  0  0  0  0  0  0  0  0  0
   13.1540    5.3680   22.0220 O   0  0  0  0  0  0  0  0  0  0  0  0
   12.1470    3.5500   23.1890 C   0  0  0  0  0  0  0  0  0  0  0  0
   11.1860    3.1310   24.3230 C   0  0  0  0  0  0  0  0  0  0  0  0
   11.3670    1.6460   24.7050 C   0  0  0  0  0  0  0  0  0  0  0  0
   11.0360    0.6780   23.5920 C   0  0  0  0  0  0  0  0  0  0  0  0
   12.0580    0.0120   22.8910 C   0  0  0  0  0  0  0  0  0  0  0  0
   11.7340   -0.9480   21.9190 C   0  0  0  0  0  0  0  0  0  0  0  0
   10.3870   -1.2060   21.6250 C   0  0  0  0  0  0  0  0  0  0  0  0
    9.3730   -0.4930   22.2760 C   0  0  0  0  0  0  0  0  0  0  0  0
    8.0360   -0.6000   21.8560 N   0  0  0  0  0  0  0  0  0  0  0  0
    7.6290   -0.2690   20.5960 C   0  0  0  0  0  0  0  0  0  0  0  0
    8.3880   -0.0870   19.6620 O   0  0  0  0  0  0  0  0  0  0  0  0
    6.2770   -0.1000   20.5000 N   0  0  0  0  0  0  0  0  0  0  0  0
    5.6270    0.5270   19.4140 C   0  0  0  0  0  0  0  0  0  0  0  0
    4.6830    1.5280   19.6720 C   0  0  0  0  0  0  0  0  0  0  0  0
    4.1710    2.2370   18.5780 C   0  0  0  0  0  0  0  0  0  0  0  0
    4.6320    1.9450   17.2860 C   0  0  0  0  0  0  0  0  0  0  0  0
    5.5060    0.9470   17.0250 N   0  0  0  0  0  0  0  0  0  0  0  0
    5.9930    0.2620   18.0770 C   0  0  0  0  0  0  0  0  0  0  0  0
    9.6940    0.4300   23.2750 C   0  0  0  0  0  0  0  0  0  0  0  0
  1  2  2  0
  2  3  1  0
  2  4  1  0
  4  5  1  0
  5  6  1  0
  6  7  1  0
  7 22  2  0
  7  8  1  0
  8  9  2  0
  9 10  1  0
 10 11  2  0
 11 12  1  0
 11 22  1  0
 12 13  1  0
 13 14  2  0
 13 15  1  0
 15 16  1  0
 16 17  2  0
 16 21  1  0
 17 18  1  0
 18 19  2  0
 19 20  1  0
 20 21  2  0
M  END
