WPC2125_minimised.pdb
     RDKit          3D

 23 25  0  0  0  0  0  0  0  0999 V2000
    8.6500   -0.0740   19.6360 O   0  0  0  0  0  0  0  0  0  0  0  0
    8.0080   -0.2400   20.6530 C   0  0  0  0  0  0  0  0  0  0  0  0
    6.6430   -0.1330   20.6840 N   0  0  0  0  0  0  0  0  0  0  0  0
    5.8700    0.4120   19.6290 C   0  0  0  0  0  0  0  0  0  0  0  0
    4.9300    1.4090   19.9190 C   0  0  0  0  0  0  0  0  0  0  0  0
    4.3010    2.0450   18.8410 C   0  0  0  0  0  0  0  0  0  0  0  0
    4.6420    1.6850   17.5290 C   0  0  0  0  0  0  0  0  0  0  0  0
    5.5060    0.6870   17.2410 N   0  0  0  0  0  0  0  0  0  0  0  0
    6.1120    0.0770   18.2790 C   0  0  0  0  0  0  0  0  0  0  0  0
    8.5790   -0.4970   21.8660 N   0  0  0  0  0  0  0  0  0  0  0  0
    9.9630   -0.3920   22.1120 C   0  0  0  0  0  0  0  0  0  0  0  0
   10.8410   -1.4070   21.7110 C   0  0  0  0  0  0  0  0  0  0  0  0
   12.2230   -1.2450   21.8870 C   0  0  0  0  0  0  0  0  0  0  0  0
   12.7210   -0.0760   22.4810 C   0  0  0  0  0  0  0  0  0  0  0  0
   11.8460    0.9420   22.9030 C   0  0  0  0  0  0  0  0  0  0  0  0
   12.4400    2.1600   23.6040 C   0  0  0  0  0  0  0  0  0  0  0  0
   11.5960    3.3630   23.6670 N   0  0  0  0  0  0  0  0  0  0  0  0
   10.4530    3.4980   24.4210 C   0  0  0  0  0  0  0  0  0  0  0  0
    9.8390    4.5840   24.0810 N   0  0  0  0  0  0  0  0  0  0  0  0
   10.5770    5.1670   23.0860 N   0  0  0  0  0  0  0  0  0  0  0  0
   11.7330    4.4630   22.8590 C   0  0  0  0  0  0  0  0  0  0  0  0
   12.9490    4.8370   21.7830 S   0  0  0  0  0  0  0  0  0  0  0  0
   10.4610    0.7760   22.7000 C   0  0  0  0  0  0  0  0  0  0  0  0
  1  2  2  0
  2  3  1  0
  2 10  1  0
  3  4  1  0
  4  5  2  0
  4  9  1  0
  5  6  1  0
  6  7  2  0
  7  8  1  0
  8  9  2  0
 10 11  1  0
 11 23  1  0
 11 12  2  0
 12 13  1  0
 13 14  2  0
 14 15  1  0
 15 16  1  0
 15 23  2  0
 16 17  1  0
 17 18  1  0
 17 21  1  0
 18 19  2  0
 19 20  1  0
 20 21  1  0
 21 22  2  0
M  END
