WPC2184_minimised.pdb
     RDKit          3D

 24 26  0  0  0  0  0  0  0  0999 V2000
    8.2850   -0.1610   19.7070 O   0  0  0  0  0  0  0  0  0  0  0  0
    7.4820   -0.3730   20.5970 C   0  0  0  0  0  0  0  0  0  0  0  0
    6.1500   -0.1040   20.4630 N   0  0  0  0  0  0  0  0  0  0  0  0
    5.5650    0.5740   19.3690 C   0  0  0  0  0  0  0  0  0  0  0  0
    4.6220    1.5800   19.6120 C   0  0  0  0  0  0  0  0  0  0  0  0
    4.1540    2.3110   18.5120 C   0  0  0  0  0  0  0  0  0  0  0  0
    4.6560    2.0370   17.2320 C   0  0  0  0  0  0  0  0  0  0  0  0
    5.5330    1.0390   16.9850 N   0  0  0  0  0  0  0  0  0  0  0  0
    5.9780    0.3330   18.0410 C   0  0  0  0  0  0  0  0  0  0  0  0
    7.8050   -0.8580   21.8350 N   0  0  0  0  0  0  0  0  0  0  0  0
    9.1230   -0.8990   22.3300 C   0  0  0  0  0  0  0  0  0  0  0  0
   10.1640   -1.4080   21.5440 C   0  0  0  0  0  0  0  0  0  0  0  0
   11.5010   -1.1760   21.8930 C   0  0  0  0  0  0  0  0  0  0  0  0
   11.7900   -0.4640   23.0640 C   0  0  0  0  0  0  0  0  0  0  0  0
   10.7490   -0.0730   23.9210 C   0  0  0  0  0  0  0  0  0  0  0  0
   11.0530    0.6450   25.2120 C   0  0  0  0  0  0  0  0  0  0  0  0
   10.1560    2.2460   25.2660 S   0  0  0  0  0  0  0  0  0  0  0  0
   11.1400    3.2570   24.2780 C   0  0  0  0  0  0  0  0  0  0  0  0
   12.2800    2.9990   23.7490 N   0  0  0  0  0  0  0  0  0  0  0  0
   12.9880    4.0450   22.9830 C   0  0  0  0  0  0  0  0  0  0  0  0
   12.7080    5.4230   23.6100 C   0  0  0  0  0  0  0  0  0  0  0  0
   11.1900    5.6660   23.6420 C   0  0  0  0  0  0  0  0  0  0  0  0
   10.5570    4.5070   24.2670 N   0  0  0  0  0  0  0  0  0  0  0  0
    9.4130   -0.2820   23.5480 C   0  0  0  0  0  0  0  0  0  0  0  0
  1  2  2  0
  2  3  1  0
  2 10  1  0
  3  4  1  0
  4  5  2  0
  4  9  1  0
  5  6  1  0
  6  7  2  0
  7  8  1  0
  8  9  2  0
 10 11  1  0
 11 24  1  0
 11 12  2  0
 12 13  1  0
 13 14  2  0
 14 15  1  0
 15 16  1  0
 15 24  2  0
 16 17  1  0
 17 18  1  0
 18 19  2  0
 18 23  1  0
 19 20  1  0
 20 21  1  0
 21 22  1  0
 22 23  1  0
M  END
