WPC2908_minimised.pdb
     RDKit          3D

 22 23  0  0  1  0  0  0  0  0999 V2000
   15.9530    0.2240   19.9430 C   0  0  0  0  0  0  0  0  0  0  0  0
   15.0400   -0.8190   20.5040 C   0  0  0  0  0  0  0  0  0  0  0  0
   15.3160   -2.0580   20.4560 N   0  0  0  0  0  0  0  0  0  0  0  0
   13.8500   -0.3480   20.9820 N   0  0  0  0  0  0  0  0  0  0  0  0
   13.3320   -0.5800   22.3280 C   0  0  2  0  0  0  0  0  0  0  0  0
   12.7230   -1.9880   22.4280 C   0  0  0  0  0  0  0  0  0  0  0  0
   12.3330    0.5240   22.6680 C   0  0  0  0  0  0  0  0  0  0  0  0
   10.9490    0.3510   22.4650 C   0  0  0  0  0  0  0  0  0  0  0  0
   10.0420    1.3760   22.7670 C   0  0  0  0  0  0  0  0  0  0  0  0
   12.7980    1.7620   23.1500 C   0  0  0  0  0  0  0  0  0  0  0  0
   11.8940    2.8030   23.4230 C   0  0  0  0  0  0  0  0  0  0  0  0
    8.6660    1.1880   22.5050 N   0  0  0  0  0  0  0  0  0  0  0  0
   10.5140    2.6060   23.2470 C   0  0  0  0  0  0  0  0  0  0  0  0
    8.1550    0.9280   21.2630 C   0  0  0  0  0  0  0  0  0  0  0  0
    8.8530    0.7810   20.2830 O   0  0  0  0  0  0  0  0  0  0  0  0
    6.7890    0.8790   21.1900 N   0  0  0  0  0  0  0  0  0  0  0  0
    6.0410    1.0230   19.9930 C   0  0  0  0  0  0  0  0  0  0  0  0
    6.4010    0.3970   18.7740 C   0  0  0  0  0  0  0  0  0  0  0  0
    4.9810    1.9380   19.9930 C   0  0  0  0  0  0  0  0  0  0  0  0
    5.7990    0.6650   17.5930 N   0  0  0  0  0  0  0  0  0  0  0  0
    4.3670    2.2260   18.7710 C   0  0  0  0  0  0  0  0  0  0  0  0
    4.8330    1.6110   17.6020 C   0  0  0  0  0  0  0  0  0  0  0  0
  1  2  1  0
  2  3  2  0
  2  4  1  0
  4  5  1  0
  5  6  1  6
  5  7  1  0
  7 10  2  0
  7  8  1  0
  8  9  2  0
  9 12  1  0
  9 13  1  0
 10 11  1  0
 11 13  2  0
 12 14  1  0
 14 15  2  0
 14 16  1  0
 16 17  1  0
 17 18  2  0
 17 19  1  0
 18 20  1  0
 19 21  2  0
 20 22  2  0
 21 22  1  0
M  END
