WPC2903_minimised.pdb
     RDKit          3D

 17 18  0  0  0  0  0  0  0  0999 V2000
   13.3110   -0.6050   21.3760 N   0  0  0  0  0  0  0  0  0  0  0  0
   12.2940   -0.0530   22.1190 C   0  0  0  0  0  0  0  0  0  0  0  0
   10.9760   -0.4510   21.8810 C   0  0  0  0  0  0  0  0  0  0  0  0
    9.9140    0.1900   22.5320 C   0  0  0  0  0  0  0  0  0  0  0  0
   12.5620    0.9660   23.0410 C   0  0  0  0  0  0  0  0  0  0  0  0
   11.5030    1.5900   23.7200 C   0  0  0  0  0  0  0  0  0  0  0  0
    8.5770   -0.0880   22.1790 N   0  0  0  0  0  0  0  0  0  0  0  0
   10.1790    1.1990   23.4680 C   0  0  0  0  0  0  0  0  0  0  0  0
    8.0870   -0.0300   20.9020 C   0  0  0  0  0  0  0  0  0  0  0  0
    8.7790    0.0210   19.9030 O   0  0  0  0  0  0  0  0  0  0  0  0
    6.7200    0.0340   20.8470 N   0  0  0  0  0  0  0  0  0  0  0  0
    5.9820    0.5120   19.7360 C   0  0  0  0  0  0  0  0  0  0  0  0
    6.2690    0.1210   18.4090 C   0  0  0  0  0  0  0  0  0  0  0  0
    5.0140    1.5000   19.9530 C   0  0  0  0  0  0  0  0  0  0  0  0
    5.6740    0.6670   17.3280 N   0  0  0  0  0  0  0  0  0  0  0  0
    4.4020    2.0740   18.8320 C   0  0  0  0  0  0  0  0  0  0  0  0
    4.7830    1.6610   17.5480 C   0  0  0  0  0  0  0  0  0  0  0  0
  1  2  1  0
  2  3  2  0
  2  5  1  0
  3  4  1  0
  4  8  2  0
  4  7  1  0
  5  6  2  0
  6  8  1  0
  7  9  1  0
  9 10  2  0
  9 11  1  0
 11 12  1  0
 12 13  2  0
 12 14  1  0
 13 15  1  0
 14 16  2  0
 15 17  2  0
 16 17  1  0
M  END
