WPC2742_minimised.pdb
     RDKit          3D

 22 24  0  0  1  0  0  0  0  0999 V2000
   14.0330   -1.1720   20.5540 O   0  0  0  0  0  0  0  0  0  0  0  0
   13.8860   -0.2840   21.3730 C   0  0  0  0  0  0  0  0  0  0  0  0
   14.6310    0.9730   21.4380 C   0  0  0  0  0  0  0  0  0  0  0  0
   14.2540    1.6520   22.5200 C   0  0  0  0  0  0  0  0  0  0  0  0
   13.1790    0.9120   23.2640 C   0  0  1  0  0  0  0  0  0  0  0  0
   11.8300    1.6250   23.2430 C   0  0  0  0  0  0  0  0  0  0  0  0
   10.6480    0.8990   23.0020 C   0  0  0  0  0  0  0  0  0  0  0  0
    9.4130    1.5550   22.9360 C   0  0  0  0  0  0  0  0  0  0  0  0
   11.7460    3.0210   23.4320 C   0  0  0  0  0  0  0  0  0  0  0  0
   10.5060    3.6750   23.3780 C   0  0  0  0  0  0  0  0  0  0  0  0
   13.1100   -0.3210   22.4940 O   0  0  0  0  0  0  0  0  0  0  0  0
    8.2560    0.8510   22.5510 N   0  0  0  0  0  0  0  0  0  0  0  0
    9.3380    2.9410   23.1290 C   0  0  0  0  0  0  0  0  0  0  0  0
    7.9560    0.5880   21.2450 C   0  0  0  0  0  0  0  0  0  0  0  0
    8.7570    0.6690   20.3350 O   0  0  0  0  0  0  0  0  0  0  0  0
    6.6290    0.3190   21.0490 N   0  0  0  0  0  0  0  0  0  0  0  0
    5.9460    0.6460   19.8560 C   0  0  0  0  0  0  0  0  0  0  0  0
    6.3660    0.1940   18.5850 C   0  0  0  0  0  0  0  0  0  0  0  0
    4.9120    1.5870   19.9360 C   0  0  0  0  0  0  0  0  0  0  0  0
    5.8200    0.6310   17.4280 N   0  0  0  0  0  0  0  0  0  0  0  0
    4.3670    2.0600   18.7390 C   0  0  0  0  0  0  0  0  0  0  0  0
    4.8650    1.5850   17.5190 C   0  0  0  0  0  0  0  0  0  0  0  0
  1  2  2  0
  2 11  1  0
  2  3  1  0
  3  4  2  0
  4  5  1  0
  5  6  1  6
  5 11  1  0
  6  9  1  0
  6  7  2  0
  7  8  1  0
  8 12  1  0
  8 13  2  0
  9 10  2  0
 10 13  1  0
 12 14  1  0
 14 15  2  0
 14 16  1  0
 16 17  1  0
 17 18  2  0
 17 19  1  0
 18 20  1  0
 19 21  2  0
 20 22  2  0
 21 22  1  0
M  END
