WPC2620_minimised.pdb
     RDKit          3D

 24 26  0  0  0  0  0  0  0  0999 V2000
   13.4600    5.2260   22.1200 C   0  0  0  0  0  0  0  0  0  0  0  0
   12.6100    4.3190   22.9630 C   0  0  0  0  0  0  0  0  0  0  0  0
   12.9530    3.0730   23.3760 C   0  0  0  0  0  0  0  0  0  0  0  0
   11.8260    2.6470   24.0590 N   0  0  0  0  0  0  0  0  0  0  0  0
   11.6300    1.3160   24.6260 C   0  0  0  0  0  0  0  0  0  0  0  0
   11.1920    0.3250   23.5750 C   0  0  0  0  0  0  0  0  0  0  0  0
   12.1440   -0.3630   22.8030 C   0  0  0  0  0  0  0  0  0  0  0  0
   11.7270   -1.2900   21.8380 C   0  0  0  0  0  0  0  0  0  0  0  0
   10.3560   -1.4870   21.6150 C   0  0  0  0  0  0  0  0  0  0  0  0
    9.4090   -0.7330   22.3200 C   0  0  0  0  0  0  0  0  0  0  0  0
    8.0560   -0.7450   21.9320 N   0  0  0  0  0  0  0  0  0  0  0  0
    7.6400   -0.3970   20.6770 C   0  0  0  0  0  0  0  0  0  0  0  0
    8.3870   -0.2580   19.7270 O   0  0  0  0  0  0  0  0  0  0  0  0
    6.2940   -0.1690   20.6010 N   0  0  0  0  0  0  0  0  0  0  0  0
    5.6460    0.4620   19.5120 C   0  0  0  0  0  0  0  0  0  0  0  0
    4.7150    1.4750   19.7710 C   0  0  0  0  0  0  0  0  0  0  0  0
    4.1980    2.1790   18.6760 C   0  0  0  0  0  0  0  0  0  0  0  0
    4.6370    1.8670   17.3810 C   0  0  0  0  0  0  0  0  0  0  0  0
    5.4960    0.8570   17.1190 N   0  0  0  0  0  0  0  0  0  0  0  0
    5.9930    0.1810   18.1730 C   0  0  0  0  0  0  0  0  0  0  0  0
    9.8240    0.1530   23.3190 C   0  0  0  0  0  0  0  0  0  0  0  0
   10.8180    3.5720   24.0820 N   0  0  0  0  0  0  0  0  0  0  0  0
   11.2950    4.5800   23.3990 C   0  0  0  0  0  0  0  0  0  0  0  0
   10.5140    5.6130   23.0270 N   0  0  0  0  0  0  0  0  0  0  0  0
  1  2  1  0
  2  3  2  0
  2 23  1  0
  3  4  1  0
  4 22  1  0
  4  5  1  0
  5  6  1  0
  6 21  1  0
  6  7  2  0
  7  8  1  0
  8  9  2  0
  9 10  1  0
 10 11  1  0
 10 21  2  0
 11 12  1  0
 12 13  2  0
 12 14  1  0
 14 15  1  0
 15 16  2  0
 15 20  1  0
 16 17  1  0
 17 18  2  0
 18 19  1  0
 19 20  2  0
 22 23  2  0
 23 24  1  0
M  END
