WPC2847_minimised.pdb
     RDKit          3D

 21 23  0  0  1  0  0  0  0  0999 V2000
   13.7740    0.2980   21.6140 C   0  0  0  0  0  0  0  0  0  0  0  0
   13.3300   -1.1600   21.6100 C   0  0  0  0  0  0  0  0  0  0  0  0
   12.2650   -1.2870   23.0860 S   0  0  0  0  0  0  0  0  0  0  0  0
   12.6970    0.3930   23.7340 C   0  0  2  0  0  0  0  0  0  0  0  0
   11.6030    1.4240   23.4570 C   0  0  0  0  0  0  0  0  0  0  0  0
   10.2660    1.0060   23.3190 C   0  0  0  0  0  0  0  0  0  0  0  0
    9.2660    1.9180   22.9810 C   0  0  0  0  0  0  0  0  0  0  0  0
   11.9040    2.7940   23.2980 C   0  0  0  0  0  0  0  0  0  0  0  0
   10.8870    3.7200   23.0140 C   0  0  0  0  0  0  0  0  0  0  0  0
   13.9530    0.6700   23.0170 N   0  0  0  0  0  0  0  0  0  0  0  0
    8.0090    1.4300   22.5890 N   0  0  0  0  0  0  0  0  0  0  0  0
    9.5650    3.2800   22.8500 C   0  0  0  0  0  0  0  0  0  0  0  0
    7.7340    1.0600   21.3020 C   0  0  0  0  0  0  0  0  0  0  0  0
    8.5660    1.0120   20.4150 O   0  0  0  0  0  0  0  0  0  0  0  0
    6.4080    0.8050   21.0910 N   0  0  0  0  0  0  0  0  0  0  0  0
    5.7670    0.9990   19.8470 C   0  0  0  0  0  0  0  0  0  0  0  0
    6.2530    0.4520   18.6370 C   0  0  0  0  0  0  0  0  0  0  0  0
    4.7090    1.9130   19.8070 C   0  0  0  0  0  0  0  0  0  0  0  0
    5.7600    0.7880   17.4240 N   0  0  0  0  0  0  0  0  0  0  0  0
    4.2170    2.2800   18.5530 C   0  0  0  0  0  0  0  0  0  0  0  0
    4.7920    1.7330   17.4000 C   0  0  0  0  0  0  0  0  0  0  0  0
  1  2  1  0
  1 10  1  0
  2  3  1  0
  3  4  1  0
  4 10  1  0
  4  5  1  6
  5  8  1  0
  5  6  2  0
  6  7  1  0
  7 11  1  0
  7 12  2  0
  8  9  2  0
  9 12  1  0
 11 13  1  0
 13 14  2  0
 13 15  1  0
 15 16  1  0
 16 17  2  0
 16 18  1  0
 17 19  1  0
 18 20  2  0
 19 21  2  0
 20 21  1  0
M  END
