WPC2533_minimised.pdb
     RDKit          3D

 20 21  0  0  0  0  0  0  0  0999 V2000
    8.7170    0.2090   19.9390 O   0  0  0  0  0  0  0  0  0  0  0  0
    8.0290    0.0670   20.9280 C   0  0  0  0  0  0  0  0  0  0  0  0
    6.6630    0.0200   20.8690 N   0  0  0  0  0  0  0  0  0  0  0  0
    5.9160    0.4770   19.7560 C   0  0  0  0  0  0  0  0  0  0  0  0
    4.9440    1.4630   19.9600 C   0  0  0  0  0  0  0  0  0  0  0  0
    4.3490    2.0370   18.8300 C   0  0  0  0  0  0  0  0  0  0  0  0
    4.7500    1.6240   17.5520 C   0  0  0  0  0  0  0  0  0  0  0  0
    5.6470    0.6340   17.3440 N   0  0  0  0  0  0  0  0  0  0  0  0
    6.2260    0.0870   18.4330 C   0  0  0  0  0  0  0  0  0  0  0  0
    8.5370    0.0160   22.1940 N   0  0  0  0  0  0  0  0  0  0  0  0
    9.8380    0.4460   22.5210 C   0  0  0  0  0  0  0  0  0  0  0  0
   10.9680   -0.3080   22.1670 C   0  0  0  0  0  0  0  0  0  0  0  0
   12.2540    0.1810   22.4580 C   0  0  0  0  0  0  0  0  0  0  0  0
   12.4060    1.4270   23.0920 C   0  0  0  0  0  0  0  0  0  0  0  0
   11.2710    2.1950   23.4090 C   0  0  0  0  0  0  0  0  0  0  0  0
   11.3960    3.8040   24.1580 S   0  0  0  0  0  0  0  0  0  0  0  0
   12.6980    4.6860   23.2030 C   0  0  0  0  0  0  0  0  0  0  0  0
   12.9880    5.8480   23.8190 F   0  0  0  0  0  0  0  0  0  0  0  0
   12.2980    5.0070   21.9610 F   0  0  0  0  0  0  0  0  0  0  0  0
    9.9930    1.6930   23.1370 C   0  0  0  0  0  0  0  0  0  0  0  0
  1  2  2  0
  2 10  1  0
  2  3  1  0
  3  4  1  0
  4  5  2  0
  4  9  1  0
  5  6  1  0
  6  7  2  0
  7  8  1  0
  8  9  2  0
 10 11  1  0
 11 12  2  0
 11 20  1  0
 12 13  1  0
 13 14  2  0
 14 15  1  0
 15 16  1  0
 15 20  2  0
 16 17  1  0
 17 18  1  0
 17 19  1  0
M  END
