WPC2025_minimised.pdb
     RDKit          3D

 24 25  0  0  0  0  0  0  0  0999 V2000
    9.3770    4.7110   22.9150 N   0  0  0  0  0  0  0  0  0  0  0  0
    9.9970    5.8500   23.2840 C   0  0  0  0  0  0  0  0  0  0  0  0
    9.4270    6.9020   23.2470 O   0  0  0  0  0  0  0  0  0  0  0  0
   11.2660    5.8230   23.7410 N   0  0  0  0  0  0  0  0  0  0  0  0
   12.2750    4.9180   23.7940 C   0  0  0  0  0  0  0  0  0  0  0  0
   13.2860    5.2490   24.3650 O   0  0  0  0  0  0  0  0  0  0  0  0
   12.1500    3.5410   23.1850 C   0  0  0  0  0  0  0  0  0  0  0  0
   11.2700    2.4400   24.3590 S   0  0  0  0  0  0  0  0  0  0  0  0
   11.1530    0.9530   23.4160 C   0  0  0  0  0  0  0  0  0  0  0  0
   12.2940    0.3000   22.9250 C   0  0  0  0  0  0  0  0  0  0  0  0
   12.1470   -0.8460   22.1240 C   0  0  0  0  0  0  0  0  0  0  0  0
   10.8600   -1.3130   21.8060 C   0  0  0  0  0  0  0  0  0  0  0  0
    9.7280   -0.6430   22.2900 C   0  0  0  0  0  0  0  0  0  0  0  0
    8.4390   -0.9660   21.8350 N   0  0  0  0  0  0  0  0  0  0  0  0
    7.9440   -0.4620   20.6660 C   0  0  0  0  0  0  0  0  0  0  0  0
    8.6350    0.0590   19.8140 O   0  0  0  0  0  0  0  0  0  0  0  0
    6.5830   -0.5160   20.5670 N   0  0  0  0  0  0  0  0  0  0  0  0
    5.8610    0.1690   19.5610 C   0  0  0  0  0  0  0  0  0  0  0  0
    4.9390    1.1610   19.9170 C   0  0  0  0  0  0  0  0  0  0  0  0
    4.3810    1.9300   18.8850 C   0  0  0  0  0  0  0  0  0  0  0  0
    4.7670    1.6960   17.5560 C   0  0  0  0  0  0  0  0  0  0  0  0
    5.6320    0.7180   17.2060 N   0  0  0  0  0  0  0  0  0  0  0  0
    6.1730   -0.0150   18.1980 C   0  0  0  0  0  0  0  0  0  0  0  0
    9.8760    0.4800   23.1070 C   0  0  0  0  0  0  0  0  0  0  0  0
  1  2  1  0
  2  3  2  0
  2  4  1  0
  4  5  1  0
  5  6  2  0
  5  7  1  0
  7  8  1  0
  8  9  1  0
  9 24  2  0
  9 10  1  0
 10 11  2  0
 11 12  1  0
 12 13  2  0
 13 14  1  0
 13 24  1  0
 14 15  1  0
 15 16  2  0
 15 17  1  0
 17 18  1  0
 18 19  2  0
 18 23  1  0
 19 20  1  0
 20 21  2  0
 21 22  1  0
 22 23  2  0
M  END
