WPC2312_minimised.pdb
     RDKit          3D

 23 24  0  0  1  0  0  0  0  0999 V2000
    9.0260    5.6380   22.6280 C   0  0  0  0  0  0  0  0  0  0  0  0
    9.5290    4.3490   23.0310 O   0  0  0  0  0  0  0  0  0  0  0  0
   10.6230    4.3430   23.9810 C   0  0  1  0  0  0  0  0  0  0  0  0
   10.7440    2.9310   24.5930 C   0  0  0  0  0  0  0  0  0  0  0  0
   10.8040    1.7760   23.6090 C   0  0  0  0  0  0  0  0  0  0  0  0
   12.0290    1.2390   23.1720 C   0  0  0  0  0  0  0  0  0  0  0  0
   12.0430    0.1250   22.3130 C   0  0  0  0  0  0  0  0  0  0  0  0
   10.8320   -0.4550   21.8930 C   0  0  0  0  0  0  0  0  0  0  0  0
    9.6130    0.0820   22.3340 C   0  0  0  0  0  0  0  0  0  0  0  0
    8.3740   -0.4130   21.8840 N   0  0  0  0  0  0  0  0  0  0  0  0
    7.8990   -0.1860   20.6260 C   0  0  0  0  0  0  0  0  0  0  0  0
    8.5970    0.1150   19.6790 O   0  0  0  0  0  0  0  0  0  0  0  0
    6.5340   -0.2260   20.5450 N   0  0  0  0  0  0  0  0  0  0  0  0
    5.8120    0.3780   19.4890 C   0  0  0  0  0  0  0  0  0  0  0  0
    4.8820    1.3820   19.7870 C   0  0  0  0  0  0  0  0  0  0  0  0
    4.3260    2.0930   18.7150 C   0  0  0  0  0  0  0  0  0  0  0  0
    4.7260    1.7950   17.4040 C   0  0  0  0  0  0  0  0  0  0  0  0
    5.5920    0.7990   17.1090 N   0  0  0  0  0  0  0  0  0  0  0  0
    6.1280    0.1170   18.1400 C   0  0  0  0  0  0  0  0  0  0  0  0
    9.6040    1.1910   23.1860 C   0  0  0  0  0  0  0  0  0  0  0  0
   11.9850    4.8030   23.4290 C   0  0  0  0  0  0  0  0  0  0  0  0
   12.9030    5.1140   24.1650 O   0  0  0  0  0  0  0  0  0  0  0  0
   12.0990    4.9190   22.0970 O   0  0  0  0  0  0  0  0  0  0  0  0
  1  2  1  0
  2  3  1  0
  3 21  1  0
  3  4  1  6
  4  5  1  0
  5 20  2  0
  5  6  1  0
  6  7  2  0
  7  8  1  0
  8  9  2  0
  9 10  1  0
  9 20  1  0
 10 11  1  0
 11 12  2  0
 11 13  1  0
 13 14  1  0
 14 15  2  0
 14 19  1  0
 15 16  1  0
 16 17  2  0
 17 18  1  0
 18 19  2  0
 21 22  2  0
 21 23  1  0
M  END
