WPC2463_minimised.pdb
     RDKit          3D

 24 26  0  0  1  0  0  0  0  0999 V2000
    9.8460    3.5350   23.3340 C   0  0  0  0  0  0  0  0  0  0  0  0
   11.2040    4.1730   23.4960 C   0  0  1  0  0  0  0  0  0  0  0  0
   12.4630    3.6240   23.0860 C   0  0  0  0  0  0  0  0  0  0  0  0
   12.9330    2.0790   22.3540 S   0  0  0  0  0  0  0  0  0  0  0  0
   11.6820    1.0570   23.0940 C   0  0  0  0  0  0  0  0  0  0  0  0
   11.8030    0.6350   24.4210 C   0  0  0  0  0  0  0  0  0  0  0  0
   10.7640   -0.0890   25.0260 C   0  0  0  0  0  0  0  0  0  0  0  0
    9.6190   -0.4200   24.2830 C   0  0  0  0  0  0  0  0  0  0  0  0
    9.5160   -0.0470   22.9320 C   0  0  0  0  0  0  0  0  0  0  0  0
    8.2910   -0.2980   22.2660 N   0  0  0  0  0  0  0  0  0  0  0  0
    7.9430   -0.0290   20.9680 C   0  0  0  0  0  0  0  0  0  0  0  0
    8.7080    0.2820   20.0770 O   0  0  0  0  0  0  0  0  0  0  0  0
    6.5910   -0.0800   20.7800 N   0  0  0  0  0  0  0  0  0  0  0  0
    5.9210    0.4700   19.6640 C   0  0  0  0  0  0  0  0  0  0  0  0
    4.9430    1.4490   19.8800 C   0  0  0  0  0  0  0  0  0  0  0  0
    4.3950    2.0790   18.7570 C   0  0  0  0  0  0  0  0  0  0  0  0
    4.8400    1.7230   17.4760 C   0  0  0  0  0  0  0  0  0  0  0  0
    5.7480    0.7460   17.2580 N   0  0  0  0  0  0  0  0  0  0  0  0
    6.2920    0.1520   18.3400 C   0  0  0  0  0  0  0  0  0  0  0  0
   10.5690    0.6740   22.3390 C   0  0  0  0  0  0  0  0  0  0  0  0
   13.4430    4.5080   23.2540 N   0  0  0  0  0  0  0  0  0  0  0  0
   12.8530    5.6780   23.7950 O   0  0  0  0  0  0  0  0  0  0  0  0
   11.4420    5.4460   23.9040 N   0  0  0  0  0  0  0  0  0  0  0  0
   10.6310    6.3510   24.1430 O   0  0  0  0  0  0  0  0  0  0  0  0
  2  1  1  6
  2  3  1  0
  2 23  1  0
  3  4  1  0
  3 21  2  0
  4  5  1  0
  5  6  2  0
  5 20  1  0
  6  7  1  0
  7  8  2  0
  8  9  1  0
  9 10  1  0
  9 20  2  0
 10 11  1  0
 11 13  1  0
 11 12  2  0
 13 14  1  0
 14 15  2  0
 14 19  1  0
 15 16  1  0
 16 17  2  0
 17 18  1  0
 18 19  2  0
 21 22  1  0
 22 23  1  0
 23 24  1  0
M  END
