WPC2501_minimised.pdb
     RDKit          3D

 23 25  0  0  0  0  0  0  0  0999 V2000
    8.1670    0.3400   19.9880 O   0  0  0  0  0  0  0  0  0  0  0  0
    7.2830   -0.0090   20.7470 C   0  0  0  0  0  0  0  0  0  0  0  0
    5.9560    0.1440   20.4690 N   0  0  0  0  0  0  0  0  0  0  0  0
    5.4430    0.7890   19.3240 C   0  0  0  0  0  0  0  0  0  0  0  0
    4.4610    1.7760   19.4720 C   0  0  0  0  0  0  0  0  0  0  0  0
    4.0710    2.4760   18.3240 C   0  0  0  0  0  0  0  0  0  0  0  0
    4.6760    2.1850   17.0940 C   0  0  0  0  0  0  0  0  0  0  0  0
    5.5940    1.2030   16.9370 N   0  0  0  0  0  0  0  0  0  0  0  0
    5.9720    0.5330   18.0420 C   0  0  0  0  0  0  0  0  0  0  0  0
    7.4980   -0.5600   21.9770 N   0  0  0  0  0  0  0  0  0  0  0  0
    8.7710   -0.6400   22.5580 C   0  0  0  0  0  0  0  0  0  0  0  0
    9.5310   -1.8120   22.4570 C   0  0  0  0  0  0  0  0  0  0  0  0
   10.8620   -1.8130   22.8960 C   0  0  0  0  0  0  0  0  0  0  0  0
   11.4280   -0.6340   23.4130 C   0  0  0  0  0  0  0  0  0  0  0  0
   10.6610    0.5330   23.5320 C   0  0  0  0  0  0  0  0  0  0  0  0
   11.2890    1.8080   24.0530 C   0  0  0  0  0  0  0  0  0  0  0  0
   10.9750    2.9430   23.1890 N   0  0  0  0  0  0  0  0  0  0  0  0
   11.2490    4.2330   23.5380 C   0  0  0  0  0  0  0  0  0  0  0  0
   11.9640    4.5360   24.4710 O   0  0  0  0  0  0  0  0  0  0  0  0
   10.5460    5.2520   22.7010 C   0  0  0  0  0  0  0  0  0  0  0  0
    9.6190    6.1880   23.4230 C   0  0  0  0  0  0  0  0  0  0  0  0
    9.0470    5.1530   22.4910 C   0  0  0  0  0  0  0  0  0  0  0  0
    9.3230    0.5200   23.1140 C   0  0  0  0  0  0  0  0  0  0  0  0
  1  2  2  0
  2  3  1  0
  2 10  1  0
  3  4  1  0
  4  5  2  0
  4  9  1  0
  5  6  1  0
  6  7  2  0
  7  8  1  0
  8  9  2  0
 10 11  1  0
 11 23  1  0
 11 12  2  0
 12 13  1  0
 13 14  2  0
 14 15  1  0
 15 16  1  0
 15 23  2  0
 16 17  1  0
 17 18  1  0
 18 19  2  0
 18 20  1  0
 20 21  1  0
 20 22  1  0
 21 22  1  0
M  END
