WPC2307_minimised.pdb
     RDKit          3D

 23 24  0  0  0  0  0  0  0  0999 V2000
   14.1360    5.5420   21.6040 C   0  0  0  0  0  0  0  0  0  0  0  0
   13.8100    4.6400   22.8030 C   0  0  0  0  0  0  0  0  0  0  0  0
   12.4040    4.9090   23.3600 C   0  0  0  0  0  0  0  0  0  0  0  0
   12.0020    3.7020   24.0150 O   0  0  0  0  0  0  0  0  0  0  0  0
   10.7020    3.5740   24.3880 C   0  0  0  0  0  0  0  0  0  0  0  0
    9.9100    4.5000   24.4400 O   0  0  0  0  0  0  0  0  0  0  0  0
   10.4410    2.1750   24.9290 C   0  0  0  0  0  0  0  0  0  0  0  0
   10.4610    1.1100   23.8510 C   0  0  0  0  0  0  0  0  0  0  0  0
   11.6760    0.6070   23.3490 C   0  0  0  0  0  0  0  0  0  0  0  0
   11.6720   -0.3820   22.3510 C   0  0  0  0  0  0  0  0  0  0  0  0
   10.4510   -0.8620   21.8500 C   0  0  0  0  0  0  0  0  0  0  0  0
    9.2430   -0.3510   22.3490 C   0  0  0  0  0  0  0  0  0  0  0  0
    8.0040   -0.6990   21.7850 N   0  0  0  0  0  0  0  0  0  0  0  0
    7.6600   -0.3780   20.5060 C   0  0  0  0  0  0  0  0  0  0  0  0
    8.4570   -0.1410   19.6190 O   0  0  0  0  0  0  0  0  0  0  0  0
    6.3080   -0.2620   20.3550 N   0  0  0  0  0  0  0  0  0  0  0  0
    5.6850    0.4300   19.2930 C   0  0  0  0  0  0  0  0  0  0  0  0
    4.7340    1.4150   19.5860 C   0  0  0  0  0  0  0  0  0  0  0  0
    4.2410    2.1790   18.5210 C   0  0  0  0  0  0  0  0  0  0  0  0
    4.7270    1.9560   17.2250 C   0  0  0  0  0  0  0  0  0  0  0  0
    5.6180    0.9820   16.9320 N   0  0  0  0  0  0  0  0  0  0  0  0
    6.0890    0.2450   17.9560 C   0  0  0  0  0  0  0  0  0  0  0  0
    9.2480    0.6230   23.3500 C   0  0  0  0  0  0  0  0  0  0  0  0
  1  2  1  0
  2  3  1  0
  3  4  1  0
  4  5  1  0
  5  6  2  0
  5  7  1  0
  7  8  1  0
  8 23  2  0
  8  9  1  0
  9 10  2  0
 10 11  1  0
 11 12  2  0
 12 13  1  0
 12 23  1  0
 13 14  1  0
 14 15  2  0
 14 16  1  0
 16 17  1  0
 17 18  2  0
 17 22  1  0
 18 19  1  0
 19 20  2  0
 20 21  1  0
 21 22  2  0
M  END
