WPC2555_minimised.pdb
     RDKit          3D

 24 25  0  0  1  0  0  0  0  0999 V2000
    8.6370    3.8280   22.6860 C   0  0  0  0  0  0  0  0  0  0  0  0
    9.4090    4.7760   23.5180 N   0  0  0  0  0  0  0  0  0  0  0  0
    9.3810    6.1680   23.0270 C   0  0  0  0  0  0  0  0  0  0  0  0
   10.6930    4.3290   24.1610 C   0  0  1  0  0  0  0  0  0  0  0  0
   10.7040    2.8760   24.7170 C   0  0  0  0  0  0  0  0  0  0  0  0
   10.8650    1.7240   23.7330 C   0  0  0  0  0  0  0  0  0  0  0  0
   12.1190    1.3860   23.1890 C   0  0  0  0  0  0  0  0  0  0  0  0
   12.2340    0.3040   22.2980 C   0  0  0  0  0  0  0  0  0  0  0  0
   11.0910   -0.4230   21.9220 C   0  0  0  0  0  0  0  0  0  0  0  0
    9.8450   -0.0950   22.4770 C   0  0  0  0  0  0  0  0  0  0  0  0
    8.6460   -0.6580   21.9960 N   0  0  0  0  0  0  0  0  0  0  0  0
    8.0940   -0.2630   20.8090 C   0  0  0  0  0  0  0  0  0  0  0  0
    8.7210    0.2980   19.9340 O   0  0  0  0  0  0  0  0  0  0  0  0
    6.7440   -0.4600   20.7080 N   0  0  0  0  0  0  0  0  0  0  0  0
    5.9700    0.1470   19.6870 C   0  0  0  0  0  0  0  0  0  0  0  0
    5.0380    1.1370   20.0220 C   0  0  0  0  0  0  0  0  0  0  0  0
    4.4420    1.8540   18.9750 C   0  0  0  0  0  0  0  0  0  0  0  0
    4.7970    1.5660   17.6470 C   0  0  0  0  0  0  0  0  0  0  0  0
    5.6680    0.5870   17.3170 N   0  0  0  0  0  0  0  0  0  0  0  0
    6.2540   -0.0890   18.3260 C   0  0  0  0  0  0  0  0  0  0  0  0
    9.7480    0.9390   23.4120 C   0  0  0  0  0  0  0  0  0  0  0  0
   12.0340    4.6580   23.4540 C   0  0  0  0  0  0  0  0  0  0  0  0
   13.0570    4.8720   24.0780 O   0  0  0  0  0  0  0  0  0  0  0  0
   12.0160    4.7920   22.1190 O   0  0  0  0  0  0  0  0  0  0  0  0
  1  2  1  0
  2  3  1  0
  2  4  1  0
  4 22  1  0
  4  5  1  6
  5  6  1  0
  6 21  2  0
  6  7  1  0
  7  8  2  0
  8  9  1  0
  9 10  2  0
 10 11  1  0
 10 21  1  0
 11 12  1  0
 12 13  2  0
 12 14  1  0
 14 15  1  0
 15 16  2  0
 15 20  1  0
 16 17  1  0
 17 18  2  0
 18 19  1  0
 19 20  2  0
 22 23  2  0
 22 24  1  0
M  END
