WPC2626_minimised.pdb
     RDKit          3D

 24 25  0  0  1  0  0  0  0  0999 V2000
   12.6210    5.6010   24.7380 N   0  0  0  0  0  0  0  0  0  0  0  0
   11.2660    4.9970   24.5580 C   0  0  1  0  0  0  0  0  0  0  0  0
   10.6210    5.5150   23.2600 C   0  0  0  0  0  0  0  0  0  0  0  0
   11.5280    5.2940   22.1780 O   0  0  0  0  0  0  0  0  0  0  0  0
   11.2380    3.4540   24.5410 C   0  0  0  0  0  0  0  0  0  0  0  0
   10.5210    2.8150   25.2840 O   0  0  0  0  0  0  0  0  0  0  0  0
   12.1190    2.8540   23.6710 N   0  0  0  0  0  0  0  0  0  0  0  0
   12.6550    1.5070   23.8610 C   0  0  0  0  0  0  0  0  0  0  0  0
   11.9660    0.4670   23.0120 C   0  0  0  0  0  0  0  0  0  0  0  0
   12.7300   -0.4130   22.2300 C   0  0  0  0  0  0  0  0  0  0  0  0
   12.0950   -1.4170   21.4900 C   0  0  0  0  0  0  0  0  0  0  0  0
   10.6970   -1.5250   21.5100 C   0  0  0  0  0  0  0  0  0  0  0  0
    9.9310   -0.6120   22.2440 C   0  0  0  0  0  0  0  0  0  0  0  0
    8.5340   -0.5700   22.0630 N   0  0  0  0  0  0  0  0  0  0  0  0
    7.9670   -0.0880   20.9160 C   0  0  0  0  0  0  0  0  0  0  0  0
    8.6160    0.3100   19.9700 O   0  0  0  0  0  0  0  0  0  0  0  0
    6.6000   -0.0690   20.8960 N   0  0  0  0  0  0  0  0  0  0  0  0
    5.8570    0.4700   19.8170 C   0  0  0  0  0  0  0  0  0  0  0  0
    4.9360    1.4980   20.0510 C   0  0  0  0  0  0  0  0  0  0  0  0
    4.3730    2.1300   18.9330 C   0  0  0  0  0  0  0  0  0  0  0  0
    4.7490    1.7260   17.6420 C   0  0  0  0  0  0  0  0  0  0  0  0
    5.5960    0.7000   17.4080 N   0  0  0  0  0  0  0  0  0  0  0  0
    6.1450    0.1010   18.4840 C   0  0  0  0  0  0  0  0  0  0  0  0
   10.5640    0.3660   23.0150 C   0  0  0  0  0  0  0  0  0  0  0  0
  2  1  1  6
  2  3  1  0
  2  5  1  0
  3  4  1  0
  5  6  2  0
  5  7  1  0
  7  8  1  0
  8  9  1  0
  9 24  2  0
  9 10  1  0
 10 11  2  0
 11 12  1  0
 12 13  2  0
 13 14  1  0
 13 24  1  0
 14 15  1  0
 15 16  2  0
 15 17  1  0
 17 18  1  0
 18 19  2  0
 18 23  1  0
 19 20  1  0
 20 21  2  0
 21 22  1  0
 22 23  2  0
M  END
