WPC2711_minimised.pdb
     RDKit          3D

 19 20  0  0  0  0  0  0  0  0999 V2000
   14.5710   -0.8460   20.2370 C   0  0  0  0  0  0  0  0  0  0  0  0
   13.9880   -0.3200   21.4770 N   0  0  0  0  0  0  0  0  0  0  0  0
   12.7840   -1.0530   21.8940 C   0  0  0  0  0  0  0  0  0  0  0  0
   11.7570   -0.1490   22.5540 C   0  0  0  0  0  0  0  0  0  0  0  0
   10.4040   -0.2930   22.2050 C   0  0  0  0  0  0  0  0  0  0  0  0
    9.4270    0.5380   22.7740 C   0  0  0  0  0  0  0  0  0  0  0  0
   12.1290    0.8500   23.4730 C   0  0  0  0  0  0  0  0  0  0  0  0
   11.1500    1.6840   24.0400 C   0  0  0  0  0  0  0  0  0  0  0  0
    8.0800    0.4320   22.3710 N   0  0  0  0  0  0  0  0  0  0  0  0
    9.7990    1.5200   23.7010 C   0  0  0  0  0  0  0  0  0  0  0  0
    7.6490    0.5540   21.0790 C   0  0  0  0  0  0  0  0  0  0  0  0
    8.3920    0.6840   20.1270 O   0  0  0  0  0  0  0  0  0  0  0  0
    6.2880    0.5360   20.9430 N   0  0  0  0  0  0  0  0  0  0  0  0
    5.5990    0.9080   19.7630 C   0  0  0  0  0  0  0  0  0  0  0  0
    5.9890    0.4480   18.4840 C   0  0  0  0  0  0  0  0  0  0  0  0
    4.5820    1.8650   19.8580 C   0  0  0  0  0  0  0  0  0  0  0  0
    5.4410    0.8910   17.3330 N   0  0  0  0  0  0  0  0  0  0  0  0
    4.0330    2.3490   18.6660 C   0  0  0  0  0  0  0  0  0  0  0  0
    4.5100    1.8680   17.4380 C   0  0  0  0  0  0  0  0  0  0  0  0
  1  2  1  0
  2  3  1  0
  3  4  1  0
  4  7  2  0
  4  5  1  0
  5  6  2  0
  6  9  1  0
  6 10  1  0
  7  8  1  0
  8 10  2  0
  9 11  1  0
 11 12  2  0
 11 13  1  0
 13 14  1  0
 14 15  2  0
 14 16  1  0
 15 17  1  0
 16 18  2  0
 17 19  2  0
 18 19  1  0
M  END
