WPC2191_minimised.pdb
     RDKit          3D

 24 25  0  0  0  0  0  0  0  0999 V2000
    8.3940    4.7370   21.8840 C   0  0  0  0  0  0  0  0  0  0  0  0
    8.7900    5.6680   23.0310 C   0  0  0  0  0  0  0  0  0  0  0  0
   10.1580    6.0840   22.9360 O   0  0  0  0  0  0  0  0  0  0  0  0
   11.0780    5.6410   23.8400 C   0  0  0  0  0  0  0  0  0  0  0  0
   11.8890    6.3950   24.3420 O   0  0  0  0  0  0  0  0  0  0  0  0
   11.2010    4.1250   23.9750 C   0  0  0  0  0  0  0  0  0  0  0  0
   12.1800    3.5490   22.9350 C   0  0  0  0  0  0  0  0  0  0  0  0
   12.9490    1.9970   23.5520 S   0  0  0  0  0  0  0  0  0  0  0  0
   12.0360    0.6450   22.8670 C   0  0  0  0  0  0  0  0  0  0  0  0
   12.7640   -0.4490   22.3860 C   0  0  0  0  0  0  0  0  0  0  0  0
   12.0930   -1.5720   21.8900 C   0  0  0  0  0  0  0  0  0  0  0  0
   10.6920   -1.5850   21.8360 C   0  0  0  0  0  0  0  0  0  0  0  0
    9.9650   -0.4750   22.2880 C   0  0  0  0  0  0  0  0  0  0  0  0
    8.5750   -0.4220   22.0820 N   0  0  0  0  0  0  0  0  0  0  0  0
    8.0310    0.0050   20.9050 C   0  0  0  0  0  0  0  0  0  0  0  0
    8.7030    0.3630   19.9600 O   0  0  0  0  0  0  0  0  0  0  0  0
    6.6630    0.0180   20.8650 N   0  0  0  0  0  0  0  0  0  0  0  0
    5.9260    0.5400   19.7740 C   0  0  0  0  0  0  0  0  0  0  0  0
    4.9710    1.5380   20.0010 C   0  0  0  0  0  0  0  0  0  0  0  0
    4.4060    2.1610   18.8800 C   0  0  0  0  0  0  0  0  0  0  0  0
    4.8140    1.7810   17.5930 C   0  0  0  0  0  0  0  0  0  0  0  0
    5.6880    0.7750   17.3640 N   0  0  0  0  0  0  0  0  0  0  0  0
    6.2400    0.1850   18.4430 C   0  0  0  0  0  0  0  0  0  0  0  0
   10.6340    0.6380   22.8160 C   0  0  0  0  0  0  0  0  0  0  0  0
  1  2  1  0
  2  3  1  0
  3  4  1  0
  4  5  2  0
  4  6  1  0
  6  7  1  0
  7  8  1  0
  8  9  1  0
  9 24  2  0
  9 10  1  0
 10 11  2  0
 11 12  1  0
 12 13  2  0
 13 14  1  0
 13 24  1  0
 14 15  1  0
 15 16  2  0
 15 17  1  0
 17 18  1  0
 18 19  2  0
 18 23  1  0
 19 20  1  0
 20 21  2  0
 21 22  1  0
 22 23  2  0
M  END
