WPC2419_minimised.pdb
     RDKit          3D

 19 20  0  0  0  0  0  0  0  0999 V2000
   11.7230    4.6140   22.8700 C   0  0  0  0  0  0  0  0  0  0  0  0
   10.3460    4.3830   24.0680 S   0  0  0  0  0  0  0  0  0  0  0  0
   10.8180    2.7410   24.7510 C   0  0  0  0  0  0  0  0  0  0  0  0
   10.7740    1.6160   23.7360 C   0  0  0  0  0  0  0  0  0  0  0  0
   11.9550    1.0380   23.2340 C   0  0  0  0  0  0  0  0  0  0  0  0
   11.8860   -0.0180   22.3090 C   0  0  0  0  0  0  0  0  0  0  0  0
   10.6340   -0.4960   21.8860 C   0  0  0  0  0  0  0  0  0  0  0  0
    9.4580    0.0810   22.3900 C   0  0  0  0  0  0  0  0  0  0  0  0
    8.1860   -0.3050   21.9270 N   0  0  0  0  0  0  0  0  0  0  0  0
    7.7670   -0.1180   20.6430 C   0  0  0  0  0  0  0  0  0  0  0  0
    8.5100    0.0690   19.7010 O   0  0  0  0  0  0  0  0  0  0  0  0
    6.4050   -0.0770   20.5340 N   0  0  0  0  0  0  0  0  0  0  0  0
    5.7240    0.5100   19.4440 C   0  0  0  0  0  0  0  0  0  0  0  0
    4.7740    1.5070   19.7010 C   0  0  0  0  0  0  0  0  0  0  0  0
    4.2320    2.1860   18.6030 C   0  0  0  0  0  0  0  0  0  0  0  0
    4.6680    1.8700   17.3090 C   0  0  0  0  0  0  0  0  0  0  0  0
    5.5530    0.8800   17.0510 N   0  0  0  0  0  0  0  0  0  0  0  0
    6.0730    0.2250   18.1080 C   0  0  0  0  0  0  0  0  0  0  0  0
    9.5300    1.1290   23.3140 C   0  0  0  0  0  0  0  0  0  0  0  0
  1  2  1  0
  2  3  1  0
  3  4  1  0
  4 19  2  0
  4  5  1  0
  5  6  2  0
  6  7  1  0
  7  8  2  0
  8  9  1  0
  8 19  1  0
  9 10  1  0
 10 11  2  0
 10 12  1  0
 12 13  1  0
 13 14  2  0
 13 18  1  0
 14 15  1  0
 15 16  2  0
 16 17  1  0
 17 18  2  0
M  END
