WPC2475_minimised.pdb
     RDKit          3D

 23 24  0  0  0  0  0  0  0  0999 V2000
   13.6560    5.3330   22.3610 C   0  0  0  0  0  0  0  0  0  0  0  0
   12.3600    5.1560   23.1760 C   0  0  0  0  0  0  0  0  0  0  0  0
   12.3510    6.0350   24.4470 C   0  0  0  0  0  0  0  0  0  0  0  0
   12.3230    3.7750   23.5650 O   0  0  0  0  0  0  0  0  0  0  0  0
   11.1630    3.2140   24.0090 C   0  0  0  0  0  0  0  0  0  0  0  0
   10.1470    3.8350   24.2730 O   0  0  0  0  0  0  0  0  0  0  0  0
   11.4150    1.7870   24.4730 C   0  0  0  0  0  0  0  0  0  0  0  0
   11.0440    0.7410   23.4460 C   0  0  0  0  0  0  0  0  0  0  0  0
   12.0380   -0.0260   22.8140 C   0  0  0  0  0  0  0  0  0  0  0  0
   11.6780   -1.0450   21.9190 C   0  0  0  0  0  0  0  0  0  0  0  0
   10.3230   -1.2690   21.6330 C   0  0  0  0  0  0  0  0  0  0  0  0
    9.3370   -0.4670   22.2240 C   0  0  0  0  0  0  0  0  0  0  0  0
    7.9960   -0.5590   21.8110 N   0  0  0  0  0  0  0  0  0  0  0  0
    7.5930   -0.2580   20.5430 C   0  0  0  0  0  0  0  0  0  0  0  0
    8.3510   -0.1340   19.6000 O   0  0  0  0  0  0  0  0  0  0  0  0
    6.2460   -0.0500   20.4490 N   0  0  0  0  0  0  0  0  0  0  0  0
    5.6050    0.5840   19.3600 C   0  0  0  0  0  0  0  0  0  0  0  0
    4.6640    1.5880   19.6170 C   0  0  0  0  0  0  0  0  0  0  0  0
    4.1540    2.2970   18.5220 C   0  0  0  0  0  0  0  0  0  0  0  0
    4.6180    2.0060   17.2310 C   0  0  0  0  0  0  0  0  0  0  0  0
    5.4920    1.0070   16.9720 N   0  0  0  0  0  0  0  0  0  0  0  0
    5.9740    0.3190   18.0240 C   0  0  0  0  0  0  0  0  0  0  0  0
    9.6940    0.5240   23.1430 C   0  0  0  0  0  0  0  0  0  0  0  0
  1  2  1  0
  2  3  1  0
  2  4  1  0
  4  5  1  0
  5  6  2  0
  5  7  1  0
  7  8  1  0
  8 23  2  0
  8  9  1  0
  9 10  2  0
 10 11  1  0
 11 12  2  0
 12 13  1  0
 12 23  1  0
 13 14  1  0
 14 15  2  0
 14 16  1  0
 16 17  1  0
 17 18  2  0
 17 22  1  0
 18 19  1  0
 19 20  2  0
 20 21  1  0
 21 22  2  0
M  END
