WPC2633_minimised.pdb
     RDKit          3D

 24 26  0  0  0  0  0  0  0  0999 V2000
    8.4080   -0.1190   19.5810 O   0  0  0  0  0  0  0  0  0  0  0  0
    7.5790   -0.3300   20.4440 C   0  0  0  0  0  0  0  0  0  0  0  0
    6.2360   -0.1590   20.2680 N   0  0  0  0  0  0  0  0  0  0  0  0
    5.6500    0.5430   19.1930 C   0  0  0  0  0  0  0  0  0  0  0  0
    4.6790    1.5140   19.4640 C   0  0  0  0  0  0  0  0  0  0  0  0
    4.2180    2.2880   18.3920 C   0  0  0  0  0  0  0  0  0  0  0  0
    4.7610    2.0940   17.1140 C   0  0  0  0  0  0  0  0  0  0  0  0
    5.6710    1.1330   16.8410 N   0  0  0  0  0  0  0  0  0  0  0  0
    6.1050    0.3810   17.8690 C   0  0  0  0  0  0  0  0  0  0  0  0
    7.8800   -0.6790   21.7260 N   0  0  0  0  0  0  0  0  0  0  0  0
    9.1340   -0.4310   22.3030 C   0  0  0  0  0  0  0  0  0  0  0  0
   10.2770   -1.1450   21.9150 C   0  0  0  0  0  0  0  0  0  0  0  0
   11.5250   -0.8100   22.4640 C   0  0  0  0  0  0  0  0  0  0  0  0
   11.6210    0.2400   23.3950 C   0  0  0  0  0  0  0  0  0  0  0  0
   10.4750    0.9700   23.7620 C   0  0  0  0  0  0  0  0  0  0  0  0
   10.5440    2.1130   24.7600 C   0  0  0  0  0  0  0  0  0  0  0  0
   11.2170    3.3270   24.2800 N   0  0  0  0  0  0  0  0  0  0  0  0
   12.2270    3.4330   23.3550 C   0  0  0  0  0  0  0  0  0  0  0  0
   12.5090    4.7620   23.3430 C   0  0  0  0  0  0  0  0  0  0  0  0
   13.5610    5.3700   22.4580 C   0  0  0  0  0  0  0  0  0  0  0  0
   13.2710    5.1530   21.0760 O   0  0  0  0  0  0  0  0  0  0  0  0
   11.6990    5.4260   24.2250 N   0  0  0  0  0  0  0  0  0  0  0  0
   10.9090    4.5530   24.7880 N   0  0  0  0  0  0  0  0  0  0  0  0
    9.2330    0.6230   23.2150 C   0  0  0  0  0  0  0  0  0  0  0  0
  1  2  2  0
  2 10  1  0
  2  3  1  0
  3  4  1  0
  4  5  2  0
  4  9  1  0
  5  6  1  0
  6  7  2  0
  7  8  1  0
  8  9  2  0
 10 11  1  0
 11 12  2  0
 11 24  1  0
 12 13  1  0
 13 14  2  0
 14 15  1  0
 15 16  1  0
 15 24  2  0
 16 17  1  0
 17 18  1  0
 17 23  1  0
 18 19  2  0
 19 20  1  0
 19 22  1  0
 20 21  1  0
 22 23  2  0
M  END
