WPC2097_minimised.pdb
     RDKit          3D

 20 21  0  0  0  0  0  0  0  0999 V2000
   14.0880    5.5470   21.9370 C   0  0  0  0  0  0  0  0  0  0  0  0
   13.4090    4.7820   23.0870 C   0  0  0  0  0  0  0  0  0  0  0  0
   11.9020    4.5840   22.8630 C   0  0  0  0  0  0  0  0  0  0  0  0
   11.1620    3.6500   24.2640 S   0  0  0  0  0  0  0  0  0  0  0  0
   11.0680    2.0050   23.5940 C   0  0  0  0  0  0  0  0  0  0  0  0
   12.2240    1.2580   23.3100 C   0  0  0  0  0  0  0  0  0  0  0  0
   12.1130    0.0100   22.6720 C   0  0  0  0  0  0  0  0  0  0  0  0
   10.8470   -0.4990   22.3380 C   0  0  0  0  0  0  0  0  0  0  0  0
    9.6950    0.2430   22.6410 C   0  0  0  0  0  0  0  0  0  0  0  0
    8.4230   -0.1820   22.2150 N   0  0  0  0  0  0  0  0  0  0  0  0
    7.9610    0.0270   20.9470 C   0  0  0  0  0  0  0  0  0  0  0  0
    8.6720    0.3500   20.0180 O   0  0  0  0  0  0  0  0  0  0  0  0
    6.6040   -0.0860   20.8210 N   0  0  0  0  0  0  0  0  0  0  0  0
    5.8870    0.4250   19.7130 C   0  0  0  0  0  0  0  0  0  0  0  0
    4.9180    1.4120   19.9280 C   0  0  0  0  0  0  0  0  0  0  0  0
    4.3620    2.0350   18.8040 C   0  0  0  0  0  0  0  0  0  0  0  0
    4.7930    1.6640   17.5220 C   0  0  0  0  0  0  0  0  0  0  0  0
    5.6910    0.6770   17.3020 N   0  0  0  0  0  0  0  0  0  0  0  0
    6.2380    0.0890   18.3870 C   0  0  0  0  0  0  0  0  0  0  0  0
    9.8080    1.4920   23.2660 C   0  0  0  0  0  0  0  0  0  0  0  0
  1  2  1  0
  2  3  1  0
  3  4  1  0
  4  5  1  0
  5 20  2  0
  5  6  1  0
  6  7  2  0
  7  8  1  0
  8  9  2  0
  9 10  1  0
  9 20  1  0
 10 11  1  0
 11 12  2  0
 11 13  1  0
 13 14  1  0
 14 15  2  0
 14 19  1  0
 15 16  1  0
 16 17  2  0
 17 18  1  0
 18 19  2  0
M  END
