WPC2654_minimised.pdb
     RDKit          3D

 24 26  0  0  0  0  0  0  0  0999 V2000
    8.7900    0.4820   19.9780 O   0  0  0  0  0  0  0  0  0  0  0  0
    8.3900   -0.4920   20.5780 C   0  0  0  0  0  0  0  0  0  0  0  0
    7.0790   -0.8660   20.4810 N   0  0  0  0  0  0  0  0  0  0  0  0
    6.1850   -0.1700   19.6310 C   0  0  0  0  0  0  0  0  0  0  0  0
    5.4110    0.8870   20.1290 C   0  0  0  0  0  0  0  0  0  0  0  0
    4.7160    1.6810   19.2040 C   0  0  0  0  0  0  0  0  0  0  0  0
    4.8360    1.4110   17.8300 C   0  0  0  0  0  0  0  0  0  0  0  0
    5.5630    0.3790   17.3490 N   0  0  0  0  0  0  0  0  0  0  0  0
    6.2340   -0.3780   18.2390 C   0  0  0  0  0  0  0  0  0  0  0  0
    9.1760   -1.2740   21.3830 N   0  0  0  0  0  0  0  0  0  0  0  0
   10.5090   -0.9880   21.7680 C   0  0  0  0  0  0  0  0  0  0  0  0
   11.4020   -2.0240   22.0540 C   0  0  0  0  0  0  0  0  0  0  0  0
   12.7120   -1.7290   22.4620 C   0  0  0  0  0  0  0  0  0  0  0  0
   13.0790   -0.4010   22.7400 C   0  0  0  0  0  0  0  0  0  0  0  0
   12.1450    0.6360   22.5910 C   0  0  0  0  0  0  0  0  0  0  0  0
   12.4210    1.9880   23.2630 C   0  0  0  0  0  0  0  0  0  0  0  0
   11.2930    3.0610   23.2510 C   0  0  0  0  0  0  0  0  0  0  0  0
    9.9590    2.5380   23.6240 N   0  0  0  0  0  0  0  0  0  0  0  0
    9.7680    1.7430   24.8590 C   0  0  0  0  0  0  0  0  0  0  0  0
    8.5160    0.8280   24.7440 C   0  0  0  0  0  0  0  0  0  0  0  0
    7.2970    1.5510   24.3030 N   0  0  0  0  0  0  0  0  0  0  0  0
    7.5290    2.3100   23.0450 C   0  0  0  0  0  0  0  0  0  0  0  0
    8.7680    3.2480   23.1040 C   0  0  0  0  0  0  0  0  0  0  0  0
   10.9130    0.3350   21.9850 C   0  0  0  0  0  0  0  0  0  0  0  0
  1  2  2  0
  2  3  1  0
  2 10  1  0
  3  4  1  0
  4  5  2  0
  4  9  1  0
  5  6  1  0
  6  7  2  0
  7  8  1  0
  8  9  2  0
 10 11  1  0
 11 24  1  0
 11 12  2  0
 12 13  1  0
 13 14  2  0
 14 15  1  0
 15 16  1  0
 15 24  2  0
 16 17  1  0
 17 18  1  0
 18 19  1  0
 18 23  1  0
 19 20  1  0
 20 21  1  0
 21 22  1  0
 22 23  1  0
M  END
