WPC2915_minimised.pdb
     RDKit          3D

 22 23  0  0  0  0  0  0  0  0999 V2000
   15.3250    0.7980   18.8500 N   0  0  0  0  0  0  0  0  0  0  0  0
   15.8690    1.0120   20.1830 C   0  0  0  0  0  0  0  0  0  0  0  0
   14.7880    0.9250   21.2840 C   0  0  0  0  0  0  0  0  0  0  0  0
   14.1340   -0.4710   21.4260 C   0  0  0  0  0  0  0  0  0  0  0  0
   12.6880   -0.3970   21.9600 C   0  0  0  0  0  0  0  0  0  0  0  0
   12.5600    0.5750   23.5240 S   0  0  0  0  0  0  0  0  0  0  0  0
   10.8620    0.3070   23.9960 C   0  0  0  0  0  0  0  0  0  0  0  0
    9.8380    0.4160   23.0440 C   0  0  0  0  0  0  0  0  0  0  0  0
    8.5040    0.1680   23.4100 C   0  0  0  0  0  0  0  0  0  0  0  0
   10.5450   -0.0240   25.3220 C   0  0  0  0  0  0  0  0  0  0  0  0
    9.2140   -0.2420   25.7020 C   0  0  0  0  0  0  0  0  0  0  0  0
    7.4260    0.2440   22.5020 N   0  0  0  0  0  0  0  0  0  0  0  0
    8.1960   -0.1540   24.7410 C   0  0  0  0  0  0  0  0  0  0  0  0
    7.3930    0.5150   21.1590 C   0  0  0  0  0  0  0  0  0  0  0  0
    8.3400    0.7010   20.4160 O   0  0  0  0  0  0  0  0  0  0  0  0
    6.0930    0.5540   20.7450 N   0  0  0  0  0  0  0  0  0  0  0  0
    5.6030    1.0170   19.5080 C   0  0  0  0  0  0  0  0  0  0  0  0
    6.1520    0.6150   18.2710 C   0  0  0  0  0  0  0  0  0  0  0  0
    4.5640    1.9520   19.5270 C   0  0  0  0  0  0  0  0  0  0  0  0
    5.7190    1.0920   17.0840 N   0  0  0  0  0  0  0  0  0  0  0  0
    4.1360    2.4690   18.3020 C   0  0  0  0  0  0  0  0  0  0  0  0
    4.7520    2.0400   17.1200 C   0  0  0  0  0  0  0  0  0  0  0  0
  1  2  1  0
  2  3  1  0
  3  4  1  0
  4  5  1  0
  5  6  1  0
  6  7  1  0
  7 10  2  0
  7  8  1  0
  8  9  2  0
  9 12  1  0
  9 13  1  0
 10 11  1  0
 11 13  2  0
 12 14  1  0
 14 15  2  0
 14 16  1  0
 16 17  1  0
 17 18  2  0
 17 19  1  0
 18 20  1  0
 19 21  2  0
 20 22  2  0
 21 22  1  0
M  END
