WPC2690_minimised.pdb
     RDKit          3D

 18 19  0  0  0  0  0  0  0  0999 V2000
   13.8280   -1.0540   20.6950 C   0  0  0  0  0  0  0  0  0  0  0  0
   13.4450   -1.1340   22.1750 C   0  0  0  0  0  0  0  0  0  0  0  0
   12.3740   -0.1210   22.5380 C   0  0  0  0  0  0  0  0  0  0  0  0
   11.0200   -0.4200   22.3090 C   0  0  0  0  0  0  0  0  0  0  0  0
   10.0260    0.5190   22.6240 C   0  0  0  0  0  0  0  0  0  0  0  0
   12.7270    1.1290   23.0770 C   0  0  0  0  0  0  0  0  0  0  0  0
   11.7330    2.0720   23.3820 C   0  0  0  0  0  0  0  0  0  0  0  0
    8.6730    0.2590   22.3200 N   0  0  0  0  0  0  0  0  0  0  0  0
   10.3820    1.7630   23.1640 C   0  0  0  0  0  0  0  0  0  0  0  0
    8.1660    0.2630   21.0500 C   0  0  0  0  0  0  0  0  0  0  0  0
    8.8580    0.3210   20.0560 O   0  0  0  0  0  0  0  0  0  0  0  0
    6.7990    0.2520   20.9890 N   0  0  0  0  0  0  0  0  0  0  0  0
    6.0480    0.6250   19.8450 C   0  0  0  0  0  0  0  0  0  0  0  0
    6.3600    0.1670   18.5440 C   0  0  0  0  0  0  0  0  0  0  0  0
    5.0410    1.5860   19.9980 C   0  0  0  0  0  0  0  0  0  0  0  0
    5.7490    0.6210   17.4280 N   0  0  0  0  0  0  0  0  0  0  0  0
    4.4180    2.0690   18.8410 C   0  0  0  0  0  0  0  0  0  0  0  0
    4.8240    1.5940   17.5870 C   0  0  0  0  0  0  0  0  0  0  0  0
  1  2  1  0
  2  3  1  0
  3  4  2  0
  3  6  1  0
  4  5  1  0
  5  9  2  0
  5  8  1  0
  6  7  2  0
  7  9  1  0
  8 10  1  0
 10 11  2  0
 10 12  1  0
 12 13  1  0
 13 14  2  0
 13 15  1  0
 14 16  1  0
 15 17  2  0
 16 18  2  0
 17 18  1  0
M  END
