WPC2718_minimised.pdb
     RDKit          3D

 20 21  0  0  0  0  0  0  0  0999 V2000
   15.4720    0.5060   19.7610 N   0  0  0  0  0  0  0  0  0  0  0  0
   14.4940   -0.4430   20.3030 C   0  0  0  0  0  0  0  0  0  0  0  0
   13.6240    0.1940   21.3980 C   0  0  0  0  0  0  0  0  0  0  0  0
   12.7160   -0.8680   22.0370 C   0  0  0  0  0  0  0  0  0  0  0  0
   11.5290   -0.2690   22.7680 C   0  0  0  0  0  0  0  0  0  0  0  0
   10.2590   -0.3590   22.1810 C   0  0  0  0  0  0  0  0  0  0  0  0
    9.1360    0.1780   22.8260 C   0  0  0  0  0  0  0  0  0  0  0  0
   11.6720    0.3750   24.0100 C   0  0  0  0  0  0  0  0  0  0  0  0
   10.5420    0.8780   24.6730 C   0  0  0  0  0  0  0  0  0  0  0  0
    7.8640    0.1430   22.2220 N   0  0  0  0  0  0  0  0  0  0  0  0
    9.2740    0.7770   24.0840 C   0  0  0  0  0  0  0  0  0  0  0  0
    7.5860    0.3810   20.9040 C   0  0  0  0  0  0  0  0  0  0  0  0
    8.4110    0.5430   20.0260 O   0  0  0  0  0  0  0  0  0  0  0  0
    6.2400    0.4320   20.6800 N   0  0  0  0  0  0  0  0  0  0  0  0
    5.6160    0.8930   19.5010 C   0  0  0  0  0  0  0  0  0  0  0  0
    6.0540    0.5120   18.2140 C   0  0  0  0  0  0  0  0  0  0  0  0
    4.5860    1.8310   19.6230 C   0  0  0  0  0  0  0  0  0  0  0  0
    5.5250    1.0080   17.0760 N   0  0  0  0  0  0  0  0  0  0  0  0
    4.0580    2.3690   18.4450 C   0  0  0  0  0  0  0  0  0  0  0  0
    4.5720    1.9610   17.2080 C   0  0  0  0  0  0  0  0  0  0  0  0
  1  2  1  0
  2  3  1  0
  3  4  1  0
  4  5  1  0
  5  8  2  0
  5  6  1  0
  6  7  2  0
  7 10  1  0
  7 11  1  0
  8  9  1  0
  9 11  2  0
 10 12  1  0
 12 13  2  0
 12 14  1  0
 14 15  1  0
 15 16  2  0
 15 17  1  0
 16 18  1  0
 17 19  2  0
 18 20  2  0
 19 20  1  0
M  END
