WPC2402_minimised.pdb
     RDKit          3D

 24 26  0  0  0  0  0  0  0  0999 V2000
    9.5870    6.1220   23.3040 C   0  0  0  0  0  0  0  0  0  0  0  0
   10.2310    4.8800   22.8850 N   0  0  0  0  0  0  0  0  0  0  0  0
    9.5800    3.6520   23.3950 C   0  0  0  0  0  0  0  0  0  0  0  0
   10.3120    3.1390   24.6640 C   0  0  0  0  0  0  0  0  0  0  0  0
   11.7210    2.7650   24.3790 N   0  0  0  0  0  0  0  0  0  0  0  0
   12.0460    1.3310   24.5340 C   0  0  0  0  0  0  0  0  0  0  0  0
   11.5720    0.4220   23.4200 C   0  0  0  0  0  0  0  0  0  0  0  0
   12.5080   -0.2140   22.5850 C   0  0  0  0  0  0  0  0  0  0  0  0
   12.0790   -1.1510   21.6350 C   0  0  0  0  0  0  0  0  0  0  0  0
   10.7080   -1.4100   21.4880 C   0  0  0  0  0  0  0  0  0  0  0  0
    9.7700   -0.7180   22.2580 C   0  0  0  0  0  0  0  0  0  0  0  0
    8.4000   -0.7850   21.9360 N   0  0  0  0  0  0  0  0  0  0  0  0
    7.9050   -0.3500   20.7370 C   0  0  0  0  0  0  0  0  0  0  0  0
    8.6020   -0.0340   19.7930 O   0  0  0  0  0  0  0  0  0  0  0  0
    6.5410   -0.2520   20.6970 N   0  0  0  0  0  0  0  0  0  0  0  0
    5.8310    0.3650   19.6370 C   0  0  0  0  0  0  0  0  0  0  0  0
    4.9000    1.3700   19.9260 C   0  0  0  0  0  0  0  0  0  0  0  0
    4.3400    2.0680   18.8470 C   0  0  0  0  0  0  0  0  0  0  0  0
    4.7360    1.7570   17.5380 C   0  0  0  0  0  0  0  0  0  0  0  0
    5.5950    0.7540   17.2490 N   0  0  0  0  0  0  0  0  0  0  0  0
    6.1370    0.0870   18.2870 C   0  0  0  0  0  0  0  0  0  0  0  0
   10.2020    0.1590   23.2540 C   0  0  0  0  0  0  0  0  0  0  0  0
   12.2980    3.4360   23.1800 C   0  0  0  0  0  0  0  0  0  0  0  0
   11.7190    4.8690   22.9960 C   0  0  0  0  0  0  0  0  0  0  0  0
  1  2  1  0
  2  3  1  0
  2 24  1  0
  3  4  1  0
  4  5  1  0
  5 23  1  0
  5  6  1  0
  6  7  1  0
  7 22  1  0
  7  8  2  0
  8  9  1  0
  9 10  2  0
 10 11  1  0
 11 12  1  0
 11 22  2  0
 12 13  1  0
 13 14  2  0
 13 15  1  0
 15 16  1  0
 16 17  2  0
 16 21  1  0
 17 18  1  0
 18 19  2  0
 19 20  1  0
 20 21  2  0
 23 24  1  0
M  END
