WPC2182_minimised.pdb
     RDKit          3D

 21 22  0  0  0  0  0  0  0  0999 V2000
   12.3820    6.1860   24.7260 C   0  0  0  0  0  0  0  0  0  0  0  0
   11.2660    5.3690   23.6250 S   0  0  0  0  0  0  0  0  0  0  0  0
   10.1860    6.3320   23.5290 O   0  0  0  0  0  0  0  0  0  0  0  0
   12.0610    4.9180   22.5050 O   0  0  0  0  0  0  0  0  0  0  0  0
   10.6990    3.8160   24.9170 S   0  0  0  0  0  0  0  0  0  0  0  0
   10.8460    2.4440   23.7970 C   0  0  0  0  0  0  0  0  0  0  0  0
   12.0850    1.9430   23.3610 C   0  0  0  0  0  0  0  0  0  0  0  0
   12.1330    0.7820   22.5670 C   0  0  0  0  0  0  0  0  0  0  0  0
   10.9430    0.1240   22.2090 C   0  0  0  0  0  0  0  0  0  0  0  0
    9.7080    0.6210   22.6570 C   0  0  0  0  0  0  0  0  0  0  0  0
    8.4900    0.0320   22.2630 N   0  0  0  0  0  0  0  0  0  0  0  0
    8.0200    0.0670   20.9800 C   0  0  0  0  0  0  0  0  0  0  0  0
    8.7150    0.3120   20.0170 O   0  0  0  0  0  0  0  0  0  0  0  0
    6.6650   -0.1030   20.8780 N   0  0  0  0  0  0  0  0  0  0  0  0
    5.9200    0.3650   19.7680 C   0  0  0  0  0  0  0  0  0  0  0  0
    4.9420    1.3430   19.9840 C   0  0  0  0  0  0  0  0  0  0  0  0
    4.3550    1.9380   18.8600 C   0  0  0  0  0  0  0  0  0  0  0  0
    4.7670    1.5480   17.5780 C   0  0  0  0  0  0  0  0  0  0  0  0
    5.6730    0.5690   17.3590 N   0  0  0  0  0  0  0  0  0  0  0  0
    6.2480    0.0070   18.4420 C   0  0  0  0  0  0  0  0  0  0  0  0
    9.6670    1.7710   23.4550 C   0  0  0  0  0  0  0  0  0  0  0  0
  1  2  1  0
  2  3  2  0
  2  4  2  0
  2  5  1  0
  5  6  1  0
  6 21  2  0
  6  7  1  0
  7  8  2  0
  8  9  1  0
  9 10  2  0
 10 11  1  0
 10 21  1  0
 11 12  1  0
 12 13  2  0
 12 14  1  0
 14 15  1  0
 15 16  2  0
 15 20  1  0
 16 17  1  0
 17 18  2  0
 18 19  1  0
 19 20  2  0
M  END
