WPC2105_minimised.pdb
     RDKit          3D

 21 22  0  0  0  0  0  0  0  0999 V2000
   12.8780    4.6420   22.3450 C   0  0  0  0  0  0  0  0  0  0  0  0
   12.1890    4.8260   23.6830 C   0  0  0  0  0  0  0  0  0  0  0  0
   12.7620    5.3470   24.6220 O   0  0  0  0  0  0  0  0  0  0  0  0
   10.7740    4.2770   23.8360 C   0  0  0  0  0  0  0  0  0  0  0  0
   10.7760    2.9150   24.5640 C   0  0  0  0  0  0  0  0  0  0  0  0
   10.8780    1.7130   23.6440 C   0  0  0  0  0  0  0  0  0  0  0  0
   12.1180    1.1800   23.2450 C   0  0  0  0  0  0  0  0  0  0  0  0
   12.1630    0.0530   22.4040 C   0  0  0  0  0  0  0  0  0  0  0  0
   10.9690   -0.5470   21.9660 C   0  0  0  0  0  0  0  0  0  0  0  0
    9.7350   -0.0230   22.3790 C   0  0  0  0  0  0  0  0  0  0  0  0
    8.5120   -0.5410   21.9130 N   0  0  0  0  0  0  0  0  0  0  0  0
    8.0150   -0.2620   20.6730 C   0  0  0  0  0  0  0  0  0  0  0  0
    8.6920    0.1230   19.7450 O   0  0  0  0  0  0  0  0  0  0  0  0
    6.6520   -0.3560   20.5930 N   0  0  0  0  0  0  0  0  0  0  0  0
    5.9080    0.2530   19.5560 C   0  0  0  0  0  0  0  0  0  0  0  0
    4.9790    1.2510   19.8780 C   0  0  0  0  0  0  0  0  0  0  0  0
    4.3950    1.9630   18.8220 C   0  0  0  0  0  0  0  0  0  0  0  0
    4.7680    1.6740   17.5020 C   0  0  0  0  0  0  0  0  0  0  0  0
    5.6340    0.6860   17.1830 N   0  0  0  0  0  0  0  0  0  0  0  0
    6.1990    0.0040   18.1990 C   0  0  0  0  0  0  0  0  0  0  0  0
    9.6940    1.1020   23.2090 C   0  0  0  0  0  0  0  0  0  0  0  0
  1  2  1  0
  2  3  2  0
  2  4  1  0
  4  5  1  0
  5  6  1  0
  6 21  2  0
  6  7  1  0
  7  8  2  0
  8  9  1  0
  9 10  2  0
 10 11  1  0
 10 21  1  0
 11 12  1  0
 12 13  2  0
 12 14  1  0
 14 15  1  0
 15 16  2  0
 15 20  1  0
 16 17  1  0
 17 18  2  0
 18 19  1  0
 19 20  2  0
M  END
