WPC2798_minimised.pdb
     RDKit          3D

 21 23  0  0  0  0  0  0  0  0999 V2000
   13.7760   -0.7360   20.9450 C   0  0  0  0  0  0  0  0  0  0  0  0
   13.8040   -1.8550   21.9860 C   0  0  0  0  0  0  0  0  0  0  0  0
   12.4860   -1.6630   22.7390 C   0  0  0  0  0  0  0  0  0  0  0  0
   12.4670   -0.1340   22.9450 C   0  0  0  0  0  0  0  0  0  0  0  0
   11.1260    0.5180   23.2320 C   0  0  0  0  0  0  0  0  0  0  0  0
    9.9360    0.0760   22.6310 C   0  0  0  0  0  0  0  0  0  0  0  0
    8.7330    0.7470   22.8820 C   0  0  0  0  0  0  0  0  0  0  0  0
   11.1010    1.6630   24.0450 C   0  0  0  0  0  0  0  0  0  0  0  0
    9.9000    2.3380   24.2910 C   0  0  0  0  0  0  0  0  0  0  0  0
   13.1370    0.4480   21.6910 C   0  0  0  0  0  0  0  0  0  0  0  0
    7.5500    0.3500   22.2370 N   0  0  0  0  0  0  0  0  0  0  0  0
    8.7090    1.8730   23.7140 C   0  0  0  0  0  0  0  0  0  0  0  0
    7.3670    0.3690   20.8860 C   0  0  0  0  0  0  0  0  0  0  0  0
    8.2510    0.5100   20.0610 O   0  0  0  0  0  0  0  0  0  0  0  0
    6.0420    0.2740   20.5660 N   0  0  0  0  0  0  0  0  0  0  0  0
    5.4780    0.7770   19.3770 C   0  0  0  0  0  0  0  0  0  0  0  0
    6.0070    0.4780   18.1040 C   0  0  0  0  0  0  0  0  0  0  0  0
    4.4500    1.7200   19.4870 C   0  0  0  0  0  0  0  0  0  0  0  0
    5.5700    1.0600   16.9680 N   0  0  0  0  0  0  0  0  0  0  0  0
    4.0160    2.3450   18.3150 C   0  0  0  0  0  0  0  0  0  0  0  0
    4.6190    2.0170   17.0950 C   0  0  0  0  0  0  0  0  0  0  0  0
  1  2  1  0
  1 10  1  0
  2  3  1  0
  3  4  1  0
  4 10  1  0
  4  5  1  0
  5  8  1  0
  5  6  2  0
  6  7  1  0
  7 11  1  0
  7 12  2  0
  8  9  2  0
  9 12  1  0
 11 13  1  0
 13 14  2  0
 13 15  1  0
 15 16  1  0
 16 17  2  0
 16 18  1  0
 17 19  1  0
 18 20  2  0
 19 21  2  0
 20 21  1  0
M  END
