WPC2275_minimised.pdb
     RDKit          3D

 24 25  0  0  0  0  0  0  0  0999 V2000
   14.3330    6.8630   21.4490 C   0  0  0  0  0  0  0  0  0  0  0  0
   14.1580    5.5430   21.4320 C   0  0  0  0  0  0  0  0  0  0  0  0
   13.7140    4.7570   22.6330 C   0  0  0  0  0  0  0  0  0  0  0  0
   12.2630    4.6020   22.5840 N   0  0  0  0  0  0  0  0  0  0  0  0
   11.4130    5.1790   23.4910 C   0  0  0  0  0  0  0  0  0  0  0  0
   11.7190    6.1410   24.1720 O   0  0  0  0  0  0  0  0  0  0  0  0
   10.1100    4.4410   23.6910 C   0  0  0  0  0  0  0  0  0  0  0  0
   10.4430    3.0410   24.8410 S   0  0  0  0  0  0  0  0  0  0  0  0
   10.6670    1.6490   23.7670 C   0  0  0  0  0  0  0  0  0  0  0  0
   11.9400    1.2050   23.3730 C   0  0  0  0  0  0  0  0  0  0  0  0
   12.0580    0.1050   22.5030 C   0  0  0  0  0  0  0  0  0  0  0  0
   10.9020   -0.5430   22.0290 C   0  0  0  0  0  0  0  0  0  0  0  0
    9.6360   -0.0980   22.4410 C   0  0  0  0  0  0  0  0  0  0  0  0
    8.4470   -0.6420   21.9220 N   0  0  0  0  0  0  0  0  0  0  0  0
    7.9730   -0.3080   20.6880 C   0  0  0  0  0  0  0  0  0  0  0  0
    8.6660    0.1290   19.7940 O   0  0  0  0  0  0  0  0  0  0  0  0
    6.6140   -0.4100   20.5770 N   0  0  0  0  0  0  0  0  0  0  0  0
    5.8840    0.2250   19.5460 C   0  0  0  0  0  0  0  0  0  0  0  0
    4.9510    1.2170   19.8750 C   0  0  0  0  0  0  0  0  0  0  0  0
    4.3810    1.9490   18.8240 C   0  0  0  0  0  0  0  0  0  0  0  0
    4.7700    1.6820   17.5030 C   0  0  0  0  0  0  0  0  0  0  0  0
    5.6430    0.7020   17.1780 N   0  0  0  0  0  0  0  0  0  0  0  0
    6.1960    0.0030   18.1890 C   0  0  0  0  0  0  0  0  0  0  0  0
    9.5220    0.9910   23.3090 C   0  0  0  0  0  0  0  0  0  0  0  0
  1  2  2  0
  2  3  1  0
  3  4  1  0
  4  5  1  0
  5  6  2  0
  5  7  1  0
  7  8  1  0
  8  9  1  0
  9 24  2  0
  9 10  1  0
 10 11  2  0
 11 12  1  0
 12 13  2  0
 13 14  1  0
 13 24  1  0
 14 15  1  0
 15 16  2  0
 15 17  1  0
 17 18  1  0
 18 19  2  0
 18 23  1  0
 19 20  1  0
 20 21  2  0
 21 22  1  0
 22 23  2  0
M  END
