WPC2668_minimised.pdb
     RDKit          3D

 23 24  0  0  0  0  0  0  0  0999 V2000
    6.7070    3.9080   21.9530 C   0  0  0  0  0  0  0  0  0  0  0  0
    7.8730    4.9010   22.0760 C   0  0  0  0  0  0  0  0  0  0  0  0
    8.8020    4.3340   23.0050 O   0  0  0  0  0  0  0  0  0  0  0  0
    9.8930    5.0600   23.3640 C   0  0  0  0  0  0  0  0  0  0  0  0
    9.9560    6.2770   23.2940 O   0  0  0  0  0  0  0  0  0  0  0  0
   10.7690    4.2530   24.3080 C   0  0  0  0  0  0  0  0  0  0  0  0
   12.1930    3.4800   23.4170 S   0  0  0  0  0  0  0  0  0  0  0  0
   11.7430    1.7940   23.0060 C   0  0  0  0  0  0  0  0  0  0  0  0
   12.7650    0.8590   22.7670 C   0  0  0  0  0  0  0  0  0  0  0  0
   12.4540   -0.4400   22.3280 C   0  0  0  0  0  0  0  0  0  0  0  0
   11.1130   -0.8200   22.1510 C   0  0  0  0  0  0  0  0  0  0  0  0
   10.0900    0.1040   22.4110 C   0  0  0  0  0  0  0  0  0  0  0  0
    8.7410   -0.2050   22.1390 N   0  0  0  0  0  0  0  0  0  0  0  0
    8.1750   -0.0170   20.9090 C   0  0  0  0  0  0  0  0  0  0  0  0
    8.8240    0.2070   19.9100 O   0  0  0  0  0  0  0  0  0  0  0  0
    6.8060   -0.0350   20.8890 N   0  0  0  0  0  0  0  0  0  0  0  0
    6.0390    0.4480   19.7970 C   0  0  0  0  0  0  0  0  0  0  0  0
    5.0740    1.4370   20.0270 C   0  0  0  0  0  0  0  0  0  0  0  0
    4.4810    2.0420   18.9120 C   0  0  0  0  0  0  0  0  0  0  0  0
    4.8610    1.6430   17.6220 C   0  0  0  0  0  0  0  0  0  0  0  0
    5.7430    0.6450   17.3900 N   0  0  0  0  0  0  0  0  0  0  0  0
    6.3290    0.0780   18.4640 C   0  0  0  0  0  0  0  0  0  0  0  0
   10.4060    1.4010   22.8330 C   0  0  0  0  0  0  0  0  0  0  0  0
  1  2  1  0
  2  3  1  0
  3  4  1  0
  4  5  2  0
  4  6  1  0
  6  7  1  0
  7  8  1  0
  8 23  2  0
  8  9  1  0
  9 10  2  0
 10 11  1  0
 11 12  2  0
 12 13  1  0
 12 23  1  0
 13 14  1  0
 14 15  2  0
 14 16  1  0
 16 17  1  0
 17 18  2  0
 17 22  1  0
 18 19  1  0
 19 20  2  0
 20 21  1  0
 21 22  2  0
M  END
