WPC2346_minimised.pdb
     RDKit          3D

 24 26  0  0  0  0  0  0  0  0999 V2000
    8.6530    0.1710   20.0970 O   0  0  0  0  0  0  0  0  0  0  0  0
    7.9420   -0.2820   20.9750 C   0  0  0  0  0  0  0  0  0  0  0  0
    6.5780   -0.2710   20.8680 N   0  0  0  0  0  0  0  0  0  0  0  0
    5.8910    0.3340   19.7860 C   0  0  0  0  0  0  0  0  0  0  0  0
    4.9530    1.3440   20.0370 C   0  0  0  0  0  0  0  0  0  0  0  0
    4.4230    2.0280   18.9340 C   0  0  0  0  0  0  0  0  0  0  0  0
    4.8460    1.6940   17.6380 C   0  0  0  0  0  0  0  0  0  0  0  0
    5.7140    0.6890   17.3840 N   0  0  0  0  0  0  0  0  0  0  0  0
    6.2350    0.0420   18.4470 C   0  0  0  0  0  0  0  0  0  0  0  0
    8.4280   -0.7970   22.1490 N   0  0  0  0  0  0  0  0  0  0  0  0
    9.7930   -0.6940   22.4700 C   0  0  0  0  0  0  0  0  0  0  0  0
   10.7250   -1.4970   21.8000 C   0  0  0  0  0  0  0  0  0  0  0  0
   12.0840   -1.1490   21.8040 C   0  0  0  0  0  0  0  0  0  0  0  0
   12.4910    0.0400   22.4280 C   0  0  0  0  0  0  0  0  0  0  0  0
   11.5530    0.8410   23.0980 C   0  0  0  0  0  0  0  0  0  0  0  0
   12.0890    2.4080   23.7470 S   0  0  0  0  0  0  0  0  0  0  0  0
   10.8450    3.6600   23.3830 C   0  0  0  0  0  0  0  0  0  0  0  0
    9.6840    3.4320   22.6110 C   0  0  0  0  0  0  0  0  0  0  0  0
    8.7410    4.4550   22.4140 C   0  0  0  0  0  0  0  0  0  0  0  0
    8.9800    5.7370   22.9210 C   0  0  0  0  0  0  0  0  0  0  0  0
   10.1560    5.9890   23.6380 C   0  0  0  0  0  0  0  0  0  0  0  0
   11.0780    4.9610   23.8670 C   0  0  0  0  0  0  0  0  0  0  0  0
   12.2140    5.2580   24.5330 F   0  0  0  0  0  0  0  0  0  0  0  0
   10.2210    0.4180   23.2020 C   0  0  0  0  0  0  0  0  0  0  0  0
  1  2  2  0
  2  3  1  0
  2 10  1  0
  3  4  1  0
  4  5  2  0
  4  9  1  0
  5  6  1  0
  6  7  2  0
  7  8  1  0
  8  9  2  0
 10 11  1  0
 11 24  1  0
 11 12  2  0
 12 13  1  0
 13 14  2  0
 14 15  1  0
 15 16  1  0
 15 24  2  0
 16 17  1  0
 17 18  2  0
 17 22  1  0
 18 19  1  0
 19 20  2  0
 20 21  1  0
 21 22  2  0
 22 23  1  0
M  END
