WPC2158_minimised.pdb
     RDKit          3D

 23 25  0  0  1  0  0  0  0  0999 V2000
    8.8550    1.1090   20.5490 O   0  0  0  0  0  0  0  0  0  0  0  0
    8.6340   -0.0700   20.7320 C   0  0  0  0  0  0  0  0  0  0  0  0
    7.5140   -0.6840   20.2450 N   0  0  0  0  0  0  0  0  0  0  0  0
    6.5530   -0.0230   19.4380 C   0  0  0  0  0  0  0  0  0  0  0  0
    5.8440    1.0770   19.9440 C   0  0  0  0  0  0  0  0  0  0  0  0
    5.0010    1.7780   19.0690 C   0  0  0  0  0  0  0  0  0  0  0  0
    4.9220    1.3860   17.7250 C   0  0  0  0  0  0  0  0  0  0  0  0
    5.5820    0.3090   17.2420 N   0  0  0  0  0  0  0  0  0  0  0  0
    6.3810   -0.3720   18.0870 C   0  0  0  0  0  0  0  0  0  0  0  0
    9.4910   -0.8700   21.4340 N   0  0  0  0  0  0  0  0  0  0  0  0
   10.5880   -0.3390   22.1420 C   0  0  0  0  0  0  0  0  0  0  0  0
   11.9120   -0.5820   21.7470 C   0  0  0  0  0  0  0  0  0  0  0  0
   12.9670    0.0810   22.4020 C   0  0  0  0  0  0  0  0  0  0  0  0
   12.6930    0.9720   23.4560 C   0  0  0  0  0  0  0  0  0  0  0  0
   11.3650    1.2070   23.8430 C   0  0  0  0  0  0  0  0  0  0  0  0
   10.9370    2.1880   25.2560 S   0  0  0  0  0  0  0  0  0  0  0  0
   10.8570    3.9740   24.8110 C   0  0  2  0  0  0  0  0  0  0  0  0
   10.0460    4.3400   23.5610 C   0  0  0  0  0  0  0  0  0  0  0  0
   10.4690    5.7970   23.2710 C   0  0  0  0  0  0  0  0  0  0  0  0
   11.7690    6.0570   24.0760 C   0  0  0  0  0  0  0  0  0  0  0  0
   12.1910    4.7120   24.6410 C   0  0  2  0  0  0  0  0  0  0  0  0
   13.0610    4.0710   23.7150 O   0  0  0  0  0  0  0  0  0  0  0  0
   10.3220    0.5520   23.1880 C   0  0  0  0  0  0  0  0  0  0  0  0
  1  2  2  0
  2  3  1  0
  2 10  1  0
  3  4  1  0
  4  5  2  0
  4  9  1  0
  5  6  1  0
  6  7  2  0
  7  8  1  0
  8  9  2  0
 10 11  1  0
 11 23  1  0
 11 12  2  0
 12 13  1  0
 13 14  2  0
 14 15  1  0
 15 16  1  0
 15 23  2  0
 17 16  1  6
 17 18  1  0
 17 21  1  0
 18 19  1  0
 19 20  1  0
 20 21  1  0
 21 22  1  6
M  END
