WPC2391_minimised.pdb
     RDKit          3D

 21 22  0  0  0  0  0  0  0  0999 V2000
   12.3550    5.7250   24.5190 C   0  0  0  0  0  0  0  0  0  0  0  0
   11.5370    4.6760   23.3160 S   0  0  0  0  0  0  0  0  0  0  0  0
   12.1030    5.1120   22.0580 O   0  0  0  0  0  0  0  0  0  0  0  0
   10.1270    4.7730   23.6430 O   0  0  0  0  0  0  0  0  0  0  0  0
   12.1570    3.0450   23.7650 C   0  0  0  0  0  0  0  0  0  0  0  0
   11.6420    1.8120   23.0400 C   0  0  0  0  0  0  0  0  0  0  0  0
   12.5610    0.8280   22.6310 C   0  0  0  0  0  0  0  0  0  0  0  0
   12.1160   -0.3480   22.0070 C   0  0  0  0  0  0  0  0  0  0  0  0
   10.7430   -0.5530   21.8080 C   0  0  0  0  0  0  0  0  0  0  0  0
    9.8220    0.4160   22.2350 C   0  0  0  0  0  0  0  0  0  0  0  0
    8.4440    0.2450   21.9950 N   0  0  0  0  0  0  0  0  0  0  0  0
    7.8910    0.1920   20.7480 C   0  0  0  0  0  0  0  0  0  0  0  0
    8.5460    0.1110   19.7280 O   0  0  0  0  0  0  0  0  0  0  0  0
    6.5280    0.3030   20.7420 N   0  0  0  0  0  0  0  0  0  0  0  0
    5.7670    0.7190   19.6230 C   0  0  0  0  0  0  0  0  0  0  0  0
    4.8040    1.7160   19.8120 C   0  0  0  0  0  0  0  0  0  0  0  0
    4.1870    2.2500   18.6760 C   0  0  0  0  0  0  0  0  0  0  0  0
    4.5680    1.7970   17.4050 C   0  0  0  0  0  0  0  0  0  0  0  0
    5.4500    0.7890   17.2140 N   0  0  0  0  0  0  0  0  0  0  0  0
    6.0400    0.2720   18.3100 C   0  0  0  0  0  0  0  0  0  0  0  0
   10.2680    1.5930   22.8520 C   0  0  0  0  0  0  0  0  0  0  0  0
  1  2  1  0
  2  3  2  0
  2  4  2  0
  2  5  1  0
  5  6  1  0
  6 21  2  0
  6  7  1  0
  7  8  2  0
  8  9  1  0
  9 10  2  0
 10 11  1  0
 10 21  1  0
 11 12  1  0
 12 13  2  0
 12 14  1  0
 14 15  1  0
 15 16  2  0
 15 20  1  0
 16 17  1  0
 17 18  2  0
 18 19  1  0
 19 20  2  0
M  END
