WPC2567_minimised.pdb
     RDKit          3D

 22 23  0  0  0  0  0  0  0  0999 V2000
   12.9060    5.1630   21.5520 N   0  0  0  0  0  0  0  0  0  0  0  0
   12.9190    5.0660   22.7910 C   0  0  0  0  0  0  0  0  0  0  0  0
   14.0580    4.8170   23.4110 N   0  0  0  0  0  0  0  0  0  0  0  0
   11.9430    4.5570   23.5480 N   0  0  0  0  0  0  0  0  0  0  0  0
   11.1180    3.4210   23.1220 C   0  0  0  0  0  0  0  0  0  0  0  0
   11.5040    2.1700   23.9330 C   0  0  0  0  0  0  0  0  0  0  0  0
   11.0960    0.8870   23.2380 C   0  0  0  0  0  0  0  0  0  0  0  0
   12.0710   -0.0250   22.7970 C   0  0  0  0  0  0  0  0  0  0  0  0
   11.6940   -1.1860   22.1050 C   0  0  0  0  0  0  0  0  0  0  0  0
   10.3390   -1.4200   21.8250 C   0  0  0  0  0  0  0  0  0  0  0  0
    9.3690   -0.5030   22.2540 C   0  0  0  0  0  0  0  0  0  0  0  0
    8.0340   -0.6210   21.8330 N   0  0  0  0  0  0  0  0  0  0  0  0
    7.6380   -0.2810   20.5720 C   0  0  0  0  0  0  0  0  0  0  0  0
    8.4050   -0.1020   19.6470 O   0  0  0  0  0  0  0  0  0  0  0  0
    6.2890   -0.0940   20.4680 N   0  0  0  0  0  0  0  0  0  0  0  0
    5.6500    0.5450   19.3810 C   0  0  0  0  0  0  0  0  0  0  0  0
    4.7000    1.5410   19.6390 C   0  0  0  0  0  0  0  0  0  0  0  0
    4.1900    2.2520   18.5460 C   0  0  0  0  0  0  0  0  0  0  0  0
    4.6590    1.9700   17.2550 C   0  0  0  0  0  0  0  0  0  0  0  0
    5.5430    0.9810   16.9940 N   0  0  0  0  0  0  0  0  0  0  0  0
    6.0280    0.2920   18.0450 C   0  0  0  0  0  0  0  0  0  0  0  0
    9.7420    0.6370   22.9740 C   0  0  0  0  0  0  0  0  0  0  0  0
  1  2  2  0
  2  3  1  0
  2  4  1  0
  4  5  1  0
  5  6  1  0
  6  7  1  0
  7 22  2  0
  7  8  1  0
  8  9  2  0
  9 10  1  0
 10 11  2  0
 11 12  1  0
 11 22  1  0
 12 13  1  0
 13 14  2  0
 13 15  1  0
 15 16  1  0
 16 17  2  0
 16 21  1  0
 17 18  1  0
 18 19  2  0
 19 20  1  0
 20 21  2  0
M  END
