WPC2820_minimised.pdb
     RDKit          3D

 18 19  0  0  0  0  0  0  0  0999 V2000
   13.6220   -1.4720   21.1130 S   0  0  0  0  0  0  0  0  0  0  0  0
   13.4360    0.0050   21.9540 N   0  0  0  0  0  0  0  0  0  0  0  0
   12.2620    0.4870   22.5040 C   0  0  0  0  0  0  0  0  0  0  0  0
   11.0110   -0.0790   22.2110 C   0  0  0  0  0  0  0  0  0  0  0  0
    9.8430    0.4780   22.7540 C   0  0  0  0  0  0  0  0  0  0  0  0
   12.3350    1.6100   23.3370 C   0  0  0  0  0  0  0  0  0  0  0  0
   11.1720    2.1510   23.9060 C   0  0  0  0  0  0  0  0  0  0  0  0
    8.5680    0.0260   22.3600 N   0  0  0  0  0  0  0  0  0  0  0  0
    9.9260    1.5760   23.6200 C   0  0  0  0  0  0  0  0  0  0  0  0
    8.1040    0.0990   21.0760 C   0  0  0  0  0  0  0  0  0  0  0  0
    8.8150    0.2930   20.1110 O   0  0  0  0  0  0  0  0  0  0  0  0
    6.7430    0.0090   20.9690 N   0  0  0  0  0  0  0  0  0  0  0  0
    6.0150    0.4580   19.8380 C   0  0  0  0  0  0  0  0  0  0  0  0
    6.3480    0.0650   18.5230 C   0  0  0  0  0  0  0  0  0  0  0  0
    5.0300    1.4360   20.0220 C   0  0  0  0  0  0  0  0  0  0  0  0
    5.7720    0.5920   17.4210 N   0  0  0  0  0  0  0  0  0  0  0  0
    4.4430    1.9940   18.8800 C   0  0  0  0  0  0  0  0  0  0  0  0
    4.8620    1.5730   17.6100 C   0  0  0  0  0  0  0  0  0  0  0  0
  1  2  1  0
  2  3  1  0
  3  4  2  0
  3  6  1  0
  4  5  1  0
  5  9  2  0
  5  8  1  0
  6  7  2  0
  7  9  1  0
  8 10  1  0
 10 11  2  0
 10 12  1  0
 12 13  1  0
 13 14  2  0
 13 15  1  0
 14 16  1  0
 15 17  2  0
 16 18  2  0
 17 18  1  0
M  END
