WPC2741_minimised.pdb
     RDKit          3D

 22 24  0  0  0  0  0  0  0  0999 V2000
   13.6460   -1.9940   20.8220 C   0  0  0  0  0  0  0  0  0  0  0  0
   13.9400   -0.6290   20.2020 C   0  0  0  0  0  0  0  0  0  0  0  0
   13.0680    0.3030   20.8470 O   0  0  0  0  0  0  0  0  0  0  0  0
   13.2380    0.4530   22.2750 C   0  0  0  0  0  0  0  0  0  0  0  0
   11.8790    0.4130   22.9760 C   0  0  0  0  0  0  0  0  0  0  0  0
   10.6840    0.1620   22.2720 C   0  0  0  0  0  0  0  0  0  0  0  0
    9.4500    0.1130   22.9450 C   0  0  0  0  0  0  0  0  0  0  0  0
   11.8240    0.5720   24.3690 C   0  0  0  0  0  0  0  0  0  0  0  0
   10.6010    0.4840   25.0530 C   0  0  0  0  0  0  0  0  0  0  0  0
   14.0430   -0.6340   22.7860 O   0  0  0  0  0  0  0  0  0  0  0  0
   13.5990   -1.9400   22.3560 C   0  0  0  0  0  0  0  0  0  0  0  0
    8.2190   -0.0680   22.2700 N   0  0  0  0  0  0  0  0  0  0  0  0
    9.4160    0.2640   24.3380 C   0  0  0  0  0  0  0  0  0  0  0  0
    7.9100    0.2120   20.9650 C   0  0  0  0  0  0  0  0  0  0  0  0
    8.7000    0.5020   20.0880 O   0  0  0  0  0  0  0  0  0  0  0  0
    6.5610    0.1680   20.7540 N   0  0  0  0  0  0  0  0  0  0  0  0
    5.8960    0.6580   19.6080 C   0  0  0  0  0  0  0  0  0  0  0  0
    6.2850    0.2960   18.3000 C   0  0  0  0  0  0  0  0  0  0  0  0
    4.8780    1.6040   19.7800 C   0  0  0  0  0  0  0  0  0  0  0  0
    5.7160    0.8130   17.1900 N   0  0  0  0  0  0  0  0  0  0  0  0
    4.3080    2.1610   18.6300 C   0  0  0  0  0  0  0  0  0  0  0  0
    4.7700    1.7640   17.3680 C   0  0  0  0  0  0  0  0  0  0  0  0
  1  2  1  0
  1 11  1  0
  2  3  1  0
  3  4  1  0
  4 10  1  0
  4  5  1  0
  5  8  1  0
  5  6  2  0
  6  7  1  0
  7 12  1  0
  7 13  2  0
  8  9  2  0
  9 13  1  0
 10 11  1  0
 12 14  1  0
 14 15  2  0
 14 16  1  0
 16 17  1  0
 17 18  2  0
 17 19  1  0
 18 20  1  0
 19 21  2  0
 20 22  2  0
 21 22  1  0
M  END
