WPC2691_minimised.pdb
     RDKit          3D

 18 19  0  0  0  0  0  0  0  0999 V2000
   13.4120   -1.4250   21.3070 C   0  0  0  0  0  0  0  0  0  0  0  0
   13.3860   -0.1280   21.9910 N   0  0  0  0  0  0  0  0  0  0  0  0
   12.2450    0.4410   22.5320 C   0  0  0  0  0  0  0  0  0  0  0  0
   10.9610   -0.0660   22.2760 C   0  0  0  0  0  0  0  0  0  0  0  0
    9.8300    0.5910   22.7830 C   0  0  0  0  0  0  0  0  0  0  0  0
   12.3890    1.5990   23.3050 C   0  0  0  0  0  0  0  0  0  0  0  0
   11.2600    2.2420   23.8390 C   0  0  0  0  0  0  0  0  0  0  0  0
    8.5330    0.1890   22.4070 N   0  0  0  0  0  0  0  0  0  0  0  0
    9.9800    1.7310   23.5820 C   0  0  0  0  0  0  0  0  0  0  0  0
    8.0790    0.2050   21.1170 C   0  0  0  0  0  0  0  0  0  0  0  0
    8.8000    0.3250   20.1460 O   0  0  0  0  0  0  0  0  0  0  0  0
    6.7160    0.1430   21.0070 N   0  0  0  0  0  0  0  0  0  0  0  0
    5.9980    0.5550   19.8560 C   0  0  0  0  0  0  0  0  0  0  0  0
    6.3440    0.1270   18.5530 C   0  0  0  0  0  0  0  0  0  0  0  0
    5.0060    1.5310   20.0050 C   0  0  0  0  0  0  0  0  0  0  0  0
    5.7750    0.6230   17.4330 N   0  0  0  0  0  0  0  0  0  0  0  0
    4.4260    2.0560   18.8440 C   0  0  0  0  0  0  0  0  0  0  0  0
    4.8600    1.6060   17.5900 C   0  0  0  0  0  0  0  0  0  0  0  0
  1  2  1  0
  2  3  1  0
  3  4  2  0
  3  6  1  0
  4  5  1  0
  5  9  2  0
  5  8  1  0
  6  7  2  0
  7  9  1  0
  8 10  1  0
 10 11  2  0
 10 12  1  0
 12 13  1  0
 13 14  2  0
 13 15  1  0
 14 16  1  0
 15 17  2  0
 16 18  2  0
 17 18  1  0
M  END
