WPC2554_minimised.pdb
     RDKit          3D

 21 22  0  0  0  0  0  0  0  0999 V2000
   12.1620    5.9630   24.3660 C   0  0  0  0  0  0  0  0  0  0  0  0
   11.6240    5.1700   23.4330 C   0  0  0  0  0  0  0  0  0  0  0  0
   11.9210    3.6960   23.3190 C   0  0  0  0  0  0  0  0  0  0  0  0
   11.2640    3.0140   24.4380 N   0  0  0  0  0  0  0  0  0  0  0  0
   11.6320    1.6050   24.6320 C   0  0  0  0  0  0  0  0  0  0  0  0
   11.2180    0.6870   23.5060 C   0  0  0  0  0  0  0  0  0  0  0  0
   12.1890   -0.0130   22.7670 C   0  0  0  0  0  0  0  0  0  0  0  0
   11.7950   -0.9700   21.8200 C   0  0  0  0  0  0  0  0  0  0  0  0
   10.4300   -1.1910   21.5870 C   0  0  0  0  0  0  0  0  0  0  0  0
    9.4640   -0.4380   22.2680 C   0  0  0  0  0  0  0  0  0  0  0  0
    8.1080   -0.5180   21.9010 N   0  0  0  0  0  0  0  0  0  0  0  0
    7.6600   -0.2180   20.6460 C   0  0  0  0  0  0  0  0  0  0  0  0
    8.3900   -0.0560   19.6870 O   0  0  0  0  0  0  0  0  0  0  0  0
    6.3040   -0.0610   20.5780 N   0  0  0  0  0  0  0  0  0  0  0  0
    5.6290    0.5370   19.4880 C   0  0  0  0  0  0  0  0  0  0  0  0
    4.6900    1.5450   19.7420 C   0  0  0  0  0  0  0  0  0  0  0  0
    4.1560    2.2270   18.6410 C   0  0  0  0  0  0  0  0  0  0  0  0
    4.5880    1.9020   17.3480 C   0  0  0  0  0  0  0  0  0  0  0  0
    5.4560    0.8970   17.0920 N   0  0  0  0  0  0  0  0  0  0  0  0
    5.9670    0.2390   18.1510 C   0  0  0  0  0  0  0  0  0  0  0  0
    9.8540    0.4800   23.2470 C   0  0  0  0  0  0  0  0  0  0  0  0
  1  2  2  0
  2  3  1  0
  3  4  1  0
  4  5  1  0
  5  6  1  0
  6 21  2  0
  6  7  1  0
  7  8  2  0
  8  9  1  0
  9 10  2  0
 10 11  1  0
 10 21  1  0
 11 12  1  0
 12 13  2  0
 12 14  1  0
 14 15  1  0
 15 16  2  0
 15 20  1  0
 16 17  1  0
 17 18  2  0
 18 19  1  0
 19 20  2  0
M  END
