WPC2695_minimised.pdb
     RDKit          3D

 21 22  0  0  1  0  0  0  0  0999 V2000
   15.4880    1.0390   20.0710 C   0  0  0  0  0  0  0  0  0  0  0  0
   15.2370    1.4070   21.4760 N   0  0  0  0  0  0  0  0  0  0  0  0
   13.8460    1.4650   21.9640 C   0  0  0  0  0  0  0  0  0  0  0  0
   13.0660    0.1300   21.8470 C   0  0  1  0  0  0  0  0  0  0  0  0
   13.9200   -1.1000   22.2030 C   0  0  0  0  0  0  0  0  0  0  0  0
   11.7940    0.1620   22.6870 C   0  0  0  0  0  0  0  0  0  0  0  0
   10.5530   -0.0290   22.0630 C   0  0  0  0  0  0  0  0  0  0  0  0
    9.3580    0.0360   22.8000 C   0  0  0  0  0  0  0  0  0  0  0  0
   11.8360    0.3650   24.0780 C   0  0  0  0  0  0  0  0  0  0  0  0
   10.6500    0.3770   24.8300 C   0  0  0  0  0  0  0  0  0  0  0  0
    8.0900   -0.0670   22.1840 N   0  0  0  0  0  0  0  0  0  0  0  0
    9.4120    0.2260   24.1880 C   0  0  0  0  0  0  0  0  0  0  0  0
    7.7480    0.2650   20.8990 C   0  0  0  0  0  0  0  0  0  0  0  0
    8.5220    0.5740   20.0140 O   0  0  0  0  0  0  0  0  0  0  0  0
    6.3960    0.2320   20.7080 N   0  0  0  0  0  0  0  0  0  0  0  0
    5.7280    0.7300   19.5670 C   0  0  0  0  0  0  0  0  0  0  0  0
    6.1300    0.3890   18.2570 C   0  0  0  0  0  0  0  0  0  0  0  0
    4.7060    1.6700   19.7430 C   0  0  0  0  0  0  0  0  0  0  0  0
    5.5700    0.9160   17.1490 N   0  0  0  0  0  0  0  0  0  0  0  0
    4.1500    2.2450   18.5950 C   0  0  0  0  0  0  0  0  0  0  0  0
    4.6220    1.8640   17.3310 C   0  0  0  0  0  0  0  0  0  0  0  0
  1  2  1  0
  2  3  1  0
  3  4  1  0
  4  5  1  1
  4  6  1  0
  6  9  2  0
  6  7  1  0
  7  8  2  0
  8 11  1  0
  8 12  1  0
  9 10  1  0
 10 12  2  0
 11 13  1  0
 13 14  2  0
 13 15  1  0
 15 16  1  0
 16 17  2  0
 16 18  1  0
 17 19  1  0
 18 20  2  0
 19 21  2  0
 20 21  1  0
M  END
