WPC2898_minimised.pdb
     RDKit          3D

 22 23  0  0  0  0  0  0  0  0999 V2000
   16.9120    1.1660   18.1870 C   0  0  0  0  0  0  0  0  0  0  0  0
   15.5310    0.5600   18.3640 C   0  0  0  0  0  0  0  0  0  0  0  0
   15.3730    0.0090   19.7960 C   0  0  0  0  0  0  0  0  0  0  0  0
   14.2360   -1.0140   19.9340 C   0  0  0  0  0  0  0  0  0  0  0  0
   13.0990   -0.5840   20.7470 N   0  0  0  0  0  0  0  0  0  0  0  0
   13.1770   -0.6520   22.2040 C   0  0  0  0  0  0  0  0  0  0  0  0
   11.9240   -0.0460   22.8270 C   0  0  0  0  0  0  0  0  0  0  0  0
   10.6380   -0.3790   22.3480 C   0  0  0  0  0  0  0  0  0  0  0  0
    9.4930    0.2120   22.9080 C   0  0  0  0  0  0  0  0  0  0  0  0
   12.0410    0.8900   23.8700 C   0  0  0  0  0  0  0  0  0  0  0  0
   10.8930    1.4670   24.4390 C   0  0  0  0  0  0  0  0  0  0  0  0
    8.2050   -0.0440   22.3930 N   0  0  0  0  0  0  0  0  0  0  0  0
    9.6210    1.1210   23.9650 C   0  0  0  0  0  0  0  0  0  0  0  0
    7.8100    0.2000   21.1060 C   0  0  0  0  0  0  0  0  0  0  0  0
    8.5650    0.4860   20.2000 O   0  0  0  0  0  0  0  0  0  0  0  0
    6.4550    0.1270   20.9280 N   0  0  0  0  0  0  0  0  0  0  0  0
    5.7750    0.5890   19.7750 C   0  0  0  0  0  0  0  0  0  0  0  0
    6.1650    0.2100   18.4700 C   0  0  0  0  0  0  0  0  0  0  0  0
    4.7610    1.5420   19.9290 C   0  0  0  0  0  0  0  0  0  0  0  0
    5.5960    0.7060   17.3500 N   0  0  0  0  0  0  0  0  0  0  0  0
    4.2010    2.0910   18.7690 C   0  0  0  0  0  0  0  0  0  0  0  0
    4.6560    1.6660   17.5130 C   0  0  0  0  0  0  0  0  0  0  0  0
  1  2  1  0
  2  3  1  0
  3  4  1  0
  4  5  1  0
  5  6  1  0
  6  7  1  0
  7 10  2  0
  7  8  1  0
  8  9  2  0
  9 12  1  0
  9 13  1  0
 10 11  1  0
 11 13  2  0
 12 14  1  0
 14 15  2  0
 14 16  1  0
 16 17  1  0
 17 18  2  0
 17 19  1  0
 18 20  1  0
 19 21  2  0
 20 22  2  0
 21 22  1  0
M  END
