WPC2085_minimised.pdb
     RDKit          3D

 24 26  0  0  0  0  0  0  0  0999 V2000
    8.6500   -0.1340   19.6430 O   0  0  0  0  0  0  0  0  0  0  0  0
    7.9320   -0.4080   20.5830 C   0  0  0  0  0  0  0  0  0  0  0  0
    6.5680   -0.3540   20.5080 N   0  0  0  0  0  0  0  0  0  0  0  0
    5.8650    0.3040   19.4710 C   0  0  0  0  0  0  0  0  0  0  0  0
    4.9490    1.3130   19.7960 C   0  0  0  0  0  0  0  0  0  0  0  0
    4.3780    2.0420   18.7450 C   0  0  0  0  0  0  0  0  0  0  0  0
    4.7550    1.7620   17.4230 C   0  0  0  0  0  0  0  0  0  0  0  0
    5.6150    0.7700   17.1010 N   0  0  0  0  0  0  0  0  0  0  0  0
    6.1620    0.0680   18.1130 C   0  0  0  0  0  0  0  0  0  0  0  0
    8.3880   -0.7020   21.8350 N   0  0  0  0  0  0  0  0  0  0  0  0
    9.6010   -0.1790   22.3200 C   0  0  0  0  0  0  0  0  0  0  0  0
   10.8490   -0.6080   21.8460 C   0  0  0  0  0  0  0  0  0  0  0  0
   12.0160    0.0730   22.2360 C   0  0  0  0  0  0  0  0  0  0  0  0
   11.9250    1.1970   23.0770 C   0  0  0  0  0  0  0  0  0  0  0  0
   10.6700    1.6210   23.5540 C   0  0  0  0  0  0  0  0  0  0  0  0
   10.5300    2.8310   24.4570 C   0  0  0  0  0  0  0  0  0  0  0  0
   10.1290    4.0690   23.7700 N   0  0  0  0  0  0  0  0  0  0  0  0
   10.8800    5.1960   23.7120 C   0  0  0  0  0  0  0  0  0  0  0  0
   11.9980    5.3320   24.1750 O   0  0  0  0  0  0  0  0  0  0  0  0
   10.1060    6.1810   23.1100 N   0  0  0  0  0  0  0  0  0  0  0  0
    8.9440    5.6710   22.7970 N   0  0  0  0  0  0  0  0  0  0  0  0
    8.9230    4.3370   23.1910 C   0  0  0  0  0  0  0  0  0  0  0  0
    7.9690    3.5860   23.1270 O   0  0  0  0  0  0  0  0  0  0  0  0
    9.5200    0.9060   23.1950 C   0  0  0  0  0  0  0  0  0  0  0  0
  1  2  2  0
  2  3  1  0
  2 10  1  0
  3  4  1  0
  4  5  2  0
  4  9  1  0
  5  6  1  0
  6  7  2  0
  7  8  1  0
  8  9  2  0
 10 11  1  0
 11 24  1  0
 11 12  2  0
 12 13  1  0
 13 14  2  0
 14 15  1  0
 15 16  1  0
 15 24  2  0
 16 17  1  0
 17 18  1  0
 17 22  1  0
 18 19  2  0
 18 20  1  0
 20 21  2  0
 21 22  1  0
 22 23  2  0
M  END
