WPC2556_minimised.pdb
     RDKit          3D

 22 24  0  0  0  0  0  0  0  0999 V2000
    8.5070    0.1050   19.6970 O   0  0  0  0  0  0  0  0  0  0  0  0
    7.8080   -0.2600   20.6200 C   0  0  0  0  0  0  0  0  0  0  0  0
    6.4450   -0.3140   20.5320 N   0  0  0  0  0  0  0  0  0  0  0  0
    5.7230    0.3110   19.4900 C   0  0  0  0  0  0  0  0  0  0  0  0
    4.7930    1.3090   19.8050 C   0  0  0  0  0  0  0  0  0  0  0  0
    4.2330    2.0350   18.7450 C   0  0  0  0  0  0  0  0  0  0  0  0
    4.6270    1.7520   17.4280 C   0  0  0  0  0  0  0  0  0  0  0  0
    5.4970    0.7650   17.1160 N   0  0  0  0  0  0  0  0  0  0  0  0
    6.0400    0.0720   18.1360 C   0  0  0  0  0  0  0  0  0  0  0  0
    8.2810   -0.5600   21.8640 N   0  0  0  0  0  0  0  0  0  0  0  0
    9.5310   -0.1170   22.3330 C   0  0  0  0  0  0  0  0  0  0  0  0
   10.7310   -0.6130   21.8030 C   0  0  0  0  0  0  0  0  0  0  0  0
   11.9580   -0.0630   22.2120 C   0  0  0  0  0  0  0  0  0  0  0  0
   11.9770    0.9800   23.1530 C   0  0  0  0  0  0  0  0  0  0  0  0
   10.7700    1.4640   23.6910 C   0  0  0  0  0  0  0  0  0  0  0  0
   10.7720    2.5290   24.7660 C   0  0  0  0  0  0  0  0  0  0  0  0
   10.7920    3.9510   24.2970 C   0  0  0  0  0  0  0  0  0  0  0  0
   10.1540    4.4590   23.1930 N   0  0  0  0  0  0  0  0  0  0  0  0
   10.3180    5.8250   23.2330 C   0  0  0  0  0  0  0  0  0  0  0  0
   11.1310    6.0700   24.3090 C   0  0  0  0  0  0  0  0  0  0  0  0
   11.3890    4.9060   24.9770 N   0  0  0  0  0  0  0  0  0  0  0  0
    9.5510    0.9110   23.2800 C   0  0  0  0  0  0  0  0  0  0  0  0
  1  2  2  0
  2  3  1  0
  2 10  1  0
  3  4  1  0
  4  5  2  0
  4  9  1  0
  5  6  1  0
  6  7  2  0
  7  8  1  0
  8  9  2  0
 10 11  1  0
 11 22  1  0
 11 12  2  0
 12 13  1  0
 13 14  2  0
 14 15  1  0
 15 16  1  0
 15 22  2  0
 16 17  1  0
 17 18  1  0
 17 21  2  0
 18 19  1  0
 19 20  2  0
 20 21  1  0
M  END
