WPC2704_minimised.pdb
     RDKit          3D

 19 20  0  0  0  0  0  0  0  0999 V2000
   14.3400   -1.2420   20.3760 C   0  0  0  0  0  0  0  0  0  0  0  0
   13.8510   -0.8530   21.6620 O   0  0  0  0  0  0  0  0  0  0  0  0
   12.6010   -1.4650   22.0250 C   0  0  0  0  0  0  0  0  0  0  0  0
   11.6570   -0.4050   22.5660 C   0  0  0  0  0  0  0  0  0  0  0  0
   10.2900   -0.4980   22.2640 C   0  0  0  0  0  0  0  0  0  0  0  0
    9.3930    0.4800   22.7140 C   0  0  0  0  0  0  0  0  0  0  0  0
   12.1220    0.6910   23.3200 C   0  0  0  0  0  0  0  0  0  0  0  0
   11.2220    1.6680   23.7780 C   0  0  0  0  0  0  0  0  0  0  0  0
    8.0410    0.4230   22.3220 N   0  0  0  0  0  0  0  0  0  0  0  0
    9.8550    1.5580   23.4810 C   0  0  0  0  0  0  0  0  0  0  0  0
    7.6210    0.4730   21.0230 C   0  0  0  0  0  0  0  0  0  0  0  0
    8.3740    0.4730   20.0690 O   0  0  0  0  0  0  0  0  0  0  0  0
    6.2640    0.5500   20.8850 N   0  0  0  0  0  0  0  0  0  0  0  0
    5.5940    0.9300   19.6980 C   0  0  0  0  0  0  0  0  0  0  0  0
    5.9790    0.4560   18.4220 C   0  0  0  0  0  0  0  0  0  0  0  0
    4.5980    1.9100   19.7850 C   0  0  0  0  0  0  0  0  0  0  0  0
    5.4600    0.9230   17.2680 N   0  0  0  0  0  0  0  0  0  0  0  0
    4.0670    2.4030   18.5890 C   0  0  0  0  0  0  0  0  0  0  0  0
    4.5490    1.9200   17.3650 C   0  0  0  0  0  0  0  0  0  0  0  0
  1  2  1  0
  2  3  1  0
  3  4  1  0
  4  7  2  0
  4  5  1  0
  5  6  2  0
  6  9  1  0
  6 10  1  0
  7  8  1  0
  8 10  2  0
  9 11  1  0
 11 12  2  0
 11 13  1  0
 13 14  1  0
 14 15  2  0
 14 16  1  0
 15 17  1  0
 16 18  2  0
 17 19  2  0
 18 19  1  0
M  END
