WPC2647_minimised.pdb
     RDKit          3D

 20 21  0  0  0  0  0  0  0  0999 V2000
   12.5840    6.5360   25.4000 N   0  0  0  0  0  0  0  0  0  0  0  0
   12.2620    5.7680   24.4500 C   0  0  0  0  0  0  0  0  0  0  0  0
   13.2120    5.5710   23.5140 N   0  0  0  0  0  0  0  0  0  0  0  0
   10.7160    5.1060   24.0250 S   0  0  0  0  0  0  0  0  0  0  0  0
   10.8420    3.3700   23.5610 C   0  0  0  0  0  0  0  0  0  0  0  0
   12.0530    2.6630   23.4100 C   0  0  0  0  0  0  0  0  0  0  0  0
   12.0510    1.3020   23.0650 C   0  0  0  0  0  0  0  0  0  0  0  0
   10.8370    0.6380   22.8320 C   0  0  0  0  0  0  0  0  0  0  0  0
    9.6290    1.3390   22.9560 C   0  0  0  0  0  0  0  0  0  0  0  0
    8.4080    0.7310   22.5940 N   0  0  0  0  0  0  0  0  0  0  0  0
    8.0400    0.5380   21.2910 C   0  0  0  0  0  0  0  0  0  0  0  0
    8.8160    0.6050   20.3600 O   0  0  0  0  0  0  0  0  0  0  0  0
    6.6970    0.3510   21.1190 N   0  0  0  0  0  0  0  0  0  0  0  0
    6.0160    0.6760   19.9210 C   0  0  0  0  0  0  0  0  0  0  0  0
    4.9940    1.6310   19.9890 C   0  0  0  0  0  0  0  0  0  0  0  0
    4.4540    2.0950   18.7850 C   0  0  0  0  0  0  0  0  0  0  0  0
    4.9510    1.6070   17.5700 C   0  0  0  0  0  0  0  0  0  0  0  0
    5.8940    0.6400   17.4900 N   0  0  0  0  0  0  0  0  0  0  0  0
    6.4280    0.2050   18.6530 C   0  0  0  0  0  0  0  0  0  0  0  0
    9.6350    2.6940   23.3240 C   0  0  0  0  0  0  0  0  0  0  0  0
  1  2  2  0
  2  3  1  0
  2  4  1  0
  4  5  1  0
  5 20  2  0
  5  6  1  0
  6  7  2  0
  7  8  1  0
  8  9  2  0
  9 10  1  0
  9 20  1  0
 10 11  1  0
 11 12  2  0
 11 13  1  0
 13 14  1  0
 14 15  2  0
 14 19  1  0
 15 16  1  0
 16 17  2  0
 17 18  1  0
 18 19  2  0
M  END
