WPC2379_minimised.pdb
     RDKit          3D

 23 25  0  0  0  0  0  0  0  0999 V2000
    8.6960    0.2570   19.8890 O   0  0  0  0  0  0  0  0  0  0  0  0
    7.9070   -0.0270   20.7670 C   0  0  0  0  0  0  0  0  0  0  0  0
    6.5640    0.1990   20.6630 N   0  0  0  0  0  0  0  0  0  0  0  0
    5.8950    0.7530   19.5490 C   0  0  0  0  0  0  0  0  0  0  0  0
    4.8830    1.6960   19.7600 C   0  0  0  0  0  0  0  0  0  0  0  0
    4.2990    2.2840   18.6320 C   0  0  0  0  0  0  0  0  0  0  0  0
    4.7440    1.9230   17.3520 C   0  0  0  0  0  0  0  0  0  0  0  0
    5.6790    0.9690   17.1370 N   0  0  0  0  0  0  0  0  0  0  0  0
    6.2530    0.4160   18.2250 C   0  0  0  0  0  0  0  0  0  0  0  0
    8.2400   -0.6240   21.9480 N   0  0  0  0  0  0  0  0  0  0  0  0
    9.5110   -1.1150   22.3030 C   0  0  0  0  0  0  0  0  0  0  0  0
    9.5960   -2.3840   22.8930 C   0  0  0  0  0  0  0  0  0  0  0  0
   10.8470   -2.9090   23.2410 C   0  0  0  0  0  0  0  0  0  0  0  0
   12.0060   -2.1510   23.0180 C   0  0  0  0  0  0  0  0  0  0  0  0
   11.9280   -0.8530   22.4890 C   0  0  0  0  0  0  0  0  0  0  0  0
   13.4270    0.1210   22.3430 S   0  0  0  0  0  0  0  0  0  0  0  0
   12.9760    1.7630   22.9190 C   0  0  0  0  0  0  0  0  0  0  0  0
   13.7720    2.8520   22.5210 C   0  0  0  0  0  0  0  0  0  0  0  0
   13.4120    4.1670   22.8600 C   0  0  0  0  0  0  0  0  0  0  0  0
   12.2520    4.4020   23.6160 C   0  0  0  0  0  0  0  0  0  0  0  0
   11.4780    3.3170   24.0610 C   0  0  0  0  0  0  0  0  0  0  0  0
   11.8510    2.0020   23.7330 C   0  0  0  0  0  0  0  0  0  0  0  0
   10.6750   -0.3540   22.0910 C   0  0  0  0  0  0  0  0  0  0  0  0
  1  2  2  0
  2  3  1  0
  2 10  1  0
  3  4  1  0
  4  5  2  0
  4  9  1  0
  5  6  1  0
  6  7  2  0
  7  8  1  0
  8  9  2  0
 10 11  1  0
 11 23  1  0
 11 12  2  0
 12 13  1  0
 13 14  2  0
 14 15  1  0
 15 16  1  0
 15 23  2  0
 16 17  1  0
 17 18  2  0
 17 22  1  0
 18 19  1  0
 19 20  2  0
 20 21  1  0
 21 22  2  0
M  END
