WPC2552_minimised.pdb
     RDKit          3D

 24 26  0  0  1  0  0  0  0  0999 V2000
    8.4860    0.2000   19.7380 O   0  0  0  0  0  0  0  0  0  0  0  0
    7.7910   -0.0350   20.7060 C   0  0  0  0  0  0  0  0  0  0  0  0
    6.4270    0.0210   20.6580 N   0  0  0  0  0  0  0  0  0  0  0  0
    5.7020    0.5570   19.5690 C   0  0  0  0  0  0  0  0  0  0  0  0
    4.7540    1.5590   19.8090 C   0  0  0  0  0  0  0  0  0  0  0  0
    4.1770    2.1850   18.6970 C   0  0  0  0  0  0  0  0  0  0  0  0
    4.5760    1.8110   17.4060 C   0  0  0  0  0  0  0  0  0  0  0  0
    5.4550    0.8120   17.1650 N   0  0  0  0  0  0  0  0  0  0  0  0
    6.0110    0.2110   18.2350 C   0  0  0  0  0  0  0  0  0  0  0  0
    8.2880   -0.3260   21.9440 N   0  0  0  0  0  0  0  0  0  0  0  0
    9.6490   -0.2040   22.2820 C   0  0  0  0  0  0  0  0  0  0  0  0
   10.6180   -0.9730   21.6240 C   0  0  0  0  0  0  0  0  0  0  0  0
   11.9820   -0.7540   21.8680 C   0  0  0  0  0  0  0  0  0  0  0  0
   12.3720    0.2200   22.8000 C   0  0  0  0  0  0  0  0  0  0  0  0
   11.3980    0.9580   23.4960 C   0  0  0  0  0  0  0  0  0  0  0  0
   11.7980    1.8820   24.6230 C   0  0  0  0  0  0  0  0  0  0  0  0
   11.8740    3.3930   24.2980 C   0  0  1  0  0  0  0  0  0  0  0  0
   12.9780    3.8050   23.4040 N   0  0  0  0  0  0  0  0  0  0  0  0
   12.5400    4.5770   22.3660 C   0  0  0  0  0  0  0  0  0  0  0  0
   13.2040    5.1070   21.5070 O   0  0  0  0  0  0  0  0  0  0  0  0
   11.2050    4.6520   22.5090 N   0  0  0  0  0  0  0  0  0  0  0  0
   10.6810    3.9760   23.5480 C   0  0  0  0  0  0  0  0  0  0  0  0
    9.5030    3.9040   23.8260 O   0  0  0  0  0  0  0  0  0  0  0  0
   10.0370    0.7460   23.2300 C   0  0  0  0  0  0  0  0  0  0  0  0
  1  2  2  0
  2  3  1  0
  2 10  1  0
  3  4  1  0
  4  5  2  0
  4  9  1  0
  5  6  1  0
  6  7  2  0
  7  8  1  0
  8  9  2  0
 10 11  1  0
 11 24  1  0
 11 12  2  0
 12 13  1  0
 13 14  2  0
 14 15  1  0
 15 16  1  0
 15 24  2  0
 17 16  1  6
 17 18  1  0
 17 22  1  0
 18 19  1  0
 19 20  2  0
 19 21  1  0
 21 22  1  0
 22 23  2  0
M  END
