WPC2828_minimised.pdb
     RDKit          3D

 21 22  0  0  0  0  0  0  0  0999 V2000
   14.8440   -0.1040   18.9580 O   0  0  0  0  0  0  0  0  0  0  0  0
   14.9280   -0.0590   20.3750 C   0  0  0  0  0  0  0  0  0  0  0  0
   13.9690   -1.0790   21.0300 C   0  0  0  0  0  0  0  0  0  0  0  0
   13.0430   -0.4660   22.1090 C   0  0  0  0  0  0  0  0  0  0  0  0
   12.0150   -1.5000   22.6230 C   0  0  0  0  0  0  0  0  0  0  0  0
   10.8030   -0.8530   23.2760 C   0  0  0  0  0  0  0  0  0  0  0  0
    9.6570   -0.6190   22.5000 C   0  0  0  0  0  0  0  0  0  0  0  0
    8.5080   -0.0550   23.0780 C   0  0  0  0  0  0  0  0  0  0  0  0
   10.7900   -0.5110   24.6390 C   0  0  0  0  0  0  0  0  0  0  0  0
    9.6410    0.0420   25.2240 C   0  0  0  0  0  0  0  0  0  0  0  0
    7.3330    0.1530   22.3280 N   0  0  0  0  0  0  0  0  0  0  0  0
    8.4980    0.2670   24.4420 C   0  0  0  0  0  0  0  0  0  0  0  0
    7.2170    0.4860   21.0070 C   0  0  0  0  0  0  0  0  0  0  0  0
    8.1350    0.6380   20.2220 O   0  0  0  0  0  0  0  0  0  0  0  0
    5.9040    0.6260   20.6620 N   0  0  0  0  0  0  0  0  0  0  0  0
    5.3980    1.0970   19.4340 C   0  0  0  0  0  0  0  0  0  0  0  0
    5.9290    0.6900   18.1900 C   0  0  0  0  0  0  0  0  0  0  0  0
    4.3730    2.0480   19.4620 C   0  0  0  0  0  0  0  0  0  0  0  0
    5.5050    1.1840   17.0090 N   0  0  0  0  0  0  0  0  0  0  0  0
    3.9480    2.5770   18.2410 C   0  0  0  0  0  0  0  0  0  0  0  0
    4.5560    2.1500   17.0540 C   0  0  0  0  0  0  0  0  0  0  0  0
  1  2  1  0
  2  3  1  0
  3  4  1  0
  4  5  1  0
  5  6  1  0
  6  9  2  0
  6  7  1  0
  7  8  2  0
  8 11  1  0
  8 12  1  0
  9 10  1  0
 10 12  2  0
 11 13  1  0
 13 14  2  0
 13 15  1  0
 15 16  1  0
 16 17  2  0
 16 18  1  0
 17 19  1  0
 18 20  2  0
 19 21  2  0
 20 21  1  0
M  END
