WPC2183_minimised.pdb
     RDKit          3D

 24 25  0  0  1  0  0  0  0  0999 V2000
    9.0120    0.8680   20.6220 O   0  0  0  0  0  0  0  0  0  0  0  0
    8.7090   -0.3030   20.7390 C   0  0  0  0  0  0  0  0  0  0  0  0
    7.5150   -0.8070   20.3050 N   0  0  0  0  0  0  0  0  0  0  0  0
    6.5840   -0.0990   19.5070 C   0  0  0  0  0  0  0  0  0  0  0  0
    5.8720    0.9880   20.0330 C   0  0  0  0  0  0  0  0  0  0  0  0
    5.0110    1.6860   19.1730 C   0  0  0  0  0  0  0  0  0  0  0  0
    4.9200    1.3060   17.8240 C   0  0  0  0  0  0  0  0  0  0  0  0
    5.5930    0.2480   17.3190 N   0  0  0  0  0  0  0  0  0  0  0  0
    6.4090   -0.4280   18.1500 C   0  0  0  0  0  0  0  0  0  0  0  0
    9.5410   -1.2420   21.2860 N   0  0  0  0  0  0  0  0  0  0  0  0
   10.7940   -0.9290   21.8430 C   0  0  0  0  0  0  0  0  0  0  0  0
   11.9940   -1.2320   21.1830 C   0  0  0  0  0  0  0  0  0  0  0  0
   13.2190   -0.7790   21.6940 C   0  0  0  0  0  0  0  0  0  0  0  0
   13.2370   -0.0120   22.8660 C   0  0  0  0  0  0  0  0  0  0  0  0
   12.0350    0.2610   23.5420 C   0  0  0  0  0  0  0  0  0  0  0  0
   12.0270    1.0850   24.8020 C   0  0  0  0  0  0  0  0  0  0  0  0
   11.4120    2.4870   24.5880 C   0  0  0  0  0  0  0  0  0  0  0  0
   12.0220    3.2520   23.3900 C   0  0  2  0  0  0  0  0  0  0  0  0
   13.4510    3.2500   23.4620 O   0  0  0  0  0  0  0  0  0  0  0  0
   11.5540    4.7190   23.2910 C   0  0  1  0  0  0  0  0  0  0  0  0
   12.1380    5.2250   22.0880 O   0  0  0  0  0  0  0  0  0  0  0  0
   10.0070    4.8400   23.3080 C   0  0  0  0  0  0  0  0  0  0  0  0
    9.5650    6.0960   22.8050 O   0  0  0  0  0  0  0  0  0  0  0  0
   10.8190   -0.1970   23.0300 C   0  0  0  0  0  0  0  0  0  0  0  0
  1  2  2  0
  2 10  1  0
  2  3  1  0
  3  4  1  0
  4  5  2  0
  4  9  1  0
  5  6  1  0
  6  7  2  0
  7  8  1  0
  8  9  2  0
 10 11  1  0
 11 12  2  0
 11 24  1  0
 12 13  1  0
 13 14  2  0
 14 15  1  0
 15 16  1  0
 15 24  2  0
 16 17  1  0
 17 18  1  0
 18 20  1  0
 18 19  1  1
 20 22  1  0
 20 21  1  6
 22 23  1  0
M  END
