WPC2605_minimised.pdb
     RDKit          3D

 23 25  0  0  0  0  0  0  0  0999 V2000
    8.5860    0.2710   19.9050 O   0  0  0  0  0  0  0  0  0  0  0  0
    7.7790   -0.0270   20.7620 C   0  0  0  0  0  0  0  0  0  0  0  0
    6.4390    0.2020   20.6350 N   0  0  0  0  0  0  0  0  0  0  0  0
    5.8020    0.7800   19.5150 C   0  0  0  0  0  0  0  0  0  0  0  0
    4.8000    1.7360   19.7120 C   0  0  0  0  0  0  0  0  0  0  0  0
    4.2590    2.3500   18.5760 C   0  0  0  0  0  0  0  0  0  0  0  0
    4.7410    2.0070   17.3050 C   0  0  0  0  0  0  0  0  0  0  0  0
    5.6680    1.0430   17.1020 N   0  0  0  0  0  0  0  0  0  0  0  0
    6.1940    0.4590   18.1970 C   0  0  0  0  0  0  0  0  0  0  0  0
    8.0910   -0.6430   21.9400 N   0  0  0  0  0  0  0  0  0  0  0  0
    9.3750   -1.0820   22.3150 C   0  0  0  0  0  0  0  0  0  0  0  0
    9.5370   -2.3820   22.8120 C   0  0  0  0  0  0  0  0  0  0  0  0
   10.8160   -2.8440   23.1530 C   0  0  0  0  0  0  0  0  0  0  0  0
   11.9240   -1.9930   23.0160 C   0  0  0  0  0  0  0  0  0  0  0  0
   11.7600   -0.6660   22.5870 C   0  0  0  0  0  0  0  0  0  0  0  0
   13.1570    0.4560   22.5770 S   0  0  0  0  0  0  0  0  0  0  0  0
   12.4630    1.9630   23.2650 C   0  0  0  0  0  0  0  0  0  0  0  0
   13.0020    3.2080   22.9150 C   0  0  0  0  0  0  0  0  0  0  0  0
   12.4200    4.3850   23.4080 C   0  0  0  0  0  0  0  0  0  0  0  0
   11.3800    4.3790   24.2610 N   0  0  0  0  0  0  0  0  0  0  0  0
   10.8680    3.1860   24.6160 C   0  0  0  0  0  0  0  0  0  0  0  0
   11.3840    1.9640   24.1630 C   0  0  0  0  0  0  0  0  0  0  0  0
   10.4850   -0.2280   22.1970 C   0  0  0  0  0  0  0  0  0  0  0  0
  1  2  2  0
  2  3  1  0
  2 10  1  0
  3  4  1  0
  4  5  2  0
  4  9  1  0
  5  6  1  0
  6  7  2  0
  7  8  1  0
  8  9  2  0
 10 11  1  0
 11 23  1  0
 11 12  2  0
 12 13  1  0
 13 14  2  0
 14 15  1  0
 15 16  1  0
 15 23  2  0
 16 17  1  0
 17 18  2  0
 17 22  1  0
 18 19  1  0
 19 20  2  0
 20 21  1  0
 21 22  2  0
M  END
