WPC2610_minimised.pdb
     RDKit          3D

 23 25  0  0  0  0  0  0  0  0999 V2000
    8.6180   -0.2120   19.7830 O   0  0  0  0  0  0  0  0  0  0  0  0
    7.9170   -0.4560   20.7450 C   0  0  0  0  0  0  0  0  0  0  0  0
    6.5550   -0.3310   20.7040 N   0  0  0  0  0  0  0  0  0  0  0  0
    5.8510    0.2920   19.6450 C   0  0  0  0  0  0  0  0  0  0  0  0
    4.9320    1.3080   19.9390 C   0  0  0  0  0  0  0  0  0  0  0  0
    4.3670    2.0080   18.8640 C   0  0  0  0  0  0  0  0  0  0  0  0
    4.7450    1.6870   17.5520 C   0  0  0  0  0  0  0  0  0  0  0  0
    5.5950    0.6780   17.2580 N   0  0  0  0  0  0  0  0  0  0  0  0
    6.1420    0.0090   18.2920 C   0  0  0  0  0  0  0  0  0  0  0  0
    8.4060   -0.8170   21.9710 N   0  0  0  0  0  0  0  0  0  0  0  0
    9.7560   -0.6460   22.3370 C   0  0  0  0  0  0  0  0  0  0  0  0
   10.7840   -1.2680   21.6190 C   0  0  0  0  0  0  0  0  0  0  0  0
   12.1240   -0.9140   21.8420 C   0  0  0  0  0  0  0  0  0  0  0  0
   12.4320    0.0590   22.8060 C   0  0  0  0  0  0  0  0  0  0  0  0
   11.4050    0.6310   23.5780 C   0  0  0  0  0  0  0  0  0  0  0  0
   11.7180    1.6240   24.6800 C   0  0  0  0  0  0  0  0  0  0  0  0
   11.5770    3.0410   24.2960 N   0  0  0  0  0  0  0  0  0  0  0  0
   10.2700    3.4240   23.7210 C   0  0  0  0  0  0  0  0  0  0  0  0
   10.0670    4.9570   23.7220 C   0  0  0  0  0  0  0  0  0  0  0  0
   11.3620    5.7320   24.0420 C   0  0  0  0  0  0  0  0  0  0  0  0
   12.5440    5.1170   23.2590 C   0  0  0  0  0  0  0  0  0  0  0  0
   12.7330    3.6130   23.5740 C   0  0  0  0  0  0  0  0  0  0  0  0
   10.0690    0.2660   23.3460 C   0  0  0  0  0  0  0  0  0  0  0  0
  1  2  2  0
  2  3  1  0
  2 10  1  0
  3  4  1  0
  4  5  2  0
  4  9  1  0
  5  6  1  0
  6  7  2  0
  7  8  1  0
  8  9  2  0
 10 11  1  0
 11 23  1  0
 11 12  2  0
 12 13  1  0
 13 14  2  0
 14 15  1  0
 15 16  1  0
 15 23  2  0
 16 17  1  0
 17 18  1  0
 17 22  1  0
 18 19  1  0
 19 20  1  0
 20 21  1  0
 21 22  1  0
M  END
