WPC2911_minimised.pdb
     RDKit          3D

 21 22  0  0  0  0  0  0  0  0999 V2000
   15.9240    0.5310   19.3060 C   0  0  0  0  0  0  0  0  0  0  0  0
   14.9020   -0.4640   19.1230 O   0  0  0  0  0  0  0  0  0  0  0  0
   14.4750   -1.0780   20.3560 N   0  0  0  0  0  0  0  0  0  0  0  0
   13.4360   -0.2350   20.9620 C   0  0  0  0  0  0  0  0  0  0  0  0
   13.0800   -0.7320   22.3620 C   0  0  0  0  0  0  0  0  0  0  0  0
   11.8590   -0.0190   22.9110 C   0  0  0  0  0  0  0  0  0  0  0  0
   10.5890   -0.2910   22.3720 C   0  0  0  0  0  0  0  0  0  0  0  0
    9.4540    0.3590   22.8790 C   0  0  0  0  0  0  0  0  0  0  0  0
   11.9840    0.9210   23.9490 C   0  0  0  0  0  0  0  0  0  0  0  0
   10.8440    1.5640   24.4580 C   0  0  0  0  0  0  0  0  0  0  0  0
    8.1800    0.1340   22.3220 N   0  0  0  0  0  0  0  0  0  0  0  0
    9.5790    1.2750   23.9310 C   0  0  0  0  0  0  0  0  0  0  0  0
    7.8500    0.3210   21.0090 C   0  0  0  0  0  0  0  0  0  0  0  0
    8.6450    0.5480   20.1200 O   0  0  0  0  0  0  0  0  0  0  0  0
    6.4990    0.2680   20.8050 N   0  0  0  0  0  0  0  0  0  0  0  0
    5.8330    0.7200   19.6440 C   0  0  0  0  0  0  0  0  0  0  0  0
    6.2400    0.3450   18.3450 C   0  0  0  0  0  0  0  0  0  0  0  0
    4.8000    1.6530   19.7930 C   0  0  0  0  0  0  0  0  0  0  0  0
    5.6700    0.8320   17.2220 N   0  0  0  0  0  0  0  0  0  0  0  0
    4.2350    2.1870   18.6300 C   0  0  0  0  0  0  0  0  0  0  0  0
    4.7110    1.7750   17.3780 C   0  0  0  0  0  0  0  0  0  0  0  0
  1  2  1  0
  2  3  1  0
  3  4  1  0
  4  5  1  0
  5  6  1  0
  6  9  2  0
  6  7  1  0
  7  8  2  0
  8 11  1  0
  8 12  1  0
  9 10  1  0
 10 12  2  0
 11 13  1  0
 13 14  2  0
 13 15  1  0
 15 16  1  0
 16 17  2  0
 16 18  1  0
 17 19  1  0
 18 20  2  0
 19 21  2  0
 20 21  1  0
M  END
