WPC2895_minimised.pdb
     RDKit          3D

 21 22  0  0  0  0  0  0  0  0999 V2000
   14.2350   -0.7790   20.7430 C   0  0  0  0  0  0  0  0  0  0  0  0
   14.9300    0.4590   21.1420 N   0  0  0  0  0  0  0  0  0  0  0  0
   15.8290    0.9810   20.0900 C   0  0  0  0  0  0  0  0  0  0  0  0
   14.0470    1.5050   21.6930 C   0  0  0  0  0  0  0  0  0  0  0  0
   13.3730    1.1550   23.0300 C   0  0  0  0  0  0  0  0  0  0  0  0
   12.1130    1.9850   23.1970 C   0  0  0  0  0  0  0  0  0  0  0  0
   10.8630    1.3700   23.0200 C   0  0  0  0  0  0  0  0  0  0  0  0
    9.6890    2.1320   23.0360 C   0  0  0  0  0  0  0  0  0  0  0  0
   12.1770    3.3790   23.3810 C   0  0  0  0  0  0  0  0  0  0  0  0
   10.9980    4.1420   23.4240 C   0  0  0  0  0  0  0  0  0  0  0  0
    8.4610    1.5290   22.7000 N   0  0  0  0  0  0  0  0  0  0  0  0
    9.7520    3.5160   23.2560 C   0  0  0  0  0  0  0  0  0  0  0  0
    8.1400    1.1290   21.4310 C   0  0  0  0  0  0  0  0  0  0  0  0
    8.9340    1.0800   20.5110 O   0  0  0  0  0  0  0  0  0  0  0  0
    6.8100    0.8430   21.2710 N   0  0  0  0  0  0  0  0  0  0  0  0
    6.1150    0.9570   20.0420 C   0  0  0  0  0  0  0  0  0  0  0  0
    6.5650    0.3680   18.8370 C   0  0  0  0  0  0  0  0  0  0  0  0
    5.0090    1.8130   20.0080 C   0  0  0  0  0  0  0  0  0  0  0  0
    5.9770    0.5910   17.6380 N   0  0  0  0  0  0  0  0  0  0  0  0
    4.4280    2.0770   18.7650 C   0  0  0  0  0  0  0  0  0  0  0  0
    4.9570    1.4780   17.6150 C   0  0  0  0  0  0  0  0  0  0  0  0
  1  2  1  0
  2  3  1  0
  2  4  1  0
  4  5  1  0
  5  6  1  0
  6  9  2  0
  6  7  1  0
  7  8  2  0
  8 11  1  0
  8 12  1  0
  9 10  1  0
 10 12  2  0
 11 13  1  0
 13 14  2  0
 13 15  1  0
 15 16  1  0
 16 17  2  0
 16 18  1  0
 17 19  1  0
 18 20  2  0
 19 21  2  0
 20 21  1  0
M  END
