WPC2558_minimised.pdb
     RDKit          3D

 24 25  0  0  0  0  0  0  0  0999 V2000
   12.6350    6.4300   24.3020 N   0  0  0  0  0  0  0  0  0  0  0  0
   12.3940    5.1070   24.1200 C   0  0  0  0  0  0  0  0  0  0  0  0
   13.3130    4.4000   23.7850 O   0  0  0  0  0  0  0  0  0  0  0  0
   11.0050    4.6320   24.5010 C   0  0  0  0  0  0  0  0  0  0  0  0
   10.8670    3.1090   24.8190 C   0  0  0  0  0  0  0  0  0  0  0  0
   10.8570    2.0690   23.7070 C   0  0  0  0  0  0  0  0  0  0  0  0
   12.0560    1.5700   23.1640 C   0  0  0  0  0  0  0  0  0  0  0  0
   12.0330    0.4950   22.2600 C   0  0  0  0  0  0  0  0  0  0  0  0
   10.8100   -0.0830   21.8860 C   0  0  0  0  0  0  0  0  0  0  0  0
    9.6130    0.4090   22.4280 C   0  0  0  0  0  0  0  0  0  0  0  0
    8.3620   -0.0910   22.0150 N   0  0  0  0  0  0  0  0  0  0  0  0
    7.8900    0.0230   20.7390 C   0  0  0  0  0  0  0  0  0  0  0  0
    8.5870    0.2830   19.7800 O   0  0  0  0  0  0  0  0  0  0  0  0
    6.5290   -0.0800   20.6480 N   0  0  0  0  0  0  0  0  0  0  0  0
    5.7950    0.4540   19.5630 C   0  0  0  0  0  0  0  0  0  0  0  0
    4.8370    1.4430   19.8170 C   0  0  0  0  0  0  0  0  0  0  0  0
    4.2720    2.1000   18.7170 C   0  0  0  0  0  0  0  0  0  0  0  0
    4.6890    1.7640   17.4220 C   0  0  0  0  0  0  0  0  0  0  0  0
    5.5760    0.7760   17.1660 N   0  0  0  0  0  0  0  0  0  0  0  0
    6.1250    0.1490   18.2250 C   0  0  0  0  0  0  0  0  0  0  0  0
    9.6400    1.4650   23.3470 C   0  0  0  0  0  0  0  0  0  0  0  0
    9.9700    5.2880   23.6120 C   0  0  0  0  0  0  0  0  0  0  0  0
    9.2240    4.5150   22.7890 N   0  0  0  0  0  0  0  0  0  0  0  0
    9.7780    6.4850   23.6570 O   0  0  0  0  0  0  0  0  0  0  0  0
  1  2  1  0
  2  3  2  0
  2  4  1  0
  4 22  1  0
  4  5  1  0
  5  6  1  0
  6 21  2  0
  6  7  1  0
  7  8  2  0
  8  9  1  0
  9 10  2  0
 10 11  1  0
 10 21  1  0
 11 12  1  0
 12 13  2  0
 12 14  1  0
 14 15  1  0
 15 16  2  0
 15 20  1  0
 16 17  1  0
 17 18  2  0
 18 19  1  0
 19 20  2  0
 22 23  1  0
 22 24  2  0
M  END
