WPC2724_minimised.pdb
     RDKit          3D

 18 19  0  0  0  0  0  0  0  0999 V2000
   13.9650   -1.0800   20.6590 N   0  0  0  0  0  0  0  0  0  0  0  0
   13.5770   -1.2100   22.0640 C   0  0  0  0  0  0  0  0  0  0  0  0
   12.4350   -0.2830   22.4350 C   0  0  0  0  0  0  0  0  0  0  0  0
   11.1040   -0.6250   22.1320 C   0  0  0  0  0  0  0  0  0  0  0  0
   10.0500    0.2120   22.5350 C   0  0  0  0  0  0  0  0  0  0  0  0
   12.7010    0.9170   23.1220 C   0  0  0  0  0  0  0  0  0  0  0  0
   11.6480    1.7630   23.5050 C   0  0  0  0  0  0  0  0  0  0  0  0
    8.7110   -0.0910   22.2080 N   0  0  0  0  0  0  0  0  0  0  0  0
   10.3230    1.4030   23.2220 C   0  0  0  0  0  0  0  0  0  0  0  0
    8.1840    0.0490   20.9560 C   0  0  0  0  0  0  0  0  0  0  0  0
    8.8540    0.2530   19.9670 O   0  0  0  0  0  0  0  0  0  0  0  0
    6.8160    0.0050   20.9090 N   0  0  0  0  0  0  0  0  0  0  0  0
    6.0550    0.4630   19.8050 C   0  0  0  0  0  0  0  0  0  0  0  0
    6.3430    0.0670   18.4800 C   0  0  0  0  0  0  0  0  0  0  0  0
    5.0810    1.4460   20.0190 C   0  0  0  0  0  0  0  0  0  0  0  0
    5.7360    0.5960   17.3960 N   0  0  0  0  0  0  0  0  0  0  0  0
    4.4610    2.0060   18.8960 C   0  0  0  0  0  0  0  0  0  0  0  0
    4.8370    1.5830   17.6130 C   0  0  0  0  0  0  0  0  0  0  0  0
  1  2  1  0
  2  3  1  0
  3  4  2  0
  3  6  1  0
  4  5  1  0
  5  9  2  0
  5  8  1  0
  6  7  2  0
  7  9  1  0
  8 10  1  0
 10 11  2  0
 10 12  1  0
 12 13  1  0
 13 14  2  0
 13 15  1  0
 14 16  1  0
 15 17  2  0
 16 18  2  0
 17 18  1  0
M  END
