WPC2564_minimised.pdb
     RDKit          3D

 22 23  0  0  1  0  0  0  0  0999 V2000
   12.2790    4.8820   22.1380 N   0  0  0  0  0  0  0  0  0  0  0  0
   12.1090    4.8150   23.4880 C   0  0  0  0  0  0  0  0  0  0  0  0
   13.0560    5.0340   24.2150 O   0  0  0  0  0  0  0  0  0  0  0  0
   10.7070    4.4380   24.0340 C   0  0  1  0  0  0  0  0  0  0  0  0
    9.5330    4.5880   23.1260 N   0  0  0  0  0  0  0  0  0  0  0  0
   10.7570    3.0150   24.6320 C   0  0  0  0  0  0  0  0  0  0  0  0
   10.8290    1.8720   23.6350 C   0  0  0  0  0  0  0  0  0  0  0  0
   12.0620    1.3700   23.1780 C   0  0  0  0  0  0  0  0  0  0  0  0
   12.0940    0.2620   22.3120 C   0  0  0  0  0  0  0  0  0  0  0  0
   10.8950   -0.3480   21.9060 C   0  0  0  0  0  0  0  0  0  0  0  0
    9.6680    0.1510   22.3690 C   0  0  0  0  0  0  0  0  0  0  0  0
    8.4390   -0.3790   21.9310 N   0  0  0  0  0  0  0  0  0  0  0  0
    7.9430   -0.1650   20.6790 C   0  0  0  0  0  0  0  0  0  0  0  0
    8.6220    0.1710   19.7310 O   0  0  0  0  0  0  0  0  0  0  0  0
    6.5810   -0.2600   20.6050 N   0  0  0  0  0  0  0  0  0  0  0  0
    5.8360    0.3260   19.5560 C   0  0  0  0  0  0  0  0  0  0  0  0
    4.9040    1.3270   19.8580 C   0  0  0  0  0  0  0  0  0  0  0  0
    4.3260    2.0230   18.7880 C   0  0  0  0  0  0  0  0  0  0  0  0
    4.7070    1.7130   17.4740 C   0  0  0  0  0  0  0  0  0  0  0  0
    5.5750    0.7210   17.1750 N   0  0  0  0  0  0  0  0  0  0  0  0
    6.1340    0.0540   18.2040 C   0  0  0  0  0  0  0  0  0  0  0  0
    9.6380    1.2550   23.2280 C   0  0  0  0  0  0  0  0  0  0  0  0
  1  2  1  0
  2  3  2  0
  2  4  1  0
  4  5  1  6
  4  6  1  0
  6  7  1  0
  7 22  2  0
  7  8  1  0
  8  9  2  0
  9 10  1  0
 10 11  2  0
 11 12  1  0
 11 22  1  0
 12 13  1  0
 13 14  2  0
 13 15  1  0
 15 16  1  0
 16 17  2  0
 16 21  1  0
 17 18  1  0
 18 19  2  0
 19 20  1  0
 20 21  2  0
M  END
