WPC2611_minimised.pdb
     RDKit          3D

 24 26  0  0  0  0  0  0  0  0999 V2000
    8.5630   -0.6370   19.8470 O   0  0  0  0  0  0  0  0  0  0  0  0
    7.8760   -0.6690   20.8470 C   0  0  0  0  0  0  0  0  0  0  0  0
    6.5390   -0.3770   20.8140 N   0  0  0  0  0  0  0  0  0  0  0  0
    5.8690    0.2350   19.7240 C   0  0  0  0  0  0  0  0  0  0  0  0
    4.9810    1.2870   19.9810 C   0  0  0  0  0  0  0  0  0  0  0  0
    4.4100    1.9470   18.8850 C   0  0  0  0  0  0  0  0  0  0  0  0
    4.7560    1.5530   17.5840 C   0  0  0  0  0  0  0  0  0  0  0  0
    5.5810    0.5150   17.3240 N   0  0  0  0  0  0  0  0  0  0  0  0
    6.1340   -0.1160   18.3800 C   0  0  0  0  0  0  0  0  0  0  0  0
    8.3430   -0.9610   22.1030 N   0  0  0  0  0  0  0  0  0  0  0  0
    9.6970   -0.8360   22.4860 C   0  0  0  0  0  0  0  0  0  0  0  0
   10.7300   -1.3620   21.6990 C   0  0  0  0  0  0  0  0  0  0  0  0
   12.0640   -0.9950   21.9320 C   0  0  0  0  0  0  0  0  0  0  0  0
   12.3630   -0.1040   22.9730 C   0  0  0  0  0  0  0  0  0  0  0  0
   11.3380    0.3560   23.8180 C   0  0  0  0  0  0  0  0  0  0  0  0
   11.6410    1.3120   24.9490 C   0  0  0  0  0  0  0  0  0  0  0  0
   11.0430    2.7230   24.7400 C   0  0  0  0  0  0  0  0  0  0  0  0
   11.6620    3.4730   23.6330 N   0  0  0  0  0  0  0  0  0  0  0  0
   12.9510    4.1340   23.8690 C   0  0  0  0  0  0  0  0  0  0  0  0
   13.3120    5.0560   22.7100 C   0  0  0  0  0  0  0  0  0  0  0  0
   12.1860    4.5760   21.3660 S   0  0  0  0  0  0  0  0  0  0  0  0
   11.1160    3.5300   22.3660 C   0  0  0  0  0  0  0  0  0  0  0  0
    9.7900    2.6640   21.8210 S   0  0  0  0  0  0  0  0  0  0  0  0
   10.0090   -0.0300   23.5850 C   0  0  0  0  0  0  0  0  0  0  0  0
  1  2  2  0
  2  3  1  0
  2 10  1  0
  3  4  1  0
  4  5  2  0
  4  9  1  0
  5  6  1  0
  6  7  2  0
  7  8  1  0
  8  9  2  0
 10 11  1  0
 11 24  1  0
 11 12  2  0
 12 13  1  0
 13 14  2  0
 14 15  1  0
 15 16  1  0
 15 24  2  0
 16 17  1  0
 17 18  1  0
 18 19  1  0
 18 22  1  0
 19 20  1  0
 20 21  1  0
 21 22  1  0
 22 23  2  0
M  END
