WPC2756_minimised.pdb
     RDKit          3D

 19 20  0  0  0  0  0  0  0  0999 V2000
   14.2030    0.8900   22.9150 C   0  0  0  0  0  0  0  0  0  0  0  0
   13.0370    0.2210   22.1630 C   0  0  0  0  0  0  0  0  0  0  0  0
   13.4930   -1.0900   21.4920 C   0  0  0  0  0  0  0  0  0  0  0  0
   11.7660    0.0450   22.9930 C   0  0  0  0  0  0  0  0  0  0  0  0
   10.5550   -0.1310   22.3060 C   0  0  0  0  0  0  0  0  0  0  0  0
    9.3300   -0.1720   22.9930 C   0  0  0  0  0  0  0  0  0  0  0  0
   11.7430    0.1260   24.3980 C   0  0  0  0  0  0  0  0  0  0  0  0
   10.5300    0.0400   25.0980 C   0  0  0  0  0  0  0  0  0  0  0  0
    8.0900   -0.2440   22.3170 N   0  0  0  0  0  0  0  0  0  0  0  0
    9.3240   -0.1010   24.3950 C   0  0  0  0  0  0  0  0  0  0  0  0
    7.7920    0.1590   21.0400 C   0  0  0  0  0  0  0  0  0  0  0  0
    8.5890    0.5340   20.2010 O   0  0  0  0  0  0  0  0  0  0  0  0
    6.4480    0.1160   20.7970 N   0  0  0  0  0  0  0  0  0  0  0  0
    5.8120    0.6390   19.6490 C   0  0  0  0  0  0  0  0  0  0  0  0
    6.2420    0.3130   18.3450 C   0  0  0  0  0  0  0  0  0  0  0  0
    4.7930    1.5840   19.8140 C   0  0  0  0  0  0  0  0  0  0  0  0
    5.7090    0.8570   17.2310 N   0  0  0  0  0  0  0  0  0  0  0  0
    4.2640    2.1750   18.6610 C   0  0  0  0  0  0  0  0  0  0  0  0
    4.7610    1.8070   17.4030 C   0  0  0  0  0  0  0  0  0  0  0  0
  1  2  1  0
  2  4  1  0
  2  3  1  0
  4  5  2  0
  4  7  1  0
  5  6  1  0
  6 10  2  0
  6  9  1  0
  7  8  2  0
  8 10  1  0
  9 11  1  0
 11 12  2  0
 11 13  1  0
 13 14  1  0
 14 15  2  0
 14 16  1  0
 15 17  1  0
 16 18  2  0
 17 19  2  0
 18 19  1  0
M  END
