WPC2454_minimised.pdb
     RDKit          3D

 23 25  0  0  0  0  0  0  0  0999 V2000
    8.6350    0.2800   19.8880 O   0  0  0  0  0  0  0  0  0  0  0  0
    7.9390   -0.1700   20.7760 C   0  0  0  0  0  0  0  0  0  0  0  0
    6.5850   -0.3020   20.6460 N   0  0  0  0  0  0  0  0  0  0  0  0
    5.8550    0.2880   19.5890 C   0  0  0  0  0  0  0  0  0  0  0  0
    4.9060    1.2760   19.8790 C   0  0  0  0  0  0  0  0  0  0  0  0
    4.3280    1.9600   18.8020 C   0  0  0  0  0  0  0  0  0  0  0  0
    4.7220    1.6500   17.4920 C   0  0  0  0  0  0  0  0  0  0  0  0
    5.6120    0.6740   17.2030 N   0  0  0  0  0  0  0  0  0  0  0  0
    6.1760    0.0230   18.2410 C   0  0  0  0  0  0  0  0  0  0  0  0
    8.4070   -0.5110   22.0120 N   0  0  0  0  0  0  0  0  0  0  0  0
    9.6370   -0.0500   22.5190 C   0  0  0  0  0  0  0  0  0  0  0  0
   10.8600   -0.5360   22.0320 C   0  0  0  0  0  0  0  0  0  0  0  0
   12.0650    0.0400   22.4720 C   0  0  0  0  0  0  0  0  0  0  0  0
   12.0410    1.1050   23.3890 C   0  0  0  0  0  0  0  0  0  0  0  0
   10.8120    1.5860   23.8780 C   0  0  0  0  0  0  0  0  0  0  0  0
   10.7480    2.7450   24.8500 C   0  0  0  0  0  0  0  0  0  0  0  0
   10.3610    4.3280   24.0050 S   0  0  0  0  0  0  0  0  0  0  0  0
   11.9080    4.6510   23.2500 C   0  0  0  0  0  0  0  0  0  0  0  0
   11.9970    4.9940   21.9450 N   0  0  0  0  0  0  0  0  0  0  0  0
   13.3010    5.2440   21.6580 N   0  0  0  0  0  0  0  0  0  0  0  0
   13.9100    4.9890   22.8100 C   0  0  0  0  0  0  0  0  0  0  0  0
   13.0700    4.6340   23.8470 N   0  0  0  0  0  0  0  0  0  0  0  0
    9.6160    1.0000   23.4430 C   0  0  0  0  0  0  0  0  0  0  0  0
  1  2  2  0
  2  3  1  0
  2 10  1  0
  3  4  1  0
  4  5  2  0
  4  9  1  0
  5  6  1  0
  6  7  2  0
  7  8  1  0
  8  9  2  0
 10 11  1  0
 11 23  1  0
 11 12  2  0
 12 13  1  0
 13 14  2  0
 14 15  1  0
 15 16  1  0
 15 23  2  0
 16 17  1  0
 17 18  1  0
 18 19  1  0
 18 22  2  0
 19 20  1  0
 20 21  2  0
 21 22  1  0
M  END
