WPC2714_minimised.pdb
     RDKit          3D

 20 21  0  0  0  0  0  0  0  0999 V2000
   15.0930    1.1290   20.8350 O   0  0  0  0  0  0  0  0  0  0  0  0
   14.7470    1.5680   22.1460 C   0  0  0  0  0  0  0  0  0  0  0  0
   13.2610    1.3430   22.4400 C   0  0  0  0  0  0  0  0  0  0  0  0
   12.8330   -0.4400   22.3420 S   0  0  0  0  0  0  0  0  0  0  0  0
   11.2620   -0.3980   23.1600 C   0  0  0  0  0  0  0  0  0  0  0  0
   10.0920   -0.4340   22.3960 C   0  0  0  0  0  0  0  0  0  0  0  0
    8.8440   -0.2720   23.0170 C   0  0  0  0  0  0  0  0  0  0  0  0
   11.1900   -0.2360   24.5520 C   0  0  0  0  0  0  0  0  0  0  0  0
    9.9440   -0.1140   25.1850 C   0  0  0  0  0  0  0  0  0  0  0  0
    7.6460   -0.2090   22.2760 N   0  0  0  0  0  0  0  0  0  0  0  0
    8.7710   -0.1290   24.4130 C   0  0  0  0  0  0  0  0  0  0  0  0
    7.4670    0.2340   20.9930 C   0  0  0  0  0  0  0  0  0  0  0  0
    8.3440    0.5350   20.2040 O   0  0  0  0  0  0  0  0  0  0  0  0
    6.1390    0.3190   20.6920 N   0  0  0  0  0  0  0  0  0  0  0  0
    5.5880    0.8640   19.5140 C   0  0  0  0  0  0  0  0  0  0  0  0
    6.0730    0.5140   18.2360 C   0  0  0  0  0  0  0  0  0  0  0  0
    4.5810    1.8290   19.6250 C   0  0  0  0  0  0  0  0  0  0  0  0
    5.6100    1.0640   17.0950 N   0  0  0  0  0  0  0  0  0  0  0  0
    4.1180    2.4180   18.4440 C   0  0  0  0  0  0  0  0  0  0  0  0
    4.6700    2.0300   17.2150 C   0  0  0  0  0  0  0  0  0  0  0  0
  1  2  1  0
  2  3  1  0
  3  4  1  0
  4  5  1  0
  5  8  2  0
  5  6  1  0
  6  7  2  0
  7 10  1  0
  7 11  1  0
  8  9  1  0
  9 11  2  0
 10 12  1  0
 12 13  2  0
 12 14  1  0
 14 15  1  0
 15 16  2  0
 15 17  1  0
 16 18  1  0
 17 19  2  0
 18 20  2  0
 19 20  1  0
M  END
