WPC2301_minimised.pdb
     RDKit          3D

 23 25  0  0  0  0  0  0  0  0999 V2000
    8.3930   -0.2670   19.6580 O   0  0  0  0  0  0  0  0  0  0  0  0
    7.6780   -0.4180   20.6300 C   0  0  0  0  0  0  0  0  0  0  0  0
    6.3280   -0.2060   20.5940 N   0  0  0  0  0  0  0  0  0  0  0  0
    5.6490    0.4320   19.5290 C   0  0  0  0  0  0  0  0  0  0  0  0
    4.7360    1.4550   19.8150 C   0  0  0  0  0  0  0  0  0  0  0  0
    4.1970    2.1670   18.7350 C   0  0  0  0  0  0  0  0  0  0  0  0
    4.5970    1.8500   17.4280 C   0  0  0  0  0  0  0  0  0  0  0  0
    5.4400    0.8330   17.1420 N   0  0  0  0  0  0  0  0  0  0  0  0
    5.9570    0.1490   18.1810 C   0  0  0  0  0  0  0  0  0  0  0  0
    8.1410   -0.7620   21.8690 N   0  0  0  0  0  0  0  0  0  0  0  0
    9.5020   -0.6890   22.2160 C   0  0  0  0  0  0  0  0  0  0  0  0
   10.4540   -1.4760   21.5570 C   0  0  0  0  0  0  0  0  0  0  0  0
   11.8240   -1.2420   21.7510 C   0  0  0  0  0  0  0  0  0  0  0  0
   12.2380   -0.2340   22.6360 C   0  0  0  0  0  0  0  0  0  0  0  0
   11.2810    0.5020   23.3540 C   0  0  0  0  0  0  0  0  0  0  0  0
   11.6990    1.5300   24.3800 C   0  0  0  0  0  0  0  0  0  0  0  0
   11.4010    2.9550   23.9550 C   0  0  0  0  0  0  0  0  0  0  0  0
   12.4170    3.7910   23.4640 C   0  0  0  0  0  0  0  0  0  0  0  0
   12.1140    5.1200   23.1430 C   0  0  0  0  0  0  0  0  0  0  0  0
   10.7840    5.5430   23.3020 C   0  0  0  0  0  0  0  0  0  0  0  0
    9.8270    4.6320   23.7650 C   0  0  0  0  0  0  0  0  0  0  0  0
   10.1340    3.3760   24.1290 N   0  0  0  0  0  0  0  0  0  0  0  0
    9.9140    0.2770   23.1360 C   0  0  0  0  0  0  0  0  0  0  0  0
  1  2  2  0
  2  3  1  0
  2 10  1  0
  3  4  1  0
  4  5  2  0
  4  9  1  0
  5  6  1  0
  6  7  2  0
  7  8  1  0
  8  9  2  0
 10 11  1  0
 11 23  1  0
 11 12  2  0
 12 13  1  0
 13 14  2  0
 14 15  1  0
 15 16  1  0
 15 23  2  0
 16 17  1  0
 17 18  2  0
 17 22  1  0
 18 19  1  0
 19 20  2  0
 20 21  1  0
 21 22  2  0
M  END
