WPC2849_minimised.pdb
     RDKit          3D

 21 22  0  0  1  0  0  0  0  0999 V2000
   15.5080    0.3330   20.0060 C   0  0  0  0  0  0  0  0  0  0  0  0
   14.3970   -0.7290   20.0200 C   0  0  0  0  0  0  0  0  0  0  0  0
   13.1280   -0.3200   20.7940 C   0  0  0  0  0  0  0  0  0  0  0  0
   13.1570   -0.5900   22.3080 C   0  0  2  0  0  0  0  0  0  0  0  0
   13.2170   -2.0300   22.5550 N   0  0  0  0  0  0  0  0  0  0  0  0
   11.9150    0.0070   22.9530 C   0  0  0  0  0  0  0  0  0  0  0  0
   10.6330   -0.3370   22.4810 C   0  0  0  0  0  0  0  0  0  0  0  0
    9.4940    0.3030   22.9850 C   0  0  0  0  0  0  0  0  0  0  0  0
   12.0340    0.9850   23.9550 C   0  0  0  0  0  0  0  0  0  0  0  0
   10.8870    1.5980   24.4870 C   0  0  0  0  0  0  0  0  0  0  0  0
    8.2310    0.0680   22.4100 N   0  0  0  0  0  0  0  0  0  0  0  0
    9.6170    1.2560   24.0030 C   0  0  0  0  0  0  0  0  0  0  0  0
    7.9300    0.2430   21.0860 C   0  0  0  0  0  0  0  0  0  0  0  0
    8.7450    0.4480   20.2060 O   0  0  0  0  0  0  0  0  0  0  0  0
    6.5820    0.2070   20.8630 N   0  0  0  0  0  0  0  0  0  0  0  0
    5.9320    0.6560   19.6920 C   0  0  0  0  0  0  0  0  0  0  0  0
    6.3370    0.2610   18.3980 C   0  0  0  0  0  0  0  0  0  0  0  0
    4.9050    1.5980   19.8260 C   0  0  0  0  0  0  0  0  0  0  0  0
    5.7770    0.7450   17.2680 N   0  0  0  0  0  0  0  0  0  0  0  0
    4.3450    2.1220   18.6570 C   0  0  0  0  0  0  0  0  0  0  0  0
    4.8240    1.6950   17.4110 C   0  0  0  0  0  0  0  0  0  0  0  0
  1  2  1  0
  2  3  1  0
  3  4  1  0
  4  5  1  6
  4  6  1  0
  6  9  2  0
  6  7  1  0
  7  8  2  0
  8 11  1  0
  8 12  1  0
  9 10  1  0
 10 12  2  0
 11 13  1  0
 13 14  2  0
 13 15  1  0
 15 16  1  0
 16 17  2  0
 16 18  1  0
 17 19  1  0
 18 20  2  0
 19 21  2  0
 20 21  1  0
M  END
