WPE0010_minimised.pdb
     RDKit          3D

 35 36  0  0  0  0  0  0  0  0999 V2000
   13.1480   -1.3330   23.7840 C   0  0  0  0  0  0  0  0  0  0  0  0
   13.1630   -0.0950   22.8460 C   0  0  0  0  0  0  0  0  0  0  0  0
   14.2450    0.8180   23.4450 C   0  0  0  0  0  0  0  0  0  0  0  0
   13.6430   -0.5470   21.5270 C   0  0  0  0  0  0  0  0  0  0  0  0
   14.0750   -0.9670   20.5420 N   0  0  0  0  0  0  0  0  0  0  0  0
   11.7080    0.4680   22.7850 C   0  0  0  0  0  0  0  0  0  0  0  0
   10.7480   -0.4460   22.2950 C   0  0  0  0  0  0  0  0  0  0  0  0
    9.3830   -0.1950   22.4040 C   0  0  0  0  0  0  0  0  0  0  0  0
   11.2250    1.7280   23.2830 C   0  0  0  0  0  0  0  0  0  0  0  0
    9.8390    1.8900   23.5050 C   0  0  0  0  0  0  0  0  0  0  0  0
    8.4580   -1.0250   21.7650 N   0  0  0  0  0  0  0  0  0  0  0  0
    8.9220    0.9420   23.0600 C   0  0  0  0  0  0  0  0  0  0  0  0
    7.8020   -0.6520   20.6260 C   0  0  0  0  0  0  0  0  0  0  0  0
    8.2120    0.3090   19.9900 O   0  0  0  0  0  0  0  0  0  0  0  0
    6.6410   -1.3230   20.2600 N   0  0  0  0  0  0  0  0  0  0  0  0
    5.8150   -0.5610   19.3780 C   0  0  0  0  0  0  0  0  0  0  0  0
    5.9610   -0.6580   17.9840 C   0  0  0  0  0  0  0  0  0  0  0  0
    5.0450    0.4940   19.8970 C   0  0  0  0  0  0  0  0  0  0  0  0
    5.4060    0.2160   17.1210 N   0  0  0  0  0  0  0  0  0  0  0  0
    4.4560    1.3950   18.9980 C   0  0  0  0  0  0  0  0  0  0  0  0
    4.6770    1.2340   17.6240 C   0  0  0  0  0  0  0  0  0  0  0  0
    8.8000    5.8220   22.0400 N   0  0  0  0  0  0  0  0  0  0  0  0
    9.7830    5.8440   22.9600 C   0  0  0  0  0  0  0  0  0  0  0  0
    9.8810    6.7550   23.7400 O   0  0  0  0  0  0  0  0  0  0  0  0
   10.5730    4.7510   22.9040 N   0  0  0  0  0  0  0  0  0  0  0  0
   11.4730    4.3070   23.8290 C   0  0  0  0  0  0  0  0  0  0  0  0
   11.7440    4.9310   24.8320 O   0  0  0  0  0  0  0  0  0  0  0  0
   12.1210    2.9440   23.5650 C   0  0  0  0  0  0  0  0  0  0  0  0
    5.3380   -4.1620   23.1380 C   0  0  0  0  0  0  0  0  0  0  0  0
    6.6520   -4.3750   22.3520 C   0  0  0  0  0  0  0  0  0  0  0  0
    6.5690   -5.5840   21.3930 C   0  0  0  0  0  0  0  0  0  0  0  0
    7.8270   -4.5700   23.3360 C   0  0  0  0  0  0  0  0  0  0  0  0
    6.9780   -3.1660   21.6320 O   0  0  0  0  0  0  0  0  0  0  0  0
    6.2240   -2.5950   20.6430 C   0  0  0  0  0  0  0  0  0  0  0  0
    5.3040   -3.1740   20.0870 O   0  0  0  0  0  0  0  0  0  0  0  0
  1  2  1  0
  2  6  1  0
  2  3  1  0
  2  4  1  0
  4  5  3  0
  6  9  2  0
  6  7  1  0
  7  8  2  0
  8 11  1  0
  8 12  1  0
  9 28  1  0
  9 10  1  0
 10 12  2  0
 11 13  1  0
 13 14  2  0
 13 15  1  0
 15 34  1  0
 15 16  1  0
 16 17  2  0
 16 18  1  0
 17 19  1  0
 18 20  2  0
 19 21  2  0
 20 21  1  0
 22 23  1  0
 23 24  2  0
 23 25  1  0
 25 26  1  0
 26 27  2  0
 26 28  1  0
 29 30  1  0
 30 33  1  0
 30 31  1  0
 30 32  1  0
 33 34  1  0
 34 35  2  0
M  END
