WPE0007_minimised.pdb
     RDKit          3D

 30 31  0  0  0  0  0  0  0  0999 V2000
    9.0690    5.8070   22.3120 N   0  0  0  0  0  0  0  0  0  0  0  0
   10.1560    5.8470   23.1090 C   0  0  0  0  0  0  0  0  0  0  0  0
   10.2260    6.6260   24.0200 O   0  0  0  0  0  0  0  0  0  0  0  0
   11.1000    4.9460   22.7680 N   0  0  0  0  0  0  0  0  0  0  0  0
   12.2820    4.6390   23.3840 C   0  0  0  0  0  0  0  0  0  0  0  0
   12.7290    5.2310   24.3440 O   0  0  0  0  0  0  0  0  0  0  0  0
   12.9940    3.4280   22.7930 C   0  0  0  0  0  0  0  0  0  0  0  0
   12.1870    2.1300   22.8680 C   0  0  0  0  0  0  0  0  0  0  0  0
   12.4840    1.1020   21.9570 C   0  0  0  0  0  0  0  0  0  0  0  0
   11.5810    0.0480   21.7610 C   0  0  0  0  0  0  0  0  0  0  0  0
   10.3890    0.0090   22.4970 C   0  0  0  0  0  0  0  0  0  0  0  0
    9.3190   -0.7930   22.0530 N   0  0  0  0  0  0  0  0  0  0  0  0
    8.5100   -0.4400   20.9960 C   0  0  0  0  0  0  0  0  0  0  0  0
    8.8450    0.4910   20.2790 O   0  0  0  0  0  0  0  0  0  0  0  0
    7.3020   -1.1020   20.7780 N   0  0  0  0  0  0  0  0  0  0  0  0
    6.4150   -0.4170   19.8790 C   0  0  0  0  0  0  0  0  0  0  0  0
    5.6080    0.6270   20.3600 C   0  0  0  0  0  0  0  0  0  0  0  0
    4.8860    1.3960   19.4350 C   0  0  0  0  0  0  0  0  0  0  0  0
    5.0030    1.1180   18.0650 C   0  0  0  0  0  0  0  0  0  0  0  0
    5.7640    0.1080   17.5920 N   0  0  0  0  0  0  0  0  0  0  0  0
    6.4580   -0.6280   18.4860 C   0  0  0  0  0  0  0  0  0  0  0  0
   10.1680    0.9350   23.5250 C   0  0  0  0  0  0  0  0  0  0  0  0
   11.0730    1.9890   23.7220 C   0  0  0  0  0  0  0  0  0  0  0  0
    6.2770   -3.8390   23.9110 C   0  0  0  0  0  0  0  0  0  0  0  0
    7.4880   -4.0760   22.9770 C   0  0  0  0  0  0  0  0  0  0  0  0
    7.2740   -5.2890   22.0410 C   0  0  0  0  0  0  0  0  0  0  0  0
    8.7710   -4.2850   23.8130 C   0  0  0  0  0  0  0  0  0  0  0  0
    7.7440   -2.8740   22.2130 O   0  0  0  0  0  0  0  0  0  0  0  0
    6.8670   -2.3060   21.3290 C   0  0  0  0  0  0  0  0  0  0  0  0
    5.8480   -2.8640   20.9550 O   0  0  0  0  0  0  0  0  0  0  0  0
  1  2  1  0
  2  3  2  0
  2  4  1  0
  4  5  1  0
  5  6  2  0
  5  7  1  0
  7  8  1  0
  8 23  2  0
  8  9  1  0
  9 10  2  0
 10 11  1  0
 11 12  1  0
 11 22  2  0
 12 13  1  0
 13 14  2  0
 13 15  1  0
 15 29  1  0
 15 16  1  0
 16 17  2  0
 16 21  1  0
 17 18  1  0
 18 19  2  0
 19 20  1  0
 20 21  2  0
 22 23  1  0
 24 25  1  0
 25 28  1  0
 25 26  1  0
 25 27  1  0
 28 29  1  0
 29 30  2  0
M  END
