WPE0003_minimised.pdb
     RDKit          3D

 28 30  0  0  0  0  0  0  0  0999 V2000
   13.9870   -1.6180   23.7210 C   0  0  0  0  0  0  0  0  0  0  0  0
   13.2090   -0.6160   22.8360 C   0  0  0  0  0  0  0  0  0  0  0  0
   13.8040    0.8060   22.9600 C   0  0  0  0  0  0  0  0  0  0  0  0
   13.3960   -1.0400   21.4360 C   0  0  0  0  0  0  0  0  0  0  0  0
   13.6430   -1.3770   20.3600 N   0  0  0  0  0  0  0  0  0  0  0  0
   11.7460   -0.5730   23.3130 C   0  0  0  0  0  0  0  0  0  0  0  0
   10.6320   -0.8630   22.4950 C   0  0  0  0  0  0  0  0  0  0  0  0
    9.3280   -0.7620   23.0180 C   0  0  0  0  0  0  0  0  0  0  0  0
   11.5120   -0.1970   24.6510 C   0  0  0  0  0  0  0  0  0  0  0  0
   10.2210   -0.0920   25.1740 C   0  0  0  0  0  0  0  0  0  0  0  0
    8.1910   -1.0320   22.2220 N   0  0  0  0  0  0  0  0  0  0  0  0
    9.1280   -0.3700   24.3520 C   0  0  0  0  0  0  0  0  0  0  0  0
    7.8830   -0.2760   21.0990 C   0  0  0  0  0  0  0  0  0  0  0  0
    8.6920    0.3860   20.4710 O   0  0  0  0  0  0  0  0  0  0  0  0
    6.5550   -0.3240   20.7480 N   0  0  0  0  0  0  0  0  0  0  0  0
    5.9660    0.3610   19.6600 C   0  0  0  0  0  0  0  0  0  0  0  0
    6.3810    0.1170   18.3360 C   0  0  0  0  0  0  0  0  0  0  0  0
    4.9920    1.3390   19.8950 C   0  0  0  0  0  0  0  0  0  0  0  0
    5.8640    0.7550   17.2660 N   0  0  0  0  0  0  0  0  0  0  0  0
    4.4760    2.0260   18.7880 C   0  0  0  0  0  0  0  0  0  0  0  0
    4.9420    1.7170   17.5030 C   0  0  0  0  0  0  0  0  0  0  0  0
    7.4750   -2.1990   22.6100 C   0  0  0  0  0  0  0  0  0  0  0  0
    7.8980   -3.4440   22.1160 C   0  0  0  0  0  0  0  0  0  0  0  0
    7.2130   -4.6200   22.4660 C   0  0  0  0  0  0  0  0  0  0  0  0
    6.1080   -4.5490   23.3260 C   0  0  0  0  0  0  0  0  0  0  0  0
    5.4370   -5.6730   23.6510 F   0  0  0  0  0  0  0  0  0  0  0  0
    5.7020   -3.3140   23.8540 C   0  0  0  0  0  0  0  0  0  0  0  0
    6.3900   -2.1390   23.5010 C   0  0  0  0  0  0  0  0  0  0  0  0
  1  2  1  0
  2  4  1  0
  2  3  1  0
  2  6  1  0
  4  5  3  0
  6  9  2  0
  6  7  1  0
  7  8  2  0
  8 11  1  0
  8 12  1  0
  9 10  1  0
 10 12  2  0
 11 22  1  0
 11 13  1  0
 13 14  2  0
 13 15  1  0
 15 16  1  0
 16 17  2  0
 16 18  1  0
 17 19  1  0
 18 20  2  0
 19 21  2  0
 20 21  1  0
 22 23  2  0
 22 28  1  0
 23 24  1  0
 24 25  2  0
 25 26  1  0
 25 27  1  0
 27 28  2  0
M  END
