WPE0002_minimised.pdb
     RDKit          3D

 29 31  0  0  0  0  0  0  0  0999 V2000
   14.0250   -1.6510   23.7750 C   0  0  0  0  0  0  0  0  0  0  0  0
   13.2620   -0.6880   22.8350 C   0  0  0  0  0  0  0  0  0  0  0  0
   13.8310    0.7460   22.9380 C   0  0  0  0  0  0  0  0  0  0  0  0
   13.4910   -1.1630   21.4570 C   0  0  0  0  0  0  0  0  0  0  0  0
   13.7610   -1.5320   20.3970 N   0  0  0  0  0  0  0  0  0  0  0  0
   11.7850   -0.6470   23.2630 C   0  0  0  0  0  0  0  0  0  0  0  0
   10.7030   -0.9300   22.4010 C   0  0  0  0  0  0  0  0  0  0  0  0
    9.3890   -0.8610   22.8900 C   0  0  0  0  0  0  0  0  0  0  0  0
   11.4980   -0.2800   24.5950 C   0  0  0  0  0  0  0  0  0  0  0  0
   10.1880   -0.2070   25.0790 C   0  0  0  0  0  0  0  0  0  0  0  0
    8.2790   -1.1530   22.0880 N   0  0  0  0  0  0  0  0  0  0  0  0
    9.1290   -0.5110   24.2220 C   0  0  0  0  0  0  0  0  0  0  0  0
    7.8660   -0.4920   20.9610 C   0  0  0  0  0  0  0  0  0  0  0  0
    8.6080    0.1750   20.2610 O   0  0  0  0  0  0  0  0  0  0  0  0
    6.4970   -0.6450   20.7320 N   0  0  0  0  0  0  0  0  0  0  0  0
    5.8470    0.0600   19.6760 C   0  0  0  0  0  0  0  0  0  0  0  0
    6.2890   -0.0820   18.3450 C   0  0  0  0  0  0  0  0  0  0  0  0
    4.8370    1.0050   19.9370 C   0  0  0  0  0  0  0  0  0  0  0  0
    5.7860    0.6190   17.3060 N   0  0  0  0  0  0  0  0  0  0  0  0
    4.3290    1.7500   18.8650 C   0  0  0  0  0  0  0  0  0  0  0  0
    4.8370    1.5410   17.5770 C   0  0  0  0  0  0  0  0  0  0  0  0
    4.2640   -4.7320   25.2070 C   0  0  0  0  0  0  0  0  0  0  0  0
    3.6320   -3.6430   24.5060 O   0  0  0  0  0  0  0  0  0  0  0  0
    4.3240   -2.9300   23.5590 C   0  0  0  0  0  0  0  0  0  0  0  0
    4.9620   -3.5700   22.4820 C   0  0  0  0  0  0  0  0  0  0  0  0
    5.6210   -2.8040   21.5020 C   0  0  0  0  0  0  0  0  0  0  0  0
    5.6640   -1.4020   21.6090 C   0  0  0  0  0  0  0  0  0  0  0  0
    5.0590   -0.7730   22.7120 C   0  0  0  0  0  0  0  0  0  0  0  0
    4.3750   -1.5340   23.6720 C   0  0  0  0  0  0  0  0  0  0  0  0
  1  2  1  0
  2  4  1  0
  2  3  1  0
  2  6  1  0
  4  5  3  0
  6  9  2  0
  6  7  1  0
  7  8  2  0
  8 11  1  0
  8 12  1  0
  9 10  1  0
 10 12  2  0
 11 13  1  0
 13 14  2  0
 13 15  1  0
 15 27  1  0
 15 16  1  0
 16 17  2  0
 16 18  1  0
 17 19  1  0
 18 20  2  0
 19 21  2  0
 20 21  1  0
 22 23  1  0
 23 24  1  0
 24 25  2  0
 24 29  1  0
 25 26  1  0
 26 27  2  0
 27 28  1  0
 28 29  2  0
M  END
