x0165
     RDKit          3D

 16 17  0  0  0  0  0  0  0  0999 V2000
   23.0360  -17.5380   24.2420 C   0  0  0  0  0  0  0  0  0  0  0  0
   23.1430  -18.7710   23.9480 N   0  0  0  0  0  0  0  0  0  0  0  0
   21.9410  -19.4840   24.0930 C   0  0  0  0  0  0  0  0  0  0  0  0
   22.0530  -20.9770   23.7470 C   0  0  0  0  0  0  0  0  0  0  0  0
   22.7190  -21.2310   22.5150 N   0  0  0  0  0  0  0  0  0  0  0  0
   23.9450  -20.4970   22.4500 C   0  0  0  0  0  0  0  0  0  0  0  0
   23.7580  -19.0100   22.7140 C   0  0  0  0  0  0  0  0  0  0  0  0
   22.1860  -22.1350   21.4980 C   0  0  0  0  0  0  0  0  0  0  0  0
   21.1520  -22.6800   21.6890 O   0  0  0  0  0  0  0  0  0  0  0  0
   22.8710  -22.3620   20.2440 N   0  0  0  0  0  0  0  0  0  0  0  0
   22.3350  -23.2520   19.2290 C   0  0  0  0  0  0  0  0  0  0  0  0
   21.9760  -24.5540   19.5370 C   0  0  0  0  0  0  0  0  0  0  0  0
   21.4840  -25.3890   18.5430 C   0  0  0  0  0  0  0  0  0  0  0  0
   21.3530  -24.9270   17.2410 C   0  0  0  0  0  0  0  0  0  0  0  0
   21.7180  -23.6210   16.9290 C   0  0  0  0  0  0  0  0  0  0  0  0
   22.2130  -22.7870   17.9250 C   0  0  0  0  0  0  0  0  0  0  0  0
  1  2  1  0
  2  3  1  0
  3  4  1  0
  4  5  1  0
  5  6  1  0
  2  7  1  0
  6  7  1  0
  5  8  1  0
  8  9  2  0
  8 10  1  0
 10 11  1  0
 11 12  2  0
 12 13  1  0
 13 14  2  0
 14 15  1  0
 11 16  1  0
 15 16  2  0
M  END
