x0177
     RDKit          3D

 18 19  0  0  0  0  0  0  0  0999 V2000
   23.7380  -16.6130   25.9600 N   0  0  0  0  0  0  0  0  0  0  0  0
   24.5330  -17.7400   25.4860 C   0  0  0  0  0  0  0  0  0  0  0  0
   25.6190  -17.8800   25.9290 O   0  0  0  0  0  0  0  0  0  0  0  0
   24.0210  -18.7830   24.4800 C   0  0  2  0  0  0  0  0  0  0  0  0
   24.7710  -18.8170   23.2050 C   0  0  0  0  0  0  0  0  0  0  0  0
   24.3770  -20.0410   22.3700 C   0  0  0  0  0  0  0  0  0  0  0  0
   22.9750  -20.6010   22.5500 N   0  0  0  0  0  0  0  0  0  0  0  0
   22.1530  -20.0000   23.6520 C   0  0  0  0  0  0  0  0  0  0  0  0
   22.6010  -18.6350   24.1430 C   0  0  0  0  0  0  0  0  0  0  0  0
   22.3710  -21.6780   21.7650 C   0  0  0  0  0  0  0  0  0  0  0  0
   21.2650  -22.0330   22.0170 O   0  0  0  0  0  0  0  0  0  0  0  0
   23.0870  -22.3120   20.6750 N   0  0  0  0  0  0  0  0  0  0  0  0
   22.4870  -23.3700   19.8950 C   0  0  0  0  0  0  0  0  0  0  0  0
   22.3940  -23.1970   18.5270 C   0  0  0  0  0  0  0  0  0  0  0  0
   21.8360  -24.1940   17.7390 C   0  0  0  0  0  0  0  0  0  0  0  0
   21.3730  -25.3650   18.3290 C   0  0  0  0  0  0  0  0  0  0  0  0
   21.4680  -25.5380   19.7050 C   0  0  0  0  0  0  0  0  0  0  0  0
   22.0260  -24.5400   20.4890 C   0  0  0  0  0  0  0  0  0  0  0  0
  1  2  1  0
  2  3  2  0
  4  2  1  1
  4  5  1  0
  5  6  1  0
  6  7  1  0
  7  8  1  0
  4  9  1  0
  8  9  1  0
  7 10  1  0
 10 11  2  0
 10 12  1  0
 12 13  1  0
 13 14  2  0
 14 15  1  0
 15 16  2  0
 16 17  1  0
 13 18  1  0
 17 18  2  0
M  END
