x0398
     RDKit          3D

 15 16  0  0  0  0  0  0  0  0999 V2000
   25.9960  -10.3650    4.0980 C   0  0  0  0  0  0  0  0  0  0  0  0
   26.3500  -10.2900    5.5890 C   0  0  0  0  0  0  0  0  0  0  0  0
   27.2640  -11.1060    5.9710 N   0  0  0  0  0  0  0  0  0  0  0  0
   27.8620  -10.7900    7.1950 C   0  0  0  0  0  0  0  0  0  0  0  0
   27.6570  -11.7800    8.3290 C   0  0  0  0  0  0  0  0  0  0  0  0
   27.8470  -13.0650    7.8890 O   0  0  0  0  0  0  0  0  0  0  0  0
   26.9710  -13.3920    6.8650 C   0  0  0  0  0  0  0  0  0  0  0  0
   27.0690  -12.4560    5.6650 C   0  0  0  0  0  0  0  0  0  0  0  0
   24.2430  -10.8190    3.9310 S   0  0  0  0  0  0  0  0  0  0  0  0
   23.3350   -9.4580    4.6980 C   0  0  0  0  0  0  0  0  0  0  0  0
   23.6120   -8.1630    4.3010 C   0  0  0  0  0  0  0  0  0  0  0  0
   22.9400   -7.1120    4.8810 C   0  0  0  0  0  0  0  0  0  0  0  0
   21.9890   -7.3360    5.8630 C   0  0  0  0  0  0  0  0  0  0  0  0
   21.7180   -8.6310    6.2620 C   0  0  0  0  0  0  0  0  0  0  0  0
   22.3950   -9.6980    5.6810 C   0  0  0  0  0  0  0  0  0  0  0  0
  1  2  1  0
  2  3  1  0
  3  4  1  0
  4  5  1  0
  5  6  1  0
  6  7  1  0
  3  8  1  0
  7  8  1  0
  1  9  1  0
  9 10  1  0
 10 11  2  0
 11 12  1  0
 12 13  2  0
 13 14  1  0
 10 15  1  0
 14 15  2  0
M  END
