x0669
     RDKit          3D

 14 15  0  0  0  0  0  0  0  0999 V2000
   21.7760   -8.0450    5.7410 Cl  0  0  0  0  0  0  0  0  0  0  0  0
   23.5610   -8.0650    5.7270 C   0  0  0  0  0  0  0  0  0  0  0  0
   24.3100   -6.7850    6.0920 C   0  0  0  0  0  0  0  0  0  0  0  0
   25.6810   -6.7640    6.1010 C   0  0  0  0  0  0  0  0  0  0  0  0
   26.4180   -7.9610    5.7590 C   0  0  0  0  0  0  0  0  0  0  0  0
   25.6930   -9.2170    5.4030 C   0  0  0  0  0  0  0  0  0  0  0  0
   26.4940  -10.4640    5.0590 C   0  0  0  0  0  0  0  0  0  0  0  0
   26.8440  -11.1500    6.1620 N   0  0  0  0  0  0  0  0  0  0  0  0
   27.8300  -10.5620    6.9100 C   0  0  0  0  0  0  0  0  0  0  0  0
   28.2980  -11.3430    8.1250 C   0  0  0  0  0  0  0  0  0  0  0  0
   28.2670  -12.7650    8.0030 O   0  0  0  0  0  0  0  0  0  0  0  0
   27.4120  -13.3110    7.0890 C   0  0  0  0  0  0  0  0  0  0  0  0
   27.2020  -12.4810    5.8340 C   0  0  0  0  0  0  0  0  0  0  0  0
   24.2830   -9.2400    5.3920 C   0  0  0  0  0  0  0  0  0  0  0  0
  1  2  1  0
  2  3  2  0
  3  4  1  0
  4  5  2  0
  5  6  1  0
  6  7  1  0
  7  8  1  0
  8  9  1  0
  9 10  1  0
 10 11  1  0
 11 12  1  0
  8 13  1  0
 12 13  1  0
  2 14  1  0
  6 14  2  0
M  END
