x0691
     RDKit          3D

 20 21  0  0  0  0  0  0  0  0999 V2000
    5.4180   -5.5390   24.3220 N   0  0  0  0  0  0  0  0  0  0  0  0
    2.8660   -1.9660   25.7940 C   0  0  0  0  0  0  0  0  0  0  0  0
    3.9940   -6.7810   25.8990 O   0  0  0  0  0  0  0  0  0  0  0  0
    1.5250   -2.2540   25.7070 C   0  0  0  0  0  0  0  0  0  0  0  0
    6.4320   -5.1150   21.7270 N   0  0  0  0  0  0  0  0  0  0  0  0
    5.6710   -5.1710   26.7450 O   0  0  0  0  0  0  0  0  0  0  0  0
    1.1540   -3.5820   25.6480 C   0  0  0  0  0  0  0  0  0  0  0  0
    5.7160   -4.4890   19.6740 O   0  0  0  0  0  0  0  0  0  0  0  0
    2.1140   -4.5840   25.6700 C   0  0  0  0  0  0  0  0  0  0  0  0
    3.4570   -4.2520   25.7540 C   0  0  0  0  0  0  0  0  0  0  0  0
    3.8510   -2.9270   25.8180 C   0  0  0  0  0  0  0  0  0  0  0  0
    6.4550   -4.5210   24.0930 C   0  0  0  0  0  0  0  0  0  0  0  0
    7.2860   -4.9110   22.8990 C   0  0  0  0  0  0  0  0  0  0  0  0
    5.4080   -6.1300   21.9740 C   0  0  0  0  0  0  0  0  0  0  0  0
    4.5540   -5.7210   23.1450 C   0  0  0  0  0  0  0  0  0  0  0  0
    6.5670   -4.4530   20.5540 C   0  0  0  0  0  0  0  0  0  0  0  0
    7.8340   -3.6670   20.3450 C   0  0  0  0  0  0  0  0  0  0  0  0
    3.2440   -0.6710   25.8530 F   0  0  0  0  0  0  0  0  0  0  0  0
    4.6770   -5.5300   25.7840 S   0  0  1  0  0  0  0  0  0  0  0  0
    8.2620   -3.4150   18.6000 R   0  0  0  0  0  0  0  0  0  0  0  0
  2  4  2  0
  4  7  1  0
  7  9  2  0
  9 10  1  0
  2 11  1  0
 10 11  2  0
  1 12  1  0
  5 13  1  0
 12 13  1  0
  5 14  1  0
  1 15  1  0
 14 15  1  0
  5 16  1  0
  8 16  2  0
 16 17  1  0
  2 18  1  0
  1 19  1  0
  3 19  2  0
  6 19  2  0
 19 10  1  6
 17 20  1  0
M  END
