x0749
     RDKit          3D

 19 21  0  0  0  0  0  0  0  0999 V2000
    7.0840   -4.5830   21.2620 N   0  0  0  0  0  0  0  0  0  0  0  0
    7.3390   -3.0100   19.3740 C   0  0  0  0  0  0  0  0  0  0  0  0
    5.5540   -4.5490   19.6270 O   0  0  0  0  0  0  0  0  0  0  0  0
    6.5870   -4.1010   20.1050 C   0  0  0  0  0  0  0  0  0  0  0  0
    9.9670   -2.3900   23.6770 N   0  0  0  0  0  0  0  0  0  0  0  0
    6.2560   -5.4530   22.1070 C   0  0  0  0  0  0  0  0  0  0  0  0
    7.1020   -6.3700   22.9670 C   0  0  0  0  0  0  0  0  0  0  0  0
    7.9630   -5.5560   23.9350 C   0  0  0  0  0  0  0  0  0  0  0  0
    8.3350   -4.2020   23.3220 C   0  0  2  0  0  0  0  0  0  0  0  0
    8.4130   -4.3360   21.8120 C   0  0  0  0  0  0  0  0  0  0  0  0
    9.6050   -3.6130   23.8960 C   0  0  0  0  0  0  0  0  0  0  0  0
   11.1840   -2.1180   24.2980 C   0  0  0  0  0  0  0  0  0  0  0  0
   11.8730   -0.9110   24.2480 C   0  0  0  0  0  0  0  0  0  0  0  0
   13.0740   -0.8100   24.9150 C   0  0  0  0  0  0  0  0  0  0  0  0
   13.6040   -1.8780   25.6280 C   0  0  0  0  0  0  0  0  0  0  0  0
   12.9350   -3.0780   25.6990 C   0  0  0  0  0  0  0  0  0  0  0  0
   11.7220   -3.1870   25.0240 C   0  0  0  0  0  0  0  0  0  0  0  0
   10.6610   -4.5560   24.9210 S   0  0  0  0  0  0  0  0  0  0  0  0
    8.7700   -3.6920   18.5150 R   0  0  0  0  0  0  0  0  0  0  0  0
  1  4  1  0
  2  4  1  0
  3  4  2  0
  1  6  1  0
  6  7  1  0
  7  8  1  0
  8  9  1  0
  1 10  1  0
  9 10  1  0
  5 11  2  0
  9 11  1  1
  5 12  1  0
 12 13  2  0
 13 14  1  0
 14 15  2  0
 15 16  1  0
 12 17  1  0
 16 17  2  0
 11 18  1  0
 17 18  1  0
  2 19  1  0
M  END
