x1163
     RDKit          3D

 15 16  0  0  0  0  0  0  0  0999 V2000
   21.8100   21.3900    4.6550 O   0  0  0  0  0  0  0  0  0  0  0  0
   21.9250   20.2030    3.9860 C   0  0  0  0  0  0  0  0  0  0  0  0
   20.7060   19.3570    4.2320 C   0  0  1  0  0  0  0  0  0  0  0  0
   21.1110   17.8630    4.2160 C   0  0  0  0  0  0  0  0  0  0  0  0
   21.4560   17.3210    5.4990 N   0  0  0  0  0  0  0  0  0  0  0  0
   22.3250   16.3660    5.4670 C   0  0  0  0  0  0  0  0  0  0  0  0
   21.8300   15.1240    6.2030 C   0  0  0  0  0  0  0  0  0  0  0  0
   22.4500   13.9250    5.9110 C   0  0  0  0  0  0  0  0  0  0  0  0
   22.0520   12.7640    6.5380 C   0  0  0  0  0  0  0  0  0  0  0  0
   21.0350   12.7890    7.4730 C   0  0  0  0  0  0  0  0  0  0  0  0
   20.4220   13.9680    7.7740 C   0  0  0  0  0  0  0  0  0  0  0  0
   20.8190   15.1430    7.1360 C   0  0  0  0  0  0  0  0  0  0  0  0
   21.6870   18.2590    6.5140 C   0  0  0  0  0  0  0  0  0  0  0  0
   20.5270   19.2620    6.6470 C   0  0  0  0  0  0  0  0  0  0  0  0
   20.0470   19.7820    5.4130 O   0  0  0  0  0  0  0  0  0  0  0  0
  1  2  1  0
  3  2  1  1
  3  4  1  0
  4  5  1  0
  5  6  1  0
  6  7  1  0
  7  8  2  0
  8  9  1  0
  9 10  2  0
 10 11  1  0
  7 12  1  0
 11 12  2  0
  5 13  1  0
 13 14  1  0
  3 15  1  0
 14 15  1  0
M  END
