x1375
     RDKit          3D

 19 20  0  0  0  0  0  0  0  0999 V2000
    5.9220   -4.7490   20.0850 O   0  0  0  0  0  0  0  0  0  0  0  0
    6.7060   -4.3610   20.9430 C   0  0  0  0  0  0  0  0  0  0  0  0
    8.0070   -3.6950   20.5490 C   0  0  0  0  0  0  0  0  0  0  0  0
    6.4490   -4.5230   22.2870 N   0  0  0  0  0  0  0  0  0  0  0  0
    7.5230   -4.5560   23.2380 C   0  0  0  0  0  0  0  0  0  0  0  0
    7.9930   -3.3770   23.8120 C   0  0  0  0  0  0  0  0  0  0  0  0
    9.0220   -3.4220   24.7400 C   0  0  0  0  0  0  0  0  0  0  0  0
    9.5530   -4.6380   25.0700 C   0  0  0  0  0  0  0  0  0  0  0  0
    9.1160   -5.8130   24.5290 C   0  0  0  0  0  0  0  0  0  0  0  0
    8.0850   -5.7740   23.6060 C   0  0  0  0  0  0  0  0  0  0  0  0
    5.0790   -4.7200   22.7650 C   0  0  2  0  0  0  0  0  0  0  0  0
    4.9250   -4.3600   24.2430 C   0  0  0  0  0  0  0  0  0  0  0  0
    4.1670   -5.1940   24.9490 C   0  0  0  0  0  0  0  0  0  0  0  0
    4.0100   -6.7470   24.1650 S   0  0  2  0  0  0  0  0  0  0  0  0
    2.6240   -7.1100   24.0380 O   0  0  0  0  0  0  0  0  0  0  0  0
    4.8890   -7.7090   24.7740 O   0  0  0  0  0  0  0  0  0  0  0  0
    4.6630   -6.1920   22.6030 C   0  0  0  0  0  0  0  0  0  0  0  0
   10.5690   -4.6820   25.9720 F   0  0  0  0  0  0  0  0  0  0  0  0
    8.2800   -3.4570   18.7590 R   0  0  0  0  0  0  0  0  0  0  0  0
  1  2  2  0
  2  3  1  0
  2  4  1  0
  4  5  1  0
  5  6  2  0
  6  7  1  0
  7  8  2  0
  8  9  1  0
  5 10  1  0
  9 10  2  0
 11  4  1  1
 11 12  1  0
 12 13  2  0
 14 13  1  1
 14 15  2  0
 14 16  2  0
 11 17  1  0
 14 17  1  0
  8 18  1  0
  3 19  1  0
M  END
