x1386
     RDKit          3D

 16 17  0  0  0  0  0  0  0  0999 V2000
    7.0360   -2.3510   20.7820 N   0  0  0  0  0  0  0  0  0  0  0  0
    7.3050   -2.4620   18.3250 C   0  0  0  0  0  0  0  0  0  0  0  0
    5.8050   -3.8010   19.5950 O   0  0  0  0  0  0  0  0  0  0  0  0
    6.6530   -2.9160   19.6180 C   0  0  0  0  0  0  0  0  0  0  0  0
    8.7610   -2.1150   23.0580 N   0  0  0  0  0  0  0  0  0  0  0  0
    6.6200   -2.8500   22.0890 C   0  0  0  0  0  0  0  0  0  0  0  0
    7.8330   -3.2390   22.9030 C   0  0  0  0  0  0  0  0  0  0  0  0
    9.9360   -2.5250   23.8300 C   0  0  0  0  0  0  0  0  0  0  0  0
   11.0160   -1.4730   23.8260 C   0  0  0  0  0  0  0  0  0  0  0  0
   12.1170   -1.4010   22.9200 C   0  0  0  0  0  0  0  0  0  0  0  0
   12.8260   -0.2560   23.0140 C   0  0  0  0  0  0  0  0  0  0  0  0
   11.0500   -0.3900   24.6970 C   0  0  0  0  0  0  0  0  0  0  0  0
    9.1450   -1.6210   21.7300 C   0  0  0  0  0  0  0  0  0  0  0  0
    7.9340   -1.2110   20.9260 C   0  0  0  0  0  0  0  0  0  0  0  0
   12.1910    0.7640   24.2010 S   0  0  0  0  0  0  0  0  0  0  0  0
    8.9030   -3.2840   18.1100 R   0  0  0  0  0  0  0  0  0  0  0  0
  1  4  1  0
  2  4  1  0
  3  4  2  0
  1  6  1  0
  5  7  1  0
  6  7  1  0
  5  8  1  0
  8  9  1  0
  9 10  1  0
 10 11  2  0
  9 12  2  0
  5 13  1  0
  1 14  1  0
 13 14  1  0
 11 15  1  0
 12 15  1  0
  2 16  1  0
M  END
