
     RDKit          3D

 45 46  0  0  0  0  0  0  0  0999 V2000
    6.5990   -4.6270   25.5040 C   0  0  0  0  0  0  0  0  0  0  0  0
    8.2080   -3.9130   25.7640 S   0  0  2  0  0  0  0  0  0  0  0  0
    9.2050   -4.9100   25.4520 O   0  0  0  0  0  0  0  0  0  0  0  0
    8.1590   -3.3240   27.0810 O   0  0  0  0  0  0  0  0  0  0  0  0
    8.3020   -2.5720   24.6880 N   0  0  0  0  0  0  0  0  0  0  0  0
    8.4440   -2.7290   23.2040 C   0  0  0  0  0  0  0  0  0  0  0  0
    9.1250   -1.6590   22.4830 C   0  0  1  0  0  0  0  0  0  0  0  0
    8.3980   -0.4220   21.8970 C   0  0  0  0  0  0  0  0  0  0  0  0
    8.9480    0.6800   21.7920 O   0  0  0  0  0  0  0  0  0  0  0  0
    7.0290   -0.7030   21.4710 N   0  0  0  0  0  0  0  0  0  0  0  0
    6.5030   -0.0280   20.2750 C   0  0  0  0  0  0  0  0  0  0  0  0
    5.4060    0.7790   20.5110 C   0  0  0  0  0  0  0  0  0  0  0  0
    4.8720    1.4670   19.2530 C   0  0  0  0  0  0  0  0  0  0  0  0
    5.5420    1.2080   18.0430 C   0  0  0  0  0  0  0  0  0  0  0  0
    6.6010    0.4080   17.9110 N   0  0  0  0  0  0  0  0  0  0  0  0
    7.0560   -0.1910   19.0170 C   0  0  0  0  0  0  0  0  0  0  0  0
   10.4660   -1.2500   23.1280 C   0  0  2  0  0  0  0  0  0  0  0  0
   10.6710    0.1040   23.3140 C   0  0  0  0  0  0  0  0  0  0  0  0
   11.9140    0.4010   23.8400 C   0  0  0  0  0  0  0  0  0  0  0  0
   13.0140   -0.1860   23.2590 C   0  0  0  0  0  0  0  0  0  0  0  0
   12.9180   -1.3260   22.4730 C   0  0  0  0  0  0  0  0  0  0  0  0
   11.6250   -1.8800   22.3210 C   0  0  0  0  0  0  0  0  0  0  0  0
    6.3220   -5.1950   26.3980 H   0  0  0  0  0  0  0  0  0  0  0  0
    6.6360   -5.3110   24.6500 H   0  0  0  0  0  0  0  0  0  0  0  0
    5.8660   -3.8350   25.3270 H   0  0  0  0  0  0  0  0  0  0  0  0
    7.7650   -1.7970   25.0550 H   0  0  0  0  0  0  0  0  0  0  0  0
    7.4460   -2.8480   22.7680 H   0  0  0  0  0  0  0  0  0  0  0  0
    8.9940   -3.6550   23.0410 H   0  0  0  0  0  0  0  0  0  0  0  0
    9.4460   -2.1690   21.5650 H   0  0  0  0  0  0  0  0  0  0  0  0
    6.4350   -0.6480   22.3040 H   0  0  0  0  0  0  0  0  0  0  0  0
    4.8990    0.9720   21.4490 H   0  0  0  0  0  0  0  0  0  0  0  0
    4.0090    2.1350   19.2860 H   0  0  0  0  0  0  0  0  0  0  0  0
    5.2000    1.6780   17.1210 H   0  0  0  0  0  0  0  0  0  0  0  0
    7.9240   -0.8400   18.8470 H   0  0  0  0  0  0  0  0  0  0  0  0
   10.4330   -1.6960   24.1080 H   0  0  0  0  0  0  0  0  0  0  0  0
    9.9470    0.4650   24.0480 H   0  0  0  0  0  0  0  0  0  0  0  0
   10.5870    0.7270   22.4250 H   0  0  0  0  0  0  0  0  0  0  0  0
   11.8950    0.0880   24.8870 H   0  0  0  0  0  0  0  0  0  0  0  0
   12.1530    1.4690   23.8900 H   0  0  0  0  0  0  0  0  0  0  0  0
   13.5360    0.5770   22.6700 H   0  0  0  0  0  0  0  0  0  0  0  0
   13.7020   -0.4310   24.0620 H   0  0  0  0  0  0  0  0  0  0  0  0
   13.6940   -2.0520   22.6760 H   0  0  0  0  0  0  0  0  0  0  0  0
   13.2100   -0.9900   21.4730 H   0  0  0  0  0  0  0  0  0  0  0  0
   11.6840   -2.9350   22.6030 H   0  0  0  0  0  0  0  0  0  0  0  0
   11.3890   -1.8900   21.2530 H   0  0  0  0  0  0  0  0  0  0  0  0
  1  2  1  0
  2  3  2  0
  2  4  2  0
  2  5  1  6
  5  6  1  0
  6  7  1  0
  7  8  1  0
  8  9  2  0
  8 10  1  0
 10 11  1  0
 11 12  2  0
 12 13  1  0
 13 14  2  0
 14 15  1  0
 11 16  1  0
 15 16  2  0
  7 17  1  0
 17 18  1  0
 18 19  1  0
 19 20  1  0
 20 21  1  0
 17 22  1  0
 21 22  1  0
  1 23  1  0
  1 24  1  0
  1 25  1  0
  5 26  1  0
  6 27  1  0
  6 28  1  0
  7 29  1  6
 10 30  1  0
 12 31  1  0
 13 32  1  0
 14 33  1  0
 16 34  1  0
 17 35  1  1
 18 36  1  0
 18 37  1  0
 19 38  1  0
 19 39  1  0
 20 40  1  0
 20 41  1  0
 21 42  1  0
 21 43  1  0
 22 44  1  0
 22 45  1  0
M  END
