
     RDKit          3D

 43 45  0  0  0  0  0  0  0  0999 V2000
    8.9690    2.6270   21.4900 N   0  0  0  0  0  0  0  0  0  0  0  0
    8.8480    1.7560   22.2220 C   0  0  0  0  0  0  0  0  0  0  0  0
    8.7860    0.6120   23.1520 C   0  0  1  0  0  0  0  0  0  0  0  0
    7.7010   -0.2670   22.9960 C   0  0  0  0  0  0  0  0  0  0  0  0
    7.8080   -1.7210   23.4360 C   0  0  0  0  0  0  0  0  0  0  0  0
    8.9080   -1.8270   24.3870 C   0  0  1  0  0  0  0  0  0  0  0  0
    8.8330   -3.1580   25.1010 N   0  0  0  0  0  0  0  0  0  0  0  0
    9.1290   -4.3090   24.3610 C   0  0  0  0  0  0  0  0  0  0  0  0
    7.9560   -4.9880   23.6460 C   0  0  0  0  0  0  0  0  0  0  0  0
    6.8190   -4.8080   24.4330 C   0  0  0  0  0  0  0  0  0  0  0  0
    7.0160   -5.5020   25.6420 O   0  0  0  0  0  0  0  0  0  0  0  0
    7.6260   -4.7470   26.6750 C   0  0  0  0  0  0  0  0  0  0  0  0
    8.1460   -3.3380   26.3130 C   0  0  0  0  0  0  0  0  0  0  0  0
    7.9770   -2.4310   27.1160 O   0  0  0  0  0  0  0  0  0  0  0  0
   10.2260   -1.2210   23.7060 C   0  0  1  0  0  0  0  0  0  0  0  0
   11.0500   -1.8620   22.7460 C   0  0  0  0  0  0  0  0  0  0  0  0
   12.2780   -1.1910   22.5820 C   0  0  0  0  0  0  0  0  0  0  0  0
   12.4360    0.0460   23.2330 C   0  0  0  0  0  0  0  0  0  0  0  0
   11.2290    0.7730   23.3440 C   0  0  0  0  0  0  0  0  0  0  0  0
   10.0620   -0.0520   22.9620 N   0  0  0  0  0  0  0  0  0  0  0  0
    8.7530    1.0170   24.1730 H   0  0  0  0  0  0  0  0  0  0  0  0
    6.8270    0.1680   23.5060 H   0  0  0  0  0  0  0  0  0  0  0  0
    7.4230   -0.2790   21.9330 H   0  0  0  0  0  0  0  0  0  0  0  0
    8.0460   -2.3130   22.5420 H   0  0  0  0  0  0  0  0  0  0  0  0
    6.9400   -2.2130   23.8660 H   0  0  0  0  0  0  0  0  0  0  0  0
    8.6820   -1.0960   25.1540 H   0  0  0  0  0  0  0  0  0  0  0  0
    9.8120   -3.9490   23.5970 H   0  0  0  0  0  0  0  0  0  0  0  0
    9.6470   -5.0020   25.0380 H   0  0  0  0  0  0  0  0  0  0  0  0
    7.7880   -4.4120   22.7330 H   0  0  0  0  0  0  0  0  0  0  0  0
    8.1000   -6.0030   23.2790 H   0  0  0  0  0  0  0  0  0  0  0  0
    6.5740   -3.7980   24.7470 H   0  0  0  0  0  0  0  0  0  0  0  0
    5.8840   -5.1670   24.0060 H   0  0  0  0  0  0  0  0  0  0  0  0
    7.0160   -4.7970   27.5770 H   0  0  0  0  0  0  0  0  0  0  0  0
    8.5330   -5.3140   26.9250 H   0  0  0  0  0  0  0  0  0  0  0  0
   10.8380   -0.8380   24.5200 H   0  0  0  0  0  0  0  0  0  0  0  0
   11.2190   -2.9090   23.0090 H   0  0  0  0  0  0  0  0  0  0  0  0
   10.6220   -1.9270   21.7390 H   0  0  0  0  0  0  0  0  0  0  0  0
   13.1010   -1.8420   22.8610 H   0  0  0  0  0  0  0  0  0  0  0  0
   12.4430   -1.0490   21.5220 H   0  0  0  0  0  0  0  0  0  0  0  0
   13.0450    0.0010   24.1310 H   0  0  0  0  0  0  0  0  0  0  0  0
   13.0790    0.6330   22.5660 H   0  0  0  0  0  0  0  0  0  0  0  0
   11.1250    1.1100   24.3750 H   0  0  0  0  0  0  0  0  0  0  0  0
   11.2880    1.6800   22.7330 H   0  0  0  0  0  0  0  0  0  0  0  0
  1  2  3  0
  2  3  1  0
  3  4  1  0
  4  5  1  0
  5  6  1  0
  6  7  1  0
  7  8  1  0
  8  9  1  0
  9 10  1  0
 10 11  1  0
 11 12  1  0
  7 13  1  0
 12 13  1  0
 13 14  2  0
  6 15  1  0
 15 16  1  0
 16 17  1  0
 17 18  1  0
 18 19  1  0
  3 20  1  0
 15 20  1  0
 19 20  1  0
  3 21  1  1
  4 22  1  0
  4 23  1  0
  5 24  1  0
  5 25  1  0
  6 26  1  1
  8 27  1  0
  8 28  1  0
  9 29  1  0
  9 30  1  0
 10 31  1  0
 10 32  1  0
 12 33  1  0
 12 34  1  0
 15 35  1  1
 16 36  1  0
 16 37  1  0
 17 38  1  0
 17 39  1  0
 18 40  1  0
 18 41  1  0
 19 42  1  0
 19 43  1  0
M  END
