
     RDKit          3D

 48 49  0  0  0  0  0  0  0  0999 V2000
    5.7640    0.8520   22.2370 C   0  0  0  0  0  0  0  0  0  0  0  0
    6.0280    0.6350   20.7770 C   0  0  0  0  0  0  0  0  0  0  0  0
    5.1800    1.2660   19.8470 C   0  0  0  0  0  0  0  0  0  0  0  0
    5.4470    1.0370   18.3690 C   0  0  0  0  0  0  0  0  0  0  0  0
    6.4520    0.2580   17.9600 N   0  0  0  0  0  0  0  0  0  0  0  0
    7.2340   -0.3250   18.9180 C   0  0  0  0  0  0  0  0  0  0  0  0
    7.0810   -0.1750   20.2840 C   0  0  0  0  0  0  0  0  0  0  0  0
    8.0190   -0.8890   21.0460 N   0  0  0  0  0  0  0  0  0  0  0  0
    9.0480   -0.2060   21.7360 C   0  0  0  0  0  0  0  0  0  0  0  0
    9.3340    0.9470   21.4270 O   0  0  0  0  0  0  0  0  0  0  0  0
    9.7500   -0.8090   22.8560 C   0  0  2  0  0  0  0  0  0  0  0  0
    8.7430   -1.6520   23.6210 C   0  0  0  0  0  0  0  0  0  0  0  0
    9.2160   -2.8930   24.3700 C   0  0  0  0  0  0  0  0  0  0  0  0
    8.0620   -3.7690   24.6870 N   0  0  0  0  0  0  0  0  0  0  0  0
    8.1030   -4.5300   26.1940 S   0  0  1  0  0  0  0  0  0  0  0  0
    6.4900   -5.2690   26.3140 C   0  0  0  0  0  0  0  0  0  0  0  0
    9.1080   -5.5610   26.1440 O   0  0  0  0  0  0  0  0  0  0  0  0
    8.1450   -3.4610   27.1610 O   0  0  0  0  0  0  0  0  0  0  0  0
   10.4060    0.1280   23.6960 C   0  0  0  0  0  0  0  0  0  0  0  0
   11.6780    0.6150   23.4070 C   0  0  0  0  0  0  0  0  0  0  0  0
   12.7280   -0.2470   23.1450 C   0  0  0  0  0  0  0  0  0  0  0  0
   12.3840   -1.3710   22.3620 C   0  0  0  0  0  0  0  0  0  0  0  0
   10.8840   -1.7670   22.2900 C   0  0  0  0  0  0  0  0  0  0  0  0
    6.4350    1.6010   22.6660 H   0  0  0  0  0  0  0  0  0  0  0  0
    4.7350    1.2020   22.3630 H   0  0  0  0  0  0  0  0  0  0  0  0
    5.8970   -0.0940   22.7690 H   0  0  0  0  0  0  0  0  0  0  0  0
    4.3550    1.9020   20.1550 H   0  0  0  0  0  0  0  0  0  0  0  0
    4.8380    1.4900   17.5900 H   0  0  0  0  0  0  0  0  0  0  0  0
    8.0150   -0.9410   18.4860 H   0  0  0  0  0  0  0  0  0  0  0  0
    7.6520   -1.7060   21.5070 H   0  0  0  0  0  0  0  0  0  0  0  0
    8.2290   -1.0170   24.3540 H   0  0  0  0  0  0  0  0  0  0  0  0
    7.9500   -1.9600   22.9240 H   0  0  0  0  0  0  0  0  0  0  0  0
    9.9300   -3.4620   23.7750 H   0  0  0  0  0  0  0  0  0  0  0  0
    9.6880   -2.5930   25.2990 H   0  0  0  0  0  0  0  0  0  0  0  0
    7.6540   -4.3400   23.9470 H   0  0  0  0  0  0  0  0  0  0  0  0
    5.7980   -4.5540   26.7610 H   0  0  0  0  0  0  0  0  0  0  0  0
    6.1600   -5.5200   25.3030 H   0  0  0  0  0  0  0  0  0  0  0  0
    6.5600   -6.1790   26.9160 H   0  0  0  0  0  0  0  0  0  0  0  0
   10.4370   -0.2720   24.7160 H   0  0  0  0  0  0  0  0  0  0  0  0
    9.7780    1.0200   23.7890 H   0  0  0  0  0  0  0  0  0  0  0  0
   11.5940    1.2910   22.5530 H   0  0  0  0  0  0  0  0  0  0  0  0
   11.9900    1.2600   24.2350 H   0  0  0  0  0  0  0  0  0  0  0  0
   13.3650   -0.4370   23.9980 H   0  0  0  0  0  0  0  0  0  0  0  0
   13.4010    0.3450   22.5110 H   0  0  0  0  0  0  0  0  0  0  0  0
   12.7700   -1.2260   21.3530 H   0  0  0  0  0  0  0  0  0  0  0  0
   12.9520   -2.2310   22.7250 H   0  0  0  0  0  0  0  0  0  0  0  0
   10.7830   -2.7500   22.7570 H   0  0  0  0  0  0  0  0  0  0  0  0
   10.6840   -1.9630   21.2360 H   0  0  0  0  0  0  0  0  0  0  0  0
  1  2  1  0
  2  3  2  0
  3  4  1  0
  4  5  2  0
  5  6  1  0
  2  7  1  0
  6  7  2  0
  7  8  1  0
  8  9  1  0
  9 10  2  0
 11  9  1  6
 11 12  1  0
 12 13  1  0
 13 14  1  0
 15 14  1  6
 15 16  1  0
 15 17  2  0
 15 18  2  0
 11 19  1  0
 19 20  1  0
 20 21  1  0
 21 22  1  0
 11 23  1  0
 22 23  1  0
  1 24  1  0
  1 25  1  0
  1 26  1  0
  3 27  1  0
  4 28  1  0
  6 29  1  0
  8 30  1  0
 12 31  1  0
 12 32  1  0
 13 33  1  0
 13 34  1  0
 14 35  1  0
 16 36  1  0
 16 37  1  0
 16 38  1  0
 19 39  1  0
 19 40  1  0
 20 41  1  0
 20 42  1  0
 21 43  1  0
 21 44  1  0
 22 45  1  0
 22 46  1  0
 23 47  1  0
 23 48  1  0
M  END
