LIG
     RDKit          3D

 45 46  0  0  0  0  0  0  0  0999 V2000
    6.4340   -4.9520   26.5780 C   0  0  0  0  0  0  0  0  0  0  0  0
    8.0950   -4.3580   26.1540 S   0  0  0  0  0  6  0  0  0  0  0  0
    9.0830   -5.4410   26.1700 O   0  0  0  0  0  0  0  0  0  0  0  0
    8.6390   -3.5100   27.2010 O   0  0  0  0  0  0  0  0  0  0  0  0
    8.0610   -3.5350   24.6620 N   0  0  0  0  0  0  0  0  0  0  0  0
    9.3140   -3.0270   24.1660 C   0  0  0  0  0  0  0  0  0  0  0  0
    9.3095   -0.9515   23.1900 C   0  0  0  0  0  0  0  0  0  0  0  0
    8.8650    0.3120   21.6960 C   0  0  0  0  0  0  0  0  0  0  0  0
    9.4190    1.1020   21.0000 O   0  0  0  0  0  0  0  0  0  0  0  0
    7.6120   -0.2560   21.3260 N   0  0  0  0  0  0  0  0  0  0  0  0
    7.0000    0.1710   20.1090 C   0  0  0  0  0  0  0  0  0  0  0  0
    5.7560    0.7730   20.2490 C   0  0  0  0  0  0  0  0  0  0  0  0
    5.1420    1.2080   19.0830 C   0  0  0  0  0  0  0  0  0  0  0  0
    5.8050    1.0240   17.8770 C   0  0  0  0  0  0  0  0  0  0  0  0
    7.0000    0.4540   17.8140 N   0  0  0  0  0  0  0  0  0  0  0  0
    7.6260    0.0260   18.8870 C   0  0  0  0  0  0  0  0  0  0  0  0
   10.7635   -0.6110   23.2415 C   0  0  0  0  0  0  0  0  0  0  0  0
   11.0950   -0.2490   24.3905 C   0  0  0  0  0  0  0  0  0  0  0  0
   12.4845    0.1285   24.4840 C   0  0  0  0  0  0  0  0  0  0  0  0
   13.3945   -0.5010   23.5495 C   0  0  0  0  0  0  0  0  0  0  0  0
   12.8445   -1.4550   22.6335 C   0  0  0  0  0  0  0  0  0  0  0  0
   11.5725   -1.3700   22.3430 C   0  0  0  0  0  0  0  0  0  0  0  0
    6.2851   -4.8056   27.6437 H   0  0  0  0  0  0  0  0  0  0  0  0
    6.4018   -6.0097   26.3288 H   0  0  0  0  0  0  0  0  0  0  0  0
    5.7115   -4.3986   25.9862 H   0  0  0  0  0  0  0  0  0  0  0  0
    7.1711   -3.2106   24.3953 H   0  0  0  0  0  0  0  0  0  0  0  0
    9.7529   -3.4887   23.2980 H   0  0  0  0  0  0  0  0  0  0  0  0
   10.1024   -2.7652   24.8506 H   0  0  0  0  0  0  0  0  0  0  0  0
   10.0880   -1.7988   21.9364 H   0  0  0  0  0  0  0  0  0  0  0  0
    7.1636   -0.8677   21.8889 H   0  0  0  0  0  0  0  0  0  0  0  0
    5.2788    0.9077   21.1905 H   0  0  0  0  0  0  0  0  0  0  0  0
    4.1665    1.6835   19.1018 H   0  0  0  0  0  0  0  0  0  0  0  0
    5.3686    1.3403   16.9437 H   0  0  0  0  0  0  0  0  0  0  0  0
    8.5755   -0.4071   18.7459 H   0  0  0  0  0  0  0  0  0  0  0  0
   10.7424   -2.0598   24.0007 H   0  0  0  0  0  0  0  0  0  0  0  0
   10.9328   -1.0028   25.2426 H   0  0  0  0  0  0  0  0  0  0  0  0
   10.4906    0.6362   24.8013 H   0  0  0  0  0  0  0  0  0  0  0  0
   12.8649   -0.0508   25.5319 H   0  0  0  0  0  0  0  0  0  0  0  0
   12.5651    1.2512   24.3963 H   0  0  0  0  0  0  0  0  0  0  0  0
   13.9656    0.3082   22.9804 H   0  0  0  0  0  0  0  0  0  0  0  0
   14.2474   -0.9897   24.1314 H   0  0  0  0  0  0  0  0  0  0  0  0
   13.1385   -2.5126   23.0109 H   0  0  0  0  0  0  0  0  0  0  0  0
   13.5110   -1.4237   21.6837 H   0  0  0  0  0  0  0  0  0  0  0  0
   11.0979   -2.4064   22.2582 H   0  0  0  0  0  0  0  0  0  0  0  0
   11.4265   -0.9794   21.2776 H   0  0  0  0  0  0  0  0  0  0  0  0
  1  2  1  0
  2  3  2  0
  2  4  2  0
  2  5  1  0
  5  6  1  0
  6  7  1  0
  7  8  1  0
  8  9  2  0
  8 10  1  0
 10 11  1  0
 11 12  4  0
 12 13  4  0
 13 14  4  0
 14 15  4  0
 15 16  4  0
  7 17  1  0
 17 18  1  0
 18 19  1  0
 19 20  1  0
 20 21  1  0
 21 22  1  0
 16 11  4  0
 22 17  1  0
  1 23  1  0
  1 24  1  0
  1 25  1  0
  5 26  1  0
  6 27  1  0
  6 28  1  0
  7 29  1  0
 10 30  1  0
 12 31  1  0
 13 32  1  0
 14 33  1  0
 16 34  1  0
 17 35  1  0
 18 36  1  0
 18 37  1  0
 19 38  1  0
 19 39  1  0
 20 40  1  0
 20 41  1  0
 21 42  1  0
 21 43  1  0
 22 44  1  0
 22 45  1  0
M  END
