
     RDKit          3D

 43 44  0  0  0  0  0  0  0  0999 V2000
    9.0310    6.6500   22.5490 C   0  0  0  0  0  0  0  0  0  0  0  0
   10.1890    6.1910   23.3970 C   0  0  0  0  0  0  0  0  0  0  0  0
   10.2110    6.3300   24.6150 O   0  0  0  0  0  0  0  0  0  0  0  0
   11.1980    5.6150   22.6720 N   0  0  0  0  0  0  0  0  0  0  0  0
   12.3230    4.9840   23.3550 C   0  0  0  0  0  0  0  0  0  0  0  0
   12.6290    3.5830   22.8170 C   0  0  0  0  0  0  0  0  0  0  0  0
   11.6430    2.5120   23.1930 C   0  0  0  0  0  0  0  0  0  0  0  0
   10.4240    2.7080   23.7950 C   0  0  0  0  0  0  0  0  0  0  0  0
    9.7940    1.4980   23.9180 N   0  0  0  0  0  0  0  0  0  0  0  0
   10.5730    0.4850   23.4020 C   0  0  0  0  0  0  0  0  0  0  0  0
   10.3090   -0.9080   23.2800 C   0  0  0  0  0  0  0  0  0  0  0  0
    9.0160   -1.5660   23.7380 C   0  0  0  0  0  0  0  0  0  0  0  0
    9.0140   -3.1100   23.8090 C   0  0  0  0  0  0  0  0  0  0  0  0
    7.8370   -3.6050   24.5750 N   0  0  0  0  0  0  0  0  0  0  0  0
    8.0870   -4.3500   26.0750 S   0  0  2  0  0  0  0  0  0  0  0  0
    6.5540   -5.2140   26.3420 C   0  0  0  0  0  0  0  0  0  0  0  0
    8.1750   -3.3170   27.0750 O   0  0  0  0  0  0  0  0  0  0  0  0
    9.1260   -5.3350   25.8860 O   0  0  0  0  0  0  0  0  0  0  0  0
   11.3330   -1.6710   22.6880 C   0  0  0  0  0  0  0  0  0  0  0  0
   12.5170   -1.0960   22.2930 C   0  0  0  0  0  0  0  0  0  0  0  0
   13.4580   -1.8660   21.7540 F   0  0  0  0  0  0  0  0  0  0  0  0
   12.7550    0.2600   22.4330 C   0  0  0  0  0  0  0  0  0  0  0  0
   11.7560    1.0860   22.9730 C   0  0  0  0  0  0  0  0  0  0  0  0
    9.3710    7.1860   21.6630 H   0  0  0  0  0  0  0  0  0  0  0  0
    8.4610    5.7770   22.2210 H   0  0  0  0  0  0  0  0  0  0  0  0
    8.3930    7.3100   23.1410 H   0  0  0  0  0  0  0  0  0  0  0  0
   10.9930    5.3780   21.6990 H   0  0  0  0  0  0  0  0  0  0  0  0
   12.1010    4.9610   24.4250 H   0  0  0  0  0  0  0  0  0  0  0  0
   13.1870    5.6410   23.2130 H   0  0  0  0  0  0  0  0  0  0  0  0
   12.6160    3.6660   21.7260 H   0  0  0  0  0  0  0  0  0  0  0  0
   13.6370    3.2820   23.0480 H   0  0  0  0  0  0  0  0  0  0  0  0
    9.9400    3.6140   24.1380 H   0  0  0  0  0  0  0  0  0  0  0  0
    8.8750    1.3640   24.3200 H   0  0  0  0  0  0  0  0  0  0  0  0
    8.2030   -1.2360   23.0810 H   0  0  0  0  0  0  0  0  0  0  0  0
    8.7690   -1.1720   24.7320 H   0  0  0  0  0  0  0  0  0  0  0  0
    9.9260   -3.4560   24.2950 H   0  0  0  0  0  0  0  0  0  0  0  0
    8.9810   -3.5290   22.7980 H   0  0  0  0  0  0  0  0  0  0  0  0
    7.1940   -4.1790   24.0170 H   0  0  0  0  0  0  0  0  0  0  0  0
    6.7830   -6.1550   26.8480 H   0  0  0  0  0  0  0  0  0  0  0  0
    6.0870   -5.4170   25.3760 H   0  0  0  0  0  0  0  0  0  0  0  0
    5.9020   -4.6070   26.9740 H   0  0  0  0  0  0  0  0  0  0  0  0
   11.2130   -2.7450   22.5420 H   0  0  0  0  0  0  0  0  0  0  0  0
   13.6970    0.6590   22.1130 H   0  0  0  0  0  0  0  0  0  0  0  0
  1  2  1  0
  2  3  2  0
  2  4  1  0
  4  5  1  0
  5  6  1  0
  6  7  1  0
  7  8  2  0
  8  9  1  0
  9 10  1  0
 10 11  1  0
 11 12  1  0
 12 13  1  0
 13 14  1  0
 15 14  1  6
 15 16  1  0
 15 17  2  0
 15 18  2  0
 11 19  2  0
 19 20  1  0
 20 21  1  0
 20 22  2  0
  7 23  1  0
 10 23  2  0
 22 23  1  0
  1 24  1  0
  1 25  1  0
  1 26  1  0
  4 27  1  0
  5 28  1  0
  5 29  1  0
  6 30  1  0
  6 31  1  0
  8 32  1  0
  9 33  1  0
 12 34  1  0
 12 35  1  0
 13 36  1  0
 13 37  1  0
 14 38  1  0
 16 39  1  0
 16 40  1  0
 16 41  1  0
 19 42  1  0
 22 43  1  0
M  END
