LIG
     RDKit          3D

 43 44  0  0  0  0  0  0  0  0999 V2000
    8.9920    6.2370   22.6120 C   0  0  0  0  0  0  0  0  0  0  0  0
   10.2740    5.9430   23.3830 C   0  0  0  0  0  0  0  0  0  0  0  0
   10.3130    6.1380   24.5460 O   0  0  0  0  0  0  0  0  0  0  0  0
   11.4270    5.4110   22.6760 N   0  0  0  0  0  0  0  0  0  0  0  0
   12.6680    5.0840   23.3500 C   0  0  0  0  0  0  0  0  0  0  0  0
   13.0500    3.6550   22.9570 C   0  0  0  0  0  0  0  0  0  0  0  0
   12.0650    2.5700   23.4230 C   0  0  0  0  0  0  0  0  0  0  0  0
   10.9400    2.7480   24.2110 C   0  0  0  0  0  0  0  0  0  0  0  0
   10.3530    1.5710   24.3790 N   0  0  0  0  0  0  0  0  0  0  0  0
   10.9785    0.2500   23.9910 C   0  0  0  0  0  0  0  0  0  0  0  0
   10.7140   -0.9720   23.5015 C   0  0  0  0  0  0  0  0  0  0  0  0
    9.2100   -1.7480   23.3470 C   0  0  0  0  0  0  0  0  0  0  0  0
    9.3140   -3.0270   24.1660 C   0  0  0  0  0  0  0  0  0  0  0  0
    8.0610   -3.5350   24.6620 N   0  0  0  0  0  0  0  0  0  0  0  0
    8.0950   -4.3580   26.1540 S   0  0  0  0  0  6  0  0  0  0  0  0
    6.4340   -4.9520   26.5780 C   0  0  0  0  0  0  0  0  0  0  0  0
    8.6390   -3.5100   27.2010 O   0  0  0  0  0  0  0  0  0  0  0  0
    9.0830   -5.4410   26.1700 O   0  0  0  0  0  0  0  0  0  0  0  0
   11.6455   -1.6370   22.7295 C   0  0  0  0  0  0  0  0  0  0  0  0
   12.8405   -1.0925   22.4325 C   0  0  0  0  0  0  0  0  0  0  0  0
   13.6800   -1.7440   21.5180 F   0  0  0  0  0  0  0  0  0  0  0  0
   13.1045    0.1205   22.9190 C   0  0  0  0  0  0  0  0  0  0  0  0
   12.1645    0.7980   23.6995 C   0  0  0  0  0  0  0  0  0  0  0  0
    9.1048    7.1943   22.1023 H   0  0  0  0  0  0  0  0  0  0  0  0
    8.8324    5.4399   21.8860 H   0  0  0  0  0  0  0  0  0  0  0  0
    8.1340    6.2968   23.2815 H   0  0  0  0  0  0  0  0  0  0  0  0
   11.3669    5.3610   21.6744 H   0  0  0  0  0  0  0  0  0  0  0  0
   12.4888    5.1600   24.4091 H   0  0  0  0  0  0  0  0  0  0  0  0
   13.4311    5.7803   23.0456 H   0  0  0  0  0  0  0  0  0  0  0  0
   13.1531    3.5793   21.8591 H   0  0  0  0  0  0  0  0  0  0  0  0
   14.0512    3.4024   23.3513 H   0  0  0  0  0  0  0  0  0  0  0  0
   10.5400    3.6594   24.6537 H   0  0  0  0  0  0  0  0  0  0  0  0
    9.3601    1.4813   24.8202 H   0  0  0  0  0  0  0  0  0  0  0  0
    9.0908   -1.9155   22.3118 H   0  0  0  0  0  0  0  0  0  0  0  0
    8.5004   -1.0599   23.7169 H   0  0  0  0  0  0  0  0  0  0  0  0
   10.0221   -2.8534   25.0230 H   0  0  0  0  0  0  0  0  0  0  0  0
    9.8128   -3.8207   23.5441 H   0  0  0  0  0  0  0  0  0  0  0  0
    7.4625   -4.0519   24.0128 H   0  0  0  0  0  0  0  0  0  0  0  0
    6.3302   -5.9429   26.1433 H   0  0  0  0  0  0  0  0  0  0  0  0
    5.7106   -4.2665   26.1462 H   0  0  0  0  0  0  0  0  0  0  0  0
    6.3546   -4.9989   27.6598 H   0  0  0  0  0  0  0  0  0  0  0  0
   11.4185   -2.6432   22.3415 H   0  0  0  0  0  0  0  0  0  0  0  0
   14.0805    0.6019   22.7049 H   0  0  0  0  0  0  0  0  0  0  0  0
  1  2  1  0
  2  3  2  0
  2  4  1  0
  4  5  1  0
  5  6  1  0
  6  7  1  0
  7  8  4  0
  8  9  4  0
  9 10  4  0
 10 11  4  0
 11 12  1  0
 12 13  1  0
 13 14  1  0
 14 15  1  0
 15 16  1  0
 15 17  2  0
 15 18  2  0
 11 19  4  0
 19 20  4  0
 20 21  1  0
 20 22  4  0
 22 23  4  0
 23  7  4  0
 23 10  4  0
  1 24  1  0
  1 25  1  0
  1 26  1  0
  4 27  1  0
  5 28  1  0
  5 29  1  0
  6 30  1  0
  6 31  1  0
  8 32  1  0
  9 33  1  0
 12 34  1  0
 12 35  1  0
 13 36  1  0
 13 37  1  0
 14 38  1  0
 16 39  1  0
 16 40  1  0
 16 41  1  0
 19 42  1  0
 22 43  1  0
M  END
