
     RDKit          3D

 37 38  0  0  0  0  0  0  0  0999 V2000
    6.7100   -5.0280   26.1490 C   0  0  0  0  0  0  0  0  0  0  0  0
    8.3060   -4.2600   25.9410 S   0  0  2  0  0  0  0  0  0  0  0  0
    9.2780   -5.2930   25.6740 O   0  0  0  0  0  0  0  0  0  0  0  0
    8.4640   -3.3420   27.0420 O   0  0  0  0  0  0  0  0  0  0  0  0
    8.0800   -3.2950   24.5560 N   0  0  0  0  0  0  0  0  0  0  0  0
    9.2410   -2.9270   23.6850 C   0  0  0  0  0  0  0  0  0  0  0  0
    9.3260   -1.5050   23.5160 C   0  0  2  0  0  0  0  0  0  0  0  0
    8.0890   -0.8050   22.9250 C   0  0  0  0  0  0  0  0  0  0  0  0
    8.1340    0.6000   23.3790 C   0  0  0  0  0  0  0  0  0  0  0  0
    9.3710    1.1540   23.4660 C   0  0  2  0  0  0  0  0  0  0  0  0
    9.3890    2.3470   22.5160 C   0  0  0  0  0  0  0  0  0  0  0  0
    9.5530    3.4400   22.1740 N   0  0  0  0  0  0  0  0  0  0  0  0
    9.0480    1.8720   21.4190 O   0  0  0  0  0  0  0  0  0  0  0  0
   10.4350    0.3050   23.1710 C   0  0  0  0  0  0  0  0  0  0  0  0
   11.8530    0.6850   22.7940 C   0  0  0  0  0  0  0  0  0  0  0  0
   12.8000   -0.5910   22.4910 C   0  0  0  0  0  0  0  0  0  0  0  0
   12.3920   -2.0050   22.5640 C   0  0  0  0  0  0  0  0  0  0  0  0
   11.0620   -2.2200   22.9440 C   0  0  0  0  0  0  0  0  0  0  0  0
   10.7520   -0.9710   23.0570 C   0  0  0  0  0  0  0  0  0  0  0  0
    6.1290   -4.4330   26.8600 H   0  0  0  0  0  0  0  0  0  0  0  0
    6.1820   -5.0520   25.1890 H   0  0  0  0  0  0  0  0  0  0  0  0
    6.8390   -6.0440   26.5370 H   0  0  0  0  0  0  0  0  0  0  0  0
    7.1790   -3.4860   24.1380 H   0  0  0  0  0  0  0  0  0  0  0  0
    9.1190   -3.4010   22.7030 H   0  0  0  0  0  0  0  0  0  0  0  0
   10.1430   -3.3190   24.1620 H   0  0  0  0  0  0  0  0  0  0  0  0
    9.3260   -1.1350   24.5510 H   0  0  0  0  0  0  0  0  0  0  0  0
    8.0880   -0.8520   21.8270 H   0  0  0  0  0  0  0  0  0  0  0  0
    7.1640   -1.2880   23.2660 H   0  0  0  0  0  0  0  0  0  0  0  0
    7.5190    1.2230   22.7160 H   0  0  0  0  0  0  0  0  0  0  0  0
    7.6690    0.6820   24.3680 H   0  0  0  0  0  0  0  0  0  0  0  0
    9.5030    1.5450   24.4800 H   0  0  0  0  0  0  0  0  0  0  0  0
   10.4620    3.8830   22.1320 H   0  0  0  0  0  0  0  0  0  0  0  0
    8.7230    4.0140   22.0120 H   0  0  0  0  0  0  0  0  0  0  0  0
   12.2150    1.7100   22.7210 H   0  0  0  0  0  0  0  0  0  0  0  0
   13.8280   -0.3830   22.2080 H   0  0  0  0  0  0  0  0  0  0  0  0
   13.0790   -2.8240   22.3450 H   0  0  0  0  0  0  0  0  0  0  0  0
   10.5180   -3.1490   23.0870 H   0  0  0  0  0  0  0  0  0  0  0  0
  1  2  1  0
  2  3  2  0
  2  4  2  0
  2  5  1  6
  5  6  1  0
  6  7  1  0
  7  8  1  0
  8  9  1  0
  9 10  1  0
 10 11  1  0
 11 12  1  0
 11 13  2  0
 10 14  1  0
 14 15  1  0
 15 16  2  0
 16 17  1  0
 17 18  2  0
  7 19  1  0
 14 19  2  0
 18 19  1  0
  1 20  1  0
  1 21  1  0
  1 22  1  0
  5 23  1  0
  6 24  1  0
  6 25  1  0
  7 26  1  1
  8 27  1  0
  8 28  1  0
  9 29  1  0
  9 30  1  0
 10 31  1  1
 12 32  1  0
 12 33  1  0
 15 34  1  0
 16 35  1  0
 17 36  1  0
 18 37  1  0
M  END
