
     RDKit          3D

 35 35  0  0  0  0  0  0  0  0999 V2000
    8.4830   -0.5970   27.3540 C   0  0  0  0  0  0  0  0  0  0  0  0
    8.5170   -0.4120   25.8710 C   0  0  0  0  0  0  0  0  0  0  0  0
    9.5250    0.3980   25.3980 N   0  0  0  0  0  0  0  0  0  0  0  0
   10.3780   -0.1150   24.3510 C   0  0  0  0  0  0  0  0  0  0  0  0
   11.7400    0.5290   24.1300 C   0  0  0  0  0  0  0  0  0  0  0  0
   12.6100   -0.0160   23.0880 C   0  0  0  0  0  0  0  0  0  0  0  0
   12.1960   -1.0660   22.3370 C   0  0  0  0  0  0  0  0  0  0  0  0
   13.1920   -1.4590   21.3550 C   0  0  0  0  0  0  0  0  0  0  0  0
   13.8930   -1.6620   20.5340 N   0  0  0  0  0  0  0  0  0  0  0  0
   10.9770   -1.6870   22.4660 C   0  0  0  0  0  0  0  0  0  0  0  0
   10.0200   -1.2030   23.5070 C   0  0  0  0  0  0  0  0  0  0  0  0
    8.7110   -1.9830   23.5420 C   0  0  0  0  0  0  0  0  0  0  0  0
    8.7670   -3.3240   23.8940 C   0  0  0  0  0  0  0  0  0  0  0  0
    7.6740   -3.6880   24.8030 N   0  0  0  0  0  0  0  0  0  0  0  0
    8.0230   -4.4850   26.2480 S   0  0  2  0  0  0  0  0  0  0  0  0
    6.5070   -5.3620   26.5460 C   0  0  0  0  0  0  0  0  0  0  0  0
    8.1380   -3.4930   27.2870 O   0  0  0  0  0  0  0  0  0  0  0  0
    9.0620   -5.4500   26.0010 O   0  0  0  0  0  0  0  0  0  0  0  0
    8.0090   -1.5410   27.6310 H   0  0  0  0  0  0  0  0  0  0  0  0
    7.9000    0.2140   27.7980 H   0  0  0  0  0  0  0  0  0  0  0  0
    9.5000   -0.5880   27.7370 H   0  0  0  0  0  0  0  0  0  0  0  0
    7.5470   -0.0090   25.5630 H   0  0  0  0  0  0  0  0  0  0  0  0
    8.6260   -1.4050   25.4290 H   0  0  0  0  0  0  0  0  0  0  0  0
   10.0380    0.8280   26.1750 H   0  0  0  0  0  0  0  0  0  0  0  0
   12.0800    1.3660   24.7120 H   0  0  0  0  0  0  0  0  0  0  0  0
   13.5920    0.4320   22.9210 H   0  0  0  0  0  0  0  0  0  0  0  0
   10.7190   -2.5240   21.8150 H   0  0  0  0  0  0  0  0  0  0  0  0
    8.2450   -1.8840   22.5590 H   0  0  0  0  0  0  0  0  0  0  0  0
    8.0310   -1.5120   24.2540 H   0  0  0  0  0  0  0  0  0  0  0  0
    9.7060   -3.5540   24.3930 H   0  0  0  0  0  0  0  0  0  0  0  0
    8.7320   -3.9760   23.0240 H   0  0  0  0  0  0  0  0  0  0  0  0
    6.8680   -3.0590   24.8710 H   0  0  0  0  0  0  0  0  0  0  0  0
    6.0340   -5.6200   25.5940 H   0  0  0  0  0  0  0  0  0  0  0  0
    5.8470   -4.7580   27.1810 H   0  0  0  0  0  0  0  0  0  0  0  0
    6.7340   -6.2690   27.1190 H   0  0  0  0  0  0  0  0  0  0  0  0
  1  2  1  0
  2  3  1  0
  3  4  1  0
  4  5  2  0
  5  6  1  0
  6  7  2  0
  7  8  1  0
  8  9  3  0
  7 10  1  0
  4 11  1  0
 10 11  2  0
 11 12  1  0
 12 13  1  0
 13 14  1  0
 15 14  1  6
 15 16  1  0
 15 17  2  0
 15 18  2  0
  1 19  1  0
  1 20  1  0
  1 21  1  0
  2 22  1  0
  2 23  1  0
  3 24  1  0
  5 25  1  0
  6 26  1  0
 10 27  1  0
 12 28  1  0
 12 29  1  0
 13 30  1  0
 13 31  1  0
 14 32  1  0
 16 33  1  0
 16 34  1  0
 16 35  1  0
M  END
