
     RDKit          3D

 37 38  0  0  0  0  0  0  0  0999 V2000
    6.3350   -5.2470   26.2960 C   0  0  0  0  0  0  0  0  0  0  0  0
    7.9350   -4.4940   26.1240 S   0  0  1  0  0  0  0  0  0  0  0  0
    8.0670   -3.4700   27.1320 O   0  0  0  0  0  0  0  0  0  0  0  0
    8.9240   -5.5360   25.9780 O   0  0  0  0  0  0  0  0  0  0  0  0
    7.8470   -3.7310   24.6200 N   0  0  0  0  0  0  0  0  0  0  0  0
    9.1070   -3.0590   24.3060 C   0  0  0  0  0  0  0  0  0  0  0  0
    9.1190   -2.3000   23.1230 C   0  0  0  0  0  0  0  0  0  0  0  0
   10.0960   -1.1040   23.0730 C   0  0  0  0  0  0  0  0  0  0  0  0
   11.5140   -1.3370   22.6730 C   0  0  0  0  0  0  0  0  0  0  0  0
   12.5170   -0.4020   22.5800 C   0  0  0  0  0  0  0  0  0  0  0  0
   11.9750    0.9880   22.9250 C   0  0  0  0  0  0  0  0  0  0  0  0
   12.8890    2.0340   22.8370 C   0  0  0  0  0  0  0  0  0  0  0  0
   12.4590    3.4450   23.1050 C   0  0  0  0  0  0  0  0  0  0  0  0
   11.0140    3.6860   23.5030 C   0  0  0  0  0  0  0  0  0  0  0  0
   10.3980    5.3320   23.8440 S   0  0  2  0  0  0  0  0  0  0  0  0
    9.2160    5.4870   22.6730 N   0  0  0  0  0  0  0  0  0  0  0  0
   11.4240    6.2850   23.4870 O   0  0  0  0  0  0  0  0  0  0  0  0
    9.6680    5.4110   25.0970 O   0  0  0  0  0  0  0  0  0  0  0  0
   10.1990    2.5640   23.5830 C   0  0  0  0  0  0  0  0  0  0  0  0
   10.6250    1.2470   23.3030 C   0  0  0  0  0  0  0  0  0  0  0  0
    9.7200    0.1980   23.3830 C   0  0  0  0  0  0  0  0  0  0  0  0
    6.4450   -6.1520   26.9010 H   0  0  0  0  0  0  0  0  0  0  0  0
    5.9500   -5.5250   25.3110 H   0  0  0  0  0  0  0  0  0  0  0  0
    5.6520   -4.5540   26.7920 H   0  0  0  0  0  0  0  0  0  0  0  0
    7.4240   -4.3430   23.9370 H   0  0  0  0  0  0  0  0  0  0  0  0
    9.8890   -3.8190   24.2450 H   0  0  0  0  0  0  0  0  0  0  0  0
    9.3050   -2.3950   25.1500 H   0  0  0  0  0  0  0  0  0  0  0  0
    8.1100   -1.9050   22.9580 H   0  0  0  0  0  0  0  0  0  0  0  0
    9.3040   -2.9780   22.2820 H   0  0  0  0  0  0  0  0  0  0  0  0
   11.7990   -2.3710   22.4280 H   0  0  0  0  0  0  0  0  0  0  0  0
   13.5410   -0.6290   22.2890 H   0  0  0  0  0  0  0  0  0  0  0  0
   13.9180    1.8480   22.5670 H   0  0  0  0  0  0  0  0  0  0  0  0
   13.1730    4.2740   23.0220 H   0  0  0  0  0  0  0  0  0  0  0  0
    9.5520    5.3890   21.7210 H   0  0  0  0  0  0  0  0  0  0  0  0
    8.3860    4.9550   22.9440 H   0  0  0  0  0  0  0  0  0  0  0  0
    9.1460    2.6210   23.8630 H   0  0  0  0  0  0  0  0  0  0  0  0
    8.6920    0.4000   23.6800 H   0  0  0  0  0  0  0  0  0  0  0  0
  1  2  1  0
  2  3  2  0
  2  4  2  0
  2  5  1  6
  5  6  1  0
  6  7  1  0
  7  8  1  0
  8  9  2  0
  9 10  1  0
 10 11  2  0
 11 12  1  0
 12 13  2  0
 13 14  1  0
 14 15  1  0
 15 16  1  6
 15 17  2  0
 15 18  2  0
 14 19  2  0
 11 20  1  0
 19 20  1  0
  8 21  1  0
 20 21  2  0
  1 22  1  0
  1 23  1  0
  1 24  1  0
  5 25  1  0
  6 26  1  0
  6 27  1  0
  7 28  1  0
  7 29  1  0
  9 30  1  0
 10 31  1  0
 12 32  1  0
 13 33  1  0
 16 34  1  0
 16 35  1  0
 19 36  1  0
 21 37  1  0
M  END
