
     RDKit          3D

 40 41  0  0  0  0  0  0  0  0999 V2000
   12.4480   -1.5270   24.4950 C   0  0  0  0  0  0  0  0  0  0  0  0
   12.0000   -0.7350   23.3620 O   0  0  0  0  0  0  0  0  0  0  0  0
   13.1350   -0.1750   22.8980 C   0  0  0  0  0  0  0  0  0  0  0  0
   13.1710   -1.5380   22.9160 O   0  0  0  0  0  0  0  0  0  0  0  0
   11.8160   -1.8560   23.3220 C   0  0  0  0  0  0  0  0  0  0  0  0
   10.7390   -0.7230   23.6360 C   0  0  0  0  0  0  0  0  0  0  0  0
    9.3710   -1.2340   24.0400 C   0  0  0  0  0  0  0  0  0  0  0  0
    8.8390   -2.4650   23.6470 C   0  0  0  0  0  0  0  0  0  0  0  0
    7.3470   -2.4600   23.8370 N   0  0  0  0  0  0  0  0  0  0  0  0
    6.7350   -3.6460   24.9050 S   0  0  1  0  0  0  0  0  0  0  0  0
    4.9830   -3.7190   24.7610 C   0  0  0  0  0  0  0  0  0  0  0  0
    7.2650   -4.8850   24.3540 O   0  0  0  0  0  0  0  0  0  0  0  0
    6.9950   -3.1640   26.2510 O   0  0  0  0  0  0  0  0  0  0  0  0
   11.0800    0.7100   23.5220 C   0  0  0  0  0  0  0  0  0  0  0  0
   10.1950    1.9610   23.7760 C   0  0  0  0  0  0  0  0  0  0  0  0
   10.8550    3.3610   23.5200 C   0  0  0  0  0  0  0  0  0  0  0  0
   10.0510    4.9640   23.7160 S   0  0  2  0  0  0  0  0  0  0  0  0
    8.8170    4.8820   22.5890 N   0  0  0  0  0  0  0  0  0  0  0  0
   10.9750    5.9760   23.2520 O   0  0  0  0  0  0  0  0  0  0  0  0
    9.3700    5.1190   24.9830 O   0  0  0  0  0  0  0  0  0  0  0  0
   12.1670    3.4190   23.0980 C   0  0  0  0  0  0  0  0  0  0  0  0
   12.8590    2.2400   22.9220 C   0  0  0  0  0  0  0  0  0  0  0  0
   12.3920    0.9650   23.1090 C   0  0  0  0  0  0  0  0  0  0  0  0
   13.4820   -1.2550   24.7150 H   0  0  0  0  0  0  0  0  0  0  0  0
   12.4220   -2.6020   24.2890 H   0  0  0  0  0  0  0  0  0  0  0  0
   11.8440   -1.3110   25.3790 H   0  0  0  0  0  0  0  0  0  0  0  0
   11.5520   -2.9060   23.4080 H   0  0  0  0  0  0  0  0  0  0  0  0
    8.6780   -0.5170   23.5770 H   0  0  0  0  0  0  0  0  0  0  0  0
    9.3280   -0.9840   25.0940 H   0  0  0  0  0  0  0  0  0  0  0  0
    9.0620   -2.6110   22.5850 H   0  0  0  0  0  0  0  0  0  0  0  0
    9.2920   -3.2850   24.2090 H   0  0  0  0  0  0  0  0  0  0  0  0
    6.8360   -2.5580   22.9510 H   0  0  0  0  0  0  0  0  0  0  0  0
    4.6960   -4.7160   24.4110 H   0  0  0  0  0  0  0  0  0  0  0  0
    4.5430   -3.4980   25.7360 H   0  0  0  0  0  0  0  0  0  0  0  0
    4.6720   -2.9660   24.0310 H   0  0  0  0  0  0  0  0  0  0  0  0
    9.1570    1.9070   24.1070 H   0  0  0  0  0  0  0  0  0  0  0  0
    8.1240    5.6110   22.7710 H   0  0  0  0  0  0  0  0  0  0  0  0
    9.2040    4.9540   21.6420 H   0  0  0  0  0  0  0  0  0  0  0  0
   12.6560    4.3790   22.9080 H   0  0  0  0  0  0  0  0  0  0  0  0
   13.8950    2.2390   22.6010 H   0  0  0  0  0  0  0  0  0  0  0  0
  1  2  1  0
  2  3  1  0
  3  4  2  0
  4  5  1  0
  5  6  2  0
  6  7  1  0
  7  8  1  0
  8  9  1  0
 10  9  1  6
 10 11  1  0
 10 12  2  0
 10 13  2  0
  6 14  1  0
 14 15  1  0
 15 16  2  0
 16 17  1  0
 17 18  1  6
 17 19  2  0
 17 20  2  0
 16 21  1  0
 21 22  2  0
  3 23  1  0
 14 23  2  0
 22 23  1  0
  1 24  1  0
  1 25  1  0
  1 26  1  0
  5 27  1  0
  7 28  1  0
  7 29  1  0
  8 30  1  0
  8 31  1  0
  9 32  1  0
 11 33  1  0
 11 34  1  0
 11 35  1  0
 15 36  1  0
 18 37  1  0
 18 38  1  0
 21 39  1  0
 22 40  1  0
M  CHG  1   4   1
M  END
