LIG
     RDKit          3D

 37 38  0  0  0  0  0  0  0  0999 V2000
    6.4340   -4.9520   26.5780 C   0  0  0  0  0  0  0  0  0  0  0  0
    8.0950   -4.3580   26.1540 S   0  0  0  0  0  6  0  0  0  0  0  0
    9.0830   -5.4410   26.1700 O   0  0  0  0  0  0  0  0  0  0  0  0
    8.6390   -3.5100   27.2010 O   0  0  0  0  0  0  0  0  0  0  0  0
    8.0610   -3.5350   24.6620 N   0  0  0  0  0  0  0  0  0  0  0  0
    9.3140   -3.0270   24.1660 C   0  0  0  0  0  0  0  0  0  0  0  0
    8.9485   -1.3935   23.1795 C   0  0  0  0  0  0  0  0  0  0  0  0
    7.3150   -0.3490   23.3420 C   0  0  0  0  0  0  0  0  0  0  0  0
    7.6990    1.1640   23.7480 C   0  0  0  0  0  0  0  0  0  0  0  0
    9.0240    1.2620   23.5980 C   0  0  2  0  0  0  0  0  0  0  0  0
    9.4080    1.9150   22.2270 C   0  0  0  0  0  0  0  0  0  0  0  0
   10.1930    3.1570   22.2260 N   0  0  0  0  0  0  0  0  0  0  0  0
    9.0780    1.4060   21.1760 O   0  0  0  0  0  0  0  0  0  0  0  0
   10.2570   -0.1965   23.9710 C   0  0  0  0  0  0  0  0  0  0  0  0
   12.1160    0.4790   23.8730 C   0  0  0  0  0  0  0  0  0  0  0  0
   13.2355    0.0980   23.1595 C   0  0  0  0  0  0  0  0  0  0  0  0
   12.9880   -1.1300   22.2180 C   0  0  0  0  0  0  0  0  0  0  0  0
   11.4995   -1.5365   22.3840 C   0  0  0  0  0  0  0  0  0  0  0  0
   10.8185   -0.7615   23.2435 C   0  0  0  0  0  0  0  0  0  0  0  0
    6.1574   -4.5292   27.5390 H   0  0  0  0  0  0  0  0  0  0  0  0
    5.7547   -4.6452   25.7881 H   0  0  0  0  0  0  0  0  0  0  0  0
    6.4892   -6.0359   26.6376 H   0  0  0  0  0  0  0  0  0  0  0  0
    7.4259   -3.9983   24.0135 H   0  0  0  0  0  0  0  0  0  0  0  0
    9.7930   -3.5918   23.4149 H   0  0  0  0  0  0  0  0  0  0  0  0
    9.9755   -2.6372   24.8946 H   0  0  0  0  0  0  0  0  0  0  0  0
    9.2396   -0.9137   24.8143 H   0  0  0  0  0  0  0  0  0  0  0  0
    6.9187   -0.4065   22.3986 H   0  0  0  0  0  0  0  0  0  0  0  0
    6.8255   -0.8698   24.0820 H   0  0  0  0  0  0  0  0  0  0  0  0
    7.0903    1.7723   23.0818 H   0  0  0  0  0  0  0  0  0  0  0  0
    7.3049    1.2961   24.7501 H   0  0  0  0  0  0  0  0  0  0  0  0
    9.5406    2.0279   24.3344 H   0  0  0  0  0  0  0  0  0  0  0  0
   11.1510    3.1146   22.4575 H   0  0  0  0  0  0  0  0  0  0  0  0
   10.6711    3.3305   23.0765 H   0  0  0  0  0  0  0  0  0  0  0  0
   12.0998    1.3509   24.5893 H   0  0  0  0  0  0  0  0  0  0  0  0
   14.1665    0.5036   23.1778 H   0  0  0  0  0  0  0  0  0  0  0  0
   13.6217   -1.5302   21.6637 H   0  0  0  0  0  0  0  0  0  0  0  0
   11.2076   -2.3470   21.8203 H   0  0  0  0  0  0  0  0  0  0  0  0
  1  2  1  0
  2  3  2  0
  2  4  2  0
  2  5  1  0
  5  6  1  0
  6  7  1  0
  7  8  1  0
  8  9  1  0
  9 10  1  0
 10 11  1  0
 11 12  1  0
 11 13  2  0
 10 14  1  0
 14 15  4  0
 15 16  4  0
 16 17  4  0
 17 18  4  0
 18 19  4  0
 19  7  1  0
 19 14  4  0
  1 20  1  0
  1 21  1  0
  1 22  1  0
  5 23  1  0
  6 24  1  0
  6 25  1  0
  7 26  1  0
  8 27  1  0
  8 28  1  0
  9 29  1  0
  9 30  1  0
 10 31  1  1
 12 32  1  0
 12 33  1  0
 15 34  1  0
 16 35  1  0
 17 36  1  0
 18 37  1  0
M  END
