
     RDKit          3D

 33 34  0  0  0  0  0  0  0  0999 V2000
    6.6620   -5.0200   26.0850 C   0  0  0  0  0  0  0  0  0  0  0  0
    8.0040   -4.4270   25.7460 C   0  0  2  0  0  0  0  0  0  0  0  0
    9.1120   -5.2450   26.0690 C   0  0  0  0  0  0  0  0  0  0  0  0
    8.1660   -3.1880   26.3670 N   0  0  0  0  0  0  0  0  0  0  0  0
    8.2960   -2.0610   25.4050 N   0  0  0  0  0  0  0  0  0  0  0  0
    8.8860   -2.5730   24.1570 C   0  0  2  0  0  0  0  0  0  0  0  0
    8.7840   -1.5980   23.0120 C   0  0  0  0  0  0  0  0  0  0  0  0
   10.0530   -0.9530   22.5510 N   0  0  0  0  0  0  0  0  0  0  0  0
   10.5970   -0.0020   23.5150 C   0  0  0  0  0  0  0  0  0  0  0  0
   11.8970    0.6950   23.1070 C   0  0  0  0  0  0  0  0  0  0  0  0
   12.8050   -0.1610   22.5060 C   0  0  0  0  0  0  0  0  0  0  0  0
   12.4530   -1.5280   22.0280 C   0  0  0  0  0  0  0  0  0  0  0  0
   13.3700   -2.2890   21.4350 F   0  0  0  0  0  0  0  0  0  0  0  0
   11.0240   -2.0200   22.2290 C   0  0  0  0  0  0  0  0  0  0  0  0
    8.0440   -4.1440   23.9470 S   0  0  0  0  0  0  0  0  0  0  0  0
    6.2130   -5.5260   25.2240 H   0  0  0  0  0  0  0  0  0  0  0  0
    5.9840   -4.2210   26.4020 H   0  0  0  0  0  0  0  0  0  0  0  0
    6.7860   -5.7460   26.8980 H   0  0  0  0  0  0  0  0  0  0  0  0
   10.0810   -5.0460   25.6300 H   0  0  0  0  0  0  0  0  0  0  0  0
    8.9020   -6.2900   25.8450 H   0  0  0  0  0  0  0  0  0  0  0  0
    9.2510   -5.1950   27.1550 H   0  0  0  0  0  0  0  0  0  0  0  0
    7.3760   -3.0220   26.9990 H   0  0  0  0  0  0  0  0  0  0  0  0
    7.3620   -1.6980   25.1760 H   0  0  0  0  0  0  0  0  0  0  0  0
    9.9260   -2.8000   24.3160 H   0  0  0  0  0  0  0  0  0  0  0  0
    8.3950   -2.1140   22.1230 H   0  0  0  0  0  0  0  0  0  0  0  0
    8.0400   -0.8290   23.2460 H   0  0  0  0  0  0  0  0  0  0  0  0
   10.7990   -0.5110   24.4490 H   0  0  0  0  0  0  0  0  0  0  0  0
    9.8380    0.7590   23.7250 H   0  0  0  0  0  0  0  0  0  0  0  0
   12.3960    1.1220   23.9670 H   0  0  0  0  0  0  0  0  0  0  0  0
   11.6570    1.5270   22.4420 H   0  0  0  0  0  0  0  0  0  0  0  0
   13.8180    0.1980   22.3740 H   0  0  0  0  0  0  0  0  0  0  0  0
   10.7220   -2.4230   21.2600 H   0  0  0  0  0  0  0  0  0  0  0  0
   10.8740   -2.8400   22.9230 H   0  0  0  0  0  0  0  0  0  0  0  0
  2  1  1  6
  2  3  1  0
  2  4  1  0
  4  5  1  0
  5  6  1  0
  6  7  1  0
  7  8  1  0
  8  9  1  0
  9 10  1  0
 10 11  1  0
 11 12  2  0
 12 13  1  0
  8 14  1  0
 12 14  1  0
  2 15  1  0
  6 15  1  0
  1 16  1  0
  1 17  1  0
  1 18  1  0
  3 19  1  0
  3 20  1  0
  3 21  1  0
  4 22  1  0
  5 23  1  0
  6 24  1  1
  7 25  1  0
  7 26  1  0
  9 27  1  0
  9 28  1  0
 10 29  1  0
 10 30  1  0
 11 31  1  0
 14 32  1  0
 14 33  1  0
M  END
