LIG
     RDKit          3D

 43 44  0  0  0  0  0  0  0  0999 V2000
    6.4340   -4.9520   26.5780 C   0  0  0  0  0  0  0  0  0  0  0  0
    8.0950   -4.3580   26.1540 S   0  0  0  0  0  6  0  0  0  0  0  0
    9.0830   -5.4410   26.1700 O   0  0  0  0  0  0  0  0  0  0  0  0
    8.6390   -3.5100   27.2010 O   0  0  0  0  0  0  0  0  0  0  0  0
    8.0610   -3.5350   24.6620 N   0  0  0  0  0  0  0  0  0  0  0  0
    9.3140   -3.0270   24.1660 C   0  0  0  0  0  0  0  0  0  0  0  0
    9.2100   -1.7480   23.3470 C   0  0  0  0  0  0  0  0  0  0  0  0
   10.2595   -0.7615   24.1505 C   0  0  0  0  0  0  0  0  0  0  0  0
   10.9870   -0.2135   24.1450 N   0  0  0  0  0  0  0  0  0  0  0  0
   11.6430   -1.6265   23.1290 C   0  0  0  0  0  0  0  0  0  0  0  0
   12.7915   -1.3250   22.5915 C   0  0  0  0  0  0  0  0  0  0  0  0
   13.4205   -0.2205   23.1375 C   0  0  0  0  0  0  0  0  0  0  0  0
   12.8830    1.0330   23.0360 C   0  0  0  0  0  0  0  0  0  0  0  0
   13.4330    2.2640   22.6290 C   0  0  0  0  0  0  0  0  0  0  0  0
   12.7210    3.4490   22.8300 C   0  0  0  0  0  0  0  0  0  0  0  0
   11.4520    3.3830   23.4380 C   0  0  0  0  0  0  0  0  0  0  0  0
   10.4990    4.8830   23.7330 S   0  0  0  0  0  6  0  0  0  0  0  0
   11.4660    6.2570   23.4610 N   0  0  0  0  0  0  0  0  0  0  0  0
    9.2550    4.9160   22.9600 O   0  0  0  0  0  0  0  0  0  0  0  0
    9.9890    4.8060   25.0960 O   0  0  0  0  0  0  0  0  0  0  0  0
   10.9030    2.1690   23.8360 C   0  0  0  0  0  0  0  0  0  0  0  0
   11.9090    0.6925   23.9535 C   0  0  0  0  0  0  0  0  0  0  0  0
    5.8743   -4.1218   26.9983 H   0  0  0  0  0  0  0  0  0  0  0  0
    5.7281   -4.3689   25.9922 H   0  0  0  0  0  0  0  0  0  0  0  0
    5.9745   -5.3367   25.6730 H   0  0  0  0  0  0  0  0  0  0  0  0
    7.4192   -3.9926   24.0307 H   0  0  0  0  0  0  0  0  0  0  0  0
    9.8202   -3.8244   23.5660 H   0  0  0  0  0  0  0  0  0  0  0  0
   10.0189   -2.8148   25.0083 H   0  0  0  0  0  0  0  0  0  0  0  0
    9.5512   -1.8786   22.3793 H   0  0  0  0  0  0  0  0  0  0  0  0
    8.2669   -1.3198   23.4349 H   0  0  0  0  0  0  0  0  0  0  0  0
    9.2581   -0.2095   24.8537 H   0  0  0  0  0  0  0  0  0  0  0  0
   10.2835   -1.5543   25.2451 H   0  0  0  0  0  0  0  0  0  0  0  0
   10.7604   -1.7525   22.4768 H   0  0  0  0  0  0  0  0  0  0  0  0
   11.5536   -2.4104   23.9099 H   0  0  0  0  0  0  0  0  0  0  0  0
   13.5335   -2.2203   22.6005 H   0  0  0  0  0  0  0  0  0  0  0  0
   12.7041   -1.1769   21.4403 H   0  0  0  0  0  0  0  0  0  0  0  0
   14.5267   -0.2047   22.7510 H   0  0  0  0  0  0  0  0  0  0  0  0
   13.6398   -0.4258   24.2693 H   0  0  0  0  0  0  0  0  0  0  0  0
   14.4104    2.3039   22.1642 H   0  0  0  0  0  0  0  0  0  0  0  0
   13.1449    4.3986   22.5250 H   0  0  0  0  0  0  0  0  0  0  0  0
   12.3712    5.9459   23.1120 H   0  0  0  0  0  0  0  0  0  0  0  0
   12.3524    6.2183   23.9566 H   0  0  0  0  0  0  0  0  0  0  0  0
    9.9277    1.9754   24.1154 H   0  0  0  0  0  0  0  0  0  0  0  0
  1  2  1  0
  2  3  2  0
  2  4  2  0
  2  5  1  0
  5  6  1  0
  6  7  1  0
  7  8  1  0
  8  9  1  0
  9 10  1  0
 10 11  1  0
 11 12  1  0
 12 13  1  0
 13 14  4  0
 14 15  4  0
 15 16  4  0
 16 17  1  0
 17 18  1  0
 17 19  2  0
 17 20  2  0
 16 21  4  0
 21 22  4  0
 22  9  1  0
 22 13  4  0
  1 23  1  0
  1 24  1  0
  1 25  1  0
  5 26  1  0
  6 27  1  0
  6 28  1  0
  7 29  1  0
  7 30  1  0
  8 31  1  0
  8 32  1  0
 10 33  1  0
 10 34  1  0
 11 35  1  0
 11 36  1  0
 12 37  1  0
 12 38  1  0
 14 39  1  0
 15 40  1  0
 18 41  1  0
 18 42  1  0
 21 43  1  0
M  END
