
     RDKit          3D

 43 44  0  0  0  0  0  0  0  0999 V2000
    6.4150   -5.1430   26.5750 C   0  0  0  0  0  0  0  0  0  0  0  0
    7.9910   -4.4020   26.2220 S   0  0  2  0  0  0  0  0  0  0  0  0
    8.9880   -5.4330   26.0390 O   0  0  0  0  0  0  0  0  0  0  0  0
    8.1530   -3.3360   27.1770 O   0  0  0  0  0  0  0  0  0  0  0  0
    7.6980   -3.6530   24.7440 N   0  0  0  0  0  0  0  0  0  0  0  0
    8.8650   -3.1320   24.0080 C   0  0  0  0  0  0  0  0  0  0  0  0
    8.6670   -1.7730   23.6990 C   0  0  0  0  0  0  0  0  0  0  0  0
    9.5150   -0.7170   24.4150 C   0  0  0  0  0  0  0  0  0  0  0  0
   10.7180   -0.3600   23.6610 N   0  0  0  0  0  0  0  0  0  0  0  0
   11.1080   -1.3110   22.5960 C   0  0  0  0  0  0  0  0  0  0  0  0
   12.4630   -1.3310   22.3060 C   0  0  0  0  0  0  0  0  0  0  0  0
   13.2090   -0.1480   22.9210 C   0  0  0  0  0  0  0  0  0  0  0  0
   12.4650    1.0310   23.0760 C   0  0  0  0  0  0  0  0  0  0  0  0
   13.0300    2.3920   22.8330 C   0  0  0  0  0  0  0  0  0  0  0  0
   12.1360    3.5860   23.0340 C   0  0  0  0  0  0  0  0  0  0  0  0
   10.8430    3.3980   23.4370 C   0  0  0  0  0  0  0  0  0  0  0  0
    9.8380    4.8490   23.6640 S   0  0  1  0  0  0  0  0  0  0  0  0
   10.9810    6.0750   23.5270 N   0  0  0  0  0  0  0  0  0  0  0  0
    8.9730    4.9930   22.5350 O   0  0  0  0  0  0  0  0  0  0  0  0
    9.2720    4.9490   24.9930 O   0  0  0  0  0  0  0  0  0  0  0  0
   10.3600    2.0900   23.6530 C   0  0  0  0  0  0  0  0  0  0  0  0
   11.1460    0.9390   23.4760 C   0  0  0  0  0  0  0  0  0  0  0  0
    6.3500   -5.3230   27.6510 H   0  0  0  0  0  0  0  0  0  0  0  0
    5.6150   -4.4610   26.2780 H   0  0  0  0  0  0  0  0  0  0  0  0
    6.3220   -6.0870   26.0430 H   0  0  0  0  0  0  0  0  0  0  0  0
    6.9670   -4.1370   24.2390 H   0  0  0  0  0  0  0  0  0  0  0  0
    9.0000   -3.6960   23.0860 H   0  0  0  0  0  0  0  0  0  0  0  0
    9.7320   -3.2680   24.6480 H   0  0  0  0  0  0  0  0  0  0  0  0
    8.8500   -1.6500   22.6210 H   0  0  0  0  0  0  0  0  0  0  0  0
    7.6020   -1.5520   23.8270 H   0  0  0  0  0  0  0  0  0  0  0  0
    8.9110    0.1780   24.6110 H   0  0  0  0  0  0  0  0  0  0  0  0
    9.7910   -1.0900   25.4110 H   0  0  0  0  0  0  0  0  0  0  0  0
   10.5730   -1.0620   21.6690 H   0  0  0  0  0  0  0  0  0  0  0  0
   10.7830   -2.3240   22.8660 H   0  0  0  0  0  0  0  0  0  0  0  0
   12.9040   -2.2630   22.6600 H   0  0  0  0  0  0  0  0  0  0  0  0
   12.6130   -1.3500   21.2280 H   0  0  0  0  0  0  0  0  0  0  0  0
   14.0510    0.0750   22.2780 H   0  0  0  0  0  0  0  0  0  0  0  0
   13.6060   -0.4290   23.8960 H   0  0  0  0  0  0  0  0  0  0  0  0
   14.0540    2.5340   22.5240 H   0  0  0  0  0  0  0  0  0  0  0  0
   12.5300    4.5840   22.8610 H   0  0  0  0  0  0  0  0  0  0  0  0
   11.2170    6.2120   22.5420 H   0  0  0  0  0  0  0  0  0  0  0  0
   10.6400    6.9170   23.9950 H   0  0  0  0  0  0  0  0  0  0  0  0
    9.3240    1.9940   23.9710 H   0  0  0  0  0  0  0  0  0  0  0  0
  1  2  1  0
  2  3  2  0
  2  4  2  0
  2  5  1  6
  5  6  1  0
  6  7  1  0
  7  8  1  0
  8  9  1  0
  9 10  1  0
 10 11  1  0
 11 12  1  0
 12 13  1  0
 13 14  1  0
 14 15  2  0
 15 16  1  0
 16 17  1  0
 17 18  1  6
 17 19  2  0
 17 20  2  0
 16 21  2  0
  9 22  1  0
 13 22  2  0
 21 22  1  0
  1 23  1  0
  1 24  1  0
  1 25  1  0
  5 26  1  0
  6 27  1  0
  6 28  1  0
  7 29  1  0
  7 30  1  0
  8 31  1  0
  8 32  1  0
 10 33  1  0
 10 34  1  0
 11 35  1  0
 11 36  1  0
 12 37  1  0
 12 38  1  0
 14 39  1  0
 15 40  1  0
 18 41  1  0
 18 42  1  0
 21 43  1  0
M  END
