
     RDKit          3D

 48 49  0  0  0  0  0  0  0  0999 V2000
    5.8100    0.8860   22.2310 C   0  0  0  0  0  0  0  0  0  0  0  0
    6.0530    0.6610   20.7670 C   0  0  0  0  0  0  0  0  0  0  0  0
    5.2050    1.3020   19.8440 C   0  0  0  0  0  0  0  0  0  0  0  0
    5.4580    1.0600   18.3640 C   0  0  0  0  0  0  0  0  0  0  0  0
    6.4460    0.2640   17.9530 N   0  0  0  0  0  0  0  0  0  0  0  0
    7.2270   -0.3260   18.9030 C   0  0  0  0  0  0  0  0  0  0  0  0
    7.0870   -0.1660   20.2730 C   0  0  0  0  0  0  0  0  0  0  0  0
    8.0170   -0.8860   21.0300 N   0  0  0  0  0  0  0  0  0  0  0  0
    9.0540   -0.2220   21.7300 C   0  0  0  0  0  0  0  0  0  0  0  0
    9.3510    0.9330   21.4440 O   0  0  0  0  0  0  0  0  0  0  0  0
    9.7480   -0.8580   22.8320 C   0  0  2  0  0  0  0  0  0  0  0  0
    8.7340   -1.7660   23.5060 C   0  0  0  0  0  0  0  0  0  0  0  0
    9.2080   -2.9200   24.3800 C   0  0  0  0  0  0  0  0  0  0  0  0
    8.0540   -3.7830   24.7250 N   0  0  0  0  0  0  0  0  0  0  0  0
    8.1080   -4.5440   26.2290 S   0  0  1  0  0  0  0  0  0  0  0  0
    6.4940   -5.2820   26.3530 C   0  0  0  0  0  0  0  0  0  0  0  0
    9.1120   -5.5760   26.1660 O   0  0  0  0  0  0  0  0  0  0  0  0
    8.1570   -3.4750   27.1940 O   0  0  0  0  0  0  0  0  0  0  0  0
   10.3760    0.0490   23.7270 C   0  0  0  0  0  0  0  0  0  0  0  0
   11.6260    0.5930   23.4500 C   0  0  0  0  0  0  0  0  0  0  0  0
   12.7080   -0.2230   23.1710 C   0  0  0  0  0  0  0  0  0  0  0  0
   12.4060   -1.3430   22.3620 C   0  0  0  0  0  0  0  0  0  0  0  0
   10.9130   -1.7690   22.2540 C   0  0  0  0  0  0  0  0  0  0  0  0
    6.2540    0.0930   22.8390 H   0  0  0  0  0  0  0  0  0  0  0  0
    4.7330    0.8940   22.4150 H   0  0  0  0  0  0  0  0  0  0  0  0
    6.2440    1.8450   22.5210 H   0  0  0  0  0  0  0  0  0  0  0  0
    4.3940    1.9490   20.1550 H   0  0  0  0  0  0  0  0  0  0  0  0
    4.8470    1.5190   17.5890 H   0  0  0  0  0  0  0  0  0  0  0  0
    7.9970   -0.9570   18.4730 H   0  0  0  0  0  0  0  0  0  0  0  0
    7.6490   -1.7120   21.4810 H   0  0  0  0  0  0  0  0  0  0  0  0
    8.0810   -2.2040   22.7410 H   0  0  0  0  0  0  0  0  0  0  0  0
    8.0630   -1.1360   24.1080 H   0  0  0  0  0  0  0  0  0  0  0  0
    9.6050   -2.5300   25.3130 H   0  0  0  0  0  0  0  0  0  0  0  0
    9.9760   -3.5060   23.8760 H   0  0  0  0  0  0  0  0  0  0  0  0
    7.6180   -4.3450   23.9940 H   0  0  0  0  0  0  0  0  0  0  0  0
    6.1390   -5.5460   25.3550 H   0  0  0  0  0  0  0  0  0  0  0  0
    5.8220   -4.5460   26.8000 H   0  0  0  0  0  0  0  0  0  0  0  0
    6.5580   -6.1630   26.9960 H   0  0  0  0  0  0  0  0  0  0  0  0
    9.6930    0.8860   23.9180 H   0  0  0  0  0  0  0  0  0  0  0  0
   10.4810   -0.4250   24.7090 H   0  0  0  0  0  0  0  0  0  0  0  0
   11.5150    1.2860   22.6080 H   0  0  0  0  0  0  0  0  0  0  0  0
   11.9130    1.2320   24.2880 H   0  0  0  0  0  0  0  0  0  0  0  0
   13.3430   -0.4160   24.0240 H   0  0  0  0  0  0  0  0  0  0  0  0
   13.3640    0.4030   22.5570 H   0  0  0  0  0  0  0  0  0  0  0  0
   12.9780   -2.1970   22.7240 H   0  0  0  0  0  0  0  0  0  0  0  0
   12.8120   -1.1750   21.3660 H   0  0  0  0  0  0  0  0  0  0  0  0
   10.7060   -1.9810   21.2090 H   0  0  0  0  0  0  0  0  0  0  0  0
   10.8600   -2.7540   22.7320 H   0  0  0  0  0  0  0  0  0  0  0  0
  1  2  1  0
  2  3  2  0
  3  4  1  0
  4  5  2  0
  5  6  1  0
  2  7  1  0
  6  7  2  0
  7  8  1  0
  8  9  1  0
  9 10  2  0
 11  9  1  6
 11 12  1  0
 12 13  1  0
 13 14  1  0
 15 14  1  6
 15 16  1  0
 15 17  2  0
 15 18  2  0
 11 19  1  0
 19 20  1  0
 20 21  1  0
 21 22  1  0
 11 23  1  0
 22 23  1  0
  1 24  1  0
  1 25  1  0
  1 26  1  0
  3 27  1  0
  4 28  1  0
  6 29  1  0
  8 30  1  0
 12 31  1  0
 12 32  1  0
 13 33  1  0
 13 34  1  0
 14 35  1  0
 16 36  1  0
 16 37  1  0
 16 38  1  0
 19 39  1  0
 19 40  1  0
 20 41  1  0
 20 42  1  0
 21 43  1  0
 21 44  1  0
 22 45  1  0
 22 46  1  0
 23 47  1  0
 23 48  1  0
M  END
