
     RDKit          3D

 43 44  0  0  0  0  0  0  0  0999 V2000
    9.0200    6.6660   22.5540 C   0  0  0  0  0  0  0  0  0  0  0  0
   10.1740    6.2030   23.4000 C   0  0  0  0  0  0  0  0  0  0  0  0
   10.1950    6.3340   24.6200 O   0  0  0  0  0  0  0  0  0  0  0  0
   11.1850    5.6220   22.6830 N   0  0  0  0  0  0  0  0  0  0  0  0
   12.2880    4.9870   23.3870 C   0  0  0  0  0  0  0  0  0  0  0  0
   12.6000    3.5870   22.8590 C   0  0  0  0  0  0  0  0  0  0  0  0
   11.5830    2.5210   23.1700 C   0  0  0  0  0  0  0  0  0  0  0  0
   10.3300    2.7210   23.7010 C   0  0  0  0  0  0  0  0  0  0  0  0
    9.6890    1.5110   23.7730 N   0  0  0  0  0  0  0  0  0  0  0  0
   10.4930    0.4960   23.2970 C   0  0  0  0  0  0  0  0  0  0  0  0
   10.2270   -0.8930   23.1450 C   0  0  0  0  0  0  0  0  0  0  0  0
    8.9080   -1.5860   23.4860 C   0  0  0  0  0  0  0  0  0  0  0  0
    9.0710   -2.8170   24.3880 C   0  0  0  0  0  0  0  0  0  0  0  0
    7.8440   -3.5760   24.6820 N   0  0  0  0  0  0  0  0  0  0  0  0
    7.9670   -4.4370   26.1350 S   0  0  2  0  0  0  0  0  0  0  0  0
    6.3730   -5.2020   26.2780 C   0  0  0  0  0  0  0  0  0  0  0  0
    8.1050   -3.4790   27.2040 O   0  0  0  0  0  0  0  0  0  0  0  0
    8.9570   -5.4680   25.9120 O   0  0  0  0  0  0  0  0  0  0  0  0
   11.2880   -1.6520   22.6190 C   0  0  0  0  0  0  0  0  0  0  0  0
   12.5010   -1.0740   22.3040 C   0  0  0  0  0  0  0  0  0  0  0  0
   13.4690   -1.8450   21.8210 F   0  0  0  0  0  0  0  0  0  0  0  0
   12.7380    0.2800   22.4630 C   0  0  0  0  0  0  0  0  0  0  0  0
   11.7050    1.1020   22.9490 C   0  0  0  0  0  0  0  0  0  0  0  0
    8.4080    5.8290   22.2040 H   0  0  0  0  0  0  0  0  0  0  0  0
    9.4070    7.1890   21.6780 H   0  0  0  0  0  0  0  0  0  0  0  0
    8.3970    7.3460   23.1400 H   0  0  0  0  0  0  0  0  0  0  0  0
   10.9800    5.3630   21.7170 H   0  0  0  0  0  0  0  0  0  0  0  0
   12.0420    4.9610   24.4540 H   0  0  0  0  0  0  0  0  0  0  0  0
   13.1610    5.6410   23.2690 H   0  0  0  0  0  0  0  0  0  0  0  0
   12.6550    3.6750   21.7700 H   0  0  0  0  0  0  0  0  0  0  0  0
   13.5840    3.2710   23.1450 H   0  0  0  0  0  0  0  0  0  0  0  0
    9.8260    3.6220   24.0230 H   0  0  0  0  0  0  0  0  0  0  0  0
    8.7470    1.3760   24.1160 H   0  0  0  0  0  0  0  0  0  0  0  0
    8.4030   -1.8730   22.5560 H   0  0  0  0  0  0  0  0  0  0  0  0
    8.2430   -0.8660   23.9810 H   0  0  0  0  0  0  0  0  0  0  0  0
    9.7970   -3.4880   23.9180 H   0  0  0  0  0  0  0  0  0  0  0  0
    9.4530   -2.4900   25.3550 H   0  0  0  0  0  0  0  0  0  0  0  0
    6.9940   -3.0020   24.6990 H   0  0  0  0  0  0  0  0  0  0  0  0
    6.4990   -6.1300   26.8390 H   0  0  0  0  0  0  0  0  0  0  0  0
    5.7050   -4.5290   26.8180 H   0  0  0  0  0  0  0  0  0  0  0  0
    5.9890   -5.4220   25.2800 H   0  0  0  0  0  0  0  0  0  0  0  0
   11.1720   -2.7210   22.4590 H   0  0  0  0  0  0  0  0  0  0  0  0
   13.7030    0.6860   22.2020 H   0  0  0  0  0  0  0  0  0  0  0  0
  1  2  1  0
  2  3  2  0
  2  4  1  0
  4  5  1  0
  5  6  1  0
  6  7  1  0
  7  8  2  0
  8  9  1  0
  9 10  1  0
 10 11  1  0
 11 12  1  0
 12 13  1  0
 13 14  1  0
 15 14  1  6
 15 16  1  0
 15 17  2  0
 15 18  2  0
 11 19  2  0
 19 20  1  0
 20 21  1  0
 20 22  2  0
  7 23  1  0
 10 23  2  0
 22 23  1  0
  1 24  1  0
  1 25  1  0
  1 26  1  0
  4 27  1  0
  5 28  1  0
  5 29  1  0
  6 30  1  0
  6 31  1  0
  8 32  1  0
  9 33  1  0
 12 34  1  0
 12 35  1  0
 13 36  1  0
 13 37  1  0
 14 38  1  0
 16 39  1  0
 16 40  1  0
 16 41  1  0
 19 42  1  0
 22 43  1  0
M  END
