LIG
     RDKit          3D

 40 42  0  0  0  0  0  0  0  0999 V2000
    5.3930    0.6630   21.8670 C   0  0  0  0  0  0  0  0  0  0  0  0
    5.8360    0.5550   20.4100 C   0  0  0  0  0  0  0  0  0  0  0  0
    5.0650    1.0940   19.3800 C   0  0  0  0  0  0  0  0  0  0  0  0
    5.5190    0.9700   18.0740 C   0  0  0  0  0  0  0  0  0  0  0  0
    6.6520    0.3680   17.7870 N   0  0  0  0  0  0  0  0  0  0  0  0
    7.4050   -0.1450   18.7400 C   0  0  0  0  0  0  0  0  0  0  0  0
    7.0320   -0.0760   20.0760 C   0  0  0  0  0  0  0  0  0  0  0  0
    7.8860   -0.6570   21.1000 N   0  0  0  0  0  0  0  0  0  0  0  0
    8.9090   -0.5240   22.2435 C   0  0  0  0  0  0  0  0  0  0  0  0
    7.3150   -0.3490   23.3420 C   0  0  0  0  0  0  0  0  0  0  0  0
    7.6990    1.1640   23.7480 C   0  0  0  0  0  0  0  0  0  0  0  0
    9.0240    1.2620   23.5980 C   0  0  2  0  0  0  0  0  0  0  0  0
    9.4080    1.9150   22.2270 C   0  0  0  0  0  0  0  0  0  0  0  0
   10.1930    3.1570   22.2260 N   0  0  0  0  0  0  0  0  0  0  0  0
    9.2665    1.2045   21.0660 O   0  0  0  0  0  0  0  0  0  0  0  0
    9.6050   -0.2970   23.6880 C   0  0  2  0  0  0  0  0  0  0  0  0
   10.5310   -0.5025   22.8200 C   0  0  0  0  0  0  0  0  0  0  0  0
   12.0340    0.5480   23.4680 C   0  0  0  0  0  0  0  0  0  0  0  0
   13.2920    0.3390   22.8490 C   0  0  0  0  0  0  0  0  0  0  0  0
   13.1050   -1.0630   21.8160 S   0  0  0  0  0  0  0  0  0  0  0  0
   11.4160   -1.3800   22.1780 C   0  0  0  0  0  0  0  0  0  0  0  0
    4.3348    0.9215   21.9378 H   0  0  0  0  0  0  0  0  0  0  0  0
    4.6040   -0.0641   22.0660 H   0  0  0  0  0  0  0  0  0  0  0  0
    5.0353    1.6729   22.0746 H   0  0  0  0  0  0  0  0  0  0  0  0
    4.1246    1.5949   19.5703 H   0  0  0  0  0  0  0  0  0  0  0  0
    4.9455    1.3588   17.2471 H   0  0  0  0  0  0  0  0  0  0  0  0
    8.3012   -0.5987   18.4128 H   0  0  0  0  0  0  0  0  0  0  0  0
    7.2676   -1.5812   21.4420 H   0  0  0  0  0  0  0  0  0  0  0  0
    8.5013    0.9194   22.2282 H   0  0  0  0  0  0  0  0  0  0  0  0
    6.6090   -0.3854   22.6246 H   0  0  0  0  0  0  0  0  0  0  0  0
    7.4050   -1.0206   24.0473 H   0  0  0  0  0  0  0  0  0  0  0  0
    7.3307    1.2717   24.7957 H   0  0  0  0  0  0  0  0  0  0  0  0
    7.0306    1.8292   23.1478 H   0  0  0  0  0  0  0  0  0  0  0  0
    9.5685    1.8513   24.3644 H   0  0  0  0  0  0  0  0  0  0  0  0
   10.6198    3.3494   23.0991 H   0  0  0  0  0  0  0  0  0  0  0  0
   10.9753    3.2120   22.8250 H   0  0  0  0  0  0  0  0  0  0  0  0
    9.2590   -0.8123   24.2529 H   0  0  0  0  0  0  0  0  0  0  0  0
   11.7502    1.1763   24.2419 H   0  0  0  0  0  0  0  0  0  0  0  0
   14.1783    0.8460   22.9261 H   0  0  0  0  0  0  0  0  0  0  0  0
   11.0481   -2.4341   21.8244 H   0  0  0  0  0  0  0  0  0  0  0  0
  1  2  1  0
  2  3  4  0
  3  4  4  0
  4  5  4  0
  5  6  4  0
  6  7  4  0
  7  8  1  0
  8  9  1  0
  9 10  1  0
 10 11  1  0
 11 12  1  0
 12 13  1  0
 13 14  1  0
 13 15  2  0
 12 16  1  0
 16 17  1  0
 17 18  4  0
 18 19  4  0
 19 20  4  0
 20 21  4  0
  7  2  4  0
 16  9  1  0
 21 17  4  0
  1 22  1  0
  1 23  1  0
  1 24  1  0
  3 25  1  0
  4 26  1  0
  6 27  1  0
  8 28  1  0
  9 29  1  0
 10 30  1  0
 10 31  1  0
 11 32  1  0
 11 33  1  0
 12 34  1  1
 14 35  1  0
 14 36  1  0
 16 37  1  1
 18 38  1  0
 19 39  1  0
 21 40  1  0
M  END
