LIG
     RDKit          3D

 37 39  0  0  0  0  0  0  0  0999 V2000
   13.7290   -1.2710   23.6040 C   0  0  0  0  0  0  0  0  0  0  0  0
   12.3210   -0.8940   23.7180 N   0  0  0  0  0  0  0  0  0  0  0  0
   11.4670   -1.8380   22.9920 C   0  0  0  0  0  0  0  0  0  0  0  0
   10.0140   -1.4540   23.1290 C   0  0  0  0  0  0  0  0  0  0  0  0
    9.9275   -0.3600   22.5840 N   0  0  0  0  0  0  0  0  0  0  0  0
    9.0985    0.1105   21.5180 C   0  0  0  0  0  0  0  0  0  0  0  0
    9.2255    1.1930   21.0495 O   0  0  0  0  0  0  0  0  0  0  0  0
    8.0970   -0.7725   20.9815 C   0  0  0  0  0  0  0  0  0  0  0  0
    7.2325   -0.1890   19.9410 C   0  0  0  0  0  0  0  0  0  0  0  0
    7.5250   -0.2375   18.6000 C   0  0  0  0  0  0  0  0  0  0  0  0
    6.6465    0.3555   17.8010 N   0  0  0  0  0  0  0  0  0  0  0  0
    5.6395    0.8920   18.4080 C   0  0  0  0  0  0  0  0  0  0  0  0
    4.8580    1.3120   18.9430 N   0  0  0  0  0  0  0  0  0  0  0  0
    3.9600    1.8790   19.5990 C   0  0  0  0  0  0  0  0  0  0  0  0
    4.3240    1.5630   20.9050 C   0  0  0  0  0  0  0  0  0  0  0  0
    5.4345    0.7510   21.4975 C   0  0  0  0  0  0  0  0  0  0  0  0
    6.0315    0.4975   20.2135 C   0  0  0  0  0  0  0  0  0  0  0  0
   10.6540    0.8680   23.3430 C   0  0  0  0  0  0  0  0  0  0  0  0
   12.1050    0.4690   23.2230 C   0  0  0  0  0  0  0  0  0  0  0  0
   13.8209   -2.3494   23.4335 H   0  0  0  0  0  0  0  0  0  0  0  0
   14.0058   -1.9581   24.4113 H   0  0  0  0  0  0  0  0  0  0  0  0
   14.3191   -1.0159   24.4896 H   0  0  0  0  0  0  0  0  0  0  0  0
   11.7562   -1.8908   21.9474 H   0  0  0  0  0  0  0  0  0  0  0  0
   11.6220   -2.8246   23.4228 H   0  0  0  0  0  0  0  0  0  0  0  0
    9.7596   -1.5114   24.2080 H   0  0  0  0  0  0  0  0  0  0  0  0
    9.4035   -2.2403   22.6445 H   0  0  0  0  0  0  0  0  0  0  0  0
    7.4266   -1.1382   21.7938 H   0  0  0  0  0  0  0  0  0  0  0  0
    8.5887   -1.6794   20.5596 H   0  0  0  0  0  0  0  0  0  0  0  0
    8.4378   -0.7203   18.1197 H   0  0  0  0  0  0  0  0  0  0  0  0
    6.7496    0.3934   16.7451 H   0  0  0  0  0  0  0  0  0  0  0  0
    3.2210    2.3944   19.3038 H   0  0  0  0  0  0  0  0  0  0  0  0
    3.6348    2.0196   21.7406 H   0  0  0  0  0  0  0  0  0  0  0  0
    5.6193    0.5457   22.3472 H   0  0  0  0  0  0  0  0  0  0  0  0
   10.3915    1.7084   22.7658 H   0  0  0  0  0  0  0  0  0  0  0  0
   10.3139    0.8959   24.3255 H   0  0  0  0  0  0  0  0  0  0  0  0
   12.4481    0.5612   22.1972 H   0  0  0  0  0  0  0  0  0  0  0  0
   12.7127    1.1386   23.8284 H   0  0  0  0  0  0  0  0  0  0  0  0
  1  2  1  0
  2  3  1  0
  3  4  1  0
  4  5  1  0
  5  6  1  0
  6  7  2  0
  6  8  1  0
  8  9  1  0
  9 10  4  0
 10 11  4  0
 11 12  4  0
 12 13  4  0
 13 14  4  0
 14 15  4  0
 15 16  4  0
 16 17  4  0
  5 18  1  0
 18 19  1  0
 19  2  1  0
 17  9  4  0
 17 12  4  0
  1 20  1  0
  1 21  1  0
  1 22  1  0
  3 23  1  0
  3 24  1  0
  4 25  1  0
  4 26  1  0
  8 27  1  0
  8 28  1  0
 10 29  1  0
 11 30  1  0
 14 31  1  0
 15 32  1  0
 16 33  1  0
 18 34  1  0
 18 35  1  0
 19 36  1  0
 19 37  1  0
M  END
