
     RDKit          3D

 29 30  0  0  0  0  0  0  0  0999 V2000
    9.0010    6.5440   22.6590 C   0  0  0  0  0  0  0  0  0  0  0  0
   10.2030    6.0850   23.4380 C   0  0  0  0  0  0  0  0  0  0  0  0
   10.2440    6.0730   24.6670 O   0  0  0  0  0  0  0  0  0  0  0  0
   11.2280    5.6830   22.6270 N   0  0  0  0  0  0  0  0  0  0  0  0
   12.3710    4.9950   23.2010 C   0  0  0  0  0  0  0  0  0  0  0  0
   12.6000    3.6070   22.5950 C   0  0  0  0  0  0  0  0  0  0  0  0
   11.7020    2.5500   23.1570 C   0  0  0  0  0  0  0  0  0  0  0  0
   10.5050    2.8080   23.8240 C   0  0  0  0  0  0  0  0  0  0  0  0
    9.9260    1.6270   24.2020 N   0  0  0  0  0  0  0  0  0  0  0  0
   10.7280    0.6220   23.7830 C   0  0  0  0  0  0  0  0  0  0  0  0
   10.5160   -0.7720   23.9450 C   0  0  0  0  0  0  0  0  0  0  0  0
   11.5080   -1.7340   23.3980 C   0  0  0  0  0  0  0  0  0  0  0  0
   12.6840   -1.1130   22.7150 C   0  0  0  0  0  0  0  0  0  0  0  0
   13.6070   -1.9320   22.1910 F   0  0  0  0  0  0  0  0  0  0  0  0
   12.8480    0.2390   22.6010 C   0  0  0  0  0  0  0  0  0  0  0  0
   11.8790    1.1120   23.1160 C   0  0  0  0  0  0  0  0  0  0  0  0
    8.3110    7.1320   23.2690 H   0  0  0  0  0  0  0  0  0  0  0  0
    9.3390    7.1620   21.8240 H   0  0  0  0  0  0  0  0  0  0  0  0
    8.4700    5.6720   22.2730 H   0  0  0  0  0  0  0  0  0  0  0  0
   10.9890    5.5130   21.6440 H   0  0  0  0  0  0  0  0  0  0  0  0
   12.2210    4.9410   24.2850 H   0  0  0  0  0  0  0  0  0  0  0  0
   13.2460    5.6310   23.0260 H   0  0  0  0  0  0  0  0  0  0  0  0
   13.6440    3.3150   22.7260 H   0  0  0  0  0  0  0  0  0  0  0  0
   12.4490    3.6640   21.5140 H   0  0  0  0  0  0  0  0  0  0  0  0
   10.0150    3.7470   24.0590 H   0  0  0  0  0  0  0  0  0  0  0  0
    9.0540    1.5160   24.7000 H   0  0  0  0  0  0  0  0  0  0  0  0
    9.6370   -1.1560   24.4590 H   0  0  0  0  0  0  0  0  0  0  0  0
   11.3830   -2.8180   23.4900 H   0  0  0  0  0  0  0  0  0  0  0  0
   13.7430    0.5610   22.0960 H   0  0  0  0  0  0  0  0  0  0  0  0
  1  2  1  0
  2  3  2  0
  2  4  1  0
  4  5  1  0
  5  6  1  0
  6  7  1  0
  7  8  2  0
  8  9  1  0
  9 10  1  0
 10 11  1  0
 11 12  2  0
 12 13  1  0
 13 14  1  0
 13 15  2  0
  7 16  1  0
 10 16  2  0
 15 16  1  0
  1 17  1  0
  1 18  1  0
  1 19  1  0
  4 20  1  0
  5 21  1  0
  5 22  1  0
  6 23  1  0
  6 24  1  0
  8 25  1  0
  9 26  1  0
 11 27  1  0
 12 28  1  0
 15 29  1  0
M  END
