LIG
     RDKit          3D

 48 50  0  0  0  0  0  0  0  0999 V2000
    5.3930    0.6630   21.8670 C   0  0  0  0  0  0  0  0  0  0  0  0
    5.8360    0.5550   20.4100 C   0  0  0  0  0  0  0  0  0  0  0  0
    5.0650    1.0940   19.3800 C   0  0  0  0  0  0  0  0  0  0  0  0
    5.5190    0.9700   18.0740 C   0  0  0  0  0  0  0  0  0  0  0  0
    6.6520    0.3680   17.7870 N   0  0  0  0  0  0  0  0  0  0  0  0
    7.4050   -0.1450   18.7400 C   0  0  0  0  0  0  0  0  0  0  0  0
    7.0320   -0.0760   20.0760 C   0  0  0  0  0  0  0  0  0  0  0  0
    7.8860   -0.6570   21.1000 N   0  0  0  0  0  0  0  0  0  0  0  0
    9.1310   -0.0090   21.4750 C   0  0  0  0  0  0  0  0  0  0  0  0
    9.4550    1.0030   20.9560 O   0  0  0  0  0  0  0  0  0  0  0  0
   10.5520   -0.8835   23.1060 C   0  0  0  0  0  0  0  0  0  0  0  0
    9.6990   -1.5000   24.2460 C   0  0  0  0  0  0  0  0  0  0  0  0
    9.5440   -2.6880   24.5510 N   0  0  0  0  0  0  0  0  0  0  0  0
    8.3310   -2.8350   25.3360 C   0  0  0  0  0  0  0  0  0  0  0  0
    8.0790   -4.2690   25.8080 C   0  0  0  0  0  0  0  0  0  0  0  0
    9.1820   -4.8160   26.5550 C   0  0  0  0  0  0  0  0  0  0  0  0
    9.3040   -4.2150   27.8200 O   0  0  0  0  0  0  0  0  0  0  0  0
   10.4200   -4.6660   25.8330 C   0  0  0  0  0  0  0  0  0  0  0  0
   10.6550   -3.2590   25.2740 C   0  0  0  0  0  0  0  0  0  0  0  0
   11.9800   -0.0310   24.1900 C   0  0  0  0  0  0  0  0  0  0  0  0
   13.1900    0.0200   23.4210 C   0  0  0  0  0  0  0  0  0  0  0  0
   13.1570   -1.1140   22.2690 S   0  0  0  0  0  0  0  0  0  0  0  0
   11.7160   -1.7870   22.5590 C   0  0  0  0  0  0  0  0  0  0  0  0
    4.8579    1.5968   22.0471 H   0  0  0  0  0  0  0  0  0  0  0  0
    5.8499    1.5403   22.3273 H   0  0  0  0  0  0  0  0  0  0  0  0
    4.3055    0.7338   21.9178 H   0  0  0  0  0  0  0  0  0  0  0  0
    4.1285    1.6026   19.5692 H   0  0  0  0  0  0  0  0  0  0  0  0
    4.9511    1.3658   17.2467 H   0  0  0  0  0  0  0  0  0  0  0  0
    8.3048   -0.6156   18.4041 H   0  0  0  0  0  0  0  0  0  0  0  0
    7.6085   -1.4360   21.5540 H   0  0  0  0  0  0  0  0  0  0  0  0
    9.9648   -0.8223   25.1852 H   0  0  0  0  0  0  0  0  0  0  0  0
    8.6533   -0.9988   24.0611 H   0  0  0  0  0  0  0  0  0  0  0  0
    8.3879   -2.1948   26.2272 H   0  0  0  0  0  0  0  0  0  0  0  0
    7.4431   -2.5197   24.7642 H   0  0  0  0  0  0  0  0  0  0  0  0
    7.8457   -4.8984   24.9145 H   0  0  0  0  0  0  0  0  0  0  0  0
    7.1170   -4.2896   26.3814 H   0  0  0  0  0  0  0  0  0  0  0  0
    9.0141   -5.9056   26.7536 H   0  0  0  0  0  0  0  0  0  0  0  0
    8.4172   -3.9268   28.1081 H   0  0  0  0  0  0  0  0  0  0  0  0
   10.4699   -5.3730   24.9637 H   0  0  0  0  0  0  0  0  0  0  0  0
   11.3154   -4.9401   26.4507 H   0  0  0  0  0  0  0  0  0  0  0  0
   11.5875   -3.2662   24.6751 H   0  0  0  0  0  0  0  0  0  0  0  0
   10.9021   -2.5898   26.1219 H   0  0  0  0  0  0  0  0  0  0  0  0
   11.9610   -0.6268   25.0842 H   0  0  0  0  0  0  0  0  0  0  0  0
   11.4990    0.9156   24.4007 H   0  0  0  0  0  0  0  0  0  0  0  0
   13.3543    1.0841   23.0120 H   0  0  0  0  0  0  0  0  0  0  0  0
   14.1026   -0.0931   24.1117 H   0  0  0  0  0  0  0  0  0  0  0  0
   11.7763   -2.7436   23.2442 H   0  0  0  0  0  0  0  0  0  0  0  0
   11.3209   -2.3232   21.6042 H   0  0  0  0  0  0  0  0  0  0  0  0
  1  2  1  0
  2  3  4  0
  3  4  4  0
  4  5  4  0
  5  6  4  0
  6  7  4  0
  7  8  1  0
  8  9  1  0
  9 10  2  0
  9 11  1  0
 11 12  1  0
 12 13  1  0
 13 14  1  0
 14 15  1  0
 15 16  1  0
 16 17  1  0
 16 18  1  0
 18 19  1  0
 11 20  1  0
 20 21  1  0
 21 22  1  0
 22 23  1  0
  7  2  4  0
 23 11  1  0
 19 13  1  0
  1 24  1  0
  1 25  1  0
  1 26  1  0
  3 27  1  0
  4 28  1  0
  6 29  1  0
  8 30  1  0
 12 31  1  0
 12 32  1  0
 14 33  1  0
 14 34  1  0
 15 35  1  0
 15 36  1  0
 16 37  1  0
 17 38  1  0
 18 39  1  0
 18 40  1  0
 19 41  1  0
 19 42  1  0
 20 43  1  0
 20 44  1  0
 21 45  1  0
 21 46  1  0
 23 47  1  0
 23 48  1  0
M  END
