LIG
     RDKit          3D

 44 46  0  0  0  0  0  0  0  0999 V2000
    8.9920    6.2370   22.6120 C   0  0  0  0  0  0  0  0  0  0  0  0
   10.2740    5.9430   23.3830 C   0  0  0  0  0  0  0  0  0  0  0  0
   10.3130    6.1380   24.5460 O   0  0  0  0  0  0  0  0  0  0  0  0
   11.4270    5.4110   22.6760 N   0  0  0  0  0  0  0  0  0  0  0  0
   12.6680    5.0840   23.3500 C   0  0  0  0  0  0  0  0  0  0  0  0
   13.0500    3.6550   22.9570 C   0  0  0  0  0  0  0  0  0  0  0  0
   12.0650    2.5700   23.4230 C   0  0  0  0  0  0  0  0  0  0  0  0
   10.9400    2.7480   24.2110 C   0  0  0  0  0  0  0  0  0  0  0  0
   11.0565    1.2310   24.3550 N   0  0  0  0  0  0  0  0  0  0  0  0
   10.8015    0.4870   23.8230 C   0  0  0  0  0  0  0  0  0  0  0  0
   10.6710   -0.6290   23.2145 C   0  0  0  0  0  0  0  0  0  0  0  0
    9.2320   -0.9350   22.4160 N   0  0  0  0  0  0  0  0  0  0  0  0
    8.5920   -0.2080   21.3470 C   0  0  0  0  0  0  0  0  0  0  0  0
    9.1440    0.7090   20.8350 O   0  0  0  0  0  0  0  0  0  0  0  0
    7.2840   -0.6350   20.9180 N   0  0  0  0  0  0  0  0  0  0  0  0
    6.6030    0.0510   19.8530 C   0  0  0  0  0  0  0  0  0  0  0  0
    5.3980    0.6740   20.1340 C   0  0  0  0  0  0  0  0  0  0  0  0
    4.7680    1.3310   19.0890 C   0  0  0  0  0  0  0  0  0  0  0  0
    5.3600    1.2970   17.8310 C   0  0  0  0  0  0  0  0  0  0  0  0
    6.5100    0.7030   17.6230 N   0  0  0  0  0  0  0  0  0  0  0  0
    7.1440    0.0770   18.5790 C   0  0  0  0  0  0  0  0  0  0  0  0
   11.6850   -1.1755   22.4905 C   0  0  0  0  0  0  0  0  0  0  0  0
   12.8100   -0.9880   22.2450 C   0  0  0  0  0  0  0  0  0  0  0  0
   13.6800   -1.7440   21.5180 F   0  0  0  0  0  0  0  0  0  0  0  0
   12.9520    0.0635   22.4500 C   0  0  0  0  0  0  0  0  0  0  0  0
   12.5250    0.8815   23.3785 C   0  0  0  0  0  0  0  0  0  0  0  0
    8.5816    7.1830   22.9665 H   0  0  0  0  0  0  0  0  0  0  0  0
    9.1140    7.1802   22.0796 H   0  0  0  0  0  0  0  0  0  0  0  0
    9.1876    6.3211   21.5429 H   0  0  0  0  0  0  0  0  0  0  0  0
   11.2034    4.9390   21.8072 H   0  0  0  0  0  0  0  0  0  0  0  0
   12.4919    5.1608   24.4129 H   0  0  0  0  0  0  0  0  0  0  0  0
   13.4402    5.7796   23.0583 H   0  0  0  0  0  0  0  0  0  0  0  0
   13.1573    3.5778   21.8610 H   0  0  0  0  0  0  0  0  0  0  0  0
   14.0493    3.4113   23.3586 H   0  0  0  0  0  0  0  0  0  0  0  0
   10.3152    3.2753   24.5825 H   0  0  0  0  0  0  0  0  0  0  0  0
   11.6296    1.1457   25.4462 H   0  0  0  0  0  0  0  0  0  0  0  0
    8.9091   -1.8410   22.6353 H   0  0  0  0  0  0  0  0  0  0  0  0
    6.8031   -1.2352   21.4779 H   0  0  0  0  0  0  0  0  0  0  0  0
    4.9489    0.6725   21.1045 H   0  0  0  0  0  0  0  0  0  0  0  0
    3.8355    1.8627   19.2415 H   0  0  0  0  0  0  0  0  0  0  0  0
    4.8832    1.7659   16.9840 H   0  0  0  0  0  0  0  0  0  0  0  0
    8.0592   -0.3916   18.3305 H   0  0  0  0  0  0  0  0  0  0  0  0
   11.2537   -2.1963   21.9025 H   0  0  0  0  0  0  0  0  0  0  0  0
   13.6801    0.6890   21.6455 H   0  0  0  0  0  0  0  0  0  0  0  0
  1  2  1  0
  2  3  2  0
  2  4  1  0
  4  5  1  0
  5  6  1  0
  6  7  1  0
  7  8  4  0
  8  9  4  0
  9 10  4  0
 10 11  4  0
 11 12  1  0
 12 13  1  0
 13 14  2  0
 13 15  1  0
 15 16  1  0
 16 17  4  0
 17 18  4  0
 18 19  4  0
 19 20  4  0
 20 21  4  0
 11 22  4  0
 22 23  4  0
 23 24  1  0
 23 25  4  0
 25 26  4  0
 26  7  4  0
 26 10  4  0
 21 16  4  0
  1 27  1  0
  1 28  1  0
  1 29  1  0
  4 30  1  0
  5 31  1  0
  5 32  1  0
  6 33  1  0
  6 34  1  0
  8 35  1  0
  9 36  1  0
 12 37  1  0
 15 38  1  0
 17 39  1  0
 18 40  1  0
 19 41  1  0
 21 42  1  0
 22 43  1  0
 25 44  1  0
M  END
