
     RDKit          3D

 40 42  0  0  0  0  0  0  0  0999 V2000
    5.3160    0.7490   22.0790 C   0  0  0  0  0  0  0  0  0  0  0  0
    5.7840    0.4870   20.6810 C   0  0  0  0  0  0  0  0  0  0  0  0
    4.9950    1.0510   19.6670 C   0  0  0  0  0  0  0  0  0  0  0  0
    5.4210    0.8170   18.2340 C   0  0  0  0  0  0  0  0  0  0  0  0
    6.5030    0.0970   17.9520 N   0  0  0  0  0  0  0  0  0  0  0  0
    7.2270   -0.4280   18.9820 C   0  0  0  0  0  0  0  0  0  0  0  0
    6.9390   -0.2730   20.3240 C   0  0  0  0  0  0  0  0  0  0  0  0
    7.8610   -0.9090   21.1890 N   0  0  0  0  0  0  0  0  0  0  0  0
    8.1350   -0.0990   22.2810 C   0  0  1  0  0  0  0  0  0  0  0  0
    7.1980    0.1710   23.2770 C   0  0  0  0  0  0  0  0  0  0  0  0
    7.7890    1.2930   24.0610 C   0  0  0  0  0  0  0  0  0  0  0  0
    9.1940    1.4140   23.4630 C   0  0  2  0  0  0  0  0  0  0  0  0
    9.4120    2.2680   22.3850 C   0  0  0  0  0  0  0  0  0  0  0  0
   10.1990    3.4590   22.7180 N   0  0  0  0  0  0  0  0  0  0  0  0
    8.9940    2.0600   21.2430 O   0  0  0  0  0  0  0  0  0  0  0  0
    9.3580   -0.0710   23.0680 C   0  0  2  0  0  0  0  0  0  0  0  0
   10.6660   -0.4430   22.7310 C   0  0  0  0  0  0  0  0  0  0  0  0
   11.7340    0.3860   23.0870 C   0  0  0  0  0  0  0  0  0  0  0  0
   12.9970   -0.0400   22.7380 C   0  0  0  0  0  0  0  0  0  0  0  0
   12.9140   -1.5890   21.9040 S   0  0  0  0  0  0  0  0  0  0  0  0
   11.1850   -1.5730   22.0650 C   0  0  0  0  0  0  0  0  0  0  0  0
    4.3430    1.2490   22.0820 H   0  0  0  0  0  0  0  0  0  0  0  0
    5.2080   -0.2020   22.6060 H   0  0  0  0  0  0  0  0  0  0  0  0
    6.0370    1.3940   22.5830 H   0  0  0  0  0  0  0  0  0  0  0  0
    4.1080    1.6370   19.8770 H   0  0  0  0  0  0  0  0  0  0  0  0
    4.8670    1.2210   17.3910 H   0  0  0  0  0  0  0  0  0  0  0  0
    8.0750   -0.9950   18.6330 H   0  0  0  0  0  0  0  0  0  0  0  0
    7.7030   -1.8890   21.3650 H   0  0  0  0  0  0  0  0  0  0  0  0
    8.3520    0.7580   21.6610 H   0  0  0  0  0  0  0  0  0  0  0  0
    6.2770    0.4000   22.7540 H   0  0  0  0  0  0  0  0  0  0  0  0
    6.9680   -0.7210   23.8590 H   0  0  0  0  0  0  0  0  0  0  0  0
    7.8150    1.0630   25.1350 H   0  0  0  0  0  0  0  0  0  0  0  0
    7.2140    2.2190   23.9240 H   0  0  0  0  0  0  0  0  0  0  0  0
    9.9010    1.6570   24.2660 H   0  0  0  0  0  0  0  0  0  0  0  0
    9.7310    4.3670   22.6960 H   0  0  0  0  0  0  0  0  0  0  0  0
   11.1550    3.4550   22.3440 H   0  0  0  0  0  0  0  0  0  0  0  0
    9.1070   -0.6090   23.9790 H   0  0  0  0  0  0  0  0  0  0  0  0
   11.4640    1.3020   23.6160 H   0  0  0  0  0  0  0  0  0  0  0  0
   13.9400    0.4470   22.9170 H   0  0  0  0  0  0  0  0  0  0  0  0
   10.6430   -2.4160   21.6560 H   0  0  0  0  0  0  0  0  0  0  0  0
  1  2  1  0
  2  3  2  0
  3  4  1  0
  4  5  2  0
  5  6  1  0
  2  7  1  0
  6  7  2  0
  7  8  1  0
  8  9  1  0
  9 10  1  0
 10 11  1  0
 11 12  1  0
 12 13  1  0
 13 14  1  0
 13 15  2  0
  9 16  1  0
 12 16  1  0
 16 17  1  0
 17 18  1  0
 18 19  2  0
 19 20  1  0
 17 21  2  0
 20 21  1  0
  1 22  1  0
  1 23  1  0
  1 24  1  0
  3 25  1  0
  4 26  1  0
  6 27  1  0
  8 28  1  0
  9 29  1  6
 10 30  1  0
 10 31  1  0
 11 32  1  0
 11 33  1  0
 12 34  1  1
 14 35  1  0
 14 36  1  0
 16 37  1  1
 18 38  1  0
 19 39  1  0
 21 40  1  0
M  END
