
     RDKit          3D

 38 39  0  0  0  0  0  0  0  0999 V2000
    9.9510   -1.0700   22.1150 C   0  0  0  0  0  0  0  0  0  0  0  0
    8.7000   -0.4030   21.6030 C   0  0  0  0  0  0  0  0  0  0  0  0
    8.7490    0.7350   21.1320 O   0  0  0  0  0  0  0  0  0  0  0  0
    7.4830   -1.1170   21.7650 C   0  0  0  0  0  0  0  0  0  0  0  0
    6.8970   -1.7440   20.5540 N   0  0  0  0  0  0  0  0  0  0  0  0
    7.0870   -1.1780   19.2210 C   0  0  0  0  0  0  0  0  0  0  0  0
    6.2140   -0.0320   18.9400 C   0  0  0  0  0  0  0  0  0  0  0  0
    6.1640    0.5640   17.6140 N   0  0  0  0  0  0  0  0  0  0  0  0
    5.2200    1.5730   17.7620 O   0  0  0  0  0  0  0  0  0  0  0  0
    4.7230    1.6280   19.0500 C   0  0  0  0  0  0  0  0  0  0  0  0
    3.6780    2.6360   19.4490 C   0  0  0  0  0  0  0  0  0  0  0  0
    5.2840    0.6790   19.8760 C   0  0  0  0  0  0  0  0  0  0  0  0
    5.1070    0.3280   21.3310 C   0  0  0  0  0  0  0  0  0  0  0  0
    6.1590   -2.9150   20.7680 C   0  0  0  0  0  0  0  0  0  0  0  0
    5.4880   -3.6600   19.7200 O   0  0  0  0  0  0  0  0  0  0  0  0
    6.1180   -3.3810   22.1660 N   0  0  0  0  0  0  0  0  0  0  0  0
    5.5430   -4.6510   22.4750 C   0  0  1  0  0  0  0  0  0  0  0  0
    6.0170   -5.7380   21.9800 C   0  0  0  0  0  0  0  0  0  0  0  0
    6.3560   -5.9000   23.2090 C   0  0  0  0  0  0  0  0  0  0  0  0
   10.6530   -1.2930   21.3090 H   0  0  0  0  0  0  0  0  0  0  0  0
    9.6800   -2.0100   22.5970 H   0  0  0  0  0  0  0  0  0  0  0  0
   10.4390   -0.4100   22.8370 H   0  0  0  0  0  0  0  0  0  0  0  0
    6.6840   -0.6070   22.2840 H   0  0  0  0  0  0  0  0  0  0  0  0
    7.6970   -1.9660   22.4220 H   0  0  0  0  0  0  0  0  0  0  0  0
    6.8870   -1.9460   18.4740 H   0  0  0  0  0  0  0  0  0  0  0  0
    8.1200   -0.9120   19.0900 H   0  0  0  0  0  0  0  0  0  0  0  0
    3.3790    2.4440   20.4760 H   0  0  0  0  0  0  0  0  0  0  0  0
    4.1280    3.6340   19.4250 H   0  0  0  0  0  0  0  0  0  0  0  0
    2.7560    2.7120   18.8680 H   0  0  0  0  0  0  0  0  0  0  0  0
    6.0100    0.6240   21.8740 H   0  0  0  0  0  0  0  0  0  0  0  0
    4.3160    0.9720   21.7340 H   0  0  0  0  0  0  0  0  0  0  0  0
    4.8650   -0.6950   21.6220 H   0  0  0  0  0  0  0  0  0  0  0  0
    6.0310   -2.6280   22.8510 H   0  0  0  0  0  0  0  0  0  0  0  0
    4.4550   -4.6560   22.4270 H   0  0  0  0  0  0  0  0  0  0  0  0
    6.8740   -5.5950   21.3130 H   0  0  0  0  0  0  0  0  0  0  0  0
    5.3710   -6.5530   21.6350 H   0  0  0  0  0  0  0  0  0  0  0  0
    7.4510   -5.9680   23.2700 H   0  0  0  0  0  0  0  0  0  0  0  0
    5.8700   -6.8060   23.5820 H   0  0  0  0  0  0  0  0  0  0  0  0
  1  2  1  0
  2  3  2  0
  2  4  1  0
  4  5  1  0
  5  6  1  0
  6  7  1  0
  7  8  2  0
  8  9  1  0
  9 10  1  0
 10 11  1  0
  7 12  1  0
 10 12  2  0
 12 13  1  0
  5 14  1  0
 14 15  2  0
 14 16  1  0
 16 17  1  0
 17 18  1  0
 17 19  1  0
 18 19  1  0
  1 20  1  0
  1 21  1  0
  1 22  1  0
  4 23  1  0
  4 24  1  0
  6 25  1  0
  6 26  1  0
 11 27  1  0
 11 28  1  0
 11 29  1  0
 13 30  1  0
 13 31  1  0
 13 32  1  0
 16 33  1  0
 17 34  1  1
 18 35  1  0
 18 36  1  0
 19 37  1  0
 19 38  1  0
M  END
