LIG
     RDKit          3D

 40 42  0  0  0  0  0  0  0  0999 V2000
    8.9920    6.2370   22.6120 C   0  0  0  0  0  0  0  0  0  0  0  0
   10.2740    5.9430   23.3830 C   0  0  0  0  0  0  0  0  0  0  0  0
   10.3130    6.1380   24.5460 O   0  0  0  0  0  0  0  0  0  0  0  0
   11.4270    5.4110   22.6760 N   0  0  0  0  0  0  0  0  0  0  0  0
   12.6680    5.0840   23.3500 C   0  0  0  0  0  0  0  0  0  0  0  0
   13.0500    3.6550   22.9570 C   0  0  0  0  0  0  0  0  0  0  0  0
   12.0650    2.5700   23.4230 C   0  0  0  0  0  0  0  0  0  0  0  0
   10.9400    2.7480   24.2110 C   0  0  0  0  0  0  0  0  0  0  0  0
   10.3530    1.5710   24.3790 N   0  0  0  0  0  0  0  0  0  0  0  0
   10.7615    0.4755   23.7555 C   0  0  0  0  0  0  0  0  0  0  0  0
   10.4795   -0.6255   23.2300 C   0  0  0  0  0  0  0  0  0  0  0  0
    9.0150   -1.0220   22.9690 C   0  0  0  0  0  0  0  0  0  0  0  0
    8.9500   -2.0240   24.1390 C   0  0  0  0  0  0  0  0  0  0  0  0
    8.4300   -1.7410   25.3910 N   0  0  0  0  0  0  0  0  0  0  0  0
    8.5200   -2.9160   26.2860 N   0  0  0  0  0  0  0  0  0  0  0  0
    9.0910   -3.9920   25.6370 C   0  0  0  0  0  0  0  0  0  0  0  0
    9.3350   -5.3670   26.2750 C   0  0  0  0  0  0  0  0  0  0  0  0
    9.4770   -3.5790   24.0930 S   0  0  0  0  0  0  0  0  0  0  0  0
   11.4930   -1.5020   22.6365 C   0  0  0  0  0  0  0  0  0  0  0  0
   12.6565   -0.8765   22.1780 C   0  0  0  0  0  0  0  0  0  0  0  0
   13.5865   -1.6140   21.5400 F   0  0  0  0  0  0  0  0  0  0  0  0
   12.9260    0.4460   22.6290 C   0  0  0  0  0  0  0  0  0  0  0  0
   11.9620    1.2225   23.2395 C   0  0  0  0  0  0  0  0  0  0  0  0
    8.8411    7.3097   22.4921 H   0  0  0  0  0  0  0  0  0  0  0  0
    8.3384    6.8406   23.2416 H   0  0  0  0  0  0  0  0  0  0  0  0
    9.2501    6.7825   21.7039 H   0  0  0  0  0  0  0  0  0  0  0  0
   11.3021    5.1795   21.7047 H   0  0  0  0  0  0  0  0  0  0  0  0
   13.4133    5.7869   23.0176 H   0  0  0  0  0  0  0  0  0  0  0  0
   12.5218    5.1659   24.4138 H   0  0  0  0  0  0  0  0  0  0  0  0
   14.0497    3.4117   23.3607 H   0  0  0  0  0  0  0  0  0  0  0  0
   13.1594    3.5677   21.8612 H   0  0  0  0  0  0  0  0  0  0  0  0
   10.5407    3.6570   24.6594 H   0  0  0  0  0  0  0  0  0  0  0  0
    9.4915    1.5085   25.0705 H   0  0  0  0  0  0  0  0  0  0  0  0
    8.3836   -0.2473   23.1319 H   0  0  0  0  0  0  0  0  0  0  0  0
    8.9505   -1.5240   22.0853 H   0  0  0  0  0  0  0  0  0  0  0  0
   10.1386   -5.8696   25.7449 H   0  0  0  0  0  0  0  0  0  0  0  0
    9.1674   -6.1455   25.5371 H   0  0  0  0  0  0  0  0  0  0  0  0
   10.3535   -5.4199   26.6471 H   0  0  0  0  0  0  0  0  0  0  0  0
   11.3543   -2.5302   22.5668 H   0  0  0  0  0  0  0  0  0  0  0  0
   13.9552    0.8264   22.4700 H   0  0  0  0  0  0  0  0  0  0  0  0
  1  2  1  0
  2  3  2  0
  2  4  1  0
  4  5  1  0
  5  6  1  0
  6  7  1  0
  7  8  4  0
  8  9  4  0
  9 10  4  0
 10 11  4  0
 11 12  1  0
 12 13  1  0
 13 14  4  0
 14 15  4  0
 15 16  4  0
 16 17  1  0
 16 18  4  0
 11 19  4  0
 19 20  4  0
 20 21  1  0
 20 22  4  0
 22 23  4  0
 23  7  4  0
 23 10  4  0
 18 13  4  0
  1 24  1  0
  1 25  1  0
  1 26  1  0
  4 27  1  0
  5 28  1  0
  5 29  1  0
  6 30  1  0
  6 31  1  0
  8 32  1  0
  9 33  1  0
 12 34  1  0
 12 35  1  0
 17 36  1  0
 17 37  1  0
 17 38  1  0
 19 39  1  0
 22 40  1  0
M  END
