LIG
     RDKit          3D

 36 37  0  0  0  0  0  0  0  0999 V2000
    8.4100    0.0120   27.4140 C   0  0  0  0  0  0  0  0  0  0  0  0
    8.9670   -0.5390   26.1210 C   0  0  0  0  0  0  0  0  0  0  0  0
   10.1000    0.2670   25.7050 N   0  0  0  0  0  0  0  0  0  0  0  0
   10.9270   -0.1760   24.6090 C   0  0  0  0  0  0  0  0  0  0  0  0
   12.0070    0.5160   24.2990 N   0  0  0  0  0  0  0  0  0  0  0  0
   12.7880    0.1370   23.2890 C   0  0  0  0  0  0  0  0  0  0  0  0
   12.4940   -0.9910   22.5240 C   0  0  0  0  0  0  0  0  0  0  0  0
   13.3880   -1.4320   21.3740 C   0  0  0  0  0  0  0  0  0  0  0  0
   14.0700   -1.7370   20.5180 N   0  0  0  0  0  0  0  0  0  0  0  0
   11.3650   -1.7260   22.8360 C   0  0  0  0  0  0  0  0  0  0  0  0
   10.3025   -0.9675   23.2180 C   0  0  0  0  0  0  0  0  0  0  0  0
    9.1310   -0.0090   21.4750 C   0  0  0  0  0  0  0  0  0  0  0  0
    9.4550    1.0030   20.9560 O   0  0  0  0  0  0  0  0  0  0  0  0
    7.8860   -0.6570   21.1000 N   0  0  0  0  0  0  0  0  0  0  0  0
    7.0320   -0.0760   20.0760 C   0  0  0  0  0  0  0  0  0  0  0  0
    7.4050   -0.1450   18.7400 C   0  0  0  0  0  0  0  0  0  0  0  0
    6.6520    0.3680   17.7870 N   0  0  0  0  0  0  0  0  0  0  0  0
    5.5190    0.9700   18.0740 C   0  0  0  0  0  0  0  0  0  0  0  0
    5.0650    1.0940   19.3800 C   0  0  0  0  0  0  0  0  0  0  0  0
    5.8360    0.5550   20.4100 C   0  0  0  0  0  0  0  0  0  0  0  0
    5.3930    0.6630   21.8670 C   0  0  0  0  0  0  0  0  0  0  0  0
    9.0230    0.8409   27.7886 H   0  0  0  0  0  0  0  0  0  0  0  0
    8.1480    1.0729   27.3281 H   0  0  0  0  0  0  0  0  0  0  0  0
    9.1464   -0.0854   28.2200 H   0  0  0  0  0  0  0  0  0  0  0  0
    9.2192   -1.5927   26.2122 H   0  0  0  0  0  0  0  0  0  0  0  0
    8.2015   -0.4569   25.3513 H   0  0  0  0  0  0  0  0  0  0  0  0
   10.7197    0.5259   26.4882 H   0  0  0  0  0  0  0  0  0  0  0  0
   13.6521    0.7444   23.0978 H   0  0  0  0  0  0  0  0  0  0  0  0
   11.3410   -2.7832   22.7501 H   0  0  0  0  0  0  0  0  0  0  0  0
    7.5966   -1.4179   21.5846 H   0  0  0  0  0  0  0  0  0  0  0  0
    8.3057   -0.6150   18.4063 H   0  0  0  0  0  0  0  0  0  0  0  0
    4.9514    1.3666   17.2469 H   0  0  0  0  0  0  0  0  0  0  0  0
    4.1289    1.6032   19.5696 H   0  0  0  0  0  0  0  0  0  0  0  0
    4.3647    1.0206   21.9396 H   0  0  0  0  0  0  0  0  0  0  0  0
    5.4424   -0.3182   22.3411 H   0  0  0  0  0  0  0  0  0  0  0  0
    6.0339    1.3699   22.3956 H   0  0  0  0  0  0  0  0  0  0  0  0
  1  2  1  0
  2  3  1  0
  3  4  1  0
  4  5  4  0
  5  6  4  0
  6  7  4  0
  7  8  1  0
  8  9  3  0
  7 10  4  0
 10 11  4  0
 11 12  1  0
 12 13  2  0
 12 14  1  0
 14 15  1  0
 15 16  4  0
 16 17  4  0
 17 18  4  0
 18 19  4  0
 19 20  4  0
 20 21  1  0
 11  4  4  0
 20 15  4  0
  1 22  1  0
  1 23  1  0
  1 24  1  0
  2 25  1  0
  2 26  1  0
  3 27  1  0
  6 28  1  0
 10 29  1  0
 14 30  1  0
 16 31  1  0
 18 32  1  0
 19 33  1  0
 21 34  1  0
 21 35  1  0
 21 36  1  0
M  END
