LIG
     RDKit          3D

 23 23  0  0  0  0  0  0  0  0999 V2000
   10.0290   -0.6240   22.5460 C   0  0  0  0  0  0  0  0  0  0  0  0
    9.1310   -0.0090   21.4750 C   0  0  0  0  0  0  0  0  0  0  0  0
    9.4550    1.0030   20.9560 O   0  0  0  0  0  0  0  0  0  0  0  0
    7.8860   -0.6570   21.1000 N   0  0  0  0  0  0  0  0  0  0  0  0
    6.5405   -0.3740   19.8040 C   0  0  0  0  0  0  0  0  0  0  0  0
    6.9845   -0.2985   18.5075 C   0  0  0  0  0  0  0  0  0  0  0  0
    6.4405    0.4575   17.6120 N   0  0  0  0  0  0  0  0  0  0  0  0
    5.4045    1.1865   17.9690 C   0  0  0  0  0  0  0  0  0  0  0  0
    4.8720    1.1880   19.2605 C   0  0  0  0  0  0  0  0  0  0  0  0
    3.7110    2.1190   19.5450 N   0  0  0  0  0  0  0  0  0  0  0  0
    5.4790    0.3790   20.1795 C   0  0  0  0  0  0  0  0  0  0  0  0
    5.3930    0.6630   21.8670 C   0  0  0  0  0  0  0  0  0  0  0  0
   10.1202    0.0765   23.3771 H   0  0  0  0  0  0  0  0  0  0  0  0
    9.5784   -1.5537   22.8938 H   0  0  0  0  0  0  0  0  0  0  0  0
    9.4810   -0.7389   23.4819 H   0  0  0  0  0  0  0  0  0  0  0  0
    7.5645   -1.4888   21.5939 H   0  0  0  0  0  0  0  0  0  0  0  0
    7.8375   -0.8744   18.1518 H   0  0  0  0  0  0  0  0  0  0  0  0
    4.9668    1.7923   17.1899 H   0  0  0  0  0  0  0  0  0  0  0  0
    3.7038    2.8898   18.9185 H   0  0  0  0  0  0  0  0  0  0  0  0
    3.6846    2.3667   20.5095 H   0  0  0  0  0  0  0  0  0  0  0  0
    4.4346    1.0925   22.0350 H   0  0  0  0  0  0  0  0  0  0  0  0
    6.2089    1.3134   22.0750 H   0  0  0  0  0  0  0  0  0  0  0  0
    5.2903    1.7042   22.0185 H   0  0  0  0  0  0  0  0  0  0  0  0
  1  2  1  0
  2  3  2  0
  2  4  1  0
  4  5  1  0
  5  6  4  0
  6  7  4  0
  7  8  4  0
  8  9  4  0
  9 10  1  0
  9 11  4  0
 11 12  1  0
 11  5  4  0
  1 13  1  0
  1 14  1  0
  1 15  1  0
  4 16  1  0
  6 17  1  0
  8 18  1  0
 10 19  1  0
 10 20  1  0
 12 21  1  0
 12 22  1  0
 12 23  1  0
M  END
