LIG
     RDKit          3D

 54 57  0  0  0  0  0  0  0  0999 V2000
    8.9920    6.2370   22.6120 C   0  0  0  0  0  0  0  0  0  0  0  0
   10.2740    5.9430   23.3830 C   0  0  0  0  0  0  0  0  0  0  0  0
   10.3130    6.1380   24.5460 O   0  0  0  0  0  0  0  0  0  0  0  0
   11.4270    5.4110   22.6760 N   0  0  0  0  0  0  0  0  0  0  0  0
   12.6680    5.0840   23.3500 C   0  0  0  0  0  0  0  0  0  0  0  0
   13.0500    3.6550   22.9570 C   0  0  0  0  0  0  0  0  0  0  0  0
   12.0650    2.5700   23.4230 C   0  0  0  0  0  0  0  0  0  0  0  0
   10.9400    2.7480   24.2110 C   0  0  0  0  0  0  0  0  0  0  0  0
   10.3530    1.5710   24.3790 N   0  0  0  0  0  0  0  0  0  0  0  0
   11.1645    0.0970   24.1275 C   0  0  0  0  0  0  0  0  0  0  0  0
   12.7710   -0.1530   24.6900 C   0  0  0  0  0  0  0  0  0  0  0  0
   13.3200   -0.2375   22.9985 C   0  0  0  0  0  0  0  0  0  0  0  0
   12.8140   -1.3505   22.4460 C   0  0  0  0  0  0  0  0  0  0  0  0
   13.6800   -1.7440   21.5180 F   0  0  0  0  0  0  0  0  0  0  0  0
   11.6350   -1.3140   22.4825 C   0  0  0  0  0  0  0  0  0  0  0  0
   10.8735   -0.4410   23.3500 C   0  0  0  0  0  0  0  0  0  0  0  0
    9.4090   -0.1550   23.0330 C   0  0  0  0  0  0  0  0  0  0  0  0
    8.8650    0.3120   21.6960 C   0  0  0  0  0  0  0  0  0  0  0  0
    9.4190    1.1020   21.0000 O   0  0  0  0  0  0  0  0  0  0  0  0
    7.6120   -0.2560   21.3260 N   0  0  0  0  0  0  0  0  0  0  0  0
    7.0000    0.1710   20.1090 C   0  0  0  0  0  0  0  0  0  0  0  0
    5.7560    0.7730   20.2490 C   0  0  0  0  0  0  0  0  0  0  0  0
    5.1420    1.2080   19.0830 C   0  0  0  0  0  0  0  0  0  0  0  0
    5.8050    1.0240   17.8770 C   0  0  0  0  0  0  0  0  0  0  0  0
    7.0000    0.4540   17.8140 N   0  0  0  0  0  0  0  0  0  0  0  0
    7.6260    0.0260   18.8870 C   0  0  0  0  0  0  0  0  0  0  0  0
   12.1310    1.1860   23.1210 C   0  0  0  0  0  0  0  0  0  0  0  0
    8.2798    5.4284   22.7865 H   0  0  0  0  0  0  0  0  0  0  0  0
    8.1661    6.3101   23.3172 H   0  0  0  0  0  0  0  0  0  0  0  0
    8.5501    7.1673   22.9560 H   0  0  0  0  0  0  0  0  0  0  0  0
   11.2920    5.1539   21.7191 H   0  0  0  0  0  0  0  0  0  0  0  0
   13.4479    5.7795   23.0955 H   0  0  0  0  0  0  0  0  0  0  0  0
   12.4637    5.1240   24.4083 H   0  0  0  0  0  0  0  0  0  0  0  0
   14.0666    3.4512   23.3346 H   0  0  0  0  0  0  0  0  0  0  0  0
   13.1189    3.6329   21.8565 H   0  0  0  0  0  0  0  0  0  0  0  0
   11.2800    2.8076   22.2047 H   0  0  0  0  0  0  0  0  0  0  0  0
   10.2094    3.4584   23.7117 H   0  0  0  0  0  0  0  0  0  0  0  0
   11.1288    3.2684   25.2032 H   0  0  0  0  0  0  0  0  0  0  0  0
    9.8568    1.4411   25.3412 H   0  0  0  0  0  0  0  0  0  0  0  0
   12.9213   -1.0628   25.2100 H   0  0  0  0  0  0  0  0  0  0  0  0
   13.2282    0.6612   25.1856 H   0  0  0  0  0  0  0  0  0  0  0  0
   14.2829    0.1560   22.9705 H   0  0  0  0  0  0  0  0  0  0  0  0
   12.6012   -0.2845   21.2140 H   0  0  0  0  0  0  0  0  0  0  0  0
   11.1567   -1.1238   21.4000 H   0  0  0  0  0  0  0  0  0  0  0  0
   11.1105   -2.3917   22.6168 H   0  0  0  0  0  0  0  0  0  0  0  0
   10.4177   -1.5752   24.1375 H   0  0  0  0  0  0  0  0  0  0  0  0
    8.8056   -1.0898   23.3526 H   0  0  0  0  0  0  0  0  0  0  0  0
    9.0250    0.6279   23.7915 H   0  0  0  0  0  0  0  0  0  0  0  0
    7.2659   -0.8497   21.8964 H   0  0  0  0  0  0  0  0  0  0  0  0
    5.2913    0.9226   21.1936 H   0  0  0  0  0  0  0  0  0  0  0  0
    4.1667    1.6842   19.1052 H   0  0  0  0  0  0  0  0  0  0  0  0
    5.3673    1.3385   16.9446 H   0  0  0  0  0  0  0  0  0  0  0  0
    8.5508   -0.4365   18.7347 H   0  0  0  0  0  0  0  0  0  0  0  0
   11.6169    1.0693   21.9942 H   0  0  0  0  0  0  0  0  0  0  0  0
  1  2  1  0
  2  3  2  0
  2  4  1  0
  4  5  1  0
  5  6  1  0
  6  7  1  0
  7  8  1  0
  8  9  1  0
  9 10  1  0
 10 11  1  0
 11 12  1  0
 12 13  1  0
 13 14  1  0
 13 15  1  0
 15 16  1  0
 16 17  1  0
 17 18  1  0
 18 19  2  0
 18 20  1  0
 20 21  1  0
 21 22  4  0
 22 23  4  0
 23 24  4  0
 24 25  4  0
 25 26  4  0
 12 27  1  0
 27  7  1  0
 16 10  1  0
 26 21  4  0
 27 10  1  0
  1 28  1  0
  1 29  1  0
  1 30  1  0
  4 31  1  0
  5 32  1  0
  5 33  1  0
  6 34  1  0
  6 35  1  0
  7 36  1  0
  8 37  1  0
  8 38  1  0
  9 39  1  0
 11 40  1  0
 11 41  1  0
 12 42  1  0
 13 43  1  0
 15 44  1  0
 15 45  1  0
 16 46  1  0
 17 47  1  0
 17 48  1  0
 20 49  1  0
 22 50  1  0
 23 51  1  0
 24 52  1  0
 26 53  1  0
 27 54  1  0
M  END
