
     RDKit          3D

 45 47  0  0  0  0  0  0  0  0999 V2000
    9.7500   -0.3570   22.7200 C   0  0  0  0  0  0  0  0  0  0  0  0
    9.0240    0.2840   21.5680 C   0  0  0  0  0  0  0  0  0  0  0  0
    9.0930    1.4960   21.3240 O   0  0  0  0  0  0  0  0  0  0  0  0
    8.3130   -0.6130   20.8020 N   0  0  0  0  0  0  0  0  0  0  0  0
    6.8650   -0.6320   20.7280 C   0  0  2  0  0  0  0  0  0  0  0  0
    6.2940   -0.5230   19.3250 C   0  0  2  0  0  0  0  0  0  0  0  0
    6.6080    0.4420   18.2820 N   0  0  0  0  0  0  0  0  0  0  0  0
    5.3830    1.0960   17.8010 C   0  0  0  0  0  0  0  0  0  0  0  0
    4.7550    1.8160   18.8020 C   0  0  0  0  0  0  0  0  0  0  0  0
    4.5710    0.8510   19.9610 C   0  0  2  0  0  0  0  0  0  0  0  0
    3.7350    1.4360   20.9500 C   0  0  0  0  0  0  0  0  0  0  0  0
    4.2720    1.6310   22.3520 C   0  0  0  0  0  0  0  0  0  0  0  0
    3.3920    2.3500   23.1610 N   0  0  0  0  0  0  0  0  0  0  0  0
    2.2160    1.7760   23.8740 C   0  0  0  0  0  0  0  0  0  0  0  0
    2.0820    0.5530   23.9170 O   0  0  0  0  0  0  0  0  0  0  0  0
    1.2520    2.5550   24.5130 C   0  0  0  0  0  0  0  0  0  0  0  0
   -0.0720    2.1030   24.5370 C   0  0  0  0  0  0  0  0  0  0  0  0
   -1.0590    2.8460   25.1640 C   0  0  0  0  0  0  0  0  0  0  0  0
   -0.8800    4.0590   25.8110 C   0  0  0  0  0  0  0  0  0  0  0  0
    0.4260    4.5840   25.8330 C   0  0  0  0  0  0  0  0  0  0  0  0
    1.5320    3.7800   25.1460 C   0  0  0  0  0  0  0  0  0  0  0  0
    2.7800    4.2710   25.1620 F   0  0  0  0  0  0  0  0  0  0  0  0
    5.9590    0.5260   20.4200 C   0  0  1  0  0  0  0  0  0  0  0  0
   10.7100    0.1300   22.9180 H   0  0  0  0  0  0  0  0  0  0  0  0
    9.1350   -0.2740   23.6200 H   0  0  0  0  0  0  0  0  0  0  0  0
    9.9280   -1.4110   22.4860 H   0  0  0  0  0  0  0  0  0  0  0  0
    8.8450   -1.1420   20.1040 H   0  0  0  0  0  0  0  0  0  0  0  0
    6.4460   -1.4910   21.2630 H   0  0  0  0  0  0  0  0  0  0  0  0
    5.5740   -1.3040   19.0630 H   0  0  0  0  0  0  0  0  0  0  0  0
    7.0380   -0.0090   17.4780 H   0  0  0  0  0  0  0  0  0  0  0  0
    4.8070    0.3330   17.2900 H   0  0  0  0  0  0  0  0  0  0  0  0
    5.6810    1.8050   17.0190 H   0  0  0  0  0  0  0  0  0  0  0  0
    5.2220    2.7670   19.0410 H   0  0  0  0  0  0  0  0  0  0  0  0
    3.7540    2.0830   18.4470 H   0  0  0  0  0  0  0  0  0  0  0  0
    4.0850   -0.0580   19.6020 H   0  0  0  0  0  0  0  0  0  0  0  0
    2.7950    0.8730   20.9940 H   0  0  0  0  0  0  0  0  0  0  0  0
    3.3780    2.4170   20.6120 H   0  0  0  0  0  0  0  0  0  0  0  0
    5.2560    2.0840   22.4550 H   0  0  0  0  0  0  0  0  0  0  0  0
    4.3940    0.6450   22.8200 H   0  0  0  0  0  0  0  0  0  0  0  0
    3.5650    3.3450   23.2580 H   0  0  0  0  0  0  0  0  0  0  0  0
   -0.3000    1.1560   24.0510 H   0  0  0  0  0  0  0  0  0  0  0  0
   -2.0780    2.4420   25.1510 H   0  0  0  0  0  0  0  0  0  0  0  0
   -1.7170    4.5690   26.2770 H   0  0  0  0  0  0  0  0  0  0  0  0
    0.7470    5.5230   26.2970 H   0  0  0  0  0  0  0  0  0  0  0  0
    6.5190    1.4620   20.4580 H   0  0  0  0  0  0  0  0  0  0  0  0
  1  2  1  0
  2  3  2  0
  2  4  1  0
  4  5  1  0
  5  6  1  0
  6  7  1  0
  7  8  1  0
  8  9  1  0
  9 10  1  0
 10 11  1  0
 11 12  1  0
 12 13  1  0
 13 14  1  0
 14 15  2  0
 14 16  1  0
 16 17  2  0
 17 18  1  0
 18 19  2  0
 19 20  1  0
 16 21  1  0
 20 21  2  0
 21 22  1  0
  5 23  1  0
  6 23  1  0
 10 23  1  0
  1 24  1  0
  1 25  1  0
  1 26  1  0
  4 27  1  0
  5 28  1  1
  6 29  1  6
  7 30  1  0
  8 31  1  0
  8 32  1  0
  9 33  1  0
  9 34  1  0
 10 35  1  6
 11 36  1  0
 11 37  1  0
 12 38  1  0
 12 39  1  0
 13 40  1  0
 17 41  1  0
 18 42  1  0
 19 43  1  0
 20 44  1  0
 23 45  1  6
M  END
