
     RDKit          3D

 46 48  0  0  0  0  0  0  0  0999 V2000
    5.6780    0.8960   22.2730 C   0  0  0  0  0  0  0  0  0  0  0  0
    5.9790    0.6120   20.8330 C   0  0  0  0  0  0  0  0  0  0  0  0
    5.1320    1.1680   19.8510 C   0  0  0  0  0  0  0  0  0  0  0  0
    5.4430    0.8690   18.3950 C   0  0  0  0  0  0  0  0  0  0  0  0
    6.4820    0.1020   18.0510 N   0  0  0  0  0  0  0  0  0  0  0  0
    7.2590   -0.4070   19.0580 C   0  0  0  0  0  0  0  0  0  0  0  0
    7.0660   -0.1880   20.4150 C   0  0  0  0  0  0  0  0  0  0  0  0
    7.9970   -0.8050   21.2750 N   0  0  0  0  0  0  0  0  0  0  0  0
    8.9810    0.0700   21.7760 C   0  0  0  0  0  0  0  0  0  0  0  0
    9.1450    1.2150   21.3180 O   0  0  0  0  0  0  0  0  0  0  0  0
    9.9850   -0.2530   22.9440 N   0  0  1  0  0  0  0  0  0  0  0  0
    9.3820   -0.3530   24.3370 C   0  0  0  0  0  0  0  0  0  0  0  0
   10.6960   -1.3600   22.5410 C   0  0  0  0  0  0  0  0  0  0  0  0
   12.1790   -1.3500   22.9650 C   0  0  0  0  0  0  0  0  0  0  0  0
   12.9400   -0.2460   22.6300 C   0  0  0  0  0  0  0  0  0  0  0  0
   12.2500    0.9460   22.8370 C   0  0  0  0  0  0  0  0  0  0  0  0
   12.9360    2.1460   22.8660 C   0  0  0  0  0  0  0  0  0  0  0  0
   12.3460    3.3940   23.0800 C   0  0  0  0  0  0  0  0  0  0  0  0
   10.9720    3.5360   23.2990 C   0  0  0  0  0  0  0  0  0  0  0  0
   10.1540    5.1020   23.6010 S   0  0  2  0  0  0  0  0  0  0  0  0
   11.3540    6.2400   23.3170 N   0  0  0  0  0  0  0  0  0  0  0  0
    9.6910    5.2220   24.9640 O   0  0  0  0  0  0  0  0  0  0  0  0
    9.1910    5.2750   22.5570 O   0  0  0  0  0  0  0  0  0  0  0  0
   10.2400    2.2070   23.2420 C   0  0  0  0  0  0  0  0  0  0  0  0
   10.8640    0.9860   23.0120 C   0  0  0  0  0  0  0  0  0  0  0  0
    6.5930    1.0200   22.8600 H   0  0  0  0  0  0  0  0  0  0  0  0
    5.1120    0.0610   22.6910 H   0  0  0  0  0  0  0  0  0  0  0  0
    5.0850    1.8130   22.3410 H   0  0  0  0  0  0  0  0  0  0  0  0
    4.2810    1.7900   20.1070 H   0  0  0  0  0  0  0  0  0  0  0  0
    4.8380    1.2610   17.5800 H   0  0  0  0  0  0  0  0  0  0  0  0
    8.0660   -1.0140   18.6750 H   0  0  0  0  0  0  0  0  0  0  0  0
    7.6260   -1.4950   21.9110 H   0  0  0  0  0  0  0  0  0  0  0  0
    8.3920    0.1170   24.3420 H   0  0  0  0  0  0  0  0  0  0  0  0
    9.2970   -1.4060   24.6090 H   0  0  0  0  0  0  0  0  0  0  0  0
   10.0300    0.1470   25.0570 H   0  0  0  0  0  0  0  0  0  0  0  0
   10.2180   -2.2540   22.9660 H   0  0  0  0  0  0  0  0  0  0  0  0
   10.6570   -1.5160   21.4550 H   0  0  0  0  0  0  0  0  0  0  0  0
   12.6360   -2.1770   22.4090 H   0  0  0  0  0  0  0  0  0  0  0  0
   12.2040   -1.6530   24.0190 H   0  0  0  0  0  0  0  0  0  0  0  0
   13.7990   -0.1310   23.2830 H   0  0  0  0  0  0  0  0  0  0  0  0
   13.4480   -0.3270   21.6700 H   0  0  0  0  0  0  0  0  0  0  0  0
   14.0020    2.1190   22.7120 H   0  0  0  0  0  0  0  0  0  0  0  0
   13.0550    4.2330   23.0690 H   0  0  0  0  0  0  0  0  0  0  0  0
   11.3870    6.6290   22.3760 H   0  0  0  0  0  0  0  0  0  0  0  0
   12.2600    5.8850   23.6310 H   0  0  0  0  0  0  0  0  0  0  0  0
    9.1660    2.3200   23.3970 H   0  0  0  0  0  0  0  0  0  0  0  0
  1  2  1  0
  2  3  2  0
  3  4  1  0
  4  5  2  0
  5  6  1  0
  2  7  1  0
  6  7  2  0
  7  8  1  0
  8  9  1  0
  9 10  2  0
 11  9  1  6
 11 12  1  0
 11 13  1  0
 13 14  1  0
 14 15  1  0
 15 16  1  0
 16 17  2  0
 17 18  1  0
 18 19  2  0
 19 20  1  0
 20 21  1  6
 20 22  2  0
 20 23  2  0
 19 24  1  0
 11 25  1  0
 16 25  1  0
 24 25  2  0
  1 26  1  0
  1 27  1  0
  1 28  1  0
  3 29  1  0
  4 30  1  0
  6 31  1  0
  8 32  1  0
 12 33  1  0
 12 34  1  0
 12 35  1  0
 13 36  1  0
 13 37  1  0
 14 38  1  0
 14 39  1  0
 15 40  1  0
 15 41  1  0
 17 42  1  0
 18 43  1  0
 21 44  1  0
 21 45  1  0
 24 46  1  0
M  CHG  1  11   1
M  END
