LIG
     RDKit          3D

 51 53  0  0  0  0  0  0  0  0999 V2000
   13.6250   -2.3810   24.3190 C   0  0  0  0  0  0  0  0  0  0  0  0
   13.1350   -1.0850   24.5660 O   0  0  0  0  0  0  0  0  0  0  0  0
   13.2215   -0.0670   23.4730 C   0  0  0  0  0  0  0  0  0  0  0  0
   13.5535   -0.7420   22.4325 O   0  0  0  0  0  3  0  0  0  0  0  0
   11.7160   -1.7870   22.5590 C   0  0  0  0  0  0  0  0  0  0  0  0
   11.0750   -1.1430   23.6660 C   0  0  0  0  0  0  0  0  0  0  0  0
    9.6990   -1.5000   24.2460 C   0  0  0  0  0  0  0  0  0  0  0  0
    9.5440   -2.6880   24.5510 N   0  0  0  0  0  0  0  0  0  0  0  0
   10.6550   -3.2590   25.2740 C   0  0  0  0  0  0  0  0  0  0  0  0
   10.4200   -4.6660   25.8330 C   0  0  0  0  0  0  0  0  0  0  0  0
    9.1820   -4.8160   26.5550 C   0  0  0  0  0  0  0  0  0  0  0  0
    9.3040   -4.2150   27.8200 O   0  0  0  0  0  0  0  0  0  0  0  0
    8.0790   -4.2690   25.8080 C   0  0  0  0  0  0  0  0  0  0  0  0
    8.3310   -2.8350   25.3360 C   0  0  0  0  0  0  0  0  0  0  0  0
   12.2365    0.5685   23.8970 C   0  0  0  0  0  0  0  0  0  0  0  0
   13.0360    2.3020   23.0200 C   0  0  0  0  0  0  0  0  0  0  0  0
   12.3650    3.5080   23.0890 C   0  0  0  0  0  0  0  0  0  0  0  0
   11.1470    3.5810   23.7500 C   0  0  0  0  0  0  0  0  0  0  0  0
   10.2820    5.1680   23.8420 S   0  0  0  0  0  6  0  0  0  0  0  0
    8.8600    5.1380   22.8970 N   0  0  0  0  0  0  0  0  0  0  0  0
    9.9940    5.5050   25.2370 O   0  0  0  0  0  0  0  0  0  0  0  0
   11.1550    6.2720   23.4300 O   0  0  0  0  0  0  0  0  0  0  0  0
   10.5980    2.4480   24.3410 C   0  0  0  0  0  0  0  0  0  0  0  0
   11.2750    1.2380   24.2650 C   0  0  0  0  0  0  0  0  0  0  0  0
   12.8031   -3.1076   24.2712 H   0  0  0  0  0  0  0  0  0  0  0  0
   13.3558   -3.0243   25.1651 H   0  0  0  0  0  0  0  0  0  0  0  0
   13.1744   -2.8048   23.4117 H   0  0  0  0  0  0  0  0  0  0  0  0
   11.7907   -2.3981   21.8593 H   0  0  0  0  0  0  0  0  0  0  0  0
    9.6033   -0.7577   25.1083 H   0  0  0  0  0  0  0  0  0  0  0  0
    8.9329   -1.0467   23.5264 H   0  0  0  0  0  0  0  0  0  0  0  0
   10.9185   -2.5866   26.1118 H   0  0  0  0  0  0  0  0  0  0  0  0
   11.5669   -3.2737   24.6497 H   0  0  0  0  0  0  0  0  0  0  0  0
   10.4887   -5.3953   24.9883 H   0  0  0  0  0  0  0  0  0  0  0  0
   11.3015   -4.9096   26.4770 H   0  0  0  0  0  0  0  0  0  0  0  0
    9.0052   -5.9127   26.7600 H   0  0  0  0  0  0  0  0  0  0  0  0
    9.1746   -4.9015   28.5034 H   0  0  0  0  0  0  0  0  0  0  0  0
    7.1411   -4.2554   26.4083 H   0  0  0  0  0  0  0  0  0  0  0  0
    7.8419   -4.8922   24.9159 H   0  0  0  0  0  0  0  0  0  0  0  0
    7.4581   -2.4777   24.7737 H   0  0  0  0  0  0  0  0  0  0  0  0
    8.3918   -2.1754   26.2127 H   0  0  0  0  0  0  0  0  0  0  0  0
   14.0100    2.2208   23.5547 H   0  0  0  0  0  0  0  0  0  0  0  0
   13.2390    1.8310   22.0274 H   0  0  0  0  0  0  0  0  0  0  0  0
   13.1071    4.3021   23.4847 H   0  0  0  0  0  0  0  0  0  0  0  0
   12.2320    3.9401   22.0253 H   0  0  0  0  0  0  0  0  0  0  0  0
   10.4390    3.3049   22.5229 H   0  0  0  0  0  0  0  0  0  0  0  0
    8.1174    5.6158   23.4048 H   0  0  0  0  0  0  0  0  0  0  0  0
    8.1170    4.6967   23.4362 H   0  0  0  0  0  0  0  0  0  0  0  0
   10.3402    2.6709   25.4558 H   0  0  0  0  0  0  0  0  0  0  0  0
    9.5093    2.2871   23.9605 H   0  0  0  0  0  0  0  0  0  0  0  0
   11.0244    0.8414   25.5166 H   0  0  0  0  0  0  0  0  0  0  0  0
   10.2152    0.4648   24.0179 H   0  0  0  0  0  0  0  0  0  0  0  0
  1  2  1  0
  2  3  1  0
  3  4  2  0
  4  5  1  0
  5  6  2  0
  6  7  1  0
  7  8  1  0
  8  9  1  0
  9 10  1  0
 10 11  1  0
 11 12  1  0
 11 13  1  0
 13 14  1  0
  6 15  1  0
 15 16  1  0
 16 17  1  0
 17 18  1  0
 18 19  1  0
 19 20  1  0
 19 21  2  0
 19 22  2  0
 18 23  1  0
 23 24  1  0
 15  3  1  0
 14  8  1  0
 24 15  1  0
  1 25  1  0
  1 26  1  0
  1 27  1  0
  5 28  1  0
  7 29  1  0
  7 30  1  0
  9 31  1  0
  9 32  1  0
 10 33  1  0
 10 34  1  0
 11 35  1  0
 12 36  1  0
 13 37  1  0
 13 38  1  0
 14 39  1  0
 14 40  1  0
 16 41  1  0
 16 42  1  0
 17 43  1  0
 17 44  1  0
 18 45  1  0
 20 46  1  0
 20 47  1  0
 23 48  1  0
 23 49  1  0
 24 50  1  0
 24 51  1  0
M  CHG  1   4   1
M  END
