
     RDKit          3D

 32 33  0  0  0  0  0  0  0  0999 V2000
   11.6000   -2.6700   24.2670 C   0  0  0  0  0  0  0  0  0  0  0  0
   11.9170   -1.2540   23.9780 C   0  0  1  0  0  0  0  0  0  0  0  0
   12.5570   -1.0860   22.7900 C   0  0  0  0  0  0  0  0  0  0  0  0
   13.3080    0.1720   22.8980 C   0  0  0  0  0  0  0  0  0  0  0  0
   12.4310    1.3510   23.1260 C   0  0  0  0  0  0  0  0  0  0  0  0
   12.8940    2.6240   22.8020 C   0  0  0  0  0  0  0  0  0  0  0  0
   11.9860    3.8060   23.0190 C   0  0  0  0  0  0  0  0  0  0  0  0
   10.7200    3.5770   23.5450 C   0  0  0  0  0  0  0  0  0  0  0  0
    9.7210    5.0300   23.7630 S   0  0  1  0  0  0  0  0  0  0  0  0
   10.8700    6.2360   23.5020 N   0  0  0  0  0  0  0  0  0  0  0  0
    8.7690    5.1050   22.6890 O   0  0  0  0  0  0  0  0  0  0  0  0
    9.2790    5.1930   25.1290 O   0  0  0  0  0  0  0  0  0  0  0  0
   10.1990    2.2170   23.9170 C   0  0  0  0  0  0  0  0  0  0  0  0
   11.1590    1.0540   23.6750 C   0  0  0  0  0  0  0  0  0  0  0  0
   10.8070   -0.2910   23.9910 N   0  0  0  0  0  0  0  0  0  0  0  0
    9.8780   -0.3840   25.1240 C   0  0  0  0  0  0  0  0  0  0  0  0
   11.9220   -3.3010   23.4460 H   0  0  0  0  0  0  0  0  0  0  0  0
   12.1350   -2.9840   25.1660 H   0  0  0  0  0  0  0  0  0  0  0  0
   10.5230   -2.7810   24.3970 H   0  0  0  0  0  0  0  0  0  0  0  0
   12.6170   -0.9380   24.7630 H   0  0  0  0  0  0  0  0  0  0  0  0
   11.8640   -1.0590   21.9420 H   0  0  0  0  0  0  0  0  0  0  0  0
   13.2400   -1.9310   22.6350 H   0  0  0  0  0  0  0  0  0  0  0  0
   13.9600    0.3030   22.0520 H   0  0  0  0  0  0  0  0  0  0  0  0
   13.9230    0.0610   23.7560 H   0  0  0  0  0  0  0  0  0  0  0  0
   13.8570    2.8750   22.4030 H   0  0  0  0  0  0  0  0  0  0  0  0
   12.3140    4.8160   22.7730 H   0  0  0  0  0  0  0  0  0  0  0  0
   10.5710    7.0800   23.9880 H   0  0  0  0  0  0  0  0  0  0  0  0
   11.0390    6.4030   22.5110 H   0  0  0  0  0  0  0  0  0  0  0  0
    9.2070    2.0350   24.3360 H   0  0  0  0  0  0  0  0  0  0  0  0
    9.2850    0.5280   25.2200 H   0  0  0  0  0  0  0  0  0  0  0  0
    9.2100   -1.2390   25.0330 H   0  0  0  0  0  0  0  0  0  0  0  0
   10.4300   -0.5380   26.0500 H   0  0  0  0  0  0  0  0  0  0  0  0
  1  2  1  0
  2  3  1  0
  3  4  1  0
  4  5  1  0
  5  6  1  0
  6  7  2  0
  7  8  1  0
  8  9  1  0
  9 10  1  6
  9 11  2  0
  9 12  2  0
  8 13  2  0
  5 14  2  0
 13 14  1  0
  2 15  1  0
 14 15  1  0
 15 16  1  0
  1 17  1  0
  1 18  1  0
  1 19  1  0
  2 20  1  1
  3 21  1  0
  3 22  1  0
  4 23  1  0
  4 24  1  0
  6 25  1  0
  7 26  1  0
 10 27  1  0
 10 28  1  0
 13 29  1  0
 16 30  1  0
 16 31  1  0
 16 32  1  0
M  END
