
     RDKit          3D

 51 53  0  0  0  0  0  0  0  0999 V2000
   13.4910   -2.1670   24.7750 C   0  0  0  0  0  0  0  0  0  0  0  0
   12.9960   -0.8620   25.1010 O   0  0  0  0  0  0  0  0  0  0  0  0
   12.4420   -0.2940   23.9860 C   0  0  0  0  0  0  0  0  0  0  0  0
   12.0970   -0.7500   22.8130 O   0  0  0  0  0  0  0  0  0  0  0  0
   12.0530   -1.9230   22.4690 C   0  0  0  0  0  0  0  0  0  0  0  0
   10.9570   -0.8800   23.1270 C   0  0  0  0  0  0  0  0  0  0  0  0
    9.5610   -1.4440   23.3830 C   0  0  0  0  0  0  0  0  0  0  0  0
    9.4310   -2.6930   24.1990 N   0  0  0  0  0  0  0  0  0  0  0  0
   10.5610   -3.0280   25.0840 C   0  0  0  0  0  0  0  0  0  0  0  0
   10.5010   -4.3970   25.7830 C   0  0  0  0  0  0  0  0  0  0  0  0
    9.1920   -4.7440   26.2030 C   0  0  1  0  0  0  0  0  0  0  0  0
    9.0910   -4.2570   27.5310 O   0  0  0  0  0  0  0  0  0  0  0  0
    7.9890   -4.1520   25.5060 C   0  0  0  0  0  0  0  0  0  0  0  0
    8.2740   -2.7500   24.9600 C   0  0  0  0  0  0  0  0  0  0  0  0
   11.5450    0.7020   23.5130 C   0  0  2  0  0  0  0  0  0  0  0  0
   12.3220    1.5660   22.7710 C   0  0  0  0  0  0  0  0  0  0  0  0
   11.8810    2.9350   22.7170 C   0  0  0  0  0  0  0  0  0  0  0  0
   10.5300    3.2950   22.9510 C   0  0  2  0  0  0  0  0  0  0  0  0
   10.3060    5.0290   23.5290 S   0  0  1  0  0  0  0  0  0  0  0  0
    8.9870    5.5100   22.6180 N   0  0  0  0  0  0  0  0  0  0  0  0
    9.7780    5.1360   24.8630 O   0  0  0  0  0  0  0  0  0  0  0  0
   11.3900    5.8710   23.0840 O   0  0  0  0  0  0  0  0  0  0  0  0
    9.7540    2.3670   23.6830 C   0  0  0  0  0  0  0  0  0  0  0  0
   10.7090    1.3970   24.3150 C   0  0  0  0  0  0  0  0  0  0  0  0
   12.6630   -2.8740   24.8410 H   0  0  0  0  0  0  0  0  0  0  0  0
   14.2550   -2.4860   25.4910 H   0  0  0  0  0  0  0  0  0  0  0  0
   13.9030   -2.1970   23.7640 H   0  0  0  0  0  0  0  0  0  0  0  0
   11.3560   -2.7530   22.4030 H   0  0  0  0  0  0  0  0  0  0  0  0
    8.9910   -0.6330   23.8550 H   0  0  0  0  0  0  0  0  0  0  0  0
    9.1200   -1.5850   22.4020 H   0  0  0  0  0  0  0  0  0  0  0  0
   10.6090   -2.2680   25.8630 H   0  0  0  0  0  0  0  0  0  0  0  0
   11.4760   -2.9680   24.4890 H   0  0  0  0  0  0  0  0  0  0  0  0
   10.7380   -5.1270   25.0180 H   0  0  0  0  0  0  0  0  0  0  0  0
   11.2820   -4.5700   26.5240 H   0  0  0  0  0  0  0  0  0  0  0  0
    9.0700   -5.8170   26.3420 H   0  0  0  0  0  0  0  0  0  0  0  0
    8.4730   -4.8370   28.0120 H   0  0  0  0  0  0  0  0  0  0  0  0
    7.0330   -4.2260   26.0250 H   0  0  0  0  0  0  0  0  0  0  0  0
    7.8250   -4.7470   24.5990 H   0  0  0  0  0  0  0  0  0  0  0  0
    7.4480   -2.4970   24.2820 H   0  0  0  0  0  0  0  0  0  0  0  0
    8.2810   -1.9190   25.6580 H   0  0  0  0  0  0  0  0  0  0  0  0
   13.3130    1.6820   23.2030 H   0  0  0  0  0  0  0  0  0  0  0  0
   12.6020    1.0950   21.8700 H   0  0  0  0  0  0  0  0  0  0  0  0
   12.5040    3.5180   23.3990 H   0  0  0  0  0  0  0  0  0  0  0  0
   12.1420    3.3480   21.7350 H   0  0  0  0  0  0  0  0  0  0  0  0
   10.0730    3.3630   21.9560 H   0  0  0  0  0  0  0  0  0  0  0  0
    8.8010    6.4980   22.8140 H   0  0  0  0  0  0  0  0  0  0  0  0
    9.2340    5.3780   21.6280 H   0  0  0  0  0  0  0  0  0  0  0  0
    9.1950    2.9040   24.4570 H   0  0  0  0  0  0  0  0  0  0  0  0
    9.0390    1.8550   23.0300 H   0  0  0  0  0  0  0  0  0  0  0  0
   11.3750    2.0510   24.7940 H   0  0  0  0  0  0  0  0  0  0  0  0
   10.1990    0.7720   25.0590 H   0  0  0  0  0  0  0  0  0  0  0  0
  1  2  1  0
  2  3  1  0
  3  4  2  0
  4  5  1  0
  5  6  2  0
  6  7  1  0
  7  8  1  0
  8  9  1  0
  9 10  1  0
 10 11  1  0
 11 12  1  0
 11 13  1  0
  8 14  1  0
 13 14  1  0
 15  3  1  1
  6 15  1  0
 15 16  1  0
 16 17  1  0
 17 18  1  0
 18 19  1  0
 19 20  1  6
 19 21  2  0
 19 22  2  0
 18 23  1  0
 15 24  1  0
 23 24  1  0
  1 25  1  0
  1 26  1  0
  1 27  1  0
  5 28  1  0
  7 29  1  0
  7 30  1  0
  9 31  1  0
  9 32  1  0
 10 33  1  0
 10 34  1  0
 11 35  1  1
 12 36  1  0
 13 37  1  0
 13 38  1  0
 14 39  1  0
 14 40  1  0
 16 41  1  0
 16 42  1  0
 17 43  1  0
 17 44  1  0
 18 45  1  6
 20 46  1  0
 20 47  1  0
 23 48  1  0
 23 49  1  0
 24 50  1  0
 24 51  1  0
M  CHG  1   4   1
M  END
