
     RDKit          3D

 23 23  0  0  0  0  0  0  0  0999 V2000
   13.3910   -2.4390   24.3430 C   0  0  0  0  0  0  0  0  0  0  0  0
   12.9040   -1.1260   24.5910 O   0  0  0  0  0  0  0  0  0  0  0  0
   12.8060   -0.3750   23.4370 C   0  0  0  0  0  0  0  0  0  0  0  0
   13.3220   -0.8430   22.2150 O   0  0  0  0  0  0  0  0  0  0  0  0
   12.2060    0.8950   23.4490 C   0  0  0  0  0  0  0  0  0  0  0  0
   10.8180    1.1190   23.9760 C   0  0  0  0  0  0  0  0  0  0  0  0
   10.3460    2.5170   23.9470 C   0  0  0  0  0  0  0  0  0  0  0  0
   10.9970    3.6530   23.5040 C   0  0  0  0  0  0  0  0  0  0  0  0
   10.2890    5.2880   23.5820 S   0  0  2  0  0  0  0  0  0  0  0  0
    8.9500    5.1720   22.5760 N   0  0  0  0  0  0  0  0  0  0  0  0
   11.1940    6.2200   22.9460 O   0  0  0  0  0  0  0  0  0  0  0  0
    9.7860    5.5240   24.9160 O   0  0  0  0  0  0  0  0  0  0  0  0
   12.3930    3.3580   22.9590 C   0  0  0  0  0  0  0  0  0  0  0  0
   12.8850    2.0170   22.9760 C   0  0  0  0  0  0  0  0  0  0  0  0
   12.5370   -3.1210   24.3830 H   0  0  0  0  0  0  0  0  0  0  0  0
   14.1020   -2.7440   25.1160 H   0  0  0  0  0  0  0  0  0  0  0  0
   13.8600   -2.5120   23.3610 H   0  0  0  0  0  0  0  0  0  0  0  0
   10.2150    0.2860   24.3610 H   0  0  0  0  0  0  0  0  0  0  0  0
    9.3360    2.6810   24.3410 H   0  0  0  0  0  0  0  0  0  0  0  0
    9.2120    5.1450   21.5830 H   0  0  0  0  0  0  0  0  0  0  0  0
    8.3170    5.9480   22.7780 H   0  0  0  0  0  0  0  0  0  0  0  0
   12.9420    4.2240   22.5920 H   0  0  0  0  0  0  0  0  0  0  0  0
   13.8860    1.9490   22.5800 H   0  0  0  0  0  0  0  0  0  0  0  0
  1  2  1  0
  2  3  1  0
  3  4  2  0
  3  5  1  0
  5  6  2  0
  6  7  1  0
  7  8  2  0
  8  9  1  0
  9 10  1  6
  9 11  2  0
  9 12  2  0
  8 13  1  0
  5 14  1  0
 13 14  2  0
  1 15  1  0
  1 16  1  0
  1 17  1  0
  6 18  1  0
  7 19  1  0
 10 20  1  0
 10 21  1  0
 13 22  1  0
 14 23  1  0
M  END
