LIG
     RDKit          3D

 50 53  0  0  0  0  0  0  0  0999 V2000
   13.6250   -2.3810   24.3190 C   0  0  0  0  0  0  0  0  0  0  0  0
   13.4320   -1.1780   24.0850 C   0  0  0  0  0  0  0  0  0  0  0  0
   12.7870   -0.5240   23.6215 N   0  0  0  0  0  4  0  0  0  0  0  0
   13.4063   -0.7005   22.0387 O   0  0  0  0  0  1  0  0  0  0  0  0
   11.4670   -1.8380   22.9920 C   0  0  0  0  0  0  0  0  0  0  0  0
   10.0140   -1.4540   23.1290 C   0  0  0  0  0  0  0  0  0  0  0  0
    9.8260   -0.0960   22.6220 N   0  0  0  0  0  0  0  0  0  0  0  0
    9.0660    0.2300   21.5610 C   0  0  0  0  0  0  0  0  0  0  0  0
    8.9960    1.3830   21.1430 O   0  0  0  0  0  0  0  0  0  0  0  0
    8.3080   -0.8880   20.8630 C   0  0  0  0  0  0  0  0  0  0  0  0
    7.4330   -0.3020   19.8060 C   0  0  0  0  0  0  0  0  0  0  0  0
    7.6450   -0.3300   18.4600 C   0  0  0  0  0  0  0  0  0  0  0  0
    6.6410    0.3430   17.8150 N   0  0  0  0  0  0  0  0  0  0  0  0
    5.7600    0.8140   18.7420 C   0  0  0  0  0  0  0  0  0  0  0  0
    4.6510    1.5300   18.5060 N   0  0  0  0  0  0  0  0  0  0  0  0
    3.9600    1.8790   19.5990 C   0  0  0  0  0  0  0  0  0  0  0  0
    4.3240    1.5630   20.9050 C   0  0  0  0  0  0  0  0  0  0  0  0
    5.4760    0.8390   21.1280 C   0  0  0  0  0  0  0  0  0  0  0  0
    6.2270    0.4400   20.0170 C   0  0  0  0  0  0  0  0  0  0  0  0
   10.9645    1.0530   23.8040 C   0  0  0  0  0  0  0  0  0  0  0  0
   10.5980    2.4480   24.3410 C   0  0  0  0  0  0  0  0  0  0  0  0
   11.1470    3.5810   23.7500 C   0  0  0  0  0  0  0  0  0  0  0  0
   10.2820    5.1680   23.8420 S   0  0  0  0  0  6  0  0  0  0  0  0
    8.8600    5.1380   22.8970 N   0  0  0  0  0  0  0  0  0  0  0  0
   11.1550    6.2720   23.4300 O   0  0  0  0  0  0  0  0  0  0  0  0
    9.9940    5.5050   25.2370 O   0  0  0  0  0  0  0  0  0  0  0  0
   12.3650    3.5080   23.0890 C   0  0  0  0  0  0  0  0  0  0  0  0
   13.0360    2.3020   23.0200 C   0  0  0  0  0  0  0  0  0  0  0  0
   12.2990    0.8185   23.4135 C   0  0  0  0  0  0  0  0  0  0  0  0
   13.0433   -2.8633   25.1895 H   0  0  0  0  0  0  0  0  0  0  0  0
   14.6974   -2.7203   24.5737 H   0  0  0  0  0  0  0  0  0  0  0  0
   13.3686   -3.1158   23.4724 H   0  0  0  0  0  0  0  0  0  0  0  0
   14.6371   -0.7865   23.7695 H   0  0  0  0  0  0  0  0  0  0  0  0
   13.6472   -0.6491   25.2454 H   0  0  0  0  0  0  0  0  0  0  0  0
   11.8456   -2.6777   23.5764 H   0  0  0  0  0  0  0  0  0  0  0  0
   11.8766   -1.9022   21.9774 H   0  0  0  0  0  0  0  0  0  0  0  0
    9.7211   -1.4649   24.1585 H   0  0  0  0  0  0  0  0  0  0  0  0
    9.4053   -2.1281   22.5648 H   0  0  0  0  0  0  0  0  0  0  0  0
    7.7105   -1.4143   21.6006 H   0  0  0  0  0  0  0  0  0  0  0  0
    8.9797   -1.5831   20.3744 H   0  0  0  0  0  0  0  0  0  0  0  0
    8.4433   -0.7921   17.8642 H   0  0  0  0  0  0  0  0  0  0  0  0
    6.5375    0.4777   16.8263 H   0  0  0  0  0  0  0  0  0  0  0  0
    3.0592    2.4496   19.4122 H   0  0  0  0  0  0  0  0  0  0  0  0
    3.7013    1.8929   21.7349 H   0  0  0  0  0  0  0  0  0  0  0  0
    5.8016    0.5961   22.1401 H   0  0  0  0  0  0  0  0  0  0  0  0
    9.8931    2.5037   25.1322 H   0  0  0  0  0  0  0  0  0  0  0  0
    8.1556    4.5995   23.3972 H   0  0  0  0  0  0  0  0  0  0  0  0
    8.5232    4.1998   22.7109 H   0  0  0  0  0  0  0  0  0  0  0  0
   12.7936    4.3926   22.6034 H   0  0  0  0  0  0  0  0  0  0  0  0
   14.0467    2.1650   22.7156 H   0  0  0  0  0  0  0  0  0  0  0  0
  1  2  1  0
  2  3  1  0
  3  4  1  0
  3  5  1  0
  5  6  1  0
  6  7  1  0
  7  8  1  0
  8  9  2  0
  8 10  1  0
 10 11  1  0
 11 12  4  0
 12 13  4  0
 13 14  4  0
 14 15  4  0
 15 16  4  0
 16 17  4  0
 17 18  4  0
 18 19  4  0
  7 20  1  0
 20 21  4  0
 21 22  4  0
 22 23  1  0
 23 24  1  0
 23 25  2  0
 23 26  2  0
 22 27  4  0
 27 28  4  0
 28 29  4  0
 29  3  1  0
 19 11  4  0
 29 20  4  0
 19 14  4  0
  1 30  1  0
  1 31  1  0
  1 32  1  0
  2 33  1  0
  2 34  1  0
  5 35  1  0
  5 36  1  0
  6 37  1  0
  6 38  1  0
 10 39  1  0
 10 40  1  0
 12 41  1  0
 13 42  1  0
 16 43  1  0
 17 44  1  0
 18 45  1  0
 21 46  1  0
 24 47  1  0
 24 48  1  0
 27 49  1  0
 28 50  1  0
M  CHG  2   3   1   4  -1
M  END
