
     RDKit          3D

 48 50  0  0  0  0  0  0  0  0999 V2000
   25.4420  -20.1730   19.2810 C   0  0  0  0  0  0  0  0  0  0  0  0
   24.5130  -20.7800   20.1580 O   0  0  0  0  0  0  0  0  0  0  0  0
   23.8810  -21.8380   19.5660 C   0  0  0  0  0  0  0  0  0  0  0  0
   24.3680  -22.2300   18.3040 O   0  0  0  0  0  0  0  0  0  0  0  0
   22.8420  -22.4410   20.2200 N   0  0  0  0  0  0  0  0  0  0  0  0
   22.5300  -22.3160   21.6660 C   0  0  0  0  0  0  0  0  0  0  0  0
   21.5110  -22.8770   22.0750 O   0  0  0  0  0  0  0  0  0  0  0  0
   23.2720  -21.5370   22.5650 N   0  0  0  0  0  0  0  0  0  0  0  0
   22.7190  -21.2960   23.9170 C   0  0  0  0  0  0  0  0  0  0  0  0
   22.6390  -19.8270   24.2040 C   0  0  0  0  0  0  0  0  0  0  0  0
   23.8270  -19.0350   23.9060 N   0  0  0  0  0  0  0  0  0  0  0  0
   23.5080  -17.6120   24.1500 C   0  0  0  0  0  0  0  0  0  0  0  0
   24.3080  -19.4450   22.6090 C   0  0  0  0  0  0  0  0  0  0  0  0
   24.4540  -20.8430   22.3550 C   0  0  0  0  0  0  0  0  0  0  0  0
   22.3040  -23.4820   19.3960 C   0  0  0  0  0  0  0  0  0  0  0  0
   22.2800  -25.0540   20.0870 S   0  0  0  0  0  0  0  0  0  0  0  0
   21.5720  -25.6960   18.6930 C   0  0  0  0  0  0  0  0  0  0  0  0
   21.2220  -27.0320   18.5240 C   0  0  0  0  0  0  0  0  0  0  0  0
   21.3570  -24.7880   17.7250 N   0  0  0  0  0  0  0  0  0  0  0  0
   21.7410  -23.5550   18.0870 C   0  0  0  0  0  0  0  0  0  0  0  0
   21.5130  -22.5590   17.1300 C   0  0  0  0  0  0  0  0  0  0  0  0
   21.9480  -22.7430   15.7930 C   0  0  0  0  0  0  0  0  0  0  0  0
   21.7180  -21.7900   14.7710 C   0  0  0  0  0  0  0  0  0  0  0  0
   20.9810  -20.5450   15.1720 C   0  0  0  0  0  0  0  0  0  0  0  0
   20.5760  -20.3840   16.4610 C   0  0  0  0  0  0  0  0  0  0  0  0
   20.8270  -21.3560   17.4240 C   0  0  0  0  0  0  0  0  0  0  0  0
   26.3460  -20.7880   19.2660 H   0  0  0  0  0  0  0  0  0  0  0  0
   25.0480  -20.1210   18.2630 H   0  0  0  0  0  0  0  0  0  0  0  0
   25.7040  -19.1670   19.6240 H   0  0  0  0  0  0  0  0  0  0  0  0
   21.7230  -21.7460   23.9870 H   0  0  0  0  0  0  0  0  0  0  0  0
   23.3120  -21.7790   24.6860 H   0  0  0  0  0  0  0  0  0  0  0  0
   22.2700  -19.7590   25.2200 H   0  0  0  0  0  0  0  0  0  0  0  0
   21.8770  -19.3130   23.6610 H   0  0  0  0  0  0  0  0  0  0  0  0
   22.6560  -17.5280   24.8330 H   0  0  0  0  0  0  0  0  0  0  0  0
   24.3580  -17.1010   24.5860 H   0  0  0  0  0  0  0  0  0  0  0  0
   23.2570  -17.0920   23.2280 H   0  0  0  0  0  0  0  0  0  0  0  0
   25.2030  -18.8520   22.4080 H   0  0  0  0  0  0  0  0  0  0  0  0
   23.5520  -19.1180   21.8960 H   0  0  0  0  0  0  0  0  0  0  0  0
   25.1730  -21.3290   23.0240 H   0  0  0  0  0  0  0  0  0  0  0  0
   24.8150  -21.0930   21.3550 H   0  0  0  0  0  0  0  0  0  0  0  0
   21.7790  -27.7140   19.1710 H   0  0  0  0  0  0  0  0  0  0  0  0
   20.1890  -27.2860   18.7800 H   0  0  0  0  0  0  0  0  0  0  0  0
   21.3740  -27.4180   17.5160 H   0  0  0  0  0  0  0  0  0  0  0  0
   22.4700  -23.6920   15.6250 H   0  0  0  0  0  0  0  0  0  0  0  0
   22.0640  -21.9640   13.7440 H   0  0  0  0  0  0  0  0  0  0  0  0
   20.7700  -19.7690   14.4280 H   0  0  0  0  0  0  0  0  0  0  0  0
   20.0490  -19.4500   16.6670 H   0  0  0  0  0  0  0  0  0  0  0  0
   20.4850  -21.1910   18.4280 H   0  0  0  0  0  0  0  0  0  0  0  0
  1  2  1  0
  2  3  1  0
  3  4  2  0
  3  5  1  0
  5  6  1  0
  6  7  2  0
  6  8  1  0
  8  9  1  0
  9 10  1  0
 10 11  1  0
 11 12  1  0
 11 13  1  0
  8 14  1  0
 13 14  1  0
  5 15  1  0
 15 16  1  0
 16 17  1  0
 17 18  1  0
 17 19  2  0
 15 20  2  0
 19 20  1  0
 20 21  1  0
 21 22  2  0
 22 23  1  0
 23 24  2  0
 24 25  1  0
 21 26  1  0
 25 26  2  0
  1 27  1  0
  1 28  1  0
  1 29  1  0
  9 30  1  0
  9 31  1  0
 10 32  1  0
 10 33  1  0
 12 34  1  0
 12 35  1  0
 12 36  1  0
 13 37  1  0
 13 38  1  0
 14 39  1  0
 14 40  1  0
 18 41  1  0
 18 42  1  0
 18 43  1  0
 22 44  1  0
 23 45  1  0
 24 46  1  0
 25 47  1  0
 26 48  1  0
M  END
