LIG
     RDKit          3D

 41 44  0  0  0  0  0  0  0  0999 V2000
   23.7440  -16.4960   26.0400 N   0  0  0  0  0  0  0  0  0  0  0  0
   24.5410  -17.6230   25.5720 C   0  0  0  0  0  0  0  0  0  0  0  0
   25.6280  -17.7580   26.0160 O   0  0  0  0  0  0  0  0  0  0  0  0
   23.5450  -18.0500   24.4430 C   0  0  0  0  0  0  0  0  0  0  0  0
   24.2845  -18.8065   23.0450 C   0  0  0  0  0  0  0  0  0  0  0  0
   24.1855  -20.1650   22.5020 C   0  0  0  0  0  0  0  0  0  0  0  0
   22.8735  -20.8150   22.6265 N   0  0  0  0  0  4  0  0  0  0  0  0
   22.3085  -21.8110   21.7290 C   0  0  0  0  0  0  0  0  0  0  0  0
   21.2395  -22.2635   21.9525 O   0  0  0  0  0  0  0  0  0  0  0  0
   23.0105  -22.2445   20.5595 N   0  0  0  0  0  0  0  0  0  0  0  0
   22.5140  -23.2840   20.0050 C   0  0  0  0  0  0  0  0  0  0  0  0
   22.1444  -24.3263   20.8515 C   0  0  0  0  0  0  0  0  0  0  0  0
   21.5644  -25.6202   20.2644 C   0  0  0  0  0  0  0  0  0  0  0  0
   21.9270  -25.7895   18.8105 C   0  0  0  0  0  0  0  0  0  0  0  0
   22.2550  -22.7050   18.0200 C   0  0  0  0  0  0  0  0  0  0  0  0
   21.7640  -23.5450   17.0280 C   0  0  0  0  0  0  0  0  0  0  0  0
   21.6345  -24.4855   17.5990 C   0  0  0  0  0  0  0  0  0  0  0  0
   22.4000  -23.1410   18.9815 C   0  0  0  0  0  0  0  0  0  0  0  0
   22.0860  -20.8710   23.8350 C   0  0  0  0  0  0  0  0  0  0  0  0
   22.0690  -19.6380   23.9610 C   0  0  0  0  0  0  0  0  0  0  0  0
   22.8905  -18.5950   24.1300 C   0  0  0  0  0  0  0  0  0  0  0  0
   24.1044  -15.5792   26.0355 H   0  0  0  0  0  0  0  0  0  0  0  0
   23.0116  -16.7517   26.6630 H   0  0  0  0  0  0  0  0  0  0  0  0
   23.9891  -19.5634   24.9306 H   0  0  0  0  0  0  0  0  0  0  0  0
   24.0537  -18.0113   22.2069 H   0  0  0  0  0  0  0  0  0  0  0  0
   25.4131  -18.5046   23.1881 H   0  0  0  0  0  0  0  0  0  0  0  0
   24.5029  -20.2225   21.4001 H   0  0  0  0  0  0  0  0  0  0  0  0
   24.9597  -20.8684   22.9763 H   0  0  0  0  0  0  0  0  0  0  0  0
   23.7877  -21.8065   20.2892 H   0  0  0  0  0  0  0  0  0  0  0  0
   22.2296  -24.3354   21.9352 H   0  0  0  0  0  0  0  0  0  0  0  0
   20.4790  -25.6486   20.4023 H   0  0  0  0  0  0  0  0  0  0  0  0
   21.9970  -26.4598   20.8214 H   0  0  0  0  0  0  0  0  0  0  0  0
   22.0421  -26.7803   18.3858 H   0  0  0  0  0  0  0  0  0  0  0  0
   21.4202  -23.1574   15.9269 H   0  0  0  0  0  0  0  0  0  0  0  0
   21.6169  -25.4376   17.9329 H   0  0  0  0  0  0  0  0  0  0  0  0
   23.7174  -23.7865   18.6011 H   0  0  0  0  0  0  0  0  0  0  0  0
   21.0366  -21.5087   23.7748 H   0  0  0  0  0  0  0  0  0  0  0  0
   22.5932  -21.6190   24.6700 H   0  0  0  0  0  0  0  0  0  0  0  0
   22.9271  -20.1153   25.1129 H   0  0  0  0  0  0  0  0  0  0  0  0
   22.9007  -18.3135   22.6931 H   0  0  0  0  0  0  0  0  0  0  0  0
   21.8059  -17.6856   23.8928 H   0  0  0  0  0  0  0  0  0  0  0  0
  1  2  1  0
  2  3  2  0
  2  4  1  0
  4  5  1  0
  5  6  1  0
  6  7  1  0
  7  8  1  0
  8  9  2  0
  8 10  1  0
 10 11  1  0
 11 12  2  0
 12 13  1  0
 13 14  1  0
 14 15  2  0
 15 16  1  0
 16 17  2  0
 17 18  1  0
  7 19  1  0
 19 20  1  0
 20 21  1  0
 21  4  1  0
 20  7  1  0
 18 11  1  0
 18 15  1  0
  1 22  1  0
  1 23  1  0
  4 24  1  0
  5 25  1  0
  5 26  1  0
  6 27  1  0
  6 28  1  0
 10 29  1  0
 12 30  1  0
 13 31  1  0
 13 32  1  0
 14 33  1  0
 16 34  1  0
 17 35  1  0
 18 36  1  0
 19 37  1  0
 19 38  1  0
 20 39  1  0
 21 40  1  0
 21 41  1  0
M  CHG  1   7   1
M  END
