
     RDKit          3D

 54 57  0  0  0  0  0  0  0  0999 V2000
    5.5040    3.6180   31.0830 C   0  0  0  0  0  0  0  0  0  0  0  0
    5.8120    2.4710   30.1640 C   0  0  0  0  0  0  0  0  0  0  0  0
    7.0870    1.8990   30.2090 C   0  0  0  0  0  0  0  0  0  0  0  0
    7.4780    0.7250   29.2920 C   0  0  0  0  0  0  0  0  0  0  0  0
    6.5220    0.1650   28.3170 C   0  0  0  0  0  0  0  0  0  0  0  0
    6.9860   -0.8570   27.5350 O   0  0  0  0  0  0  0  0  0  0  0  0
    7.8700   -0.4620   26.4820 C   0  0  0  0  0  0  0  0  0  0  0  0
    8.0440   -1.5710   25.4450 C   0  0  0  0  0  0  0  0  0  0  0  0
    7.2130   -2.4700   25.3470 O   0  0  0  0  0  0  0  0  0  0  0  0
    9.1760   -1.5330   24.6410 N   0  0  0  0  0  0  0  0  0  0  0  0
   10.1100   -2.6450   24.3960 C   0  0  0  0  0  0  0  0  0  0  0  0
   10.8160   -2.4020   23.0960 C   0  0  0  0  0  0  0  0  0  0  0  0
   11.3360   -1.0390   22.9110 N   0  0  0  0  0  0  0  0  0  0  0  0
   12.6930   -1.0850   22.5490 C   0  0  0  0  0  0  0  0  0  0  0  0
   13.3530    0.0370   23.0350 C   0  0  0  0  0  0  0  0  0  0  0  0
   12.6340    1.2110   23.1690 C   0  0  0  0  0  0  0  0  0  0  0  0
   13.0490    2.4780   22.7880 C   0  0  0  0  0  0  0  0  0  0  0  0
   12.3300    3.6480   22.8950 C   0  0  0  0  0  0  0  0  0  0  0  0
   11.0550    3.6300   23.4400 C   0  0  0  0  0  0  0  0  0  0  0  0
   10.0750    5.1030   23.6150 S   0  0  1  0  0  0  0  0  0  0  0  0
   11.1460    6.2770   23.0830 N   0  0  0  0  0  0  0  0  0  0  0  0
    8.9960    5.0380   22.6690 O   0  0  0  0  0  0  0  0  0  0  0  0
    9.8370    5.4090   25.0020 O   0  0  0  0  0  0  0  0  0  0  0  0
   10.6410    2.2270   23.8690 C   0  0  0  0  0  0  0  0  0  0  0  0
   11.4280    1.0990   23.7310 C   0  0  0  0  0  0  0  0  0  0  0  0
   11.1430   -0.1690   24.1170 C   0  0  1  0  0  0  0  0  0  0  0  0
    9.8990   -0.2290   24.6940 C   0  0  0  0  0  0  0  0  0  0  0  0
    5.1550    0.8140   28.3200 C   0  0  0  0  0  0  0  0  0  0  0  0
    4.8520    1.9830   29.2830 C   0  0  0  0  0  0  0  0  0  0  0  0
    4.4660    3.9490   30.9790 H   0  0  0  0  0  0  0  0  0  0  0  0
    5.6570    3.2970   32.1170 H   0  0  0  0  0  0  0  0  0  0  0  0
    6.1680    4.4550   30.8530 H   0  0  0  0  0  0  0  0  0  0  0  0
    7.8340    2.2780   30.8990 H   0  0  0  0  0  0  0  0  0  0  0  0
    8.4490    0.2360   29.2800 H   0  0  0  0  0  0  0  0  0  0  0  0
    7.5240    0.4510   25.9790 H   0  0  0  0  0  0  0  0  0  0  0  0
    8.8560   -0.2260   26.8980 H   0  0  0  0  0  0  0  0  0  0  0  0
   10.8990   -2.6610   25.1530 H   0  0  0  0  0  0  0  0  0  0  0  0
    9.5210   -3.5550   24.4890 H   0  0  0  0  0  0  0  0  0  0  0  0
   11.6750   -3.0750   23.0430 H   0  0  0  0  0  0  0  0  0  0  0  0
   10.1510   -2.6680   22.2650 H   0  0  0  0  0  0  0  0  0  0  0  0
   13.1040   -2.0340   22.8850 H   0  0  0  0  0  0  0  0  0  0  0  0
   12.8230   -1.0940   21.4680 H   0  0  0  0  0  0  0  0  0  0  0  0
   14.1480    0.2840   22.3520 H   0  0  0  0  0  0  0  0  0  0  0  0
   13.7670   -0.1410   24.0090 H   0  0  0  0  0  0  0  0  0  0  0  0
   14.0150    2.6630   22.3640 H   0  0  0  0  0  0  0  0  0  0  0  0
   12.8620    4.5280   22.5220 H   0  0  0  0  0  0  0  0  0  0  0  0
   11.0590    6.4690   22.0850 H   0  0  0  0  0  0  0  0  0  0  0  0
   12.0960    5.9970   23.3360 H   0  0  0  0  0  0  0  0  0  0  0  0
    9.6530    2.1110   24.3260 H   0  0  0  0  0  0  0  0  0  0  0  0
   11.9190   -0.5830   24.7630 H   0  0  0  0  0  0  0  0  0  0  0  0
    9.2620    0.5490   24.2670 H   0  0  0  0  0  0  0  0  0  0  0  0
    9.9860    0.0240   25.7580 H   0  0  0  0  0  0  0  0  0  0  0  0
    4.3630    0.4880   27.6560 H   0  0  0  0  0  0  0  0  0  0  0  0
    3.8630    2.4360   29.2630 H   0  0  0  0  0  0  0  0  0  0  0  0
  1  2  1  0
  2  3  2  0
  3  4  1  0
  4  5  2  0
  5  6  1  0
  6  7  1  0
  7  8  1  0
  8  9  2  0
  8 10  1  0
 10 11  1  0
 11 12  1  0
 12 13  1  0
 13 14  1  0
 14 15  1  0
 15 16  1  0
 16 17  2  0
 17 18  1  0
 18 19  2  0
 19 20  1  0
 20 21  1  6
 20 22  2  0
 20 23  2  0
 19 24  1  0
 16 25  1  0
 24 25  2  0
 13 26  1  0
 25 26  1  0
 10 27  1  0
 26 27  1  0
  5 28  1  0
  2 29  1  0
 28 29  2  0
  1 30  1  0
  1 31  1  0
  1 32  1  0
  3 33  1  0
  4 34  1  0
  7 35  1  0
  7 36  1  0
 11 37  1  0
 11 38  1  0
 12 39  1  0
 12 40  1  0
 14 41  1  0
 14 42  1  0
 15 43  1  0
 15 44  1  0
 17 45  1  0
 18 46  1  0
 21 47  1  0
 21 48  1  0
 24 49  1  0
 26 50  1  1
 27 51  1  0
 27 52  1  0
 28 53  1  0
 29 54  1  0
M  END
