
     RDKit          3D

 44 46  0  0  0  0  0  0  0  0999 V2000
   13.6700   -1.5940   21.3930 N   0  0  0  0  0  0  0  0  0  0  0  0
   13.0480   -1.1470   22.2340 C   0  0  0  0  0  0  0  0  0  0  0  0
   11.9840   -0.5680   23.0620 C   0  0  0  0  0  0  0  0  0  0  0  0
   11.0610   -1.5530   23.6340 C   0  0  0  0  0  0  0  0  0  0  0  0
    9.7870   -1.2450   24.5090 C   0  0  0  0  0  0  0  0  0  0  0  0
   10.3840   -0.0190   24.1280 C   0  0  0  0  0  0  0  0  0  0  0  0
    9.4920    0.7970   24.7540 C   0  0  0  0  0  0  0  0  0  0  0  0
    8.2720    0.2890   24.5790 N   0  0  0  0  0  0  0  0  0  0  0  0
    7.5090    1.2210   23.9550 C   0  0  0  0  0  0  0  0  0  0  0  0
    7.8960    2.2520   23.4180 O   0  0  0  0  0  0  0  0  0  0  0  0
    6.0500    0.9900   23.9130 N   0  0  0  0  0  0  0  0  0  0  0  0
    5.3510    1.4750   22.6870 C   0  0  0  0  0  0  0  0  0  0  0  0
    3.9450    1.9700   22.8550 C   0  0  0  0  0  0  0  0  0  0  0  0
    3.2500    1.5470   23.7920 O   0  0  0  0  0  0  0  0  0  0  0  0
    3.9530    0.7390   24.7670 C   0  0  0  0  0  0  0  0  0  0  0  0
    5.2500    1.0640   25.0800 C   0  0  0  0  0  0  0  0  0  0  0  0
   10.8440    1.2220   23.8370 C   0  0  0  0  0  0  0  0  0  0  0  0
   10.4370    2.5240   24.0580 C   0  0  0  0  0  0  0  0  0  0  0  0
   11.2170    3.5710   23.5630 C   0  0  0  0  0  0  0  0  0  0  0  0
   10.5800    5.2620   23.8110 S   0  0  1  0  0  0  0  0  0  0  0  0
   11.7550    6.2480   23.1590 N   0  0  0  0  0  0  0  0  0  0  0  0
    9.4220    5.4030   22.9590 O   0  0  0  0  0  0  0  0  0  0  0  0
   10.5110    5.6760   25.1820 O   0  0  0  0  0  0  0  0  0  0  0  0
   12.4350    3.3290   22.8940 C   0  0  0  0  0  0  0  0  0  0  0  0
   12.7390    1.8380   22.7480 C   0  0  0  0  0  0  0  0  0  0  0  0
   11.9150    0.8720   23.1900 C   0  0  0  0  0  0  0  0  0  0  0  0
   11.2670   -2.6070   23.4390 H   0  0  0  0  0  0  0  0  0  0  0  0
    9.7040   -2.3280   24.5400 H   0  0  0  0  0  0  0  0  0  0  0  0
    9.6850    0.8310   25.8320 H   0  0  0  0  0  0  0  0  0  0  0  0
    9.5390    1.8280   24.3970 H   0  0  0  0  0  0  0  0  0  0  0  0
    7.8350   -0.1040   25.4030 H   0  0  0  0  0  0  0  0  0  0  0  0
    5.2920    0.6280   21.9920 H   0  0  0  0  0  0  0  0  0  0  0  0
    6.0710    2.1540   22.2360 H   0  0  0  0  0  0  0  0  0  0  0  0
    3.9620    3.0670   22.9430 H   0  0  0  0  0  0  0  0  0  0  0  0
    3.4060    1.7910   21.9130 H   0  0  0  0  0  0  0  0  0  0  0  0
    3.8970   -0.2930   24.4160 H   0  0  0  0  0  0  0  0  0  0  0  0
    3.3830    0.7910   25.6970 H   0  0  0  0  0  0  0  0  0  0  0  0
    5.6430    0.3480   25.8120 H   0  0  0  0  0  0  0  0  0  0  0  0
    5.3510    2.0490   25.5360 H   0  0  0  0  0  0  0  0  0  0  0  0
    9.5120    2.7190   24.5940 H   0  0  0  0  0  0  0  0  0  0  0  0
   11.5700    7.2000   23.4700 H   0  0  0  0  0  0  0  0  0  0  0  0
   12.6640    5.8990   23.4660 H   0  0  0  0  0  0  0  0  0  0  0  0
   13.0270    4.1820   22.5490 H   0  0  0  0  0  0  0  0  0  0  0  0
   13.6330    1.5770   22.2740 H   0  0  0  0  0  0  0  0  0  0  0  0
  1  2  3  0
  2  3  1  0
  3  4  2  0
  4  5  1  0
  5  6  2  0
  6  7  1  0
  7  8  1  0
  8  9  1  0
  9 10  2  0
  9 11  1  0
 11 12  1  0
 12 13  1  0
 13 14  1  0
 14 15  1  0
 11 16  1  0
 15 16  1  0
  6 17  1  0
 17 18  1  0
 18 19  2  0
 19 20  1  0
 20 21  1  6
 20 22  2  0
 20 23  2  0
 19 24  1  0
 24 25  2  0
  3 26  1  0
 17 26  2  0
 25 26  1  0
  4 27  1  0
  5 28  1  0
  7 29  1  0
  7 30  1  0
  8 31  1  0
 12 32  1  0
 12 33  1  0
 13 34  1  0
 13 35  1  0
 15 36  1  0
 15 37  1  0
 16 38  1  0
 16 39  1  0
 18 40  1  0
 21 41  1  0
 21 42  1  0
 24 43  1  0
 25 44  1  0
M  END
