
     RDKit          3D

 46 48  0  0  0  0  0  0  0  0999 V2000
    5.7070    0.9040   22.2840 C   0  0  0  0  0  0  0  0  0  0  0  0
    5.9990    0.6130   20.8430 C   0  0  0  0  0  0  0  0  0  0  0  0
    5.1530    1.1710   19.8610 C   0  0  0  0  0  0  0  0  0  0  0  0
    5.4540    0.8670   18.4030 C   0  0  0  0  0  0  0  0  0  0  0  0
    6.4880    0.0920   18.0610 N   0  0  0  0  0  0  0  0  0  0  0  0
    7.2650   -0.4180   19.0680 C   0  0  0  0  0  0  0  0  0  0  0  0
    7.0820   -0.1940   20.4280 C   0  0  0  0  0  0  0  0  0  0  0  0
    8.0140   -0.8130   21.2850 N   0  0  0  0  0  0  0  0  0  0  0  0
    8.9970    0.0600   21.7960 C   0  0  0  0  0  0  0  0  0  0  0  0
    9.1750    1.2010   21.3290 O   0  0  0  0  0  0  0  0  0  0  0  0
    9.9730   -0.2430   22.9980 N   0  0  1  0  0  0  0  0  0  0  0  0
    9.3210   -0.2520   24.3690 C   0  0  0  0  0  0  0  0  0  0  0  0
   10.6370   -1.4190   22.7000 C   0  0  0  0  0  0  0  0  0  0  0  0
   12.1490   -1.3510   22.3550 C   0  0  0  0  0  0  0  0  0  0  0  0
   12.9320   -0.2450   22.6580 C   0  0  0  0  0  0  0  0  0  0  0  0
   12.2370    0.9440   22.8600 C   0  0  0  0  0  0  0  0  0  0  0  0
   12.9170    2.1480   22.8760 C   0  0  0  0  0  0  0  0  0  0  0  0
   12.3290    3.4000   23.0850 C   0  0  0  0  0  0  0  0  0  0  0  0
   10.9510    3.5310   23.3140 C   0  0  0  0  0  0  0  0  0  0  0  0
   10.1160    5.0880   23.6130 S   0  0  2  0  0  0  0  0  0  0  0  0
   11.3040    6.2410   23.3420 N   0  0  0  0  0  0  0  0  0  0  0  0
    9.6310    5.1870   24.9750 O   0  0  0  0  0  0  0  0  0  0  0  0
    9.1630    5.2580   22.5580 O   0  0  0  0  0  0  0  0  0  0  0  0
   10.2330    2.1980   23.2700 C   0  0  0  0  0  0  0  0  0  0  0  0
   10.8580    0.9790   23.0430 C   0  0  0  0  0  0  0  0  0  0  0  0
    4.6400    1.0800   22.4470 H   0  0  0  0  0  0  0  0  0  0  0  0
    6.0070    0.0440   22.8890 H   0  0  0  0  0  0  0  0  0  0  0  0
    6.2660    1.7900   22.5920 H   0  0  0  0  0  0  0  0  0  0  0  0
    4.3060    1.8030   20.1200 H   0  0  0  0  0  0  0  0  0  0  0  0
    4.8520    1.2620   17.5900 H   0  0  0  0  0  0  0  0  0  0  0  0
    8.0680   -1.0350   18.6850 H   0  0  0  0  0  0  0  0  0  0  0  0
    7.6460   -1.5150   21.9120 H   0  0  0  0  0  0  0  0  0  0  0  0
    9.4100   -1.2520   24.8060 H   0  0  0  0  0  0  0  0  0  0  0  0
    8.2710    0.0130   24.2590 H   0  0  0  0  0  0  0  0  0  0  0  0
    9.8100    0.4740   25.0160 H   0  0  0  0  0  0  0  0  0  0  0  0
   10.5190   -2.0940   23.5540 H   0  0  0  0  0  0  0  0  0  0  0  0
   10.1540   -1.9560   21.8690 H   0  0  0  0  0  0  0  0  0  0  0  0
   12.5890   -2.1460   22.9660 H   0  0  0  0  0  0  0  0  0  0  0  0
   12.2290   -1.7160   21.3250 H   0  0  0  0  0  0  0  0  0  0  0  0
   13.4640   -0.3660   23.6040 H   0  0  0  0  0  0  0  0  0  0  0  0
   13.7780   -0.1330   21.9890 H   0  0  0  0  0  0  0  0  0  0  0  0
   13.9870    2.1260   22.7130 H   0  0  0  0  0  0  0  0  0  0  0  0
   13.0320    4.2410   23.0610 H   0  0  0  0  0  0  0  0  0  0  0  0
   11.3760    6.9900   24.0270 H   0  0  0  0  0  0  0  0  0  0  0  0
   11.2450    6.5820   22.3810 H   0  0  0  0  0  0  0  0  0  0  0  0
    9.1590    2.3050   23.4320 H   0  0  0  0  0  0  0  0  0  0  0  0
  1  2  1  0
  2  3  2  0
  3  4  1  0
  4  5  2  0
  5  6  1  0
  2  7  1  0
  6  7  2  0
  7  8  1  0
  8  9  1  0
  9 10  2  0
 11  9  1  6
 11 12  1  0
 11 13  1  0
 13 14  1  0
 14 15  1  0
 15 16  1  0
 16 17  2  0
 17 18  1  0
 18 19  2  0
 19 20  1  0
 20 21  1  6
 20 22  2  0
 20 23  2  0
 19 24  1  0
 11 25  1  0
 16 25  1  0
 24 25  2  0
  1 26  1  0
  1 27  1  0
  1 28  1  0
  3 29  1  0
  4 30  1  0
  6 31  1  0
  8 32  1  0
 12 33  1  0
 12 34  1  0
 12 35  1  0
 13 36  1  0
 13 37  1  0
 14 38  1  0
 14 39  1  0
 15 40  1  0
 15 41  1  0
 17 42  1  0
 18 43  1  0
 21 44  1  0
 21 45  1  0
 24 46  1  0
M  CHG  1  11   1
M  END
