LIG
     RDKit          3D

 41 44  0  0  0  0  0  0  0  0999 V2000
    9.3350   -5.3670   26.2750 C   0  0  0  0  0  0  0  0  0  0  0  0
    9.0910   -3.9920   25.6370 C   0  0  0  0  0  0  0  0  0  0  0  0
    8.5200   -2.9160   26.2860 N   0  0  0  0  0  0  0  0  0  0  0  0
    8.4300   -1.7410   25.3910 N   0  0  0  0  0  0  0  0  0  0  0  0
    8.9500   -2.0240   24.1390 C   0  0  0  0  0  0  0  0  0  0  0  0
    9.0150   -1.0220   22.9690 C   0  0  0  0  0  0  0  0  0  0  0  0
   10.1350   -0.4490   22.8500 N   0  0  0  0  0  0  0  0  0  0  0  0
   11.4905   -1.4915   23.0360 C   0  0  0  0  0  0  0  0  0  0  0  0
   12.6075   -1.1090   22.3370 C   0  0  0  0  0  0  0  0  0  0  0  0
   13.5775   -0.8910   22.1835 C   0  0  0  0  0  0  0  0  0  0  0  0
   12.8525    0.7705   22.9630 C   0  0  0  0  0  0  0  0  0  0  0  0
   13.4330    2.2640   22.6290 C   0  0  0  0  0  0  0  0  0  0  0  0
   12.7210    3.4490   22.8300 C   0  0  0  0  0  0  0  0  0  0  0  0
   11.4520    3.3830   23.4380 C   0  0  0  0  0  0  0  0  0  0  0  0
   10.4990    4.8830   23.7330 S   0  0  0  0  0  6  0  0  0  0  0  0
   11.4660    6.2570   23.4610 N   0  0  0  0  0  0  0  0  0  0  0  0
    9.2550    4.9160   22.9600 O   0  0  0  0  0  0  0  0  0  0  0  0
    9.9890    4.8060   25.0960 O   0  0  0  0  0  0  0  0  0  0  0  0
   10.9030    2.1690   23.8360 C   0  0  0  0  0  0  0  0  0  0  0  0
   11.7065    1.1170   23.4935 C   0  0  0  0  0  0  0  0  0  0  0  0
   10.7700    0.0120   23.9095 N   0  0  0  0  0  4  0  0  0  0  0  0
    9.9150   -0.3810   24.9080 C   0  0  0  0  0  0  0  0  0  0  0  0
    9.4770   -3.5790   24.0930 S   0  0  0  0  0  0  0  0  0  0  0  0
   10.0006   -5.9408   25.6362 H   0  0  0  0  0  0  0  0  0  0  0  0
   10.3959   -5.4789   26.4810 H   0  0  0  0  0  0  0  0  0  0  0  0
    9.7727   -5.2558   27.2626 H   0  0  0  0  0  0  0  0  0  0  0  0
    8.6110   -1.6500   22.0989 H   0  0  0  0  0  0  0  0  0  0  0  0
    8.1524   -0.2989   23.1246 H   0  0  0  0  0  0  0  0  0  0  0  0
   11.6991    0.2730   21.9170 H   0  0  0  0  0  0  0  0  0  0  0  0
   12.2341   -1.7974   21.1990 H   0  0  0  0  0  0  0  0  0  0  0  0
   11.9226   -0.1295   21.6615 H   0  0  0  0  0  0  0  0  0  0  0  0
   13.9711   -0.3336   21.3389 H   0  0  0  0  0  0  0  0  0  0  0  0
   14.3443   -0.8845   22.9771 H   0  0  0  0  0  0  0  0  0  0  0  0
   14.4475    2.2531   22.2454 H   0  0  0  0  0  0  0  0  0  0  0  0
   13.1465    4.4017   22.5444 H   0  0  0  0  0  0  0  0  0  0  0  0
   12.0443    6.1025   22.6369 H   0  0  0  0  0  0  0  0  0  0  0  0
   11.3071    6.6026   22.5169 H   0  0  0  0  0  0  0  0  0  0  0  0
    9.9954    2.1106   24.3354 H   0  0  0  0  0  0  0  0  0  0  0  0
   10.4055   -0.3133   25.9072 H   0  0  0  0  0  0  0  0  0  0  0  0
   10.2673   -1.2812   25.4665 H   0  0  0  0  0  0  0  0  0  0  0  0
    9.7377    0.4283   25.6550 H   0  0  0  0  0  0  0  0  0  0  0  0
  1  2  1  0
  2  3  4  0
  3  4  4  0
  4  5  4  0
  5  6  1  0
  6  7  1  0
  7  8  1  0
  8  9  1  0
  9 10  1  0
 10 11  1  0
 11 12  4  0
 12 13  4  0
 13 14  4  0
 14 15  1  0
 15 16  1  0
 15 17  2  0
 15 18  2  0
 14 19  4  0
 19 20  4  0
 20 21  1  0
 21 22  1  0
  5 23  4  0
 23  2  4  0
 21  7  1  0
 21  8  1  0
 20 11  4  0
  1 24  1  0
  1 25  1  0
  1 26  1  0
  6 27  1  0
  6 28  1  0
  8 29  1  0
  9 30  1  0
  9 31  1  0
 10 32  1  0
 10 33  1  0
 12 34  1  0
 13 35  1  0
 16 36  1  0
 16 37  1  0
 19 38  1  0
 22 39  1  0
 22 40  1  0
 22 41  1  0
M  CHG  1  21   1
M  END
