
     RDKit          3D

 45 48  0  0  0  0  0  0  0  0999 V2000
   11.0240    5.5690   23.1500 N   0  0  0  0  0  0  0  0  0  0  0  0
    9.7270    4.4750   23.4010 S   0  0  1  0  0  0  0  0  0  0  0  0
    9.3370    4.6210   24.7750 O   0  0  0  0  0  0  0  0  0  0  0  0
    8.7640    4.8310   22.4070 O   0  0  0  0  0  0  0  0  0  0  0  0
   10.4450    2.8280   23.0050 C   0  0  1  0  0  0  0  0  0  0  0  0
   11.8940    3.0010   22.5690 C   0  0  0  0  0  0  0  0  0  0  0  0
   12.7170    1.9220   22.9150 C   0  0  0  0  0  0  0  0  0  0  0  0
   12.1040    0.5680   22.8480 C   0  0  1  0  0  0  0  0  0  0  0  0
   13.1020   -0.5360   22.6510 C   0  0  0  0  0  0  0  0  0  0  0  0
   12.5680   -1.7950   22.5750 C   0  0  0  0  0  0  0  0  0  0  0  0
   11.2340   -1.3710   23.1040 C   0  0  0  0  0  0  0  0  0  0  0  0
   10.5070   -0.5810   23.5240 N   0  0  0  0  0  0  0  0  0  0  0  0
   11.2150    0.5290   23.9170 C   0  0  2  0  0  0  0  0  0  0  0  0
   10.5680    1.8950   24.1980 C   0  0  0  0  0  0  0  0  0  0  0  0
    9.3230   -0.3230   22.8590 C   0  0  1  0  0  0  0  0  0  0  0  0
    8.3110   -1.2030   23.2020 C   0  0  0  0  0  0  0  0  0  0  0  0
    7.1340   -0.4740   23.3500 C   0  0  0  0  0  0  0  0  0  0  0  0
    7.4730    0.8650   23.2120 C   0  0  0  0  0  0  0  0  0  0  0  0
    8.8490    0.9800   23.0750 C   0  0  2  0  0  0  0  0  0  0  0  0
    9.3680    2.0030   22.2600 C   0  0  0  0  0  0  0  0  0  0  0  0
    8.9740    2.1630   21.1080 O   0  0  0  0  0  0  0  0  0  0  0  0
   11.1210    5.7490   22.1450 H   0  0  0  0  0  0  0  0  0  0  0  0
   10.8730    6.4180   23.7000 H   0  0  0  0  0  0  0  0  0  0  0  0
   12.3070    3.8830   23.0710 H   0  0  0  0  0  0  0  0  0  0  0  0
   11.9540    3.2500   21.5120 H   0  0  0  0  0  0  0  0  0  0  0  0
   12.9220    1.9980   23.9420 H   0  0  0  0  0  0  0  0  0  0  0  0
   13.6920    1.9840   22.4710 H   0  0  0  0  0  0  0  0  0  0  0  0
   11.4540    0.5490   21.9890 H   0  0  0  0  0  0  0  0  0  0  0  0
   13.8410   -0.3110   21.8960 H   0  0  0  0  0  0  0  0  0  0  0  0
   13.6920   -0.5550   23.5740 H   0  0  0  0  0  0  0  0  0  0  0  0
   13.1040   -2.5970   23.0820 H   0  0  0  0  0  0  0  0  0  0  0  0
   12.4630   -2.0970   21.5240 H   0  0  0  0  0  0  0  0  0  0  0  0
   11.2060   -2.0460   23.9620 H   0  0  0  0  0  0  0  0  0  0  0  0
   10.5180   -1.7420   22.3530 H   0  0  0  0  0  0  0  0  0  0  0  0
   11.7880    0.2150   24.7950 H   0  0  0  0  0  0  0  0  0  0  0  0
    9.6530    1.9440   24.7860 H   0  0  0  0  0  0  0  0  0  0  0  0
   11.2910    2.3580   24.7850 H   0  0  0  0  0  0  0  0  0  0  0  0
    9.5240   -0.4020   21.7810 H   0  0  0  0  0  0  0  0  0  0  0  0
    8.5600   -1.7180   24.1340 H   0  0  0  0  0  0  0  0  0  0  0  0
    8.1920   -1.9690   22.4250 H   0  0  0  0  0  0  0  0  0  0  0  0
    6.8110   -0.6270   24.3890 H   0  0  0  0  0  0  0  0  0  0  0  0
    6.3050   -0.8350   22.7470 H   0  0  0  0  0  0  0  0  0  0  0  0
    7.1610    1.4250   24.1090 H   0  0  0  0  0  0  0  0  0  0  0  0
    6.9600    1.3020   22.3470 H   0  0  0  0  0  0  0  0  0  0  0  0
    9.2100    1.2140   24.0800 H   0  0  0  0  0  0  0  0  0  0  0  0
  2  1  1  6
  2  3  2  0
  2  4  2  0
  2  5  1  0
  5  6  1  0
  6  7  1  0
  7  8  1  0
  8  9  1  0
  9 10  1  0
 10 11  1  0
 11 12  1  0
  8 13  1  0
 12 13  1  0
  5 14  1  0
 13 14  1  0
 12 15  1  0
 15 16  1  0
 16 17  1  0
 17 18  1  0
 15 19  1  0
 18 19  1  0
  5 20  1  6
 19 20  1  0
 20 21  2  0
  1 22  1  0
  1 23  1  0
  6 24  1  0
  6 25  1  0
  7 26  1  0
  7 27  1  0
  8 28  1  6
  9 29  1  0
  9 30  1  0
 10 31  1  0
 10 32  1  0
 11 33  1  0
 11 34  1  0
 13 35  1  1
 14 36  1  0
 14 37  1  0
 15 38  1  6
 16 39  1  0
 16 40  1  0
 17 41  1  0
 17 42  1  0
 18 43  1  0
 18 44  1  0
 19 45  1  1
M  END
