LIG
     RDKit          3D

 49 52  0  0  0  0  0  0  0  0999 V2000
   24.8220  -14.5940   24.8900 C   0  0  0  0  0  0  0  0  0  0  0  0
   23.9480  -14.9260   26.1040 C   0  0  0  0  0  0  0  0  0  0  0  0
   23.7730  -14.1210   26.9560 O   0  0  0  0  0  0  0  0  0  0  0  0
   23.2870  -16.2060   26.2240 N   0  0  0  0  0  0  0  0  0  0  0  0
   23.4760  -17.2580   25.2490 C   0  0  0  0  0  0  0  0  0  0  0  0
   24.7310  -17.8400   25.2380 C   0  0  0  0  0  0  0  0  0  0  0  0
   25.0080  -18.8760   24.3750 C   0  0  0  0  0  0  0  0  0  0  0  0
   24.0410  -19.3280   23.4950 C   0  0  0  0  0  0  0  0  0  0  0  0
   24.4280  -20.4120   22.7030 O   0  0  0  0  0  0  0  0  0  0  0  0
   24.2410  -20.5460   21.3210 C   0  0  0  0  0  0  0  0  0  0  0  0
   24.8910  -19.8385   20.2135 N   0  0  0  0  0  0  0  0  0  0  0  0
   24.7300  -19.9810   19.1610 C   0  0  0  0  0  0  0  0  0  0  0  0
   24.0745  -21.5275   18.5700 C   0  0  0  0  0  0  0  0  0  0  0  0
   23.4150  -21.8035   19.5300 C   0  0  0  0  0  0  0  0  0  0  0  0
   22.4740  -22.5070   19.8360 N   0  0  0  0  0  0  0  0  0  0  0  0
   22.0280  -23.6430   19.1860 C   0  0  0  0  0  0  0  0  0  0  0  0
   21.9820  -25.1830   19.9300 S   0  0  0  0  0  0  0  0  0  0  0  0
   21.2920  -25.8340   18.4580 C   0  0  0  0  0  0  0  0  0  0  0  0
   20.9070  -27.2570   18.3710 C   0  0  0  0  0  0  0  0  0  0  0  0
   21.1140  -24.9850   17.4770 N   0  0  0  0  0  0  0  0  0  0  0  0
   21.5290  -23.7040   17.8770 C   0  0  0  0  0  0  0  0  0  0  0  0
   21.3360  -22.6100   16.9180 C   0  0  0  0  0  0  0  0  0  0  0  0
   21.6380  -22.8090   15.5630 C   0  0  0  0  0  0  0  0  0  0  0  0
   21.3690  -21.7900   14.6400 C   0  0  0  0  0  0  0  0  0  0  0  0
   20.8060  -20.5770   15.0660 C   0  0  0  0  0  0  0  0  0  0  0  0
   20.5170  -20.3820   16.4180 C   0  0  0  0  0  0  0  0  0  0  0  0
   20.7840  -21.3960   17.3440 C   0  0  0  0  0  0  0  0  0  0  0  0
   23.6355  -21.1415   20.5865 N   0  0  0  0  0  0  0  0  0  0  0  0
   22.7670  -18.7740   23.5230 C   0  0  0  0  0  0  0  0  0  0  0  0
   22.4790  -17.7270   24.3970 C   0  0  0  0  0  0  0  0  0  0  0  0
   24.2240  -14.0226   24.1799 H   0  0  0  0  0  0  0  0  0  0  0  0
   25.1968  -15.5032   24.4186 H   0  0  0  0  0  0  0  0  0  0  0  0
   25.6730  -14.0009   25.2249 H   0  0  0  0  0  0  0  0  0  0  0  0
   22.7394  -16.3724   26.9906 H   0  0  0  0  0  0  0  0  0  0  0  0
   25.5259  -17.5020   25.9024 H   0  0  0  0  0  0  0  0  0  0  0  0
   26.0016  -19.3354   24.3740 H   0  0  0  0  0  0  0  0  0  0  0  0
   24.8783  -19.3810   18.2878 H   0  0  0  0  0  0  0  0  0  0  0  0
   24.4136  -21.7297   17.6941 H   0  0  0  0  0  0  0  0  0  0  0  0
   22.3703  -22.6333   20.8795 H   0  0  0  0  0  0  0  0  0  0  0  0
   19.8732  -27.3640   18.0217 H   0  0  0  0  0  0  0  0  0  0  0  0
   21.5645  -27.8009   17.6820 H   0  0  0  0  0  0  0  0  0  0  0  0
   20.9796  -27.7407   19.3526 H   0  0  0  0  0  0  0  0  0  0  0  0
   22.0571  -23.7480   15.2200 H   0  0  0  0  0  0  0  0  0  0  0  0
   21.5818  -21.9426   13.5860 H   0  0  0  0  0  0  0  0  0  0  0  0
   20.5858  -19.7981   14.3452 H   0  0  0  0  0  0  0  0  0  0  0  0
   20.0743  -19.4470   16.7535 H   0  0  0  0  0  0  0  0  0  0  0  0
   20.5596  -21.2382   18.3958 H   0  0  0  0  0  0  0  0  0  0  0  0
   21.9958  -19.1518   22.8502 H   0  0  0  0  0  0  0  0  0  0  0  0
   21.4875  -17.3024   24.3926 H   0  0  0  0  0  0  0  0  0  0  0  0
  1  2  1  0
  2  3  2  0
  2  4  1  0
  4  5  1  0
  5  6  4  0
  6  7  4  0
  7  8  4  0
  8  9  1  0
  9 10  1  0
 10 11  4  0
 11 12  4  0
 12 13  4  0
 13 14  4  0
 14 15  1  0
 15 16  1  0
 16 17  4  0
 17 18  4  0
 18 19  1  0
 18 20  4  0
 20 21  4  0
 21 22  1  0
 22 23  4  0
 23 24  4  0
 24 25  4  0
 25 26  4  0
 26 27  4  0
 14 28  4  0
  8 29  4  0
 29 30  4  0
 30  5  4  0
 28 10  4  0
 21 16  4  0
 27 22  4  0
  1 31  1  0
  1 32  1  0
  1 33  1  0
  4 34  1  0
  6 35  1  0
  7 36  1  0
 12 37  1  0
 13 38  1  0
 15 39  1  0
 19 40  1  0
 19 41  1  0
 19 42  1  0
 23 43  1  0
 24 44  1  0
 25 45  1  0
 26 46  1  0
 27 47  1  0
 29 48  1  0
 30 49  1  0
M  END
