LIG
     RDKit          3D

 52 55  0  0  0  0  0  0  0  0999 V2000
   11.4660    6.2570   23.4610 N   0  0  0  0  0  0  0  0  0  0  0  0
   10.4990    4.8830   23.7330 S   0  0  0  0  0  6  0  0  0  0  0  0
    9.9890    4.8060   25.0960 O   0  0  0  0  0  0  0  0  0  0  0  0
    9.2550    4.9160   22.9600 O   0  0  0  0  0  0  0  0  0  0  0  0
   11.4520    3.3830   23.4380 C   0  0  0  0  0  0  0  0  0  0  0  0
   12.7210    3.4490   22.8300 C   0  0  0  0  0  0  0  0  0  0  0  0
   13.4330    2.2640   22.6290 C   0  0  0  0  0  0  0  0  0  0  0  0
   12.8830    1.0330   23.0360 C   0  0  0  0  0  0  0  0  0  0  0  0
   13.4260   -0.1390   23.1130 C   0  0  0  0  0  0  0  0  0  0  0  0
   12.9345   -1.2835   22.4160 C   0  0  0  0  0  0  0  0  0  0  0  0
   11.7160   -1.7870   22.5590 C   0  0  0  0  0  0  0  0  0  0  0  0
   11.3890   -1.3515   23.6670 C   0  0  0  0  0  0  0  0  0  0  0  0
   11.5225   -0.1810   24.1130 N   0  0  0  0  0  0  0  0  0  0  0  0
    9.8070   -0.9405   24.5770 C   0  0  0  0  0  0  0  0  0  0  0  0
    9.5440   -2.6880   24.5510 N   0  0  0  0  0  0  0  0  0  0  0  0
   10.6550   -3.2590   25.2740 C   0  0  0  0  0  0  0  0  0  0  0  0
   10.4200   -4.6660   25.8330 C   0  0  0  0  0  0  0  0  0  0  0  0
    9.1820   -4.8160   26.5550 C   0  0  0  0  0  0  0  0  0  0  0  0
    9.3040   -4.2150   27.8200 O   0  0  0  0  0  0  0  0  0  0  0  0
    8.0790   -4.2690   25.8080 C   0  0  0  0  0  0  0  0  0  0  0  0
    8.3310   -2.8350   25.3360 C   0  0  0  0  0  0  0  0  0  0  0  0
   11.6200    0.9750   23.6290 C   0  0  0  0  0  0  0  0  0  0  0  0
   10.9030    2.1690   23.8360 C   0  0  0  0  0  0  0  0  0  0  0  0
   11.1257    6.7487   22.6374 H   0  0  0  0  0  0  0  0  0  0  0  0
   10.8690    7.0807   23.4206 H   0  0  0  0  0  0  0  0  0  0  0  0
   10.8129    3.2642   22.1502 H   0  0  0  0  0  0  0  0  0  0  0  0
   13.3930    4.2030   23.3701 H   0  0  0  0  0  0  0  0  0  0  0  0
   12.6063    3.9857   21.8275 H   0  0  0  0  0  0  0  0  0  0  0  0
   13.7476    2.1974   21.5188 H   0  0  0  0  0  0  0  0  0  0  0  0
   14.4821    2.3686   23.0968 H   0  0  0  0  0  0  0  0  0  0  0  0
   13.4011    1.2942   24.4150 H   0  0  0  0  0  0  0  0  0  0  0  0
   14.5757   -0.1401   22.8518 H   0  0  0  0  0  0  0  0  0  0  0  0
   13.5557   -0.4956   24.2304 H   0  0  0  0  0  0  0  0  0  0  0  0
   12.1129   -0.2030   21.6919 H   0  0  0  0  0  0  0  0  0  0  0  0
   10.9125   -1.5715   21.5691 H   0  0  0  0  0  0  0  0  0  0  0  0
   11.6213   -3.0604   22.3186 H   0  0  0  0  0  0  0  0  0  0  0  0
   10.7908   -0.2815   22.4665 H   0  0  0  0  0  0  0  0  0  0  0  0
    9.1437   -0.5560   23.8452 H   0  0  0  0  0  0  0  0  0  0  0  0
    9.5720   -0.5399   25.5230 H   0  0  0  0  0  0  0  0  0  0  0  0
   10.8824   -2.5879   26.1209 H   0  0  0  0  0  0  0  0  0  0  0  0
   11.5850   -3.2731   24.6813 H   0  0  0  0  0  0  0  0  0  0  0  0
   11.3082   -4.9344   26.4543 H   0  0  0  0  0  0  0  0  0  0  0  0
   10.4621   -5.3713   24.9692 H   0  0  0  0  0  0  0  0  0  0  0  0
    9.0193   -5.8924   26.7534 H   0  0  0  0  0  0  0  0  0  0  0  0
    8.7204   -3.4323   27.8429 H   0  0  0  0  0  0  0  0  0  0  0  0
    7.8516   -4.8891   24.9120 H   0  0  0  0  0  0  0  0  0  0  0  0
    7.1209   -4.2796   26.3791 H   0  0  0  0  0  0  0  0  0  0  0  0
    7.4360   -2.4822   24.7750 H   0  0  0  0  0  0  0  0  0  0  0  0
    8.3843   -2.1830   26.2352 H   0  0  0  0  0  0  0  0  0  0  0  0
   12.3971    1.3127   24.8866 H   0  0  0  0  0  0  0  0  0  0  0  0
   10.5807    2.2289   24.9509 H   0  0  0  0  0  0  0  0  0  0  0  0
    9.8455    2.0747   23.3676 H   0  0  0  0  0  0  0  0  0  0  0  0
  1  2  1  0
  2  3  2  0
  2  4  2  0
  2  5  1  0
  5  6  1  0
  6  7  1  0
  7  8  1  0
  8  9  1  0
  9 10  1  0
 10 11  1  0
 11 12  1  0
 12 13  1  0
 13 14  1  0
 14 15  1  0
 15 16  1  0
 16 17  1  0
 17 18  1  0
 18 19  1  0
 18 20  1  0
 20 21  1  0
 13 22  1  0
 22 23  1  0
 23  5  1  0
 22  8  1  0
 12 10  1  0
 21 15  1  0
  1 24  1  0
  1 25  1  0
  5 26  1  0
  6 27  1  0
  6 28  1  0
  7 29  1  0
  7 30  1  0
  8 31  1  0
  9 32  1  0
  9 33  1  0
 10 34  1  0
 11 35  1  0
 11 36  1  0
 12 37  1  0
 14 38  1  0
 14 39  1  0
 16 40  1  0
 16 41  1  0
 17 42  1  0
 17 43  1  0
 18 44  1  0
 19 45  1  0
 20 46  1  0
 20 47  1  0
 21 48  1  0
 21 49  1  0
 22 50  1  0
 23 51  1  0
 23 52  1  0
M  END
