
     RDKit          3D

 43 44  0  0  0  0  0  0  0  0999 V2000
    8.8010   -0.4100   27.3740 C   0  0  0  0  0  0  0  0  0  0  0  0
    8.9640   -0.2950   25.8840 C   0  0  0  0  0  0  0  0  0  0  0  0
   10.2510   -0.4960   25.4350 N   0  0  0  0  0  0  0  0  0  0  0  0
   10.8040    0.1950   24.2770 C   0  0  1  0  0  0  0  0  0  0  0  0
   12.3070    0.2940   24.3450 C   0  0  0  0  0  0  0  0  0  0  0  0
   12.9760   -0.5380   23.3260 C   0  0  0  0  0  0  0  0  0  0  0  0
   12.3680   -1.5390   22.6200 C   0  0  2  0  0  0  0  0  0  0  0  0
   13.1830   -1.5470   21.4000 C   0  0  0  0  0  0  0  0  0  0  0  0
   13.8340   -1.4780   20.4920 N   0  0  0  0  0  0  0  0  0  0  0  0
   10.9870   -1.4950   22.5330 C   0  0  0  0  0  0  0  0  0  0  0  0
   10.4130   -0.1800   22.9940 C   0  0  1  0  0  0  0  0  0  0  0  0
    8.9250   -0.2740   22.8220 C   0  0  0  0  0  0  0  0  0  0  0  0
    8.4820    0.3920   21.7050 C   0  0  0  0  0  0  0  0  0  0  0  0
    8.9930    1.4260   21.2470 O   0  0  0  0  0  0  0  0  0  0  0  0
    7.3280   -0.3390   21.1990 N   0  0  0  0  0  0  0  0  0  0  0  0
    6.7030    0.1610   20.1210 C   0  0  0  0  0  0  0  0  0  0  0  0
    5.6120    0.9910   20.2900 C   0  0  0  0  0  0  0  0  0  0  0  0
    4.8860    1.5730   19.2660 C   0  0  0  0  0  0  0  0  0  0  0  0
    5.3040    1.2940   17.9590 C   0  0  0  0  0  0  0  0  0  0  0  0
    6.3490    0.4980   17.6870 N   0  0  0  0  0  0  0  0  0  0  0  0
    7.0510   -0.0750   18.8190 C   0  0  0  0  0  0  0  0  0  0  0  0
    8.5570   -1.4300   27.6780 H   0  0  0  0  0  0  0  0  0  0  0  0
    9.7370   -0.1270   27.8590 H   0  0  0  0  0  0  0  0  0  0  0  0
    8.0000    0.2580   27.6990 H   0  0  0  0  0  0  0  0  0  0  0  0
    8.6300    0.7080   25.5970 H   0  0  0  0  0  0  0  0  0  0  0  0
    8.3020   -1.0260   25.4100 H   0  0  0  0  0  0  0  0  0  0  0  0
   10.9130   -0.5910   26.2130 H   0  0  0  0  0  0  0  0  0  0  0  0
   10.4390    1.2250   24.3710 H   0  0  0  0  0  0  0  0  0  0  0  0
   12.6680    0.0100   25.3320 H   0  0  0  0  0  0  0  0  0  0  0  0
   12.5950    1.3360   24.1820 H   0  0  0  0  0  0  0  0  0  0  0  0
   13.8590   -0.9800   23.7830 H   0  0  0  0  0  0  0  0  0  0  0  0
   13.3900    0.1400   22.5730 H   0  0  0  0  0  0  0  0  0  0  0  0
   12.6210   -2.4920   23.0810 H   0  0  0  0  0  0  0  0  0  0  0  0
   10.6560   -2.3400   23.1450 H   0  0  0  0  0  0  0  0  0  0  0  0
   10.5780   -1.7330   21.5420 H   0  0  0  0  0  0  0  0  0  0  0  0
   10.8160    0.6680   22.4440 H   0  0  0  0  0  0  0  0  0  0  0  0
    8.3490   -0.0830   23.7230 H   0  0  0  0  0  0  0  0  0  0  0  0
    8.7560   -1.3410   22.6400 H   0  0  0  0  0  0  0  0  0  0  0  0
    6.6550   -0.6340   21.9040 H   0  0  0  0  0  0  0  0  0  0  0  0
    5.2930    1.2080   21.3190 H   0  0  0  0  0  0  0  0  0  0  0  0
    4.0360    2.2150   19.4790 H   0  0  0  0  0  0  0  0  0  0  0  0
    4.7860    1.7200   17.1000 H   0  0  0  0  0  0  0  0  0  0  0  0
    7.8820   -0.7070   18.4780 H   0  0  0  0  0  0  0  0  0  0  0  0
  1  2  1  0
  2  3  1  0
  3  4  1  0
  4  5  1  0
  5  6  1  0
  6  7  1  0
  7  8  1  0
  8  9  3  0
  7 10  1  0
  4 11  1  0
 10 11  1  0
 11 12  1  0
 12 13  1  0
 13 14  2  0
 13 15  1  0
 15 16  1  0
 16 17  2  0
 17 18  1  0
 18 19  2  0
 19 20  1  0
 16 21  1  0
 20 21  2  0
  1 22  1  0
  1 23  1  0
  1 24  1  0
  2 25  1  0
  2 26  1  0
  3 27  1  0
  4 28  1  1
  5 29  1  0
  5 30  1  0
  6 31  1  0
  6 32  1  0
  7 33  1  1
 10 34  1  0
 10 35  1  0
 11 36  1  6
 12 37  1  0
 12 38  1  0
 15 39  1  0
 17 40  1  0
 18 41  1  0
 19 42  1  0
 21 43  1  0
M  END
