LIG
     RDKit          3D

 35 35  0  0  0  0  0  0  0  0999 V2000
    8.4100    0.0120   27.4140 C   0  0  0  0  0  0  0  0  0  0  0  0
    8.9670   -0.5390   26.1210 C   0  0  0  0  0  0  0  0  0  0  0  0
   10.1000    0.2670   25.7050 N   0  0  0  0  0  0  0  0  0  0  0  0
   10.9180   -0.1360   24.4315 C   0  0  0  0  0  0  0  0  0  0  0  0
   12.1025    0.4630   24.2885 C   0  0  0  0  0  0  0  0  0  0  0  0
   12.9835   -0.0030   23.3795 C   0  0  0  0  0  0  0  0  0  0  0  0
   12.6825   -1.0940   22.5720 C   0  0  0  0  0  0  0  0  0  0  0  0
   13.3880   -1.4320   21.3740 C   0  0  0  0  0  0  0  0  0  0  0  0
   14.0700   -1.7370   20.5180 N   0  0  0  0  0  0  0  0  0  0  0  0
   11.4740   -1.7095   22.7130 C   0  0  0  0  0  0  0  0  0  0  0  0
   10.5900   -1.2265   23.6415 C   0  0  0  0  0  0  0  0  0  0  0  0
    9.2100   -1.7480   23.3470 C   0  0  0  0  0  0  0  0  0  0  0  0
    9.3140   -3.0270   24.1660 C   0  0  0  0  0  0  0  0  0  0  0  0
    8.0610   -3.5350   24.6620 N   0  0  0  0  0  0  0  0  0  0  0  0
    8.0950   -4.3580   26.1540 S   0  0  0  0  0  6  0  0  0  0  0  0
    6.4340   -4.9520   26.5780 C   0  0  0  0  0  0  0  0  0  0  0  0
    8.6390   -3.5100   27.2010 O   0  0  0  0  0  0  0  0  0  0  0  0
    9.0830   -5.4410   26.1700 O   0  0  0  0  0  0  0  0  0  0  0  0
    8.9883   -0.3449   28.2751 H   0  0  0  0  0  0  0  0  0  0  0  0
    9.1673    0.6112   27.9322 H   0  0  0  0  0  0  0  0  0  0  0  0
    8.0863   -0.7815   28.0964 H   0  0  0  0  0  0  0  0  0  0  0  0
    8.2038   -0.6205   25.3465 H   0  0  0  0  0  0  0  0  0  0  0  0
    9.3267   -1.5526   26.3133 H   0  0  0  0  0  0  0  0  0  0  0  0
   10.7596    0.4666   26.4133 H   0  0  0  0  0  0  0  0  0  0  0  0
   12.3934    1.3383   24.8727 H   0  0  0  0  0  0  0  0  0  0  0  0
   13.9693    0.4852   23.2666 H   0  0  0  0  0  0  0  0  0  0  0  0
   11.2286   -2.5783   22.1052 H   0  0  0  0  0  0  0  0  0  0  0  0
    8.4902   -1.1144   23.7344 H   0  0  0  0  0  0  0  0  0  0  0  0
    9.0988   -1.9695   22.3413 H   0  0  0  0  0  0  0  0  0  0  0  0
   10.0062   -2.8218   25.0225 H   0  0  0  0  0  0  0  0  0  0  0  0
    9.8240   -3.8286   23.5734 H   0  0  0  0  0  0  0  0  0  0  0  0
    7.4390   -3.9858   24.0013 H   0  0  0  0  0  0  0  0  0  0  0  0
    5.7717   -4.0959   26.6621 H   0  0  0  0  0  0  0  0  0  0  0  0
    5.7477   -4.6159   25.8058 H   0  0  0  0  0  0  0  0  0  0  0  0
    6.1744   -4.5103   27.5373 H   0  0  0  0  0  0  0  0  0  0  0  0
  1  2  1  0
  2  3  1  0
  3  4  1  0
  4  5  4  0
  5  6  4  0
  6  7  4  0
  7  8  1  0
  8  9  3  0
  7 10  4  0
 10 11  4  0
 11 12  1  0
 12 13  1  0
 13 14  1  0
 14 15  1  0
 15 16  1  0
 15 17  2  0
 15 18  2  0
 11  4  4  0
  1 19  1  0
  1 20  1  0
  1 21  1  0
  2 22  1  0
  2 23  1  0
  3 24  1  0
  5 25  1  0
  6 26  1  0
 10 27  1  0
 12 28  1  0
 12 29  1  0
 13 30  1  0
 13 31  1  0
 14 32  1  0
 16 33  1  0
 16 34  1  0
 16 35  1  0
M  END
