LIG
     RDKit          3D

 43 44  0  0  0  0  0  0  0  0999 V2000
    8.4100    0.0120   27.4140 C   0  0  0  0  0  0  0  0  0  0  0  0
    8.9670   -0.5390   26.1210 C   0  0  0  0  0  0  0  0  0  0  0  0
   10.1000    0.2670   25.7050 N   0  0  0  0  0  0  0  0  0  0  0  0
   10.3130   -0.8380   24.4275 C   0  0  0  0  0  0  0  0  0  0  0  0
   10.8255   -1.2270   23.7780 C   0  0  0  0  0  0  0  0  0  0  0  0
   11.9935    0.2425   24.2445 C   0  0  0  0  0  0  0  0  0  0  0  0
   12.9890    0.0785   23.3550 C   0  0  0  0  0  0  0  0  0  0  0  0
   12.8255   -1.0525   22.3965 S   0  0  0  0  0  4  0  0  0  0  0  0
   13.3880   -1.4320   21.3740 C   0  0  0  0  0  0  0  0  0  0  0  0
   14.0700   -1.7370   20.5180 N   0  0  0  0  0  0  0  0  0  0  0  0
   11.5405   -1.7565   22.6975 C   0  0  0  0  0  0  0  0  0  0  0  0
    9.5440   -2.6880   24.5510 N   0  0  0  0  0  0  0  0  0  0  0  0
    8.3310   -2.8350   25.3360 C   0  0  0  0  0  0  0  0  0  0  0  0
    8.0790   -4.2690   25.8080 C   0  0  0  0  0  0  0  0  0  0  0  0
    9.1820   -4.8160   26.5550 C   0  0  0  0  0  0  0  0  0  0  0  0
    9.3040   -4.2150   27.8200 O   0  0  0  0  0  0  0  0  0  0  0  0
   10.4200   -4.6660   25.8330 C   0  0  0  0  0  0  0  0  0  0  0  0
   10.6550   -3.2590   25.2740 C   0  0  0  0  0  0  0  0  0  0  0  0
    9.2023    0.1630   28.1578 H   0  0  0  0  0  0  0  0  0  0  0  0
    7.8928    0.9676   27.2715 H   0  0  0  0  0  0  0  0  0  0  0  0
    7.6851   -0.6904   27.8431 H   0  0  0  0  0  0  0  0  0  0  0  0
    8.1967   -0.6035   25.3601 H   0  0  0  0  0  0  0  0  0  0  0  0
    9.3256   -1.5468   26.3158 H   0  0  0  0  0  0  0  0  0  0  0  0
   10.8437    0.0502   26.2039 H   0  0  0  0  0  0  0  0  0  0  0  0
    9.2030   -0.5932   23.7495 H   0  0  0  0  0  0  0  0  0  0  0  0
   10.4033   -0.0829   22.9027 H   0  0  0  0  0  0  0  0  0  0  0  0
   12.1810    0.0036   25.2712 H   0  0  0  0  0  0  0  0  0  0  0  0
   11.3085    1.0648   24.1610 H   0  0  0  0  0  0  0  0  0  0  0  0
   13.1893    1.1042   22.7769 H   0  0  0  0  0  0  0  0  0  0  0  0
   14.0427    0.0220   23.9159 H   0  0  0  0  0  0  0  0  0  0  0  0
   13.7420   -2.2135   23.5064 H   0  0  0  0  0  0  0  0  0  0  0  0
   11.7490   -2.9049   22.8531 H   0  0  0  0  0  0  0  0  0  0  0  0
   10.8295   -1.8429   21.7532 H   0  0  0  0  0  0  0  0  0  0  0  0
    7.4400   -2.5229   24.7508 H   0  0  0  0  0  0  0  0  0  0  0  0
    8.3505   -2.1626   26.2218 H   0  0  0  0  0  0  0  0  0  0  0  0
    7.8184   -4.8852   24.9172 H   0  0  0  0  0  0  0  0  0  0  0  0
    7.1450   -4.2723   26.4108 H   0  0  0  0  0  0  0  0  0  0  0  0
    9.5014   -3.0714   26.3870 H   0  0  0  0  0  0  0  0  0  0  0  0
    9.2478   -3.2474   27.7075 H   0  0  0  0  0  0  0  0  0  0  0  0
   11.2894   -4.8993   26.4910 H   0  0  0  0  0  0  0  0  0  0  0  0
   10.5113   -5.3848   24.9855 H   0  0  0  0  0  0  0  0  0  0  0  0
   11.5328   -3.2861   24.6044 H   0  0  0  0  0  0  0  0  0  0  0  0
   10.9549   -2.6254   26.1286 H   0  0  0  0  0  0  0  0  0  0  0  0
  1  2  1  0
  2  3  1  0
  3  4  1  0
  4  5  1  0
  5  6  1  0
  6  7  1  0
  7  8  1  0
  8  9  1  0
  9 10  3  0
  8 11  1  0
  4 12  1  0
 12 13  1  0
 13 14  1  0
 14 15  1  0
 15 16  1  0
 15 17  1  0
 17 18  1  0
 11  5  1  0
 18 12  1  0
  1 19  1  0
  1 20  1  0
  1 21  1  0
  2 22  1  0
  2 23  1  0
  3 24  1  0
  4 25  1  0
  5 26  1  0
  6 27  1  0
  6 28  1  0
  7 29  1  0
  7 30  1  0
  8 31  1  0
 11 32  1  0
 11 33  1  0
 13 34  1  0
 13 35  1  0
 14 36  1  0
 14 37  1  0
 15 38  1  0
 16 39  1  0
 17 40  1  0
 17 41  1  0
 18 42  1  0
 18 43  1  0
M  END
