
     RDKit          3D

 47 50  0  0  0  0  0  0  0  0999 V2000
    7.0770   -0.8200   25.1100 C   0  0  0  0  0  0  0  0  0  0  0  0
    8.2770   -1.0020   24.2020 C   0  0  2  0  0  0  0  0  0  0  0  0
    8.2380   -0.9140   22.8670 C   0  0  0  0  0  0  0  0  0  0  0  0
    9.7220   -0.8310   22.4640 C   0  0  1  0  0  0  0  0  0  0  0  0
    9.8190    0.2060   21.4890 C   0  0  0  0  0  0  0  0  0  0  0  0
    9.3170    1.5070   21.9320 N   0  0  0  0  0  0  0  0  0  0  0  0
   10.3320   -0.2650   23.7080 C   0  0  1  0  0  0  0  0  0  0  0  0
   11.3450    0.5550   23.3630 N   0  0  0  0  0  0  0  0  0  0  0  0
   12.2640   -0.3550   22.9260 C   0  0  0  0  0  0  0  0  0  0  0  0
   11.9540   -1.7160   22.5730 C   0  0  2  0  0  0  0  0  0  0  0  0
   12.5660   -2.1900   21.2830 C   0  0  0  0  0  0  0  0  0  0  0  0
   13.6540   -1.4940   20.8300 N   0  0  0  0  0  0  0  0  0  0  0  0
   10.5850   -2.0340   22.4980 N   0  0  0  0  0  0  0  0  0  0  0  0
   10.2080   -2.4990   23.7900 C   0  0  0  0  0  0  0  0  0  0  0  0
    8.8160   -2.4360   24.0080 C   0  0  1  0  0  0  0  0  0  0  0  0
    8.1060   -3.4600   24.5370 N   0  0  0  0  0  0  0  0  0  0  0  0
    8.2140   -4.5220   23.7650 C   0  0  0  0  0  0  0  0  0  0  0  0
    7.2090   -4.9950   22.9700 C   0  0  0  0  0  0  0  0  0  0  0  0
    6.2780   -5.7100   23.6710 C   0  0  0  0  0  0  0  0  0  0  0  0
    6.4980   -5.6120   25.0610 O   0  0  0  0  0  0  0  0  0  0  0  0
    6.0840   -4.3520   25.5780 C   0  0  0  0  0  0  0  0  0  0  0  0
    6.8780   -3.1510   25.0330 C   0  0  0  0  0  0  0  0  0  0  0  0
    9.1350    0.2390   24.2410 N   0  0  0  0  0  0  0  0  0  0  0  0
    6.1560   -1.1780   24.6450 H   0  0  0  0  0  0  0  0  0  0  0  0
    6.9490    0.2470   25.3140 H   0  0  0  0  0  0  0  0  0  0  0  0
    7.2420   -1.3540   26.0480 H   0  0  0  0  0  0  0  0  0  0  0  0
    7.6480   -1.6490   22.3270 H   0  0  0  0  0  0  0  0  0  0  0  0
    7.7700    0.0370   22.5870 H   0  0  0  0  0  0  0  0  0  0  0  0
   10.7140   -1.0560   24.3660 H   0  0  0  0  0  0  0  0  0  0  0  0
   11.6590    1.2130   24.0440 H   0  0  0  0  0  0  0  0  0  0  0  0
   12.7690    0.2430   22.1760 H   0  0  0  0  0  0  0  0  0  0  0  0
   12.9820   -0.4290   23.7510 H   0  0  0  0  0  0  0  0  0  0  0  0
   12.2620   -2.3410   23.4100 H   0  0  0  0  0  0  0  0  0  0  0  0
   10.5140   -3.5320   23.9180 H   0  0  0  0  0  0  0  0  0  0  0  0
   10.8200   -1.9450   24.4970 H   0  0  0  0  0  0  0  0  0  0  0  0
    8.4080   -2.5650   23.0050 H   0  0  0  0  0  0  0  0  0  0  0  0
    9.0820   -4.2170   23.2290 H   0  0  0  0  0  0  0  0  0  0  0  0
    8.4930   -5.3790   24.3560 H   0  0  0  0  0  0  0  0  0  0  0  0
    7.5500   -5.6970   22.2130 H   0  0  0  0  0  0  0  0  0  0  0  0
    6.7550   -4.2220   22.3500 H   0  0  0  0  0  0  0  0  0  0  0  0
    5.2570   -5.4180   23.4000 H   0  0  0  0  0  0  0  0  0  0  0  0
    6.3570   -6.7670   23.3900 H   0  0  0  0  0  0  0  0  0  0  0  0
    6.1050   -4.3620   26.6720 H   0  0  0  0  0  0  0  0  0  0  0  0
    5.0340   -4.2430   25.2890 H   0  0  0  0  0  0  0  0  0  0  0  0
    7.0460   -2.4930   25.8900 H   0  0  0  0  0  0  0  0  0  0  0  0
    6.3870   -2.5280   24.2940 H   0  0  0  0  0  0  0  0  0  0  0  0
    9.2720    0.4590   25.1860 H   0  0  0  0  0  0  0  0  0  0  0  0
  2  1  1  1
  2  3  1  0
  3  4  1  0
  4  5  1  6
  5  6  3  0
  4  7  1  0
  7  8  1  0
  8  9  1  0
  9 10  1  0
 10 11  1  0
 11 12  3  0
  4 13  1  0
 10 13  1  0
 13 14  1  0
  2 15  1  0
 14 15  1  0
 15 16  1  0
 16 17  1  0
 17 18  1  0
 18 19  1  0
 19 20  1  0
 20 21  1  0
 16 22  1  0
 21 22  1  0
  2 23  1  0
  7 23  1  0
  1 24  1  0
  1 25  1  0
  1 26  1  0
  3 27  1  0
  3 28  1  0
  7 29  1  1
  8 30  1  0
  9 31  1  0
  9 32  1  0
 10 33  1  1
 14 34  1  0
 14 35  1  0
 15 36  1  6
 17 37  1  0
 17 38  1  0
 18 39  1  0
 18 40  1  0
 19 41  1  0
 19 42  1  0
 21 43  1  0
 21 44  1  0
 22 45  1  0
 22 46  1  0
 23 47  1  0
M  END
