LIG
     RDKit          3D

 41 42  0  0  0  0  0  0  0  0999 V2000
    8.4100    0.0120   27.4140 C   0  0  0  0  0  0  0  0  0  0  0  0
    8.9670   -0.5390   26.1210 C   0  0  0  0  0  0  0  0  0  0  0  0
   10.1000    0.2670   25.7050 N   0  0  0  0  0  0  0  0  0  0  0  0
   10.9270   -0.1760   24.6090 C   0  0  0  0  0  0  0  0  0  0  0  0
   10.5760   -1.3110   23.8900 C   0  0  0  0  0  0  0  0  0  0  0  0
   11.3650   -1.7260   22.8360 C   0  0  0  0  0  0  0  0  0  0  0  0
   12.8785   -0.8030   22.6040 C   0  0  0  0  0  0  0  0  0  0  0  0
   13.3880   -1.4320   21.3740 C   0  0  0  0  0  0  0  0  0  0  0  0
   14.0700   -1.7370   20.5180 N   0  0  0  0  0  0  0  0  0  0  0  0
   12.6215    0.6365   23.2100 C   0  0  0  0  0  0  0  0  0  0  0  0
   13.1480    2.2850   22.7650 C   0  0  0  0  0  0  0  0  0  0  0  0
   12.5830    3.5320   23.0260 C   0  0  0  0  0  0  0  0  0  0  0  0
   11.3350    3.6620   23.6540 C   0  0  0  0  0  0  0  0  0  0  0  0
   10.6680    5.1850   23.9350 S   0  0  0  0  0  6  0  0  0  0  0  0
    9.3520    5.1750   22.9550 N   0  0  0  0  0  0  0  0  0  0  0  0
   10.1890    5.2490   25.2610 O   0  0  0  0  0  0  0  0  0  0  0  0
   11.5530    6.1960   23.4620 O   0  0  0  0  0  0  0  0  0  0  0  0
   10.6670    2.4740   24.0250 C   0  0  0  0  0  0  0  0  0  0  0  0
   11.6105    0.8590   24.0340 N   0  0  0  0  0  0  0  0  0  0  0  0
    7.3136    0.0593   27.3933 H   0  0  0  0  0  0  0  0  0  0  0  0
    7.8415    0.9308   27.2214 H   0  0  0  0  0  0  0  0  0  0  0  0
    7.7331   -0.7020   27.8980 H   0  0  0  0  0  0  0  0  0  0  0  0
    9.2655   -1.5816   26.2900 H   0  0  0  0  0  0  0  0  0  0  0  0
    8.1806   -0.5255   25.3627 H   0  0  0  0  0  0  0  0  0  0  0  0
   10.7479    0.4005   26.5175 H   0  0  0  0  0  0  0  0  0  0  0  0
   11.8989   -0.6814   25.3471 H   0  0  0  0  0  0  0  0  0  0  0  0
    9.4703   -1.2459   23.5323 H   0  0  0  0  0  0  0  0  0  0  0  0
   10.4440   -2.1931   24.6339 H   0  0  0  0  0  0  0  0  0  0  0  0
   10.9048   -1.6890   21.8280 H   0  0  0  0  0  0  0  0  0  0  0  0
   11.7573   -2.7633   22.9219 H   0  0  0  0  0  0  0  0  0  0  0  0
   13.4470   -1.4150   23.4731 H   0  0  0  0  0  0  0  0  0  0  0  0
   13.5241    0.5626   24.1846 H   0  0  0  0  0  0  0  0  0  0  0  0
   13.4089    2.1635   21.6116 H   0  0  0  0  0  0  0  0  0  0  0  0
   14.2692    2.2132   23.1475 H   0  0  0  0  0  0  0  0  0  0  0  0
   12.5618    4.1572   22.0249 H   0  0  0  0  0  0  0  0  0  0  0  0
   13.3824    4.2018   23.5773 H   0  0  0  0  0  0  0  0  0  0  0  0
   12.0199    3.7002   24.9500 H   0  0  0  0  0  0  0  0  0  0  0  0
    9.4426    5.8890   22.2203 H   0  0  0  0  0  0  0  0  0  0  0  0
    9.6291    5.0488   21.9730 H   0  0  0  0  0  0  0  0  0  0  0  0
   10.2686    2.4468   25.0590 H   0  0  0  0  0  0  0  0  0  0  0  0
    9.8227    2.1080   23.3897 H   0  0  0  0  0  0  0  0  0  0  0  0
  1  2  1  0
  2  3  1  0
  3  4  1  0
  4  5  1  0
  5  6  1  0
  6  7  1  0
  7  8  1  0
  8  9  3  0
  7 10  1  0
 10 11  1  0
 11 12  1  0
 12 13  1  0
 13 14  1  0
 14 15  1  0
 14 16  2  0
 14 17  2  0
 13 18  1  0
 18 19  1  0
 19  4  1  0
 19 10  1  0
  1 20  1  0
  1 21  1  0
  1 22  1  0
  2 23  1  0
  2 24  1  0
  3 25  1  0
  4 26  1  0
  5 27  1  0
  5 28  1  0
  6 29  1  0
  6 30  1  0
  7 31  1  0
 10 32  1  0
 11 33  1  0
 11 34  1  0
 12 35  1  0
 12 36  1  0
 13 37  1  0
 15 38  1  0
 15 39  1  0
 18 40  1  0
 18 41  1  0
M  END
