
     RDKit          3D

 35 35  0  0  0  0  0  0  0  0999 V2000
    8.1750   -1.8720   26.7810 C   0  0  0  0  0  0  0  0  0  0  0  0
    8.8480   -2.0000   25.4120 C   0  0  0  0  0  0  0  0  0  0  0  0
   10.1100   -1.4250   25.2650 N   0  0  0  0  0  0  0  0  0  0  0  0
   10.8780   -1.3980   24.0820 C   0  0  0  0  0  0  0  0  0  0  0  0
   12.2350   -0.6690   23.9880 C   0  0  0  0  0  0  0  0  0  0  0  0
   12.9640   -0.7580   22.8050 C   0  0  0  0  0  0  0  0  0  0  0  0
   12.4880   -1.4540   21.8060 C   0  0  0  0  0  0  0  0  0  0  0  0
   13.4920   -1.3450   20.7810 C   0  0  0  0  0  0  0  0  0  0  0  0
   14.2250   -1.0700   19.9970 N   0  0  0  0  0  0  0  0  0  0  0  0
   11.2780   -2.1140   21.7910 C   0  0  0  0  0  0  0  0  0  0  0  0
   10.4250   -2.0800   22.9970 C   0  0  0  0  0  0  0  0  0  0  0  0
    9.0990   -2.8240   22.9690 C   0  0  0  0  0  0  0  0  0  0  0  0
    9.0040   -3.9700   23.7520 C   0  0  0  0  0  0  0  0  0  0  0  0
    7.9480   -3.8860   24.7820 N   0  0  0  0  0  0  0  0  0  0  0  0
    8.1320   -4.7920   26.2050 S   0  0  2  0  0  0  0  0  0  0  0  0
    6.4850   -5.4160   26.4510 C   0  0  0  0  0  0  0  0  0  0  0  0
    8.4190   -3.9080   27.3020 O   0  0  0  0  0  0  0  0  0  0  0  0
    9.0130   -5.8890   25.9090 O   0  0  0  0  0  0  0  0  0  0  0  0
    8.8870   -1.6520   27.5790 H   0  0  0  0  0  0  0  0  0  0  0  0
    7.4290   -1.0740   26.7480 H   0  0  0  0  0  0  0  0  0  0  0  0
    7.6650   -2.8040   27.0120 H   0  0  0  0  0  0  0  0  0  0  0  0
    8.1640   -1.5520   24.6860 H   0  0  0  0  0  0  0  0  0  0  0  0
    8.9440   -3.0570   25.1860 H   0  0  0  0  0  0  0  0  0  0  0  0
   10.6570   -1.4560   26.1240 H   0  0  0  0  0  0  0  0  0  0  0  0
   12.7100   -0.1080   24.7430 H   0  0  0  0  0  0  0  0  0  0  0  0
   13.9200   -0.2570   22.7290 H   0  0  0  0  0  0  0  0  0  0  0  0
   10.9560   -2.6550   20.9200 H   0  0  0  0  0  0  0  0  0  0  0  0
    8.3020   -2.1200   23.2180 H   0  0  0  0  0  0  0  0  0  0  0  0
    8.9190   -3.1470   21.9460 H   0  0  0  0  0  0  0  0  0  0  0  0
    9.9600   -4.1500   24.2580 H   0  0  0  0  0  0  0  0  0  0  0  0
    8.8200   -4.8640   23.1540 H   0  0  0  0  0  0  0  0  0  0  0  0
    6.9800   -3.7940   24.4770 H   0  0  0  0  0  0  0  0  0  0  0  0
    5.8850   -4.6800   26.9830 H   0  0  0  0  0  0  0  0  0  0  0  0
    6.0420   -5.6850   25.4830 H   0  0  0  0  0  0  0  0  0  0  0  0
    6.5470   -6.3480   27.0250 H   0  0  0  0  0  0  0  0  0  0  0  0
  1  2  1  0
  2  3  1  0
  3  4  1  0
  4  5  2  0
  5  6  1  0
  6  7  2  0
  7  8  1  0
  8  9  3  0
  7 10  1  0
  4 11  1  0
 10 11  2  0
 11 12  1  0
 12 13  1  0
 13 14  1  0
 15 14  1  6
 15 16  1  0
 15 17  2  0
 15 18  2  0
  1 19  1  0
  1 20  1  0
  1 21  1  0
  2 22  1  0
  2 23  1  0
  3 24  1  0
  5 25  1  0
  6 26  1  0
 10 27  1  0
 12 28  1  0
 12 29  1  0
 13 30  1  0
 13 31  1  0
 14 32  1  0
 16 33  1  0
 16 34  1  0
 16 35  1  0
M  END
