
     RDKit          3D

 54 57  0  0  0  0  0  0  0  0999 V2000
    5.1610    3.3940   30.9370 C   0  0  0  0  0  0  0  0  0  0  0  0
    5.6550    2.3130   30.0110 C   0  0  0  0  0  0  0  0  0  0  0  0
    5.8970    1.0170   30.5100 C   0  0  0  0  0  0  0  0  0  0  0  0
    6.4170   -0.0930   29.5720 C   0  0  0  0  0  0  0  0  0  0  0  0
    6.6270    0.3220   28.1620 C   0  0  0  0  0  0  0  0  0  0  0  0
    7.1000   -0.5840   27.2380 O   0  0  0  0  0  0  0  0  0  0  0  0
    8.2590   -0.1980   26.4780 C   0  0  0  0  0  0  0  0  0  0  0  0
    8.4850   -1.0970   25.2750 C   0  0  0  0  0  0  0  0  0  0  0  0
    7.5650   -1.8150   24.8750 O   0  0  0  0  0  0  0  0  0  0  0  0
    9.7670   -1.1340   24.6740 N   0  0  0  0  0  0  0  0  0  0  0  0
   10.3780   -2.3550   24.1330 C   0  0  0  0  0  0  0  0  0  0  0  0
   10.7690   -2.0970   22.7230 C   0  0  0  0  0  0  0  0  0  0  0  0
   11.1350   -0.7040   22.4080 N   0  0  0  0  0  0  0  0  0  0  0  0
   12.5190   -0.5390   22.6000 C   0  0  0  0  0  0  0  0  0  0  0  0
   12.1070    0.6310   22.9230 C   0  0  2  0  0  0  0  0  0  0  0  0
   12.8230    1.6710   23.2530 C   0  0  0  0  0  0  0  0  0  0  0  0
   12.2490    2.9040   22.9840 C   0  0  0  0  0  0  0  0  0  0  0  0
   10.9420    2.9150   23.4430 C   0  0  1  0  0  0  0  0  0  0  0  0
   10.2900    4.6470   23.4900 S   0  0  2  0  0  0  0  0  0  0  0  0
    8.9740    4.6900   22.4730 N   0  0  0  0  0  0  0  0  0  0  0  0
   11.2850    5.5460   22.9340 O   0  0  0  0  0  0  0  0  0  0  0  0
    9.6810    4.9890   24.7530 O   0  0  0  0  0  0  0  0  0  0  0  0
   10.1180    1.7810   23.0500 C   0  0  0  0  0  0  0  0  0  0  0  0
   10.8670    0.4460   23.4380 C   0  0  1  0  0  0  0  0  0  0  0  0
   10.6780    0.0060   24.7490 C   0  0  0  0  0  0  0  0  0  0  0  0
    6.3540    1.6290   27.7360 C   0  0  0  0  0  0  0  0  0  0  0  0
    5.8790    2.5820   28.6610 C   0  0  0  0  0  0  0  0  0  0  0  0
    5.9090    4.1800   31.0730 H   0  0  0  0  0  0  0  0  0  0  0  0
    4.2620    3.8470   30.5150 H   0  0  0  0  0  0  0  0  0  0  0  0
    4.9330    2.9510   31.9100 H   0  0  0  0  0  0  0  0  0  0  0  0
    5.7260    0.7790   31.5570 H   0  0  0  0  0  0  0  0  0  0  0  0
    6.6470   -1.1250   29.8180 H   0  0  0  0  0  0  0  0  0  0  0  0
    9.1630   -0.2430   27.0910 H   0  0  0  0  0  0  0  0  0  0  0  0
    8.1660    0.8330   26.1280 H   0  0  0  0  0  0  0  0  0  0  0  0
   11.2980   -2.6090   24.6750 H   0  0  0  0  0  0  0  0  0  0  0  0
    9.6520   -3.1470   24.2940 H   0  0  0  0  0  0  0  0  0  0  0  0
   11.6420   -2.7150   22.4850 H   0  0  0  0  0  0  0  0  0  0  0  0
    9.9580   -2.4280   22.0590 H   0  0  0  0  0  0  0  0  0  0  0  0
   13.1220   -0.6920   21.7080 H   0  0  0  0  0  0  0  0  0  0  0  0
   12.9360   -1.0660   23.4650 H   0  0  0  0  0  0  0  0  0  0  0  0
   11.8140    1.0180   21.9920 H   0  0  0  0  0  0  0  0  0  0  0  0
   12.8620    1.5660   24.2970 H   0  0  0  0  0  0  0  0  0  0  0  0
   13.8080    1.5920   22.7880 H   0  0  0  0  0  0  0  0  0  0  0  0
   12.8400    3.7800   23.2540 H   0  0  0  0  0  0  0  0  0  0  0  0
   12.1840    2.9950   21.8980 H   0  0  0  0  0  0  0  0  0  0  0  0
   11.0430    2.7570   24.5000 H   0  0  0  0  0  0  0  0  0  0  0  0
    9.2850    4.8460   21.5160 H   0  0  0  0  0  0  0  0  0  0  0  0
    8.4380    3.8250   22.5610 H   0  0  0  0  0  0  0  0  0  0  0  0
    9.1520    1.8310   23.5640 H   0  0  0  0  0  0  0  0  0  0  0  0
    9.9050    1.8130   21.9770 H   0  0  0  0  0  0  0  0  0  0  0  0
   11.5400   -0.3310   25.3140 H   0  0  0  0  0  0  0  0  0  0  0  0
   10.1950    0.7970   25.3260 H   0  0  0  0  0  0  0  0  0  0  0  0
    6.4900    1.9750   26.7060 H   0  0  0  0  0  0  0  0  0  0  0  0
    5.7190    3.5510   28.1690 H   0  0  0  0  0  0  0  0  0  0  0  0
  1  2  1  0
  2  3  2  0
  3  4  1  0
  4  5  2  0
  5  6  1  0
  6  7  1  0
  7  8  1  0
  8  9  2  0
  8 10  1  0
 10 11  1  0
 11 12  1  0
 12 13  1  0
 13 14  1  0
 14 15  1  0
 15 16  1  0
 16 17  1  0
 17 18  1  0
 18 19  1  0
 19 20  1  6
 19 21  2  0
 19 22  2  0
 18 23  1  0
 13 24  1  0
 15 24  1  0
 24 23  1  6
 10 25  1  0
 24 25  1  0
  5 26  1  0
  2 27  1  0
 26 27  2  0
  1 28  1  0
  1 29  1  0
  1 30  1  0
  3 31  1  0
  4 32  1  0
  7 33  1  0
  7 34  1  0
 11 35  1  0
 11 36  1  0
 12 37  1  0
 12 38  1  0
 14 39  1  0
 14 40  1  0
 15 41  1  6
 16 42  1  0
 16 43  1  0
 17 44  1  0
 17 45  1  0
 18 46  1  1
 20 47  1  0
 20 48  1  0
 23 49  1  0
 23 50  1  0
 25 51  1  0
 25 52  1  0
 26 53  1  0
 27 54  1  0
M  END
