
     RDKit          3D

 55 58  0  0  0  0  0  0  0  0999 V2000
    5.6510    3.8140   30.8810 C   0  0  0  0  0  0  0  0  0  0  0  0
    6.0890    2.6820   29.9890 C   0  0  0  0  0  0  0  0  0  0  0  0
    7.2550    2.8310   29.2210 C   0  0  0  0  0  0  0  0  0  0  0  0
    7.7110    1.6840   28.3070 C   0  0  0  0  0  0  0  0  0  0  0  0
    6.8970    0.4360   28.2630 C   0  0  0  0  0  0  0  0  0  0  0  0
    7.3820   -0.5270   27.4210 O   0  0  0  0  0  0  0  0  0  0  0  0
    8.2930   -0.1150   26.3990 C   0  0  0  0  0  0  0  0  0  0  0  0
    8.6270   -1.2910   25.4880 C   0  0  0  0  0  0  0  0  0  0  0  0
    7.7280   -2.0570   25.1210 O   0  0  0  0  0  0  0  0  0  0  0  0
    9.9680   -1.4930   25.1220 N   0  0  0  0  0  0  0  0  0  0  0  0
   10.9530   -0.4350   25.1060 C   0  0  0  0  0  0  0  0  0  0  0  0
   11.5680   -0.3750   23.7540 C   0  0  2  0  0  0  0  0  0  0  0  0
   10.5440   -0.5110   22.6690 C   0  0  2  0  0  0  0  0  0  0  0  0
    9.2670   -0.0230   22.8640 C   0  0  0  0  0  0  0  0  0  0  0  0
    8.5860    0.3710   21.7170 C   0  0  0  0  0  0  0  0  0  0  0  0
    9.0610    1.4220   21.2490 O   0  0  0  0  0  0  0  0  0  0  0  0
    7.5430   -0.3460   21.2460 N   0  0  0  0  0  0  0  0  0  0  0  0
    6.8350    0.1730   20.1820 C   0  0  0  0  0  0  0  0  0  0  0  0
    5.7950    1.0480   20.4690 C   0  0  0  0  0  0  0  0  0  0  0  0
    5.0300    1.6210   19.4430 C   0  0  0  0  0  0  0  0  0  0  0  0
    5.3520    1.2760   18.0070 C   0  0  0  0  0  0  0  0  0  0  0  0
    6.3470    0.4340   17.7040 N   0  0  0  0  0  0  0  0  0  0  0  0
    7.1120   -0.1370   18.8670 C   0  0  0  0  0  0  0  0  0  0  0  0
   10.9370   -2.0060   22.9220 C   0  0  2  0  0  0  0  0  0  0  0  0
   10.3090   -2.5320   24.0690 C   0  0  0  0  0  0  0  0  0  0  0  0
   12.1580   -1.5540   23.3230 N   0  0  0  0  0  0  0  0  0  0  0  0
   13.0660   -1.3840   22.2140 C   0  0  0  0  0  0  0  0  0  0  0  0
    5.7530    0.3450   29.0480 C   0  0  0  0  0  0  0  0  0  0  0  0
    5.3600    1.4940   29.9150 C   0  0  0  0  0  0  0  0  0  0  0  0
    4.9910    4.5090   30.3560 H   0  0  0  0  0  0  0  0  0  0  0  0
    5.1050    3.4040   31.7370 H   0  0  0  0  0  0  0  0  0  0  0  0
    6.5330    4.3550   31.2310 H   0  0  0  0  0  0  0  0  0  0  0  0
    7.8440    3.7410   29.2560 H   0  0  0  0  0  0  0  0  0  0  0  0
    8.5810    1.6730   27.6670 H   0  0  0  0  0  0  0  0  0  0  0  0
    7.9040    0.7190   25.8020 H   0  0  0  0  0  0  0  0  0  0  0  0
    9.2300    0.2380   26.8480 H   0  0  0  0  0  0  0  0  0  0  0  0
   11.7750   -0.6250   25.7790 H   0  0  0  0  0  0  0  0  0  0  0  0
   10.3950    0.4070   25.4550 H   0  0  0  0  0  0  0  0  0  0  0  0
   12.1370    0.5530   23.6170 H   0  0  0  0  0  0  0  0  0  0  0  0
   10.9180   -0.1230   21.7420 H   0  0  0  0  0  0  0  0  0  0  0  0
    8.6980   -0.8520   23.3010 H   0  0  0  0  0  0  0  0  0  0  0  0
    9.2850    0.7000   23.6800 H   0  0  0  0  0  0  0  0  0  0  0  0
    7.0030   -0.8860   21.9270 H   0  0  0  0  0  0  0  0  0  0  0  0
    5.6380    1.2400   21.5370 H   0  0  0  0  0  0  0  0  0  0  0  0
    4.2070    2.3120   19.6550 H   0  0  0  0  0  0  0  0  0  0  0  0
    4.7950    1.6940   17.1740 H   0  0  0  0  0  0  0  0  0  0  0  0
    7.9100   -0.8200   18.5890 H   0  0  0  0  0  0  0  0  0  0  0  0
   10.9730   -2.6060   22.0190 H   0  0  0  0  0  0  0  0  0  0  0  0
    9.3790   -3.0350   23.7870 H   0  0  0  0  0  0  0  0  0  0  0  0
   10.9570   -3.2830   24.5380 H   0  0  0  0  0  0  0  0  0  0  0  0
   12.5930   -1.7340   21.2890 H   0  0  0  0  0  0  0  0  0  0  0  0
   13.3030   -0.3220   22.0840 H   0  0  0  0  0  0  0  0  0  0  0  0
   13.9880   -1.9120   22.3230 H   0  0  0  0  0  0  0  0  0  0  0  0
    5.1200   -0.5400   29.0550 H   0  0  0  0  0  0  0  0  0  0  0  0
    4.4430    1.3080   30.4850 H   0  0  0  0  0  0  0  0  0  0  0  0
  1  2  1  0
  2  3  2  0
  3  4  1  0
  4  5  2  0
  5  6  1  0
  6  7  1  0
  7  8  1  0
  8  9  2  0
  8 10  1  0
 10 11  1  0
 11 12  1  0
 12 13  1  0
 13 14  1  0
 14 15  1  0
 15 16  2  0
 15 17  1  0
 17 18  1  0
 18 19  2  0
 19 20  1  0
 20 21  2  0
 21 22  1  0
 18 23  1  0
 22 23  2  0
 13 24  1  0
 10 25  1  0
 24 25  1  0
 12 26  1  0
 24 26  1  0
 26 27  1  0
  5 28  1  0
  2 29  1  0
 28 29  2  0
  1 30  1  0
  1 31  1  0
  1 32  1  0
  3 33  1  0
  4 34  1  0
  7 35  1  0
  7 36  1  0
 11 37  1  0
 11 38  1  0
 12 39  1  6
 13 40  1  6
 14 41  1  0
 14 42  1  0
 17 43  1  0
 19 44  1  0
 20 45  1  0
 21 46  1  0
 23 47  1  0
 24 48  1  6
 25 49  1  0
 25 50  1  0
 27 51  1  0
 27 52  1  0
 27 53  1  0
 28 54  1  0
 29 55  1  0
M  END
