
     RDKit          3D

 54 57  0  0  0  0  0  0  0  0999 V2000
    5.4730    3.6700   31.1350 C   0  0  0  0  0  0  0  0  0  0  0  0
    5.7880    2.5230   30.2180 C   0  0  0  0  0  0  0  0  0  0  0  0
    7.0610    1.9530   30.2720 C   0  0  0  0  0  0  0  0  0  0  0  0
    7.4590    0.7830   29.3610 C   0  0  0  0  0  0  0  0  0  0  0  0
    6.5080    0.2260   28.3790 C   0  0  0  0  0  0  0  0  0  0  0  0
    6.9810   -0.7880   27.6050 O   0  0  0  0  0  0  0  0  0  0  0  0
    7.8600   -0.3630   26.5650 C   0  0  0  0  0  0  0  0  0  0  0  0
    8.0540   -1.4590   25.5420 C   0  0  0  0  0  0  0  0  0  0  0  0
    7.1370   -2.2130   25.2350 O   0  0  0  0  0  0  0  0  0  0  0  0
    9.3110   -1.5890   24.9910 N   0  0  0  0  0  0  0  0  0  0  0  0
    9.7560   -2.6830   24.1050 C   0  0  0  0  0  0  0  0  0  0  0  0
   11.2440   -2.6130   23.8370 C   0  0  0  0  0  0  0  0  0  0  0  0
   11.8250   -1.2710   23.7320 N   0  0  0  0  0  0  0  0  0  0  0  0
   12.6400   -1.1520   22.6310 C   0  0  0  0  0  0  0  0  0  0  0  0
   13.3060    0.0150   22.8560 C   0  0  0  0  0  0  0  0  0  0  0  0
   12.5370    1.1530   23.0420 C   0  0  0  0  0  0  0  0  0  0  0  0
   12.9960    2.4460   22.8120 C   0  0  0  0  0  0  0  0  0  0  0  0
   12.2790    3.6210   22.9720 C   0  0  0  0  0  0  0  0  0  0  0  0
   10.9590    3.5780   23.4170 C   0  0  0  0  0  0  0  0  0  0  0  0
    9.9580    5.0310   23.6720 S   0  0  1  0  0  0  0  0  0  0  0  0
   11.1050    6.2590   23.6280 N   0  0  0  0  0  0  0  0  0  0  0  0
    9.1230    5.2000   22.5220 O   0  0  0  0  0  0  0  0  0  0  0  0
    9.3490    5.0430   24.9850 O   0  0  0  0  0  0  0  0  0  0  0  0
   10.4880    2.1580   23.6650 C   0  0  0  0  0  0  0  0  0  0  0  0
   11.2440    1.0160   23.4830 C   0  0  0  0  0  0  0  0  0  0  0  0
   10.7530   -0.2430   23.7240 C   0  0  2  0  0  0  0  0  0  0  0  0
   10.1840   -0.3750   24.9580 C   0  0  0  0  0  0  0  0  0  0  0  0
    5.1430    0.8710   28.3690 C   0  0  0  0  0  0  0  0  0  0  0  0
    4.8310    2.0360   29.3310 C   0  0  0  0  0  0  0  0  0  0  0  0
    6.2840    4.4050   31.1580 H   0  0  0  0  0  0  0  0  0  0  0  0
    5.3310    3.2880   32.1510 H   0  0  0  0  0  0  0  0  0  0  0  0
    4.5580    4.1610   30.7940 H   0  0  0  0  0  0  0  0  0  0  0  0
    7.8040    2.3300   30.9690 H   0  0  0  0  0  0  0  0  0  0  0  0
    8.4280    0.2900   29.3520 H   0  0  0  0  0  0  0  0  0  0  0  0
    7.4990    0.5430   26.0600 H   0  0  0  0  0  0  0  0  0  0  0  0
    8.8430   -0.1140   26.9780 H   0  0  0  0  0  0  0  0  0  0  0  0
    9.5810   -3.6520   24.5780 H   0  0  0  0  0  0  0  0  0  0  0  0
    9.0980   -2.6200   23.2380 H   0  0  0  0  0  0  0  0  0  0  0  0
   11.7810   -3.1430   24.6380 H   0  0  0  0  0  0  0  0  0  0  0  0
   11.4500   -3.1460   22.9050 H   0  0  0  0  0  0  0  0  0  0  0  0
   13.2500   -2.0440   22.5250 H   0  0  0  0  0  0  0  0  0  0  0  0
   12.0580   -1.0590   21.7150 H   0  0  0  0  0  0  0  0  0  0  0  0
   13.9560    0.2070   22.0220 H   0  0  0  0  0  0  0  0  0  0  0  0
   13.8960   -0.0360   23.7410 H   0  0  0  0  0  0  0  0  0  0  0  0
   14.0020    2.6500   22.4760 H   0  0  0  0  0  0  0  0  0  0  0  0
   12.8500    4.5220   22.7270 H   0  0  0  0  0  0  0  0  0  0  0  0
   11.2740    6.6130   22.6890 H   0  0  0  0  0  0  0  0  0  0  0  0
   11.9650    5.9280   24.0680 H   0  0  0  0  0  0  0  0  0  0  0  0
    9.4600    2.0280   24.0170 H   0  0  0  0  0  0  0  0  0  0  0  0
   10.1290   -0.6100   22.9090 H   0  0  0  0  0  0  0  0  0  0  0  0
    9.6180    0.5220   25.2290 H   0  0  0  0  0  0  0  0  0  0  0  0
   10.9450   -0.5050   25.7340 H   0  0  0  0  0  0  0  0  0  0  0  0
    4.3570    0.5440   27.6950 H   0  0  0  0  0  0  0  0  0  0  0  0
    3.8420    2.4860   29.3060 H   0  0  0  0  0  0  0  0  0  0  0  0
  1  2  1  0
  2  3  2  0
  3  4  1  0
  4  5  2  0
  5  6  1  0
  6  7  1  0
  7  8  1  0
  8  9  2  0
  8 10  1  0
 10 11  1  0
 11 12  1  0
 12 13  1  0
 13 14  1  0
 14 15  1  0
 15 16  1  0
 16 17  2  0
 17 18  1  0
 18 19  2  0
 19 20  1  0
 20 21  1  1
 20 22  2  0
 20 23  2  0
 19 24  1  0
 16 25  1  0
 24 25  2  0
 13 26  1  0
 25 26  1  0
 10 27  1  0
 26 27  1  0
  5 28  1  0
  2 29  1  0
 28 29  2  0
  1 30  1  0
  1 31  1  0
  1 32  1  0
  3 33  1  0
  4 34  1  0
  7 35  1  0
  7 36  1  0
 11 37  1  0
 11 38  1  0
 12 39  1  0
 12 40  1  0
 14 41  1  0
 14 42  1  0
 15 43  1  0
 15 44  1  0
 17 45  1  0
 18 46  1  0
 21 47  1  0
 21 48  1  0
 24 49  1  0
 26 50  1  6
 27 51  1  0
 27 52  1  0
 28 53  1  0
 29 54  1  0
M  END
