
     RDKit          3D

 39 41  0  0  0  0  0  0  0  0999 V2000
   10.8930  -26.8210    4.1910 F   0  0  0  0  0  0  0  0  0  0  0  0
   11.6060  -26.2090    3.2200 C   0  0  1  0  0  0  0  0  0  0  0  0
   12.2530  -24.9350    3.5580 C   0  0  0  0  0  0  0  0  0  0  0  0
   13.0730  -24.4880    2.5460 C   0  0  1  0  0  0  0  0  0  0  0  0
   14.2930  -25.4010    2.4720 C   0  0  0  0  0  0  0  0  0  0  0  0
   14.0280  -26.5950    3.3490 C   0  0  0  0  0  0  0  0  0  0  0  0
   12.7070  -27.1680    3.0430 N   0  0  0  0  0  0  0  0  0  0  0  0
   12.2610  -24.3570    1.1780 C   0  0  0  0  0  0  0  0  0  0  0  0
   11.2390  -25.4860    0.9770 C   0  0  2  0  0  0  0  0  0  0  0  0
   10.0670  -25.1300    0.1710 C   0  0  0  0  0  0  0  0  0  0  0  0
    9.6470  -23.8400   -0.2470 N   0  0  0  0  0  0  0  0  0  0  0  0
    8.3820  -23.5670   -0.9910 C   0  0  0  0  0  0  0  0  0  0  0  0
    7.6160  -22.2080   -1.0550 C   0  0  0  0  0  0  0  0  0  0  0  0
    8.0340  -21.0270   -1.6480 C   0  0  0  0  0  0  0  0  0  0  0  0
    7.0330  -20.1480   -1.4510 C   0  0  0  0  0  0  0  0  0  0  0  0
    6.0830  -20.8400   -0.7670 C   0  0  0  0  0  0  0  0  0  0  0  0
    6.4480  -22.0380   -0.5530 O   0  0  0  0  0  0  0  0  0  0  0  0
   10.6960  -25.9900    2.1670 C   0  0  0  0  0  0  0  0  0  0  0  0
   11.4800  -24.2050    3.7070 H   0  0  0  0  0  0  0  0  0  0  0  0
   12.8240  -25.0190    4.4910 H   0  0  0  0  0  0  0  0  0  0  0  0
   13.4460  -23.4910    2.8060 H   0  0  0  0  0  0  0  0  0  0  0  0
   15.1400  -24.8320    2.8780 H   0  0  0  0  0  0  0  0  0  0  0  0
   14.6360  -25.7550    1.5040 H   0  0  0  0  0  0  0  0  0  0  0  0
   14.8300  -27.3020    3.1700 H   0  0  0  0  0  0  0  0  0  0  0  0
   14.0700  -26.4590    4.4290 H   0  0  0  0  0  0  0  0  0  0  0  0
   12.5200  -27.9830    3.6240 H   0  0  0  0  0  0  0  0  0  0  0  0
   11.8600  -23.3620    1.1870 H   0  0  0  0  0  0  0  0  0  0  0  0
   13.0180  -24.2930    0.3990 H   0  0  0  0  0  0  0  0  0  0  0  0
   11.7040  -26.3960    0.5890 H   0  0  0  0  0  0  0  0  0  0  0  0
    9.1550  -25.5760    0.5530 H   0  0  0  0  0  0  0  0  0  0  0  0
   10.1370  -25.6370   -0.7980 H   0  0  0  0  0  0  0  0  0  0  0  0
    9.9480  -23.0560    0.3500 H   0  0  0  0  0  0  0  0  0  0  0  0
    7.7320  -24.4050   -0.7490 H   0  0  0  0  0  0  0  0  0  0  0  0
    8.6360  -23.7630   -2.0390 H   0  0  0  0  0  0  0  0  0  0  0  0
    8.9760  -20.8540   -2.1630 H   0  0  0  0  0  0  0  0  0  0  0  0
    7.0200  -19.1100   -1.7840 H   0  0  0  0  0  0  0  0  0  0  0  0
    5.1390  -20.3740   -0.4620 H   0  0  0  0  0  0  0  0  0  0  0  0
   10.1000  -26.8740    1.9660 H   0  0  0  0  0  0  0  0  0  0  0  0
   10.0070  -25.2130    2.4920 H   0  0  0  0  0  0  0  0  0  0  0  0
  2  1  1  1
  2  3  1  0
  3  4  1  0
  4  5  1  0
  5  6  1  0
  2  7  1  0
  6  7  1  0
  4  8  1  0
  8  9  1  0
  9 10  1  0
 10 11  1  0
 11 12  1  0
 12 13  1  0
 13 14  2  0
 14 15  1  0
 15 16  2  0
 13 17  1  0
 16 17  1  0
  2 18  1  0
  9 18  1  0
  3 19  1  0
  3 20  1  0
  4 21  1  1
  5 22  1  0
  5 23  1  0
  6 24  1  0
  6 25  1  0
  7 26  1  0
  8 27  1  0
  8 28  1  0
  9 29  1  6
 10 30  1  0
 10 31  1  0
 11 32  1  0
 12 33  1  0
 12 34  1  0
 14 35  1  0
 15 36  1  0
 16 37  1  0
 18 38  1  0
 18 39  1  0
M  END
