LIG
     RDKit          3D

 55 58  0  0  0  0  0  0  0  0999 V2000
    5.5720    3.8030   30.8520 C   0  0  0  0  0  0  0  0  0  0  0  0
    6.0790    2.6860   29.9860 C   0  0  0  0  0  0  0  0  0  0  0  0
    7.2890    2.7860   29.3270 C   0  0  0  0  0  0  0  0  0  0  0  0
    7.7660    1.7610   28.5270 C   0  0  0  0  0  0  0  0  0  0  0  0
    7.0230    0.5950   28.3850 C   0  0  0  0  0  0  0  0  0  0  0  0
    7.4530   -0.4560   27.6150 O   0  0  0  0  0  0  0  0  0  0  0  0
    8.3750   -0.1600   26.5780 C   0  0  0  0  0  0  0  0  0  0  0  0
    8.7900   -1.4080   25.8100 C   0  0  0  0  0  0  0  0  0  0  0  0
    7.9610   -2.2960   25.6070 O   0  0  0  0  0  0  0  0  0  0  0  0
   10.0690   -1.4770   25.3800 N   0  0  0  0  0  0  0  0  0  0  0  0
   11.8910   -0.2575   25.0975 C   0  0  0  0  0  0  0  0  0  0  0  0
   11.4980   -0.2465   24.3625 C   0  0  0  0  0  0  0  0  0  0  0  0
   10.9230   -0.0800   23.0900 C   0  0  0  0  0  0  0  0  0  0  0  0
    9.4090   -0.1550   23.0330 C   0  0  0  0  0  0  0  0  0  0  0  0
    8.8650    0.3120   21.6960 C   0  0  0  0  0  0  0  0  0  0  0  0
    9.4190    1.1020   21.0000 O   0  0  0  0  0  0  0  0  0  0  0  0
    7.6120   -0.2560   21.3260 N   0  0  0  0  0  0  0  0  0  0  0  0
    7.0000    0.1710   20.1090 C   0  0  0  0  0  0  0  0  0  0  0  0
    5.7560    0.7730   20.2490 C   0  0  0  0  0  0  0  0  0  0  0  0
    5.1420    1.2080   19.0830 C   0  0  0  0  0  0  0  0  0  0  0  0
    5.8050    1.0240   17.8770 C   0  0  0  0  0  0  0  0  0  0  0  0
    7.0000    0.4540   17.8140 N   0  0  0  0  0  0  0  0  0  0  0  0
    7.6260    0.0260   18.8870 C   0  0  0  0  0  0  0  0  0  0  0  0
   11.5035   -1.7005   22.8165 C   0  0  0  0  0  0  0  0  0  0  0  0
   10.6760   -2.6770   24.8000 C   0  0  0  0  0  0  0  0  0  0  0  0
   13.0175   -1.0750   23.6970 N   0  0  0  0  0  0  0  0  0  0  0  0
   13.0180   -1.3705   22.6055 C   0  0  0  0  0  0  0  0  0  0  0  0
    5.8090    0.4760   29.0440 C   0  0  0  0  0  0  0  0  0  0  0  0
    5.3530    1.5210   29.8320 C   0  0  0  0  0  0  0  0  0  0  0  0
    5.7816    4.7669   30.3790 H   0  0  0  0  0  0  0  0  0  0  0  0
    6.0474    3.7828   31.8377 H   0  0  0  0  0  0  0  0  0  0  0  0
    6.3908    4.4703   31.1399 H   0  0  0  0  0  0  0  0  0  0  0  0
    7.9020    3.6940   29.4363 H   0  0  0  0  0  0  0  0  0  0  0  0
    8.7112    1.8674   28.0086 H   0  0  0  0  0  0  0  0  0  0  0  0
    7.9896    0.5988   25.9128 H   0  0  0  0  0  0  0  0  0  0  0  0
    9.2602    0.2214   27.0726 H   0  0  0  0  0  0  0  0  0  0  0  0
   12.3792   -1.2248   25.6318 H   0  0  0  0  0  0  0  0  0  0  0  0
   11.4835    0.2348   26.1141 H   0  0  0  0  0  0  0  0  0  0  0  0
   12.4337    1.0531   24.0964 H   0  0  0  0  0  0  0  0  0  0  0  0
    9.9084   -1.3279   24.2291 H   0  0  0  0  0  0  0  0  0  0  0  0
    9.0435   -1.1606   23.2193 H   0  0  0  0  0  0  0  0  0  0  0  0
    9.0084    0.5116   23.8001 H   0  0  0  0  0  0  0  0  0  0  0  0
    7.2818   -0.8622   21.8796 H   0  0  0  0  0  0  0  0  0  0  0  0
    5.2559    0.9242   21.1684 H   0  0  0  0  0  0  0  0  0  0  0  0
    4.1707    1.6859   19.1012 H   0  0  0  0  0  0  0  0  0  0  0  0
    5.3682    1.3413   16.9423 H   0  0  0  0  0  0  0  0  0  0  0  0
    8.5716   -0.4048   18.7581 H   0  0  0  0  0  0  0  0  0  0  0  0
   11.4725   -2.2954   22.3075 H   0  0  0  0  0  0  0  0  0  0  0  0
   10.0928   -3.3084   24.2471 H   0  0  0  0  0  0  0  0  0  0  0  0
   11.6196   -2.9404   25.0781 H   0  0  0  0  0  0  0  0  0  0  0  0
   12.2388   -0.9515   21.8399 H   0  0  0  0  0  0  0  0  0  0  0  0
   13.0709   -0.5321   21.8013 H   0  0  0  0  0  0  0  0  0  0  0  0
   12.0683   -1.9118   22.2292 H   0  0  0  0  0  0  0  0  0  0  0  0
    5.2096   -0.4248   28.9834 H   0  0  0  0  0  0  0  0  0  0  0  0
    4.3912    1.4035   30.3533 H   0  0  0  0  0  0  0  0  0  0  0  0
  1  2  1  0
  2  3  4  0
  3  4  4  0
  4  5  4  0
  5  6  1  0
  6  7  1  0
  7  8  1  0
  8  9  2  0
  8 10  1  0
 10 11  1  0
 11 12  1  0
 12 13  1  0
 13 14  1  0
 14 15  1  0
 15 16  2  0
 15 17  1  0
 17 18  1  0
 18 19  4  0
 19 20  4  0
 20 21  4  0
 21 22  4  0
 22 23  4  0
 13 24  1  0
 24 25  1  0
 24 26  1  0
 26 27  1  0
  5 28  4  0
 28 29  4  0
 29  2  4  0
 25 10  1  0
 26 12  1  0
 23 18  4  0
  1 30  1  0
  1 31  1  0
  1 32  1  0
  3 33  1  0
  4 34  1  0
  7 35  1  0
  7 36  1  0
 11 37  1  0
 11 38  1  0
 12 39  1  0
 13 40  1  0
 14 41  1  0
 14 42  1  0
 17 43  1  0
 19 44  1  0
 20 45  1  0
 21 46  1  0
 23 47  1  0
 24 48  1  0
 25 49  1  0
 25 50  1  0
 27 51  1  0
 27 52  1  0
 27 53  1  0
 28 54  1  0
 29 55  1  0
M  END
