LIG
     RDKit          3D

 52 55  0  0  0  0  0  0  0  0999 V2000
   11.4660    6.2570   23.4610 N   0  0  0  0  0  0  0  0  0  0  0  0
   10.4990    4.8830   23.7330 S   0  0  0  0  0  6  0  0  0  0  0  0
    9.9890    4.8060   25.0960 O   0  0  0  0  0  0  0  0  0  0  0  0
    9.2550    4.9160   22.9600 O   0  0  0  0  0  0  0  0  0  0  0  0
   11.4520    3.3830   23.4380 C   0  0  0  0  0  0  0  0  0  0  0  0
   12.7210    3.4490   22.8300 C   0  0  0  0  0  0  0  0  0  0  0  0
   13.4330    2.2640   22.6290 C   0  0  0  0  0  0  0  0  0  0  0  0
   12.8830    1.0330   23.0360 C   0  0  0  0  0  0  0  0  0  0  0  0
   13.4260   -0.1390   23.1130 C   0  0  0  0  0  0  0  0  0  0  0  0
   12.9345   -1.2835   22.4160 C   0  0  0  0  0  0  0  0  0  0  0  0
   11.7160   -1.7870   22.5590 C   0  0  0  0  0  0  0  0  0  0  0  0
   11.3890   -1.3515   23.6670 C   0  0  0  0  0  0  0  0  0  0  0  0
   11.5225   -0.1810   24.1130 N   0  0  0  0  0  0  0  0  0  0  0  0
    9.8070   -0.9405   24.5770 C   0  0  0  0  0  0  0  0  0  0  0  0
    9.5440   -2.6880   24.5510 N   0  0  0  0  0  0  0  0  0  0  0  0
   10.6550   -3.2590   25.2740 C   0  0  0  0  0  0  0  0  0  0  0  0
   10.4200   -4.6660   25.8330 C   0  0  0  0  0  0  0  0  0  0  0  0
    9.1820   -4.8160   26.5550 C   0  0  0  0  0  0  0  0  0  0  0  0
    9.3040   -4.2150   27.8200 O   0  0  0  0  0  0  0  0  0  0  0  0
    8.0790   -4.2690   25.8080 C   0  0  0  0  0  0  0  0  0  0  0  0
    8.3310   -2.8350   25.3360 C   0  0  0  0  0  0  0  0  0  0  0  0
   11.6200    0.9750   23.6290 C   0  0  0  0  0  0  0  0  0  0  0  0
   10.9030    2.1690   23.8360 C   0  0  0  0  0  0  0  0  0  0  0  0
   11.2817    6.9446   24.1884 H   0  0  0  0  0  0  0  0  0  0  0  0
   10.8706    7.0809   23.4151 H   0  0  0  0  0  0  0  0  0  0  0  0
   12.0743    3.5357   24.7586 H   0  0  0  0  0  0  0  0  0  0  0  0
   13.3928    4.1955   23.4001 H   0  0  0  0  0  0  0  0  0  0  0  0
   12.6394    4.0139   21.8249 H   0  0  0  0  0  0  0  0  0  0  0  0
   14.5025    2.3760   23.0845 H   0  0  0  0  0  0  0  0  0  0  0  0
   13.7386    2.1969   21.5054 H   0  0  0  0  0  0  0  0  0  0  0  0
   12.3314    0.7643   21.7782 H   0  0  0  0  0  0  0  0  0  0  0  0
   13.6206   -0.4985   24.2671 H   0  0  0  0  0  0  0  0  0  0  0  0
   14.6129   -0.1120   22.8545 H   0  0  0  0  0  0  0  0  0  0  0  0
   12.3519   -0.4196   21.5451 H   0  0  0  0  0  0  0  0  0  0  0  0
   10.8935   -1.5714   21.6042 H   0  0  0  0  0  0  0  0  0  0  0  0
   11.6193   -3.0479   22.3633 H   0  0  0  0  0  0  0  0  0  0  0  0
   11.6523   -2.1460   24.3906 H   0  0  0  0  0  0  0  0  0  0  0  0
    9.1271   -0.4982   23.8861 H   0  0  0  0  0  0  0  0  0  0  0  0
    9.6568   -0.5756   25.5724 H   0  0  0  0  0  0  0  0  0  0  0  0
   10.8912   -2.5909   26.1245 H   0  0  0  0  0  0  0  0  0  0  0  0
   11.5899   -3.2737   24.6806 H   0  0  0  0  0  0  0  0  0  0  0  0
   10.4694   -5.3713   24.9638 H   0  0  0  0  0  0  0  0  0  0  0  0
   11.3121   -4.9391   26.4534 H   0  0  0  0  0  0  0  0  0  0  0  0
    9.0203   -5.9023   26.7537 H   0  0  0  0  0  0  0  0  0  0  0  0
   10.2524   -4.0731   28.0001 H   0  0  0  0  0  0  0  0  0  0  0  0
    7.8454   -4.8969   24.9139 H   0  0  0  0  0  0  0  0  0  0  0  0
    7.1183   -4.2869   26.3832 H   0  0  0  0  0  0  0  0  0  0  0  0
    7.4407   -2.4996   24.7689 H   0  0  0  0  0  0  0  0  0  0  0  0
    8.3906   -2.1774   26.2216 H   0  0  0  0  0  0  0  0  0  0  0  0
   12.3607    1.3010   24.9276 H   0  0  0  0  0  0  0  0  0  0  0  0
    9.8271    2.0515   23.3925 H   0  0  0  0  0  0  0  0  0  0  0  0
   10.6023    2.2624   24.9570 H   0  0  0  0  0  0  0  0  0  0  0  0
  1  2  1  0
  2  3  2  0
  2  4  2  0
  2  5  1  0
  5  6  1  0
  6  7  1  0
  7  8  1  0
  8  9  1  0
  9 10  1  0
 10 11  1  0
 11 12  1  0
 12 13  1  0
 13 14  1  0
 14 15  1  0
 15 16  1  0
 16 17  1  0
 17 18  1  0
 18 19  1  0
 18 20  1  0
 20 21  1  0
 13 22  1  0
 22 23  1  0
 23  5  1  0
 22  8  1  0
 12 10  1  0
 21 15  1  0
  1 24  1  0
  1 25  1  0
  5 26  1  0
  6 27  1  0
  6 28  1  0
  7 29  1  0
  7 30  1  0
  8 31  1  0
  9 32  1  0
  9 33  1  0
 10 34  1  0
 11 35  1  0
 11 36  1  0
 12 37  1  0
 14 38  1  0
 14 39  1  0
 16 40  1  0
 16 41  1  0
 17 42  1  0
 17 43  1  0
 18 44  1  0
 19 45  1  0
 20 46  1  0
 20 47  1  0
 21 48  1  0
 21 49  1  0
 22 50  1  0
 23 51  1  0
 23 52  1  0
M  END
