
     RDKit          3D

 51 53  0  0  0  0  0  0  0  0999 V2000
   13.3980   -2.1810   24.7630 C   0  0  0  0  0  0  0  0  0  0  0  0
   13.0790   -0.8150   25.0530 O   0  0  0  0  0  0  0  0  0  0  0  0
   12.4980   -0.2580   23.9490 C   0  0  0  0  0  0  0  0  0  0  0  0
   12.1710   -0.6740   22.7920 O   0  0  0  0  0  0  0  0  0  0  0  0
   12.1400   -1.7360   22.1900 C   0  0  0  0  0  0  0  0  0  0  0  0
   11.0230   -0.6150   22.6350 C   0  0  0  0  0  0  0  0  0  0  0  0
    9.6080   -0.9760   22.2790 C   0  0  0  0  0  0  0  0  0  0  0  0
    8.8750   -1.4220   23.4550 N   0  0  0  0  0  0  0  0  0  0  0  0
    9.7340   -1.9860   24.4640 C   0  0  0  0  0  0  0  0  0  0  0  0
    9.9530   -3.4510   24.2060 C   0  0  0  0  0  0  0  0  0  0  0  0
    8.6670   -4.0500   24.2850 C   0  0  1  0  0  0  0  0  0  0  0  0
    7.8820   -3.3900   25.2640 O   0  0  0  0  0  0  0  0  0  0  0  0
    7.8040   -3.6480   23.1900 C   0  0  0  0  0  0  0  0  0  0  0  0
    7.6680   -2.1250   23.3140 C   0  0  0  0  0  0  0  0  0  0  0  0
   11.6070    0.7790   23.4650 C   0  0  2  0  0  0  0  0  0  0  0  0
   12.3790    1.7600   22.8760 C   0  0  0  0  0  0  0  0  0  0  0  0
   11.8480    3.0820   22.8330 C   0  0  0  0  0  0  0  0  0  0  0  0
   10.4720    3.3390   23.0280 C   0  0  2  0  0  0  0  0  0  0  0  0
   10.1430    5.0350   23.6580 S   0  0  1  0  0  0  0  0  0  0  0  0
    8.9250    5.5280   22.6230 N   0  0  0  0  0  0  0  0  0  0  0  0
    9.4680    5.0910   24.9490 O   0  0  0  0  0  0  0  0  0  0  0  0
   11.2530    5.9080   23.3520 O   0  0  0  0  0  0  0  0  0  0  0  0
    9.7190    2.3340   23.6750 C   0  0  0  0  0  0  0  0  0  0  0  0
   10.6660    1.3300   24.2720 C   0  0  0  0  0  0  0  0  0  0  0  0
   12.4680   -2.7530   24.7650 H   0  0  0  0  0  0  0  0  0  0  0  0
   13.8550   -2.2830   23.7760 H   0  0  0  0  0  0  0  0  0  0  0  0
   14.0670   -2.5970   25.5190 H   0  0  0  0  0  0  0  0  0  0  0  0
   11.4230   -2.4120   21.7260 H   0  0  0  0  0  0  0  0  0  0  0  0
    9.1440   -0.0870   21.8230 H   0  0  0  0  0  0  0  0  0  0  0  0
    9.6520   -1.7350   21.5020 H   0  0  0  0  0  0  0  0  0  0  0  0
    9.1740   -1.8130   25.3610 H   0  0  0  0  0  0  0  0  0  0  0  0
   10.6790   -1.4380   24.5150 H   0  0  0  0  0  0  0  0  0  0  0  0
   10.6140   -3.8780   24.9560 H   0  0  0  0  0  0  0  0  0  0  0  0
   10.4970   -3.6110   23.2900 H   0  0  0  0  0  0  0  0  0  0  0  0
    8.6200   -5.1060   24.5290 H   0  0  0  0  0  0  0  0  0  0  0  0
    7.0090   -3.2040   24.8750 H   0  0  0  0  0  0  0  0  0  0  0  0
    6.8700   -4.1850   23.0350 H   0  0  0  0  0  0  0  0  0  0  0  0
    8.3540   -3.7940   22.2560 H   0  0  0  0  0  0  0  0  0  0  0  0
    7.2300   -1.7790   22.3670 H   0  0  0  0  0  0  0  0  0  0  0  0
    6.9700   -1.7450   24.0560 H   0  0  0  0  0  0  0  0  0  0  0  0
   12.5140    1.5310   21.8650 H   0  0  0  0  0  0  0  0  0  0  0  0
   13.4030    1.6960   23.1970 H   0  0  0  0  0  0  0  0  0  0  0  0
   12.1000    3.5020   21.8540 H   0  0  0  0  0  0  0  0  0  0  0  0
   12.4010    3.7240   23.5200 H   0  0  0  0  0  0  0  0  0  0  0  0
   10.0540    3.4290   22.0170 H   0  0  0  0  0  0  0  0  0  0  0  0
    8.1010    4.9450   22.7910 H   0  0  0  0  0  0  0  0  0  0  0  0
    9.2630    5.4140   21.6600 H   0  0  0  0  0  0  0  0  0  0  0  0
    9.1140    2.8010   24.4600 H   0  0  0  0  0  0  0  0  0  0  0  0
    9.0380    1.8540   22.9640 H   0  0  0  0  0  0  0  0  0  0  0  0
   10.2030    0.5980   24.9430 H   0  0  0  0  0  0  0  0  0  0  0  0
   11.2250    2.0000   24.8520 H   0  0  0  0  0  0  0  0  0  0  0  0
  1  2  1  0
  2  3  1  0
  3  4  2  0
  4  5  1  0
  5  6  2  0
  6  7  1  0
  7  8  1  0
  8  9  1  0
  9 10  1  0
 10 11  1  0
 11 12  1  0
 11 13  1  0
  8 14  1  0
 13 14  1  0
 15  3  1  1
  6 15  1  0
 15 16  1  0
 16 17  1  0
 17 18  1  0
 18 19  1  0
 19 20  1  6
 19 21  2  0
 19 22  2  0
 18 23  1  0
 15 24  1  0
 23 24  1  0
  1 25  1  0
  1 26  1  0
  1 27  1  0
  5 28  1  0
  7 29  1  0
  7 30  1  0
  9 31  1  0
  9 32  1  0
 10 33  1  0
 10 34  1  0
 11 35  1  1
 12 36  1  0
 13 37  1  0
 13 38  1  0
 14 39  1  0
 14 40  1  0
 16 41  1  0
 16 42  1  0
 17 43  1  0
 17 44  1  0
 18 45  1  6
 20 46  1  0
 20 47  1  0
 23 48  1  0
 23 49  1  0
 24 50  1  0
 24 51  1  0
M  CHG  1   4   1
M  END
