LIG
     RDKit          3D

 52 54  0  0  0  0  0  0  0  0999 V2000
   13.9850   -1.7380   20.5810 N   0  0  0  0  0  0  0  0  0  0  0  0
   13.2800   -1.3010   21.3800 C   0  0  0  0  0  0  0  0  0  0  0  0
   12.7980   -0.9205   22.3140 C   0  0  0  0  0  0  0  0  0  0  0  0
   12.9795    0.2665   23.1680 C   0  0  0  0  0  0  0  0  0  0  0  0
   11.9485    0.5315   24.0210 C   0  0  0  0  0  0  0  0  0  0  0  0
   10.7560    0.4300   24.2400 C   0  0  0  0  0  0  0  0  0  0  0  0
    9.8330    1.0540   25.2470 C   0  0  0  0  0  0  0  0  0  0  0  0
    8.4500    0.7150   24.9220 N   0  0  0  0  0  0  0  0  0  0  0  0
    7.7030    1.4680   24.0150 C   0  0  0  0  0  0  0  0  0  0  0  0
    8.1720    2.4660   23.4420 O   0  0  0  0  0  0  0  0  0  0  0  0
    6.3360    0.9640   23.8050 N   0  0  0  0  0  0  0  0  0  0  0  0
    5.6140    1.6470   22.6990 C   0  0  0  0  0  0  0  0  0  0  0  0
    4.2210    1.0320   22.4570 C   0  0  0  0  0  0  0  0  0  0  0  0
    3.4750    1.0690   23.6570 O   0  0  0  0  0  0  0  0  0  0  0  0
    4.0500    0.3480   24.7320 C   0  0  0  0  0  0  0  0  0  0  0  0
    5.4800    0.8530   25.0320 C   0  0  0  0  0  0  0  0  0  0  0  0
   10.7585   -0.9810   23.6775 C   0  0  0  0  0  0  0  0  0  0  0  0
    9.6990   -1.5000   24.2460 C   0  0  0  0  0  0  0  0  0  0  0  0
    9.5440   -2.6880   24.5510 N   0  0  0  0  0  0  0  0  0  0  0  0
    8.3310   -2.8350   25.3360 C   0  0  0  0  0  0  0  0  0  0  0  0
    8.0790   -4.2690   25.8080 C   0  0  0  0  0  0  0  0  0  0  0  0
    9.1820   -4.8160   26.5550 C   0  0  0  0  0  0  0  0  0  0  0  0
    9.3040   -4.2150   27.8200 O   0  0  0  0  0  0  0  0  0  0  0  0
   10.4200   -4.6660   25.8330 C   0  0  0  0  0  0  0  0  0  0  0  0
   10.6550   -3.2590   25.2740 C   0  0  0  0  0  0  0  0  0  0  0  0
   11.4990   -1.5925   22.6525 C   0  0  0  0  0  0  0  0  0  0  0  0
   13.8494    0.8439   23.0801 H   0  0  0  0  0  0  0  0  0  0  0  0
   12.5323    1.1680   24.9976 H   0  0  0  0  0  0  0  0  0  0  0  0
   10.0819    0.6999   26.2445 H   0  0  0  0  0  0  0  0  0  0  0  0
    9.8621    2.1383   25.2101 H   0  0  0  0  0  0  0  0  0  0  0  0
    8.2495   -0.2754   24.8868 H   0  0  0  0  0  0  0  0  0  0  0  0
    6.2073    1.6035   21.7830 H   0  0  0  0  0  0  0  0  0  0  0  0
    5.5132    2.6914   23.0090 H   0  0  0  0  0  0  0  0  0  0  0  0
    4.3134    0.0087   22.1249 H   0  0  0  0  0  0  0  0  0  0  0  0
    3.6943    1.6072   21.7123 H   0  0  0  0  0  0  0  0  0  0  0  0
    3.4269    0.4781   25.6063 H   0  0  0  0  0  0  0  0  0  0  0  0
    4.0829   -0.6982   24.4677 H   0  0  0  0  0  0  0  0  0  0  0  0
    5.4345    1.8240   25.5442 H   0  0  0  0  0  0  0  0  0  0  0  0
    6.0039    0.1516   25.6971 H   0  0  0  0  0  0  0  0  0  0  0  0
    9.3418   -0.8105   25.1818 H   0  0  0  0  0  0  0  0  0  0  0  0
    8.7745   -1.1340   23.5605 H   0  0  0  0  0  0  0  0  0  0  0  0
    8.3513   -2.1462   26.2142 H   0  0  0  0  0  0  0  0  0  0  0  0
    7.4370   -2.5169   24.7509 H   0  0  0  0  0  0  0  0  0  0  0  0
    7.8672   -4.8969   24.9195 H   0  0  0  0  0  0  0  0  0  0  0  0
    7.1258   -4.2763   26.3762 H   0  0  0  0  0  0  0  0  0  0  0  0
    9.0095   -5.9089   26.7594 H   0  0  0  0  0  0  0  0  0  0  0  0
    9.6663   -3.3176   27.6916 H   0  0  0  0  0  0  0  0  0  0  0  0
   10.5079   -5.4045   24.9935 H   0  0  0  0  0  0  0  0  0  0  0  0
   11.2884   -4.9362   26.4872 H   0  0  0  0  0  0  0  0  0  0  0  0
   11.5393   -3.3062   24.6054 H   0  0  0  0  0  0  0  0  0  0  0  0
   10.9693   -2.6195   26.1268 H   0  0  0  0  0  0  0  0  0  0  0  0
   11.2167   -2.4403   22.1369 H   0  0  0  0  0  0  0  0  0  0  0  0
  1  2  3  0
  2  3  1  0
  3  4  4  0
  4  5  4  0
  5  6  4  0
  6  7  1  0
  7  8  1  0
  8  9  1  0
  9 10  2  0
  9 11  1  0
 11 12  1  0
 12 13  1  0
 13 14  1  0
 14 15  1  0
 15 16  1  0
  6 17  4  0
 17 18  1  0
 18 19  1  0
 19 20  1  0
 20 21  1  0
 21 22  1  0
 22 23  1  0
 22 24  1  0
 24 25  1  0
 17 26  4  0
 26  3  4  0
 16 11  1  0
 25 19  1  0
  4 27  1  0
  5 28  1  0
  7 29  1  0
  7 30  1  0
  8 31  1  0
 12 32  1  0
 12 33  1  0
 13 34  1  0
 13 35  1  0
 15 36  1  0
 15 37  1  0
 16 38  1  0
 16 39  1  0
 18 40  1  0
 18 41  1  0
 20 42  1  0
 20 43  1  0
 21 44  1  0
 21 45  1  0
 22 46  1  0
 23 47  1  0
 24 48  1  0
 24 49  1  0
 25 50  1  0
 25 51  1  0
 26 52  1  0
M  END
