LIG
     RDKit          3D

 51 53  0  0  0  0  0  0  0  0999 V2000
   13.6250   -2.3810   24.3190 C   0  0  0  0  0  0  0  0  0  0  0  0
   13.1350   -1.0850   24.5660 O   0  0  0  0  0  0  0  0  0  0  0  0
   13.2215   -0.0670   23.4730 C   0  0  0  0  0  0  0  0  0  0  0  0
   13.5535   -0.7420   22.4325 O   0  0  0  0  0  3  0  0  0  0  0  0
   11.7160   -1.7870   22.5590 C   0  0  0  0  0  0  0  0  0  0  0  0
   11.0750   -1.1430   23.6660 C   0  0  0  0  0  0  0  0  0  0  0  0
    9.6990   -1.5000   24.2460 C   0  0  0  0  0  0  0  0  0  0  0  0
    9.5440   -2.6880   24.5510 N   0  0  0  0  0  0  0  0  0  0  0  0
   10.6550   -3.2590   25.2740 C   0  0  0  0  0  0  0  0  0  0  0  0
   10.4200   -4.6660   25.8330 C   0  0  0  0  0  0  0  0  0  0  0  0
    9.1820   -4.8160   26.5550 C   0  0  0  0  0  0  0  0  0  0  0  0
    9.3040   -4.2150   27.8200 O   0  0  0  0  0  0  0  0  0  0  0  0
    8.0790   -4.2690   25.8080 C   0  0  0  0  0  0  0  0  0  0  0  0
    8.3310   -2.8350   25.3360 C   0  0  0  0  0  0  0  0  0  0  0  0
   12.2365    0.5685   23.8970 C   0  0  0  0  0  0  0  0  0  0  0  0
   13.0360    2.3020   23.0200 C   0  0  0  0  0  0  0  0  0  0  0  0
   12.3650    3.5080   23.0890 C   0  0  0  0  0  0  0  0  0  0  0  0
   11.1470    3.5810   23.7500 C   0  0  0  0  0  0  0  0  0  0  0  0
   10.2820    5.1680   23.8420 S   0  0  0  0  0  6  0  0  0  0  0  0
    8.8600    5.1380   22.8970 N   0  0  0  0  0  0  0  0  0  0  0  0
    9.9940    5.5050   25.2370 O   0  0  0  0  0  0  0  0  0  0  0  0
   11.1550    6.2720   23.4300 O   0  0  0  0  0  0  0  0  0  0  0  0
   10.5980    2.4480   24.3410 C   0  0  0  0  0  0  0  0  0  0  0  0
   11.2750    1.2380   24.2650 C   0  0  0  0  0  0  0  0  0  0  0  0
   14.3304   -2.6893   25.1021 H   0  0  0  0  0  0  0  0  0  0  0  0
   14.1597   -2.3765   23.3617 H   0  0  0  0  0  0  0  0  0  0  0  0
   14.7212   -2.3801   24.2540 H   0  0  0  0  0  0  0  0  0  0  0  0
   11.7836   -2.3911   21.8497 H   0  0  0  0  0  0  0  0  0  0  0  0
    9.5035   -0.7264   25.0623 H   0  0  0  0  0  0  0  0  0  0  0  0
    9.0043   -1.1083   23.4278 H   0  0  0  0  0  0  0  0  0  0  0  0
   10.9226   -2.5856   26.1096 H   0  0  0  0  0  0  0  0  0  0  0  0
   11.5657   -3.2709   24.6458 H   0  0  0  0  0  0  0  0  0  0  0  0
   11.3011   -4.9148   26.4717 H   0  0  0  0  0  0  0  0  0  0  0  0
   10.4778   -5.3840   24.9801 H   0  0  0  0  0  0  0  0  0  0  0  0
    9.0061   -5.8897   26.7654 H   0  0  0  0  0  0  0  0  0  0  0  0
    9.7723   -4.8025   28.4393 H   0  0  0  0  0  0  0  0  0  0  0  0
    7.1429   -4.2574   26.4046 H   0  0  0  0  0  0  0  0  0  0  0  0
    7.8489   -4.8909   24.9188 H   0  0  0  0  0  0  0  0  0  0  0  0
    7.4585   -2.4865   24.7764 H   0  0  0  0  0  0  0  0  0  0  0  0
    8.3978   -2.1823   26.2119 H   0  0  0  0  0  0  0  0  0  0  0  0
   13.1784    1.8261   22.0160 H   0  0  0  0  0  0  0  0  0  0  0  0
   14.0423    2.1994   23.5010 H   0  0  0  0  0  0  0  0  0  0  0  0
   12.2496    3.9295   22.0107 H   0  0  0  0  0  0  0  0  0  0  0  0
   13.0859    4.3274   23.4952 H   0  0  0  0  0  0  0  0  0  0  0  0
   10.4378    3.3012   22.5078 H   0  0  0  0  0  0  0  0  0  0  0  0
    8.1128    4.7259   23.4556 H   0  0  0  0  0  0  0  0  0  0  0  0
    9.0478    4.5975   22.0527 H   0  0  0  0  0  0  0  0  0  0  0  0
   10.3308    2.6693   25.4511 H   0  0  0  0  0  0  0  0  0  0  0  0
    9.5151    2.2891   23.9506 H   0  0  0  0  0  0  0  0  0  0  0  0
   10.2232    0.4755   23.9957 H   0  0  0  0  0  0  0  0  0  0  0  0
   11.0377    0.8236   25.5127 H   0  0  0  0  0  0  0  0  0  0  0  0
  1  2  1  0
  2  3  1  0
  3  4  2  0
  4  5  1  0
  5  6  2  0
  6  7  1  0
  7  8  1  0
  8  9  1  0
  9 10  1  0
 10 11  1  0
 11 12  1  0
 11 13  1  0
 13 14  1  0
  6 15  1  0
 15 16  1  0
 16 17  1  0
 17 18  1  0
 18 19  1  0
 19 20  1  0
 19 21  2  0
 19 22  2  0
 18 23  1  0
 23 24  1  0
 15  3  1  0
 14  8  1  0
 24 15  1  0
  1 25  1  0
  1 26  1  0
  1 27  1  0
  5 28  1  0
  7 29  1  0
  7 30  1  0
  9 31  1  0
  9 32  1  0
 10 33  1  0
 10 34  1  0
 11 35  1  0
 12 36  1  0
 13 37  1  0
 13 38  1  0
 14 39  1  0
 14 40  1  0
 16 41  1  0
 16 42  1  0
 17 43  1  0
 17 44  1  0
 18 45  1  0
 20 46  1  0
 20 47  1  0
 23 48  1  0
 23 49  1  0
 24 50  1  0
 24 51  1  0
M  CHG  1   4   1
M  END
