
     RDKit          3D

 37 39  0  0  0  0  0  0  0  0999 V2000
    8.9660   -4.3070   27.7970 O   0  0  0  0  0  0  0  0  0  0  0  0
    9.1350   -4.9130   26.5260 C   0  0  2  0  0  0  0  0  0  0  0  0
   10.5500   -4.7490   26.0830 C   0  0  0  0  0  0  0  0  0  0  0  0
   10.8610   -3.6570   25.2740 C   0  0  0  0  0  0  0  0  0  0  0  0
    9.4570   -3.4870   24.3180 S   0  0  2  0  0  0  0  0  0  0  0  0
    8.8810   -1.8660   24.5000 C   0  0  1  0  0  0  0  0  0  0  0  0
    9.0360   -1.1230   23.2370 C   0  0  0  0  0  0  0  0  0  0  0  0
   10.4450   -0.8100   23.1590 N   0  0  0  0  0  0  0  0  0  0  0  0
   10.6890    0.6270   23.1240 C   0  0  0  0  0  0  0  0  0  0  0  0
   12.0760    0.9820   23.5790 C   0  0  0  0  0  0  0  0  0  0  0  0
   12.9890    0.2550   22.8190 C   0  0  0  0  0  0  0  0  0  0  0  0
   12.6320   -1.0290   22.1240 C   0  0  0  0  0  0  0  0  0  0  0  0
   13.5280   -1.6930   21.3910 F   0  0  0  0  0  0  0  0  0  0  0  0
   11.2030   -1.5410   22.2610 C   0  0  0  0  0  0  0  0  0  0  0  0
    7.5420   -1.9840   25.0540 N   0  0  0  0  0  0  0  0  0  0  0  0
    7.5000   -3.1220   25.9730 N   0  0  0  0  0  0  0  0  0  0  0  0
    8.2790   -4.1990   25.4430 C   0  0  2  0  0  0  0  0  0  0  0  0
    8.0350   -4.0440   27.8790 H   0  0  0  0  0  0  0  0  0  0  0  0
    8.9020   -5.9830   26.5730 H   0  0  0  0  0  0  0  0  0  0  0  0
   11.2000   -4.6970   26.9550 H   0  0  0  0  0  0  0  0  0  0  0  0
   10.8320   -5.6640   25.5610 H   0  0  0  0  0  0  0  0  0  0  0  0
   11.7450   -3.7840   24.6450 H   0  0  0  0  0  0  0  0  0  0  0  0
   10.9900   -2.7700   25.8800 H   0  0  0  0  0  0  0  0  0  0  0  0
    9.4520   -4.0240   23.0760 H   0  0  0  0  0  0  0  0  0  0  0  0
    9.5460   -1.3980   25.2380 H   0  0  0  0  0  0  0  0  0  0  0  0
    8.6780   -1.7130   22.3820 H   0  0  0  0  0  0  0  0  0  0  0  0
    8.4760   -0.1800   23.2380 H   0  0  0  0  0  0  0  0  0  0  0  0
    9.9370    1.1280   23.7300 H   0  0  0  0  0  0  0  0  0  0  0  0
   10.6060    0.9670   22.0970 H   0  0  0  0  0  0  0  0  0  0  0  0
   12.3090    0.7880   24.6300 H   0  0  0  0  0  0  0  0  0  0  0  0
   12.2420    2.0500   23.4070 H   0  0  0  0  0  0  0  0  0  0  0  0
   13.9960    0.6470   22.7280 H   0  0  0  0  0  0  0  0  0  0  0  0
   11.0710   -2.5960   22.4870 H   0  0  0  0  0  0  0  0  0  0  0  0
   10.7560   -1.4070   21.2770 H   0  0  0  0  0  0  0  0  0  0  0  0
    6.8280   -2.0140   24.3230 H   0  0  0  0  0  0  0  0  0  0  0  0
    6.5570   -3.4440   26.1840 H   0  0  0  0  0  0  0  0  0  0  0  0
    7.6460   -4.9030   24.8900 H   0  0  0  0  0  0  0  0  0  0  0  0
  1  2  1  0
  2  3  1  0
  3  4  1  0
  4  5  1  0
  5  6  1  0
  6  7  1  0
  7  8  1  0
  8  9  1  0
  9 10  1  0
 10 11  1  0
 11 12  2  0
 12 13  1  0
  8 14  1  0
 12 14  1  0
  6 15  1  0
 15 16  1  0
  2 17  1  0
  5 17  1  0
 16 17  1  0
  1 18  1  0
  2 19  1  1
  3 20  1  0
  3 21  1  0
  4 22  1  0
  4 23  1  0
  5 24  1  6
  6 25  1  1
  7 26  1  0
  7 27  1  0
  9 28  1  0
  9 29  1  0
 10 30  1  0
 10 31  1  0
 11 32  1  0
 14 33  1  0
 14 34  1  0
 15 35  1  0
 16 36  1  0
 17 37  1  6
M  END
