LIG
     RDKit          3D

 37 39  0  0  0  0  0  0  0  0999 V2000
    9.3040   -4.2150   27.8200 O   0  0  0  0  0  0  0  0  0  0  0  0
    9.2585   -5.0915   26.4150 C   0  0  0  0  0  0  0  0  0  0  0  0
   10.4200   -4.6660   25.8330 C   0  0  0  0  0  0  0  0  0  0  0  0
   10.6550   -3.2590   25.2740 C   0  0  0  0  0  0  0  0  0  0  0  0
    9.5105   -3.1335   24.3220 S   0  0  0  0  0  4  0  0  0  0  0  0
    9.3245   -1.7620   24.1925 C   0  0  0  0  0  0  0  0  0  0  0  0
    9.0150   -1.0220   22.9690 C   0  0  0  0  0  0  0  0  0  0  0  0
   10.6050   -0.7960   23.2580 N   0  0  0  0  0  0  0  0  0  0  0  0
   10.4750    0.3550   23.7830 C   0  0  0  0  0  0  0  0  0  0  0  0
   11.8865    0.6140   23.7740 C   0  0  0  0  0  0  0  0  0  0  0  0
   13.0060    0.2640   23.1555 C   0  0  0  0  0  0  0  0  0  0  0  0
   12.8300   -0.9395   22.1900 C   0  0  0  0  0  0  0  0  0  0  0  0
   13.4930   -1.4840   21.5620 F   0  0  0  0  0  0  0  0  0  0  0  0
   11.4970   -1.6050   22.4815 C   0  0  0  0  0  0  0  0  0  0  0  0
    8.4300   -1.7410   25.3910 N   0  0  0  0  0  0  0  0  0  0  0  0
    8.4255   -2.8755   25.8110 N   0  0  0  0  0  0  0  0  0  0  0  0
    8.5850   -4.1305   25.7225 C   0  0  0  0  0  0  0  0  0  0  0  0
    8.6020   -4.6139   28.3045 H   0  0  0  0  0  0  0  0  0  0  0  0
    8.9435   -5.9252   26.6211 H   0  0  0  0  0  0  0  0  0  0  0  0
   11.3912   -4.8886   26.5136 H   0  0  0  0  0  0  0  0  0  0  0  0
   10.7386   -5.4034   24.9411 H   0  0  0  0  0  0  0  0  0  0  0  0
   11.6682   -3.2258   24.8162 H   0  0  0  0  0  0  0  0  0  0  0  0
   10.6570   -2.5373   26.1212 H   0  0  0  0  0  0  0  0  0  0  0  0
    9.5991   -4.0615   23.2153 H   0  0  0  0  0  0  0  0  0  0  0  0
   10.2831   -1.2278   24.7177 H   0  0  0  0  0  0  0  0  0  0  0  0
    9.0334   -1.6274   22.2070 H   0  0  0  0  0  0  0  0  0  0  0  0
    8.5903   -0.1894   23.1177 H   0  0  0  0  0  0  0  0  0  0  0  0
   10.0929    0.3867   24.7646 H   0  0  0  0  0  0  0  0  0  0  0  0
    9.9838    1.0538   23.1577 H   0  0  0  0  0  0  0  0  0  0  0  0
   12.1988    0.5870   25.0030 H   0  0  0  0  0  0  0  0  0  0  0  0
   11.9344    1.8795   23.8307 H   0  0  0  0  0  0  0  0  0  0  0  0
   13.9755    0.6273   23.1858 H   0  0  0  0  0  0  0  0  0  0  0  0
   11.6907   -2.5774   22.9392 H   0  0  0  0  0  0  0  0  0  0  0  0
   11.0373   -1.8253   21.5118 H   0  0  0  0  0  0  0  0  0  0  0  0
    7.5533   -1.2517   25.1268 H   0  0  0  0  0  0  0  0  0  0  0  0
    7.3277   -2.8980   26.4773 H   0  0  0  0  0  0  0  0  0  0  0  0
    7.7411   -4.4518   24.9955 H   0  0  0  0  0  0  0  0  0  0  0  0
  1  2  1  0
  2  3  1  0
  3  4  1  0
  4  5  1  0
  5  6  1  0
  6  7  1  0
  7  8  1  0
  8  9  1  0
  9 10  1  0
 10 11  1  0
 11 12  2  0
 12 13  1  0
 12 14  1  0
  6 15  1  0
 15 16  1  0
 16 17  1  0
 17  2  1  0
 17  5  1  0
 14  8  1  0
  1 18  1  0
  2 19  1  0
  3 20  1  0
  3 21  1  0
  4 22  1  0
  4 23  1  0
  5 24  1  0
  6 25  1  0
  7 26  1  0
  7 27  1  0
  9 28  1  0
  9 29  1  0
 10 30  1  0
 10 31  1  0
 11 32  1  0
 14 33  1  0
 14 34  1  0
 15 35  1  0
 16 36  1  0
 17 37  1  0
M  END
