
     RDKit          3D

 43 44  0  0  0  0  0  0  0  0999 V2000
    8.9930    0.1880   27.9370 C   0  0  0  0  0  0  0  0  0  0  0  0
    8.1490   -0.4920   26.9120 C   0  0  0  0  0  0  0  0  0  0  0  0
    8.5970   -0.3200   25.6400 N   0  0  0  0  0  0  0  0  0  0  0  0
    9.4630   -1.3050   25.0680 C   0  0  2  0  0  0  0  0  0  0  0  0
   10.2160   -0.6700   23.9210 C   0  0  1  0  0  0  0  0  0  0  0  0
   11.3870    0.1050   24.4410 C   0  0  0  0  0  0  0  0  0  0  0  0
   12.5160    0.0750   23.6970 C   0  0  0  0  0  0  0  0  0  0  0  0
   11.9650   -0.6710   22.2430 S   0  0  1  0  0  0  0  0  0  0  0  0
   12.9670   -1.8660   21.4780 C   0  0  0  0  0  0  0  0  0  0  0  0
   13.5030   -2.6330   20.8570 N   0  0  0  0  0  0  0  0  0  0  0  0
   10.5490   -1.5010   22.8290 C   0  0  0  0  0  0  0  0  0  0  0  0
    8.7490   -2.5080   24.8510 N   0  0  0  0  0  0  0  0  0  0  0  0
    7.4300   -2.5070   25.1870 C   0  0  0  0  0  0  0  0  0  0  0  0
    7.1060   -3.8430   25.8920 C   0  0  0  0  0  0  0  0  0  0  0  0
    8.2250   -4.3410   26.4980 C   0  0  1  0  0  0  0  0  0  0  0  0
    8.1980   -5.1340   27.4200 O   0  0  0  0  0  0  0  0  0  0  0  0
    9.1480   -4.7260   25.5410 C   0  0  0  0  0  0  0  0  0  0  0  0
    9.4070   -3.7880   24.5470 C   0  0  0  0  0  0  0  0  0  0  0  0
    8.6710    1.2200   28.0980 H   0  0  0  0  0  0  0  0  0  0  0  0
   10.0270    0.2000   27.5950 H   0  0  0  0  0  0  0  0  0  0  0  0
    8.9230   -0.3580   28.8810 H   0  0  0  0  0  0  0  0  0  0  0  0
    7.1330   -0.0940   27.0050 H   0  0  0  0  0  0  0  0  0  0  0  0
    8.1240   -1.5600   27.1490 H   0  0  0  0  0  0  0  0  0  0  0  0
    7.8470   -0.0170   25.0090 H   0  0  0  0  0  0  0  0  0  0  0  0
   10.1730   -1.5100   25.8630 H   0  0  0  0  0  0  0  0  0  0  0  0
    9.5430    0.0770   23.4830 H   0  0  0  0  0  0  0  0  0  0  0  0
   11.0880    1.1550   24.5120 H   0  0  0  0  0  0  0  0  0  0  0  0
   11.6180   -0.2060   25.4610 H   0  0  0  0  0  0  0  0  0  0  0  0
   12.8940    1.0790   23.4720 H   0  0  0  0  0  0  0  0  0  0  0  0
   13.2810   -0.5170   24.1830 H   0  0  0  0  0  0  0  0  0  0  0  0
   11.5990    0.2950   21.3760 H   0  0  0  0  0  0  0  0  0  0  0  0
   10.8410   -2.5160   23.1090 H   0  0  0  0  0  0  0  0  0  0  0  0
    9.7950   -1.5170   22.0380 H   0  0  0  0  0  0  0  0  0  0  0  0
    6.8550   -2.5040   24.2530 H   0  0  0  0  0  0  0  0  0  0  0  0
    7.1550   -1.5890   25.6930 H   0  0  0  0  0  0  0  0  0  0  0  0
    6.5360   -4.5490   25.2940 H   0  0  0  0  0  0  0  0  0  0  0  0
    6.4010   -3.5890   26.6920 H   0  0  0  0  0  0  0  0  0  0  0  0
    8.5860   -3.4560   27.0040 H   0  0  0  0  0  0  0  0  0  0  0  0
    8.2140   -4.6240   28.2470 H   0  0  0  0  0  0  0  0  0  0  0  0
   10.0670   -5.0550   26.0230 H   0  0  0  0  0  0  0  0  0  0  0  0
    8.7700   -5.6390   25.0690 H   0  0  0  0  0  0  0  0  0  0  0  0
    8.9360   -4.1250   23.6160 H   0  0  0  0  0  0  0  0  0  0  0  0
   10.4530   -3.7570   24.3020 H   0  0  0  0  0  0  0  0  0  0  0  0
  1  2  1  0
  2  3  1  0
  3  4  1  0
  4  5  1  0
  5  6  1  0
  6  7  1  0
  7  8  1  0
  8  9  1  0
  9 10  3  0
  5 11  1  0
  8 11  1  0
  4 12  1  0
 12 13  1  0
 13 14  1  0
 14 15  1  0
 15 16  1  0
 15 17  1  0
 12 18  1  0
 17 18  1  0
  1 19  1  0
  1 20  1  0
  1 21  1  0
  2 22  1  0
  2 23  1  0
  3 24  1  0
  4 25  1  1
  5 26  1  6
  6 27  1  0
  6 28  1  0
  7 29  1  0
  7 30  1  0
  8 31  1  6
 11 32  1  0
 11 33  1  0
 13 34  1  0
 13 35  1  0
 14 36  1  0
 14 37  1  0
 15 38  1  1
 16 39  1  0
 17 40  1  0
 17 41  1  0
 18 42  1  0
 18 43  1  0
M  END
