LIG
     RDKit          3D

 53 56  0  0  0  0  0  0  0  0999 V2000
   13.4430   -1.1925   22.9365 C   0  0  0  0  0  0  0  0  0  0  0  0
   12.1505   -0.4625   23.9540 N   0  0  0  0  0  0  0  0  0  0  0  0
   12.6475    0.2445   23.3220 C   0  0  0  0  0  0  0  0  0  0  0  0
   10.6540    0.8680   23.3430 C   0  0  0  0  0  0  0  0  0  0  0  0
   10.4505   -0.6195   23.1440 N   0  0  0  0  0  0  0  0  0  0  0  0
    9.0660    0.2300   21.5610 C   0  0  0  0  0  0  0  0  0  0  0  0
    8.9960    1.3830   21.1430 O   0  0  0  0  0  0  0  0  0  0  0  0
    8.3080   -0.8880   20.8630 C   0  0  0  0  0  0  0  0  0  0  0  0
    7.4330   -0.3020   19.8060 C   0  0  0  0  0  0  0  0  0  0  0  0
    7.6450   -0.3300   18.4600 C   0  0  0  0  0  0  0  0  0  0  0  0
    6.6410    0.3430   17.8150 N   0  0  0  0  0  0  0  0  0  0  0  0
    5.7600    0.8140   18.7420 C   0  0  0  0  0  0  0  0  0  0  0  0
    4.6510    1.5300   18.5060 N   0  0  0  0  0  0  0  0  0  0  0  0
    3.9600    1.8790   19.5990 C   0  0  0  0  0  0  0  0  0  0  0  0
    4.3240    1.5630   20.9050 C   0  0  0  0  0  0  0  0  0  0  0  0
    5.4760    0.8390   21.1280 C   0  0  0  0  0  0  0  0  0  0  0  0
    6.2270    0.4400   20.0170 C   0  0  0  0  0  0  0  0  0  0  0  0
    9.8565   -1.4770   23.6875 C   0  0  0  0  0  0  0  0  0  0  0  0
    9.5440   -2.6880   24.5510 N   0  0  0  0  0  0  0  0  0  0  0  0
   10.6550   -3.2590   25.2740 C   0  0  0  0  0  0  0  0  0  0  0  0
   10.4200   -4.6660   25.8330 C   0  0  0  0  0  0  0  0  0  0  0  0
    9.1820   -4.8160   26.5550 C   0  0  0  0  0  0  0  0  0  0  0  0
    9.3040   -4.2150   27.8200 O   0  0  0  0  0  0  0  0  0  0  0  0
    8.0790   -4.2690   25.8080 C   0  0  0  0  0  0  0  0  0  0  0  0
    8.3310   -2.8350   25.3360 C   0  0  0  0  0  0  0  0  0  0  0  0
   11.5915   -1.8125   22.7755 C   0  0  0  0  0  0  0  0  0  0  0  0
   13.8526   -1.9018   23.5892 H   0  0  0  0  0  0  0  0  0  0  0  0
   13.1824   -2.2025   22.9052 H   0  0  0  0  0  0  0  0  0  0  0  0
   12.8877   -1.6048   22.1494 H   0  0  0  0  0  0  0  0  0  0  0  0
   12.9308    1.2239   23.6497 H   0  0  0  0  0  0  0  0  0  0  0  0
   12.5833    0.2207   22.2470 H   0  0  0  0  0  0  0  0  0  0  0  0
   10.6645    1.0872   24.2782 H   0  0  0  0  0  0  0  0  0  0  0  0
   10.7507    1.3648   22.5283 H   0  0  0  0  0  0  0  0  0  0  0  0
    8.9919   -1.5862   20.3933 H   0  0  0  0  0  0  0  0  0  0  0  0
    7.7148   -1.4102   21.6062 H   0  0  0  0  0  0  0  0  0  0  0  0
    8.4374   -0.8058   17.8665 H   0  0  0  0  0  0  0  0  0  0  0  0
    6.5415    0.4751   16.8248 H   0  0  0  0  0  0  0  0  0  0  0  0
    3.0578    2.4479   19.4105 H   0  0  0  0  0  0  0  0  0  0  0  0
    3.6959    1.8889   21.7348 H   0  0  0  0  0  0  0  0  0  0  0  0
    5.7911    0.5795   22.1402 H   0  0  0  0  0  0  0  0  0  0  0  0
   11.0066   -1.1901   24.7032 H   0  0  0  0  0  0  0  0  0  0  0  0
   10.9387   -2.6205   26.1402 H   0  0  0  0  0  0  0  0  0  0  0  0
   11.5691   -3.2815   24.6338 H   0  0  0  0  0  0  0  0  0  0  0  0
   10.4915   -5.3967   24.9844 H   0  0  0  0  0  0  0  0  0  0  0  0
   11.3040   -4.9472   26.4668 H   0  0  0  0  0  0  0  0  0  0  0  0
    9.0044   -5.9088   26.7619 H   0  0  0  0  0  0  0  0  0  0  0  0
    8.4183   -4.1581   28.2236 H   0  0  0  0  0  0  0  0  0  0  0  0
    7.1355   -4.2831   26.4036 H   0  0  0  0  0  0  0  0  0  0  0  0
    7.8326   -4.8960   24.9201 H   0  0  0  0  0  0  0  0  0  0  0  0
    7.4522   -2.4837   24.7627 H   0  0  0  0  0  0  0  0  0  0  0  0
    8.3749   -2.2119   26.2453 H   0  0  0  0  0  0  0  0  0  0  0  0
   11.8367   -2.5805   23.2069 H   0  0  0  0  0  0  0  0  0  0  0  0
   11.4874   -1.3308   22.0058 H   0  0  0  0  0  0  0  0  0  0  0  0
  1  2  1  0
  2  3  1  0
  3  4  1  0
  4  5  1  0
  5  6  1  0
  6  7  2  0
  6  8  1  0
  8  9  1  0
  9 10  4  0
 10 11  4  0
 11 12  4  0
 12 13  4  0
 13 14  4  0
 14 15  4  0
 15 16  4  0
 16 17  4  0
  5 18  1  0
 18 19  1  0
 19 20  1  0
 20 21  1  0
 21 22  1  0
 22 23  1  0
 22 24  1  0
 24 25  1  0
 18 26  1  0
 26  2  1  0
 17  9  4  0
 25 19  1  0
 17 12  4  0
  1 27  1  0
  1 28  1  0
  1 29  1  0
  3 30  1  0
  3 31  1  0
  4 32  1  0
  4 33  1  0
  8 34  1  0
  8 35  1  0
 10 36  1  0
 11 37  1  0
 14 38  1  0
 15 39  1  0
 16 40  1  0
 18 41  1  0
 20 42  1  0
 20 43  1  0
 21 44  1  0
 21 45  1  0
 22 46  1  0
 23 47  1  0
 24 48  1  0
 24 49  1  0
 25 50  1  0
 25 51  1  0
 26 52  1  0
 26 53  1  0
M  END
