
     RDKit          3D

 52 54  0  0  0  0  0  0  0  0999 V2000
   13.4790   -2.7060   20.7320 N   0  0  0  0  0  0  0  0  0  0  0  0
   12.9010   -2.0420   21.4300 C   0  0  0  0  0  0  0  0  0  0  0  0
   12.0880   -1.2670   22.3670 C   0  0  0  0  0  0  0  0  0  0  0  0
   12.6650   -0.1440   22.9640 C   0  0  0  0  0  0  0  0  0  0  0  0
   11.8350    0.6580   23.9370 C   0  0  0  0  0  0  0  0  0  0  0  0
   10.4590    0.1410   24.1570 C   0  0  0  0  0  0  0  0  0  0  0  0
    9.5460    0.7160   25.0070 C   0  0  0  0  0  0  0  0  0  0  0  0
    8.2850    0.4930   24.5870 N   0  0  0  0  0  0  0  0  0  0  0  0
    7.7270    1.6240   24.0740 C   0  0  0  0  0  0  0  0  0  0  0  0
    8.3230    2.5820   23.5920 O   0  0  0  0  0  0  0  0  0  0  0  0
    6.2360    1.7530   24.0730 N   0  0  0  0  0  0  0  0  0  0  0  0
    5.6220    1.7530   22.7060 C   0  0  0  0  0  0  0  0  0  0  0  0
    4.1340    1.8920   22.6340 C   0  0  0  0  0  0  0  0  0  0  0  0
    3.4790    1.5300   23.6190 O   0  0  0  0  0  0  0  0  0  0  0  0
    4.2320    0.6560   24.4910 C   0  0  0  0  0  0  0  0  0  0  0  0
    5.4030    1.1330   25.0600 C   0  0  0  0  0  0  0  0  0  0  0  0
    9.9050   -1.0300   23.5050 C   0  0  0  0  0  0  0  0  0  0  0  0
    8.5890   -1.5510   23.6570 C   0  0  0  0  0  0  0  0  0  0  0  0
    8.3380   -2.7910   24.4450 N   0  0  0  0  0  0  0  0  0  0  0  0
    7.2180   -2.6250   25.3720 C   0  0  0  0  0  0  0  0  0  0  0  0
    6.8700   -3.8390   26.0400 C   0  0  0  0  0  0  0  0  0  0  0  0
    8.1100   -4.6190   26.4270 C   0  0  2  0  0  0  0  0  0  0  0  0
    8.5330   -4.2600   27.7380 O   0  0  0  0  0  0  0  0  0  0  0  0
    9.1140   -4.5580   25.5160 C   0  0  0  0  0  0  0  0  0  0  0  0
    9.4510   -3.3380   24.9130 C   0  0  0  0  0  0  0  0  0  0  0  0
   10.7760   -1.6960   22.6140 C   0  0  0  0  0  0  0  0  0  0  0  0
   13.6850    0.1550   22.7410 H   0  0  0  0  0  0  0  0  0  0  0  0
   12.2290    1.5340   24.4230 H   0  0  0  0  0  0  0  0  0  0  0  0
    9.6480    0.2860   26.0090 H   0  0  0  0  0  0  0  0  0  0  0  0
    9.7180    1.7900   25.1120 H   0  0  0  0  0  0  0  0  0  0  0  0
    7.6850    0.0180   25.2440 H   0  0  0  0  0  0  0  0  0  0  0  0
    5.8610    0.7860   22.2460 H   0  0  0  0  0  0  0  0  0  0  0  0
    6.2230    2.4770   22.1620 H   0  0  0  0  0  0  0  0  0  0  0  0
    3.7610    1.3690   21.7460 H   0  0  0  0  0  0  0  0  0  0  0  0
    3.9020    2.9500   22.4380 H   0  0  0  0  0  0  0  0  0  0  0  0
    3.5290    0.3300   25.2640 H   0  0  0  0  0  0  0  0  0  0  0  0
    4.5060   -0.2270   23.9150 H   0  0  0  0  0  0  0  0  0  0  0  0
    5.1600    1.8820   25.8200 H   0  0  0  0  0  0  0  0  0  0  0  0
    5.9720    0.3600   25.5790 H   0  0  0  0  0  0  0  0  0  0  0  0
    7.9010   -0.8530   24.1150 H   0  0  0  0  0  0  0  0  0  0  0  0
    8.1060   -1.7380   22.7000 H   0  0  0  0  0  0  0  0  0  0  0  0
    7.5320   -1.9780   26.1840 H   0  0  0  0  0  0  0  0  0  0  0  0
    6.4420   -2.0660   24.8400 H   0  0  0  0  0  0  0  0  0  0  0  0
    6.1830   -4.5660   25.6320 H   0  0  0  0  0  0  0  0  0  0  0  0
    6.3530   -3.5440   26.9610 H   0  0  0  0  0  0  0  0  0  0  0  0
    7.8210   -5.6720   26.5300 H   0  0  0  0  0  0  0  0  0  0  0  0
    8.5330   -3.2920   27.8120 H   0  0  0  0  0  0  0  0  0  0  0  0
    8.6790   -5.1680   24.7360 H   0  0  0  0  0  0  0  0  0  0  0  0
   10.0020   -5.0960   25.8690 H   0  0  0  0  0  0  0  0  0  0  0  0
   10.1390   -3.4970   24.0810 H   0  0  0  0  0  0  0  0  0  0  0  0
    9.8810   -2.5680   25.5010 H   0  0  0  0  0  0  0  0  0  0  0  0
   10.4160   -2.5810   22.0950 H   0  0  0  0  0  0  0  0  0  0  0  0
  1  2  3  0
  2  3  1  0
  3  4  2  0
  4  5  1  0
  5  6  2  0
  6  7  1  0
  7  8  1  0
  8  9  1  0
  9 10  2  0
  9 11  1  0
 11 12  1  0
 12 13  1  0
 13 14  1  0
 14 15  1  0
 11 16  1  0
 15 16  1  0
  6 17  1  0
 17 18  1  0
 18 19  1  0
 19 20  1  0
 20 21  1  0
 21 22  1  0
 22 23  1  0
 22 24  1  0
 19 25  1  0
 24 25  1  0
  3 26  1  0
 17 26  2  0
  4 27  1  0
  5 28  1  0
  7 29  1  0
  7 30  1  0
  8 31  1  0
 12 32  1  0
 12 33  1  0
 13 34  1  0
 13 35  1  0
 15 36  1  0
 15 37  1  0
 16 38  1  0
 16 39  1  0
 18 40  1  0
 18 41  1  0
 20 42  1  0
 20 43  1  0
 21 44  1  0
 21 45  1  0
 22 46  1  1
 23 47  1  0
 24 48  1  0
 24 49  1  0
 25 50  1  0
 25 51  1  0
 26 52  1  0
M  END
