LIG
     RDKit          3D

 39 41  0  0  0  0  0  0  0  0999 V2000
   13.6250   -2.3810   24.3190 C   0  0  0  0  0  0  0  0  0  0  0  0
   13.1350   -1.0850   24.5660 O   0  0  0  0  0  0  0  0  0  0  0  0
   13.0375    0.1770   23.2075 C   0  0  0  0  0  0  0  0  0  0  0  0
   13.2265   -0.5675   22.3535 C   0  0  0  0  0  0  0  0  0  0  0  0
   13.4930   -1.4840   21.5620 F   0  0  0  0  0  0  0  0  0  0  0  0
   11.2780   -1.4230   22.4040 C   0  0  0  0  0  0  0  0  0  0  0  0
   10.1350   -0.4490   22.8500 N   0  0  0  0  0  0  0  0  0  0  0  0
    9.0150   -1.0220   22.9690 C   0  0  0  0  0  0  0  0  0  0  0  0
    8.9500   -2.0240   24.1390 C   0  0  0  0  0  0  0  0  0  0  0  0
    8.4300   -1.7410   25.3910 N   0  0  0  0  0  0  0  0  0  0  0  0
    8.5200   -2.9160   26.2860 N   0  0  0  0  0  0  0  0  0  0  0  0
    9.0910   -3.9920   25.6370 C   0  0  0  0  0  0  0  0  0  0  0  0
    9.3350   -5.3670   26.2750 C   0  0  0  0  0  0  0  0  0  0  0  0
    9.4770   -3.5790   24.0930 S   0  0  0  0  0  0  0  0  0  0  0  0
   10.8750    0.7965   24.0240 C   0  0  0  0  0  0  0  0  0  0  0  0
   10.5980    2.4480   24.3410 C   0  0  0  0  0  0  0  0  0  0  0  0
   11.1470    3.5810   23.7500 C   0  0  0  0  0  0  0  0  0  0  0  0
   10.2820    5.1680   23.8420 S   0  0  0  0  0  6  0  0  0  0  0  0
    8.8600    5.1380   22.8970 N   0  0  0  0  0  0  0  0  0  0  0  0
    9.9940    5.5050   25.2370 O   0  0  0  0  0  0  0  0  0  0  0  0
   11.1550    6.2720   23.4300 O   0  0  0  0  0  0  0  0  0  0  0  0
   12.3650    3.5080   23.0890 C   0  0  0  0  0  0  0  0  0  0  0  0
   13.0360    2.3020   23.0200 C   0  0  0  0  0  0  0  0  0  0  0  0
   12.1430    1.2135   23.4810 C   0  0  0  0  0  0  0  0  0  0  0  0
   14.6062   -2.5338   24.7856 H   0  0  0  0  0  0  0  0  0  0  0  0
   13.7317   -2.8954   25.2811 H   0  0  0  0  0  0  0  0  0  0  0  0
   14.6174   -2.3495   23.8525 H   0  0  0  0  0  0  0  0  0  0  0  0
   11.5366   -2.1816   23.0895 H   0  0  0  0  0  0  0  0  0  0  0  0
   11.2894   -1.7339   21.3990 H   0  0  0  0  0  0  0  0  0  0  0  0
    8.6860   -1.5983   22.0898 H   0  0  0  0  0  0  0  0  0  0  0  0
    8.1637   -0.3472   23.1603 H   0  0  0  0  0  0  0  0  0  0  0  0
    8.8078   -5.4201   27.2229 H   0  0  0  0  0  0  0  0  0  0  0  0
    9.6294   -5.2379   27.3120 H   0  0  0  0  0  0  0  0  0  0  0  0
   10.1144   -5.8901   25.7298 H   0  0  0  0  0  0  0  0  0  0  0  0
    9.8462    2.5542   25.1590 H   0  0  0  0  0  0  0  0  0  0  0  0
    8.0822    5.4506   23.4715 H   0  0  0  0  0  0  0  0  0  0  0  0
    8.7471    4.2086   22.5039 H   0  0  0  0  0  0  0  0  0  0  0  0
   12.8046    4.4011   22.6338 H   0  0  0  0  0  0  0  0  0  0  0  0
   13.9760    2.1593   22.7197 H   0  0  0  0  0  0  0  0  0  0  0  0
  1  2  1  0
  2  3  1  0
  3  4  2  0
  4  5  1  0
  4  6  1  0
  6  7  1  0
  7  8  1  0
  8  9  1  0
  9 10  4  0
 10 11  4  0
 11 12  4  0
 12 13  1  0
 12 14  4  0
  7 15  1  0
 15 16  4  0
 16 17  4  0
 17 18  1  0
 18 19  1  0
 18 20  2  0
 18 21  2  0
 17 22  4  0
 22 23  4  0
 23 24  4  0
 24  3  1  0
 14  9  4  0
 24 15  4  0
  1 25  1  0
  1 26  1  0
  1 27  1  0
  6 28  1  0
  6 29  1  0
  8 30  1  0
  8 31  1  0
 13 32  1  0
 13 33  1  0
 13 34  1  0
 16 35  1  0
 19 36  1  0
 19 37  1  0
 22 38  1  0
 23 39  1  0
M  END
