
     RDKit          3D

 53 56  0  0  0  0  0  0  0  0999 V2000
   22.4030   15.8480    8.2370 C   0  0  0  0  0  0  0  0  0  0  0  0
   21.9100   15.0920    7.0390 C   0  0  2  0  0  0  0  0  0  0  0  0
   21.2100   13.8820    7.4370 C   0  0  1  0  0  0  0  0  0  0  0  0
   19.8310   13.9770    7.0750 O   0  0  0  0  0  0  0  0  0  0  0  0
   21.6510   12.4750    6.9900 C   0  0  0  0  0  0  0  0  0  0  0  0
   22.6470   12.5620    5.9110 C   0  0  0  0  0  0  0  0  0  0  0  0
   23.0980   13.8150    5.6950 C   0  0  1  0  0  0  0  0  0  0  0  0
   24.5360   13.6850    6.0450 N   0  0  0  0  0  0  0  0  0  0  0  0
   25.0520   12.5790    5.2020 C   0  0  2  0  0  0  0  0  0  0  0  0
   26.4350   12.6150    4.9270 C   0  0  0  0  0  0  0  0  0  0  0  0
   26.9220   11.5280    3.9960 C   0  0  0  0  0  0  0  0  0  0  0  0
   25.8520   11.2960    2.9190 C   0  0  0  0  0  0  0  0  0  0  0  0
   24.8540   12.2770    2.8830 C   0  0  0  0  0  0  0  0  0  0  0  0
   24.1770   12.5120    4.0860 C   0  0  2  0  0  0  0  0  0  0  0  0
   23.4100   13.6180    4.3570 N   0  0  0  0  0  0  0  0  0  0  0  0
   23.0030   14.9480    5.9630 N   0  0  0  0  0  0  0  0  0  0  0  0
   23.0500   16.0760    4.9760 C   0  0  0  0  0  0  0  0  0  0  0  0
   22.3330   17.3060    5.0580 C   0  0  0  0  0  0  0  0  0  0  0  0
   21.8390   17.8660    6.2710 C   0  0  0  0  0  0  0  0  0  0  0  0
   21.0680   19.1860    6.2320 C   0  0  0  0  0  0  0  0  0  0  0  0
   20.8450   19.8430    5.0350 C   0  0  0  0  0  0  0  0  0  0  0  0
   21.3030   19.3500    3.8220 C   0  0  0  0  0  0  0  0  0  0  0  0
   22.0290   18.1400    3.7430 C   0  0  0  0  0  0  0  0  0  0  0  0
   22.4610   17.7070    2.5200 O   0  0  0  0  0  0  0  0  0  0  0  0
   23.2520   16.4920    7.9910 H   0  0  0  0  0  0  0  0  0  0  0  0
   22.7290   15.1320    8.9960 H   0  0  0  0  0  0  0  0  0  0  0  0
   21.5880   16.4590    8.6380 H   0  0  0  0  0  0  0  0  0  0  0  0
   21.1780   15.7330    6.5480 H   0  0  0  0  0  0  0  0  0  0  0  0
   21.1680   13.8580    8.5330 H   0  0  0  0  0  0  0  0  0  0  0  0
   19.3640   14.3690    7.8380 H   0  0  0  0  0  0  0  0  0  0  0  0
   20.7890   11.9170    6.6520 H   0  0  0  0  0  0  0  0  0  0  0  0
   22.0630   11.9080    7.8330 H   0  0  0  0  0  0  0  0  0  0  0  0
   22.1920   12.1970    4.9770 H   0  0  0  0  0  0  0  0  0  0  0  0
   23.4840   11.8910    6.1150 H   0  0  0  0  0  0  0  0  0  0  0  0
   24.4990   13.3890    7.0210 H   0  0  0  0  0  0  0  0  0  0  0  0
   24.9030   11.6640    5.7790 H   0  0  0  0  0  0  0  0  0  0  0  0
   26.7170   13.6030    4.5470 H   0  0  0  0  0  0  0  0  0  0  0  0
   27.0260   12.5550    5.8500 H   0  0  0  0  0  0  0  0  0  0  0  0
   27.9400   11.6320    3.6210 H   0  0  0  0  0  0  0  0  0  0  0  0
   26.9690   10.5880    4.5590 H   0  0  0  0  0  0  0  0  0  0  0  0
   26.4170   11.4020    1.9820 H   0  0  0  0  0  0  0  0  0  0  0  0
   25.4920   10.2730    2.8660 H   0  0  0  0  0  0  0  0  0  0  0  0
   24.1200   12.0110    2.1130 H   0  0  0  0  0  0  0  0  0  0  0  0
   25.2900   13.2210    2.5340 H   0  0  0  0  0  0  0  0  0  0  0  0
   23.5080   11.6850    4.3070 H   0  0  0  0  0  0  0  0  0  0  0  0
   23.9460   14.4520    4.0950 H   0  0  0  0  0  0  0  0  0  0  0  0
   22.8430   15.6690    3.9790 H   0  0  0  0  0  0  0  0  0  0  0  0
   24.1160   16.3330    4.9230 H   0  0  0  0  0  0  0  0  0  0  0  0
   22.0070   17.3550    7.2220 H   0  0  0  0  0  0  0  0  0  0  0  0
   20.7110   19.5650    7.1980 H   0  0  0  0  0  0  0  0  0  0  0  0
   20.2960   20.7930    4.9600 H   0  0  0  0  0  0  0  0  0  0  0  0
   21.1450   19.8450    2.8510 H   0  0  0  0  0  0  0  0  0  0  0  0
   21.9720   18.2050    1.8400 H   0  0  0  0  0  0  0  0  0  0  0  0
  1  2  1  0
  2  3  1  0
  3  4  1  0
  3  5  1  0
  5  6  1  0
  6  7  1  0
  7  8  1  1
  8  9  1  0
  9 10  1  0
 10 11  1  0
 11 12  1  0
 12 13  1  0
  9 14  1  0
 13 14  1  0
  7 15  1  0
 14 15  1  0
  2 16  1  0
  7 16  1  0
 16 17  1  0
 17 18  1  0
 18 19  2  0
 19 20  1  0
 20 21  2  0
 21 22  1  0
 18 23  1  0
 22 23  2  0
 23 24  1  0
  1 25  1  0
  1 26  1  0
  1 27  1  0
  2 28  1  6
  3 29  1  1
  4 30  1  0
  5 31  1  0
  5 32  1  0
  6 33  1  0
  6 34  1  0
  8 35  1  0
  9 36  1  1
 10 37  1  0
 10 38  1  0
 11 39  1  0
 11 40  1  0
 12 41  1  0
 12 42  1  0
 13 43  1  0
 13 44  1  0
 14 45  1  1
 15 46  1  0
 17 47  1  0
 17 48  1  0
 19 49  1  0
 20 50  1  0
 21 51  1  0
 22 52  1  0
 24 53  1  0
M  END
