
     RDKit          3D

 30 31  0  0  0  0  0  0  0  0999 V2000
    3.6590    2.5820   18.7320 C   0  0  0  0  0  0  0  0  0  0  0  0
    4.7580    1.5720   18.7520 C   0  0  0  0  0  0  0  0  0  0  0  0
    5.2120    1.0260   19.8990 C   0  0  0  0  0  0  0  0  0  0  0  0
    6.2920    0.1040   19.5380 C   0  0  0  0  0  0  0  0  0  0  0  0
    7.0100   -0.6300   20.5980 C   0  0  0  0  0  0  0  0  0  0  0  0
    7.2130   -2.0370   20.4310 N   0  0  0  0  0  0  0  0  0  0  0  0
    8.3310   -2.3050   21.3610 C   0  0  0  0  0  0  0  0  0  0  0  0
    6.2240   -3.0930   20.7310 C   0  0  0  0  0  0  0  0  0  0  0  0
    5.5460   -3.6950   19.8690 O   0  0  0  0  0  0  0  0  0  0  0  0
    6.1380   -3.3320   21.8670 N   0  0  0  0  0  0  0  0  0  0  0  0
    5.5820   -4.5080   22.3090 C   0  0  1  0  0  0  0  0  0  0  0  0
    6.1720   -5.7550   21.9520 C   0  0  0  0  0  0  0  0  0  0  0  0
    6.4210   -5.4970   23.3430 C   0  0  0  0  0  0  0  0  0  0  0  0
    6.4720    0.1010   18.1100 N   0  0  0  0  0  0  0  0  0  0  0  0
    5.5160    1.0190   17.6430 O   0  0  0  0  0  0  0  0  0  0  0  0
    3.7560    3.2960   19.5540 H   0  0  0  0  0  0  0  0  0  0  0  0
    3.7080    3.1430   17.7990 H   0  0  0  0  0  0  0  0  0  0  0  0
    2.6990    2.0750   18.8190 H   0  0  0  0  0  0  0  0  0  0  0  0
    4.8650    1.2230   20.9080 H   0  0  0  0  0  0  0  0  0  0  0  0
    7.9810   -0.1270   20.7120 H   0  0  0  0  0  0  0  0  0  0  0  0
    6.4640   -0.4300   21.5130 H   0  0  0  0  0  0  0  0  0  0  0  0
    8.0550   -1.9170   22.3460 H   0  0  0  0  0  0  0  0  0  0  0  0
    9.2190   -1.7650   21.0230 H   0  0  0  0  0  0  0  0  0  0  0  0
    8.5860   -3.3470   21.4650 H   0  0  0  0  0  0  0  0  0  0  0  0
    6.4790   -2.7140   22.5990 H   0  0  0  0  0  0  0  0  0  0  0  0
    4.5070   -4.4490   22.4540 H   0  0  0  0  0  0  0  0  0  0  0  0
    5.4160   -6.5400   21.8130 H   0  0  0  0  0  0  0  0  0  0  0  0
    7.0060   -5.8650   21.2640 H   0  0  0  0  0  0  0  0  0  0  0  0
    7.4920   -5.3550   23.5290 H   0  0  0  0  0  0  0  0  0  0  0  0
    5.8890   -6.2300   23.9590 H   0  0  0  0  0  0  0  0  0  0  0  0
  1  2  1  0
  2  3  2  0
  3  4  1  0
  4  5  1  0
  5  6  1  0
  6  7  1  0
  6  8  1  0
  8  9  2  0
  8 10  1  0
 10 11  1  0
 11 12  1  0
 11 13  1  0
 12 13  1  0
  4 14  2  0
  2 15  1  0
 14 15  1  0
  1 16  1  0
  1 17  1  0
  1 18  1  0
  3 19  1  0
  5 20  1  0
  5 21  1  0
  7 22  1  0
  7 23  1  0
  7 24  1  0
 10 25  1  0
 11 26  1  1
 12 27  1  0
 12 28  1  0
 13 29  1  0
 13 30  1  0
M  END
