
     RDKit          3D

 49 51  0  0  0  0  0  0  0  0999 V2000
    7.5810    5.0340   22.2960 C   0  0  0  0  0  0  0  0  0  0  0  0
    7.1700    3.7880   23.0220 C   0  0  0  0  0  0  0  0  0  0  0  0
    6.2070    3.7660   23.7790 O   0  0  0  0  0  0  0  0  0  0  0  0
    7.9550    2.6920   22.7680 N   0  0  0  0  0  0  0  0  0  0  0  0
    7.4820    1.3880   23.1770 C   0  0  1  0  0  0  0  0  0  0  0  0
    5.9700    1.2700   22.8490 C   0  0  0  0  0  0  0  0  0  0  0  0
    5.6980    1.2720   21.3830 C   0  0  0  0  0  0  0  0  0  0  0  0
    4.8040    2.1310   20.7280 C   0  0  0  0  0  0  0  0  0  0  0  0
    5.0180    1.5790   19.2360 C   0  0  0  0  0  0  0  0  0  0  0  0
    5.7390    0.5980   18.4110 C   0  0  0  0  0  0  0  0  0  0  0  0
    6.4320   -0.2750   17.9480 O   0  0  0  0  0  0  0  0  0  0  0  0
    6.5050   -0.0090   19.5370 C   0  0  0  0  0  0  0  0  0  0  0  0
    6.4510    0.3340   20.8910 C   0  0  0  0  0  0  0  0  0  0  0  0
    7.5280   -1.1330   19.5680 C   0  0  0  0  0  0  0  0  0  0  0  0
    7.2450   -2.0610   20.6190 N   0  0  0  0  0  0  0  0  0  0  0  0
    6.5210   -3.0070   21.1190 C   0  0  0  0  0  0  0  0  0  0  0  0
    5.6530   -3.5340   20.4110 O   0  0  0  0  0  0  0  0  0  0  0  0
    6.7010   -3.4340   22.4520 N   0  0  0  0  0  0  0  0  0  0  0  0
    5.9000   -4.5640   22.9180 C   0  0  2  0  0  0  0  0  0  0  0  0
    6.3980   -5.6840   23.3540 C   0  0  0  0  0  0  0  0  0  0  0  0
    6.0280   -6.0110   22.1400 C   0  0  0  0  0  0  0  0  0  0  0  0
    8.3580   -1.8420   21.7210 C   0  0  1  0  0  0  0  0  0  0  0  0
    9.7670   -1.6640   21.5000 C   0  0  0  0  0  0  0  0  0  0  0  0
   10.8910   -1.7890   22.3830 C   0  0  0  0  0  0  0  0  0  0  0  0
   12.4840   -1.9200   23.4590 Br  0  0  0  0  0  0  0  0  0  0  0  0
    7.9800   -0.9490   22.3880 N   0  0  0  0  0  0  0  0  0  0  0  0
    8.4040    0.3580   22.4070 C   0  0  0  0  0  0  0  0  0  0  0  0
    9.4510    0.7580   21.8780 O   0  0  0  0  0  0  0  0  0  0  0  0
    7.7950    4.8350   21.2500 H   0  0  0  0  0  0  0  0  0  0  0  0
    8.4860    5.4410   22.7560 H   0  0  0  0  0  0  0  0  0  0  0  0
    6.7720    5.7710   22.3540 H   0  0  0  0  0  0  0  0  0  0  0  0
    8.9500    2.8220   22.6460 H   0  0  0  0  0  0  0  0  0  0  0  0
    7.6000    1.3410   24.2640 H   0  0  0  0  0  0  0  0  0  0  0  0
    5.4080    2.0620   23.3540 H   0  0  0  0  0  0  0  0  0  0  0  0
    5.5940    0.3320   23.2780 H   0  0  0  0  0  0  0  0  0  0  0  0
    4.9200    2.2270   21.8100 H   0  0  0  0  0  0  0  0  0  0  0  0
    4.3720    2.1610   18.5670 H   0  0  0  0  0  0  0  0  0  0  0  0
    6.0160   -1.1450   17.6210 H   0  0  0  0  0  0  0  0  0  0  0  0
    7.1020   -0.2590   21.5190 H   0  0  0  0  0  0  0  0  0  0  0  0
    8.4730   -0.7830   19.9030 H   0  0  0  0  0  0  0  0  0  0  0  0
    7.6770   -1.6540   18.6290 H   0  0  0  0  0  0  0  0  0  0  0  0
    6.7780   -2.6660   23.1220 H   0  0  0  0  0  0  0  0  0  0  0  0
    4.8980   -4.2700   23.2160 H   0  0  0  0  0  0  0  0  0  0  0  0
    5.8090   -6.2630   24.0560 H   0  0  0  0  0  0  0  0  0  0  0  0
    7.4360   -5.5860   23.6860 H   0  0  0  0  0  0  0  0  0  0  0  0
    6.5930   -6.0830   21.2220 H   0  0  0  0  0  0  0  0  0  0  0  0
    5.1760   -6.6980   22.1110 H   0  0  0  0  0  0  0  0  0  0  0  0
    8.3160   -2.7650   22.3040 H   0  0  0  0  0  0  0  0  0  0  0  0
    7.2850   -1.2210   23.0530 H   0  0  0  0  0  0  0  0  0  0  0  0
  1  2  1  0
  2  3  2  0
  2  4  1  0
  4  5  1  0
  5  6  1  0
  6  7  1  0
  7  8  1  0
  8  9  2  0
  9 10  1  0
 10 11  1  0
 10 12  2  0
  7 13  2  0
 12 13  1  0
 12 14  1  0
 14 15  1  0
 15 16  1  0
 16 17  2  0
 16 18  1  0
 18 19  1  0
 19 20  1  0
 19 21  1  0
 20 21  1  0
 15 22  1  0
 22 23  1  0
 23 24  3  0
 24 25  1  0
 22 26  1  0
  5 27  1  0
 26 27  1  0
 27 28  2  0
  1 29  1  0
  1 30  1  0
  1 31  1  0
  4 32  1  0
  5 33  1  1
  6 34  1  0
  6 35  1  0
  8 36  1  0
  9 37  1  0
 11 38  1  0
 13 39  1  0
 14 40  1  0
 14 41  1  0
 18 42  1  0
 19 43  1  1
 20 44  1  0
 20 45  1  0
 21 46  1  0
 21 47  1  0
 22 48  1  1
 26 49  1  0
M  END
