LIG
     RDKit          3D

 53 56  0  0  0  0  0  0  0  0999 V2000
   22.2960   15.0270    8.4120 C   0  0  0  0  0  0  0  0  0  0  0  0
   21.1830   14.9300    7.3700 C   0  0  2  0  0  0  0  0  0  0  0  0
   20.4760   13.5870    7.6210 C   0  0  1  0  0  0  0  0  0  0  0  0
   19.1090   13.7690    7.3750 O   0  0  0  0  0  0  0  0  0  0  0  0
   20.9620   12.4860    6.8250 C   0  0  0  0  0  0  0  0  0  0  0  0
   22.2710   12.6520    6.2520 C   0  0  0  0  0  0  0  0  0  0  0  0
   23.0300   14.1660    4.8800 C   0  0  0  0  0  0  0  0  0  0  0  0
   24.7080   14.1770    4.8830 N   0  0  0  0  0  0  0  0  0  0  0  0
   25.3080   13.0370    4.4400 C   0  0  0  0  0  0  0  0  0  0  0  0
   26.5260   12.3790    4.7950 C   0  0  0  0  0  0  0  0  0  0  0  0
   26.8850   11.1950    4.1560 C   0  0  0  0  0  0  0  0  0  0  0  0
   26.0620   10.6550    3.1630 C   0  0  0  0  0  0  0  0  0  0  0  0
   24.8780   11.3000    2.8170 C   0  0  0  0  0  0  0  0  0  0  0  0
   24.5030   12.5070    3.4760 C   0  0  0  0  0  0  0  0  0  0  0  0
   23.4360   13.3390    3.3580 N   0  0  0  0  0  0  0  0  0  0  0  0
   22.1855   15.2860    5.2220 N   0  0  0  0  0  0  0  0  0  0  0  0
   22.7175   16.3540    5.5585 C   0  0  0  0  0  0  0  0  0  0  0  0
   21.8300   17.5680    5.3470 C   0  0  0  0  0  0  0  0  0  0  0  0
   21.3320   18.2675    6.4040 C   0  0  0  0  0  0  0  0  0  0  0  0
   20.5385   19.3795    6.1740 C   0  0  0  0  0  0  0  0  0  0  0  0
   20.2605   19.7905    4.8925 C   0  0  0  0  0  0  0  0  0  0  0  0
   20.7615   19.0945    3.8390 C   0  0  0  0  0  0  0  0  0  0  0  0
   21.5550   17.9855    4.0680 C   0  0  0  0  0  0  0  0  0  0  0  0
   22.6250   17.8150    2.8220 O   0  0  0  0  0  0  0  0  0  0  0  0
   22.4507   16.0689    8.7186 H   0  0  0  0  0  0  0  0  0  0  0  0
   22.0722   14.4498    9.3164 H   0  0  0  0  0  0  0  0  0  0  0  0
   21.9246   15.4414    9.3567 H   0  0  0  0  0  0  0  0  0  0  0  0
   20.6088   15.7841    7.3313 H   0  0  0  0  0  0  0  0  0  0  0  0
   20.5244   13.3410    8.7059 H   0  0  0  0  0  0  0  0  0  0  0  0
   18.5991   13.4147    8.1310 H   0  0  0  0  0  0  0  0  0  0  0  0
   20.2162   12.2638    6.0055 H   0  0  0  0  0  0  0  0  0  0  0  0
   20.9071   11.5258    7.4191 H   0  0  0  0  0  0  0  0  0  0  0  0
   22.6849   11.7701    5.6273 H   0  0  0  0  0  0  0  0  0  0  0  0
   23.1618   12.7559    6.9838 H   0  0  0  0  0  0  0  0  0  0  0  0
   24.9516   14.4546    5.8528 H   0  0  0  0  0  0  0  0  0  0  0  0
   24.5692   12.2536    5.4489 H   0  0  0  0  0  0  0  0  0  0  0  0
   27.4037   13.1371    4.7099 H   0  0  0  0  0  0  0  0  0  0  0  0
   26.5522   12.2279    5.9476 H   0  0  0  0  0  0  0  0  0  0  0  0
   27.9585   11.3073    3.7441 H   0  0  0  0  0  0  0  0  0  0  0  0
   27.0883   10.3796    4.9489 H   0  0  0  0  0  0  0  0  0  0  0  0
   26.6895   10.4630    2.2087 H   0  0  0  0  0  0  0  0  0  0  0  0
   25.8228    9.5558    3.4347 H   0  0  0  0  0  0  0  0  0  0  0  0
   23.9856   10.5495    2.8787 H   0  0  0  0  0  0  0  0  0  0  0  0
   24.8622   11.4616    1.6595 H   0  0  0  0  0  0  0  0  0  0  0  0
   23.7906   11.7475    4.5032 H   0  0  0  0  0  0  0  0  0  0  0  0
   23.6491   14.2438    2.8777 H   0  0  0  0  0  0  0  0  0  0  0  0
   23.7006   16.5873    5.0555 H   0  0  0  0  0  0  0  0  0  0  0  0
   22.9888   16.4869    6.6517 H   0  0  0  0  0  0  0  0  0  0  0  0
   21.5237   17.9581    7.4288 H   0  0  0  0  0  0  0  0  0  0  0  0
   20.1217   19.9282    7.0275 H   0  0  0  0  0  0  0  0  0  0  0  0
   19.6414   20.6781    4.7285 H   0  0  0  0  0  0  0  0  0  0  0  0
   20.5561   19.4073    2.8136 H   0  0  0  0  0  0  0  0  0  0  0  0
   23.2435   18.4775    3.0657 H   0  0  0  0  0  0  0  0  0  0  0  0
  1  2  1  0
  2  3  1  0
  3  4  1  0
  3  5  1  0
  5  6  1  0
  6  7  1  0
  7  8  1  0
  8  9  1  0
  9 10  1  0
 10 11  1  0
 11 12  1  0
 12 13  1  0
 13 14  1  0
 14 15  1  0
  7 16  1  0
 16 17  1  0
 17 18  1  0
 18 19  4  0
 19 20  4  0
 20 21  4  0
 21 22  4  0
 22 23  4  0
 23 24  1  0
 16  2  1  0
 23 18  4  0
 15  7  1  0
 14  9  1  0
  1 25  1  0
  1 26  1  0
  1 27  1  0
  2 28  1  1
  3 29  1  1
  4 30  1  0
  5 31  1  0
  5 32  1  0
  6 33  1  0
  6 34  1  0
  8 35  1  0
  9 36  1  0
 10 37  1  0
 10 38  1  0
 11 39  1  0
 11 40  1  0
 12 41  1  0
 12 42  1  0
 13 43  1  0
 13 44  1  0
 14 45  1  0
 15 46  1  0
 17 47  1  0
 17 48  1  0
 19 49  1  0
 20 50  1  0
 21 51  1  0
 22 52  1  0
 24 53  1  0
M  END
