LIG
     RDKit          3D

 44 47  0  0  0  0  0  0  0  0999 V2000
    3.8620    2.0560   19.5360 C   0  0  0  0  0  0  0  0  0  0  0  0
    4.8650    1.2840   18.9740 C   0  0  0  0  0  0  0  0  0  0  0  0
    5.4810    1.4205   17.7865 C   0  0  0  0  0  0  0  0  0  0  0  0
    6.5165    0.6450   17.5340 N   0  0  0  0  0  0  0  0  0  0  0  0
    6.7935   -0.1395   18.4870 C   0  0  0  0  0  0  0  0  0  0  0  0
    6.6030    0.0510   19.8530 C   0  0  0  0  0  0  0  0  0  0  0  0
    5.4320    0.3595   19.7185 C   0  0  0  0  0  0  0  0  0  0  0  0
    7.8025   -0.9930   20.8575 N   0  0  0  0  0  0  0  0  0  0  0  0
    8.5920   -0.2080   21.3470 C   0  0  0  0  0  0  0  0  0  0  0  0
    9.1440    0.7090   20.8350 O   0  0  0  0  0  0  0  0  0  0  0  0
    9.2320   -0.9350   22.4160 N   0  0  0  0  0  0  0  0  0  0  0  0
   10.5180   -0.4560   22.8190 C   0  0  0  0  0  0  0  0  0  0  0  0
   11.6620   -0.7700   22.1120 C   0  0  0  0  0  0  0  0  0  0  0  0
   12.8740   -0.2570   22.5320 C   0  0  0  0  0  0  0  0  0  0  0  0
   12.9190    0.5770   23.6360 C   0  0  0  0  0  0  0  0  0  0  0  0
   11.7600    0.8910   24.3310 C   0  0  0  0  0  0  0  0  0  0  0  0
   10.5550    0.3780   23.9180 C   0  0  0  0  0  0  0  0  0  0  0  0
    7.3620   -2.0310   19.9170 N   0  0  0  0  0  0  0  0  0  0  0  0
    6.4780   -3.0650   20.4600 C   0  0  0  0  0  0  0  0  0  0  0  0
    5.7050   -3.6090   19.7340 O   0  0  0  0  0  0  0  0  0  0  0  0
    6.5520   -3.4250   21.8840 N   0  0  0  0  0  0  0  0  0  0  0  0
    5.6750   -4.4640   22.4420 C   0  0  0  0  0  0  0  0  0  0  0  0
    6.3670   -5.4690   23.3670 C   0  0  0  0  0  0  0  0  0  0  0  0
    5.9460   -5.8890   21.9520 C   0  0  0  0  0  0  0  0  0  0  0  0
    7.2860   -1.6460   18.4960 C   0  0  0  0  0  0  0  0  0  0  0  0
    3.3046    1.5199   20.3389 H   0  0  0  0  0  0  0  0  0  0  0  0
    2.8438    1.6091   19.4356 H   0  0  0  0  0  0  0  0  0  0  0  0
    3.0917    2.3919   18.8010 H   0  0  0  0  0  0  0  0  0  0  0  0
    5.1866    2.0989   17.0282 H   0  0  0  0  0  0  0  0  0  0  0  0
    4.6133   -0.2787   20.3421 H   0  0  0  0  0  0  0  0  0  0  0  0
    8.6908   -1.4309   22.9718 H   0  0  0  0  0  0  0  0  0  0  0  0
   11.6405   -1.4099   21.2391 H   0  0  0  0  0  0  0  0  0  0  0  0
   13.7872   -0.5062   21.9974 H   0  0  0  0  0  0  0  0  0  0  0  0
   13.8771    0.9934   23.9630 H   0  0  0  0  0  0  0  0  0  0  0  0
   11.8151    1.5472   25.2005 H   0  0  0  0  0  0  0  0  0  0  0  0
    9.6518    0.6431   24.4569 H   0  0  0  0  0  0  0  0  0  0  0  0
    7.4786   -3.3653   22.2380 H   0  0  0  0  0  0  0  0  0  0  0  0
    7.6482   -4.7694   21.9460 H   0  0  0  0  0  0  0  0  0  0  0  0
    5.8045   -5.8803   24.1834 H   0  0  0  0  0  0  0  0  0  0  0  0
    7.4174   -5.3301   23.5439 H   0  0  0  0  0  0  0  0  0  0  0  0
    5.1073   -6.5523   21.8605 H   0  0  0  0  0  0  0  0  0  0  0  0
    6.7207   -6.0105   21.2185 H   0  0  0  0  0  0  0  0  0  0  0  0
    8.2529   -1.6964   17.9964 H   0  0  0  0  0  0  0  0  0  0  0  0
    6.5425   -2.2633   17.9960 H   0  0  0  0  0  0  0  0  0  0  0  0
  1  2  1  0
  2  3  4  0
  3  4  4  0
  4  5  4  0
  5  6  4  0
  6  7  4  0
  6  8  1  0
  8  9  1  0
  9 10  2  0
  9 11  1  0
 11 12  1  0
 12 13  4  0
 13 14  4  0
 14 15  4  0
 15 16  4  0
 16 17  4  0
  8 18  1  0
 18 19  1  0
 19 20  2  0
 19 21  1  0
 21 22  1  0
 22 23  1  0
 23 24  1  0
 18 25  1  0
  7  2  4  0
 17 12  4  0
 24 22  1  0
 25  5  1  0
  1 26  1  0
  1 27  1  0
  1 28  1  0
  3 29  1  0
  7 30  1  0
 11 31  1  0
 13 32  1  0
 14 33  1  0
 15 34  1  0
 16 35  1  0
 17 36  1  0
 21 37  1  0
 22 38  1  0
 23 39  1  0
 23 40  1  0
 24 41  1  0
 24 42  1  0
 25 43  1  0
 25 44  1  0
M  END
