
     RDKit          3D

 34 36  0  0  0  0  0  0  0  0999 V2000
    8.9540   -5.4820   26.2280 C   0  0  0  0  0  0  0  0  0  0  0  0
    8.6100   -4.1660   25.5720 C   0  0  0  0  0  0  0  0  0  0  0  0
    7.9000   -3.2320   26.2860 N   0  0  0  0  0  0  0  0  0  0  0  0
    7.7290   -2.0480   25.4280 N   0  0  0  0  0  0  0  0  0  0  0  0
    8.3320   -2.2050   24.1700 C   0  0  0  0  0  0  0  0  0  0  0  0
    8.3950   -1.1750   23.0520 C   0  0  0  0  0  0  0  0  0  0  0  0
    9.7120   -0.6040   23.1800 N   0  0  0  0  0  0  0  0  0  0  0  0
   10.8890   -0.9400   22.4090 C   0  0  0  0  0  0  0  0  0  0  0  0
   12.1040   -0.2270   22.7440 C   0  0  0  0  0  0  0  0  0  0  0  0
   13.2430   -0.9490   22.8630 F   0  0  0  0  0  0  0  0  0  0  0  0
   12.1290    1.3450   22.9910 C   0  0  0  0  0  0  0  0  0  0  0  0
   11.5050    2.6870   23.0690 C   0  0  0  0  0  0  0  0  0  0  0  0
   10.0300    3.0580   23.4890 C   0  0  0  0  0  0  0  0  0  0  0  0
    9.5240    4.6860   23.5640 S   0  0  1  0  0  0  0  0  0  0  0  0
    8.3900    4.7980   22.3400 N   0  0  0  0  0  0  0  0  0  0  0  0
    8.8230    4.8830   24.8150 O   0  0  0  0  0  0  0  0  0  0  0  0
   10.6440    5.5320   23.2200 O   0  0  0  0  0  0  0  0  0  0  0  0
    9.2310    1.7840   23.8140 C   0  0  0  0  0  0  0  0  0  0  0  0
    9.8680    0.7570   23.2420 C   0  0  0  0  0  0  0  0  0  0  0  0
   10.8560    1.1840   22.5490 C   0  0  0  0  0  0  0  0  0  0  0  0
    9.0470   -3.7260   23.9740 S   0  0  0  0  0  0  0  0  0  0  0  0
    8.1460   -6.2010   26.1130 H   0  0  0  0  0  0  0  0  0  0  0  0
    9.8520   -5.8950   25.7660 H   0  0  0  0  0  0  0  0  0  0  0  0
    9.1330   -5.3220   27.2940 H   0  0  0  0  0  0  0  0  0  0  0  0
    7.5920   -0.4490   23.2180 H   0  0  0  0  0  0  0  0  0  0  0  0
    8.2910   -1.4890   22.0150 H   0  0  0  0  0  0  0  0  0  0  0  0
   10.6620   -0.9840   21.3500 H   0  0  0  0  0  0  0  0  0  0  0  0
   10.9890   -2.0200   22.5400 H   0  0  0  0  0  0  0  0  0  0  0  0
   12.1520    3.5360   22.8190 H   0  0  0  0  0  0  0  0  0  0  0  0
    7.6840    5.4930   22.5350 H   0  0  0  0  0  0  0  0  0  0  0  0
    8.8400    4.8870   21.4270 H   0  0  0  0  0  0  0  0  0  0  0  0
    8.3350    1.7040   24.4310 H   0  0  0  0  0  0  0  0  0  0  0  0
   10.6080    2.1170   22.0610 H   0  0  0  0  0  0  0  0  0  0  0  0
   10.8730    0.4520   21.7760 H   0  0  0  0  0  0  0  0  0  0  0  0
  1  2  1  0
  2  3  2  0
  3  4  1  0
  4  5  2  0
  5  6  1  0
  6  7  1  0
  7  8  1  0
  8  9  1  0
  9 10  1  0
  9 11  2  0
 11 12  1  0
 12 13  2  0
 13 14  1  0
 14 15  1  6
 14 16  2  0
 14 17  2  0
 13 18  1  0
  7 19  1  0
 18 19  2  0
 11 20  1  0
 19 20  1  0
  2 21  1  0
  5 21  1  0
  1 22  1  0
  1 23  1  0
  1 24  1  0
  6 25  1  0
  6 26  1  0
  8 27  1  0
  8 28  1  0
 12 29  1  0
 15 30  1  0
 15 31  1  0
 18 32  1  0
 20 33  1  0
 20 34  1  0
M  END
