
     RDKit          3D

 38 39  0  0  0  0  0  0  0  0999 V2000
   10.0840   -0.3430   22.5090 C   0  0  0  0  0  0  0  0  0  0  0  0
    8.8990   -0.3430   21.5850 C   0  0  0  0  0  0  0  0  0  0  0  0
    8.5210    0.7030   21.0640 O   0  0  0  0  0  0  0  0  0  0  0  0
    8.2960   -1.6070   21.3760 C   0  0  0  0  0  0  0  0  0  0  0  0
    7.0410   -1.6210   20.5940 N   0  0  0  0  0  0  0  0  0  0  0  0
    7.1090   -1.1580   19.2040 C   0  0  0  0  0  0  0  0  0  0  0  0
    6.2250   -0.0180   18.9330 C   0  0  0  0  0  0  0  0  0  0  0  0
    6.1620    0.5930   17.6150 N   0  0  0  0  0  0  0  0  0  0  0  0
    5.2070    1.5890   17.7860 O   0  0  0  0  0  0  0  0  0  0  0  0
    4.7170    1.6210   19.0820 C   0  0  0  0  0  0  0  0  0  0  0  0
    3.6670    2.6140   19.5050 C   0  0  0  0  0  0  0  0  0  0  0  0
    5.2980    0.6600   19.8880 C   0  0  0  0  0  0  0  0  0  0  0  0
    5.1520    0.2650   21.3400 C   0  0  0  0  0  0  0  0  0  0  0  0
    6.2380   -2.7310   20.8630 C   0  0  0  0  0  0  0  0  0  0  0  0
    5.3830   -3.3190   19.8710 O   0  0  0  0  0  0  0  0  0  0  0  0
    6.3260   -3.3090   22.2180 N   0  0  0  0  0  0  0  0  0  0  0  0
    5.6550   -4.5410   22.5060 C   0  0  1  0  0  0  0  0  0  0  0  0
    6.0720   -5.6670   22.0380 C   0  0  0  0  0  0  0  0  0  0  0  0
    6.3550   -5.8300   23.2820 C   0  0  0  0  0  0  0  0  0  0  0  0
   10.8550   -1.0410   22.1700 H   0  0  0  0  0  0  0  0  0  0  0  0
    9.7610   -0.6470   23.5090 H   0  0  0  0  0  0  0  0  0  0  0  0
   10.5090    0.6640   22.5490 H   0  0  0  0  0  0  0  0  0  0  0  0
    8.9400   -2.3790   20.9800 H   0  0  0  0  0  0  0  0  0  0  0  0
    8.0140   -2.0020   22.3570 H   0  0  0  0  0  0  0  0  0  0  0  0
    8.1230   -0.9650   18.9130 H   0  0  0  0  0  0  0  0  0  0  0  0
    6.7740   -1.9720   18.5540 H   0  0  0  0  0  0  0  0  0  0  0  0
    2.6840    2.1860   19.3190 H   0  0  0  0  0  0  0  0  0  0  0  0
    3.7570    3.5030   18.8730 H   0  0  0  0  0  0  0  0  0  0  0  0
    3.6570    2.9790   20.5360 H   0  0  0  0  0  0  0  0  0  0  0  0
    4.6890   -0.7290   21.3810 H   0  0  0  0  0  0  0  0  0  0  0  0
    4.4300    0.9450   21.8030 H   0  0  0  0  0  0  0  0  0  0  0  0
    6.0280    0.2420   21.9880 H   0  0  0  0  0  0  0  0  0  0  0  0
    7.2150   -3.1240   22.6840 H   0  0  0  0  0  0  0  0  0  0  0  0
    4.5680   -4.4710   22.4190 H   0  0  0  0  0  0  0  0  0  0  0  0
    5.2780   -6.3360   21.6860 H   0  0  0  0  0  0  0  0  0  0  0  0
    6.9700   -5.7470   21.4150 H   0  0  0  0  0  0  0  0  0  0  0  0
    7.4400   -5.9690   23.3850 H   0  0  0  0  0  0  0  0  0  0  0  0
    5.7960   -6.6940   23.6550 H   0  0  0  0  0  0  0  0  0  0  0  0
  1  2  1  0
  2  3  2  0
  2  4  1  0
  4  5  1  0
  5  6  1  0
  6  7  1  0
  7  8  2  0
  8  9  1  0
  9 10  1  0
 10 11  1  0
  7 12  1  0
 10 12  2  0
 12 13  1  0
  5 14  1  0
 14 15  2  0
 14 16  1  0
 16 17  1  0
 17 18  1  0
 17 19  1  0
 18 19  1  0
  1 20  1  0
  1 21  1  0
  1 22  1  0
  4 23  1  0
  4 24  1  0
  6 25  1  0
  6 26  1  0
 11 27  1  0
 11 28  1  0
 11 29  1  0
 13 30  1  0
 13 31  1  0
 13 32  1  0
 16 33  1  0
 17 34  1  1
 18 35  1  0
 18 36  1  0
 19 37  1  0
 19 38  1  0
M  END
