LIG
     RDKit          3D

 33 34  0  0  0  0  0  0  0  0999 V2000
    6.4340   -4.9520   26.5780 C   0  0  0  0  0  0  0  0  0  0  0  0
    8.5930   -4.1750   25.8955 C   0  0  0  0  0  0  0  0  0  0  0  0
    9.2090   -5.4040   26.2225 C   0  0  0  0  0  0  0  0  0  0  0  0
    8.5795   -3.2130   26.7435 N   0  0  0  0  0  0  0  0  0  0  0  0
    8.4300   -1.7410   25.3910 N   0  0  0  0  0  0  0  0  0  0  0  0
    8.5055   -2.7795   24.4005 C   0  0  0  0  0  0  0  0  0  0  0  0
    9.1125   -1.3850   23.1580 C   0  0  0  0  0  0  0  0  0  0  0  0
   10.3695   -0.7955   23.1215 N   0  0  0  0  0  0  0  0  0  0  0  0
   10.6920    0.1295   24.0185 C   0  0  0  0  0  0  0  0  0  0  0  0
   11.9955    0.8345   23.8180 C   0  0  0  0  0  0  0  0  0  0  0  0
   13.0005    0.1825   23.1800 C   0  0  0  0  0  0  0  0  0  0  0  0
   12.6870   -0.9810   22.3655 C   0  0  0  0  0  0  0  0  0  0  0  0
   13.4930   -1.4840   21.5620 F   0  0  0  0  0  0  0  0  0  0  0  0
   11.4305   -1.5580   22.4970 C   0  0  0  0  0  0  0  0  0  0  0  0
    9.3955   -3.3030   24.1295 S   0  0  0  0  0  0  0  0  0  0  0  0
    6.0534   -4.5085   25.7355 H   0  0  0  0  0  0  0  0  0  0  0  0
    6.5372   -4.3982   27.4289 H   0  0  0  0  0  0  0  0  0  0  0  0
    6.1212   -3.9847   26.6144 H   0  0  0  0  0  0  0  0  0  0  0  0
   10.2791   -5.4980   25.9042 H   0  0  0  0  0  0  0  0  0  0  0  0
    8.7047   -6.3025   25.7844 H   0  0  0  0  0  0  0  0  0  0  0  0
    9.2334   -5.6170   27.3211 H   0  0  0  0  0  0  0  0  0  0  0  0
    9.3674   -2.8521   27.1854 H   0  0  0  0  0  0  0  0  0  0  0  0
    9.2662   -1.3707   25.6001 H   0  0  0  0  0  0  0  0  0  0  0  0
    7.4870   -2.7289   23.8779 H   0  0  0  0  0  0  0  0  0  0  0  0
    8.2554   -0.6677   23.3444 H   0  0  0  0  0  0  0  0  0  0  0  0
    8.7745   -1.8990   22.2043 H   0  0  0  0  0  0  0  0  0  0  0  0
    9.9122    0.9577   24.0998 H   0  0  0  0  0  0  0  0  0  0  0  0
   10.6836   -0.2859   25.0851 H   0  0  0  0  0  0  0  0  0  0  0  0
   11.7770    1.8246   23.2906 H   0  0  0  0  0  0  0  0  0  0  0  0
   12.3349    1.2006   24.8459 H   0  0  0  0  0  0  0  0  0  0  0  0
   14.0494    0.4435   23.2009 H   0  0  0  0  0  0  0  0  0  0  0  0
   11.0508   -1.8687   21.4756 H   0  0  0  0  0  0  0  0  0  0  0  0
   11.5324   -2.5526   23.0355 H   0  0  0  0  0  0  0  0  0  0  0  0
  1  2  1  0
  2  3  1  0
  2  4  1  0
  4  5  1  0
  5  6  1  0
  6  7  1  0
  7  8  1  0
  8  9  1  0
  9 10  1  0
 10 11  1  0
 11 12  2  0
 12 13  1  0
 12 14  1  0
  6 15  1  0
 15  2  1  0
 14  8  1  0
  1 16  1  0
  1 17  1  0
  1 18  1  0
  3 19  1  0
  3 20  1  0
  3 21  1  0
  4 22  1  0
  5 23  1  0
  6 24  1  0
  7 25  1  0
  7 26  1  0
  9 27  1  0
  9 28  1  0
 10 29  1  0
 10 30  1  0
 11 31  1  0
 14 32  1  0
 14 33  1  0
M  END
