LIG
     RDKit          3D

 41 44  0  0  0  0  0  0  0  0999 V2000
    9.3350   -5.3670   26.2750 C   0  0  0  0  0  0  0  0  0  0  0  0
    9.0910   -3.9920   25.6370 C   0  0  0  0  0  0  0  0  0  0  0  0
    8.5200   -2.9160   26.2860 N   0  0  0  0  0  0  0  0  0  0  0  0
    8.4300   -1.7410   25.3910 N   0  0  0  0  0  0  0  0  0  0  0  0
    8.9500   -2.0240   24.1390 C   0  0  0  0  0  0  0  0  0  0  0  0
    9.0150   -1.0220   22.9690 C   0  0  0  0  0  0  0  0  0  0  0  0
   10.1350   -0.4490   22.8500 N   0  0  0  0  0  0  0  0  0  0  0  0
   11.4905   -1.4915   23.0360 C   0  0  0  0  0  0  0  0  0  0  0  0
   12.6075   -1.1090   22.3370 C   0  0  0  0  0  0  0  0  0  0  0  0
   13.5775   -0.8910   22.1835 C   0  0  0  0  0  0  0  0  0  0  0  0
   12.8525    0.7705   22.9630 C   0  0  0  0  0  0  0  0  0  0  0  0
   13.4330    2.2640   22.6290 C   0  0  0  0  0  0  0  0  0  0  0  0
   12.7210    3.4490   22.8300 C   0  0  0  0  0  0  0  0  0  0  0  0
   11.4520    3.3830   23.4380 C   0  0  0  0  0  0  0  0  0  0  0  0
   10.4990    4.8830   23.7330 S   0  0  0  0  0  6  0  0  0  0  0  0
   11.4660    6.2570   23.4610 N   0  0  0  0  0  0  0  0  0  0  0  0
    9.2550    4.9160   22.9600 O   0  0  0  0  0  0  0  0  0  0  0  0
    9.9890    4.8060   25.0960 O   0  0  0  0  0  0  0  0  0  0  0  0
   10.9030    2.1690   23.8360 C   0  0  0  0  0  0  0  0  0  0  0  0
   11.7065    1.1170   23.4935 C   0  0  0  0  0  0  0  0  0  0  0  0
   10.7700    0.0120   23.9095 N   0  0  0  0  0  4  0  0  0  0  0  0
    9.9150   -0.3810   24.9080 C   0  0  0  0  0  0  0  0  0  0  0  0
    9.4770   -3.5790   24.0930 S   0  0  0  0  0  0  0  0  0  0  0  0
    8.7812   -6.1207   25.7228 H   0  0  0  0  0  0  0  0  0  0  0  0
    8.3915   -5.7830   26.6155 H   0  0  0  0  0  0  0  0  0  0  0  0
    9.7930   -6.0301   25.5472 H   0  0  0  0  0  0  0  0  0  0  0  0
    8.7415   -1.6262   22.0569 H   0  0  0  0  0  0  0  0  0  0  0  0
    8.0845   -0.3811   23.1064 H   0  0  0  0  0  0  0  0  0  0  0  0
   11.2610   -0.4224   21.4901 H   0  0  0  0  0  0  0  0  0  0  0  0
   12.2086   -1.7782   21.1452 H   0  0  0  0  0  0  0  0  0  0  0  0
   11.9120   -0.1184   21.6164 H   0  0  0  0  0  0  0  0  0  0  0  0
   14.3704   -0.8888   22.9318 H   0  0  0  0  0  0  0  0  0  0  0  0
   13.9242   -0.2880   21.3306 H   0  0  0  0  0  0  0  0  0  0  0  0
   14.4396    2.2471   22.2167 H   0  0  0  0  0  0  0  0  0  0  0  0
   13.1402    4.3964   22.5222 H   0  0  0  0  0  0  0  0  0  0  0  0
   11.0012    6.8646   22.7884 H   0  0  0  0  0  0  0  0  0  0  0  0
   11.6608    6.7172   24.3479 H   0  0  0  0  0  0  0  0  0  0  0  0
    9.9930    2.0923   24.3458 H   0  0  0  0  0  0  0  0  0  0  0  0
    8.8333   -0.3244   24.6263 H   0  0  0  0  0  0  0  0  0  0  0  0
   10.0424    0.2596   25.8105 H   0  0  0  0  0  0  0  0  0  0  0  0
   10.0990   -1.4316   25.2366 H   0  0  0  0  0  0  0  0  0  0  0  0
  1  2  1  0
  2  3  4  0
  3  4  4  0
  4  5  4  0
  5  6  1  0
  6  7  1  0
  7  8  1  0
  8  9  1  0
  9 10  1  0
 10 11  1  0
 11 12  4  0
 12 13  4  0
 13 14  4  0
 14 15  1  0
 15 16  1  0
 15 17  2  0
 15 18  2  0
 14 19  4  0
 19 20  4  0
 20 21  1  0
 21 22  1  0
  5 23  4  0
 23  2  4  0
 21  7  1  0
 21  8  1  0
 20 11  4  0
  1 24  1  0
  1 25  1  0
  1 26  1  0
  6 27  1  0
  6 28  1  0
  8 29  1  0
  9 30  1  0
  9 31  1  0
 10 32  1  0
 10 33  1  0
 12 34  1  0
 13 35  1  0
 16 36  1  0
 16 37  1  0
 19 38  1  0
 22 39  1  0
 22 40  1  0
 22 41  1  0
M  CHG  1  21   1
M  END
