
     RDKit          3D

 50 52  0  0  0  0  0  0  0  0999 V2000
    8.0750   -1.5030   21.0990 C   0  0  0  0  0  0  0  0  0  0  0  0
    6.8640   -1.9100   20.3850 N   0  0  0  0  0  0  0  0  0  0  0  0
    6.8480   -1.4090   19.0010 C   0  0  0  0  0  0  0  0  0  0  0  0
    6.0250   -0.3010   18.9370 C   0  0  0  0  0  0  0  0  0  0  0  0
    5.0610    0.0390   20.0840 C   0  0  0  0  0  0  0  0  0  0  0  0
    4.2120    1.2370   19.9130 C   0  0  0  0  0  0  0  0  0  0  0  0
    3.2450    1.8150   20.7140 C   0  0  0  0  0  0  0  0  0  0  0  0
    3.6430    2.0270   22.1640 C   0  0  0  0  0  0  0  0  0  0  0  0
    3.4720    2.2730   23.2890 N   0  0  0  0  0  0  0  0  0  0  0  0
    2.3810    1.7000   23.9070 C   0  0  0  0  0  0  0  0  0  0  0  0
    2.2310    0.2910   23.9500 O   0  0  0  0  0  0  0  0  0  0  0  0
    1.2950    2.5500   24.5550 C   0  0  0  0  0  0  0  0  0  0  0  0
   -0.1510    2.0630   24.5630 C   0  0  0  0  0  0  0  0  0  0  0  0
   -1.1080    2.8620   25.1680 C   0  0  0  0  0  0  0  0  0  0  0  0
   -0.7480    4.0810   25.7520 C   0  0  0  0  0  0  0  0  0  0  0  0
    0.5780    4.5300   25.7440 C   0  0  0  0  0  0  0  0  0  0  0  0
    1.6040    3.7810   25.1540 C   0  0  0  0  0  0  0  0  0  0  0  0
    2.8530    4.2610   25.1770 F   0  0  0  0  0  0  0  0  0  0  0  0
    4.3150    2.0040   18.7420 C   0  0  0  0  0  0  0  0  0  0  0  0
    5.3010    1.5760   17.6810 C   0  0  0  0  0  0  0  0  0  0  0  0
    6.0940    0.4910   17.7950 N   0  0  0  0  0  0  0  0  0  0  0  0
    6.0530   -3.0920   20.6940 C   0  0  0  0  0  0  0  0  0  0  0  0
    5.4130   -3.8750   19.7170 O   0  0  0  0  0  0  0  0  0  0  0  0
    5.9840   -3.3680   21.8240 N   0  0  0  0  0  0  0  0  0  0  0  0
    6.5570   -4.5910   22.1080 C   0  0  2  0  0  0  0  0  0  0  0  0
    5.8070   -5.6770   22.2520 C   0  0  0  0  0  0  0  0  0  0  0  0
    6.2480   -5.3560   23.5550 C   0  0  0  0  0  0  0  0  0  0  0  0
    8.4590   -0.5710   20.6840 H   0  0  0  0  0  0  0  0  0  0  0  0
    7.8730   -1.3340   22.1610 H   0  0  0  0  0  0  0  0  0  0  0  0
    8.8480   -2.2700   21.0030 H   0  0  0  0  0  0  0  0  0  0  0  0
    6.4450   -2.1670   18.3200 H   0  0  0  0  0  0  0  0  0  0  0  0
    7.8580   -1.1440   18.6770 H   0  0  0  0  0  0  0  0  0  0  0  0
    5.0020   -0.5820   20.9830 H   0  0  0  0  0  0  0  0  0  0  0  0
    3.0180    2.8010   20.2970 H   0  0  0  0  0  0  0  0  0  0  0  0
    2.3350    1.2040   20.6630 H   0  0  0  0  0  0  0  0  0  0  0  0
    4.0420    1.0210   22.3330 H   0  0  0  0  0  0  0  0  0  0  0  0
    4.5440    2.6420   22.1180 H   0  0  0  0  0  0  0  0  0  0  0  0
    3.8630    3.1410   23.6560 H   0  0  0  0  0  0  0  0  0  0  0  0
   -0.4640    1.1220   24.1190 H   0  0  0  0  0  0  0  0  0  0  0  0
   -2.1320    2.4840   25.1560 H   0  0  0  0  0  0  0  0  0  0  0  0
   -1.5160    4.6930   26.2210 H   0  0  0  0  0  0  0  0  0  0  0  0
    0.8160    5.4840   26.2080 H   0  0  0  0  0  0  0  0  0  0  0  0
    3.7520    2.9060   18.4830 H   0  0  0  0  0  0  0  0  0  0  0  0
    5.4050    2.1470   16.7650 H   0  0  0  0  0  0  0  0  0  0  0  0
    6.2120   -2.6210   22.4620 H   0  0  0  0  0  0  0  0  0  0  0  0
    7.5710   -4.6800   21.7360 H   0  0  0  0  0  0  0  0  0  0  0  0
    6.2150   -6.5460   21.7230 H   0  0  0  0  0  0  0  0  0  0  0  0
    4.7650   -5.4990   21.9600 H   0  0  0  0  0  0  0  0  0  0  0  0
    5.5650   -4.9160   24.2880 H   0  0  0  0  0  0  0  0  0  0  0  0
    7.0380   -5.9390   24.0390 H   0  0  0  0  0  0  0  0  0  0  0  0
  1  2  1  0
  2  3  1  0
  3  4  1  0
  4  5  2  0
  5  6  1  0
  6  7  1  0
  7  8  1  0
  8  9  1  0
  9 10  1  0
 10 11  2  0
 10 12  1  0
 12 13  2  0
 13 14  1  0
 14 15  2  0
 15 16  1  0
 12 17  1  0
 16 17  2  0
 17 18  1  0
  6 19  2  0
 19 20  1  0
  4 21  1  0
 20 21  2  0
  2 22  1  0
 22 23  2  0
 22 24  1  0
 24 25  1  0
 25 26  1  0
 25 27  1  0
 26 27  1  0
  1 28  1  0
  1 29  1  0
  1 30  1  0
  3 31  1  0
  3 32  1  0
  5 33  1  0
  7 34  1  0
  7 35  1  0
  8 36  1  0
  8 37  1  0
  9 38  1  0
 13 39  1  0
 14 40  1  0
 15 41  1  0
 16 42  1  0
 19 43  1  0
 20 44  1  0
 24 45  1  0
 25 46  1  6
 26 47  1  0
 26 48  1  0
 27 49  1  0
 27 50  1  0
M  END
