
     RDKit          3D

 40 42  0  0  0  0  0  0  0  0999 V2000
    8.9720    6.6810   22.5470 C   0  0  0  0  0  0  0  0  0  0  0  0
   10.1540    6.2600   23.3770 C   0  0  0  0  0  0  0  0  0  0  0  0
   10.1820    6.3750   24.5990 O   0  0  0  0  0  0  0  0  0  0  0  0
   11.1820    5.7420   22.6380 N   0  0  0  0  0  0  0  0  0  0  0  0
   12.3850    5.2510   23.2870 C   0  0  0  0  0  0  0  0  0  0  0  0
   12.7600    3.8470   22.8320 C   0  0  0  0  0  0  0  0  0  0  0  0
   11.7070    2.8140   23.0910 C   0  0  0  0  0  0  0  0  0  0  0  0
   10.4360    3.0930   23.5360 C   0  0  0  0  0  0  0  0  0  0  0  0
    9.7340    1.9340   23.6030 N   0  0  0  0  0  0  0  0  0  0  0  0
   10.5140    0.8820   23.2100 C   0  0  0  0  0  0  0  0  0  0  0  0
   10.1810   -0.4630   23.0890 C   0  0  0  0  0  0  0  0  0  0  0  0
    8.7830   -0.9480   23.3830 C   0  0  0  0  0  0  0  0  0  0  0  0
    8.6990   -2.0990   24.3660 C   0  0  0  0  0  0  0  0  0  0  0  0
    8.1000   -1.8580   25.6730 N   0  0  0  0  0  0  0  0  0  0  0  0
    8.1450   -3.0460   26.3780 N   0  0  0  0  0  0  0  0  0  0  0  0
    8.7080   -4.0540   25.7050 C   0  0  0  0  0  0  0  0  0  0  0  0
    8.8950   -5.3480   26.2040 C   0  0  0  0  0  0  0  0  0  0  0  0
    9.2330   -3.6740   24.1140 S   0  0  0  0  0  0  0  0  0  0  0  0
   11.1780   -1.3680   22.6650 C   0  0  0  0  0  0  0  0  0  0  0  0
   12.4790   -0.9720   22.3770 C   0  0  0  0  0  0  0  0  0  0  0  0
   13.3820   -1.8690   21.9860 F   0  0  0  0  0  0  0  0  0  0  0  0
   12.8480    0.3830   22.4890 C   0  0  0  0  0  0  0  0  0  0  0  0
   11.7740    1.3840   22.9160 C   0  0  0  0  0  0  0  0  0  0  0  0
    9.2830    7.2060   21.6420 H   0  0  0  0  0  0  0  0  0  0  0  0
    8.3450    7.3570   23.1300 H   0  0  0  0  0  0  0  0  0  0  0  0
    8.3960    5.7980   22.2570 H   0  0  0  0  0  0  0  0  0  0  0  0
   10.9820    5.4950   21.6640 H   0  0  0  0  0  0  0  0  0  0  0  0
   13.1980    5.9540   23.0660 H   0  0  0  0  0  0  0  0  0  0  0  0
   12.2090    5.2790   24.3690 H   0  0  0  0  0  0  0  0  0  0  0  0
   13.6990    3.5720   23.2530 H   0  0  0  0  0  0  0  0  0  0  0  0
   12.9400    3.8800   21.7560 H   0  0  0  0  0  0  0  0  0  0  0  0
    9.9700    4.0310   23.7980 H   0  0  0  0  0  0  0  0  0  0  0  0
    8.7680    1.8550   23.8900 H   0  0  0  0  0  0  0  0  0  0  0  0
    8.1810   -0.1060   23.7450 H   0  0  0  0  0  0  0  0  0  0  0  0
    8.3220   -1.2580   22.4370 H   0  0  0  0  0  0  0  0  0  0  0  0
    9.8320   -5.7510   25.8300 H   0  0  0  0  0  0  0  0  0  0  0  0
    8.1270   -6.0920   26.0090 H   0  0  0  0  0  0  0  0  0  0  0  0
    8.9960   -5.3020   27.2900 H   0  0  0  0  0  0  0  0  0  0  0  0
   11.0090   -2.4390   22.5340 H   0  0  0  0  0  0  0  0  0  0  0  0
   13.8830    0.6110   22.2450 H   0  0  0  0  0  0  0  0  0  0  0  0
  1  2  1  0
  2  3  2  0
  2  4  1  0
  4  5  1  0
  5  6  1  0
  6  7  1  0
  7  8  2  0
  8  9  1  0
  9 10  1  0
 10 11  1  0
 11 12  1  0
 12 13  1  0
 13 14  2  0
 14 15  1  0
 15 16  2  0
 16 17  1  0
 13 18  1  0
 16 18  1  0
 11 19  2  0
 19 20  1  0
 20 21  1  0
 20 22  2  0
  7 23  1  0
 10 23  2  0
 22 23  1  0
  1 24  1  0
  1 25  1  0
  1 26  1  0
  4 27  1  0
  5 28  1  0
  5 29  1  0
  6 30  1  0
  6 31  1  0
  8 32  1  0
  9 33  1  0
 12 34  1  0
 12 35  1  0
 17 36  1  0
 17 37  1  0
 17 38  1  0
 19 39  1  0
 22 40  1  0
M  END
