LIG
     RDKit          3D

 60 64  0  0  0  0  0  0  0  0999 V2000
   11.2780   -1.4230   22.4040 C   0  0  0  0  0  0  0  0  0  0  0  0
   12.5030   -0.7650   22.1110 C   0  0  0  0  0  0  0  0  0  0  0  0
   13.4930   -1.4840   21.5620 F   0  0  0  0  0  0  0  0  0  0  0  0
   12.8220    0.5080   22.8900 C   0  0  0  0  0  0  0  0  0  0  0  0
   11.7930    1.2590   23.3580 C   0  0  0  0  0  0  0  0  0  0  0  0
   10.4750    0.3550   23.7830 C   0  0  0  0  0  0  0  0  0  0  0  0
   10.1350   -0.4490   22.8500 N   0  0  0  0  0  0  0  0  0  0  0  0
    9.0150   -1.0220   22.9690 C   0  0  0  0  0  0  0  0  0  0  0  0
    9.5095   -1.7505   24.7595 N   0  0  0  0  0  4  0  0  0  0  0  0
   11.0110   -0.3620   25.5050 C   0  0  0  0  0  0  0  0  0  0  0  0
   11.7150   -0.0910   24.1980 C   0  0  0  0  0  0  0  0  0  0  0  0
   11.7930    1.2590   23.3580 C   0  0  0  0  0  0  0  0  0  0  0  0
   12.8220    0.5080   22.8900 C   0  0  0  0  0  0  0  0  0  0  0  0
   13.2180   -1.0280   22.5640 C   0  0  0  0  0  0  0  0  0  0  0  0
   13.4930   -1.4840   21.5620 F   0  0  0  0  0  0  0  0  0  0  0  0
   12.4250   -1.2910   23.7650 N   0  0  0  0  0  0  0  0  0  0  0  0
   11.4450   -2.3540   23.5370 C   0  0  0  0  0  0  0  0  0  0  0  0
   10.0765   -3.1280   24.4465 C   0  0  0  0  0  0  0  0  0  0  0  0
    9.0910   -3.9920   25.6370 C   0  0  0  0  0  0  0  0  0  0  0  0
    9.3350   -5.3670   26.2750 C   0  0  0  0  0  0  0  0  0  0  0  0
    8.2405   -2.6060   25.9465 O   0  0  0  0  0  3  0  0  0  0  0  0
    8.6100   -1.5745   25.6005 C   0  0  0  0  0  0  0  0  0  0  0  0
    8.3750   -0.1600   26.5780 C   0  0  0  0  0  0  0  0  0  0  0  0
    7.4530   -0.4560   27.6150 O   0  0  0  0  0  0  0  0  0  0  0  0
    7.0230    0.5950   28.3850 C   0  0  0  0  0  0  0  0  0  0  0  0
    7.7660    1.7610   28.5270 C   0  0  0  0  0  0  0  0  0  0  0  0
    7.2890    2.7860   29.3270 C   0  0  0  0  0  0  0  0  0  0  0  0
    6.0790    2.6860   29.9860 C   0  0  0  0  0  0  0  0  0  0  0  0
    5.5720    3.8030   30.8520 C   0  0  0  0  0  0  0  0  0  0  0  0
    5.3530    1.5210   29.8320 C   0  0  0  0  0  0  0  0  0  0  0  0
    5.8090    0.4760   29.0440 C   0  0  0  0  0  0  0  0  0  0  0  0
   10.9184   -1.3144   23.4450 H   0  0  0  0  0  0  0  0  0  0  0  0
   10.4576   -1.0471   21.7619 H   0  0  0  0  0  0  0  0  0  0  0  0
   10.5129   -0.7060   22.7648 H   0  0  0  0  0  0  0  0  0  0  0  0
   13.8265    0.6830   22.9472 H   0  0  0  0  0  0  0  0  0  0  0  0
   11.3865    2.0461   22.6990 H   0  0  0  0  0  0  0  0  0  0  0  0
   12.0527    1.7748   24.2980 H   0  0  0  0  0  0  0  0  0  0  0  0
   10.7322   -0.0632   24.7656 H   0  0  0  0  0  0  0  0  0  0  0  0
    9.7352    1.1458   23.9795 H   0  0  0  0  0  0  0  0  0  0  0  0
    8.8558   -1.9899   22.5558 H   0  0  0  0  0  0  0  0  0  0  0  0
    8.1235   -0.5653   23.3425 H   0  0  0  0  0  0  0  0  0  0  0  0
   10.2752    0.2845   25.8393 H   0  0  0  0  0  0  0  0  0  0  0  0
   11.3789   -1.0927   26.1493 H   0  0  0  0  0  0  0  0  0  0  0  0
   10.5200   -0.5465   23.4660 H   0  0  0  0  0  0  0  0  0  0  0  0
   10.9760    1.2955   22.7405 H   0  0  0  0  0  0  0  0  0  0  0  0
   12.0230    2.0366   23.9718 H   0  0  0  0  0  0  0  0  0  0  0  0
   13.9227    1.1205   22.5438 H   0  0  0  0  0  0  0  0  0  0  0  0
   11.3813   -2.5927   22.4015 H   0  0  0  0  0  0  0  0  0  0  0  0
    8.8417   -5.3935   27.2395 H   0  0  0  0  0  0  0  0  0  0  0  0
    8.9362   -6.1488   25.6392 H   0  0  0  0  0  0  0  0  0  0  0  0
    8.3774   -5.8502   26.4386 H   0  0  0  0  0  0  0  0  0  0  0  0
    9.3557   -0.0105   26.9831 H   0  0  0  0  0  0  0  0  0  0  0  0
    8.1130    0.6279   25.9095 H   0  0  0  0  0  0  0  0  0  0  0  0
    8.7431    1.9083   28.0719 H   0  0  0  0  0  0  0  0  0  0  0  0
    7.9106    3.6850   29.4664 H   0  0  0  0  0  0  0  0  0  0  0  0
    4.7476    3.4646   31.4908 H   0  0  0  0  0  0  0  0  0  0  0  0
    4.5185    4.0163   30.6419 H   0  0  0  0  0  0  0  0  0  0  0  0
    5.6722    3.5336   31.9085 H   0  0  0  0  0  0  0  0  0  0  0  0
    4.3974    1.4000   30.3768 H   0  0  0  0  0  0  0  0  0  0  0  0
    5.2146   -0.4284   28.9688 H   0  0  0  0  0  0  0  0  0  0  0  0
  1  2  1  0
  2  3  1  0
  2  4  2  3
  4  5  1  0
  5  6  1  0
  6  7  1  0
  7  8  1  0
  8  9  1  0
  9 10  1  0
 10 11  1  0
 11 12  1  0
 12 13  1  0
 13 14  2  0
 14 15  1  0
 14 16  1  0
 16 17  1  0
 17 18  1  0
 18 19  2  0
 19 20  1  0
 19 21  1  0
 21 22  2  0
 22 23  1  0
 23 24  1  0
 24 25  1  0
 25 26  4  0
 26 27  4  0
 27 28  4  0
 28 29  1  0
 28 30  4  0
 30 31  4  0
 17  7  1  0
 31 25  4  0
 18  9  1  0
 22  9  1  0
 16 11  1  0
  1 32  1  0
  1 33  1  0
  1 34  1  0
  4 35  1  0
  5 36  1  0
  5 37  1  0
  6 38  1  0
  6 39  1  0
  8 40  1  0
  8 41  1  0
 10 42  1  0
 10 43  1  0
 11 44  1  0
 12 45  1  0
 12 46  1  0
 13 47  1  0
 17 48  1  0
 20 49  1  0
 20 50  1  0
 20 51  1  0
 23 52  1  0
 23 53  1  0
 26 54  1  0
 27 55  1  0
 29 56  1  0
 29 57  1  0
 29 58  1  0
 30 59  1  0
 31 60  1  0
M  CHG  2   9   1  21   1
M  END
