LIG
     RDKit          3D

 34 36  0  0  0  0  0  0  0  0999 V2000
    9.3350   -5.3670   26.2750 C   0  0  0  0  0  0  0  0  0  0  0  0
    9.0910   -3.9920   25.6370 C   0  0  0  0  0  0  0  0  0  0  0  0
    8.5200   -2.9160   26.2860 N   0  0  0  0  0  0  0  0  0  0  0  0
    8.4300   -1.7410   25.3910 N   0  0  0  0  0  0  0  0  0  0  0  0
    8.9500   -2.0240   24.1390 C   0  0  0  0  0  0  0  0  0  0  0  0
    9.0150   -1.0220   22.9690 C   0  0  0  0  0  0  0  0  0  0  0  0
   10.1350   -0.4490   22.8500 N   0  0  0  0  0  0  0  0  0  0  0  0
   11.2780   -1.4230   22.4040 C   0  0  0  0  0  0  0  0  0  0  0  0
   12.8830   -0.6900   22.3975 C   0  0  0  0  0  0  0  0  0  0  0  0
   13.4930   -1.4840   21.5620 F   0  0  0  0  0  0  0  0  0  0  0  0
   12.9850    1.3965   22.8275 C   0  0  0  0  0  0  0  0  0  0  0  0
   12.5830    3.5320   23.0260 C   0  0  0  0  0  0  0  0  0  0  0  0
   12.0680    3.5729   24.1664 C   0  0  0  0  0  0  0  0  0  0  0  0
   11.8027    5.2685   24.4473 S   0  0  0  0  0  6  0  0  0  0  0  0
   11.0716    5.8727   23.0464 N   0  0  0  0  0  0  0  0  0  0  0  0
   10.7903    5.4601   25.4634 O   0  0  0  0  0  0  0  0  0  0  0  0
   13.0676    5.9685   24.5179 O   0  0  0  0  0  0  0  0  0  0  0  0
   11.8700    2.5781   25.2696 C   0  0  0  0  0  0  0  0  0  0  0  0
   10.8445    0.7785   23.7760 C   0  0  0  0  0  0  0  0  0  0  0  0
   12.1240    1.1975   23.2445 C   0  0  0  0  0  0  0  0  0  0  0  0
    9.4770   -3.5790   24.0930 S   0  0  0  0  0  0  0  0  0  0  0  0
    9.1223   -5.3183   27.3387 H   0  0  0  0  0  0  0  0  0  0  0  0
   10.3739   -5.6489   26.1307 H   0  0  0  0  0  0  0  0  0  0  0  0
   10.0895   -5.2791   27.0508 H   0  0  0  0  0  0  0  0  0  0  0  0
    8.1862   -0.3292   23.1730 H   0  0  0  0  0  0  0  0  0  0  0  0
    8.6853   -1.6021   22.0948 H   0  0  0  0  0  0  0  0  0  0  0  0
   11.1181   -1.7778   21.3890 H   0  0  0  0  0  0  0  0  0  0  0  0
   11.3772   -2.2786   23.0661 H   0  0  0  0  0  0  0  0  0  0  0  0
   12.4197    3.6048   23.9665 H   0  0  0  0  0  0  0  0  0  0  0  0
   10.1052    6.1145   23.2777 H   0  0  0  0  0  0  0  0  0  0  0  0
   11.5989    6.6955   22.7448 H   0  0  0  0  0  0  0  0  0  0  0  0
   12.1323    2.9608   26.2519 H   0  0  0  0  0  0  0  0  0  0  0  0
   12.4784    1.7679   24.6402 H   0  0  0  0  0  0  0  0  0  0  0  0
   11.6652    2.6659   23.3645 H   0  0  0  0  0  0  0  0  0  0  0  0
  1  2  1  0
  2  3  4  0
  3  4  4  0
  4  5  4  0
  5  6  1  0
  6  7  1  0
  7  8  1  0
  8  9  1  0
  9 10  1  0
  9 11  2  0
 11 12  1  0
 12 13  2  0
 13 14  1  0
 14 15  1  0
 14 16  2  0
 14 17  2  0
 13 18  1  0
 18 19  2  0
 19 20  1  0
  5 21  4  0
 21  2  4  0
 19  7  1  0
 20 11  1  0
  1 22  1  0
  1 23  1  0
  1 24  1  0
  6 25  1  0
  6 26  1  0
  8 27  1  0
  8 28  1  0
 12 29  1  0
 15 30  1  0
 15 31  1  0
 18 32  1  0
 20 33  1  0
 20 34  1  0
M  END
