
     RDKit          3D

 55 56  0  0  0  0  0  0  0  0999 V2000
    7.6380    4.9490   22.3640 C   0  0  0  0  0  0  0  0  0  0  0  0
    7.2180    3.6270   22.9520 C   0  0  0  0  0  0  0  0  0  0  0  0
    6.3480    3.5490   23.8140 O   0  0  0  0  0  0  0  0  0  0  0  0
    7.8900    2.5450   22.4440 N   0  0  0  0  0  0  0  0  0  0  0  0
    7.7100    1.2160   23.0060 C   0  0  1  0  0  0  0  0  0  0  0  0
    6.3640    0.5700   22.6290 C   0  0  0  0  0  0  0  0  0  0  0  0
    6.1390    0.5660   21.1490 C   0  0  0  0  0  0  0  0  0  0  0  0
    7.0480   -0.0930   20.3300 C   0  0  0  0  0  0  0  0  0  0  0  0
    6.8730   -0.1220   18.8340 C   0  0  0  0  0  0  0  0  0  0  0  0
    5.7810    0.5270   18.2660 C   0  0  0  0  0  0  0  0  0  0  0  0
    5.6580    0.4980   17.0840 O   0  0  0  0  0  0  0  0  0  0  0  0
    4.8010    1.2290   19.1030 C   0  0  0  0  0  0  0  0  0  0  0  0
    4.9830    1.2490   20.6090 C   0  0  0  0  0  0  0  0  0  0  0  0
    4.0070    1.9310   21.3160 C   0  0  0  0  0  0  0  0  0  0  0  0
    4.0660    1.8720   22.7020 C   0  0  0  0  0  0  0  0  0  0  0  0
    3.0750    2.5360   23.3300 N   0  0  0  0  0  0  0  0  0  0  0  0
    2.0700    1.7580   23.8990 C   0  0  0  0  0  0  0  0  0  0  0  0
    2.0310    0.5330   23.8590 O   0  0  0  0  0  0  0  0  0  0  0  0
    1.0820    2.5050   24.5390 C   0  0  0  0  0  0  0  0  0  0  0  0
   -0.2470    2.0420   24.5610 C   0  0  0  0  0  0  0  0  0  0  0  0
   -1.2510    2.9270   25.2850 C   0  0  0  0  0  0  0  0  0  0  0  0
   -0.9110    4.1190   25.8970 C   0  0  0  0  0  0  0  0  0  0  0  0
    0.3970    4.6000   25.8900 C   0  0  0  0  0  0  0  0  0  0  0  0
    1.4210    3.8680   25.2490 C   0  0  0  0  0  0  0  0  0  0  0  0
    2.6650    4.3700   25.2680 F   0  0  0  0  0  0  0  0  0  0  0  0
    8.9330    0.4000   22.5520 C   0  0  0  0  0  0  0  0  0  0  0  0
    9.8680    0.9190   21.9560 O   0  0  0  0  0  0  0  0  0  0  0  0
    8.9080   -0.9400   22.8740 N   0  0  0  0  0  0  0  0  0  0  0  0
    9.7090   -1.8770   22.1200 C   0  0  0  0  0  0  0  0  0  0  0  0
   11.1330   -1.4560   21.9790 C   0  0  0  0  0  0  0  0  0  0  0  0
   12.0920   -1.8130   23.0320 C   0  0  0  0  0  0  0  0  0  0  0  0
   13.2920   -2.2910   24.4170 Br  0  0  0  0  0  0  0  0  0  0  0  0
    7.3230    5.0530   21.3220 H   0  0  0  0  0  0  0  0  0  0  0  0
    7.1770    5.7570   22.9410 H   0  0  0  0  0  0  0  0  0  0  0  0
    8.7280    5.0340   22.4160 H   0  0  0  0  0  0  0  0  0  0  0  0
    8.7360    2.7130   21.9190 H   0  0  0  0  0  0  0  0  0  0  0  0
    7.7830    1.3050   24.0960 H   0  0  0  0  0  0  0  0  0  0  0  0
    5.5500    1.0670   23.1580 H   0  0  0  0  0  0  0  0  0  0  0  0
    6.3590   -0.4650   22.9930 H   0  0  0  0  0  0  0  0  0  0  0  0
    7.9080   -0.6000   20.7850 H   0  0  0  0  0  0  0  0  0  0  0  0
    7.6000   -0.6490   18.2100 H   0  0  0  0  0  0  0  0  0  0  0  0
    6.4000    0.1320   16.5070 H   0  0  0  0  0  0  0  0  0  0  0  0
    3.9450    1.7320   18.6320 H   0  0  0  0  0  0  0  0  0  0  0  0
    3.0590    1.4670   21.0200 H   0  0  0  0  0  0  0  0  0  0  0  0
    3.9100    2.9360   20.8960 H   0  0  0  0  0  0  0  0  0  0  0  0
    4.1000    0.8560   23.0880 H   0  0  0  0  0  0  0  0  0  0  0  0
    5.0680    2.2340   22.9290 H   0  0  0  0  0  0  0  0  0  0  0  0
    2.8510    3.4680   22.9950 H   0  0  0  0  0  0  0  0  0  0  0  0
   -0.4510    1.0880   24.0610 H   0  0  0  0  0  0  0  0  0  0  0  0
   -2.2680    2.5500   25.2900 H   0  0  0  0  0  0  0  0  0  0  0  0
   -1.7840    4.5750   26.3480 H   0  0  0  0  0  0  0  0  0  0  0  0
    0.4970    5.5730   26.4250 H   0  0  0  0  0  0  0  0  0  0  0  0
    8.6960   -1.1890   23.8420 H   0  0  0  0  0  0  0  0  0  0  0  0
   10.0730   -2.6840   22.7890 H   0  0  0  0  0  0  0  0  0  0  0  0
    9.1550   -2.3260   21.3040 H   0  0  0  0  0  0  0  0  0  0  0  0
  1  2  1  0
  2  3  2  0
  2  4  1  0
  4  5  1  0
  5  6  1  0
  6  7  1  0
  7  8  2  0
  8  9  1  0
  9 10  2  0
 10 11  1  0
 10 12  1  0
  7 13  1  0
 12 13  2  0
 13 14  1  0
 14 15  1  0
 15 16  1  0
 16 17  1  0
 17 18  2  0
 17 19  1  0
 19 20  2  0
 20 21  1  0
 21 22  2  0
 22 23  1  0
 19 24  1  0
 23 24  2  0
 24 25  1  0
  5 26  1  0
 26 27  2  0
 26 28  1  0
 28 29  1  0
 29 30  1  0
 30 31  3  0
 31 32  1  0
  1 33  1  0
  1 34  1  0
  1 35  1  0
  4 36  1  0
  5 37  1  1
  6 38  1  0
  6 39  1  0
  8 40  1  0
  9 41  1  0
 11 42  1  0
 12 43  1  0
 14 44  1  0
 14 45  1  0
 15 46  1  0
 15 47  1  0
 16 48  1  0
 20 49  1  0
 21 50  1  0
 22 51  1  0
 23 52  1  0
 28 53  1  0
 29 54  1  0
 29 55  1  0
M  END
