LIG
     RDKit          3D

 45 47  0  0  0  0  0  0  0  0999 V2000
   10.0290   -0.6240   22.5460 C   0  0  0  0  0  0  0  0  0  0  0  0
    9.1310   -0.0090   21.4750 C   0  0  0  0  0  0  0  0  0  0  0  0
    9.4550    1.0030   20.9560 O   0  0  0  0  0  0  0  0  0  0  0  0
    7.8860   -0.6570   21.1000 N   0  0  0  0  0  0  0  0  0  0  0  0
    7.0320   -0.0760   20.0760 C   0  0  0  0  0  0  0  0  0  0  0  0
    7.0510   -0.1350   18.9470 C   0  0  0  0  0  0  0  0  0  0  0  0
    6.6050    0.3710   17.8600 N   0  0  0  0  0  0  0  0  0  0  0  0
    5.5610    1.1035   17.8755 C   0  0  0  0  0  0  0  0  0  0  0  0
    4.7220    1.6620   18.6570 C   0  0  0  0  0  0  0  0  0  0  0  0
    4.9510    1.1295   19.6565 C   0  0  0  0  0  0  0  0  0  0  0  0
    3.8370    1.6420   20.9890 C   0  0  0  0  0  0  0  0  0  0  0  0
    4.8625    1.1900   22.1505 C   0  0  0  0  0  0  0  0  0  0  0  0
    3.3230    2.4740   23.1750 N   0  0  0  0  0  0  0  0  0  0  0  0
    2.1860    1.8200   23.8150 C   0  0  0  0  0  0  0  0  0  0  0  0
    2.0580    0.6400   23.7610 O   0  0  0  0  0  0  0  0  0  0  0  0
    1.1280    2.6340   24.5580 C   0  0  0  0  0  0  0  0  0  0  0  0
   -0.1860    2.1670   24.5890 C   0  0  0  0  0  0  0  0  0  0  0  0
   -1.1770    2.8770   25.2530 C   0  0  0  0  0  0  0  0  0  0  0  0
   -0.8610    4.0710   25.8830 C   0  0  0  0  0  0  0  0  0  0  0  0
    0.4450    4.5400   25.8480 C   0  0  0  0  0  0  0  0  0  0  0  0
    1.4450    3.8310   25.1930 C   0  0  0  0  0  0  0  0  0  0  0  0
    2.7270    4.3200   25.1830 F   0  0  0  0  0  0  0  0  0  0  0  0
    5.8435    0.3995   20.3055 C   0  0  0  0  0  0  0  0  0  0  0  0
    9.8056   -1.6886   22.6177 H   0  0  0  0  0  0  0  0  0  0  0  0
   11.0694   -0.4747   22.2538 H   0  0  0  0  0  0  0  0  0  0  0  0
   10.6494   -1.4174   22.1263 H   0  0  0  0  0  0  0  0  0  0  0  0
    7.6497   -1.5100   21.5372 H   0  0  0  0  0  0  0  0  0  0  0  0
    6.4876   -1.6070   20.2514 H   0  0  0  0  0  0  0  0  0  0  0  0
    6.4940   -1.3494   18.8196 H   0  0  0  0  0  0  0  0  0  0  0  0
    7.3995    0.8694   17.3206 H   0  0  0  0  0  0  0  0  0  0  0  0
    5.8354    1.9983   16.9836 H   0  0  0  0  0  0  0  0  0  0  0  0
    4.8484    0.5434   16.9689 H   0  0  0  0  0  0  0  0  0  0  0  0
    4.8536    2.7934   18.6253 H   0  0  0  0  0  0  0  0  0  0  0  0
    3.6595    1.5596   18.2455 H   0  0  0  0  0  0  0  0  0  0  0  0
    5.6930    2.3431   20.1930 H   0  0  0  0  0  0  0  0  0  0  0  0
    3.1007    0.9826   20.9580 H   0  0  0  0  0  0  0  0  0  0  0  0
    3.7558    2.6106   20.9078 H   0  0  0  0  0  0  0  0  0  0  0  0
    5.4828    1.8574   22.3562 H   0  0  0  0  0  0  0  0  0  0  0  0
    4.4249    0.4780   22.6664 H   0  0  0  0  0  0  0  0  0  0  0  0
    3.6638    3.2776   22.9992 H   0  0  0  0  0  0  0  0  0  0  0  0
   -0.4464    1.2351   24.0844 H   0  0  0  0  0  0  0  0  0  0  0  0
   -2.1969    2.5004   25.2786 H   0  0  0  0  0  0  0  0  0  0  0  0
   -1.6333    4.6365   26.4009 H   0  0  0  0  0  0  0  0  0  0  0  0
    0.6992    5.4823   26.3413 H   0  0  0  0  0  0  0  0  0  0  0  0
    5.2382   -0.7762   20.3068 H   0  0  0  0  0  0  0  0  0  0  0  0
  1  2  1  0
  2  3  2  0
  2  4  1  0
  4  5  1  0
  5  6  1  0
  6  7  1  0
  7  8  1  0
  8  9  1  0
  9 10  1  0
 10 11  1  0
 11 12  1  0
 12 13  1  0
 13 14  1  0
 14 15  2  0
 14 16  1  0
 16 17  4  0
 17 18  4  0
 18 19  4  0
 19 20  4  0
 20 21  4  0
 21 22  1  0
 10 23  1  0
 23  5  1  0
 23  6  1  0
 21 16  4  0
  1 24  1  0
  1 25  1  0
  1 26  1  0
  4 27  1  0
  5 28  1  0
  6 29  1  0
  7 30  1  0
  8 31  1  0
  8 32  1  0
  9 33  1  0
  9 34  1  0
 10 35  1  0
 11 36  1  0
 11 37  1  0
 12 38  1  0
 12 39  1  0
 13 40  1  0
 17 41  1  0
 18 42  1  0
 19 43  1  0
 20 44  1  0
 23 45  1  0
M  END
