
     RDKit          3D

 51 54  0  0  0  0  0  0  0  0999 V2000
   13.4690   -1.6980   23.6760 C   0  0  0  0  0  0  0  0  0  0  0  0
   12.1070   -1.1860   23.6690 N   0  0  0  0  0  0  0  0  0  0  0  0
   11.2100   -1.9350   22.7600 C   0  0  0  0  0  0  0  0  0  0  0  0
    9.8990   -1.3820   22.7560 C   0  0  0  0  0  0  0  0  0  0  0  0
    9.8530   -0.0770   22.3590 N   0  0  0  0  0  0  0  0  0  0  0  0
    8.7220    0.5120   21.6100 C   0  0  0  0  0  0  0  0  0  0  0  0
    8.8740    1.7790   21.0080 O   0  0  0  0  0  0  0  0  0  0  0  0
    7.4230   -0.2480   21.5250 C   0  0  0  0  0  0  0  0  0  0  0  0
    6.6260    0.1610   20.4700 C   0  0  0  0  0  0  0  0  0  0  0  0
    7.2020   -0.3430   19.2750 C   0  0  0  0  0  0  0  0  0  0  0  0
    6.3480    0.1410   18.2540 N   0  0  0  0  0  0  0  0  0  0  0  0
    5.1030    1.0150   18.4640 C   0  0  0  0  0  0  0  0  0  0  0  0
    4.0560    1.7510   18.6420 N   0  0  0  0  0  0  0  0  0  0  0  0
    4.3300    1.6520   19.7030 C   0  0  0  0  0  0  0  0  0  0  0  0
    3.8320    2.0830   20.8190 C   0  0  0  0  0  0  0  0  0  0  0  0
    4.6180    1.6160   21.6410 C   0  0  0  0  0  0  0  0  0  0  0  0
    3.6680    2.3430   22.4620 N   0  0  0  0  0  0  0  0  0  0  0  0
    2.8780    1.9140   23.5350 C   0  0  0  0  0  0  0  0  0  0  0  0
    3.0320    0.7000   24.2600 O   0  0  0  0  0  0  0  0  0  0  0  0
    1.7720    2.6260   24.1590 C   0  0  0  0  0  0  0  0  0  0  0  0
    0.4220    2.2880   23.9310 C   0  0  0  0  0  0  0  0  0  0  0  0
   -0.6780    2.9330   24.5350 C   0  0  0  0  0  0  0  0  0  0  0  0
   -0.4240    4.0780   25.4840 C   0  0  0  0  0  0  0  0  0  0  0  0
    0.8950    4.4180   25.6950 C   0  0  0  0  0  0  0  0  0  0  0  0
    1.9480    3.7230   25.0630 C   0  0  0  0  0  0  0  0  0  0  0  0
    3.1790    4.1520   25.3610 F   0  0  0  0  0  0  0  0  0  0  0  0
    5.3830    0.9730   20.2290 C   0  0  0  0  0  0  0  0  0  0  0  0
   10.6820    0.8400   23.2080 C   0  0  0  0  0  0  0  0  0  0  0  0
   12.0970    0.2270   23.2840 C   0  0  0  0  0  0  0  0  0  0  0  0
   14.0110   -1.3480   22.7940 H   0  0  0  0  0  0  0  0  0  0  0  0
   14.0120   -1.3580   24.5630 H   0  0  0  0  0  0  0  0  0  0  0  0
   13.4630   -2.7920   23.6600 H   0  0  0  0  0  0  0  0  0  0  0  0
   11.1420   -2.9800   23.0770 H   0  0  0  0  0  0  0  0  0  0  0  0
   11.6090   -1.9080   21.7390 H   0  0  0  0  0  0  0  0  0  0  0  0
    9.2740   -1.9650   22.0760 H   0  0  0  0  0  0  0  0  0  0  0  0
    9.4470   -1.4940   23.7520 H   0  0  0  0  0  0  0  0  0  0  0  0
    7.5400   -1.3230   21.6360 H   0  0  0  0  0  0  0  0  0  0  0  0
    6.8520    0.0340   22.4160 H   0  0  0  0  0  0  0  0  0  0  0  0
    8.0960   -0.9610   19.1570 H   0  0  0  0  0  0  0  0  0  0  0  0
    6.5340   -0.0760   17.2790 H   0  0  0  0  0  0  0  0  0  0  0  0
    5.2240    1.0550   19.8900 H   0  0  0  0  0  0  0  0  0  0  0  0
    2.9440    2.7030   20.9850 H   0  0  0  0  0  0  0  0  0  0  0  0
    3.6060    3.3270   22.2420 H   0  0  0  0  0  0  0  0  0  0  0  0
    0.2990    1.4620   23.2370 H   0  0  0  0  0  0  0  0  0  0  0  0
   -1.7100    2.6250   24.3310 H   0  0  0  0  0  0  0  0  0  0  0  0
   -1.2300    4.6130   25.9750 H   0  0  0  0  0  0  0  0  0  0  0  0
    1.1090    5.2410   26.3710 H   0  0  0  0  0  0  0  0  0  0  0  0
   10.1810    0.8550   24.1760 H   0  0  0  0  0  0  0  0  0  0  0  0
   10.6620    1.8540   22.7880 H   0  0  0  0  0  0  0  0  0  0  0  0
   12.8040    0.8600   23.8400 H   0  0  0  0  0  0  0  0  0  0  0  0
   12.1980    0.3930   22.1900 H   0  0  0  0  0  0  0  0  0  0  0  0
  1  2  1  0
  2  3  1  0
  3  4  1  0
  4  5  1  0
  5  6  1  0
  6  7  2  0
  6  8  1  0
  8  9  1  0
  9 10  2  0
 10 11  1  0
 11 12  1  0
 12 13  1  0
 13 14  2  0
 14 15  1  0
 15 16  2  0
 16 17  1  0
 17 18  1  0
 18 19  2  0
 18 20  1  0
 20 21  2  0
 21 22  1  0
 22 23  2  0
 23 24  1  0
 20 25  1  0
 24 25  2  0
 25 26  1  0
  9 27  1  0
 12 27  2  0
 16 27  1  0
  5 28  1  0
  2 29  1  0
 28 29  1  0
  1 30  1  0
  1 31  1  0
  1 32  1  0
  3 33  1  0
  3 34  1  0
  4 35  1  0
  4 36  1  0
  8 37  1  0
  8 38  1  0
 10 39  1  0
 11 40  1  0
 14 41  1  0
 15 42  1  0
 17 43  1  0
 21 44  1  0
 22 45  1  0
 23 46  1  0
 24 47  1  0
 28 48  1  0
 28 49  1  0
 29 50  1  0
 29 51  1  0
M  END
