LIG
     RDKit          3D

 51 54  0  0  0  0  0  0  0  0999 V2000
   13.7290   -1.2710   23.6040 C   0  0  0  0  0  0  0  0  0  0  0  0
   12.3210   -0.8940   23.7180 N   0  0  0  0  0  0  0  0  0  0  0  0
   11.4670   -1.8380   22.9920 C   0  0  0  0  0  0  0  0  0  0  0  0
   10.0140   -1.4540   23.1290 C   0  0  0  0  0  0  0  0  0  0  0  0
    9.8260   -0.0960   22.6220 N   0  0  0  0  0  0  0  0  0  0  0  0
    9.0660    0.2300   21.5610 C   0  0  0  0  0  0  0  0  0  0  0  0
    8.9960    1.3830   21.1430 O   0  0  0  0  0  0  0  0  0  0  0  0
    8.3080   -0.8880   20.8630 C   0  0  0  0  0  0  0  0  0  0  0  0
    7.0650   -0.2135   19.4800 C   0  0  0  0  0  0  0  0  0  0  0  0
    7.6450   -0.3300   18.4600 C   0  0  0  0  0  0  0  0  0  0  0  0
    6.5995    0.3585   17.8740 N   0  0  0  0  0  0  0  0  0  0  0  0
    5.6815    1.0255   18.2095 C   0  0  0  0  0  0  0  0  0  0  0  0
    4.6865    1.5960   18.5815 N   0  0  0  0  0  0  0  0  0  0  0  0
    4.3985    1.5220   19.7660 C   0  0  0  0  0  0  0  0  0  0  0  0
    4.0805    1.6025   20.9470 C   0  0  0  0  0  0  0  0  0  0  0  0
    4.9040    1.2780   21.7810 C   0  0  0  0  0  0  0  0  0  0  0  0
    3.3230    2.4740   23.1750 N   0  0  0  0  0  0  0  0  0  0  0  0
    2.1860    1.8200   23.8150 C   0  0  0  0  0  0  0  0  0  0  0  0
    2.0580    0.6400   23.7610 O   0  0  0  0  0  0  0  0  0  0  0  0
    1.1280    2.6340   24.5580 C   0  0  0  0  0  0  0  0  0  0  0  0
   -0.1860    2.1670   24.5890 C   0  0  0  0  0  0  0  0  0  0  0  0
   -1.1770    2.8770   25.2530 C   0  0  0  0  0  0  0  0  0  0  0  0
   -0.8610    4.0710   25.8830 C   0  0  0  0  0  0  0  0  0  0  0  0
    0.4450    4.5400   25.8480 C   0  0  0  0  0  0  0  0  0  0  0  0
    1.4450    3.8310   25.1930 C   0  0  0  0  0  0  0  0  0  0  0  0
    2.7270    4.3200   25.1830 F   0  0  0  0  0  0  0  0  0  0  0  0
    6.0390    0.3420   20.1090 C   0  0  0  0  0  0  0  0  0  0  0  0
   10.6540    0.8680   23.3430 C   0  0  0  0  0  0  0  0  0  0  0  0
   12.1050    0.4690   23.2230 C   0  0  0  0  0  0  0  0  0  0  0  0
   14.3718   -0.3865   23.6804 H   0  0  0  0  0  0  0  0  0  0  0  0
   14.2714   -1.0200   24.5216 H   0  0  0  0  0  0  0  0  0  0  0  0
   14.0261   -1.9828   24.3831 H   0  0  0  0  0  0  0  0  0  0  0  0
   11.6140   -2.8135   23.4437 H   0  0  0  0  0  0  0  0  0  0  0  0
   11.7490   -1.9151   21.9516 H   0  0  0  0  0  0  0  0  0  0  0  0
    9.3776   -2.1085   22.5428 H   0  0  0  0  0  0  0  0  0  0  0  0
    9.7158   -1.4928   24.1676 H   0  0  0  0  0  0  0  0  0  0  0  0
    8.8792   -1.5346   20.2569 H   0  0  0  0  0  0  0  0  0  0  0  0
    7.5737   -1.3982   21.4357 H   0  0  0  0  0  0  0  0  0  0  0  0
    8.4521   -0.6530   17.9364 H   0  0  0  0  0  0  0  0  0  0  0  0
    6.6813    0.2350   16.6542 H   0  0  0  0  0  0  0  0  0  0  0  0
    4.6923    0.1005   19.7720 H   0  0  0  0  0  0  0  0  0  0  0  0
    3.0362    1.9519   21.1974 H   0  0  0  0  0  0  0  0  0  0  0  0
    3.8271    3.2137   23.1467 H   0  0  0  0  0  0  0  0  0  0  0  0
   -0.4447    1.2306   24.0874 H   0  0  0  0  0  0  0  0  0  0  0  0
   -2.1976    2.4992   25.2731 H   0  0  0  0  0  0  0  0  0  0  0  0
   -1.6339    4.6390   26.3970 H   0  0  0  0  0  0  0  0  0  0  0  0
    0.6980    5.4868   26.3365 H   0  0  0  0  0  0  0  0  0  0  0  0
   10.3248    0.8596   24.3874 H   0  0  0  0  0  0  0  0  0  0  0  0
   10.5073    1.8791   22.9570 H   0  0  0  0  0  0  0  0  0  0  0  0
   12.7311    1.1521   23.7940 H   0  0  0  0  0  0  0  0  0  0  0  0
   12.3909    0.5427   22.1730 H   0  0  0  0  0  0  0  0  0  0  0  0
  1  2  1  0
  2  3  1  0
  3  4  1  0
  4  5  1  0
  5  6  1  0
  6  7  2  0
  6  8  1  0
  8  9  1  0
  9 10  4  0
 10 11  4  0
 11 12  4  0
 12 13  4  0
 13 14  4  0
 14 15  4  0
 15 16  4  0
 16 17  1  0
 17 18  1  0
 18 19  2  0
 18 20  1  0
 20 21  4  0
 21 22  4  0
 22 23  4  0
 23 24  4  0
 24 25  4  0
 25 26  1  0
 16 27  4  0
  5 28  1  0
 28 29  1  0
 29  2  1  0
 27  9  4  0
 27 12  4  0
 25 20  4  0
  1 30  1  0
  1 31  1  0
  1 32  1  0
  3 33  1  0
  3 34  1  0
  4 35  1  0
  4 36  1  0
  8 37  1  0
  8 38  1  0
 10 39  1  0
 11 40  1  0
 14 41  1  0
 15 42  1  0
 17 43  1  0
 21 44  1  0
 22 45  1  0
 23 46  1  0
 24 47  1  0
 28 48  1  0
 28 49  1  0
 29 50  1  0
 29 51  1  0
M  END
