
     RDKit          3D

 45 47  0  0  0  0  0  0  0  0999 V2000
    9.8580   -0.6600   22.0830 C   0  0  0  0  0  0  0  0  0  0  0  0
    8.8490    0.3610   21.6040 C   0  0  0  0  0  0  0  0  0  0  0  0
    9.1640    1.4770   21.1920 O   0  0  0  0  0  0  0  0  0  0  0  0
    7.5410   -0.0270   21.7110 N   0  0  0  0  0  0  0  0  0  0  0  0
    6.7900   -0.7900   20.7300 C   0  0  2  0  0  0  0  0  0  0  0  0
    6.7290   -0.4500   19.2400 C   0  0  2  0  0  0  0  0  0  0  0  0
    6.8010    0.8460   18.6070 N   0  0  0  0  0  0  0  0  0  0  0  0
    5.6130    1.0900   17.7930 C   0  0  0  0  0  0  0  0  0  0  0  0
    4.5560    1.4360   18.5930 C   0  0  0  0  0  0  0  0  0  0  0  0
    5.0000    1.1930   20.0210 C   0  0  1  0  0  0  0  0  0  0  0  0
    3.9060    1.4320   20.8950 C   0  0  0  0  0  0  0  0  0  0  0  0
    4.2320    1.6870   22.3520 C   0  0  0  0  0  0  0  0  0  0  0  0
    3.2420    2.4060   23.0190 N   0  0  0  0  0  0  0  0  0  0  0  0
    2.1560    1.8050   23.8350 C   0  0  0  0  0  0  0  0  0  0  0  0
    2.0860    0.5810   23.9430 O   0  0  0  0  0  0  0  0  0  0  0  0
    1.2000    2.5750   24.5030 C   0  0  0  0  0  0  0  0  0  0  0  0
   -0.1200    2.1220   24.5360 C   0  0  0  0  0  0  0  0  0  0  0  0
   -1.0970    2.8590   25.1920 C   0  0  0  0  0  0  0  0  0  0  0  0
   -0.9030    4.0590   25.8550 C   0  0  0  0  0  0  0  0  0  0  0  0
    0.4030    4.5820   25.8670 C   0  0  0  0  0  0  0  0  0  0  0  0
    1.4980    3.7850   25.1490 C   0  0  0  0  0  0  0  0  0  0  0  0
    2.7450    4.2740   25.1550 F   0  0  0  0  0  0  0  0  0  0  0  0
    5.5220   -0.2220   20.1840 C   0  0  2  0  0  0  0  0  0  0  0  0
    9.6300   -1.0140   23.0920 H   0  0  0  0  0  0  0  0  0  0  0  0
   10.8520   -0.2030   22.1010 H   0  0  0  0  0  0  0  0  0  0  0  0
    9.8590   -1.5150   21.4000 H   0  0  0  0  0  0  0  0  0  0  0  0
    7.0560    0.1990   22.5690 H   0  0  0  0  0  0  0  0  0  0  0  0
    6.8240   -1.8660   20.9280 H   0  0  0  0  0  0  0  0  0  0  0  0
    6.7520   -1.3140   18.5680 H   0  0  0  0  0  0  0  0  0  0  0  0
    7.6050    0.8770   17.9980 H   0  0  0  0  0  0  0  0  0  0  0  0
    5.8880    1.7220   16.9540 H   0  0  0  0  0  0  0  0  0  0  0  0
    5.3520    0.1230   17.3460 H   0  0  0  0  0  0  0  0  0  0  0  0
    4.1370    2.4180   18.3790 H   0  0  0  0  0  0  0  0  0  0  0  0
    3.7430    0.7330   18.3900 H   0  0  0  0  0  0  0  0  0  0  0  0
    5.7910    1.9020   20.2750 H   0  0  0  0  0  0  0  0  0  0  0  0
    3.1860    0.6100   20.8070 H   0  0  0  0  0  0  0  0  0  0  0  0
    3.3100    2.2810   20.5410 H   0  0  0  0  0  0  0  0  0  0  0  0
    5.1830    2.1630   22.5760 H   0  0  0  0  0  0  0  0  0  0  0  0
    4.3040    0.7180   22.8640 H   0  0  0  0  0  0  0  0  0  0  0  0
    3.2770    3.4160   22.9420 H   0  0  0  0  0  0  0  0  0  0  0  0
   -0.3590    1.1840   24.0390 H   0  0  0  0  0  0  0  0  0  0  0  0
   -2.1160    2.4560   25.1870 H   0  0  0  0  0  0  0  0  0  0  0  0
   -1.7330    4.5630   26.3410 H   0  0  0  0  0  0  0  0  0  0  0  0
    0.7320    5.5120   26.3400 H   0  0  0  0  0  0  0  0  0  0  0  0
    4.6950   -0.9320   20.1830 H   0  0  0  0  0  0  0  0  0  0  0  0
  1  2  1  0
  2  3  2  0
  2  4  1  0
  4  5  1  0
  5  6  1  0
  6  7  1  0
  7  8  1  0
  8  9  1  0
  9 10  1  0
 10 11  1  0
 11 12  1  0
 12 13  1  0
 13 14  1  0
 14 15  2  0
 14 16  1  0
 16 17  2  0
 17 18  1  0
 18 19  2  0
 19 20  1  0
 16 21  1  0
 20 21  2  0
 21 22  1  0
  5 23  1  0
  6 23  1  0
 10 23  1  0
  1 24  1  0
  1 25  1  0
  1 26  1  0
  4 27  1  0
  5 28  1  6
  6 29  1  6
  7 30  1  0
  8 31  1  0
  8 32  1  0
  9 33  1  0
  9 34  1  0
 10 35  1  1
 11 36  1  0
 11 37  1  0
 12 38  1  0
 12 39  1  0
 13 40  1  0
 17 41  1  0
 18 42  1  0
 19 43  1  0
 20 44  1  0
 23 45  1  6
M  END
