LIG
     RDKit          3D

 50 52  0  0  0  0  0  0  0  0999 V2000
    8.3210   -1.3510   20.7970 C   0  0  0  0  0  0  0  0  0  0  0  0
    7.3620   -2.0310   19.9170 N   0  0  0  0  0  0  0  0  0  0  0  0
    7.2860   -1.6460   18.4960 C   0  0  0  0  0  0  0  0  0  0  0  0
    6.5700   -0.2405   18.7745 C   0  0  0  0  0  0  0  0  0  0  0  0
    5.6585    0.1445   19.7520 C   0  0  0  0  0  0  0  0  0  0  0  0
    4.3495    1.6105   19.7345 C   0  0  0  0  0  0  0  0  0  0  0  0
    3.8370    1.6420   20.9890 C   0  0  0  0  0  0  0  0  0  0  0  0
    4.3320    1.7170   22.4340 C   0  0  0  0  0  0  0  0  0  0  0  0
    3.3230    2.4740   23.1750 N   0  0  0  0  0  0  0  0  0  0  0  0
    2.1860    1.8200   23.8150 C   0  0  0  0  0  0  0  0  0  0  0  0
    2.0580    0.6400   23.7610 O   0  0  0  0  0  0  0  0  0  0  0  0
    1.1280    2.6340   24.5580 C   0  0  0  0  0  0  0  0  0  0  0  0
   -0.1860    2.1670   24.5890 C   0  0  0  0  0  0  0  0  0  0  0  0
   -1.1770    2.8770   25.2530 C   0  0  0  0  0  0  0  0  0  0  0  0
   -0.8610    4.0710   25.8830 C   0  0  0  0  0  0  0  0  0  0  0  0
    0.4450    4.5400   25.8480 C   0  0  0  0  0  0  0  0  0  0  0  0
    1.4450    3.8310   25.1930 C   0  0  0  0  0  0  0  0  0  0  0  0
    2.7270    4.3200   25.1830 F   0  0  0  0  0  0  0  0  0  0  0  0
    4.8420    1.4495   18.7580 C   0  0  0  0  0  0  0  0  0  0  0  0
    5.6025    1.3905   17.7095 C   0  0  0  0  0  0  0  0  0  0  0  0
    6.5405    0.4805   17.6890 N   0  0  0  0  0  0  0  0  0  0  0  0
    6.4780   -3.0650   20.4600 C   0  0  0  0  0  0  0  0  0  0  0  0
    5.7050   -3.6090   19.7340 O   0  0  0  0  0  0  0  0  0  0  0  0
    6.5520   -3.4250   21.8840 N   0  0  0  0  0  0  0  0  0  0  0  0
    5.6750   -4.4640   22.4420 C   0  0  0  0  0  0  0  0  0  0  0  0
    5.9460   -5.8890   21.9520 C   0  0  0  0  0  0  0  0  0  0  0  0
    6.3670   -5.4690   23.3670 C   0  0  0  0  0  0  0  0  0  0  0  0
    7.7844   -0.7096   21.4994 H   0  0  0  0  0  0  0  0  0  0  0  0
    8.8974   -2.0775   21.3705 H   0  0  0  0  0  0  0  0  0  0  0  0
    8.9954   -0.7539   20.1777 H   0  0  0  0  0  0  0  0  0  0  0  0
    8.1995   -1.4651   18.0853 H   0  0  0  0  0  0  0  0  0  0  0  0
    6.6332   -2.2485   17.9889 H   0  0  0  0  0  0  0  0  0  0  0  0
    5.4979   -0.3235   20.7366 H   0  0  0  0  0  0  0  0  0  0  0  0
    2.9186    2.4888   20.9748 H   0  0  0  0  0  0  0  0  0  0  0  0
    2.9630    0.7459   21.0458 H   0  0  0  0  0  0  0  0  0  0  0  0
    5.2521    2.2629   22.5054 H   0  0  0  0  0  0  0  0  0  0  0  0
    4.4233    0.7412   22.8650 H   0  0  0  0  0  0  0  0  0  0  0  0
    3.3927    3.4667   23.2447 H   0  0  0  0  0  0  0  0  0  0  0  0
   -0.4436    1.2302   24.0861 H   0  0  0  0  0  0  0  0  0  0  0  0
   -2.1955    2.4973   25.2782 H   0  0  0  0  0  0  0  0  0  0  0  0
   -1.6320    4.6378   26.4034 H   0  0  0  0  0  0  0  0  0  0  0  0
    0.6995    5.4842   26.3435 H   0  0  0  0  0  0  0  0  0  0  0  0
    3.7685    0.6511   18.1150 H   0  0  0  0  0  0  0  0  0  0  0  0
    5.5204    2.0243   16.8549 H   0  0  0  0  0  0  0  0  0  0  0  0
    7.4460   -3.3197   22.2850 H   0  0  0  0  0  0  0  0  0  0  0  0
    4.7104   -4.1638   22.6525 H   0  0  0  0  0  0  0  0  0  0  0  0
    6.7338   -6.0310   21.2329 H   0  0  0  0  0  0  0  0  0  0  0  0
    5.1076   -6.5559   21.8692 H   0  0  0  0  0  0  0  0  0  0  0  0
    7.4165   -5.3335   23.5526 H   0  0  0  0  0  0  0  0  0  0  0  0
    5.7900   -5.8478   24.1905 H   0  0  0  0  0  0  0  0  0  0  0  0
  1  2  1  0
  2  3  1  0
  3  4  1  0
  4  5  4  0
  5  6  4  0
  6  7  1  0
  7  8  1  0
  8  9  1  0
  9 10  1  0
 10 11  2  0
 10 12  1  0
 12 13  4  0
 13 14  4  0
 14 15  4  0
 15 16  4  0
 16 17  4  0
 17 18  1  0
  6 19  4  0
 19 20  4  0
 20 21  4  0
  2 22  1  0
 22 23  2  0
 22 24  1  0
 24 25  1  0
 25 26  1  0
 26 27  1  0
 21  4  4  0
 27 25  1  0
 17 12  4  0
  1 28  1  0
  1 29  1  0
  1 30  1  0
  3 31  1  0
  3 32  1  0
  5 33  1  0
  7 34  1  0
  7 35  1  0
  8 36  1  0
  8 37  1  0
  9 38  1  0
 13 39  1  0
 14 40  1  0
 15 41  1  0
 16 42  1  0
 19 43  1  0
 20 44  1  0
 24 45  1  0
 25 46  1  0
 26 47  1  0
 26 48  1  0
 27 49  1  0
 27 50  1  0
M  END
