LIG
     RDKit          3D

 55 56  0  0  0  0  0  0  0  0999 V2000
    7.6470    4.9230   22.5630 C   0  0  0  0  0  0  0  0  0  0  0  0
    7.2040    3.5440   22.9320 C   0  0  0  0  0  0  0  0  0  0  0  0
    6.2270    3.3360   23.6430 O   0  0  0  0  0  0  0  0  0  0  0  0
    7.9040    2.5380   22.4150 N   0  0  0  0  0  0  0  0  0  0  0  0
    7.7770    1.1690   22.8930 C   0  0  1  0  0  0  0  0  0  0  0  0
    6.4470    0.5230   22.4720 C   0  0  0  0  0  0  0  0  0  0  0  0
    6.0310    0.4105   20.5925 C   0  0  0  0  0  0  0  0  0  0  0  0
    6.8970   -0.2650   20.1240 C   0  0  0  0  0  0  0  0  0  0  0  0
    6.7055   -0.1640   18.9550 C   0  0  0  0  0  0  0  0  0  0  0  0
    5.7140    0.9730   17.9515 C   0  0  0  0  0  0  0  0  0  0  0  0
    6.1160    0.5715   17.4075 O   0  0  0  0  0  0  0  0  0  0  0  0
    4.9245    1.6135   18.8595 C   0  0  0  0  0  0  0  0  0  0  0  0
    5.0815    1.3285   20.1815 C   0  0  0  0  0  0  0  0  0  0  0  0
    3.8370    1.6420   20.9890 C   0  0  0  0  0  0  0  0  0  0  0  0
    4.3320    1.7170   22.4340 C   0  0  0  0  0  0  0  0  0  0  0  0
    3.3230    2.4740   23.1750 N   0  0  0  0  0  0  0  0  0  0  0  0
    2.1860    1.8200   23.8150 C   0  0  0  0  0  0  0  0  0  0  0  0
    2.0580    0.6400   23.7610 O   0  0  0  0  0  0  0  0  0  0  0  0
    1.1280    2.6340   24.5580 C   0  0  0  0  0  0  0  0  0  0  0  0
   -0.1860    2.1670   24.5890 C   0  0  0  0  0  0  0  0  0  0  0  0
   -1.1770    2.8770   25.2530 C   0  0  0  0  0  0  0  0  0  0  0  0
   -0.8610    4.0710   25.8830 C   0  0  0  0  0  0  0  0  0  0  0  0
    0.4450    4.5400   25.8480 C   0  0  0  0  0  0  0  0  0  0  0  0
    1.4450    3.8310   25.1930 C   0  0  0  0  0  0  0  0  0  0  0  0
    2.7270    4.3200   25.1830 F   0  0  0  0  0  0  0  0  0  0  0  0
    8.9700    0.4030   22.3370 C   0  0  0  0  0  0  0  0  0  0  0  0
    9.8170    0.9750   21.6560 O   0  0  0  0  0  0  0  0  0  0  0  0
    9.0130   -0.8970   22.6070 N   0  0  0  0  0  0  0  0  0  0  0  0
    9.9110   -1.7790   21.8910 C   0  0  0  0  0  0  0  0  0  0  0  0
   11.2900   -1.5690   22.3350 C   0  0  0  0  0  0  0  0  0  0  0  0
   12.4300   -1.6070   22.7390 C   0  0  0  0  0  0  0  0  0  0  0  0
   14.1250   -1.9140   23.6280 Br  0  0  0  0  0  0  0  0  0  0  0  0
    7.8043    4.9766   21.4805 H   0  0  0  0  0  0  0  0  0  0  0  0
    6.9053    5.6766   22.8516 H   0  0  0  0  0  0  0  0  0  0  0  0
    8.5842    5.1542   23.0817 H   0  0  0  0  0  0  0  0  0  0  0  0
    8.8634    2.7753   22.0821 H   0  0  0  0  0  0  0  0  0  0  0  0
    7.8417    1.1969   24.0078 H   0  0  0  0  0  0  0  0  0  0  0  0
    5.5475    1.0150   22.8359 H   0  0  0  0  0  0  0  0  0  0  0  0
    6.3209   -0.5351   22.7280 H   0  0  0  0  0  0  0  0  0  0  0  0
    7.6515   -0.8182   20.6002 H   0  0  0  0  0  0  0  0  0  0  0  0
    7.1629   -0.8503   18.1047 H   0  0  0  0  0  0  0  0  0  0  0  0
    6.8524    1.0413   16.7431 H   0  0  0  0  0  0  0  0  0  0  0  0
    4.1867    2.3395   18.5290 H   0  0  0  0  0  0  0  0  0  0  0  0
    3.1121    0.8834   20.8746 H   0  0  0  0  0  0  0  0  0  0  0  0
    3.4389    2.5776   20.6917 H   0  0  0  0  0  0  0  0  0  0  0  0
    4.4031    0.7377   22.8492 H   0  0  0  0  0  0  0  0  0  0  0  0
    5.2468    2.2520   22.5133 H   0  0  0  0  0  0  0  0  0  0  0  0
    3.2710    3.4669   23.0621 H   0  0  0  0  0  0  0  0  0  0  0  0
   -0.4451    1.2277   24.0897 H   0  0  0  0  0  0  0  0  0  0  0  0
   -2.1957    2.4956   25.2801 H   0  0  0  0  0  0  0  0  0  0  0  0
   -1.6306    4.6377   26.4046 H   0  0  0  0  0  0  0  0  0  0  0  0
    0.7020    5.4851   26.3433 H   0  0  0  0  0  0  0  0  0  0  0  0
    8.8246   -1.1794   23.5792 H   0  0  0  0  0  0  0  0  0  0  0  0
    9.5994   -2.8180   22.0562 H   0  0  0  0  0  0  0  0  0  0  0  0
    9.8060   -1.5654   20.8201 H   0  0  0  0  0  0  0  0  0  0  0  0
  1  2  1  0
  2  3  2  0
  2  4  1  0
  4  5  1  0
  5  6  1  0
  6  7  1  0
  7  8  4  0
  8  9  4  0
  9 10  4  0
 10 11  1  0
 10 12  4  0
 12 13  4  0
 13 14  1  0
 14 15  1  0
 15 16  1  0
 16 17  1  0
 17 18  2  0
 17 19  1  0
 19 20  4  0
 20 21  4  0
 21 22  4  0
 22 23  4  0
 23 24  4  0
 24 25  1  0
  5 26  1  0
 26 27  2  0
 26 28  1  0
 28 29  1  0
 29 30  1  0
 30 31  3  0
 31 32  1  0
 13  7  4  0
 24 19  4  0
  1 33  1  0
  1 34  1  0
  1 35  1  0
  4 36  1  0
  5 37  1  1
  6 38  1  0
  6 39  1  0
  8 40  1  0
  9 41  1  0
 11 42  1  0
 12 43  1  0
 14 44  1  0
 14 45  1  0
 15 46  1  0
 15 47  1  0
 16 48  1  0
 20 49  1  0
 21 50  1  0
 22 51  1  0
 23 52  1  0
 28 53  1  0
 29 54  1  0
 29 55  1  0
M  END
