LIG
     RDKit          3D

 59 62  0  0  0  0  0  0  0  0999 V2000
   13.9850   -1.7380   20.5810 N   0  0  0  0  0  0  0  0  0  0  0  0
   13.2800   -1.3010   21.3800 C   0  0  0  0  0  0  0  0  0  0  0  0
   12.4390   -0.7270   22.3590 C   0  0  0  0  0  0  0  0  0  0  0  0
   11.2820   -1.3980   22.7460 C   0  0  0  0  0  0  0  0  0  0  0  0
   10.4420   -0.8190   23.6890 C   0  0  0  0  0  0  0  0  0  0  0  0
   10.7560    0.4300   24.2400 C   0  0  0  0  0  0  0  0  0  0  0  0
    9.8330    1.0540   25.2470 C   0  0  0  0  0  0  0  0  0  0  0  0
    8.4500    0.7150   24.9220 N   0  0  0  0  0  0  0  0  0  0  0  0
    7.7030    1.4680   24.0150 C   0  0  0  0  0  0  0  0  0  0  0  0
    8.1720    2.4660   23.4420 O   0  0  0  0  0  0  0  0  0  0  0  0
    6.3360    0.9640   23.8050 N   0  0  0  0  0  0  0  0  0  0  0  0
    5.4800    0.8530   25.0320 C   0  0  0  0  0  0  0  0  0  0  0  0
    4.0500    0.3480   24.7320 C   0  0  0  0  0  0  0  0  0  0  0  0
    2.7665    0.8545   23.7090 O   0  0  0  0  0  3  0  0  0  0  0  0
    2.1860    1.8200   23.8150 C   0  0  0  0  0  0  0  0  0  0  0  0
    1.1280    2.6340   24.5580 C   0  0  0  0  0  0  0  0  0  0  0  0
   -0.1860    2.1670   24.5890 C   0  0  0  0  0  0  0  0  0  0  0  0
   -1.1770    2.8770   25.2530 C   0  0  0  0  0  0  0  0  0  0  0  0
   -0.8610    4.0710   25.8830 C   0  0  0  0  0  0  0  0  0  0  0  0
    0.4450    4.5400   25.8480 C   0  0  0  0  0  0  0  0  0  0  0  0
    1.4450    3.8310   25.1930 C   0  0  0  0  0  0  0  0  0  0  0  0
    2.7270    4.3200   25.1830 F   0  0  0  0  0  0  0  0  0  0  0  0
    3.3230    2.4740   23.1750 N   0  0  0  0  0  0  0  0  0  0  0  0
    4.2765    1.3745   22.4455 C   0  0  0  0  0  0  0  0  0  0  0  0
    3.8370    1.6420   20.9890 C   0  0  0  0  0  0  0  0  0  0  0  0
    4.8370    1.1650   19.9330 C   0  0  0  0  0  0  0  0  0  0  0  0
    5.8510    0.2440   20.2010 C   0  0  0  0  0  0  0  0  0  0  0  0
    6.6970   -0.1250   19.1540 C   0  0  0  0  0  0  0  0  0  0  0  0
    6.5580    0.3740   17.9330 N   0  0  0  0  0  0  0  0  0  0  0  0
    5.6030    1.2370   17.6770 C   0  0  0  0  0  0  0  0  0  0  0  0
    4.7220    1.6620   18.6570 C   0  0  0  0  0  0  0  0  0  0  0  0
    5.6140    1.6470   22.6990 C   0  0  0  0  0  0  0  0  0  0  0  0
   11.9170    1.0940   23.8520 C   0  0  0  0  0  0  0  0  0  0  0  0
   12.7690    0.5130   22.9150 C   0  0  0  0  0  0  0  0  0  0  0  0
   11.0280   -2.3622   22.3177 H   0  0  0  0  0  0  0  0  0  0  0  0
    9.5340   -1.3434   23.9866 H   0  0  0  0  0  0  0  0  0  0  0  0
   10.0952    0.7311   26.2553 H   0  0  0  0  0  0  0  0  0  0  0  0
    9.9102    2.1401   25.2180 H   0  0  0  0  0  0  0  0  0  0  0  0
    7.9439    0.2683   25.6638 H   0  0  0  0  0  0  0  0  0  0  0  0
    5.4253    1.8561   25.4698 H   0  0  0  0  0  0  0  0  0  0  0  0
    5.9980    0.2161   25.7552 H   0  0  0  0  0  0  0  0  0  0  0  0
    4.0898   -0.7647   24.3357 H   0  0  0  0  0  0  0  0  0  0  0  0
    3.3922    0.0739   25.7018 H   0  0  0  0  0  0  0  0  0  0  0  0
   -0.4508    1.2295   24.0870 H   0  0  0  0  0  0  0  0  0  0  0  0
   -2.1991    2.5004   25.2796 H   0  0  0  0  0  0  0  0  0  0  0  0
   -1.6325    4.6399   26.3991 H   0  0  0  0  0  0  0  0  0  0  0  0
    0.6959    5.4871   26.3444 H   0  0  0  0  0  0  0  0  0  0  0  0
    3.4954    3.2315   23.1459 H   0  0  0  0  0  0  0  0  0  0  0  0
    4.6343    3.1421   21.9387 H   0  0  0  0  0  0  0  0  0  0  0  0
    2.8593    1.1906   20.7970 H   0  0  0  0  0  0  0  0  0  0  0  0
    3.6977    2.7182   20.8349 H   0  0  0  0  0  0  0  0  0  0  0  0
    6.0072   -0.1801   21.1818 H   0  0  0  0  0  0  0  0  0  0  0  0
    7.4897   -0.8363   19.3012 H   0  0  0  0  0  0  0  0  0  0  0  0
    5.5330    1.6067   16.6645 H   0  0  0  0  0  0  0  0  0  0  0  0
    3.9551    2.3951   18.3845 H   0  0  0  0  0  0  0  0  0  0  0  0
    6.2990    1.4695   21.7822 H   0  0  0  0  0  0  0  0  0  0  0  0
    5.8534    2.7643   22.8691 H   0  0  0  0  0  0  0  0  0  0  0  0
   12.1644    2.0682   24.2670 H   0  0  0  0  0  0  0  0  0  0  0  0
   13.6788    1.0258   22.6221 H   0  0  0  0  0  0  0  0  0  0  0  0
  1  2  3  0
  2  3  1  0
  3  4  4  0
  4  5  4  0
  5  6  4  0
  6  7  1  0
  7  8  1  0
  8  9  1  0
  9 10  2  0
  9 11  1  0
 11 12  1  0
 12 13  1  0
 13 14  1  0
 14 15  2  0
 15 16  1  0
 16 17  4  0
 17 18  4  0
 18 19  4  0
 19 20  4  0
 20 21  4  0
 21 22  1  0
 15 23  1  0
 23 24  1  0
 24 25  1  0
 25 26  1  0
 26 27  4  0
 27 28  4  0
 28 29  4  0
 29 30  4  0
 30 31  4  0
 24 32  1  0
  6 33  4  0
 33 34  4  0
 34  3  4  0
 32 11  1  0
 21 16  4  0
 31 26  4  0
  4 35  1  0
  5 36  1  0
  7 37  1  0
  7 38  1  0
  8 39  1  0
 12 40  1  0
 12 41  1  0
 13 42  1  0
 13 43  1  0
 17 44  1  0
 18 45  1  0
 19 46  1  0
 20 47  1  0
 23 48  1  0
 24 49  1  0
 25 50  1  0
 25 51  1  0
 27 52  1  0
 28 53  1  0
 30 54  1  0
 31 55  1  0
 32 56  1  0
 32 57  1  0
 33 58  1  0
 34 59  1  0
M  CHG  1  14   1
M  END
