
     RDKit          3D

 61 64  0  0  0  0  0  0  0  0999 V2000
    9.1870    1.4950   21.2690 O   0  0  0  0  0  0  0  0  0  0  0  0
    8.8100    0.2100   21.7810 C   0  0  0  0  0  0  0  0  0  0  0  0
    9.4000   -0.2550   23.0940 C   0  0  0  0  0  0  0  0  0  0  0  0
   10.7800   -0.5230   23.2560 C   0  0  1  0  0  0  0  0  0  0  0  0
   11.1970   -1.4530   24.3650 C   0  0  0  0  0  0  0  0  0  0  0  0
   12.6870   -1.3420   24.3770 C   0  0  0  0  0  0  0  0  0  0  0  0
   13.3260   -1.8070   23.2650 C   0  0  0  0  0  0  0  0  0  0  0  0
   12.1920   -2.1470   22.3140 C   0  0  0  0  0  0  0  0  0  0  0  0
   11.4830   -0.9390   22.1590 C   0  0  0  0  0  0  0  0  0  0  0  0
    7.8580   -0.6810   21.1340 N   0  0  0  0  0  0  0  0  0  0  0  0
    7.0900    0.0300   20.1950 C   0  0  1  0  0  0  0  0  0  0  0  0
    6.1780   -0.7010   19.2170 C   0  0  2  0  0  0  0  0  0  0  0  0
    5.8420   -0.1450   17.9750 N   0  0  0  0  0  0  0  0  0  0  0  0
    5.6660    1.2630   18.0890 C   0  0  0  0  0  0  0  0  0  0  0  0
    4.8710    1.8850   19.0090 C   0  0  0  0  0  0  0  0  0  0  0  0
    4.4090    0.9750   19.9410 C   0  0  2  0  0  0  0  0  0  0  0  0
    3.6170    1.4200   21.0030 C   0  0  0  0  0  0  0  0  0  0  0  0
    4.2310    1.7990   22.2210 C   0  0  0  0  0  0  0  0  0  0  0  0
    3.3040    2.5470   23.1070 N   0  0  0  0  0  0  0  0  0  0  0  0
    2.2180    1.8720   23.8540 C   0  0  0  0  0  0  0  0  0  0  0  0
    2.0890    0.4640   23.9950 O   0  0  0  0  0  0  0  0  0  0  0  0
    1.2170    2.5930   24.5060 C   0  0  0  0  0  0  0  0  0  0  0  0
   -0.0910    2.1070   24.5140 C   0  0  0  0  0  0  0  0  0  0  0  0
   -1.1620    2.7570   25.1420 C   0  0  0  0  0  0  0  0  0  0  0  0
   -0.9460    4.0740   25.8730 C   0  0  0  0  0  0  0  0  0  0  0  0
    0.4980    4.6420   25.8840 C   0  0  0  0  0  0  0  0  0  0  0  0
    1.5080    3.8060   25.1600 C   0  0  0  0  0  0  0  0  0  0  0  0
    2.7650    4.2820   25.1570 F   0  0  0  0  0  0  0  0  0  0  0  0
    5.5980    0.1540   20.3960 C   0  0  2  0  0  0  0  0  0  0  0  0
    9.1420    0.5330   23.8000 H   0  0  0  0  0  0  0  0  0  0  0  0
    8.8570   -1.1510   23.4180 H   0  0  0  0  0  0  0  0  0  0  0  0
   11.2480    0.4370   23.4890 H   0  0  0  0  0  0  0  0  0  0  0  0
   10.7590   -1.1300   25.2970 H   0  0  0  0  0  0  0  0  0  0  0  0
   10.9380   -2.5060   24.3020 H   0  0  0  0  0  0  0  0  0  0  0  0
   12.8310   -0.2870   24.5270 H   0  0  0  0  0  0  0  0  0  0  0  0
   13.1300   -1.6890   25.3090 H   0  0  0  0  0  0  0  0  0  0  0  0
   13.8120   -0.9230   22.8410 H   0  0  0  0  0  0  0  0  0  0  0  0
   14.1090   -2.5480   23.2860 H   0  0  0  0  0  0  0  0  0  0  0  0
   11.5610   -2.9600   22.6720 H   0  0  0  0  0  0  0  0  0  0  0  0
   12.5420   -2.5100   21.3470 H   0  0  0  0  0  0  0  0  0  0  0  0
   10.7870   -0.9010   21.3270 H   0  0  0  0  0  0  0  0  0  0  0  0
   12.1680   -0.1060   21.9860 H   0  0  0  0  0  0  0  0  0  0  0  0
    7.3680   -1.3910   21.6870 H   0  0  0  0  0  0  0  0  0  0  0  0
    7.5830    0.9360   19.8550 H   0  0  0  0  0  0  0  0  0  0  0  0
    6.1010   -1.7830   19.2250 H   0  0  0  0  0  0  0  0  0  0  0  0
    6.5520   -0.3320   17.2540 H   0  0  0  0  0  0  0  0  0  0  0  0
    5.4100    1.6460   17.1000 H   0  0  0  0  0  0  0  0  0  0  0  0
    6.6840    1.5900   18.2840 H   0  0  0  0  0  0  0  0  0  0  0  0
    3.9970    2.2280   18.4450 H   0  0  0  0  0  0  0  0  0  0  0  0
    5.3040    2.7930   19.4100 H   0  0  0  0  0  0  0  0  0  0  0  0
    3.7870    0.2560   19.3920 H   0  0  0  0  0  0  0  0  0  0  0  0
    2.9190    0.6240   21.2820 H   0  0  0  0  0  0  0  0  0  0  0  0
    2.9960    2.2550   20.6600 H   0  0  0  0  0  0  0  0  0  0  0  0
    5.1390    2.3800   22.0200 H   0  0  0  0  0  0  0  0  0  0  0  0
    4.5450    0.9020   22.7700 H   0  0  0  0  0  0  0  0  0  0  0  0
    3.5590    3.4940   23.3670 H   0  0  0  0  0  0  0  0  0  0  0  0
   -0.3850    1.1680   24.0240 H   0  0  0  0  0  0  0  0  0  0  0  0
   -2.1570    2.3130   25.1060 H   0  0  0  0  0  0  0  0  0  0  0  0
   -1.7640    4.5920   26.3670 H   0  0  0  0  0  0  0  0  0  0  0  0
    0.7640    5.5750   26.3780 H   0  0  0  0  0  0  0  0  0  0  0  0
    5.2900   -0.3520   21.3140 H   0  0  0  0  0  0  0  0  0  0  0  0
  1  2  2  0
  2  3  1  0
  3  4  1  0
  4  5  1  0
  5  6  1  0
  6  7  1  0
  7  8  1  0
  4  9  1  0
  8  9  1  0
  2 10  1  0
 10 11  1  0
 11 12  1  0
 12 13  1  0
 13 14  1  0
 14 15  1  0
 15 16  1  0
 16 17  1  0
 17 18  1  0
 18 19  1  0
 19 20  1  0
 20 21  2  0
 20 22  1  0
 22 23  2  0
 23 24  1  0
 24 25  2  0
 25 26  1  0
 22 27  1  0
 26 27  2  0
 27 28  1  0
 11 29  1  0
 12 29  1  0
 16 29  1  0
  3 30  1  0
  3 31  1  0
  4 32  1  1
  5 33  1  0
  5 34  1  0
  6 35  1  0
  6 36  1  0
  7 37  1  0
  7 38  1  0
  8 39  1  0
  8 40  1  0
  9 41  1  0
  9 42  1  0
 10 43  1  0
 11 44  1  6
 12 45  1  6
 13 46  1  0
 14 47  1  0
 14 48  1  0
 15 49  1  0
 15 50  1  0
 16 51  1  6
 17 52  1  0
 17 53  1  0
 18 54  1  0
 18 55  1  0
 19 56  1  0
 23 57  1  0
 24 58  1  0
 25 59  1  0
 26 60  1  0
 29 61  1  1
M  END
