
     RDKit          3D

 32 34  0  0  0  0  0  0  0  0999 V2000
    2.0280    0.4230   23.8490 O   0  0  0  0  0  0  0  0  0  0  0  0
    2.1290    1.8290   23.9920 C   0  0  0  0  0  0  0  0  0  0  0  0
    3.3140    2.4920   23.4790 N   0  0  0  0  0  0  0  0  0  0  0  0
    4.1500    1.5530   22.7320 C   0  0  0  0  0  0  0  0  0  0  0  0
    3.4960    1.1910   21.5550 C   0  0  0  0  0  0  0  0  0  0  0  0
    4.4360    1.3010   20.3850 C   0  0  0  0  0  0  0  0  0  0  0  0
    3.9750    1.9630   19.1490 C   0  0  0  0  0  0  0  0  0  0  0  0
    4.7370    2.1600   18.0140 C   0  0  0  0  0  0  0  0  0  0  0  0
    5.5510    1.3630   17.4220 C   0  0  0  0  0  0  0  0  0  0  0  0
    5.4170    0.6300   18.0030 N   0  0  0  0  0  0  0  0  0  0  0  0
    6.2510    0.4430   19.0550 C   0  0  0  0  0  0  0  0  0  0  0  0
    5.7520    0.8000   20.3880 C   0  0  0  0  0  0  0  0  0  0  0  0
    1.0820    2.6410   24.6520 C   0  0  0  0  0  0  0  0  0  0  0  0
   -0.2330    2.2010   24.6850 C   0  0  0  0  0  0  0  0  0  0  0  0
   -1.2520    2.9240   25.2920 C   0  0  0  0  0  0  0  0  0  0  0  0
   -0.9950    4.1380   25.9010 C   0  0  0  0  0  0  0  0  0  0  0  0
    0.2850    4.6770   25.9300 C   0  0  0  0  0  0  0  0  0  0  0  0
    1.3630    3.9920   25.3310 C   0  0  0  0  0  0  0  0  0  0  0  0
    2.5910    4.5340   25.3680 F   0  0  0  0  0  0  0  0  0  0  0  0
    3.0640    3.3500   22.9820 H   0  0  0  0  0  0  0  0  0  0  0  0
    5.0960    2.0510   22.4910 H   0  0  0  0  0  0  0  0  0  0  0  0
    4.3540    0.6630   23.3430 H   0  0  0  0  0  0  0  0  0  0  0  0
    2.9430    0.2590   21.5880 H   0  0  0  0  0  0  0  0  0  0  0  0
    2.7020    1.9270   21.3700 H   0  0  0  0  0  0  0  0  0  0  0  0
    2.9450    2.2930   19.2660 H   0  0  0  0  0  0  0  0  0  0  0  0
    6.1980    1.4110   16.5700 H   0  0  0  0  0  0  0  0  0  0  0  0
    7.2630    0.0410   18.9390 H   0  0  0  0  0  0  0  0  0  0  0  0
    6.4300    0.6510   21.2400 H   0  0  0  0  0  0  0  0  0  0  0  0
   -0.5900    1.2730   24.2530 H   0  0  0  0  0  0  0  0  0  0  0  0
   -2.2590    2.5200   25.2810 H   0  0  0  0  0  0  0  0  0  0  0  0
   -1.8240    4.6680   26.3630 H   0  0  0  0  0  0  0  0  0  0  0  0
    0.4430    5.6340   26.4200 H   0  0  0  0  0  0  0  0  0  0  0  0
  1  2  2  0
  2  3  1  0
  3  4  1  0
  4  5  1  0
  5  6  1  0
  6  7  2  0
  7  8  1  0
  8  9  2  0
  8 10  1  0
  9 10  1  0
 10 11  1  0
  6 12  1  0
 11 12  2  0
  2 13  1  0
 13 14  2  0
 14 15  1  0
 15 16  2  0
 16 17  1  0
 13 18  1  0
 17 18  2  0
 18 19  1  0
  3 20  1  0
  4 21  1  0
  4 22  1  0
  5 23  1  0
  5 24  1  0
  7 25  1  0
  9 26  1  0
 11 27  1  0
 12 28  1  0
 14 29  1  0
 15 30  1  0
 16 31  1  0
 17 32  1  0
M  END
