
     RDKit          3D

 54 57  0  0  0  0  0  0  0  0999 V2000
    8.7710    1.5130   21.1690 O   0  0  0  0  0  0  0  0  0  0  0  0
    8.4490    0.1300   21.3260 C   0  0  0  0  0  0  0  0  0  0  0  0
    8.9250   -0.6050   22.4980 N   0  0  0  0  0  0  0  0  0  0  0  0
   10.3770   -0.4150   22.5970 C   0  0  0  0  0  0  0  0  0  0  0  0
   10.6800    0.9010   22.8660 C   0  0  0  0  0  0  0  0  0  0  0  0
   12.0960    1.4090   23.0100 C   0  0  0  0  0  0  0  0  0  0  0  0
   13.1090    0.3440   22.8380 C   0  0  0  0  0  0  0  0  0  0  0  0
   12.8740   -0.9930   22.5700 C   0  0  0  0  0  0  0  0  0  0  0  0
   11.3970   -1.3540   22.4490 C   0  0  0  0  0  0  0  0  0  0  0  0
    7.7540   -0.6470   20.4260 N   0  0  0  0  0  0  0  0  0  0  0  0
    6.6270   -0.2080   19.7430 C   0  0  1  0  0  0  0  0  0  0  0  0
    5.4050    0.0100   20.6350 C   0  0  0  0  0  0  0  0  0  0  0  0
    4.3120    0.9840   20.1810 C   0  0  1  0  0  0  0  0  0  0  0  0
    3.6340    1.7160   21.1380 C   0  0  0  0  0  0  0  0  0  0  0  0
    4.2050    1.7590   22.4070 C   0  0  0  0  0  0  0  0  0  0  0  0
    3.3930    2.4670   23.3360 N   0  0  0  0  0  0  0  0  0  0  0  0
    2.1990    1.8380   23.9080 C   0  0  0  0  0  0  0  0  0  0  0  0
    2.0240    0.6310   23.8830 O   0  0  0  0  0  0  0  0  0  0  0  0
    1.1740    2.5400   24.5360 C   0  0  0  0  0  0  0  0  0  0  0  0
   -0.1390    2.0610   24.5520 C   0  0  0  0  0  0  0  0  0  0  0  0
   -1.2240    2.8660   25.2530 C   0  0  0  0  0  0  0  0  0  0  0  0
   -0.9110    4.0700   25.8730 C   0  0  0  0  0  0  0  0  0  0  0  0
    0.3910    4.5940   25.8850 C   0  0  0  0  0  0  0  0  0  0  0  0
    1.4510    3.9000   25.2540 C   0  0  0  0  0  0  0  0  0  0  0  0
    2.6780    4.4410   25.2920 F   0  0  0  0  0  0  0  0  0  0  0  0
    4.9130    1.9020   19.0960 C   0  0  0  0  0  0  0  0  0  0  0  0
    5.4120    0.9870   17.9920 C   0  0  0  0  0  0  0  0  0  0  0  0
    6.6190    0.3460   18.4380 N   0  0  0  0  0  0  0  0  0  0  0  0
    6.8360   -0.9960   18.4820 C   0  0  0  0  0  0  0  0  0  0  0  0
    8.6070   -1.5760   22.4760 H   0  0  0  0  0  0  0  0  0  0  0  0
    9.8590    1.6230   22.9810 H   0  0  0  0  0  0  0  0  0  0  0  0
   12.3500    2.4420   23.2160 H   0  0  0  0  0  0  0  0  0  0  0  0
   14.1380    0.6380   22.9230 H   0  0  0  0  0  0  0  0  0  0  0  0
   13.6650   -1.7290   22.4530 H   0  0  0  0  0  0  0  0  0  0  0  0
   11.2170   -2.4050   22.2360 H   0  0  0  0  0  0  0  0  0  0  0  0
    8.4250   -1.1780   19.8590 H   0  0  0  0  0  0  0  0  0  0  0  0
    4.9140   -0.9550   20.8120 H   0  0  0  0  0  0  0  0  0  0  0  0
    5.7570    0.3220   21.6280 H   0  0  0  0  0  0  0  0  0  0  0  0
    3.5830    0.3870   19.6290 H   0  0  0  0  0  0  0  0  0  0  0  0
    3.3790    2.7440   20.8680 H   0  0  0  0  0  0  0  0  0  0  0  0
    2.6500    1.2390   21.2320 H   0  0  0  0  0  0  0  0  0  0  0  0
    5.1580    2.2710   22.3120 H   0  0  0  0  0  0  0  0  0  0  0  0
    4.4390    0.8010   22.8650 H   0  0  0  0  0  0  0  0  0  0  0  0
    3.8040    3.2750   23.8150 H   0  0  0  0  0  0  0  0  0  0  0  0
   -0.4060    1.1150   24.0700 H   0  0  0  0  0  0  0  0  0  0  0  0
   -2.2500    2.5060   25.2730 H   0  0  0  0  0  0  0  0  0  0  0  0
   -1.7160    4.6130   26.3600 H   0  0  0  0  0  0  0  0  0  0  0  0
    0.5710    5.5380   26.3860 H   0  0  0  0  0  0  0  0  0  0  0  0
    5.7270    2.4570   19.5730 H   0  0  0  0  0  0  0  0  0  0  0  0
    4.1770    2.6270   18.7320 H   0  0  0  0  0  0  0  0  0  0  0  0
    5.6260    1.8910   17.3980 H   0  0  0  0  0  0  0  0  0  0  0  0
    4.7340    0.3700   17.4110 H   0  0  0  0  0  0  0  0  0  0  0  0
    6.0230   -1.6610   18.1670 H   0  0  0  0  0  0  0  0  0  0  0  0
    7.8400   -1.3580   18.2340 H   0  0  0  0  0  0  0  0  0  0  0  0
  1  2  2  0
  2  3  1  0
  3  4  1  0
  4  5  2  0
  5  6  1  0
  6  7  2  0
  7  8  1  0
  4  9  1  0
  8  9  2  0
  2 10  1  0
 11 10  1  1
 11 12  1  0
 12 13  1  0
 13 14  1  0
 14 15  1  0
 15 16  1  0
 16 17  1  0
 17 18  2  0
 17 19  1  0
 19 20  2  0
 20 21  1  0
 21 22  2  0
 22 23  1  0
 19 24  1  0
 23 24  2  0
 24 25  1  0
 13 26  1  0
 26 27  1  0
 11 28  1  0
 27 28  1  0
 11 29  1  0
 28 29  1  0
  3 30  1  0
  5 31  1  0
  6 32  1  0
  7 33  1  0
  8 34  1  0
  9 35  1  0
 10 36  1  0
 12 37  1  0
 12 38  1  0
 13 39  1  6
 14 40  1  0
 14 41  1  0
 15 42  1  0
 15 43  1  0
 16 44  1  0
 20 45  1  0
 21 46  1  0
 22 47  1  0
 23 48  1  0
 26 49  1  0
 26 50  1  0
 27 51  1  0
 27 52  1  0
 29 53  1  0
 29 54  1  0
M  END
