
     RDKit          3D

 59 62  0  0  0  0  0  0  0  0999 V2000
   13.4810   -2.9450   20.9930 N   0  0  0  0  0  0  0  0  0  0  0  0
   13.0010   -2.1290   21.6130 C   0  0  0  0  0  0  0  0  0  0  0  0
   12.1650   -1.0760   22.1670 C   0  0  0  0  0  0  0  0  0  0  0  0
   10.8520   -1.4720   22.2730 C   0  0  0  0  0  0  0  0  0  0  0  0
    9.8240   -0.5000   22.7430 C   0  0  0  0  0  0  0  0  0  0  0  0
   10.3290    0.8560   23.0560 C   0  0  0  0  0  0  0  0  0  0  0  0
    9.4330    1.8140   23.4400 C   0  0  0  0  0  0  0  0  0  0  0  0
    8.3420    1.1370   23.8610 N   0  0  0  0  0  0  0  0  0  0  0  0
    7.3280    2.0270   23.9160 C   0  0  0  0  0  0  0  0  0  0  0  0
    7.5050    3.2340   23.9480 O   0  0  0  0  0  0  0  0  0  0  0  0
    5.8850    1.5940   23.9220 N   0  0  0  0  0  0  0  0  0  0  0  0
    5.2520    1.1040   25.2000 C   0  0  0  0  0  0  0  0  0  0  0  0
    3.7620    1.3210   25.3830 C   0  0  0  0  0  0  0  0  0  0  0  0
    3.0220    1.0040   24.4540 O   0  0  0  0  0  0  0  0  0  0  0  0
    2.3920    2.0890   23.7200 C   0  0  0  0  0  0  0  0  0  0  0  0
    1.4560    2.8510   24.4710 C   0  0  0  0  0  0  0  0  0  0  0  0
    0.0860    2.5740   24.3660 C   0  0  0  0  0  0  0  0  0  0  0  0
   -0.9210    3.2210   25.0390 C   0  0  0  0  0  0  0  0  0  0  0  0
   -0.6890    4.2510   25.9120 C   0  0  0  0  0  0  0  0  0  0  0  0
    0.6460    4.6590   26.1200 C   0  0  0  0  0  0  0  0  0  0  0  0
    1.7610    3.9070   25.3490 C   0  0  0  0  0  0  0  0  0  0  0  0
    3.0250    4.2920   25.5430 F   0  0  0  0  0  0  0  0  0  0  0  0
    3.2600    2.9400   23.0710 N   0  0  0  0  0  0  0  0  0  0  0  0
    4.2490    2.4030   22.0890 C   0  0  2  0  0  0  0  0  0  0  0  0
    3.6520    1.9400   20.9100 C   0  0  0  0  0  0  0  0  0  0  0  0
    4.5480    1.3640   19.9790 C   0  0  0  0  0  0  0  0  0  0  0  0
    5.4280    0.1590   20.3480 C   0  0  0  0  0  0  0  0  0  0  0  0
    6.3840   -0.3830   19.2530 C   0  0  0  0  0  0  0  0  0  0  0  0
    6.3740    0.2950   17.9400 N   0  0  0  0  0  0  0  0  0  0  0  0
    5.5580    1.3360   17.7260 C   0  0  0  0  0  0  0  0  0  0  0  0
    4.6320    1.9070   18.7080 C   0  0  0  0  0  0  0  0  0  0  0  0
    5.2580    1.3510   22.6330 C   0  0  0  0  0  0  0  0  0  0  0  0
   11.7150    1.1520   22.9430 C   0  0  0  0  0  0  0  0  0  0  0  0
   12.6250    0.1980   22.5120 C   0  0  0  0  0  0  0  0  0  0  0  0
   10.5550   -2.4830   22.0000 H   0  0  0  0  0  0  0  0  0  0  0  0
    8.7760   -0.7800   22.8270 H   0  0  0  0  0  0  0  0  0  0  0  0
    9.7740    2.4980   24.2180 H   0  0  0  0  0  0  0  0  0  0  0  0
    9.1590    2.4530   22.5930 H   0  0  0  0  0  0  0  0  0  0  0  0
    8.4880    0.6760   24.7310 H   0  0  0  0  0  0  0  0  0  0  0  0
    5.7430    1.6380   26.0230 H   0  0  0  0  0  0  0  0  0  0  0  0
    5.6210    0.0850   25.2740 H   0  0  0  0  0  0  0  0  0  0  0  0
    3.4200    0.7720   26.2720 H   0  0  0  0  0  0  0  0  0  0  0  0
    3.5920    2.3770   25.6300 H   0  0  0  0  0  0  0  0  0  0  0  0
   -0.1560    1.7730   23.6800 H   0  0  0  0  0  0  0  0  0  0  0  0
   -1.9900    2.9300   24.8980 H   0  0  0  0  0  0  0  0  0  0  0  0
   -1.4520    4.8010   26.4740 H   0  0  0  0  0  0  0  0  0  0  0  0
    0.7910    5.4870   26.8220 H   0  0  0  0  0  0  0  0  0  0  0  0
    2.7650    3.7040   22.6160 H   0  0  0  0  0  0  0  0  0  0  0  0
    4.8290    3.2960   21.8180 H   0  0  0  0  0  0  0  0  0  0  0  0
    2.7020    1.4320   21.0230 H   0  0  0  0  0  0  0  0  0  0  0  0
    3.3260    2.8450   20.3820 H   0  0  0  0  0  0  0  0  0  0  0  0
    5.4070   -0.3100   21.3240 H   0  0  0  0  0  0  0  0  0  0  0  0
    7.0570   -1.2110   19.3660 H   0  0  0  0  0  0  0  0  0  0  0  0
    5.6220    1.7660   16.7390 H   0  0  0  0  0  0  0  0  0  0  0  0
    4.0260    2.7590   18.4100 H   0  0  0  0  0  0  0  0  0  0  0  0
    4.7750    0.3720   22.7220 H   0  0  0  0  0  0  0  0  0  0  0  0
    6.0690    1.2360   21.9030 H   0  0  0  0  0  0  0  0  0  0  0  0
   12.0880    2.1470   23.1850 H   0  0  0  0  0  0  0  0  0  0  0  0
   13.6790    0.4570   22.4250 H   0  0  0  0  0  0  0  0  0  0  0  0
  1  2  3  0
  2  3  1  0
  3  4  2  0
  4  5  1  0
  5  6  2  0
  6  7  1  0
  7  8  1  0
  8  9  1  0
  9 10  2  0
  9 11  1  0
 11 12  1  0
 12 13  1  0
 13 14  1  0
 14 15  2  0
 15 16  1  0
 16 17  2  0
 17 18  1  0
 18 19  2  0
 19 20  1  0
 16 21  1  0
 20 21  2  0
 21 22  1  0
 15 23  1  0
 23 24  1  0
 24 25  1  0
 25 26  1  0
 26 27  2  0
 27 28  1  0
 28 29  2  0
 29 30  1  0
 26 31  1  0
 30 31  2  0
 11 32  1  0
 24 32  1  0
  6 33  1  0
  3 34  1  0
 33 34  2  0
  4 35  1  0
  5 36  1  0
  7 37  1  0
  7 38  1  0
  8 39  1  0
 12 40  1  0
 12 41  1  0
 13 42  1  0
 13 43  1  0
 17 44  1  0
 18 45  1  0
 19 46  1  0
 20 47  1  0
 23 48  1  0
 24 49  1  6
 25 50  1  0
 25 51  1  0
 27 52  1  0
 28 53  1  0
 30 54  1  0
 31 55  1  0
 32 56  1  0
 32 57  1  0
 33 58  1  0
 34 59  1  0
M  CHG  1  14   1
M  END
