LIG
     RDKit          3D

 29 30  0  0  0  0  0  0  0  0999 V2000
    3.7110    2.1190   19.5450 N   0  0  0  0  0  0  0  0  0  0  0  0
    4.7235    1.3065   19.1150 C   0  0  0  0  0  0  0  0  0  0  0  0
    5.3250    1.3500   17.8475 C   0  0  0  0  0  0  0  0  0  0  0  0
    6.3695    0.6250   17.5300 N   0  0  0  0  0  0  0  0  0  0  0  0
    6.8540   -0.1875   18.4270 C   0  0  0  0  0  0  0  0  0  0  0  0
    6.3260   -0.3105   19.6925 C   0  0  0  0  0  0  0  0  0  0  0  0
    7.2840   -0.6350   20.9180 N   0  0  0  0  0  0  0  0  0  0  0  0
    8.5920   -0.2080   21.3470 C   0  0  0  0  0  0  0  0  0  0  0  0
    9.1440    0.7090   20.8350 O   0  0  0  0  0  0  0  0  0  0  0  0
    9.2320   -0.9350   22.4160 N   0  0  0  0  0  0  0  0  0  0  0  0
   10.5180   -0.4560   22.8190 C   0  0  0  0  0  0  0  0  0  0  0  0
   11.6620   -0.7700   22.1120 C   0  0  0  0  0  0  0  0  0  0  0  0
   12.8740   -0.2570   22.5320 C   0  0  0  0  0  0  0  0  0  0  0  0
   12.9190    0.5770   23.6360 C   0  0  0  0  0  0  0  0  0  0  0  0
   11.7600    0.8910   24.3310 C   0  0  0  0  0  0  0  0  0  0  0  0
   10.5550    0.3780   23.9180 C   0  0  0  0  0  0  0  0  0  0  0  0
    5.2600    0.4385   20.0415 C   0  0  0  0  0  0  0  0  0  0  0  0
    3.7174    2.3028   20.5522 H   0  0  0  0  0  0  0  0  0  0  0  0
    3.5960    2.9856   19.0145 H   0  0  0  0  0  0  0  0  0  0  0  0
    4.9309    1.9965   17.0799 H   0  0  0  0  0  0  0  0  0  0  0  0
    7.7073   -0.7774   18.1107 H   0  0  0  0  0  0  0  0  0  0  0  0
    6.9160   -1.4676   21.4331 H   0  0  0  0  0  0  0  0  0  0  0  0
    8.7559   -1.5355   22.9169 H   0  0  0  0  0  0  0  0  0  0  0  0
   11.6459   -1.4111   21.2410 H   0  0  0  0  0  0  0  0  0  0  0  0
   13.7876   -0.5079   21.9992 H   0  0  0  0  0  0  0  0  0  0  0  0
   13.8777    0.9913   23.9646 H   0  0  0  0  0  0  0  0  0  0  0  0
   11.8162    1.5452   25.2021 H   0  0  0  0  0  0  0  0  0  0  0  0
    9.6544    0.6410   24.4610 H   0  0  0  0  0  0  0  0  0  0  0  0
    4.8028    0.3771   21.0233 H   0  0  0  0  0  0  0  0  0  0  0  0
  1  2  1  0
  2  3  4  0
  3  4  4  0
  4  5  4  0
  5  6  4  0
  6  7  1  0
  7  8  1  0
  8  9  2  0
  8 10  1  0
 10 11  1  0
 11 12  4  0
 12 13  4  0
 13 14  4  0
 14 15  4  0
 15 16  4  0
  6 17  4  0
 17  2  4  0
 16 11  4  0
  1 18  1  0
  1 19  1  0
  3 20  1  0
  5 21  1  0
  7 22  1  0
 10 23  1  0
 12 24  1  0
 13 25  1  0
 14 26  1  0
 15 27  1  0
 16 28  1  0
 17 29  1  0
M  END
