
     RDKit          3D

 29 30  0  0  0  0  0  0  0  0999 V2000
    3.4310    1.5600   20.0450 N   0  0  0  0  0  0  0  0  0  0  0  0
    4.3160    1.2490   19.3510 C   0  0  0  0  0  0  0  0  0  0  0  0
    5.0500    1.1970   18.0030 C   0  0  0  0  0  0  0  0  0  0  0  0
    6.3140    0.5470   17.7510 N   0  0  0  0  0  0  0  0  0  0  0  0
    6.9240   -0.0670   18.8010 C   0  0  0  0  0  0  0  0  0  0  0  0
    6.3190   -0.0580   20.1490 C   0  0  0  0  0  0  0  0  0  0  0  0
    7.1680   -0.7230   21.0770 N   0  0  0  0  0  0  0  0  0  0  0  0
    8.3510   -0.0890   21.4950 C   0  0  0  0  0  0  0  0  0  0  0  0
    8.7240    1.1810   21.0880 O   0  0  0  0  0  0  0  0  0  0  0  0
    9.1270   -0.8520   22.3410 N   0  0  0  0  0  0  0  0  0  0  0  0
   10.4580   -0.4740   22.5190 C   0  0  0  0  0  0  0  0  0  0  0  0
   11.5460   -1.5370   22.3200 C   0  0  0  0  0  0  0  0  0  0  0  0
   12.8470   -1.0400   22.5000 C   0  0  0  0  0  0  0  0  0  0  0  0
   13.1780    0.3600   22.8410 C   0  0  0  0  0  0  0  0  0  0  0  0
   12.0390    1.2910   23.0110 C   0  0  0  0  0  0  0  0  0  0  0  0
   10.7400    0.8670   22.8540 C   0  0  0  0  0  0  0  0  0  0  0  0
    5.0880    0.5700   20.3410 C   0  0  0  0  0  0  0  0  0  0  0  0
    3.1910    0.8330   20.7480 H   0  0  0  0  0  0  0  0  0  0  0  0
    2.6140    2.0450   19.6640 H   0  0  0  0  0  0  0  0  0  0  0  0
    4.5540    1.7030   17.1820 H   0  0  0  0  0  0  0  0  0  0  0  0
    7.8720   -0.5510   18.5960 H   0  0  0  0  0  0  0  0  0  0  0  0
    6.7140   -1.3010   21.7670 H   0  0  0  0  0  0  0  0  0  0  0  0
    8.9260   -1.8370   22.3820 H   0  0  0  0  0  0  0  0  0  0  0  0
   11.3300   -2.5690   22.0630 H   0  0  0  0  0  0  0  0  0  0  0  0
   13.6800   -1.7360   22.3740 H   0  0  0  0  0  0  0  0  0  0  0  0
   14.1950    0.7020   22.9580 H   0  0  0  0  0  0  0  0  0  0  0  0
   12.2570    2.3310   23.2620 H   0  0  0  0  0  0  0  0  0  0  0  0
    9.9300    1.5900   22.9870 H   0  0  0  0  0  0  0  0  0  0  0  0
    4.6620    0.5560   21.3400 H   0  0  0  0  0  0  0  0  0  0  0  0
  1  2  1  0
  2  3  2  0
  3  4  1  0
  4  5  2  0
  5  6  1  0
  6  7  1  0
  7  8  1  0
  8  9  2  0
  8 10  1  0
 10 11  1  0
 11 12  2  0
 12 13  1  0
 13 14  2  0
 14 15  1  0
 11 16  1  0
 15 16  2  0
  2 17  1  0
  6 17  2  0
  1 18  1  0
  1 19  1  0
  3 20  1  0
  5 21  1  0
  7 22  1  0
 10 23  1  0
 12 24  1  0
 13 25  1  0
 14 26  1  0
 15 27  1  0
 16 28  1  0
 17 29  1  0
M  END
