
     RDKit          3D

 54 57  0  0  0  0  0  0  0  0999 V2000
    8.7880    1.4870   21.1680 O   0  0  0  0  0  0  0  0  0  0  0  0
    8.4630    0.1060   21.3290 C   0  0  0  0  0  0  0  0  0  0  0  0
    8.9380   -0.6260   22.5020 N   0  0  0  0  0  0  0  0  0  0  0  0
   10.3880   -0.4290   22.5980 C   0  0  0  0  0  0  0  0  0  0  0  0
   10.6820    0.8890   22.8690 C   0  0  0  0  0  0  0  0  0  0  0  0
   12.0940    1.4070   23.0100 C   0  0  0  0  0  0  0  0  0  0  0  0
   13.1150    0.3500   22.8350 C   0  0  0  0  0  0  0  0  0  0  0  0
   12.8900   -0.9910   22.5680 C   0  0  0  0  0  0  0  0  0  0  0  0
   11.4130   -1.3610   22.4470 C   0  0  0  0  0  0  0  0  0  0  0  0
    7.7610   -0.6670   20.4290 N   0  0  0  0  0  0  0  0  0  0  0  0
    6.6440   -0.2000   19.7540 C   0  0  1  0  0  0  0  0  0  0  0  0
    5.4400    0.0340   20.6530 C   0  0  0  0  0  0  0  0  0  0  0  0
    4.3260    0.9450   20.1580 C   0  0  1  0  0  0  0  0  0  0  0  0
    3.5540    1.5820   21.1150 C   0  0  0  0  0  0  0  0  0  0  0  0
    4.1600    1.7540   22.3580 C   0  0  0  0  0  0  0  0  0  0  0  0
    3.3420    2.4840   23.2640 N   0  0  0  0  0  0  0  0  0  0  0  0
    2.1800    1.8460   23.8870 C   0  0  0  0  0  0  0  0  0  0  0  0
    2.0270    0.6360   23.8980 O   0  0  0  0  0  0  0  0  0  0  0  0
    1.1610    2.5450   24.5260 C   0  0  0  0  0  0  0  0  0  0  0  0
   -0.1530    2.0680   24.5490 C   0  0  0  0  0  0  0  0  0  0  0  0
   -1.2320    2.8680   25.2610 C   0  0  0  0  0  0  0  0  0  0  0  0
   -0.9130    4.0700   25.8880 C   0  0  0  0  0  0  0  0  0  0  0  0
    0.3910    4.5910   25.8930 C   0  0  0  0  0  0  0  0  0  0  0  0
    1.4440    3.9010   25.2510 C   0  0  0  0  0  0  0  0  0  0  0  0
    2.6740    4.4380   25.2840 F   0  0  0  0  0  0  0  0  0  0  0  0
    4.9490    1.9620   19.1830 C   0  0  0  0  0  0  0  0  0  0  0  0
    5.5830    1.2110   18.0150 C   0  0  0  0  0  0  0  0  0  0  0  0
    6.6850    0.3950   18.4690 N   0  0  0  0  0  0  0  0  0  0  0  0
    6.7850   -0.9680   18.4690 C   0  0  0  0  0  0  0  0  0  0  0  0
    8.6250   -1.5990   22.4810 H   0  0  0  0  0  0  0  0  0  0  0  0
    9.8560    1.6040   22.9860 H   0  0  0  0  0  0  0  0  0  0  0  0
   12.3400    2.4420   23.2170 H   0  0  0  0  0  0  0  0  0  0  0  0
   14.1440    0.6490   22.9200 H   0  0  0  0  0  0  0  0  0  0  0  0
   13.6820   -1.7220   22.4500 H   0  0  0  0  0  0  0  0  0  0  0  0
   11.2410   -2.4110   22.2330 H   0  0  0  0  0  0  0  0  0  0  0  0
    8.4300   -1.1960   19.8550 H   0  0  0  0  0  0  0  0  0  0  0  0
    4.9780   -0.9330   20.8900 H   0  0  0  0  0  0  0  0  0  0  0  0
    5.8010    0.4140   21.6190 H   0  0  0  0  0  0  0  0  0  0  0  0
    3.6750    0.3350   19.5280 H   0  0  0  0  0  0  0  0  0  0  0  0
    2.5650    1.1560   21.2940 H   0  0  0  0  0  0  0  0  0  0  0  0
    3.3260    2.5730   20.7070 H   0  0  0  0  0  0  0  0  0  0  0  0
    4.3310    0.7620   22.7670 H   0  0  0  0  0  0  0  0  0  0  0  0
    5.1350    2.2350   22.3580 H   0  0  0  0  0  0  0  0  0  0  0  0
    3.7410    3.3210   23.7030 H   0  0  0  0  0  0  0  0  0  0  0  0
   -0.4250    1.1260   24.0620 H   0  0  0  0  0  0  0  0  0  0  0  0
   -2.2580    2.5100   25.2870 H   0  0  0  0  0  0  0  0  0  0  0  0
   -1.7130    4.6100   26.3840 H   0  0  0  0  0  0  0  0  0  0  0  0
    0.5750    5.5310   26.4000 H   0  0  0  0  0  0  0  0  0  0  0  0
    4.1330    2.6090   18.8380 H   0  0  0  0  0  0  0  0  0  0  0  0
    5.6740    2.5940   19.7000 H   0  0  0  0  0  0  0  0  0  0  0  0
    4.6530    0.6080   17.9880 H   0  0  0  0  0  0  0  0  0  0  0  0
    5.6950    1.6640   17.0320 H   0  0  0  0  0  0  0  0  0  0  0  0
    5.9200   -1.5510   18.1370 H   0  0  0  0  0  0  0  0  0  0  0  0
    7.7550   -1.4090   18.2110 H   0  0  0  0  0  0  0  0  0  0  0  0
  1  2  2  0
  2  3  1  0
  3  4  1  0
  4  5  2  0
  5  6  1  0
  6  7  2  0
  7  8  1  0
  4  9  1  0
  8  9  2  0
  2 10  1  0
 11 10  1  1
 11 12  1  0
 12 13  1  0
 13 14  1  0
 14 15  1  0
 15 16  1  0
 16 17  1  0
 17 18  2  0
 17 19  1  0
 19 20  2  0
 20 21  1  0
 21 22  2  0
 22 23  1  0
 19 24  1  0
 23 24  2  0
 24 25  1  0
 13 26  1  0
 26 27  1  0
 11 28  1  0
 27 28  1  0
 11 29  1  0
 28 29  1  0
  3 30  1  0
  5 31  1  0
  6 32  1  0
  7 33  1  0
  8 34  1  0
  9 35  1  0
 10 36  1  0
 12 37  1  0
 12 38  1  0
 13 39  1  6
 14 40  1  0
 14 41  1  0
 15 42  1  0
 15 43  1  0
 16 44  1  0
 20 45  1  0
 21 46  1  0
 22 47  1  0
 23 48  1  0
 26 49  1  0
 26 50  1  0
 27 51  1  0
 27 52  1  0
 29 53  1  0
 29 54  1  0
M  END
