
     RDKit          3D

 28 30  0  0  0  0  0  0  0  0999 V2000
    8.6560    1.0120   21.1990 O   0  0  0  0  0  0  0  0  0  0  0  0
    8.3870   -0.2980   21.6880 C   0  0  0  0  0  0  0  0  0  0  0  0
    7.0790   -0.8360   21.3350 N   0  0  0  0  0  0  0  0  0  0  0  0
    6.5100   -0.1320   20.1740 C   0  0  0  0  0  0  0  0  0  0  0  0
    5.3780    0.6400   20.4170 C   0  0  0  0  0  0  0  0  0  0  0  0
    4.6410    1.4520   19.3510 C   0  0  0  0  0  0  0  0  0  0  0  0
    5.2220    1.3760   17.9730 C   0  0  0  0  0  0  0  0  0  0  0  0
    6.4320    0.5270   17.8020 N   0  0  0  0  0  0  0  0  0  0  0  0
    7.0470   -0.2110   18.8960 C   0  0  0  0  0  0  0  0  0  0  0  0
    9.2870   -1.0390   22.4620 N   0  0  0  0  0  0  0  0  0  0  0  0
   10.6270   -0.5770   22.6640 C   0  0  0  0  0  0  0  0  0  0  0  0
   10.6620    0.7250   23.1430 C   0  0  0  0  0  0  0  0  0  0  0  0
   11.9210    1.3470   23.3730 C   0  0  0  0  0  0  0  0  0  0  0  0
   13.0400    0.4710   23.0530 C   0  0  0  0  0  0  0  0  0  0  0  0
   12.9380   -0.8230   22.5910 C   0  0  0  0  0  0  0  0  0  0  0  0
   11.6830   -1.5360   22.3280 C   0  0  0  0  0  0  0  0  0  0  0  0
   12.7890   -2.2540   22.0810 C   0  0  0  0  0  0  0  0  0  0  0  0
    6.4760   -0.8920   22.1570 H   0  0  0  0  0  0  0  0  0  0  0  0
    4.9820    0.6720   21.4440 H   0  0  0  0  0  0  0  0  0  0  0  0
    3.7590    2.0430   19.5760 H   0  0  0  0  0  0  0  0  0  0  0  0
    4.8170    1.8990   17.1090 H   0  0  0  0  0  0  0  0  0  0  0  0
    7.9210   -0.7990   18.6440 H   0  0  0  0  0  0  0  0  0  0  0  0
    9.2030   -2.0450   22.4450 H   0  0  0  0  0  0  0  0  0  0  0  0
    9.7290    1.2450   23.3250 H   0  0  0  0  0  0  0  0  0  0  0  0
   12.0570    2.3690   23.7400 H   0  0  0  0  0  0  0  0  0  0  0  0
   13.9890    0.9490   23.2120 H   0  0  0  0  0  0  0  0  0  0  0  0
   13.1490   -3.0510   22.7210 H   0  0  0  0  0  0  0  0  0  0  0  0
   12.9220   -2.4410   20.9870 H   0  0  0  0  0  0  0  0  0  0  0  0
  1  2  2  0
  2  3  1  0
  3  4  1  0
  4  5  2  0
  5  6  1  0
  6  7  2  0
  7  8  1  0
  4  9  1  0
  8  9  2  0
  2 10  1  0
 10 11  1  0
 11 12  2  0
 12 13  1  0
 13 14  2  0
 14 15  1  0
 11 16  1  0
 15 16  2  0
 15 17  1  0
 16 17  1  0
  3 18  1  0
  5 19  1  0
  6 20  1  0
  7 21  1  0
  9 22  1  0
 10 23  1  0
 12 24  1  0
 13 25  1  0
 14 26  1  0
 17 27  1  0
 17 28  1  0
M  END
