LIG
     RDKit          3D

 51 54  0  0  0  0  0  0  0  0999 V2000
    8.9920    6.2370   22.6120 C   0  0  0  0  0  0  0  0  0  0  0  0
   10.2740    5.9430   23.3830 C   0  0  0  0  0  0  0  0  0  0  0  0
   10.3130    6.1380   24.5460 O   0  0  0  0  0  0  0  0  0  0  0  0
   11.4270    5.4110   22.6760 N   0  0  0  0  0  0  0  0  0  0  0  0
   12.6680    5.0840   23.3500 C   0  0  0  0  0  0  0  0  0  0  0  0
   13.0500    3.6550   22.9570 C   0  0  0  0  0  0  0  0  0  0  0  0
   12.0650    2.5700   23.4230 C   0  0  0  0  0  0  0  0  0  0  0  0
   10.9400    2.7480   24.2110 C   0  0  0  0  0  0  0  0  0  0  0  0
   11.0565    1.2310   24.3550 C   0  0  0  0  0  0  0  0  0  0  0  0
   10.8015    0.4870   23.8230 C   0  0  0  0  0  0  0  0  0  0  0  0
   10.6710   -0.6290   23.2145 C   0  0  0  0  0  0  0  0  0  0  0  0
    9.2320   -0.9350   22.4160 N   0  0  0  0  0  0  0  0  0  0  0  0
    8.5920   -0.2080   21.3470 C   0  0  0  0  0  0  0  0  0  0  0  0
    9.1440    0.7090   20.8350 O   0  0  0  0  0  0  0  0  0  0  0  0
    7.2840   -0.6350   20.9180 N   0  0  0  0  0  0  0  0  0  0  0  0
    6.6030    0.0510   19.8530 C   0  0  0  0  0  0  0  0  0  0  0  0
    5.3980    0.6740   20.1340 C   0  0  0  0  0  0  0  0  0  0  0  0
    4.7680    1.3310   19.0890 C   0  0  0  0  0  0  0  0  0  0  0  0
    5.3600    1.2970   17.8310 C   0  0  0  0  0  0  0  0  0  0  0  0
    6.5100    0.7030   17.6230 N   0  0  0  0  0  0  0  0  0  0  0  0
    7.1440    0.0770   18.5790 C   0  0  0  0  0  0  0  0  0  0  0  0
   11.6850   -1.1755   22.4905 C   0  0  0  0  0  0  0  0  0  0  0  0
   12.8100   -0.9880   22.2450 C   0  0  0  0  0  0  0  0  0  0  0  0
   13.6800   -1.7440   21.5180 F   0  0  0  0  0  0  0  0  0  0  0  0
   12.9520    0.0635   22.4500 C   0  0  0  0  0  0  0  0  0  0  0  0
   12.5250    0.8815   23.3785 C   0  0  0  0  0  0  0  0  0  0  0  0
    8.7850    5.4018   21.9405 H   0  0  0  0  0  0  0  0  0  0  0  0
    9.1094    7.1427   22.0154 H   0  0  0  0  0  0  0  0  0  0  0  0
    9.2173    6.2532   21.5454 H   0  0  0  0  0  0  0  0  0  0  0  0
   11.3472    5.3102   21.6902 H   0  0  0  0  0  0  0  0  0  0  0  0
   13.4325    5.7911   23.0944 H   0  0  0  0  0  0  0  0  0  0  0  0
   12.4559    5.1168   24.4057 H   0  0  0  0  0  0  0  0  0  0  0  0
   14.0583    3.4211   23.3506 H   0  0  0  0  0  0  0  0  0  0  0  0
   13.1435    3.6076   21.8553 H   0  0  0  0  0  0  0  0  0  0  0  0
   11.4368    2.5529   22.1346 H   0  0  0  0  0  0  0  0  0  0  0  0
    9.9997    3.1018   23.7570 H   0  0  0  0  0  0  0  0  0  0  0  0
   11.0504    3.2650   25.1830 H   0  0  0  0  0  0  0  0  0  0  0  0
   11.5460    0.9528   25.4261 H   0  0  0  0  0  0  0  0  0  0  0  0
   10.3326    1.2320   22.6551 H   0  0  0  0  0  0  0  0  0  0  0  0
    9.3572    0.6200   23.9742 H   0  0  0  0  0  0  0  0  0  0  0  0
   10.4331   -1.4912   24.0507 H   0  0  0  0  0  0  0  0  0  0  0  0
    8.6543   -1.5377   22.8861 H   0  0  0  0  0  0  0  0  0  0  0  0
    6.8440   -1.3103   21.4078 H   0  0  0  0  0  0  0  0  0  0  0  0
    4.9500    0.6707   21.1051 H   0  0  0  0  0  0  0  0  0  0  0  0
    3.8362    1.8629   19.2423 H   0  0  0  0  0  0  0  0  0  0  0  0
    4.8826    1.7640   16.9839 H   0  0  0  0  0  0  0  0  0  0  0  0
    8.0567   -0.3963   18.3402 H   0  0  0  0  0  0  0  0  0  0  0  0
   11.2075   -0.9623   21.2632 H   0  0  0  0  0  0  0  0  0  0  0  0
   12.5043   -0.7012   20.6243 H   0  0  0  0  0  0  0  0  0  0  0  0
   12.6265    0.6806   21.4182 H   0  0  0  0  0  0  0  0  0  0  0  0
   13.3224    0.9833   24.3361 H   0  0  0  0  0  0  0  0  0  0  0  0
  1  2  1  0
  2  3  2  0
  2  4  1  0
  4  5  1  0
  5  6  1  0
  6  7  1  0
  7  8  1  0
  8  9  1  0
  9 10  1  0
 10 11  1  0
 11 12  1  0
 12 13  1  0
 13 14  2  0
 13 15  1  0
 15 16  1  0
 16 17  4  0
 17 18  4  0
 18 19  4  0
 19 20  4  0
 20 21  4  0
 11 22  1  0
 22 23  1  0
 23 24  1  0
 23 25  1  0
 25 26  1  0
 26  7  1  0
 26  9  1  0
 21 16  4  0
 25 22  1  0
  1 27  1  0
  1 28  1  0
  1 29  1  0
  4 30  1  0
  5 31  1  0
  5 32  1  0
  6 33  1  0
  6 34  1  0
  7 35  1  0
  8 36  1  0
  8 37  1  0
  9 38  1  0
 10 39  1  0
 10 40  1  0
 11 41  1  0
 12 42  1  0
 15 43  1  0
 17 44  1  0
 18 45  1  0
 19 46  1  0
 21 47  1  0
 22 48  1  0
 23 49  1  0
 25 50  1  0
 26 51  1  0
M  END
