LIG
     RDKit          3D

 38 39  0  0  0  0  0  0  0  0999 V2000
    6.4340   -4.9520   26.5780 C   0  0  0  0  0  0  0  0  0  0  0  0
    8.0950   -4.3580   26.1540 S   0  0  0  0  0  6  0  0  0  0  0  0
    9.0830   -5.4410   26.1700 O   0  0  0  0  0  0  0  0  0  0  0  0
    8.6390   -3.5100   27.2010 O   0  0  0  0  0  0  0  0  0  0  0  0
    8.0610   -3.5350   24.6620 N   0  0  0  0  0  0  0  0  0  0  0  0
    9.3140   -3.0270   24.1660 C   0  0  0  0  0  0  0  0  0  0  0  0
    9.2210   -1.3415   22.8815 N   0  0  0  0  0  0  0  0  0  0  0  0
    8.5920   -0.2080   21.3470 C   0  0  0  0  0  0  0  0  0  0  0  0
    9.1440    0.7090   20.8350 O   0  0  0  0  0  0  0  0  0  0  0  0
    7.2840   -0.6350   20.9180 N   0  0  0  0  0  0  0  0  0  0  0  0
    6.6030    0.0510   19.8530 C   0  0  0  0  0  0  0  0  0  0  0  0
    5.3980    0.6740   20.1340 C   0  0  0  0  0  0  0  0  0  0  0  0
    4.7680    1.3310   19.0890 C   0  0  0  0  0  0  0  0  0  0  0  0
    5.3600    1.2970   17.8310 C   0  0  0  0  0  0  0  0  0  0  0  0
    6.5100    0.7030   17.6230 N   0  0  0  0  0  0  0  0  0  0  0  0
    7.1440    0.0770   18.5790 C   0  0  0  0  0  0  0  0  0  0  0  0
   10.5610   -0.7990   23.1060 C   0  0  0  0  0  0  0  0  0  0  0  0
   11.6225   -1.2315   22.3510 C   0  0  0  0  0  0  0  0  0  0  0  0
   12.8725   -0.7270   22.5760 C   0  0  0  0  0  0  0  0  0  0  0  0
   13.0490    0.2170   23.5530 C   0  0  0  0  0  0  0  0  0  0  0  0
   11.9790    0.6505   24.3045 C   0  0  0  0  0  0  0  0  0  0  0  0
   10.7320    0.1410   24.0860 C   0  0  0  0  0  0  0  0  0  0  0  0
    6.1192   -4.4880   27.5071 H   0  0  0  0  0  0  0  0  0  0  0  0
    6.4724   -6.0353   26.6556 H   0  0  0  0  0  0  0  0  0  0  0  0
    5.7744   -4.6533   25.7660 H   0  0  0  0  0  0  0  0  0  0  0  0
    7.4771   -4.0027   23.9736 H   0  0  0  0  0  0  0  0  0  0  0  0
   10.0273   -2.5680   24.8437 H   0  0  0  0  0  0  0  0  0  0  0  0
    9.9001   -3.6101   23.4554 H   0  0  0  0  0  0  0  0  0  0  0  0
    6.8396   -1.2893   21.4411 H   0  0  0  0  0  0  0  0  0  0  0  0
    4.9556    0.6622   21.1077 H   0  0  0  0  0  0  0  0  0  0  0  0
    3.8333    1.8629   19.2369 H   0  0  0  0  0  0  0  0  0  0  0  0
    4.8835    1.7624   16.9821 H   0  0  0  0  0  0  0  0  0  0  0  0
    8.0577   -0.3957   18.3171 H   0  0  0  0  0  0  0  0  0  0  0  0
   11.4999   -1.9382   21.5311 H   0  0  0  0  0  0  0  0  0  0  0  0
   13.7210   -1.0543   21.9736 H   0  0  0  0  0  0  0  0  0  0  0  0
   14.0446    0.6456   23.7296 H   0  0  0  0  0  0  0  0  0  0  0  0
   12.1378    1.4132   25.0753 H   0  0  0  0  0  0  0  0  0  0  0  0
    9.9233    0.4918   24.7143 H   0  0  0  0  0  0  0  0  0  0  0  0
  1  2  1  0
  2  3  2  0
  2  4  2  0
  2  5  1  0
  5  6  1  0
  6  7  1  0
  7  8  1  0
  8  9  2  0
  8 10  1  0
 10 11  1  0
 11 12  4  0
 12 13  4  0
 13 14  4  0
 14 15  4  0
 15 16  4  0
  7 17  1  0
 17 18  4  0
 18 19  4  0
 19 20  4  0
 20 21  4  0
 21 22  4  0
 16 11  4  0
 22 17  4  0
  1 23  1  0
  1 24  1  0
  1 25  1  0
  5 26  1  0
  6 27  1  0
  6 28  1  0
 10 29  1  0
 12 30  1  0
 13 31  1  0
 14 32  1  0
 16 33  1  0
 18 34  1  0
 19 35  1  0
 20 36  1  0
 21 37  1  0
 22 38  1  0
M  END
