LIG
     RDKit          3D

 36 37  0  0  0  0  0  0  0  0999 V2000
    8.4100    0.0120   27.4140 C   0  0  0  0  0  0  0  0  0  0  0  0
    8.9670   -0.5390   26.1210 C   0  0  0  0  0  0  0  0  0  0  0  0
   10.1000    0.2670   25.7050 N   0  0  0  0  0  0  0  0  0  0  0  0
   10.7410    0.1010   24.2635 C   0  0  0  0  0  0  0  0  0  0  0  0
   11.8835    0.7035   24.3150 C   0  0  0  0  0  0  0  0  0  0  0  0
   12.8535    0.3570   23.4625 C   0  0  0  0  0  0  0  0  0  0  0  0
   12.6840   -0.6240   22.5280 C   0  0  0  0  0  0  0  0  0  0  0  0
   13.3880   -1.4320   21.3740 C   0  0  0  0  0  0  0  0  0  0  0  0
   14.0700   -1.7370   20.5180 N   0  0  0  0  0  0  0  0  0  0  0  0
   11.5135   -1.2480   22.4740 C   0  0  0  0  0  0  0  0  0  0  0  0
   10.5470   -0.8835   23.3545 C   0  0  0  0  0  0  0  0  0  0  0  0
    9.2320   -0.9350   22.4160 N   0  0  0  0  0  0  0  0  0  0  0  0
    8.5920   -0.2080   21.3470 C   0  0  0  0  0  0  0  0  0  0  0  0
    9.1440    0.7090   20.8350 O   0  0  0  0  0  0  0  0  0  0  0  0
    7.2840   -0.6350   20.9180 N   0  0  0  0  0  0  0  0  0  0  0  0
    6.6030    0.0510   19.8530 C   0  0  0  0  0  0  0  0  0  0  0  0
    5.3980    0.6740   20.1340 C   0  0  0  0  0  0  0  0  0  0  0  0
    4.7680    1.3310   19.0890 C   0  0  0  0  0  0  0  0  0  0  0  0
    5.3600    1.2970   17.8310 C   0  0  0  0  0  0  0  0  0  0  0  0
    6.5100    0.7030   17.6230 N   0  0  0  0  0  0  0  0  0  0  0  0
    7.1440    0.0770   18.5790 C   0  0  0  0  0  0  0  0  0  0  0  0
    7.4528   -0.4527   27.6774 H   0  0  0  0  0  0  0  0  0  0  0  0
    8.2425    1.0918   27.3286 H   0  0  0  0  0  0  0  0  0  0  0  0
    7.4261    0.4708   27.2581 H   0  0  0  0  0  0  0  0  0  0  0  0
    9.2095   -1.5956   26.2089 H   0  0  0  0  0  0  0  0  0  0  0  0
    8.1971   -0.4514   25.3536 H   0  0  0  0  0  0  0  0  0  0  0  0
    9.8843    1.2721   25.7181 H   0  0  0  0  0  0  0  0  0  0  0  0
   12.1120    1.5009   25.0499 H   0  0  0  0  0  0  0  0  0  0  0  0
   13.8395    0.8784   23.5199 H   0  0  0  0  0  0  0  0  0  0  0  0
   11.3345   -2.0311   21.7305 H   0  0  0  0  0  0  0  0  0  0  0  0
    8.7749   -1.8763   22.6803 H   0  0  0  0  0  0  0  0  0  0  0  0
    6.8418   -1.3028   21.4208 H   0  0  0  0  0  0  0  0  0  0  0  0
    4.9473    0.6711   21.1032 H   0  0  0  0  0  0  0  0  0  0  0  0
    3.8353    1.8621   19.2415 H   0  0  0  0  0  0  0  0  0  0  0  0
    4.8829    1.7652   16.9839 H   0  0  0  0  0  0  0  0  0  0  0  0
    8.0595   -0.3915   18.3317 H   0  0  0  0  0  0  0  0  0  0  0  0
  1  2  1  0
  2  3  1  0
  3  4  1  0
  4  5  4  0
  5  6  4  0
  6  7  4  0
  7  8  1  0
  8  9  3  0
  7 10  4  0
 10 11  4  0
 11 12  1  0
 12 13  1  0
 13 14  2  0
 13 15  1  0
 15 16  1  0
 16 17  4  0
 17 18  4  0
 18 19  4  0
 19 20  4  0
 20 21  4  0
 11  4  4  0
 21 16  4  0
  1 22  1  0
  1 23  1  0
  1 24  1  0
  2 25  1  0
  2 26  1  0
  3 27  1  0
  5 28  1  0
  6 29  1  0
 10 30  1  0
 12 31  1  0
 15 32  1  0
 17 33  1  0
 18 34  1  0
 19 35  1  0
 21 36  1  0
M  END
