LIG
     RDKit          3D

 55 57  0  0  0  0  0  0  0  0999 V2000
    9.1440    0.7090   20.8350 O   0  0  0  0  0  0  0  0  0  0  0  0
    8.5920   -0.2080   21.3470 C   0  0  0  0  0  0  0  0  0  0  0  0
    9.2320   -0.9350   22.4160 N   0  0  0  0  0  0  0  0  0  0  0  0
   10.5180   -0.4560   22.8190 C   0  0  0  0  0  0  0  0  0  0  0  0
   10.5550    0.3780   23.9180 C   0  0  0  0  0  0  0  0  0  0  0  0
   11.7600    0.8910   24.3310 C   0  0  0  0  0  0  0  0  0  0  0  0
   12.9190    0.5770   23.6360 C   0  0  0  0  0  0  0  0  0  0  0  0
   12.8740   -0.2570   22.5320 C   0  0  0  0  0  0  0  0  0  0  0  0
   11.6620   -0.7700   22.1120 C   0  0  0  0  0  0  0  0  0  0  0  0
    7.2840   -0.6350   20.9180 N   0  0  0  0  0  0  0  0  0  0  0  0
    6.4910   -0.1460   19.8255 C   0  0  0  0  0  0  0  0  0  0  0  0
    6.9525   -0.0790   18.5235 C   0  0  0  0  0  0  0  0  0  0  0  0
    6.3160    0.6365   17.6360 N   0  0  0  0  0  0  0  0  0  0  0  0
    5.2230    1.3020   17.9430 C   0  0  0  0  0  0  0  0  0  0  0  0
    4.7015    1.3030   19.2300 C   0  0  0  0  0  0  0  0  0  0  0  0
    5.3525    0.5500   20.1940 C   0  0  0  0  0  0  0  0  0  0  0  0
    4.8810    0.3160   21.7180 C   0  0  0  0  0  0  0  0  0  0  0  0
    5.2050    1.5540   22.5490 C   0  0  0  0  0  0  0  0  0  0  0  0
    4.0700    2.4460   22.4650 N   0  0  0  0  0  0  0  0  0  0  0  0
    2.9270    2.3110   23.3520 C   0  0  0  0  0  0  0  0  0  0  0  0
    2.8920    1.4710   24.2020 O   0  0  0  0  0  0  0  0  0  0  0  0
    1.8460    3.2530   23.1370 N   0  0  0  0  0  0  0  0  0  0  0  0
    0.6480    3.2940   23.9490 C   0  0  0  0  0  0  0  0  0  0  0  0
   -0.5430    2.8790   23.0980 C   0  0  0  0  0  0  0  0  0  0  0  0
   -1.8960    3.2340   23.7250 C   0  0  0  0  0  0  0  0  0  0  0  0
   -1.9540    4.6680   24.2350 C   0  0  0  0  0  0  0  0  0  0  0  0
   -0.7860    4.9880   25.1580 C   0  0  0  0  0  0  0  0  0  0  0  0
    0.5370    4.7360   24.4510 C   0  0  0  0  0  0  0  0  0  0  0  0
    8.7517   -1.5251   22.9282 H   0  0  0  0  0  0  0  0  0  0  0  0
    9.6543    0.6418   24.4608 H   0  0  0  0  0  0  0  0  0  0  0  0
   11.8160    1.5455   25.2019 H   0  0  0  0  0  0  0  0  0  0  0  0
   13.8777    0.9916   23.9644 H   0  0  0  0  0  0  0  0  0  0  0  0
   13.7875   -0.5076   21.9989 H   0  0  0  0  0  0  0  0  0  0  0  0
   11.6461   -1.4111   21.2407 H   0  0  0  0  0  0  0  0  0  0  0  0
    6.9924   -1.4987   21.3499 H   0  0  0  0  0  0  0  0  0  0  0  0
    7.8280   -0.5772   18.1811 H   0  0  0  0  0  0  0  0  0  0  0  0
    4.7477    1.8549   17.1472 H   0  0  0  0  0  0  0  0  0  0  0  0
    3.8174    1.8831   19.4413 H   0  0  0  0  0  0  0  0  0  0  0  0
    5.3894   -0.5539   22.0761 H   0  0  0  0  0  0  0  0  0  0  0  0
    3.8275    0.1259   21.7048 H   0  0  0  0  0  0  0  0  0  0  0  0
    5.3513    1.2692   23.5756 H   0  0  0  0  0  0  0  0  0  0  0  0
    6.0669    2.0772   22.1802 H   0  0  0  0  0  0  0  0  0  0  0  0
    4.2733    3.4370   22.3307 H   0  0  0  0  0  0  0  0  0  0  0  0
    1.7597    3.4914   22.1516 H   0  0  0  0  0  0  0  0  0  0  0  0
    0.5475    4.4256   22.5089 H   0  0  0  0  0  0  0  0  0  0  0  0
   -0.4767    3.3475   22.0990 H   0  0  0  0  0  0  0  0  0  0  0  0
   -0.5135    1.7890   22.9095 H   0  0  0  0  0  0  0  0  0  0  0  0
   -2.1080    2.5381   24.5514 H   0  0  0  0  0  0  0  0  0  0  0  0
   -2.6913    3.0770   22.9785 H   0  0  0  0  0  0  0  0  0  0  0  0
   -2.8986    4.8261   24.7731 H   0  0  0  0  0  0  0  0  0  0  0  0
   -1.9544    5.3624   23.3853 H   0  0  0  0  0  0  0  0  0  0  0  0
   -0.8418    6.0342   25.4690 H   0  0  0  0  0  0  0  0  0  0  0  0
   -0.8482    4.3737   26.0583 H   0  0  0  0  0  0  0  0  0  0  0  0
    1.3662    4.9545   25.1394 H   0  0  0  0  0  0  0  0  0  0  0  0
    0.6419    5.4407   23.6153 H   0  0  0  0  0  0  0  0  0  0  0  0
  1  2  2  0
  2  3  1  0
  3  4  1  0
  4  5  4  0
  5  6  4  0
  6  7  4  0
  7  8  4  0
  8  9  4  0
  2 10  1  0
 10 11  1  0
 11 12  4  0
 12 13  4  0
 13 14  4  0
 14 15  4  0
 15 16  4  0
 16 17  1  0
 17 18  1  0
 18 19  1  0
 19 20  1  0
 20 21  2  0
 20 22  1  0
 22 23  1  0
 23 24  1  0
 24 25  1  0
 25 26  1  0
 26 27  1  0
 27 28  1  0
  9  4  4  0
 16 11  4  0
 28 23  1  0
  3 29  1  0
  5 30  1  0
  6 31  1  0
  7 32  1  0
  8 33  1  0
  9 34  1  0
 10 35  1  0
 12 36  1  0
 14 37  1  0
 15 38  1  0
 17 39  1  0
 17 40  1  0
 18 41  1  0
 18 42  1  0
 19 43  1  0
 22 44  1  0
 23 45  1  0
 24 46  1  0
 24 47  1  0
 25 48  1  0
 25 49  1  0
 26 50  1  0
 26 51  1  0
 27 52  1  0
 27 53  1  0
 28 54  1  0
 28 55  1  0
M  END
