
     RDKit          3D

 48 50  0  0  0  0  0  0  0  0999 V2000
   13.5220   -2.7370   20.7120 N   0  0  0  0  0  0  0  0  0  0  0  0
   13.0060   -2.0070   21.3850 C   0  0  0  0  0  0  0  0  0  0  0  0
   12.2260   -1.1660   22.2800 C   0  0  0  0  0  0  0  0  0  0  0  0
   12.8610   -0.2680   23.1150 C   0  0  0  0  0  0  0  0  0  0  0  0
   12.0290    0.5690   24.0370 C   0  0  0  0  0  0  0  0  0  0  0  0
   10.5750    0.3420   23.9570 C   0  0  0  0  0  0  0  0  0  0  0  0
    9.6470    1.0020   24.7440 C   0  0  0  0  0  0  0  0  0  0  0  0
    8.4160    0.5250   24.5470 N   0  0  0  0  0  0  0  0  0  0  0  0
    7.6120    1.5280   24.1000 C   0  0  0  0  0  0  0  0  0  0  0  0
    7.9710    2.6580   23.7720 O   0  0  0  0  0  0  0  0  0  0  0  0
    6.1510    1.2670   23.9910 N   0  0  0  0  0  0  0  0  0  0  0  0
    5.4470    2.0790   22.9520 C   0  0  0  0  0  0  0  0  0  0  0  0
    3.9460    2.0150   22.9050 C   0  0  0  0  0  0  0  0  0  0  0  0
    3.3220    1.5390   23.8690 O   0  0  0  0  0  0  0  0  0  0  0  0
    4.0750    0.6150   24.6890 C   0  0  0  0  0  0  0  0  0  0  0  0
    5.3300    0.9840   25.1180 C   0  0  0  0  0  0  0  0  0  0  0  0
    9.9850   -0.6000   23.0380 C   0  0  0  0  0  0  0  0  0  0  0  0
    8.6440   -0.8530   22.8610 N   0  0  0  0  0  0  0  0  0  0  0  0
    8.1330   -0.2450   21.6170 C   0  0  0  0  0  0  0  0  0  0  0  0
    8.6050    0.7940   21.1550 O   0  0  0  0  0  0  0  0  0  0  0  0
    7.1100   -0.8970   21.0210 N   0  0  0  0  0  0  0  0  0  0  0  0
    6.4680   -0.1880   20.0490 C   0  0  0  0  0  0  0  0  0  0  0  0
    5.2630    0.4760   20.3270 C   0  0  0  0  0  0  0  0  0  0  0  0
    4.6010    1.2610   19.2120 C   0  0  0  0  0  0  0  0  0  0  0  0
    5.2280    1.2760   17.9820 C   0  0  0  0  0  0  0  0  0  0  0  0
    6.3880    0.6160   17.7530 N   0  0  0  0  0  0  0  0  0  0  0  0
    6.9650   -0.0830   18.7620 C   0  0  0  0  0  0  0  0  0  0  0  0
   10.8580   -1.3230   22.2370 C   0  0  0  0  0  0  0  0  0  0  0  0
   13.9360   -0.1650   23.1130 H   0  0  0  0  0  0  0  0  0  0  0  0
   12.4780    1.2650   24.6930 H   0  0  0  0  0  0  0  0  0  0  0  0
    9.6560    2.0830   24.5550 H   0  0  0  0  0  0  0  0  0  0  0  0
    9.8690    0.8770   25.8030 H   0  0  0  0  0  0  0  0  0  0  0  0
    8.0150    0.0080   25.3160 H   0  0  0  0  0  0  0  0  0  0  0  0
    5.8040    1.7300   21.9780 H   0  0  0  0  0  0  0  0  0  0  0  0
    5.8950    3.0600   23.0720 H   0  0  0  0  0  0  0  0  0  0  0  0
    3.5600    3.0310   22.7580 H   0  0  0  0  0  0  0  0  0  0  0  0
    3.6580    1.4950   21.9850 H   0  0  0  0  0  0  0  0  0  0  0  0
    3.4270    0.3800   25.5390 H   0  0  0  0  0  0  0  0  0  0  0  0
    4.2070   -0.3060   24.1220 H   0  0  0  0  0  0  0  0  0  0  0  0
    5.2600    1.8920   25.7290 H   0  0  0  0  0  0  0  0  0  0  0  0
    5.8140    0.2340   25.7470 H   0  0  0  0  0  0  0  0  0  0  0  0
    8.3240   -1.8080   22.9970 H   0  0  0  0  0  0  0  0  0  0  0  0
    6.5240   -1.4520   21.6290 H   0  0  0  0  0  0  0  0  0  0  0  0
    4.8020    0.4380   21.3180 H   0  0  0  0  0  0  0  0  0  0  0  0
    3.6670    1.7990   19.3610 H   0  0  0  0  0  0  0  0  0  0  0  0
    4.8050    1.8240   17.1490 H   0  0  0  0  0  0  0  0  0  0  0  0
    7.8860   -0.5770   18.4750 H   0  0  0  0  0  0  0  0  0  0  0  0
   10.4700   -2.0610   21.5220 H   0  0  0  0  0  0  0  0  0  0  0  0
  1  2  3  0
  2  3  1  0
  3  4  2  0
  4  5  1  0
  5  6  2  0
  6  7  1  0
  7  8  1  0
  8  9  1  0
  9 10  2  0
  9 11  1  0
 11 12  1  0
 12 13  1  0
 13 14  1  0
 14 15  1  0
 11 16  1  0
 15 16  1  0
  6 17  1  0
 17 18  1  0
 18 19  1  0
 19 20  2  0
 19 21  1  0
 21 22  1  0
 22 23  2  0
 23 24  1  0
 24 25  2  0
 25 26  1  0
 22 27  1  0
 26 27  2  0
  3 28  1  0
 17 28  2  0
  4 29  1  0
  5 30  1  0
  7 31  1  0
  7 32  1  0
  8 33  1  0
 12 34  1  0
 12 35  1  0
 13 36  1  0
 13 37  1  0
 15 38  1  0
 15 39  1  0
 16 40  1  0
 16 41  1  0
 18 42  1  0
 21 43  1  0
 23 44  1  0
 24 45  1  0
 25 46  1  0
 27 47  1  0
 28 48  1  0
M  END
