
     RDKit          3D

 38 40  0  0  0  0  0  0  0  0999 V2000
    9.2050    5.6760   22.7460 N   0  0  0  0  0  0  0  0  0  0  0  0
   10.5810    5.5960   23.7460 S   0  0  2  0  0  0  0  0  0  0  0  0
   10.0880    5.6900   25.0970 O   0  0  0  0  0  0  0  0  0  0  0  0
   11.5120    6.5570   23.2100 O   0  0  0  0  0  0  0  0  0  0  0  0
   11.1680    3.9380   23.3750 C   0  0  0  0  0  0  0  0  0  0  0  0
   12.6040    3.6580   23.0930 C   0  0  0  0  0  0  0  0  0  0  0  0
   13.1140    2.3900   22.8130 C   0  0  0  0  0  0  0  0  0  0  0  0
   12.1860    1.2170   22.7700 C   0  0  0  0  0  0  0  0  0  0  0  0
   12.5280   -0.1750   22.4970 C   0  0  0  0  0  0  0  0  0  0  0  0
   11.6300   -1.2120   22.4070 C   0  0  0  0  0  0  0  0  0  0  0  0
   10.0970   -0.9850   22.5910 C   0  0  0  0  0  0  0  0  0  0  0  0
    8.9640   -1.2200   22.6380 N   0  0  0  0  0  0  0  0  0  0  0  0
    8.2440   -0.4790   21.6760 C   0  0  0  0  0  0  0  0  0  0  0  0
    8.6720    0.8010   21.2090 O   0  0  0  0  0  0  0  0  0  0  0  0
    7.1080   -1.0180   21.1820 N   0  0  0  0  0  0  0  0  0  0  0  0
    6.4920   -0.2800   20.1990 C   0  0  0  0  0  0  0  0  0  0  0  0
    5.2300    0.5300   20.4300 C   0  0  0  0  0  0  0  0  0  0  0  0
    4.6790    1.2520   19.3730 C   0  0  0  0  0  0  0  0  0  0  0  0
    5.2580    1.2590   18.0870 C   0  0  0  0  0  0  0  0  0  0  0  0
    6.4230    0.5190   17.8470 N   0  0  0  0  0  0  0  0  0  0  0  0
    7.0290   -0.2560   18.9320 C   0  0  0  0  0  0  0  0  0  0  0  0
    9.8070    0.3740   22.9140 C   0  0  0  0  0  0  0  0  0  0  0  0
   10.6990    1.4170   23.0100 C   0  0  0  0  0  0  0  0  0  0  0  0
   10.1540    2.8010   23.3420 C   0  0  0  0  0  0  0  0  0  0  0  0
    9.4660    5.4930   21.7660 H   0  0  0  0  0  0  0  0  0  0  0  0
    8.7350    6.5740   22.8760 H   0  0  0  0  0  0  0  0  0  0  0  0
   13.3220    4.4900   23.1100 H   0  0  0  0  0  0  0  0  0  0  0  0
   14.1560    2.2240   22.6170 H   0  0  0  0  0  0  0  0  0  0  0  0
   13.5880   -0.4160   22.3310 H   0  0  0  0  0  0  0  0  0  0  0  0
   11.9940   -2.2230   22.1790 H   0  0  0  0  0  0  0  0  0  0  0  0
    8.7010   -2.1890   22.7440 H   0  0  0  0  0  0  0  0  0  0  0  0
    7.1320   -2.0180   21.0410 H   0  0  0  0  0  0  0  0  0  0  0  0
    4.8300    0.4880   21.4510 H   0  0  0  0  0  0  0  0  0  0  0  0
    3.7840    1.8620   19.4270 H   0  0  0  0  0  0  0  0  0  0  0  0
    4.8750    1.8030   17.2270 H   0  0  0  0  0  0  0  0  0  0  0  0
    7.9220   -0.7900   18.6260 H   0  0  0  0  0  0  0  0  0  0  0  0
    8.7570    0.6040   23.0860 H   0  0  0  0  0  0  0  0  0  0  0  0
    9.1210    2.9720   23.5290 H   0  0  0  0  0  0  0  0  0  0  0  0
  2  1  1  6
  2  3  2  0
  2  4  2  0
  2  5  1  0
  5  6  2  0
  6  7  1  0
  7  8  2  0
  8  9  1  0
  9 10  2  0
 10 11  1  0
 11 12  1  0
 12 13  1  0
 13 14  2  0
 13 15  1  0
 15 16  1  0
 16 17  2  0
 17 18  1  0
 18 19  2  0
 19 20  1  0
 16 21  1  0
 20 21  2  0
 11 22  2  0
  8 23  1  0
 22 23  1  0
  5 24  1  0
 23 24  2  0
  1 25  1  0
  1 26  1  0
  6 27  1  0
  7 28  1  0
  9 29  1  0
 10 30  1  0
 12 31  1  0
 15 32  1  0
 17 33  1  0
 18 34  1  0
 19 35  1  0
 21 36  1  0
 22 37  1  0
 24 38  1  0
M  END
