
     RDKit          3D

 53 56  0  0  0  0  0  0  0  0999 V2000
   22.5020   15.6850    8.0970 C   0  0  0  0  0  0  0  0  0  0  0  0
   21.7640   14.9720    7.0020 C   0  0  2  0  0  0  0  0  0  0  0  0
   21.1700   13.7220    7.4790 C   0  0  1  0  0  0  0  0  0  0  0  0
   19.7730   13.7350    7.1930 O   0  0  0  0  0  0  0  0  0  0  0  0
   21.7160   12.3300    7.0420 C   0  0  0  0  0  0  0  0  0  0  0  0
   22.7690   12.6380    6.0850 C   0  0  0  0  0  0  0  0  0  0  0  0
   22.9850   13.8440    5.5920 C   0  0  1  0  0  0  0  0  0  0  0  0
   24.4470   14.0180    5.7940 N   0  0  0  0  0  0  0  0  0  0  0  0
   25.0010   12.7720    5.1840 C   0  0  2  0  0  0  0  0  0  0  0  0
   26.3750   12.7940    4.8580 C   0  0  0  0  0  0  0  0  0  0  0  0
   26.8650   11.5920    4.0750 C   0  0  0  0  0  0  0  0  0  0  0  0
   25.8110   11.2190    3.0190 C   0  0  0  0  0  0  0  0  0  0  0  0
   24.7440   12.1160    2.9300 C   0  0  0  0  0  0  0  0  0  0  0  0
   24.0990   12.4420    4.1310 C   0  0  2  0  0  0  0  0  0  0  0  0
   23.2320   13.4850    4.2840 N   0  0  0  0  0  0  0  0  0  0  0  0
   22.5600   14.9190    5.6690 N   0  0  0  0  0  0  0  0  0  0  0  0
   23.2090   16.2140    5.3390 C   0  0  0  0  0  0  0  0  0  0  0  0
   22.4310   17.3940    5.2270 C   0  0  0  0  0  0  0  0  0  0  0  0
   21.8570   18.0340    6.3540 C   0  0  0  0  0  0  0  0  0  0  0  0
   21.0230   19.2960    6.1650 C   0  0  0  0  0  0  0  0  0  0  0  0
   20.8200   19.8230    4.8980 C   0  0  0  0  0  0  0  0  0  0  0  0
   21.3550   19.2420    3.7560 C   0  0  0  0  0  0  0  0  0  0  0  0
   22.1460   18.0690    3.8240 C   0  0  0  0  0  0  0  0  0  0  0  0
   22.6550   17.5320    2.6800 O   0  0  0  0  0  0  0  0  0  0  0  0
   21.8140   16.2380    8.7470 H   0  0  0  0  0  0  0  0  0  0  0  0
   23.0290   14.9500    8.7100 H   0  0  0  0  0  0  0  0  0  0  0  0
   23.2180   16.3840    7.6620 H   0  0  0  0  0  0  0  0  0  0  0  0
   20.9360   15.6260    6.7450 H   0  0  0  0  0  0  0  0  0  0  0  0
   21.1910   13.7330    8.5750 H   0  0  0  0  0  0  0  0  0  0  0  0
   19.3400   14.2450    7.9070 H   0  0  0  0  0  0  0  0  0  0  0  0
   20.9400   11.7460    6.5630 H   0  0  0  0  0  0  0  0  0  0  0  0
   22.0980   11.7450    7.8870 H   0  0  0  0  0  0  0  0  0  0  0  0
   21.8750   12.8290    5.4720 H   0  0  0  0  0  0  0  0  0  0  0  0
   23.1880   13.1550    6.9570 H   0  0  0  0  0  0  0  0  0  0  0  0
   24.6570   14.8160    5.1930 H   0  0  0  0  0  0  0  0  0  0  0  0
   24.9000   11.9950    5.9440 H   0  0  0  0  0  0  0  0  0  0  0  0
   26.6200   13.7220    4.3320 H   0  0  0  0  0  0  0  0  0  0  0  0
   26.9940   12.8790    5.7590 H   0  0  0  0  0  0  0  0  0  0  0  0
   27.8870   11.6450    3.7030 H   0  0  0  0  0  0  0  0  0  0  0  0
   26.9030   10.7340    4.7570 H   0  0  0  0  0  0  0  0  0  0  0  0
   26.3640   11.3080    2.0770 H   0  0  0  0  0  0  0  0  0  0  0  0
   25.5280   10.1680    3.0320 H   0  0  0  0  0  0  0  0  0  0  0  0
   25.0930   13.0420    2.4570 H   0  0  0  0  0  0  0  0  0  0  0  0
   23.9980   11.7160    2.2300 H   0  0  0  0  0  0  0  0  0  0  0  0
   23.5320   11.5950    4.5050 H   0  0  0  0  0  0  0  0  0  0  0  0
   22.3160   13.2260    3.8950 H   0  0  0  0  0  0  0  0  0  0  0  0
   23.7930   16.1080    4.4180 H   0  0  0  0  0  0  0  0  0  0  0  0
   23.9670   16.3710    6.1180 H   0  0  0  0  0  0  0  0  0  0  0  0
   22.0110   17.6230    7.3580 H   0  0  0  0  0  0  0  0  0  0  0  0
   20.6060   19.7450    7.0720 H   0  0  0  0  0  0  0  0  0  0  0  0
   20.2290   20.7270    4.7130 H   0  0  0  0  0  0  0  0  0  0  0  0
   21.2140   19.6320    2.7350 H   0  0  0  0  0  0  0  0  0  0  0  0
   22.2810   16.6320    2.5890 H   0  0  0  0  0  0  0  0  0  0  0  0
  1  2  1  0
  2  3  1  0
  3  4  1  0
  3  5  1  0
  5  6  1  0
  6  7  1  0
  7  8  1  1
  8  9  1  0
  9 10  1  0
 10 11  1  0
 11 12  1  0
 12 13  1  0
  9 14  1  0
 13 14  1  0
  7 15  1  0
 14 15  1  0
  2 16  1  0
  7 16  1  0
 16 17  1  0
 17 18  1  0
 18 19  2  0
 19 20  1  0
 20 21  2  0
 21 22  1  0
 18 23  1  0
 22 23  2  0
 23 24  1  0
  1 25  1  0
  1 26  1  0
  1 27  1  0
  2 28  1  6
  3 29  1  1
  4 30  1  0
  5 31  1  0
  5 32  1  0
  6 33  1  0
  6 34  1  0
  8 35  1  0
  9 36  1  1
 10 37  1  0
 10 38  1  0
 11 39  1  0
 11 40  1  0
 12 41  1  0
 12 42  1  0
 13 43  1  0
 13 44  1  0
 14 45  1  1
 15 46  1  0
 17 47  1  0
 17 48  1  0
 19 49  1  0
 20 50  1  0
 21 51  1  0
 22 52  1  0
 24 53  1  0
M  END
