LIG
     RDKit          3D

 64 67  0  0  0  0  0  0  0  0999 V2000
   13.9850   -1.7380   20.5810 N   0  0  0  0  0  0  0  0  0  0  0  0
   13.2800   -1.3010   21.3800 C   0  0  0  0  0  0  0  0  0  0  0  0
   12.4390   -0.7270   22.3590 C   0  0  0  0  0  0  0  0  0  0  0  0
   12.7690    0.5130   22.9150 C   0  0  0  0  0  0  0  0  0  0  0  0
   11.9170    1.0940   23.8520 C   0  0  0  0  0  0  0  0  0  0  0  0
   10.7560    0.4300   24.2400 C   0  0  0  0  0  0  0  0  0  0  0  0
    9.8330    1.0540   25.2470 C   0  0  0  0  0  0  0  0  0  0  0  0
    8.4500    0.7150   24.9220 N   0  0  0  0  0  0  0  0  0  0  0  0
    7.7030    1.4680   24.0150 C   0  0  0  0  0  0  0  0  0  0  0  0
    8.1720    2.4660   23.4420 O   0  0  0  0  0  0  0  0  0  0  0  0
    6.3360    0.9640   23.8050 N   0  0  0  0  0  0  0  0  0  0  0  0
    5.4800    0.8530   25.0320 C   0  0  0  0  0  0  0  0  0  0  0  0
    4.0500    0.3480   24.7320 C   0  0  0  0  0  0  0  0  0  0  0  0
    3.1835    1.2700   23.9295 O   0  0  0  0  0  3  0  0  0  0  0  0
    2.9270    2.3110   23.3520 C   0  0  0  0  0  0  0  0  0  0  0  0
    1.8460    3.2530   23.1370 N   0  0  0  0  0  0  0  0  0  0  0  0
    0.6480    3.2940   23.9490 C   0  0  0  0  0  0  0  0  0  0  0  0
   -0.5430    2.8790   23.0980 C   0  0  0  0  0  0  0  0  0  0  0  0
   -1.8960    3.2340   23.7250 C   0  0  0  0  0  0  0  0  0  0  0  0
   -1.9540    4.6680   24.2350 C   0  0  0  0  0  0  0  0  0  0  0  0
   -0.7860    4.9880   25.1580 C   0  0  0  0  0  0  0  0  0  0  0  0
    0.5370    4.7360   24.4510 C   0  0  0  0  0  0  0  0  0  0  0  0
    4.0700    2.4460   22.4650 N   0  0  0  0  0  0  0  0  0  0  0  0
    5.4095    1.6005   22.6240 C   0  0  0  0  0  0  0  0  0  0  0  0
    4.5510    0.6740   22.0875 C   0  0  0  0  0  0  0  0  0  0  0  0
    5.3070    0.4260   20.2540 C   0  0  0  0  0  0  0  0  0  0  0  0
    6.3790   -0.3430   19.7980 C   0  0  0  0  0  0  0  0  0  0  0  0
    6.7610   -0.2350   18.4680 C   0  0  0  0  0  0  0  0  0  0  0  0
    6.1220    0.5700   17.6490 N   0  0  0  0  0  0  0  0  0  0  0  0
    5.0860    1.3070   18.0550 C   0  0  0  0  0  0  0  0  0  0  0  0
    4.6350    1.2750   19.3710 C   0  0  0  0  0  0  0  0  0  0  0  0
   10.4420   -0.8190   23.6890 C   0  0  0  0  0  0  0  0  0  0  0  0
   11.2820   -1.3980   22.7460 C   0  0  0  0  0  0  0  0  0  0  0  0
   13.6826    1.0214   22.6268 H   0  0  0  0  0  0  0  0  0  0  0  0
   12.1780    2.0603   24.2781 H   0  0  0  0  0  0  0  0  0  0  0  0
    9.9290    2.1435   25.2469 H   0  0  0  0  0  0  0  0  0  0  0  0
   10.0585    0.7043   26.2584 H   0  0  0  0  0  0  0  0  0  0  0  0
    8.3048   -0.2905   24.8013 H   0  0  0  0  0  0  0  0  0  0  0  0
    5.9969    0.1944   25.7470 H   0  0  0  0  0  0  0  0  0  0  0  0
    5.4062    1.8318   25.5255 H   0  0  0  0  0  0  0  0  0  0  0  0
    3.4969    0.1205   25.6324 H   0  0  0  0  0  0  0  0  0  0  0  0
    4.1085   -0.5477   24.1250 H   0  0  0  0  0  0  0  0  0  0  0  0
    2.1234    4.0941   22.6592 H   0  0  0  0  0  0  0  0  0  0  0  0
    0.7759    2.6288   24.7735 H   0  0  0  0  0  0  0  0  0  0  0  0
   -0.5166    1.7938   22.8906 H   0  0  0  0  0  0  0  0  0  0  0  0
   -0.4709    3.3591   22.1039 H   0  0  0  0  0  0  0  0  0  0  0  0
   -2.1064    2.5533   24.5560 H   0  0  0  0  0  0  0  0  0  0  0  0
   -2.6800    3.0667   22.9797 H   0  0  0  0  0  0  0  0  0  0  0  0
   -2.8931    4.8254   24.7808 H   0  0  0  0  0  0  0  0  0  0  0  0
   -1.9683    5.3628   23.3875 H   0  0  0  0  0  0  0  0  0  0  0  0
   -0.8472    6.0360   25.4605 H   0  0  0  0  0  0  0  0  0  0  0  0
   -0.8445    4.3856   26.0658 H   0  0  0  0  0  0  0  0  0  0  0  0
    0.6357    5.4480   23.6291 H   0  0  0  0  0  0  0  0  0  0  0  0
    1.3657    4.9354   25.1345 H   0  0  0  0  0  0  0  0  0  0  0  0
    4.2430    3.3806   22.2514 H   0  0  0  0  0  0  0  0  0  0  0  0
    6.0223    1.9796   21.7917 H   0  0  0  0  0  0  0  0  0  0  0  0
    4.5931   -0.3634   22.3164 H   0  0  0  0  0  0  0  0  0  0  0  0
    3.5865    0.9521   21.7581 H   0  0  0  0  0  0  0  0  0  0  0  0
    6.9106   -1.0324   20.4501 H   0  0  0  0  0  0  0  0  0  0  0  0
    7.5800   -0.8009   18.0687 H   0  0  0  0  0  0  0  0  0  0  0  0
    4.6164    1.9270   17.3107 H   0  0  0  0  0  0  0  0  0  0  0  0
    3.7963    1.8796   19.6654 H   0  0  0  0  0  0  0  0  0  0  0  0
    9.5453   -1.3500   24.0033 H   0  0  0  0  0  0  0  0  0  0  0  0
   11.0344   -2.3659   22.3233 H   0  0  0  0  0  0  0  0  0  0  0  0
  1  2  3  0
  2  3  1  0
  3  4  4  0
  4  5  4  0
  5  6  4  0
  6  7  1  0
  7  8  1  0
  8  9  1  0
  9 10  2  0
  9 11  1  0
 11 12  1  0
 12 13  1  0
 13 14  1  0
 14 15  2  0
 15 16  1  0
 16 17  1  0
 17 18  1  0
 18 19  1  0
 19 20  1  0
 20 21  1  0
 21 22  1  0
 15 23  1  0
 23 24  1  0
 24 25  1  0
 25 26  1  0
 26 27  4  0
 27 28  4  0
 28 29  4  0
 29 30  4  0
 30 31  4  0
  6 32  4  0
 32 33  4  0
 33  3  4  0
 24 11  1  0
 31 26  4  0
 22 17  1  0
  4 34  1  0
  5 35  1  0
  7 36  1  0
  7 37  1  0
  8 38  1  0
 12 39  1  0
 12 40  1  0
 13 41  1  0
 13 42  1  0
 16 43  1  0
 17 44  1  0
 18 45  1  0
 18 46  1  0
 19 47  1  0
 19 48  1  0
 20 49  1  0
 20 50  1  0
 21 51  1  0
 21 52  1  0
 22 53  1  0
 22 54  1  0
 23 55  1  0
 24 56  1  0
 25 57  1  0
 25 58  1  0
 27 59  1  0
 28 60  1  0
 30 61  1  0
 31 62  1  0
 32 63  1  0
 33 64  1  0
M  CHG  1  14   1
M  END
