
     RDKit          3D

 62 65  0  0  0  0  0  0  0  0999 V2000
   13.3040   -1.9650   24.1040 C   0  0  0  0  0  0  0  0  0  0  0  0
   12.0580   -1.2970   23.7980 N   0  0  0  0  0  0  0  0  0  0  0  0
   11.1780   -2.1810   23.0200 C   0  0  0  0  0  0  0  0  0  0  0  0
    9.9390   -1.5580   22.8170 C   0  0  0  0  0  0  0  0  0  0  0  0
   10.0480   -0.3530   22.2060 N   0  0  0  0  0  0  0  0  0  0  0  0
    8.9140    0.1690   21.4610 C   0  0  0  0  0  0  0  0  0  0  0  0
    8.7880    1.5560   21.1740 O   0  0  0  0  0  0  0  0  0  0  0  0
    7.9540   -0.8670   21.0110 C   0  0  0  0  0  0  0  0  0  0  0  0
    7.1640   -0.4410   19.9900 C   0  0  0  0  0  0  0  0  0  0  0  0
    7.3630   -0.9200   18.5870 C   0  0  0  0  0  0  0  0  0  0  0  0
    6.3210   -0.1990   17.7770 N   0  0  0  0  0  0  0  0  0  0  0  0
    5.5580    0.6560   18.7210 C   0  0  0  0  0  0  0  0  0  0  0  0
    4.4970    1.5700   18.7230 N   0  0  0  0  0  0  0  0  0  0  0  0
    4.1580    2.1430   20.0340 C   0  0  0  0  0  0  0  0  0  0  0  0
    4.8460    1.8610   21.4580 C   0  0  0  0  0  0  0  0  0  0  0  0
    4.0370    2.7100   22.1370 C   0  0  0  0  0  0  0  0  0  0  0  0
    3.8120    2.5870   23.4510 N   0  0  0  0  0  0  0  0  0  0  0  0
    2.5190    2.5110   23.7870 C   0  0  0  0  0  0  0  0  0  0  0  0
    1.9690    1.5720   24.7050 O   0  0  0  0  0  0  0  0  0  0  0  0
    1.8050    3.4690   23.1070 N   0  0  0  0  0  0  0  0  0  0  0  0
    0.4630    3.9370   23.4510 C   0  0  2  0  0  0  0  0  0  0  0  0
    0.4830    4.5680   24.6870 C   0  0  0  0  0  0  0  0  0  0  0  0
   -0.7800    4.9720   25.1860 C   0  0  0  0  0  0  0  0  0  0  0  0
   -1.9160    4.4950   24.2680 C   0  0  0  0  0  0  0  0  0  0  0  0
   -1.7710    3.2070   23.7590 C   0  0  0  0  0  0  0  0  0  0  0  0
   -0.4630    2.8910   23.4090 C   0  0  0  0  0  0  0  0  0  0  0  0
    5.1610    1.3500   20.3650 C   0  0  0  0  0  0  0  0  0  0  0  0
    6.1010    0.4430   19.8930 C   0  0  0  0  0  0  0  0  0  0  0  0
   10.8820    0.5740   22.9100 C   0  0  0  0  0  0  0  0  0  0  0  0
   12.2590    0.0570   23.1420 C   0  0  0  0  0  0  0  0  0  0  0  0
   13.1320   -3.0370   24.2260 H   0  0  0  0  0  0  0  0  0  0  0  0
   14.0190   -1.8410   23.2960 H   0  0  0  0  0  0  0  0  0  0  0  0
   13.7120   -1.5810   25.0360 H   0  0  0  0  0  0  0  0  0  0  0  0
   11.0130   -3.1190   23.5630 H   0  0  0  0  0  0  0  0  0  0  0  0
   11.6390   -2.4110   22.0520 H   0  0  0  0  0  0  0  0  0  0  0  0
    9.4470   -1.4060   23.7850 H   0  0  0  0  0  0  0  0  0  0  0  0
    9.2800   -2.2260   22.2490 H   0  0  0  0  0  0  0  0  0  0  0  0
    7.4390   -1.3810   21.8210 H   0  0  0  0  0  0  0  0  0  0  0  0
    8.5650   -1.6600   20.5770 H   0  0  0  0  0  0  0  0  0  0  0  0
    8.0960   -1.6250   18.2110 H   0  0  0  0  0  0  0  0  0  0  0  0
    6.1330   -0.2390   16.7890 H   0  0  0  0  0  0  0  0  0  0  0  0
    3.3320    2.8640   20.0810 H   0  0  0  0  0  0  0  0  0  0  0  0
    3.0300    2.6890   21.7200 H   0  0  0  0  0  0  0  0  0  0  0  0
    4.4290    3.7240   22.0320 H   0  0  0  0  0  0  0  0  0  0  0  0
    4.3960    3.1420   24.0650 H   0  0  0  0  0  0  0  0  0  0  0  0
    2.1830    3.7700   22.2260 H   0  0  0  0  0  0  0  0  0  0  0  0
    0.1920    4.5790   22.6110 H   0  0  0  0  0  0  0  0  0  0  0  0
    1.2840    5.3160   24.6770 H   0  0  0  0  0  0  0  0  0  0  0  0
    0.8620    3.8260   25.4030 H   0  0  0  0  0  0  0  0  0  0  0  0
   -0.8130    6.0640   25.2170 H   0  0  0  0  0  0  0  0  0  0  0  0
   -1.0500    4.6640   26.2020 H   0  0  0  0  0  0  0  0  0  0  0  0
   -2.7970    4.4440   24.9190 H   0  0  0  0  0  0  0  0  0  0  0  0
   -2.2230    5.1950   23.5000 H   0  0  0  0  0  0  0  0  0  0  0  0
   -2.5190    2.9540   23.0150 H   0  0  0  0  0  0  0  0  0  0  0  0
   -2.0170    2.5310   24.5840 H   0  0  0  0  0  0  0  0  0  0  0  0
   -0.4530    2.4380   22.4160 H   0  0  0  0  0  0  0  0  0  0  0  0
   -0.1390    2.1120   24.1050 H   0  0  0  0  0  0  0  0  0  0  0  0
    4.5350    1.7100   19.5600 H   0  0  0  0  0  0  0  0  0  0  0  0
   10.8940    1.5500   22.4170 H   0  0  0  0  0  0  0  0  0  0  0  0
   10.3430    0.6940   23.8340 H   0  0  0  0  0  0  0  0  0  0  0  0
   12.8050   -0.1000   22.2040 H   0  0  0  0  0  0  0  0  0  0  0  0
   12.8400    0.7550   23.7520 H   0  0  0  0  0  0  0  0  0  0  0  0
  1  2  1  0
  2  3  1  0
  3  4  1  0
  4  5  1  0
  5  6  1  0
  6  7  2  0
  6  8  1  0
  8  9  1  0
  9 10  2  0
 10 11  1  0
 11 12  1  0
 12 13  1  0
 13 14  2  0
 14 15  1  0
 15 16  1  0
 16 17  1  0
 17 18  1  0
 18 19  2  0
 18 20  1  0
 20 21  1  0
 21 22  1  0
 22 23  1  0
 23 24  1  0
 24 25  1  0
 21 26  1  0
 25 26  1  0
 15 27  2  0
  9 28  1  0
 12 28  2  0
 27 28  1  0
  5 29  1  0
  2 30  1  0
 29 30  1  0
  1 31  1  0
  1 32  1  0
  1 33  1  0
  3 34  1  0
  3 35  1  0
  4 36  1  0
  4 37  1  0
  8 38  1  0
  8 39  1  0
 10 40  1  0
 11 41  1  0
 14 42  1  0
 16 43  1  0
 16 44  1  0
 17 45  1  0
 20 46  1  0
 21 47  1  6
 22 48  1  0
 22 49  1  0
 23 50  1  0
 23 51  1  0
 24 52  1  0
 24 53  1  0
 25 54  1  0
 25 55  1  0
 26 56  1  0
 26 57  1  0
 27 58  1  0
 29 59  1  0
 29 60  1  0
 30 61  1  0
 30 62  1  0
M  END
