LIG
     RDKit          3D

 57 58  0  0  0  0  0  0  0  0999 V2000
    7.6470    4.9230   22.5630 C   0  0  0  0  0  0  0  0  0  0  0  0
    7.2040    3.5440   22.9320 C   0  0  0  0  0  0  0  0  0  0  0  0
    6.2270    3.3360   23.6430 O   0  0  0  0  0  0  0  0  0  0  0  0
    7.9040    2.5380   22.4150 N   0  0  0  0  0  0  0  0  0  0  0  0
    7.7770    1.1690   22.8930 C   0  0  2  0  0  0  0  0  0  0  0  0
    8.9700    0.4030   22.3370 C   0  0  0  0  0  0  0  0  0  0  0  0
    9.8170    0.9750   21.6560 O   0  0  0  0  0  0  0  0  0  0  0  0
    9.0130   -0.8970   22.6070 N   0  0  0  0  0  0  0  0  0  0  0  0
    9.9110   -1.7790   21.8910 C   0  0  0  0  0  0  0  0  0  0  0  0
   11.2900   -1.5690   22.3350 C   0  0  0  0  0  0  0  0  0  0  0  0
   12.4300   -1.6070   22.7390 C   0  0  0  0  0  0  0  0  0  0  0  0
   14.1250   -1.9140   23.6280 Br  0  0  0  0  0  0  0  0  0  0  0  0
    5.8260    1.0385   22.5105 C   0  0  0  0  0  0  0  0  0  0  0  0
    4.0700    2.4460   22.4650 N   0  0  0  0  0  0  0  0  0  0  0  0
    2.9270    2.3110   23.3520 C   0  0  0  0  0  0  0  0  0  0  0  0
    2.8920    1.4710   24.2020 O   0  0  0  0  0  0  0  0  0  0  0  0
    1.8460    3.2530   23.1370 N   0  0  0  0  0  0  0  0  0  0  0  0
    0.6480    3.2940   23.9490 C   0  0  0  0  0  0  0  0  0  0  0  0
    0.5370    4.7360   24.4510 C   0  0  0  0  0  0  0  0  0  0  0  0
   -0.7860    4.9880   25.1580 C   0  0  0  0  0  0  0  0  0  0  0  0
   -1.9540    4.6680   24.2350 C   0  0  0  0  0  0  0  0  0  0  0  0
   -1.8960    3.2340   23.7250 C   0  0  0  0  0  0  0  0  0  0  0  0
   -0.5430    2.8790   23.0980 C   0  0  0  0  0  0  0  0  0  0  0  0
    5.5460    0.4465   21.3510 C   0  0  0  0  0  0  0  0  0  0  0  0
    6.6380   -0.3040   19.9610 C   0  0  0  0  0  0  0  0  0  0  0  0
    6.7375   -0.2190   18.6120 C   0  0  0  0  0  0  0  0  0  0  0  0
    5.9735    0.6395   17.9375 C   0  0  0  0  0  0  0  0  0  0  0  0
    5.3800    1.0380   17.4685 O   0  0  0  0  0  0  0  0  0  0  0  0
    4.8810    1.4200   19.2165 C   0  0  0  0  0  0  0  0  0  0  0  0
    5.3165    0.9590   20.3420 C   0  0  0  0  0  0  0  0  0  0  0  0
    6.8905    5.3932   21.9259 H   0  0  0  0  0  0  0  0  0  0  0  0
    7.7351    4.9994   21.4751 H   0  0  0  0  0  0  0  0  0  0  0  0
    8.5901    4.8968   22.0071 H   0  0  0  0  0  0  0  0  0  0  0  0
    8.4650    2.6619   21.5637 H   0  0  0  0  0  0  0  0  0  0  0  0
    7.7560    1.3182   23.9895 H   0  0  0  0  0  0  0  0  0  0  0  0
    8.5609   -1.2821   23.4320 H   0  0  0  0  0  0  0  0  0  0  0  0
    9.8022   -1.5603   20.8203 H   0  0  0  0  0  0  0  0  0  0  0  0
    9.6008   -2.8211   22.0497 H   0  0  0  0  0  0  0  0  0  0  0  0
    6.2236    2.1993   21.2770 H   0  0  0  0  0  0  0  0  0  0  0  0
    4.0892    2.6080   21.5273 H   0  0  0  0  0  0  0  0  0  0  0  0
    1.8228    3.6371   22.2016 H   0  0  0  0  0  0  0  0  0  0  0  0
    0.5470    4.4249   22.5091 H   0  0  0  0  0  0  0  0  0  0  0  0
    0.6407    5.4388   23.6142 H   0  0  0  0  0  0  0  0  0  0  0  0
    1.3659    4.9533   25.1394 H   0  0  0  0  0  0  0  0  0  0  0  0
   -0.8478    4.3741   26.0584 H   0  0  0  0  0  0  0  0  0  0  0  0
   -0.8417    6.0343   25.4689 H   0  0  0  0  0  0  0  0  0  0  0  0
   -2.8992    4.8263   24.7728 H   0  0  0  0  0  0  0  0  0  0  0  0
   -1.9542    5.3626   23.3851 H   0  0  0  0  0  0  0  0  0  0  0  0
   -2.6913    3.0777   22.9778 H   0  0  0  0  0  0  0  0  0  0  0  0
   -2.1088    2.5373   24.5509 H   0  0  0  0  0  0  0  0  0  0  0  0
   -0.4766    3.3475   22.0988 H   0  0  0  0  0  0  0  0  0  0  0  0
   -0.5136    1.7886   22.9094 H   0  0  0  0  0  0  0  0  0  0  0  0
    7.3504   -0.9976   20.5838 H   0  0  0  0  0  0  0  0  0  0  0  0
    7.4616   -0.8754   18.0926 H   0  0  0  0  0  0  0  0  0  0  0  0
    4.6188    0.4883   16.9354 H   0  0  0  0  0  0  0  0  0  0  0  0
    4.2460    1.9860   18.7921 H   0  0  0  0  0  0  0  0  0  0  0  0
    6.5570    1.7747   20.2651 H   0  0  0  0  0  0  0  0  0  0  0  0
  1  2  1  0
  2  3  2  0
  2  4  1  0
  4  5  1  0
  5  6  1  0
  6  7  2  0
  6  8  1  0
  8  9  1  0
  9 10  1  0
 10 11  3  0
 11 12  1  0
  5 13  1  0
 13 14  1  0
 14 15  1  0
 15 16  2  0
 15 17  1  0
 17 18  1  0
 18 19  1  0
 19 20  1  0
 20 21  1  0
 21 22  1  0
 22 23  1  0
 13 24  1  0
 24 25  4  0
 25 26  4  0
 26 27  4  0
 27 28  1  0
 27 29  4  0
 29 30  4  0
 23 18  1  0
 30 24  4  0
  1 31  1  0
  1 32  1  0
  1 33  1  0
  4 34  1  0
  5 35  1  1
  8 36  1  0
  9 37  1  0
  9 38  1  0
 13 39  1  0
 14 40  1  0
 17 41  1  0
 18 42  1  0
 19 43  1  0
 19 44  1  0
 20 45  1  0
 20 46  1  0
 21 47  1  0
 21 48  1  0
 22 49  1  0
 22 50  1  0
 23 51  1  0
 23 52  1  0
 25 53  1  0
 26 54  1  0
 28 55  1  0
 29 56  1  0
 30 57  1  0
M  END
