LIG
     RDKit          3D

 63 66  0  0  0  0  0  0  0  0999 V2000
    9.4190    1.1020   21.0000 O   0  0  0  0  0  0  0  0  0  0  0  0
    8.8650    0.3120   21.6960 C   0  0  0  0  0  0  0  0  0  0  0  0
    9.4090   -0.1550   23.0330 C   0  0  0  0  0  0  0  0  0  0  0  0
   10.9230   -0.0800   23.0900 C   0  0  0  0  0  0  0  0  0  0  0  0
   11.2810   -0.4020   24.5270 C   0  0  0  0  0  0  0  0  0  0  0  0
   12.7710   -0.1530   24.6900 C   0  0  0  0  0  0  0  0  0  0  0  0
   13.6100   -0.8590   23.6290 C   0  0  0  0  0  0  0  0  0  0  0  0
   12.8180   -1.7130   22.6470 C   0  0  0  0  0  0  0  0  0  0  0  0
   11.5620   -1.0470   22.0960 C   0  0  0  0  0  0  0  0  0  0  0  0
    7.6120   -0.2560   21.3260 N   0  0  0  0  0  0  0  0  0  0  0  0
    6.6895   -0.0860   19.9535 C   0  0  0  0  0  0  0  0  0  0  0  0
    7.6260    0.0260   18.8870 C   0  0  0  0  0  0  0  0  0  0  0  0
    6.8805    0.1095   18.1410 C   0  0  0  0  0  0  0  0  0  0  0  0
    5.9635    0.7970   17.7630 N   0  0  0  0  0  0  0  0  0  0  0  0
    5.3093    1.5213   18.6677 C   0  0  0  0  0  0  0  0  0  0  0  0
    5.6083    1.4923   20.1237 C   0  0  0  0  0  0  0  0  0  0  0  0
    5.5315    0.5995   20.2515 C   0  0  0  0  0  0  0  0  0  0  0  0
    4.8810    0.3160   21.7180 C   0  0  0  0  0  0  0  0  0  0  0  0
    5.2050    1.5540   22.5490 C   0  0  0  0  0  0  0  0  0  0  0  0
    4.0700    2.4460   22.4650 N   0  0  0  0  0  0  0  0  0  0  0  0
    2.9270    2.3110   23.3520 C   0  0  0  0  0  0  0  0  0  0  0  0
    2.8920    1.4710   24.2020 O   0  0  0  0  0  0  0  0  0  0  0  0
    1.8460    3.2530   23.1370 N   0  0  0  0  0  0  0  0  0  0  0  0
    0.6480    3.2940   23.9490 C   0  0  0  0  0  0  0  0  0  0  0  0
    0.5370    4.7360   24.4510 C   0  0  0  0  0  0  0  0  0  0  0  0
   -0.7860    4.9880   25.1580 C   0  0  0  0  0  0  0  0  0  0  0  0
   -1.9540    4.6680   24.2350 C   0  0  0  0  0  0  0  0  0  0  0  0
   -1.8960    3.2340   23.7250 C   0  0  0  0  0  0  0  0  0  0  0  0
   -0.5430    2.8790   23.0980 C   0  0  0  0  0  0  0  0  0  0  0  0
    8.9607    0.4509   23.8228 H   0  0  0  0  0  0  0  0  0  0  0  0
    9.0802   -1.1896   23.1594 H   0  0  0  0  0  0  0  0  0  0  0  0
   11.2345    0.9280   22.8918 H   0  0  0  0  0  0  0  0  0  0  0  0
   10.7468    0.2628   25.1910 H   0  0  0  0  0  0  0  0  0  0  0  0
   11.0458   -1.4179   24.7919 H   0  0  0  0  0  0  0  0  0  0  0  0
   12.9802    0.9275   24.6613 H   0  0  0  0  0  0  0  0  0  0  0  0
   13.0858   -0.4905   25.6908 H   0  0  0  0  0  0  0  0  0  0  0  0
   14.3673   -1.4816   24.1383 H   0  0  0  0  0  0  0  0  0  0  0  0
   14.1892   -0.1142   23.0555 H   0  0  0  0  0  0  0  0  0  0  0  0
   12.5553   -2.6780   23.1282 H   0  0  0  0  0  0  0  0  0  0  0  0
   13.4745   -1.9940   21.7976 H   0  0  0  0  0  0  0  0  0  0  0  0
   11.8084   -0.5070   21.1670 H   0  0  0  0  0  0  0  0  0  0  0  0
   10.8471   -1.8346   21.8027 H   0  0  0  0  0  0  0  0  0  0  0  0
    7.0605   -0.7680   22.0366 H   0  0  0  0  0  0  0  0  0  0  0  0
    8.6243   -0.6958   18.7272 H   0  0  0  0  0  0  0  0  0  0  0  0
    4.4733    2.1820   18.3813 H   0  0  0  0  0  0  0  0  0  0  0  0
    4.9562    2.0529   20.7745 H   0  0  0  0  0  0  0  0  0  0  0  0
    5.3969   -0.4979   22.1012 H   0  0  0  0  0  0  0  0  0  0  0  0
    3.8663    0.1975   21.5688 H   0  0  0  0  0  0  0  0  0  0  0  0
    6.0660    2.0676   22.1672 H   0  0  0  0  0  0  0  0  0  0  0  0
    5.3570    1.2770   23.5756 H   0  0  0  0  0  0  0  0  0  0  0  0
    4.2527    3.4300   22.2953 H   0  0  0  0  0  0  0  0  0  0  0  0
    1.7694    3.4884   22.1447 H   0  0  0  0  0  0  0  0  0  0  0  0
    0.7833    2.6219   24.7800 H   0  0  0  0  0  0  0  0  0  0  0  0
    0.6360    5.4308   23.6051 H   0  0  0  0  0  0  0  0  0  0  0  0
    1.3620    4.9693   25.1364 H   0  0  0  0  0  0  0  0  0  0  0  0
   -0.8457    6.0305   25.4760 H   0  0  0  0  0  0  0  0  0  0  0  0
   -0.8473    4.3655   26.0550 H   0  0  0  0  0  0  0  0  0  0  0  0
   -2.8999    4.8338   24.7664 H   0  0  0  0  0  0  0  0  0  0  0  0
   -1.9452    5.3596   23.3807 H   0  0  0  0  0  0  0  0  0  0  0  0
   -2.1024    2.5399   24.5567 H   0  0  0  0  0  0  0  0  0  0  0  0
   -2.6944    3.0726   22.9829 H   0  0  0  0  0  0  0  0  0  0  0  0
   -0.4803    3.3485   22.0956 H   0  0  0  0  0  0  0  0  0  0  0  0
   -0.5122    1.7885   22.9104 H   0  0  0  0  0  0  0  0  0  0  0  0
  1  2  2  0
  2  3  1  0
  3  4  1  0
  4  5  1  0
  5  6  1  0
  6  7  1  0
  7  8  1  0
  8  9  1  0
  2 10  1  0
 10 11  1  0
 11 12  1  0
 12 13  2  0
 13 14  1  0
 14 15  2  0
 15 16  1  0
 16 17  2  0
 17 18  1  0
 18 19  1  0
 19 20  1  0
 20 21  1  0
 21 22  2  0
 21 23  1  0
 23 24  1  0
 24 25  1  0
 25 26  1  0
 26 27  1  0
 27 28  1  0
 28 29  1  0
  9  4  1  0
 13 11  1  0
 29 24  1  0
 17 11  1  0
  3 30  1  0
  3 31  1  0
  4 32  1  0
  5 33  1  0
  5 34  1  0
  6 35  1  0
  6 36  1  0
  7 37  1  0
  7 38  1  0
  8 39  1  0
  8 40  1  0
  9 41  1  0
  9 42  1  0
 10 43  1  0
 12 44  1  0
 15 45  1  0
 16 46  1  0
 18 47  1  0
 18 48  1  0
 19 49  1  0
 19 50  1  0
 20 51  1  0
 23 52  1  0
 24 53  1  0
 25 54  1  0
 25 55  1  0
 26 56  1  0
 26 57  1  0
 27 58  1  0
 27 59  1  0
 28 60  1  0
 28 61  1  0
 29 62  1  0
 29 63  1  0
M  END
