
     RDKit          3D

 64 67  0  0  0  0  0  0  0  0999 V2000
   13.5540   -2.2300   20.7910 N   0  0  0  0  0  0  0  0  0  0  0  0
   13.0040   -1.6600   21.5840 C   0  0  0  0  0  0  0  0  0  0  0  0
   12.1520   -0.9120   22.5090 C   0  0  0  0  0  0  0  0  0  0  0  0
   12.4980    0.3880   22.8800 C   0  0  0  0  0  0  0  0  0  0  0  0
   11.5800    1.1510   23.8130 C   0  0  0  0  0  0  0  0  0  0  0  0
   10.3570    0.4140   24.2720 C   0  0  0  0  0  0  0  0  0  0  0  0
    9.4120    0.9430   25.1110 C   0  0  0  0  0  0  0  0  0  0  0  0
    8.1940    0.4320   24.7750 N   0  0  0  0  0  0  0  0  0  0  0  0
    7.3930    1.3050   24.0540 C   0  0  0  0  0  0  0  0  0  0  0  0
    7.7430    2.3870   23.5880 O   0  0  0  0  0  0  0  0  0  0  0  0
    5.9450    0.8960   23.8090 N   0  0  0  0  0  0  0  0  0  0  0  0
    5.0040    0.9880   24.9670 C   0  0  0  0  0  0  0  0  0  0  0  0
    3.6190    0.4260   24.7530 C   0  0  0  0  0  0  0  0  0  0  0  0
    2.6760    1.1900   24.5090 O   0  0  0  0  0  0  0  0  0  0  0  0
    2.9820    2.2690   23.5990 C   0  0  0  0  0  0  0  0  0  0  0  0
    2.0010    3.1980   23.2410 N   0  0  0  0  0  0  0  0  0  0  0  0
    0.7930    3.2560   23.8180 C   0  0  2  0  0  0  0  0  0  0  0  0
   -0.3620    2.9040   23.1040 C   0  0  0  0  0  0  0  0  0  0  0  0
   -1.5610    3.1740   23.7770 C   0  0  0  0  0  0  0  0  0  0  0  0
   -1.6700    4.5090   24.1500 C   0  0  0  0  0  0  0  0  0  0  0  0
   -0.6520    4.9500   25.0170 C   0  0  0  0  0  0  0  0  0  0  0  0
    0.6960    4.5090   24.4350 C   0  0  0  0  0  0  0  0  0  0  0  0
    4.1940    2.4810   23.0270 N   0  0  0  0  0  0  0  0  0  0  0  0
    5.2070    1.4910   22.6120 C   0  0  2  0  0  0  0  0  0  0  0  0
    4.5490    0.6260   21.7270 C   0  0  0  0  0  0  0  0  0  0  0  0
    5.0940    0.5650   20.4370 C   0  0  0  0  0  0  0  0  0  0  0  0
    6.2600   -0.3750   20.1570 C   0  0  0  0  0  0  0  0  0  0  0  0
    6.7520   -0.3340   18.7000 C   0  0  0  0  0  0  0  0  0  0  0  0
    6.2050    0.4560   17.7560 N   0  0  0  0  0  0  0  0  0  0  0  0
    5.1770    1.2660   18.0670 C   0  0  0  0  0  0  0  0  0  0  0  0
    4.5780    1.3560   19.4070 C   0  0  0  0  0  0  0  0  0  0  0  0
   10.1360   -0.8890   23.8340 C   0  0  0  0  0  0  0  0  0  0  0  0
   11.0090   -1.5370   22.9720 C   0  0  0  0  0  0  0  0  0  0  0  0
   13.4040    0.8560   22.5060 H   0  0  0  0  0  0  0  0  0  0  0  0
   11.8060    2.1650   24.1190 H   0  0  0  0  0  0  0  0  0  0  0  0
    9.3730    2.0370   25.0390 H   0  0  0  0  0  0  0  0  0  0  0  0
    9.6310    0.6950   26.1500 H   0  0  0  0  0  0  0  0  0  0  0  0
    7.7000   -0.0530   25.5140 H   0  0  0  0  0  0  0  0  0  0  0  0
    5.4450    0.4160   25.7910 H   0  0  0  0  0  0  0  0  0  0  0  0
    5.0860    2.0270   25.2710 H   0  0  0  0  0  0  0  0  0  0  0  0
    3.3330   -0.1600   25.6370 H   0  0  0  0  0  0  0  0  0  0  0  0
    3.6760   -0.3190   23.9470 H   0  0  0  0  0  0  0  0  0  0  0  0
    2.3040    4.0430   22.7610 H   0  0  0  0  0  0  0  0  0  0  0  0
    0.8760    2.5530   24.6510 H   0  0  0  0  0  0  0  0  0  0  0  0
   -0.3280    1.8810   22.7420 H   0  0  0  0  0  0  0  0  0  0  0  0
   -0.2590    3.4520   22.1700 H   0  0  0  0  0  0  0  0  0  0  0  0
   -1.6780    2.4980   24.6190 H   0  0  0  0  0  0  0  0  0  0  0  0
   -2.4180    2.8610   23.1850 H   0  0  0  0  0  0  0  0  0  0  0  0
   -2.5640    4.7070   24.7340 H   0  0  0  0  0  0  0  0  0  0  0  0
   -1.8330    5.0640   23.2190 H   0  0  0  0  0  0  0  0  0  0  0  0
   -0.5250    5.9740   25.3380 H   0  0  0  0  0  0  0  0  0  0  0  0
   -0.8040    4.4320   25.9720 H   0  0  0  0  0  0  0  0  0  0  0  0
    0.9950    5.2560   23.6900 H   0  0  0  0  0  0  0  0  0  0  0  0
    1.4430    4.5830   25.2270 H   0  0  0  0  0  0  0  0  0  0  0  0
    4.6130    3.3290   23.3870 H   0  0  0  0  0  0  0  0  0  0  0  0
    5.9410    2.0770   22.0440 H   0  0  0  0  0  0  0  0  0  0  0  0
    4.6160   -0.3860   22.1470 H   0  0  0  0  0  0  0  0  0  0  0  0
    3.4810    0.7690   21.5940 H   0  0  0  0  0  0  0  0  0  0  0  0
    6.7160   -1.0220   20.8970 H   0  0  0  0  0  0  0  0  0  0  0  0
    7.5710   -0.9380   18.3350 H   0  0  0  0  0  0  0  0  0  0  0  0
    4.8000    1.8710   17.2450 H   0  0  0  0  0  0  0  0  0  0  0  0
    3.7470    2.0340   19.5710 H   0  0  0  0  0  0  0  0  0  0  0  0
    9.2520   -1.4300   24.1670 H   0  0  0  0  0  0  0  0  0  0  0  0
   10.7820   -2.5580   22.6560 H   0  0  0  0  0  0  0  0  0  0  0  0
  1  2  3  0
  2  3  1  0
  3  4  2  0
  4  5  1  0
  5  6  2  0
  6  7  1  0
  7  8  1  0
  8  9  1  0
  9 10  2  0
  9 11  1  0
 11 12  1  0
 12 13  1  0
 13 14  1  0
 14 15  2  0
 15 16  1  0
 16 17  1  0
 17 18  1  0
 18 19  1  0
 19 20  1  0
 20 21  1  0
 17 22  1  0
 21 22  1  0
 15 23  1  0
 11 24  1  0
 23 24  1  0
 24 25  1  0
 25 26  1  0
 26 27  2  0
 27 28  1  0
 28 29  2  0
 29 30  1  0
 26 31  1  0
 30 31  2  0
  6 32  1  0
  3 33  1  0
 32 33  2  0
  4 34  1  0
  5 35  1  0
  7 36  1  0
  7 37  1  0
  8 38  1  0
 12 39  1  0
 12 40  1  0
 13 41  1  0
 13 42  1  0
 16 43  1  0
 17 44  1  1
 18 45  1  0
 18 46  1  0
 19 47  1  0
 19 48  1  0
 20 49  1  0
 20 50  1  0
 21 51  1  0
 21 52  1  0
 22 53  1  0
 22 54  1  0
 23 55  1  0
 24 56  1  6
 25 57  1  0
 25 58  1  0
 27 59  1  0
 28 60  1  0
 30 61  1  0
 31 62  1  0
 32 63  1  0
 33 64  1  0
M  CHG  1  14   1
M  END
