
     RDKit          3D

 55 57  0  0  0  0  0  0  0  0999 V2000
    8.8390    1.1370   21.1730 O   0  0  0  0  0  0  0  0  0  0  0  0
    8.3520   -0.1700   21.5320 C   0  0  0  0  0  0  0  0  0  0  0  0
    9.0280   -0.9290   22.5770 N   0  0  0  0  0  0  0  0  0  0  0  0
   10.4510   -0.5960   22.6380 C   0  0  0  0  0  0  0  0  0  0  0  0
   10.6460    0.7420   22.9010 C   0  0  0  0  0  0  0  0  0  0  0  0
   12.0220    1.3640   23.0100 C   0  0  0  0  0  0  0  0  0  0  0  0
   13.1160    0.3880   22.8130 C   0  0  0  0  0  0  0  0  0  0  0  0
   12.9820   -0.9630   22.5490 C   0  0  0  0  0  0  0  0  0  0  0  0
   11.5390   -1.4420   22.4630 C   0  0  0  0  0  0  0  0  0  0  0  0
    7.2470   -0.8250   20.9960 N   0  0  0  0  0  0  0  0  0  0  0  0
    6.4860   -0.1400   20.1000 C   0  0  0  0  0  0  0  0  0  0  0  0
    6.9590   -0.0740   18.6910 C   0  0  0  0  0  0  0  0  0  0  0  0
    6.2460    0.6110   17.7660 N   0  0  0  0  0  0  0  0  0  0  0  0
    5.0120    1.2800   18.1700 C   0  0  0  0  0  0  0  0  0  0  0  0
    4.5640    1.2100   19.4820 C   0  0  0  0  0  0  0  0  0  0  0  0
    5.2790    0.5050   20.4760 C   0  0  0  0  0  0  0  0  0  0  0  0
    4.8280    0.4330   21.7960 C   0  0  0  0  0  0  0  0  0  0  0  0
    4.7740    1.6300   22.5060 C   0  0  0  0  0  0  0  0  0  0  0  0
    3.5490    2.4060   22.1630 N   0  0  0  0  0  0  0  0  0  0  0  0
    2.6990    2.5260   23.2320 C   0  0  0  0  0  0  0  0  0  0  0  0
    2.4960    1.4170   24.1130 O   0  0  0  0  0  0  0  0  0  0  0  0
    2.0910    3.7220   23.4380 N   0  0  0  0  0  0  0  0  0  0  0  0
    0.7290    3.8160   23.5470 C   0  0  1  0  0  0  0  0  0  0  0  0
   -0.1270    2.7120   23.6000 C   0  0  0  0  0  0  0  0  0  0  0  0
   -1.5020    3.0370   23.5930 C   0  0  0  0  0  0  0  0  0  0  0  0
   -1.7630    4.3760   23.9680 C   0  0  0  0  0  0  0  0  0  0  0  0
   -0.9250    4.9440   25.1080 C   0  0  0  0  0  0  0  0  0  0  0  0
    0.5520    4.5650   24.8780 C   0  0  0  0  0  0  0  0  0  0  0  0
    8.7970   -1.9240   22.5340 H   0  0  0  0  0  0  0  0  0  0  0  0
    9.7710    1.3920   23.0370 H   0  0  0  0  0  0  0  0  0  0  0  0
   12.1930    2.4150   23.2130 H   0  0  0  0  0  0  0  0  0  0  0  0
   14.1250    0.7640   22.8760 H   0  0  0  0  0  0  0  0  0  0  0  0
   13.8210   -1.6350   22.4120 H   0  0  0  0  0  0  0  0  0  0  0  0
   11.4430   -2.5050   22.2540 H   0  0  0  0  0  0  0  0  0  0  0  0
    6.7530   -1.4040   21.6590 H   0  0  0  0  0  0  0  0  0  0  0  0
    7.8890   -0.5820   18.4000 H   0  0  0  0  0  0  0  0  0  0  0  0
    4.4770    1.8280   17.3980 H   0  0  0  0  0  0  0  0  0  0  0  0
    3.6600    1.6740   19.8610 H   0  0  0  0  0  0  0  0  0  0  0  0
    5.6400   -0.0890   22.3600 H   0  0  0  0  0  0  0  0  0  0  0  0
    3.9560   -0.2080   21.9080 H   0  0  0  0  0  0  0  0  0  0  0  0
    4.8210    1.5870   23.5930 H   0  0  0  0  0  0  0  0  0  0  0  0
    5.6130    2.2800   22.2290 H   0  0  0  0  0  0  0  0  0  0  0  0
    3.6880    3.2640   21.6280 H   0  0  0  0  0  0  0  0  0  0  0  0
    2.6390    4.3760   23.9790 H   0  0  0  0  0  0  0  0  0  0  0  0
    0.4060    4.5490   22.8110 H   0  0  0  0  0  0  0  0  0  0  0  0
    0.1280    2.0600   24.4300 H   0  0  0  0  0  0  0  0  0  0  0  0
    0.2560    2.1230   22.7740 H   0  0  0  0  0  0  0  0  0  0  0  0
   -1.8340    2.7140   22.5770 H   0  0  0  0  0  0  0  0  0  0  0  0
   -2.0720    2.3420   24.2070 H   0  0  0  0  0  0  0  0  0  0  0  0
   -2.7890    4.4220   24.3490 H   0  0  0  0  0  0  0  0  0  0  0  0
   -1.8010    4.9780   23.0520 H   0  0  0  0  0  0  0  0  0  0  0  0
   -1.2880    4.7510   26.1100 H   0  0  0  0  0  0  0  0  0  0  0  0
   -0.9850    6.0360   25.0180 H   0  0  0  0  0  0  0  0  0  0  0  0
    1.0780    5.5230   24.7750 H   0  0  0  0  0  0  0  0  0  0  0  0
    1.1370    4.0400   25.6190 H   0  0  0  0  0  0  0  0  0  0  0  0
  1  2  2  0
  2  3  1  0
  3  4  1  0
  4  5  2  0
  5  6  1  0
  6  7  2  0
  7  8  1  0
  4  9  1  0
  8  9  2  0
  2 10  1  0
 10 11  1  0
 11 12  2  0
 12 13  1  0
 13 14  2  0
 14 15  1  0
 11 16  1  0
 15 16  2  0
 16 17  1  0
 17 18  1  0
 18 19  1  0
 19 20  1  0
 20 21  2  0
 20 22  1  0
 22 23  1  0
 23 24  1  0
 24 25  1  0
 25 26  1  0
 26 27  1  0
 23 28  1  0
 27 28  1  0
  3 29  1  0
  5 30  1  0
  6 31  1  0
  7 32  1  0
  8 33  1  0
  9 34  1  0
 10 35  1  0
 12 36  1  0
 14 37  1  0
 15 38  1  0
 17 39  1  0
 17 40  1  0
 18 41  1  0
 18 42  1  0
 19 43  1  0
 22 44  1  0
 23 45  1  6
 24 46  1  0
 24 47  1  0
 25 48  1  0
 25 49  1  0
 26 50  1  0
 26 51  1  0
 27 52  1  0
 27 53  1  0
 28 54  1  0
 28 55  1  0
M  END
