LIG
     RDKit          3D

 41 42  0  0  0  0  0  0  0  0999 V2000
    3.7110    2.1190   19.5450 N   0  0  0  0  0  0  0  0  0  0  0  0
    4.6570    1.2785   19.2560 C   0  0  0  0  0  0  0  0  0  0  0  0
    5.1880    1.3550   17.9595 C   0  0  0  0  0  0  0  0  0  0  0  0
    6.1755    0.5585   17.5430 N   0  0  0  0  0  0  0  0  0  0  0  0
    6.6625   -0.3435   18.3715 C   0  0  0  0  0  0  0  0  0  0  0  0
    6.2140   -0.5075   19.6650 C   0  0  0  0  0  0  0  0  0  0  0  0
    5.2145    0.3145   20.1015 C   0  0  0  0  0  0  0  0  0  0  0  0
    4.8810    0.3160   21.7180 C   0  0  0  0  0  0  0  0  0  0  0  0
    5.2050    1.5540   22.5490 C   0  0  0  0  0  0  0  0  0  0  0  0
    4.0700    2.4460   22.4650 N   0  0  0  0  0  0  0  0  0  0  0  0
    2.9270    2.3110   23.3520 C   0  0  0  0  0  0  0  0  0  0  0  0
    2.8920    1.4710   24.2020 O   0  0  0  0  0  0  0  0  0  0  0  0
    1.8460    3.2530   23.1370 N   0  0  0  0  0  0  0  0  0  0  0  0
    0.6480    3.2940   23.9490 C   0  0  0  0  0  0  0  0  0  0  0  0
    0.5370    4.7360   24.4510 C   0  0  0  0  0  0  0  0  0  0  0  0
   -0.7860    4.9880   25.1580 C   0  0  0  0  0  0  0  0  0  0  0  0
   -1.9540    4.6680   24.2350 C   0  0  0  0  0  0  0  0  0  0  0  0
   -1.8960    3.2340   23.7250 C   0  0  0  0  0  0  0  0  0  0  0  0
   -0.5430    2.8790   23.0980 C   0  0  0  0  0  0  0  0  0  0  0  0
    3.2857    2.0888   20.5044 H   0  0  0  0  0  0  0  0  0  0  0  0
    2.8487    1.7344   19.9739 H   0  0  0  0  0  0  0  0  0  0  0  0
    4.8188    2.0618   17.2498 H   0  0  0  0  0  0  0  0  0  0  0  0
    7.4516   -0.9801   17.9729 H   0  0  0  0  0  0  0  0  0  0  0  0
    6.6514   -1.2802   20.2869 H   0  0  0  0  0  0  0  0  0  0  0  0
    3.8032    0.0065   21.7847 H   0  0  0  0  0  0  0  0  0  0  0  0
    5.3942   -0.5877   22.1397 H   0  0  0  0  0  0  0  0  0  0  0  0
    6.0718    2.0771   22.1800 H   0  0  0  0  0  0  0  0  0  0  0  0
    5.3454    1.2911   23.5842 H   0  0  0  0  0  0  0  0  0  0  0  0
    4.2259    3.4072   22.1817 H   0  0  0  0  0  0  0  0  0  0  0  0
    1.7668    3.4942   22.1521 H   0  0  0  0  0  0  0  0  0  0  0  0
    0.5557    4.4151   22.5117 H   0  0  0  0  0  0  0  0  0  0  0  0
    0.6173    5.4102   23.5919 H   0  0  0  0  0  0  0  0  0  0  0  0
    1.3627    4.9864   25.1219 H   0  0  0  0  0  0  0  0  0  0  0  0
   -0.8601    4.3761   26.0502 H   0  0  0  0  0  0  0  0  0  0  0  0
   -0.8300    6.0271   25.4655 H   0  0  0  0  0  0  0  0  0  0  0  0
   -1.9612    5.3665   23.3917 H   0  0  0  0  0  0  0  0  0  0  0  0
   -2.8992    4.8198   24.7684 H   0  0  0  0  0  0  0  0  0  0  0  0
   -2.6903    3.0877   22.9786 H   0  0  0  0  0  0  0  0  0  0  0  0
   -2.1145    2.5337   24.5423 H   0  0  0  0  0  0  0  0  0  0  0  0
   -0.4915    3.3808   22.1244 H   0  0  0  0  0  0  0  0  0  0  0  0
   -0.5137    1.8037   22.8865 H   0  0  0  0  0  0  0  0  0  0  0  0
  1  2  1  0
  2  3  4  0
  3  4  4  0
  4  5  4  0
  5  6  4  0
  6  7  4  0
  7  8  1  0
  8  9  1  0
  9 10  1  0
 10 11  1  0
 11 12  2  0
 11 13  1  0
 13 14  1  0
 14 15  1  0
 15 16  1  0
 16 17  1  0
 17 18  1  0
 18 19  1  0
  7  2  4  0
 19 14  1  0
  1 20  1  0
  1 21  1  0
  3 22  1  0
  5 23  1  0
  6 24  1  0
  8 25  1  0
  8 26  1  0
  9 27  1  0
  9 28  1  0
 10 29  1  0
 13 30  1  0
 14 31  1  0
 15 32  1  0
 15 33  1  0
 16 34  1  0
 16 35  1  0
 17 36  1  0
 17 37  1  0
 18 38  1  0
 18 39  1  0
 19 40  1  0
 19 41  1  0
M  END
