
     RDKit          3D

 42 44  0  0  0  0  0  0  0  0999 V2000
   22.5540   -8.0940    5.4900 C   0  0  0  0  0  0  0  0  0  0  0  0
   23.4850   -7.0540    6.0030 C   0  0  0  0  0  0  0  0  0  0  0  0
   24.8470   -7.3430    6.1620 C   0  0  2  0  0  0  0  0  0  0  0  0
   25.8000   -6.9840    5.0540 C   0  0  0  0  0  0  0  0  0  0  0  0
   26.8330   -8.0870    4.9810 C   0  0  0  0  0  0  0  0  0  0  0  0
   26.7030   -9.2330    4.1610 C   0  0  1  0  0  0  0  0  0  0  0  0
   27.7250  -10.2060    4.7560 C   0  0  0  0  0  0  0  0  0  0  0  0
   27.3890  -10.9730    5.8830 N   0  0  0  0  0  0  0  0  0  0  0  0
   27.8510  -10.5110    7.2120 C   0  0  0  0  0  0  0  0  0  0  0  0
   27.8360  -11.5970    8.2680 C   0  0  0  0  0  0  0  0  0  0  0  0
   28.0000  -12.7290    7.8590 O   0  0  0  0  0  0  0  0  0  0  0  0
   26.9750  -13.1050    6.9610 C   0  0  0  0  0  0  0  0  0  0  0  0
   27.0970  -12.4260    5.7580 C   0  0  0  0  0  0  0  0  0  0  0  0
   25.1520  -10.1110    4.0810 S   0  0  0  0  0  0  0  0  0  0  0  0
   24.3390   -9.6850    5.5790 C   0  0  2  0  0  0  0  0  0  0  0  0
   23.0650   -9.3570    5.1710 C   0  0  0  0  0  0  0  0  0  0  0  0
   25.1460   -8.8090    6.3040 C   0  0  0  0  0  0  0  0  0  0  0  0
   21.6830   -8.1970    6.1340 H   0  0  0  0  0  0  0  0  0  0  0  0
   22.1800   -7.6840    4.5660 H   0  0  0  0  0  0  0  0  0  0  0  0
   23.1030   -6.6500    6.9510 H   0  0  0  0  0  0  0  0  0  0  0  0
   23.4320   -6.2250    5.2980 H   0  0  0  0  0  0  0  0  0  0  0  0
   25.2170   -6.9010    7.0980 H   0  0  0  0  0  0  0  0  0  0  0  0
   26.2600   -6.0050    5.2240 H   0  0  0  0  0  0  0  0  0  0  0  0
   25.2550   -6.9120    4.1020 H   0  0  0  0  0  0  0  0  0  0  0  0
   27.2350   -8.3160    5.9680 H   0  0  0  0  0  0  0  0  0  0  0  0
   27.6920   -7.5810    4.5190 H   0  0  0  0  0  0  0  0  0  0  0  0
   26.8810   -8.9850    3.1160 H   0  0  0  0  0  0  0  0  0  0  0  0
   28.6960   -9.7870    5.0290 H   0  0  0  0  0  0  0  0  0  0  0  0
   27.9140  -10.9360    3.9680 H   0  0  0  0  0  0  0  0  0  0  0  0
   27.2130   -9.6500    7.4490 H   0  0  0  0  0  0  0  0  0  0  0  0
   28.8600  -10.0910    7.0950 H   0  0  0  0  0  0  0  0  0  0  0  0
   28.5420  -11.4990    9.0900 H   0  0  0  0  0  0  0  0  0  0  0  0
   26.8570  -11.5790    8.7650 H   0  0  0  0  0  0  0  0  0  0  0  0
   26.0380  -12.7960    7.4450 H   0  0  0  0  0  0  0  0  0  0  0  0
   26.9500  -14.1910    6.9500 H   0  0  0  0  0  0  0  0  0  0  0  0
   27.8480  -12.9260    5.1320 H   0  0  0  0  0  0  0  0  0  0  0  0
   26.1550  -12.5090    5.1990 H   0  0  0  0  0  0  0  0  0  0  0  0
   24.4600  -10.6130    6.1290 H   0  0  0  0  0  0  0  0  0  0  0  0
   23.1060   -9.4150    4.0780 H   0  0  0  0  0  0  0  0  0  0  0  0
   22.3590  -10.1130    5.5160 H   0  0  0  0  0  0  0  0  0  0  0  0
   25.3180   -9.1120    7.3410 H   0  0  0  0  0  0  0  0  0  0  0  0
   26.1430   -8.9310    5.8760 H   0  0  0  0  0  0  0  0  0  0  0  0
  1  2  1  0
  2  3  1  0
  3  4  1  0
  4  5  1  0
  5  6  1  0
  6  7  1  0
  7  8  1  0
  8  9  1  0
  9 10  1  0
 10 11  1  0
 11 12  1  0
  8 13  1  0
 12 13  1  0
  6 14  1  0
 14 15  1  0
  1 16  1  0
 15 16  1  0
  3 17  1  0
 15 17  1  0
  1 18  1  0
  1 19  1  0
  2 20  1  0
  2 21  1  0
  3 22  1  1
  4 23  1  0
  4 24  1  0
  5 25  1  0
  5 26  1  0
  6 27  1  6
  7 28  1  0
  7 29  1  0
  9 30  1  0
  9 31  1  0
 10 32  1  0
 10 33  1  0
 12 34  1  0
 12 35  1  0
 13 36  1  0
 13 37  1  0
 15 38  1  1
 16 39  1  0
 16 40  1  0
 17 41  1  0
 17 42  1  0
M  END
