LIG
     RDKit          3D

 38 41  0  0  0  0  0  0  0  0999 V2000
    9.2075    1.2425   21.0715 O   0  0  0  0  0  0  0  0  0  0  0  0
    8.9655    0.2710   21.6285 C   0  0  0  0  0  0  0  0  0  0  0  0
    7.9600   -0.5720   21.0945 C   0  0  0  0  0  0  0  0  0  0  0  0
    7.2165   -0.0655   19.9575 C   0  0  0  0  0  0  0  0  0  0  0  0
    7.6355   -0.1520   18.6735 C   0  0  0  0  0  0  0  0  0  0  0  0
    6.8205    0.3985   17.8145 N   0  0  0  0  0  0  0  0  0  0  0  0
    5.4510    1.0110   18.9125 C   0  0  0  0  0  0  0  0  0  0  0  0
    5.2280    1.2770   18.1915 N   0  0  0  0  0  0  0  0  0  0  0  0
    3.9600    1.8790   19.5990 C   0  0  0  0  0  0  0  0  0  0  0  0
    4.3240    1.5630   20.9050 C   0  0  0  0  0  0  0  0  0  0  0  0
    5.4760    0.8390   21.1280 C   0  0  0  0  0  0  0  0  0  0  0  0
    5.9915    0.6065   20.1330 C   0  0  0  0  0  0  0  0  0  0  0  0
    9.6175   -0.1255   22.8275 N   0  0  0  0  0  0  0  0  0  0  0  0
   10.7885    0.3940   23.2165 C   0  0  0  0  0  0  0  0  0  0  0  0
   11.6930    0.0335   23.8750 C   0  0  0  0  0  0  0  0  0  0  0  0
   12.5460   -0.5235   24.2040 N   0  0  0  0  0  0  0  0  0  0  0  0
   13.6695   -1.0650   23.6165 C   0  0  0  0  0  0  0  0  0  0  0  0
   12.8180   -1.7130   22.6470 C   0  0  0  0  0  0  0  0  0  0  0  0
   11.5145   -1.4425   22.5440 C   0  0  0  0  0  0  0  0  0  0  0  0
   10.0140   -1.4540   23.1290 C   0  0  0  0  0  0  0  0  0  0  0  0
    8.4131   -1.5588   20.7992 H   0  0  0  0  0  0  0  0  0  0  0  0
    7.2108   -0.8333   21.8922 H   0  0  0  0  0  0  0  0  0  0  0  0
    8.5909   -0.6293   18.2891 H   0  0  0  0  0  0  0  0  0  0  0  0
    6.6315    0.6072   16.9459 H   0  0  0  0  0  0  0  0  0  0  0  0
    3.2888    2.3076   19.0692 H   0  0  0  0  0  0  0  0  0  0  0  0
    3.7014    1.8943   21.7343 H   0  0  0  0  0  0  0  0  0  0  0  0
    5.7407    0.6077   22.1616 H   0  0  0  0  0  0  0  0  0  0  0  0
   11.2379    0.9009   22.1471 H   0  0  0  0  0  0  0  0  0  0  0  0
   10.4057    1.5518   23.5610 H   0  0  0  0  0  0  0  0  0  0  0  0
   11.0703    0.1399   25.1144 H   0  0  0  0  0  0  0  0  0  0  0  0
   12.0705    1.3272   24.2934 H   0  0  0  0  0  0  0  0  0  0  0  0
   14.2482   -1.7682   24.2789 H   0  0  0  0  0  0  0  0  0  0  0  0
   14.4589   -0.3645   23.2199 H   0  0  0  0  0  0  0  0  0  0  0  0
   13.0628   -2.9952   22.6543 H   0  0  0  0  0  0  0  0  0  0  0  0
   13.4170   -1.6961   21.4899 H   0  0  0  0  0  0  0  0  0  0  0  0
   11.5792   -2.5758   23.8345 H   0  0  0  0  0  0  0  0  0  0  0  0
   10.0710   -1.5824   24.1704 H   0  0  0  0  0  0  0  0  0  0  0  0
    9.4859   -2.2009   22.6259 H   0  0  0  0  0  0  0  0  0  0  0  0
  1  2  2  0
  2  3  1  0
  3  4  1  0
  4  5  4  0
  5  6  4  0
  6  7  4  0
  7  8  4  0
  8  9  4  0
  9 10  4  0
 10 11  4  0
 11 12  4  0
  2 13  1  0
 13 14  1  0
 14 15  1  0
 15 16  1  0
 16 17  1  0
 17 18  1  0
 18 19  1  0
 19 20  1  0
 12  4  4  0
 20 13  1  0
 12  7  4  0
 19 16  1  0
  3 21  1  0
  3 22  1  0
  5 23  1  0
  6 24  1  0
  9 25  1  0
 10 26  1  0
 11 27  1  0
 14 28  1  0
 14 29  1  0
 15 30  1  0
 15 31  1  0
 17 32  1  0
 17 33  1  0
 18 34  1  0
 18 35  1  0
 19 36  1  0
 20 37  1  0
 20 38  1  0
M  END
