
     RDKit          3D

 38 41  0  0  0  0  0  0  0  0999 V2000
    8.8880    1.5650   21.2070 O   0  0  0  0  0  0  0  0  0  0  0  0
    8.9750    0.2160   21.6850 C   0  0  0  0  0  0  0  0  0  0  0  0
    7.8110   -0.6540   21.2840 C   0  0  0  0  0  0  0  0  0  0  0  0
    7.0750   -0.2300   20.1800 C   0  0  0  0  0  0  0  0  0  0  0  0
    7.3490   -0.5420   18.7560 C   0  0  0  0  0  0  0  0  0  0  0  0
    6.4400    0.0570   18.0200 N   0  0  0  0  0  0  0  0  0  0  0  0
    5.5610    0.7400   18.8160 C   0  0  0  0  0  0  0  0  0  0  0  0
    4.3900    1.5500   18.4850 N   0  0  0  0  0  0  0  0  0  0  0  0
    3.6150    2.1640   19.5720 C   0  0  0  0  0  0  0  0  0  0  0  0
    4.0370    1.9630   21.0310 C   0  0  0  0  0  0  0  0  0  0  0  0
    5.1790    1.1800   21.2860 C   0  0  0  0  0  0  0  0  0  0  0  0
    5.9320    0.5720   20.1590 C   0  0  0  0  0  0  0  0  0  0  0  0
   10.0030   -0.3380   22.4500 N   0  0  0  0  0  0  0  0  0  0  0  0
   10.8680    0.6110   23.1560 C   0  0  0  0  0  0  0  0  0  0  0  0
   11.4870    0.1240   24.2740 C   0  0  0  0  0  0  0  0  0  0  0  0
   12.0740   -1.0900   24.2060 N   0  0  0  0  0  0  0  0  0  0  0  0
   13.1220   -1.1810   23.3880 C   0  0  0  0  0  0  0  0  0  0  0  0
   12.5320   -1.9290   22.4790 C   0  0  0  0  0  0  0  0  0  0  0  0
   11.3840   -2.0760   23.2460 C   0  0  2  0  0  0  0  0  0  0  0  0
   10.1040   -1.7120   22.7540 C   0  0  0  0  0  0  0  0  0  0  0  0
    8.2080   -1.6520   21.0690 H   0  0  0  0  0  0  0  0  0  0  0  0
    7.1240   -0.7550   22.1320 H   0  0  0  0  0  0  0  0  0  0  0  0
    8.1530   -1.1490   18.3760 H   0  0  0  0  0  0  0  0  0  0  0  0
    6.4860   -0.0450   17.0130 H   0  0  0  0  0  0  0  0  0  0  0  0
    2.7530    2.7510   19.2680 H   0  0  0  0  0  0  0  0  0  0  0  0
    3.4170    2.4470   21.7800 H   0  0  0  0  0  0  0  0  0  0  0  0
    5.4950    1.0280   22.3130 H   0  0  0  0  0  0  0  0  0  0  0  0
   11.6680    0.8090   22.4360 H   0  0  0  0  0  0  0  0  0  0  0  0
   10.3750    1.5820   23.2670 H   0  0  0  0  0  0  0  0  0  0  0  0
   10.8720    0.0420   25.1630 H   0  0  0  0  0  0  0  0  0  0  0  0
   12.3230    0.7390   24.6090 H   0  0  0  0  0  0  0  0  0  0  0  0
   13.9770   -1.6290   23.8760 H   0  0  0  0  0  0  0  0  0  0  0  0
   13.4860   -0.2040   23.0770 H   0  0  0  0  0  0  0  0  0  0  0  0
   13.0730   -2.8340   22.2240 H   0  0  0  0  0  0  0  0  0  0  0  0
   12.3880   -1.4750   21.5070 H   0  0  0  0  0  0  0  0  0  0  0  0
   11.2480   -3.0420   23.7220 H   0  0  0  0  0  0  0  0  0  0  0  0
    9.3980   -1.8750   23.5750 H   0  0  0  0  0  0  0  0  0  0  0  0
    9.6480   -2.2360   21.9250 H   0  0  0  0  0  0  0  0  0  0  0  0
  1  2  2  0
  2  3  1  0
  3  4  1  0
  4  5  2  0
  5  6  1  0
  6  7  1  0
  7  8  1  0
  8  9  2  0
  9 10  1  0
 10 11  2  0
  4 12  1  0
  7 12  2  0
 11 12  1  0
  2 13  1  0
 13 14  1  0
 14 15  1  0
 15 16  1  0
 16 17  1  0
 17 18  1  0
 16 19  1  0
 18 19  1  0
 13 20  1  0
 19 20  1  0
  3 21  1  0
  3 22  1  0
  5 23  1  0
  6 24  1  0
  9 25  1  0
 10 26  1  0
 11 27  1  0
 14 28  1  0
 14 29  1  0
 15 30  1  0
 15 31  1  0
 17 32  1  0
 17 33  1  0
 18 34  1  0
 18 35  1  0
 19 36  1  1
 20 37  1  0
 20 38  1  0
M  END
