
     RDKit          3D

 37 38  0  0  0  0  0  0  0  0999 V2000
    5.4940    1.0130   22.1150 C   0  0  0  0  0  0  0  0  0  0  0  0
    5.8170    0.7570   20.6740 C   0  0  0  0  0  0  0  0  0  0  0  0
    4.9760    1.2910   19.6850 C   0  0  0  0  0  0  0  0  0  0  0  0
    5.3280    1.0110   18.2360 C   0  0  0  0  0  0  0  0  0  0  0  0
    6.3930    0.2790   17.9020 N   0  0  0  0  0  0  0  0  0  0  0  0
    7.1610   -0.2080   18.9120 C   0  0  0  0  0  0  0  0  0  0  0  0
    6.9330   -0.0010   20.2550 C   0  0  0  0  0  0  0  0  0  0  0  0
    7.8670   -0.5940   21.0860 N   0  0  0  0  0  0  0  0  0  0  0  0
    8.7150    0.3070   21.7430 C   0  0  0  0  0  0  0  0  0  0  0  0
    9.0400    1.3710   21.1890 O   0  0  0  0  0  0  0  0  0  0  0  0
    9.2570    0.1250   23.0570 C   0  0  0  0  0  0  0  0  0  0  0  0
   10.3560   -0.8890   23.3710 C   0  0  1  0  0  0  0  0  0  0  0  0
   11.3990   -0.9940   22.2940 C   0  0  0  0  0  0  0  0  0  0  0  0
   12.4970   -1.7350   22.6580 C   0  0  0  0  0  0  0  0  0  0  0  0
   13.1190   -1.1270   23.7230 C   0  0  0  0  0  0  0  0  0  0  0  0
   12.3500   -0.3330   24.5650 C   0  0  0  0  0  0  0  0  0  0  0  0
   10.9760   -0.6030   24.6010 C   0  0  0  0  0  0  0  0  0  0  0  0
    4.6300    1.6770   22.2250 H   0  0  0  0  0  0  0  0  0  0  0  0
    6.3530    1.4870   22.5980 H   0  0  0  0  0  0  0  0  0  0  0  0
    5.2720    0.0610   22.6060 H   0  0  0  0  0  0  0  0  0  0  0  0
    4.1000    1.8870   19.9260 H   0  0  0  0  0  0  0  0  0  0  0  0
    4.7300    1.3910   17.4120 H   0  0  0  0  0  0  0  0  0  0  0  0
    7.9990   -0.7930   18.5450 H   0  0  0  0  0  0  0  0  0  0  0  0
    7.5610   -1.4060   21.6020 H   0  0  0  0  0  0  0  0  0  0  0  0
    9.7170    1.0870   23.3040 H   0  0  0  0  0  0  0  0  0  0  0  0
    8.3780    0.0420   23.6950 H   0  0  0  0  0  0  0  0  0  0  0  0
    9.8960   -1.8780   23.4840 H   0  0  0  0  0  0  0  0  0  0  0  0
   10.9620   -1.4870   21.4250 H   0  0  0  0  0  0  0  0  0  0  0  0
   11.7120   -0.0320   21.9400 H   0  0  0  0  0  0  0  0  0  0  0  0
   12.2190   -2.7840   22.7750 H   0  0  0  0  0  0  0  0  0  0  0  0
   13.2200   -1.6910   21.8390 H   0  0  0  0  0  0  0  0  0  0  0  0
   13.8630   -0.4550   23.3080 H   0  0  0  0  0  0  0  0  0  0  0  0
   13.6060   -1.9030   24.3260 H   0  0  0  0  0  0  0  0  0  0  0  0
   12.5540    0.7300   24.4650 H   0  0  0  0  0  0  0  0  0  0  0  0
   12.7150   -0.5490   25.5760 H   0  0  0  0  0  0  0  0  0  0  0  0
   10.8820   -1.5140   25.1970 H   0  0  0  0  0  0  0  0  0  0  0  0
   10.3550    0.1120   25.1330 H   0  0  0  0  0  0  0  0  0  0  0  0
  1  2  1  0
  2  3  2  0
  3  4  1  0
  4  5  2  0
  5  6  1  0
  2  7  1  0
  6  7  2  0
  7  8  1  0
  8  9  1  0
  9 10  2  0
  9 11  1  0
 11 12  1  0
 12 13  1  0
 13 14  1  0
 14 15  1  0
 15 16  1  0
 12 17  1  0
 16 17  1  0
  1 18  1  0
  1 19  1  0
  1 20  1  0
  3 21  1  0
  4 22  1  0
  6 23  1  0
  8 24  1  0
 11 25  1  0
 11 26  1  0
 12 27  1  1
 13 28  1  0
 13 29  1  0
 14 30  1  0
 14 31  1  0
 15 32  1  0
 15 33  1  0
 16 34  1  0
 16 35  1  0
 17 36  1  0
 17 37  1  0
M  END
