
     RDKit          3D

 43 44  0  0  0  0  0  0  0  0999 V2000
    8.4580    0.0660   27.6370 C   0  0  0  0  0  0  0  0  0  0  0  0
    8.6200   -0.1070   26.1530 C   0  0  0  0  0  0  0  0  0  0  0  0
    9.8940    0.1580   25.7300 N   0  0  0  0  0  0  0  0  0  0  0  0
   10.5250   -0.5880   24.6660 C   0  0  2  0  0  0  0  0  0  0  0  0
   11.9990   -0.9590   24.9300 C   0  0  0  0  0  0  0  0  0  0  0  0
   12.8360   -0.9720   23.6900 C   0  0  0  0  0  0  0  0  0  0  0  0
   12.2870   -0.8880   22.4420 C   0  0  1  0  0  0  0  0  0  0  0  0
   12.9880   -1.8230   21.5290 C   0  0  0  0  0  0  0  0  0  0  0  0
   13.4570   -2.5490   20.8030 N   0  0  0  0  0  0  0  0  0  0  0  0
   10.9160   -0.9400   22.3790 C   0  0  0  0  0  0  0  0  0  0  0  0
   10.2980   -0.0630   23.3990 C   0  0  1  0  0  0  0  0  0  0  0  0
    8.8250    0.0900   23.0510 C   0  0  0  0  0  0  0  0  0  0  0  0
    8.5590    0.5360   21.7710 C   0  0  0  0  0  0  0  0  0  0  0  0
    9.0980    1.5180   21.2460 O   0  0  0  0  0  0  0  0  0  0  0  0
    7.5330   -0.3350   21.1890 N   0  0  0  0  0  0  0  0  0  0  0  0
    6.8410    0.1440   20.1350 C   0  0  0  0  0  0  0  0  0  0  0  0
    5.7740    1.0000   20.3470 C   0  0  0  0  0  0  0  0  0  0  0  0
    4.9890    1.5610   19.3550 C   0  0  0  0  0  0  0  0  0  0  0  0
    5.3090    1.2330   18.0310 C   0  0  0  0  0  0  0  0  0  0  0  0
    6.3200    0.4100   17.7160 N   0  0  0  0  0  0  0  0  0  0  0  0
    7.0900   -0.1370   18.8210 C   0  0  0  0  0  0  0  0  0  0  0  0
    7.8030   -0.6960   28.0670 H   0  0  0  0  0  0  0  0  0  0  0  0
    9.4410   -0.0160   28.1130 H   0  0  0  0  0  0  0  0  0  0  0  0
    8.0350    1.0550   27.8370 H   0  0  0  0  0  0  0  0  0  0  0  0
    8.3310   -1.1280   25.8880 H   0  0  0  0  0  0  0  0  0  0  0  0
    7.9290    0.5800   25.6550 H   0  0  0  0  0  0  0  0  0  0  0  0
   10.0020    1.1810   25.6010 H   0  0  0  0  0  0  0  0  0  0  0  0
    9.9810   -1.5430   24.6470 H   0  0  0  0  0  0  0  0  0  0  0  0
   12.4560   -0.2840   25.6550 H   0  0  0  0  0  0  0  0  0  0  0  0
   12.0440   -1.9580   25.3780 H   0  0  0  0  0  0  0  0  0  0  0  0
   13.4790   -1.8610   23.7050 H   0  0  0  0  0  0  0  0  0  0  0  0
   13.5350   -0.1330   23.7510 H   0  0  0  0  0  0  0  0  0  0  0  0
   12.5700    0.1080   22.0990 H   0  0  0  0  0  0  0  0  0  0  0  0
   10.6920   -2.0020   22.5360 H   0  0  0  0  0  0  0  0  0  0  0  0
   10.4700   -0.7390   21.3990 H   0  0  0  0  0  0  0  0  0  0  0  0
   10.7890    0.9040   23.5040 H   0  0  0  0  0  0  0  0  0  0  0  0
    8.2430    0.5890   23.8170 H   0  0  0  0  0  0  0  0  0  0  0  0
    8.4560   -0.9430   23.0980 H   0  0  0  0  0  0  0  0  0  0  0  0
    6.9090   -0.7770   21.8590 H   0  0  0  0  0  0  0  0  0  0  0  0
    5.5280    1.2540   21.3840 H   0  0  0  0  0  0  0  0  0  0  0  0
    4.1640    2.2250   19.6040 H   0  0  0  0  0  0  0  0  0  0  0  0
    4.7380    1.6420   17.1950 H   0  0  0  0  0  0  0  0  0  0  0  0
    7.8840   -0.7940   18.4410 H   0  0  0  0  0  0  0  0  0  0  0  0
  1  2  1  0
  2  3  1  0
  3  4  1  0
  4  5  1  0
  5  6  1  0
  6  7  1  0
  7  8  1  0
  8  9  3  0
  7 10  1  0
  4 11  1  0
 10 11  1  0
 11 12  1  0
 12 13  1  0
 13 14  2  0
 13 15  1  0
 15 16  1  0
 16 17  2  0
 17 18  1  0
 18 19  2  0
 19 20  1  0
 16 21  1  0
 20 21  2  0
  1 22  1  0
  1 23  1  0
  1 24  1  0
  2 25  1  0
  2 26  1  0
  3 27  1  0
  4 28  1  6
  5 29  1  0
  5 30  1  0
  6 31  1  0
  6 32  1  0
  7 33  1  6
 10 34  1  0
 10 35  1  0
 11 36  1  1
 12 37  1  0
 12 38  1  0
 15 39  1  0
 17 40  1  0
 18 41  1  0
 19 42  1  0
 21 43  1  0
M  END
