
     RDKit          3D

 36 37  0  0  0  0  0  0  0  0999 V2000
    3.8870    2.0620   20.1130 N   0  0  0  0  0  0  0  0  0  0  0  0
    4.6370    1.5190   19.4160 C   0  0  0  0  0  0  0  0  0  0  0  0
    5.1680    1.1060   18.0430 C   0  0  0  0  0  0  0  0  0  0  0  0
    6.3320    0.2820   17.7860 N   0  0  0  0  0  0  0  0  0  0  0  0
    7.0460   -0.1790   18.8600 C   0  0  0  0  0  0  0  0  0  0  0  0
    6.6200    0.1820   20.2230 C   0  0  0  0  0  0  0  0  0  0  0  0
    7.4670   -0.3430   21.2590 N   0  0  0  0  0  0  0  0  0  0  0  0
    8.5930    0.2730   21.8530 C   0  0  0  0  0  0  0  0  0  0  0  0
    9.1560    1.4130   21.3120 O   0  0  0  0  0  0  0  0  0  0  0  0
    9.1080   -0.2810   23.0260 C   0  0  0  0  0  0  0  0  0  0  0  0
   10.6240   -0.4270   23.0100 C   0  0  1  0  0  0  0  0  0  0  0  0
   11.0210   -0.5110   24.3500 C   0  0  0  0  0  0  0  0  0  0  0  0
   12.4870   -0.3570   24.4860 C   0  0  0  0  0  0  0  0  0  0  0  0
   13.2070   -0.9830   23.2960 C   0  0  0  0  0  0  0  0  0  0  0  0
   12.4990   -1.8240   22.4410 C   0  0  0  0  0  0  0  0  0  0  0  0
   11.1420   -1.5020   22.2570 C   0  0  0  0  0  0  0  0  0  0  0  0
    5.4840    0.9750   20.4340 C   0  0  0  0  0  0  0  0  0  0  0  0
    3.0310    1.5160   20.2220 H   0  0  0  0  0  0  0  0  0  0  0  0
    3.7200    3.0660   20.0100 H   0  0  0  0  0  0  0  0  0  0  0  0
    4.5940    1.4860   17.2010 H   0  0  0  0  0  0  0  0  0  0  0  0
    7.9130   -0.7970   18.6550 H   0  0  0  0  0  0  0  0  0  0  0  0
    7.2440   -1.2710   21.5910 H   0  0  0  0  0  0  0  0  0  0  0  0
    8.8040    0.3230   23.8930 H   0  0  0  0  0  0  0  0  0  0  0  0
    8.6780   -1.2760   23.1680 H   0  0  0  0  0  0  0  0  0  0  0  0
   11.0100    0.4170   22.4430 H   0  0  0  0  0  0  0  0  0  0  0  0
   10.4430    0.2540   24.8530 H   0  0  0  0  0  0  0  0  0  0  0  0
   10.6470   -1.4360   24.7860 H   0  0  0  0  0  0  0  0  0  0  0  0
   12.8400   -0.7810   25.4310 H   0  0  0  0  0  0  0  0  0  0  0  0
   12.7070    0.7120   24.5090 H   0  0  0  0  0  0  0  0  0  0  0  0
   13.9450   -1.6480   23.7490 H   0  0  0  0  0  0  0  0  0  0  0  0
   13.7680   -0.1770   22.8130 H   0  0  0  0  0  0  0  0  0  0  0  0
   12.8840   -1.7950   21.4180 H   0  0  0  0  0  0  0  0  0  0  0  0
   12.6570   -2.8800   22.6630 H   0  0  0  0  0  0  0  0  0  0  0  0
   10.8830   -1.2700   21.2250 H   0  0  0  0  0  0  0  0  0  0  0  0
   10.4790   -2.3450   22.4500 H   0  0  0  0  0  0  0  0  0  0  0  0
    5.2090    1.2070   21.4720 H   0  0  0  0  0  0  0  0  0  0  0  0
  1  2  1  0
  2  3  2  0
  3  4  1  0
  4  5  2  0
  5  6  1  0
  6  7  1  0
  7  8  1  0
  8  9  2  0
  8 10  1  0
 10 11  1  0
 11 12  1  0
 12 13  1  0
 13 14  1  0
 14 15  1  0
 11 16  1  0
 15 16  1  0
  2 17  1  0
  6 17  2  0
  1 18  1  0
  1 19  1  0
  3 20  1  0
  5 21  1  0
  7 22  1  0
 10 23  1  0
 10 24  1  0
 11 25  1  6
 12 26  1  0
 12 27  1  0
 13 28  1  0
 13 29  1  0
 14 30  1  0
 14 31  1  0
 15 32  1  0
 15 33  1  0
 16 34  1  0
 16 35  1  0
 17 36  1  0
M  END
