
     RDKit          3D

 54 57  0  0  0  0  0  0  0  0999 V2000
    9.1750    1.6230   21.3170 O   0  0  0  0  0  0  0  0  0  0  0  0
    8.7110    0.3520   21.7880 C   0  0  0  0  0  0  0  0  0  0  0  0
    7.6940   -0.3980   21.0660 N   0  0  0  0  0  0  0  0  0  0  0  0
    6.9040    0.2200   20.0240 C   0  0  0  0  0  0  0  0  0  0  0  0
    5.9140    1.1080   20.4100 C   0  0  0  0  0  0  0  0  0  0  0  0
    4.9960    1.8260   19.4250 C   0  0  0  0  0  0  0  0  0  0  0  0
    5.2430    1.5070   17.9840 C   0  0  0  0  0  0  0  0  0  0  0  0
    6.3250    0.5420   17.6800 N   0  0  0  0  0  0  0  0  0  0  0  0
    7.1290   -0.0820   18.7090 C   0  0  0  0  0  0  0  0  0  0  0  0
    9.1340   -0.4200   23.0540 C   0  0  0  0  0  0  0  0  0  0  0  0
    7.8240   -0.7220   23.5610 C   0  0  0  0  0  0  0  0  0  0  0  0
    7.4720   -1.5680   24.7430 C   0  0  0  0  0  0  0  0  0  0  0  0
    8.6430   -2.4580   24.9680 C   0  0  0  0  0  0  0  0  0  0  0  0
    8.5300   -3.4550   26.0300 N   0  0  0  0  0  0  0  0  0  0  0  0
    9.4770   -4.5130   26.0970 C   0  0  0  0  0  0  0  0  0  0  0  0
    8.9910   -5.6850   26.6290 C   0  0  0  0  0  0  0  0  0  0  0  0
    8.9230   -5.6850   27.9990 C   0  0  0  0  0  0  0  0  0  0  0  0
    8.3980   -4.6450   28.3520 O   0  0  0  0  0  0  0  0  0  0  0  0
    7.1540   -4.3550   27.7290 C   0  0  0  0  0  0  0  0  0  0  0  0
    7.2430   -3.9170   26.3990 C   0  0  0  0  0  0  0  0  0  0  0  0
    9.7590   -2.2050   24.0910 C   0  0  0  0  0  0  0  0  0  0  0  0
   10.8230   -2.2000   23.2370 C   0  0  0  0  0  0  0  0  0  0  0  0
   11.8800   -1.7890   22.4170 C   0  0  0  0  0  0  0  0  0  0  0  0
   13.0190   -1.5410   23.1880 C   0  0  0  0  0  0  0  0  0  0  0  0
   12.8670   -0.2530   23.9250 C   0  0  0  0  0  0  0  0  0  0  0  0
   11.5450    0.2990   23.3990 C   0  0  0  0  0  0  0  0  0  0  0  0
   10.5510   -0.8050   23.5410 C   0  0  1  0  0  0  0  0  0  0  0  0
    7.1920   -1.0340   21.6880 H   0  0  0  0  0  0  0  0  0  0  0  0
    5.7720    1.3110   21.4800 H   0  0  0  0  0  0  0  0  0  0  0  0
    4.2260    2.5180   19.7410 H   0  0  0  0  0  0  0  0  0  0  0  0
    4.6830    1.9380   17.1600 H   0  0  0  0  0  0  0  0  0  0  0  0
    7.8920   -0.7780   18.3740 H   0  0  0  0  0  0  0  0  0  0  0  0
    6.9130   -0.3610   23.0700 H   0  0  0  0  0  0  0  0  0  0  0  0
    6.5340   -1.5620   25.2910 H   0  0  0  0  0  0  0  0  0  0  0  0
   10.2910   -4.1720   26.7440 H   0  0  0  0  0  0  0  0  0  0  0  0
    9.9690   -4.5820   25.1290 H   0  0  0  0  0  0  0  0  0  0  0  0
    9.8070   -6.3640   26.3530 H   0  0  0  0  0  0  0  0  0  0  0  0
    8.1350   -6.1010   26.1090 H   0  0  0  0  0  0  0  0  0  0  0  0
    9.8760   -5.7440   28.5020 H   0  0  0  0  0  0  0  0  0  0  0  0
    8.3150   -6.4670   28.4390 H   0  0  0  0  0  0  0  0  0  0  0  0
    6.5950   -5.2970   27.7470 H   0  0  0  0  0  0  0  0  0  0  0  0
    6.6320   -3.6920   28.4300 H   0  0  0  0  0  0  0  0  0  0  0  0
    6.9690   -4.7340   25.7230 H   0  0  0  0  0  0  0  0  0  0  0  0
    6.5290   -3.1090   26.2170 H   0  0  0  0  0  0  0  0  0  0  0  0
    9.7870   -3.2840   23.9920 H   0  0  0  0  0  0  0  0  0  0  0  0
   12.0660   -2.4800   21.6010 H   0  0  0  0  0  0  0  0  0  0  0  0
   11.4410   -0.9550   21.8270 H   0  0  0  0  0  0  0  0  0  0  0  0
   13.2520   -2.4280   23.7900 H   0  0  0  0  0  0  0  0  0  0  0  0
   13.8580   -1.3810   22.5100 H   0  0  0  0  0  0  0  0  0  0  0  0
   13.5950    0.4960   23.6270 H   0  0  0  0  0  0  0  0  0  0  0  0
   12.9420   -0.3070   25.0050 H   0  0  0  0  0  0  0  0  0  0  0  0
   11.5650    0.7970   22.4350 H   0  0  0  0  0  0  0  0  0  0  0  0
   11.2800    1.0840   24.1010 H   0  0  0  0  0  0  0  0  0  0  0  0
   10.3910   -0.8660   24.6290 H   0  0  0  0  0  0  0  0  0  0  0  0
  1  2  2  0
  2  3  1  0
  3  4  1  0
  4  5  2  0
  5  6  1  0
  6  7  2  0
  7  8  1  0
  4  9  1  0
  8  9  2  0
  2 10  1  0
 10 11  2  0
 11 12  1  0
 12 13  2  0
 13 14  1  0
 14 15  1  0
 15 16  1  0
 16 17  1  0
 17 18  1  0
 18 19  1  0
 14 20  1  0
 19 20  1  0
 13 21  1  0
 21 22  2  0
 22 23  1  0
 23 24  1  0
 24 25  1  0
 25 26  1  0
 10 27  1  0
 22 27  1  0
 26 27  1  0
  3 28  1  0
  5 29  1  0
  6 30  1  0
  7 31  1  0
  9 32  1  0
 11 33  1  0
 12 34  1  0
 15 35  1  0
 15 36  1  0
 16 37  1  0
 16 38  1  0
 17 39  1  0
 17 40  1  0
 19 41  1  0
 19 42  1  0
 20 43  1  0
 20 44  1  0
 21 45  1  0
 23 46  1  0
 23 47  1  0
 24 48  1  0
 24 49  1  0
 25 50  1  0
 25 51  1  0
 26 52  1  0
 26 53  1  0
 27 54  1  1
M  END
