LIG
     RDKit          3D

 51 54  0  0  0  0  0  0  0  0999 V2000
    3.8620    2.0560   19.5360 C   0  0  0  0  0  0  0  0  0  0  0  0
    5.0520    1.2225   18.9710 C   0  0  0  0  0  0  0  0  0  0  0  0
    5.7035    1.2840   17.8095 C   0  0  0  0  0  0  0  0  0  0  0  0
    6.7615    0.5205   17.6295 N   0  0  0  0  0  0  0  0  0  0  0  0
    7.0345   -0.1650   18.6410 C   0  0  0  0  0  0  0  0  0  0  0  0
    7.0000    0.1710   20.1090 C   0  0  0  0  0  0  0  0  0  0  0  0
    5.6110    0.4090   19.7760 C   0  0  0  0  0  0  0  0  0  0  0  0
    7.9665   -0.8035   21.0615 N   0  0  0  0  0  0  0  0  0  0  0  0
    8.8650    0.3120   21.6960 C   0  0  0  0  0  0  0  0  0  0  0  0
    9.4190    1.1020   21.0000 O   0  0  0  0  0  0  0  0  0  0  0  0
    9.4090   -0.1550   23.0330 C   0  0  0  0  0  0  0  0  0  0  0  0
   10.9230   -0.0800   23.0900 C   0  0  0  0  0  0  0  0  0  0  0  0
   11.2810   -0.4020   24.5270 C   0  0  0  0  0  0  0  0  0  0  0  0
   12.7710   -0.1530   24.6900 C   0  0  0  0  0  0  0  0  0  0  0  0
   13.6100   -0.8590   23.6290 C   0  0  0  0  0  0  0  0  0  0  0  0
   12.8180   -1.7130   22.6470 C   0  0  0  0  0  0  0  0  0  0  0  0
   11.5620   -1.0470   22.0960 C   0  0  0  0  0  0  0  0  0  0  0  0
    7.3620   -2.0310   19.9170 N   0  0  0  0  0  0  0  0  0  0  0  0
    6.4780   -3.0650   20.4600 C   0  0  0  0  0  0  0  0  0  0  0  0
    5.7050   -3.6090   19.7340 O   0  0  0  0  0  0  0  0  0  0  0  0
    6.5520   -3.4250   21.8840 N   0  0  0  0  0  0  0  0  0  0  0  0
    5.6750   -4.4640   22.4420 C   0  0  0  0  0  0  0  0  0  0  0  0
    6.3670   -5.4690   23.3670 C   0  0  0  0  0  0  0  0  0  0  0  0
    5.9460   -5.8890   21.9520 C   0  0  0  0  0  0  0  0  0  0  0  0
    7.2860   -1.6460   18.4960 C   0  0  0  0  0  0  0  0  0  0  0  0
    3.0087    1.9587   18.8736 H   0  0  0  0  0  0  0  0  0  0  0  0
    3.0274    1.3960   19.7461 H   0  0  0  0  0  0  0  0  0  0  0  0
    3.6180    1.6817   20.5238 H   0  0  0  0  0  0  0  0  0  0  0  0
    5.4325    1.9213   16.9954 H   0  0  0  0  0  0  0  0  0  0  0  0
    4.8877   -0.2856   20.4185 H   0  0  0  0  0  0  0  0  0  0  0  0
    9.0886   -1.1802   23.2184 H   0  0  0  0  0  0  0  0  0  0  0  0
    8.9908    0.5140   23.7875 H   0  0  0  0  0  0  0  0  0  0  0  0
   10.3800   -1.7904   23.4965 H   0  0  0  0  0  0  0  0  0  0  0  0
   10.7342    0.2362   25.2097 H   0  0  0  0  0  0  0  0  0  0  0  0
   11.0664   -1.4336   24.7661 H   0  0  0  0  0  0  0  0  0  0  0  0
   12.9724    0.9299   24.6527 H   0  0  0  0  0  0  0  0  0  0  0  0
   13.0927   -0.4893   25.6901 H   0  0  0  0  0  0  0  0  0  0  0  0
   14.1911   -0.0985   23.0624 H   0  0  0  0  0  0  0  0  0  0  0  0
   14.3770   -1.4891   24.1286 H   0  0  0  0  0  0  0  0  0  0  0  0
   13.4765   -2.0075   21.8041 H   0  0  0  0  0  0  0  0  0  0  0  0
   12.5363   -2.6671   23.1403 H   0  0  0  0  0  0  0  0  0  0  0  0
   10.8401   -1.8301   21.8132 H   0  0  0  0  0  0  0  0  0  0  0  0
   11.8168   -0.5153   21.1638 H   0  0  0  0  0  0  0  0  0  0  0  0
    6.7572   -2.6334   22.4501 H   0  0  0  0  0  0  0  0  0  0  0  0
    7.6476   -4.7703   21.9486 H   0  0  0  0  0  0  0  0  0  0  0  0
    5.8021   -5.8730   24.1859 H   0  0  0  0  0  0  0  0  0  0  0  0
    7.4166   -5.3279   23.5457 H   0  0  0  0  0  0  0  0  0  0  0  0
    6.7214   -6.0116   21.2195 H   0  0  0  0  0  0  0  0  0  0  0  0
    5.1088   -6.5551   21.8630 H   0  0  0  0  0  0  0  0  0  0  0  0
    6.4309   -2.1358   18.0560 H   0  0  0  0  0  0  0  0  0  0  0  0
    8.1998   -1.8289   17.9572 H   0  0  0  0  0  0  0  0  0  0  0  0
  1  2  1  0
  2  3  4  0
  3  4  4  0
  4  5  4  0
  5  6  4  0
  6  7  4  0
  6  8  1  0
  8  9  1  0
  9 10  2  0
  9 11  1  0
 11 12  1  0
 12 13  1  0
 13 14  1  0
 14 15  1  0
 15 16  1  0
 16 17  1  0
  8 18  1  0
 18 19  1  0
 19 20  2  0
 19 21  1  0
 21 22  1  0
 22 23  1  0
 23 24  1  0
 18 25  1  0
  7  2  4  0
 17 12  1  0
 24 22  1  0
 25  5  1  0
  1 26  1  0
  1 27  1  0
  1 28  1  0
  3 29  1  0
  7 30  1  0
 11 31  1  0
 11 32  1  0
 12 33  1  0
 13 34  1  0
 13 35  1  0
 14 36  1  0
 14 37  1  0
 15 38  1  0
 15 39  1  0
 16 40  1  0
 16 41  1  0
 17 42  1  0
 17 43  1  0
 21 44  1  0
 22 45  1  0
 23 46  1  0
 23 47  1  0
 24 48  1  0
 24 49  1  0
 25 50  1  0
 25 51  1  0
M  END
