
     RDKit          3D

 63 66  0  0  0  0  0  0  0  0999 V2000
    9.0760    1.5770   21.1550 O   0  0  0  0  0  0  0  0  0  0  0  0
    8.5690    0.3830   21.7560 C   0  0  0  0  0  0  0  0  0  0  0  0
    9.2680   -0.1230   23.0070 C   0  0  0  0  0  0  0  0  0  0  0  0
   10.2820   -1.1260   23.0060 C   0  0  2  0  0  0  0  0  0  0  0  0
   11.0300   -1.1330   24.2900 C   0  0  0  0  0  0  0  0  0  0  0  0
   12.3450   -1.8110   24.2610 C   0  0  0  0  0  0  0  0  0  0  0  0
   13.1260   -1.5390   23.1780 C   0  0  0  0  0  0  0  0  0  0  0  0
   12.2470   -1.9820   22.0320 C   0  0  0  0  0  0  0  0  0  0  0  0
   11.1920   -1.0450   21.9930 C   0  0  0  0  0  0  0  0  0  0  0  0
    7.3820   -0.3460   21.2880 N   0  0  0  0  0  0  0  0  0  0  0  0
    6.7010    0.2690   20.1910 C   0  0  2  0  0  0  0  0  0  0  0  0
    7.2550   -0.5660   19.3200 C   0  0  0  0  0  0  0  0  0  0  0  0
    6.6750    0.0640   18.4100 C   0  0  0  0  0  0  0  0  0  0  0  0
    5.7860    1.0910   18.2430 N   0  0  0  0  0  0  0  0  0  0  0  0
    4.8640    1.8430   18.5080 C   0  0  0  0  0  0  0  0  0  0  0  0
    4.4110    1.4270   19.7210 C   0  0  0  0  0  0  0  0  0  0  0  0
    5.3130    0.6470   20.5120 C   0  0  0  0  0  0  0  0  0  0  0  0
    4.8230    0.2210   21.7610 C   0  0  0  0  0  0  0  0  0  0  0  0
    4.8750    1.4220   22.7140 C   0  0  0  0  0  0  0  0  0  0  0  0
    4.0020    2.4550   22.6030 N   0  0  0  0  0  0  0  0  0  0  0  0
    2.7210    2.3620   23.4160 C   0  0  0  0  0  0  0  0  0  0  0  0
    2.5080    1.4390   24.4370 O   0  0  0  0  0  0  0  0  0  0  0  0
    1.9320    3.1620   23.0770 N   0  0  0  0  0  0  0  0  0  0  0  0
    0.8060    3.3340   23.8870 C   0  0  1  0  0  0  0  0  0  0  0  0
    0.6050    4.6230   24.4360 C   0  0  0  0  0  0  0  0  0  0  0  0
   -0.7230    4.9410   25.1270 C   0  0  0  0  0  0  0  0  0  0  0  0
   -1.9660    4.5650   24.2860 C   0  0  0  0  0  0  0  0  0  0  0  0
   -1.7390    3.1980   23.7350 C   0  0  0  0  0  0  0  0  0  0  0  0
   -0.4410    2.9270   23.0690 C   0  0  0  0  0  0  0  0  0  0  0  0
    8.4720   -0.4800   23.6750 H   0  0  0  0  0  0  0  0  0  0  0  0
    9.7040    0.7500   23.5070 H   0  0  0  0  0  0  0  0  0  0  0  0
    9.8000   -2.1070   22.9040 H   0  0  0  0  0  0  0  0  0  0  0  0
   11.2790   -0.1080   24.3140 H   0  0  0  0  0  0  0  0  0  0  0  0
   10.5310   -1.3510   25.2200 H   0  0  0  0  0  0  0  0  0  0  0  0
   12.0490   -2.8480   24.3860 H   0  0  0  0  0  0  0  0  0  0  0  0
   12.8820   -1.7090   25.2000 H   0  0  0  0  0  0  0  0  0  0  0  0
   13.2060   -0.4460   23.1320 H   0  0  0  0  0  0  0  0  0  0  0  0
   14.1350   -1.8760   23.0830 H   0  0  0  0  0  0  0  0  0  0  0  0
   12.7810   -2.0630   21.0830 H   0  0  0  0  0  0  0  0  0  0  0  0
   11.8430   -2.9760   22.1780 H   0  0  0  0  0  0  0  0  0  0  0  0
   10.6000   -1.0310   21.0910 H   0  0  0  0  0  0  0  0  0  0  0  0
   11.5640   -0.0210   22.0680 H   0  0  0  0  0  0  0  0  0  0  0  0
    6.8120   -0.8690   21.9540 H   0  0  0  0  0  0  0  0  0  0  0  0
    7.9380   -1.3920   19.5030 H   0  0  0  0  0  0  0  0  0  0  0  0
    4.4440    2.6830   17.9370 H   0  0  0  0  0  0  0  0  0  0  0  0
    3.4060    1.6590   20.0760 H   0  0  0  0  0  0  0  0  0  0  0  0
    5.2080   -0.6250   22.3110 H   0  0  0  0  0  0  0  0  0  0  0  0
    3.7740   -0.0650   21.6140 H   0  0  0  0  0  0  0  0  0  0  0  0
    5.8710    1.8650   22.6270 H   0  0  0  0  0  0  0  0  0  0  0  0
    4.8300    1.0310   23.7320 H   0  0  0  0  0  0  0  0  0  0  0  0
    3.8480    2.8240   21.6700 H   0  0  0  0  0  0  0  0  0  0  0  0
    1.7820    3.2060   22.0820 H   0  0  0  0  0  0  0  0  0  0  0  0
    0.8760    2.6260   24.7220 H   0  0  0  0  0  0  0  0  0  0  0  0
    1.4010    4.7750   25.1710 H   0  0  0  0  0  0  0  0  0  0  0  0
    0.7290    5.3420   23.6300 H   0  0  0  0  0  0  0  0  0  0  0  0
   -0.7450    6.0120   25.3670 H   0  0  0  0  0  0  0  0  0  0  0  0
   -0.7770    4.4130   26.0880 H   0  0  0  0  0  0  0  0  0  0  0  0
   -2.8720    4.6010   24.9020 H   0  0  0  0  0  0  0  0  0  0  0  0
   -2.1010    5.2810   23.4650 H   0  0  0  0  0  0  0  0  0  0  0  0
   -1.8770    2.4630   24.5360 H   0  0  0  0  0  0  0  0  0  0  0  0
   -2.5400    2.9930   23.0120 H   0  0  0  0  0  0  0  0  0  0  0  0
   -0.4060    1.8590   22.8110 H   0  0  0  0  0  0  0  0  0  0  0  0
   -0.4130    3.4570   22.1080 H   0  0  0  0  0  0  0  0  0  0  0  0
  1  2  2  0
  2  3  1  0
  3  4  1  0
  4  5  1  0
  5  6  1  0
  6  7  1  0
  7  8  1  0
  4  9  1  0
  8  9  1  0
  2 10  1  0
 11 10  1  6
 11 12  1  0
 11 13  1  0
 12 13  2  0
 13 14  1  0
 14 15  2  0
 15 16  1  0
 11 17  1  0
 16 17  2  0
 17 18  1  0
 18 19  1  0
 19 20  1  0
 20 21  1  0
 21 22  2  0
 21 23  1  0
 23 24  1  0
 24 25  1  0
 25 26  1  0
 26 27  1  0
 27 28  1  0
 24 29  1  0
 28 29  1  0
  3 30  1  0
  3 31  1  0
  4 32  1  6
  5 33  1  0
  5 34  1  0
  6 35  1  0
  6 36  1  0
  7 37  1  0
  7 38  1  0
  8 39  1  0
  8 40  1  0
  9 41  1  0
  9 42  1  0
 10 43  1  0
 12 44  1  0
 15 45  1  0
 16 46  1  0
 18 47  1  0
 18 48  1  0
 19 49  1  0
 19 50  1  0
 20 51  1  0
 23 52  1  0
 24 53  1  1
 25 54  1  0
 25 55  1  0
 26 56  1  0
 26 57  1  0
 27 58  1  0
 27 59  1  0
 28 60  1  0
 28 61  1  0
 29 62  1  0
 29 63  1  0
M  END
