LIG
     RDKit          3D

 54 57  0  0  0  0  0  0  0  0999 V2000
    9.6545    1.3145   21.1730 O   0  0  0  0  0  0  0  0  0  0  0  0
    9.3080    0.4380   21.8275 C   0  0  0  0  0  0  0  0  0  0  0  0
    7.6120   -0.2560   21.3260 N   0  0  0  0  0  0  0  0  0  0  0  0
    7.0000    0.1710   20.1090 C   0  0  0  0  0  0  0  0  0  0  0  0
    5.7560    0.7730   20.2490 C   0  0  0  0  0  0  0  0  0  0  0  0
    5.1420    1.2080   19.0830 C   0  0  0  0  0  0  0  0  0  0  0  0
    5.8050    1.0240   17.8770 C   0  0  0  0  0  0  0  0  0  0  0  0
    7.0000    0.4540   17.8140 N   0  0  0  0  0  0  0  0  0  0  0  0
    7.6260    0.0260   18.8870 C   0  0  0  0  0  0  0  0  0  0  0  0
    9.4965   -0.3695   22.8935 C   0  0  0  0  0  0  0  0  0  0  0  0
    8.6335   -1.0692   23.4856 C   0  0  0  0  0  0  0  0  0  0  0  0
    8.8060   -1.9509   24.6110 C   0  0  0  0  0  0  0  0  0  0  0  0
    9.7318   -1.9389   25.5889 C   0  0  0  0  0  0  0  0  0  0  0  0
    9.6995   -2.8887   26.6316 N   0  0  0  0  0  0  0  0  0  0  0  0
   10.9354   -3.5163   27.1415 C   0  0  0  0  0  0  0  0  0  0  0  0
   10.8306   -5.0351   27.2627 C   0  0  0  0  0  0  0  0  0  0  0  0
    9.8501   -5.5357   28.3215 C   0  0  0  0  0  0  0  0  0  0  0  0
    9.4730   -4.5086   29.2254 O   0  0  0  0  0  0  0  0  0  0  0  0
    8.4767   -3.6076   28.7255 C   0  0  0  0  0  0  0  0  0  0  0  0
    8.4269   -3.3735   27.2032 C   0  0  0  0  0  0  0  0  0  0  0  0
   10.8104   -0.9594   25.6652 C   0  0  0  0  0  0  0  0  0  0  0  0
   10.8815   -1.3875   22.2165 C   0  0  0  0  0  0  0  0  0  0  0  0
   12.8180   -1.7130   22.6470 C   0  0  0  0  0  0  0  0  0  0  0  0
   13.6100   -0.8590   23.6290 C   0  0  0  0  0  0  0  0  0  0  0  0
   12.7710   -0.1530   24.6900 C   0  0  0  0  0  0  0  0  0  0  0  0
   11.2810   -0.4020   24.5270 C   0  0  0  0  0  0  0  0  0  0  0  0
   10.9230   -0.0800   23.0900 C   0  0  0  0  0  0  0  0  0  0  0  0
    7.3604   -0.7927   22.0041 H   0  0  0  0  0  0  0  0  0  0  0  0
    5.2815    0.9067   21.1927 H   0  0  0  0  0  0  0  0  0  0  0  0
    4.1679    1.6857   19.1034 H   0  0  0  0  0  0  0  0  0  0  0  0
    5.3686    1.3395   16.9441 H   0  0  0  0  0  0  0  0  0  0  0  0
    8.5748   -0.4095   18.7497 H   0  0  0  0  0  0  0  0  0  0  0  0
    7.6241   -1.0873   23.0729 H   0  0  0  0  0  0  0  0  0  0  0  0
    8.0527   -2.7364   24.6358 H   0  0  0  0  0  0  0  0  0  0  0  0
   11.2132   -3.0598   28.0997 H   0  0  0  0  0  0  0  0  0  0  0  0
   11.7683   -3.3137   26.4559 H   0  0  0  0  0  0  0  0  0  0  0  0
   11.8269   -5.4155   27.5213 H   0  0  0  0  0  0  0  0  0  0  0  0
   10.5852   -5.4884   26.2946 H   0  0  0  0  0  0  0  0  0  0  0  0
   10.3343   -6.3251   28.9084 H   0  0  0  0  0  0  0  0  0  0  0  0
    8.9628   -5.9982   27.8729 H   0  0  0  0  0  0  0  0  0  0  0  0
    7.5034   -3.9880   29.0563 H   0  0  0  0  0  0  0  0  0  0  0  0
    8.6348   -2.6519   29.2384 H   0  0  0  0  0  0  0  0  0  0  0  0
    8.1310   -4.2895   26.6787 H   0  0  0  0  0  0  0  0  0  0  0  0
    7.6313   -2.6394   27.0219 H   0  0  0  0  0  0  0  0  0  0  0  0
   11.2402   -0.8809   26.6643 H   0  0  0  0  0  0  0  0  0  0  0  0
   12.7301   -2.8028   22.9038 H   0  0  0  0  0  0  0  0  0  0  0  0
   13.2168   -1.7214   21.5996 H   0  0  0  0  0  0  0  0  0  0  0  0
   14.3633   -1.4947   24.1400 H   0  0  0  0  0  0  0  0  0  0  0  0
   14.2104   -0.1116   23.0713 H   0  0  0  0  0  0  0  0  0  0  0  0
   12.9692    0.9295   24.6319 H   0  0  0  0  0  0  0  0  0  0  0  0
   13.0969   -0.4634   25.6941 H   0  0  0  0  0  0  0  0  0  0  0  0
   10.7301    0.2091   25.2268 H   0  0  0  0  0  0  0  0  0  0  0  0
   11.0673   -1.4411   24.7335 H   0  0  0  0  0  0  0  0  0  0  0  0
   10.0271   -1.6875   23.7364 H   0  0  0  0  0  0  0  0  0  0  0  0
  1  2  2  0
  2  3  1  0
  3  4  1  0
  4  5  4  0
  5  6  4  0
  6  7  4  0
  7  8  4  0
  8  9  4  0
  2 10  1  0
 10 11  2  0
 11 12  1  0
 12 13  2  0
 13 14  1  0
 14 15  1  0
 15 16  1  0
 16 17  1  0
 17 18  1  0
 18 19  1  0
 19 20  1  0
 13 21  1  0
 21 22  2  0
 22 23  1  0
 23 24  1  0
 24 25  1  0
 25 26  1  0
 26 27  1  0
  9  4  4  0
 27 10  1  0
 20 14  1  0
 27 22  1  0
  3 28  1  0
  5 29  1  0
  6 30  1  0
  7 31  1  0
  9 32  1  0
 11 33  1  0
 12 34  1  0
 15 35  1  0
 15 36  1  0
 16 37  1  0
 16 38  1  0
 17 39  1  0
 17 40  1  0
 19 41  1  0
 19 42  1  0
 20 43  1  0
 20 44  1  0
 21 45  1  0
 23 46  1  0
 23 47  1  0
 24 48  1  0
 24 49  1  0
 25 50  1  0
 25 51  1  0
 26 52  1  0
 26 53  1  0
 27 54  1  0
M  END
