
     RDKit          3D

 42 44  0  0  0  0  0  0  0  0999 V2000
   10.1450    2.4140   22.4040 N   0  0  0  0  0  0  0  0  0  0  0  0
    9.4420    1.5330   22.7070 C   0  0  0  0  0  0  0  0  0  0  0  0
    8.7590    1.3360   21.4520 O   0  0  0  0  0  0  0  0  0  0  0  0
    8.7110    0.4560   23.5550 C   0  0  1  0  0  0  0  0  0  0  0  0
    7.3390    0.6300   23.3630 C   0  0  0  0  0  0  0  0  0  0  0  0
    6.9770   -0.4450   22.3420 C   0  0  0  0  0  0  0  0  0  0  0  0
    8.2320   -1.2520   22.2770 C   0  0  0  0  0  0  0  0  0  0  0  0
    8.9920   -0.9670   23.3680 C   0  0  1  0  0  0  0  0  0  0  0  0
   10.4930   -1.0120   22.9880 C   0  0  0  0  0  0  0  0  0  0  0  0
   11.3620   -0.0450   23.5220 C   0  0  0  0  0  0  0  0  0  0  0  0
   12.7710   -0.1680   23.0830 C   0  0  0  0  0  0  0  0  0  0  0  0
   12.9390   -1.4910   22.0310 S   0  0  0  0  0  0  0  0  0  0  0  0
   11.2390   -1.8660   22.1510 C   0  0  0  0  0  0  0  0  0  0  0  0
    8.5010   -2.0490   24.2150 N   0  0  0  0  0  0  0  0  0  0  0  0
    9.2670   -3.1950   24.5720 C   0  0  0  0  0  0  0  0  0  0  0  0
    8.8970   -4.4280   25.0290 C   0  0  0  0  0  0  0  0  0  0  0  0
    7.9250   -4.3460   25.9910 C   0  0  1  0  0  0  0  0  0  0  0  0
    8.4960   -4.3350   27.0710 O   0  0  0  0  0  0  0  0  0  0  0  0
    7.1270   -3.1770   25.8690 C   0  0  0  0  0  0  0  0  0  0  0  0
    7.7260   -1.8980   25.4830 C   0  0  0  0  0  0  0  0  0  0  0  0
   11.1050    2.2380   22.7140 H   0  0  0  0  0  0  0  0  0  0  0  0
    9.8580    3.3880   22.5460 H   0  0  0  0  0  0  0  0  0  0  0  0
    8.9140    0.6710   24.6120 H   0  0  0  0  0  0  0  0  0  0  0  0
    6.9900    1.6300   23.1290 H   0  0  0  0  0  0  0  0  0  0  0  0
    6.8130    0.3920   24.2950 H   0  0  0  0  0  0  0  0  0  0  0  0
    6.6930   -0.0270   21.3720 H   0  0  0  0  0  0  0  0  0  0  0  0
    6.1360   -1.0550   22.6990 H   0  0  0  0  0  0  0  0  0  0  0  0
    8.1000   -2.3020   22.0330 H   0  0  0  0  0  0  0  0  0  0  0  0
    8.8030   -0.8680   21.4200 H   0  0  0  0  0  0  0  0  0  0  0  0
   10.9940    0.7180   24.2000 H   0  0  0  0  0  0  0  0  0  0  0  0
   13.5170    0.5470   23.4470 H   0  0  0  0  0  0  0  0  0  0  0  0
   10.8470   -2.7120   21.5920 H   0  0  0  0  0  0  0  0  0  0  0  0
    9.6690   -2.6650   25.4110 H   0  0  0  0  0  0  0  0  0  0  0  0
   10.0170   -3.3780   23.7990 H   0  0  0  0  0  0  0  0  0  0  0  0
    8.4830   -5.0080   24.2050 H   0  0  0  0  0  0  0  0  0  0  0  0
    9.7750   -4.9300   25.4520 H   0  0  0  0  0  0  0  0  0  0  0  0
    7.3170   -5.2500   26.0790 H   0  0  0  0  0  0  0  0  0  0  0  0
    9.1090   -5.0940   27.0660 H   0  0  0  0  0  0  0  0  0  0  0  0
    6.4700   -3.4090   25.0210 H   0  0  0  0  0  0  0  0  0  0  0  0
    6.4040   -3.0950   26.6730 H   0  0  0  0  0  0  0  0  0  0  0  0
    7.0510   -1.0420   25.3710 H   0  0  0  0  0  0  0  0  0  0  0  0
    8.3840   -1.5990   26.3060 H   0  0  0  0  0  0  0  0  0  0  0  0
  1  2  1  0
  2  3  2  0
  2  4  1  0
  4  5  1  0
  5  6  1  0
  6  7  1  0
  4  8  1  0
  7  8  1  0
  8  9  1  6
  9 10  1  0
 10 11  2  0
 11 12  1  0
  9 13  2  0
 12 13  1  0
  8 14  1  0
 14 15  1  0
 15 16  1  0
 16 17  1  0
 17 18  1  0
 17 19  1  0
 14 20  1  0
 19 20  1  0
  1 21  1  0
  1 22  1  0
  4 23  1  1
  5 24  1  0
  5 25  1  0
  6 26  1  0
  6 27  1  0
  7 28  1  0
  7 29  1  0
 10 30  1  0
 11 31  1  0
 13 32  1  0
 15 33  1  0
 15 34  1  0
 16 35  1  0
 16 36  1  0
 17 37  1  1
 18 38  1  0
 19 39  1  0
 19 40  1  0
 20 41  1  0
 20 42  1  0
M  END
