
     RDKit          3D

 45 48  0  0  0  0  0  0  0  0999 V2000
   10.9850    5.4920   22.6540 N   0  0  0  0  0  0  0  0  0  0  0  0
    9.7860    4.4700   23.3220 S   0  0  1  0  0  0  0  0  0  0  0  0
    9.6860    4.8500   24.7030 O   0  0  0  0  0  0  0  0  0  0  0  0
    8.6430    4.6860   22.4850 O   0  0  0  0  0  0  0  0  0  0  0  0
   10.4130    2.7610   23.0410 C   0  0  1  0  0  0  0  0  0  0  0  0
   11.8690    2.8190   22.6180 C   0  0  0  0  0  0  0  0  0  0  0  0
   12.7020    1.6650   22.7190 C   0  0  0  0  0  0  0  0  0  0  0  0
   12.4100    0.5010   23.6210 C   0  0  2  0  0  0  0  0  0  0  0  0
   13.0510   -0.7540   23.0210 C   0  0  0  0  0  0  0  0  0  0  0  0
   12.2730   -1.7110   22.4170 C   0  0  0  0  0  0  0  0  0  0  0  0
   11.0020   -1.0470   22.7480 C   0  0  0  0  0  0  0  0  0  0  0  0
   10.4150   -0.1930   23.2070 N   0  0  0  0  0  0  0  0  0  0  0  0
   11.0850    0.5700   24.0770 C   0  0  2  0  0  0  0  0  0  0  0  0
   10.5530    1.9670   24.2780 C   0  0  0  0  0  0  0  0  0  0  0  0
    9.0820   -0.1820   23.5180 C   0  0  2  0  0  0  0  0  0  0  0  0
    8.3170   -1.1620   22.9190 C   0  0  0  0  0  0  0  0  0  0  0  0
    7.0930   -0.5780   22.6050 C   0  0  0  0  0  0  0  0  0  0  0  0
    7.2420    0.7920   22.7950 C   0  0  0  0  0  0  0  0  0  0  0  0
    8.5290    1.0790   23.2110 C   0  0  2  0  0  0  0  0  0  0  0  0
    9.2680    1.9590   22.3490 C   0  0  0  0  0  0  0  0  0  0  0  0
    8.9760    2.0480   21.1540 O   0  0  0  0  0  0  0  0  0  0  0  0
   10.7840    5.5670   21.6460 H   0  0  0  0  0  0  0  0  0  0  0  0
   10.9780    6.3940   23.1320 H   0  0  0  0  0  0  0  0  0  0  0  0
   11.9500    3.2440   21.6140 H   0  0  0  0  0  0  0  0  0  0  0  0
   12.3330    3.5870   23.2460 H   0  0  0  0  0  0  0  0  0  0  0  0
   13.7450    1.9450   22.8160 H   0  0  0  0  0  0  0  0  0  0  0  0
   12.6250    1.1820   21.7940 H   0  0  0  0  0  0  0  0  0  0  0  0
   12.9800    0.6570   24.5150 H   0  0  0  0  0  0  0  0  0  0  0  0
   13.8000   -1.1740   23.6830 H   0  0  0  0  0  0  0  0  0  0  0  0
   13.6620   -0.3760   22.1930 H   0  0  0  0  0  0  0  0  0  0  0  0
   12.4230   -2.7420   22.7370 H   0  0  0  0  0  0  0  0  0  0  0  0
   12.4250   -1.6970   21.3320 H   0  0  0  0  0  0  0  0  0  0  0  0
   10.5670   -1.8520   23.3400 H   0  0  0  0  0  0  0  0  0  0  0  0
   10.4670   -0.9940   21.7850 H   0  0  0  0  0  0  0  0  0  0  0  0
   11.0460    0.0280   25.0320 H   0  0  0  0  0  0  0  0  0  0  0  0
    9.6690    2.1130   24.8930 H   0  0  0  0  0  0  0  0  0  0  0  0
   11.3320    2.4580   24.7670 H   0  0  0  0  0  0  0  0  0  0  0  0
    9.0100   -0.2900   24.6080 H   0  0  0  0  0  0  0  0  0  0  0  0
    8.8010   -1.5390   22.0170 H   0  0  0  0  0  0  0  0  0  0  0  0
    8.1720   -2.0100   23.6010 H   0  0  0  0  0  0  0  0  0  0  0  0
    6.9510   -0.7430   21.5280 H   0  0  0  0  0  0  0  0  0  0  0  0
    6.2360   -1.0510   23.0730 H   0  0  0  0  0  0  0  0  0  0  0  0
    6.5390    1.1360   23.5710 H   0  0  0  0  0  0  0  0  0  0  0  0
    7.0060    1.3280   21.8690 H   0  0  0  0  0  0  0  0  0  0  0  0
    8.4460    1.5920   24.1750 H   0  0  0  0  0  0  0  0  0  0  0  0
  2  1  1  6
  2  3  2  0
  2  4  2  0
  2  5  1  0
  5  6  1  0
  6  7  1  0
  7  8  1  0
  8  9  1  0
  9 10  1  0
 10 11  1  0
 11 12  1  0
  8 13  1  0
 12 13  1  0
  5 14  1  0
 13 14  1  0
 12 15  1  0
 15 16  1  0
 16 17  1  0
 17 18  1  0
 15 19  1  0
 18 19  1  0
  5 20  1  6
 19 20  1  0
 20 21  2  0
  1 22  1  0
  1 23  1  0
  6 24  1  0
  6 25  1  0
  7 26  1  0
  7 27  1  0
  8 28  1  1
  9 29  1  0
  9 30  1  0
 10 31  1  0
 10 32  1  0
 11 33  1  0
 11 34  1  0
 13 35  1  1
 14 36  1  0
 14 37  1  0
 15 38  1  1
 16 39  1  0
 16 40  1  0
 17 41  1  0
 17 42  1  0
 18 43  1  0
 18 44  1  0
 19 45  1  1
M  END
