LIG
     RDKit          3D

 37 39  0  0  0  0  0  0  0  0999 V2000
    9.3350   -5.3670   26.2750 C   0  0  0  0  0  0  0  0  0  0  0  0
    9.0910   -3.9920   25.6370 C   0  0  0  0  0  0  0  0  0  0  0  0
    8.5200   -2.9160   26.2860 N   0  0  0  0  0  0  0  0  0  0  0  0
    8.4300   -1.7410   25.3910 N   0  0  0  0  0  0  0  0  0  0  0  0
    8.9500   -2.0240   24.1390 C   0  0  0  0  0  0  0  0  0  0  0  0
    8.8510   -1.0305   22.9905 C   0  0  0  0  0  0  0  0  0  0  0  0
    7.3150   -0.3490   23.3420 C   0  0  0  0  0  0  0  0  0  0  0  0
    7.6990    1.1640   23.7480 C   0  0  0  0  0  0  0  0  0  0  0  0
    9.0240    1.2620   23.5980 C   0  0  2  0  0  0  0  0  0  0  0  0
    9.4080    1.9150   22.2270 C   0  0  0  0  0  0  0  0  0  0  0  0
   10.1930    3.1570   22.2260 N   0  0  0  0  0  0  0  0  0  0  0  0
    9.0780    1.4060   21.1760 O   0  0  0  0  0  0  0  0  0  0  0  0
   10.0400    0.0290   23.7355 C   0  0  0  0  0  0  0  0  0  0  0  0
   11.9135    0.9035   23.4130 C   0  0  0  0  0  0  0  0  0  0  0  0
   13.0570    0.4235   22.8695 C   0  0  0  0  0  0  0  0  0  0  0  0
   12.5030   -0.7650   22.1110 C   0  0  0  0  0  0  0  0  0  0  0  0
   13.2990   -1.2735   21.6890 F   0  0  0  0  0  0  0  0  0  0  0  0
   11.3470   -1.4015   22.2910 C   0  0  0  0  0  0  0  0  0  0  0  0
   10.5840   -0.4150   22.9720 N   0  0  0  0  0  0  0  0  0  0  0  0
    9.4770   -3.5790   24.0930 S   0  0  0  0  0  0  0  0  0  0  0  0
   10.3942   -5.6026   26.2381 H   0  0  0  0  0  0  0  0  0  0  0  0
    8.7668   -6.1223   25.7407 H   0  0  0  0  0  0  0  0  0  0  0  0
    9.0106   -5.3430   27.3111 H   0  0  0  0  0  0  0  0  0  0  0  0
    9.0633   -0.2027   24.5768 H   0  0  0  0  0  0  0  0  0  0  0  0
    6.9376   -0.8572   24.1566 H   0  0  0  0  0  0  0  0  0  0  0  0
    6.7411   -0.3476   22.4878 H   0  0  0  0  0  0  0  0  0  0  0  0
    7.0423    1.7830   23.1251 H   0  0  0  0  0  0  0  0  0  0  0  0
    7.3287    1.2608   24.7749 H   0  0  0  0  0  0  0  0  0  0  0  0
    9.4802    2.0749   24.3101 H   0  0  0  0  0  0  0  0  0  0  0  0
   10.3765    3.5285   23.1248 H   0  0  0  0  0  0  0  0  0  0  0  0
   10.3487    3.6514   21.3913 H   0  0  0  0  0  0  0  0  0  0  0  0
   10.3130    0.8006   22.0344 H   0  0  0  0  0  0  0  0  0  0  0  0
   11.9962    1.3564   24.4949 H   0  0  0  0  0  0  0  0  0  0  0  0
   11.4653    1.8580   22.8942 H   0  0  0  0  0  0  0  0  0  0  0  0
   13.9748    0.6348   22.8412 H   0  0  0  0  0  0  0  0  0  0  0  0
   10.8570   -1.6243   21.3619 H   0  0  0  0  0  0  0  0  0  0  0  0
   11.4541   -2.2862   22.8859 H   0  0  0  0  0  0  0  0  0  0  0  0
  1  2  1  0
  2  3  4  0
  3  4  4  0
  4  5  4  0
  5  6  1  0
  6  7  1  0
  7  8  1  0
  8  9  1  0
  9 10  1  0
 10 11  1  0
 10 12  2  0
  9 13  1  0
 13 14  1  0
 14 15  1  0
 15 16  2  0
 16 17  1  0
 16 18  1  0
 18 19  1  0
  5 20  4  0
 20  2  4  0
 19  6  1  0
 19 13  1  0
  1 21  1  0
  1 22  1  0
  1 23  1  0
  6 24  1  0
  7 25  1  0
  7 26  1  0
  8 27  1  0
  8 28  1  0
  9 29  1  1
 11 30  1  0
 11 31  1  0
 13 32  1  0
 14 33  1  0
 14 34  1  0
 15 35  1  0
 18 36  1  0
 18 37  1  0
M  END
