LIG
     RDKit          3D

 42 44  0  0  0  0  0  0  0  0999 V2000
   10.2712    0.7986   19.1298 N   0  0  0  0  0  0  0  0  0  0  0  0
    9.8798    0.1812   20.0308 C   0  0  0  0  0  0  0  0  0  0  0  0
    9.3903   -0.5621   21.2110 C   0  0  0  0  0  0  0  0  0  0  0  0
   10.5683   -1.1016   21.9929 C   0  0  0  0  0  0  0  0  0  0  0  0
   10.7375   -0.6000   23.3915 C   0  0  0  0  0  0  0  0  0  0  0  0
   10.1805    0.0665   23.9640 C   0  0  0  0  0  0  0  0  0  0  0  0
   11.9755    0.8210   23.6600 C   0  0  0  0  0  0  0  0  0  0  0  0
    8.5414    0.3625   22.0641 C   0  0  0  0  0  0  0  0  0  0  0  0
    9.8330    1.0540   25.2470 C   0  0  0  0  0  0  0  0  0  0  0  0
    8.4500    0.7150   24.9220 N   0  0  0  0  0  0  0  0  0  0  0  0
    7.7010    1.3160   23.8815 C   0  0  0  0  0  0  0  0  0  0  0  0
    8.5980    1.8640   23.5200 O   0  0  0  0  0  3  0  0  0  0  0  0
    9.4080    1.9150   22.2270 C   0  0  0  0  0  0  0  0  0  0  0  0
   10.1930    3.1570   22.2260 N   0  0  0  0  0  0  0  0  0  0  0  0
    9.0780    1.4060   21.1760 O   0  0  0  0  0  0  0  0  0  0  0  0
    6.8255    0.3075   23.5735 N   0  0  0  0  0  4  0  0  0  0  0  0
    5.6140    1.6470   22.6990 C   0  0  0  0  0  0  0  0  0  0  0  0
    4.2210    1.0320   22.4570 C   0  0  0  0  0  0  0  0  0  0  0  0
    3.4750    1.0690   23.6570 O   0  0  0  0  0  0  0  0  0  0  0  0
    4.0500    0.3480   24.7320 C   0  0  0  0  0  0  0  0  0  0  0  0
    5.4800    0.8530   25.0320 C   0  0  0  0  0  0  0  0  0  0  0  0
    8.6870   -1.0390   23.0120 C   0  0  0  0  0  0  0  0  0  0  0  0
    8.7689   -1.4059   20.8894 H   0  0  0  0  0  0  0  0  0  0  0  0
   11.2138   -1.8052   21.4637 H   0  0  0  0  0  0  0  0  0  0  0  0
   11.7641   -1.1975   23.6969 H   0  0  0  0  0  0  0  0  0  0  0  0
   11.8993    1.5826   23.0269 H   0  0  0  0  0  0  0  0  0  0  0  0
    7.6628    0.7834   21.5716 H   0  0  0  0  0  0  0  0  0  0  0  0
   10.0239    1.9789   24.9944 H   0  0  0  0  0  0  0  0  0  0  0  0
   10.0859    0.5815   26.0719 H   0  0  0  0  0  0  0  0  0  0  0  0
    8.0726   -0.1166   25.3316 H   0  0  0  0  0  0  0  0  0  0  0  0
    9.8777    3.8710   22.8167 H   0  0  0  0  0  0  0  0  0  0  0  0
    9.7941    3.9309   22.6710 H   0  0  0  0  0  0  0  0  0  0  0  0
    6.1929    1.8492   21.8454 H   0  0  0  0  0  0  0  0  0  0  0  0
    5.6733    2.3795   23.4607 H   0  0  0  0  0  0  0  0  0  0  0  0
    4.3003    0.0046   22.0865 H   0  0  0  0  0  0  0  0  0  0  0  0
    3.6952    1.6158   21.6971 H   0  0  0  0  0  0  0  0  0  0  0  0
    4.0745   -0.7107   24.4917 H   0  0  0  0  0  0  0  0  0  0  0  0
    3.4179    0.4795   25.6041 H   0  0  0  0  0  0  0  0  0  0  0  0
    5.6767    1.8923   24.9957 H   0  0  0  0  0  0  0  0  0  0  0  0
    6.0056    0.3492   25.8127 H   0  0  0  0  0  0  0  0  0  0  0  0
    8.4307   -1.6869   23.6470 H   0  0  0  0  0  0  0  0  0  0  0  0
    8.6549   -0.8126   22.1350 H   0  0  0  0  0  0  0  0  0  0  0  0
  1  2  3  0
  2  3  1  0
  3  4  1  0
  4  5  2  0
  5  6  1  0
  6  7  1  0
  7  8  2  0
  6  9  1  0
  9 10  1  0
 10 11  1  0
 11 12  2  3
 12 13  1  0
 13 14  1  0
 13 15  2  0
 11 16  1  0
 16 17  1  0
 17 18  1  0
 18 19  1  0
 19 20  1  0
 20 21  1  0
 16 22  1  0
  8  3  1  0
 21 16  1  0
 22  6  1  0
  3 23  1  0
  4 24  1  0
  5 25  1  0
  7 26  1  0
  8 27  1  0
  9 28  1  0
  9 29  1  0
 10 30  1  0
 14 31  1  0
 14 32  1  0
 17 33  1  0
 17 34  1  0
 18 35  1  0
 18 36  1  0
 20 37  1  0
 20 38  1  0
 21 39  1  0
 21 40  1  0
 22 41  1  0
 22 42  1  0
M  CHG  2  12   1  16   1
M  END
