
     RDKit          3D

 40 42  0  0  0  0  0  0  0  0999 V2000
    5.6000    0.9890   22.1520 C   0  0  0  0  0  0  0  0  0  0  0  0
    5.9320    0.6230   20.7390 C   0  0  0  0  0  0  0  0  0  0  0  0
    4.9860    1.0320   19.7810 C   0  0  0  0  0  0  0  0  0  0  0  0
    5.2440    0.7050   18.3270 C   0  0  0  0  0  0  0  0  0  0  0  0
    6.3320    0.0410   17.9530 N   0  0  0  0  0  0  0  0  0  0  0  0
    7.2130   -0.3340   18.9240 C   0  0  0  0  0  0  0  0  0  0  0  0
    7.0960   -0.0830   20.2850 C   0  0  0  0  0  0  0  0  0  0  0  0
    8.2160   -0.5980   20.9910 N   0  0  0  0  0  0  0  0  0  0  0  0
    8.2350   -0.7190   22.4020 C   0  0  2  0  0  0  0  0  0  0  0  0
    7.1880   -0.2690   23.2150 C   0  0  0  0  0  0  0  0  0  0  0  0
    7.6250    1.0240   23.8410 C   0  0  0  0  0  0  0  0  0  0  0  0
    9.0370    1.2420   23.3060 C   0  0  2  0  0  0  0  0  0  0  0  0
    9.2160    2.0240   22.1650 C   0  0  0  0  0  0  0  0  0  0  0  0
    9.9990    3.2490   22.3740 N   0  0  0  0  0  0  0  0  0  0  0  0
    8.7750    1.7500   21.0580 O   0  0  0  0  0  0  0  0  0  0  0  0
    9.4080   -0.2530   23.1290 C   0  0  2  0  0  0  0  0  0  0  0  0
   10.7320   -0.5160   22.7860 C   0  0  0  0  0  0  0  0  0  0  0  0
   11.7490    0.3820   23.1180 C   0  0  0  0  0  0  0  0  0  0  0  0
   13.0280    0.0300   22.7390 C   0  0  0  0  0  0  0  0  0  0  0  0
   13.0200   -1.5260   21.9100 S   0  0  0  0  0  0  0  0  0  0  0  0
   11.3020   -1.6130   22.1140 C   0  0  0  0  0  0  0  0  0  0  0  0
    5.6650    0.1350   22.8330 H   0  0  0  0  0  0  0  0  0  0  0  0
    4.5710    1.3580   22.1840 H   0  0  0  0  0  0  0  0  0  0  0  0
    6.2780    1.7790   22.4830 H   0  0  0  0  0  0  0  0  0  0  0  0
    4.0830    1.5720   20.0590 H   0  0  0  0  0  0  0  0  0  0  0  0
    4.5580    0.9930   17.5360 H   0  0  0  0  0  0  0  0  0  0  0  0
    8.0560   -0.8690   18.5060 H   0  0  0  0  0  0  0  0  0  0  0  0
    8.9340   -1.0680   20.4300 H   0  0  0  0  0  0  0  0  0  0  0  0
    8.4150   -1.7930   22.4390 H   0  0  0  0  0  0  0  0  0  0  0  0
    6.3320   -0.2060   22.5510 H   0  0  0  0  0  0  0  0  0  0  0  0
    6.9040   -1.0340   23.9380 H   0  0  0  0  0  0  0  0  0  0  0  0
    7.6160    0.9560   24.9360 H   0  0  0  0  0  0  0  0  0  0  0  0
    6.9660    1.8520   23.5520 H   0  0  0  0  0  0  0  0  0  0  0  0
    9.6520    1.6590   24.1130 H   0  0  0  0  0  0  0  0  0  0  0  0
    9.9700    3.9670   21.6340 H   0  0  0  0  0  0  0  0  0  0  0  0
    9.9590    3.6120   23.3330 H   0  0  0  0  0  0  0  0  0  0  0  0
    9.2820   -0.6800   24.1340 H   0  0  0  0  0  0  0  0  0  0  0  0
   11.4300    1.2840   23.6480 H   0  0  0  0  0  0  0  0  0  0  0  0
   13.9440    0.5770   22.8920 H   0  0  0  0  0  0  0  0  0  0  0  0
   10.7960   -2.4870   21.7180 H   0  0  0  0  0  0  0  0  0  0  0  0
  1  2  1  0
  2  3  2  0
  3  4  1  0
  4  5  2  0
  5  6  1  0
  2  7  1  0
  6  7  2  0
  7  8  1  0
  8  9  1  0
  9 10  1  0
 10 11  1  0
 11 12  1  0
 12 13  1  0
 13 14  1  0
 13 15  2  0
  9 16  1  0
 12 16  1  0
 16 17  1  0
 17 18  1  0
 18 19  2  0
 19 20  1  0
 17 21  2  0
 20 21  1  0
  1 22  1  0
  1 23  1  0
  1 24  1  0
  3 25  1  0
  4 26  1  0
  6 27  1  0
  8 28  1  0
  9 29  1  6
 10 30  1  0
 10 31  1  0
 11 32  1  0
 11 33  1  0
 12 34  1  1
 14 35  1  0
 14 36  1  0
 16 37  1  1
 18 38  1  0
 19 39  1  0
 21 40  1  0
M  END
