
     RDKit          3D

 37 39  0  0  0  0  0  0  0  0999 V2000
    8.8600   -5.7630   25.9380 C   0  0  0  0  0  0  0  0  0  0  0  0
    8.6640   -4.3120   25.7020 C   0  0  0  0  0  0  0  0  0  0  0  0
    8.0900   -3.4600   26.6030 N   0  0  0  0  0  0  0  0  0  0  0  0
    8.1330   -2.1230   26.0250 N   0  0  0  0  0  0  0  0  0  0  0  0
    8.7230   -2.0890   24.7520 C   0  0  0  0  0  0  0  0  0  0  0  0
    8.9180   -0.8090   24.0130 C   0  0  2  0  0  0  0  0  0  0  0  0
    7.8000   -0.3190   23.2000 C   0  0  0  0  0  0  0  0  0  0  0  0
    7.7180    1.0420   23.1280 C   0  0  0  0  0  0  0  0  0  0  0  0
    9.1460    1.6140   23.2180 C   0  0  2  0  0  0  0  0  0  0  0  0
    9.2630    2.5610   22.2250 C   0  0  0  0  0  0  0  0  0  0  0  0
    9.8260    3.7680   22.3630 N   0  0  0  0  0  0  0  0  0  0  0  0
    8.7460    2.0750   21.0030 O   0  0  0  0  0  0  0  0  0  0  0  0
   10.2800    0.6370   22.8420 C   0  0  1  0  0  0  0  0  0  0  0  0
   11.6770    0.9460   23.4050 C   0  0  0  0  0  0  0  0  0  0  0  0
   12.6470    0.1580   22.8260 C   0  0  0  0  0  0  0  0  0  0  0  0
   12.2860   -1.0880   22.3340 C   0  0  0  0  0  0  0  0  0  0  0  0
   13.2150   -1.8650   21.7490 F   0  0  0  0  0  0  0  0  0  0  0  0
   10.9530   -1.5000   22.4650 C   0  0  0  0  0  0  0  0  0  0  0  0
   10.2750   -0.5790   23.4220 N   0  0  0  0  0  0  0  0  0  0  0  0
    9.2230   -3.6160   24.1370 S   0  0  0  0  0  0  0  0  0  0  0  0
    9.9030   -6.0080   26.1620 H   0  0  0  0  0  0  0  0  0  0  0  0
    8.5810   -6.2640   25.0170 H   0  0  0  0  0  0  0  0  0  0  0  0
    8.2260   -6.0950   26.7630 H   0  0  0  0  0  0  0  0  0  0  0  0
    8.9890   -0.0860   24.8350 H   0  0  0  0  0  0  0  0  0  0  0  0
    6.8870   -0.6310   23.7250 H   0  0  0  0  0  0  0  0  0  0  0  0
    7.8250   -0.9140   22.2920 H   0  0  0  0  0  0  0  0  0  0  0  0
    7.2930    1.3260   22.1600 H   0  0  0  0  0  0  0  0  0  0  0  0
    7.0860    1.4290   23.9340 H   0  0  0  0  0  0  0  0  0  0  0  0
    9.3420    2.0460   24.2060 H   0  0  0  0  0  0  0  0  0  0  0  0
    9.6930    4.2400   23.2480 H   0  0  0  0  0  0  0  0  0  0  0  0
    9.8740    4.3360   21.5270 H   0  0  0  0  0  0  0  0  0  0  0  0
   10.3190    0.5860   21.7560 H   0  0  0  0  0  0  0  0  0  0  0  0
   11.6560    0.6510   24.4590 H   0  0  0  0  0  0  0  0  0  0  0  0
   11.8270    2.0300   23.3830 H   0  0  0  0  0  0  0  0  0  0  0  0
   13.6960    0.4330   22.7050 H   0  0  0  0  0  0  0  0  0  0  0  0
   10.3460   -1.4340   21.5630 H   0  0  0  0  0  0  0  0  0  0  0  0
   10.7830   -2.5190   22.8100 H   0  0  0  0  0  0  0  0  0  0  0  0
  1  2  1  0
  2  3  2  0
  3  4  1  0
  4  5  2  0
  5  6  1  0
  6  7  1  0
  7  8  1  0
  8  9  1  0
  9 10  1  0
 10 11  1  0
 10 12  2  0
  9 13  1  0
 13 14  1  0
 14 15  1  0
 15 16  2  0
 16 17  1  0
 16 18  1  0
  6 19  1  0
 13 19  1  0
 18 19  1  0
  2 20  1  0
  5 20  1  0
  1 21  1  0
  1 22  1  0
  1 23  1  0
  6 24  1  1
  7 25  1  0
  7 26  1  0
  8 27  1  0
  8 28  1  0
  9 29  1  1
 11 30  1  0
 11 31  1  0
 13 32  1  6
 14 33  1  0
 14 34  1  0
 15 35  1  0
 18 36  1  0
 18 37  1  0
M  END
