
     RDKit          3D

 34 36  0  0  0  0  0  0  0  0999 V2000
    9.0180   -5.2340   25.8540 C   0  0  0  0  0  0  0  0  0  0  0  0
    8.8070   -3.8480   25.2810 C   0  0  0  0  0  0  0  0  0  0  0  0
    8.3380   -2.8580   26.1140 N   0  0  0  0  0  0  0  0  0  0  0  0
    8.2350   -1.6100   25.3420 N   0  0  0  0  0  0  0  0  0  0  0  0
    8.6270   -1.7680   23.9950 C   0  0  0  0  0  0  0  0  0  0  0  0
    8.6270   -0.6490   22.9170 C   0  0  0  0  0  0  0  0  0  0  0  0
    9.9750   -0.1820   22.6500 N   0  0  0  0  0  0  0  0  0  0  0  0
   11.1900   -0.7330   23.1120 C   0  0  0  0  0  0  0  0  0  0  0  0
   12.3890   -0.2090   22.5600 C   0  0  0  0  0  0  0  0  0  0  0  0
   13.2460   -1.0540   21.9160 F   0  0  0  0  0  0  0  0  0  0  0  0
   12.6570    1.3440   22.6410 C   0  0  0  0  0  0  0  0  0  0  0  0
   12.3300    2.7200   23.0150 C   0  0  0  0  0  0  0  0  0  0  0  0
   10.9330    3.3880   23.0050 C   0  0  0  0  0  0  0  0  0  0  0  0
   10.7480    5.0260   23.4700 S   0  0  2  0  0  0  0  0  0  0  0  0
   11.3730    5.8840   22.1850 N   0  0  0  0  0  0  0  0  0  0  0  0
   11.6240    5.3060   24.5840 O   0  0  0  0  0  0  0  0  0  0  0  0
    9.3360    5.3200   23.5640 O   0  0  0  0  0  0  0  0  0  0  0  0
    9.9060    2.3460   22.5560 C   0  0  0  0  0  0  0  0  0  0  0  0
   10.3930    1.1260   22.8460 C   0  0  0  0  0  0  0  0  0  0  0  0
   11.5610    1.2200   23.4590 C   0  0  0  0  0  0  0  0  0  0  0  0
    9.1110   -3.3820   23.6480 S   0  0  0  0  0  0  0  0  0  0  0  0
    8.8780   -5.2560   26.9400 H   0  0  0  0  0  0  0  0  0  0  0  0
    8.2930   -5.9140   25.4050 H   0  0  0  0  0  0  0  0  0  0  0  0
   10.0310   -5.5700   25.6240 H   0  0  0  0  0  0  0  0  0  0  0  0
    7.9880    0.1490   23.3020 H   0  0  0  0  0  0  0  0  0  0  0  0
    8.2130   -0.8750   21.9400 H   0  0  0  0  0  0  0  0  0  0  0  0
   11.1660   -0.6770   24.1800 H   0  0  0  0  0  0  0  0  0  0  0  0
   11.0730   -1.8020   22.9740 H   0  0  0  0  0  0  0  0  0  0  0  0
   13.1620    3.3590   23.3160 H   0  0  0  0  0  0  0  0  0  0  0  0
   10.8490    5.7160   21.3350 H   0  0  0  0  0  0  0  0  0  0  0  0
   12.3880    5.7820   22.1030 H   0  0  0  0  0  0  0  0  0  0  0  0
    8.9550    2.5370   22.0540 H   0  0  0  0  0  0  0  0  0  0  0  0
   11.7850    0.4320   24.1730 H   0  0  0  0  0  0  0  0  0  0  0  0
   11.4920    2.0970   24.0930 H   0  0  0  0  0  0  0  0  0  0  0  0
  1  2  1  0
  2  3  2  0
  3  4  1  0
  4  5  2  0
  5  6  1  0
  6  7  1  0
  7  8  1  0
  8  9  1  0
  9 10  1  0
  9 11  2  0
 11 12  1  0
 12 13  2  0
 13 14  1  0
 14 15  1  6
 14 16  2  0
 14 17  2  0
 13 18  1  0
  7 19  1  0
 18 19  2  0
 11 20  1  0
 19 20  1  0
  2 21  1  0
  5 21  1  0
  1 22  1  0
  1 23  1  0
  1 24  1  0
  6 25  1  0
  6 26  1  0
  8 27  1  0
  8 28  1  0
 12 29  1  0
 15 30  1  0
 15 31  1  0
 18 32  1  0
 20 33  1  0
 20 34  1  0
M  END
