
     RDKit          3D

 23 23  0  0  0  0  0  0  0  0999 V2000
   13.3630   -2.4540   24.3040 C   0  0  0  0  0  0  0  0  0  0  0  0
   13.0020   -1.1040   24.5760 O   0  0  0  0  0  0  0  0  0  0  0  0
   12.8480   -0.3600   23.4220 C   0  0  0  0  0  0  0  0  0  0  0  0
   13.3410   -0.8180   22.1880 O   0  0  0  0  0  0  0  0  0  0  0  0
   12.2020    0.8880   23.4560 C   0  0  0  0  0  0  0  0  0  0  0  0
   10.8140    1.0390   24.0090 C   0  0  0  0  0  0  0  0  0  0  0  0
   10.2830    2.4110   24.0140 C   0  0  0  0  0  0  0  0  0  0  0  0
   10.8720    3.5770   23.5800 C   0  0  0  0  0  0  0  0  0  0  0  0
   10.0830    5.1690   23.7060 S   0  0  2  0  0  0  0  0  0  0  0  0
    8.8770    5.0790   22.5490 N   0  0  0  0  0  0  0  0  0  0  0  0
   11.0030    6.1860   23.2380 O   0  0  0  0  0  0  0  0  0  0  0  0
    9.3870    5.2740   24.9810 O   0  0  0  0  0  0  0  0  0  0  0  0
   12.2740    3.3630   23.0010 C   0  0  0  0  0  0  0  0  0  0  0  0
   12.8280    2.0460   22.9880 C   0  0  0  0  0  0  0  0  0  0  0  0
   14.0270   -2.7920   25.1050 H   0  0  0  0  0  0  0  0  0  0  0  0
   12.4820   -3.1050   24.3000 H   0  0  0  0  0  0  0  0  0  0  0  0
   13.8890   -2.5410   23.3500 H   0  0  0  0  0  0  0  0  0  0  0  0
   10.2570    0.1760   24.3880 H   0  0  0  0  0  0  0  0  0  0  0  0
    9.2720    2.5260   24.4290 H   0  0  0  0  0  0  0  0  0  0  0  0
    9.2310    5.1040   21.5850 H   0  0  0  0  0  0  0  0  0  0  0  0
    8.3060    4.2500   22.7220 H   0  0  0  0  0  0  0  0  0  0  0  0
   12.7720    4.2600   22.6400 H   0  0  0  0  0  0  0  0  0  0  0  0
   13.8260    2.0310   22.5740 H   0  0  0  0  0  0  0  0  0  0  0  0
  1  2  1  0
  2  3  1  0
  3  4  2  0
  3  5  1  0
  5  6  2  0
  6  7  1  0
  7  8  2  0
  8  9  1  0
  9 10  1  6
  9 11  2  0
  9 12  2  0
  8 13  1  0
  5 14  1  0
 13 14  2  0
  1 15  1  0
  1 16  1  0
  1 17  1  0
  6 18  1  0
  7 19  1  0
 10 20  1  0
 10 21  1  0
 13 22  1  0
 14 23  1  0
M  END
