
     RDKit          3D

 38 40  0  0  0  0  0  0  0  0999 V2000
    9.1930    5.6740   22.7350 N   0  0  0  0  0  0  0  0  0  0  0  0
   10.5800    5.6030   23.7220 S   0  0  2  0  0  0  0  0  0  0  0  0
   10.1020    5.7040   25.0800 O   0  0  0  0  0  0  0  0  0  0  0  0
   11.5020    6.5630   23.1740 O   0  0  0  0  0  0  0  0  0  0  0  0
   11.1750    3.9430   23.3600 C   0  0  0  0  0  0  0  0  0  0  0  0
   12.6110    3.6560   23.0820 C   0  0  0  0  0  0  0  0  0  0  0  0
   13.1150    2.3860   22.8090 C   0  0  0  0  0  0  0  0  0  0  0  0
   12.1830    1.2170   22.7680 C   0  0  0  0  0  0  0  0  0  0  0  0
   12.5280   -0.1750   22.5010 C   0  0  0  0  0  0  0  0  0  0  0  0
   11.6290   -1.2100   22.4120 C   0  0  0  0  0  0  0  0  0  0  0  0
   10.0980   -0.9820   22.5940 C   0  0  0  0  0  0  0  0  0  0  0  0
    8.9640   -1.2190   22.6400 N   0  0  0  0  0  0  0  0  0  0  0  0
    8.2530   -0.4810   21.6690 C   0  0  0  0  0  0  0  0  0  0  0  0
    8.6940    0.7890   21.1970 O   0  0  0  0  0  0  0  0  0  0  0  0
    7.1130   -1.0190   21.1800 N   0  0  0  0  0  0  0  0  0  0  0  0
    6.4910   -0.2800   20.1980 C   0  0  0  0  0  0  0  0  0  0  0  0
    5.2320    0.5290   20.4320 C   0  0  0  0  0  0  0  0  0  0  0  0
    4.6790    1.2510   19.3730 C   0  0  0  0  0  0  0  0  0  0  0  0
    5.2550    1.2560   18.0860 C   0  0  0  0  0  0  0  0  0  0  0  0
    6.4200    0.5160   17.8450 N   0  0  0  0  0  0  0  0  0  0  0  0
    7.0280   -0.2590   18.9300 C   0  0  0  0  0  0  0  0  0  0  0  0
    9.8040    0.3790   22.9130 C   0  0  0  0  0  0  0  0  0  0  0  0
   10.6990    1.4230   23.0040 C   0  0  0  0  0  0  0  0  0  0  0  0
   10.1580    2.8070   23.3280 C   0  0  0  0  0  0  0  0  0  0  0  0
    9.4530    5.5250   21.7500 H   0  0  0  0  0  0  0  0  0  0  0  0
    8.4890    5.0120   23.0670 H   0  0  0  0  0  0  0  0  0  0  0  0
   13.3300    4.4850   23.0980 H   0  0  0  0  0  0  0  0  0  0  0  0
   14.1600    2.2160   22.6160 H   0  0  0  0  0  0  0  0  0  0  0  0
   13.5870   -0.4170   22.3400 H   0  0  0  0  0  0  0  0  0  0  0  0
   11.9940   -2.2230   22.1880 H   0  0  0  0  0  0  0  0  0  0  0  0
    8.7040   -2.1880   22.7450 H   0  0  0  0  0  0  0  0  0  0  0  0
    7.1300   -2.0160   21.0370 H   0  0  0  0  0  0  0  0  0  0  0  0
    4.8320    0.4880   21.4520 H   0  0  0  0  0  0  0  0  0  0  0  0
    3.7850    1.8600   19.4290 H   0  0  0  0  0  0  0  0  0  0  0  0
    4.8710    1.8000   17.2270 H   0  0  0  0  0  0  0  0  0  0  0  0
    7.9190   -0.7960   18.6230 H   0  0  0  0  0  0  0  0  0  0  0  0
    8.7550    0.6150   23.0850 H   0  0  0  0  0  0  0  0  0  0  0  0
    9.1230    2.9840   23.5110 H   0  0  0  0  0  0  0  0  0  0  0  0
  2  1  1  6
  2  3  2  0
  2  4  2  0
  2  5  1  0
  5  6  2  0
  6  7  1  0
  7  8  2  0
  8  9  1  0
  9 10  2  0
 10 11  1  0
 11 12  1  0
 12 13  1  0
 13 14  2  0
 13 15  1  0
 15 16  1  0
 16 17  2  0
 17 18  1  0
 18 19  2  0
 19 20  1  0
 16 21  1  0
 20 21  2  0
 11 22  2  0
  8 23  1  0
 22 23  1  0
  5 24  1  0
 23 24  2  0
  1 25  1  0
  1 26  1  0
  6 27  1  0
  7 28  1  0
  9 29  1  0
 10 30  1  0
 12 31  1  0
 15 32  1  0
 17 33  1  0
 18 34  1  0
 19 35  1  0
 21 36  1  0
 22 37  1  0
 24 38  1  0
M  END
