LIG
     RDKit          3D

 34 36  0  0  0  0  0  0  0  0999 V2000
    9.3350   -5.3670   26.2750 C   0  0  0  0  0  0  0  0  0  0  0  0
    9.0910   -3.9920   25.6370 C   0  0  0  0  0  0  0  0  0  0  0  0
    8.5200   -2.9160   26.2860 N   0  0  0  0  0  0  0  0  0  0  0  0
    8.4300   -1.7410   25.3910 N   0  0  0  0  0  0  0  0  0  0  0  0
    8.9500   -2.0240   24.1390 C   0  0  0  0  0  0  0  0  0  0  0  0
    9.0150   -1.0220   22.9690 C   0  0  0  0  0  0  0  0  0  0  0  0
   10.1350   -0.4490   22.8500 N   0  0  0  0  0  0  0  0  0  0  0  0
   11.2780   -1.4230   22.4040 C   0  0  0  0  0  0  0  0  0  0  0  0
   12.8830   -0.6900   22.3975 C   0  0  0  0  0  0  0  0  0  0  0  0
   13.4930   -1.4840   21.5620 F   0  0  0  0  0  0  0  0  0  0  0  0
   12.9850    1.3965   22.8275 C   0  0  0  0  0  0  0  0  0  0  0  0
   12.5830    3.5320   23.0260 C   0  0  0  0  0  0  0  0  0  0  0  0
   11.3640    3.5141   23.3163 C   0  0  0  0  0  0  0  0  0  0  0  0
   10.9266    5.1939   23.4199 S   0  0  0  0  0  6  0  0  0  0  0  0
   10.7333    5.7067   21.8231 N   0  0  0  0  0  0  0  0  0  0  0  0
   12.0377    5.9812   23.9103 O   0  0  0  0  0  0  0  0  0  0  0  0
    9.6062    5.3395   23.9943 O   0  0  0  0  0  0  0  0  0  0  0  0
   10.3201    2.4432   23.3732 C   0  0  0  0  0  0  0  0  0  0  0  0
   10.8445    0.7785   23.7760 C   0  0  0  0  0  0  0  0  0  0  0  0
   12.1240    1.1975   23.2445 C   0  0  0  0  0  0  0  0  0  0  0  0
    9.4770   -3.5790   24.0930 S   0  0  0  0  0  0  0  0  0  0  0  0
    8.4563   -5.6661   26.8381 H   0  0  0  0  0  0  0  0  0  0  0  0
    8.5982   -6.0708   25.8993 H   0  0  0  0  0  0  0  0  0  0  0  0
    9.5477   -6.0975   25.5006 H   0  0  0  0  0  0  0  0  0  0  0  0
    8.1515   -0.3386   23.1538 H   0  0  0  0  0  0  0  0  0  0  0  0
    8.6943   -1.6141   22.0794 H   0  0  0  0  0  0  0  0  0  0  0  0
   11.3525   -2.2774   23.0663 H   0  0  0  0  0  0  0  0  0  0  0  0
   11.1535   -1.7524   21.3762 H   0  0  0  0  0  0  0  0  0  0  0  0
   13.4170    3.8496   23.3725 H   0  0  0  0  0  0  0  0  0  0  0  0
    9.8007    6.1125   21.7272 H   0  0  0  0  0  0  0  0  0  0  0  0
   11.4647    6.3878   21.6102 H   0  0  0  0  0  0  0  0  0  0  0  0
    9.3961    2.6954   22.8606 H   0  0  0  0  0  0  0  0  0  0  0  0
   12.4944    1.7532   24.6340 H   0  0  0  0  0  0  0  0  0  0  0  0
   11.6573    2.6689   23.3834 H   0  0  0  0  0  0  0  0  0  0  0  0
  1  2  1  0
  2  3  4  0
  3  4  4  0
  4  5  4  0
  5  6  1  0
  6  7  1  0
  7  8  1  0
  8  9  1  0
  9 10  1  0
  9 11  2  0
 11 12  1  0
 12 13  2  0
 13 14  1  0
 14 15  1  0
 14 16  2  0
 14 17  2  0
 13 18  1  0
 18 19  2  0
 19 20  1  0
  5 21  4  0
 21  2  4  0
 19  7  1  0
 20 11  1  0
  1 22  1  0
  1 23  1  0
  1 24  1  0
  6 25  1  0
  6 26  1  0
  8 27  1  0
  8 28  1  0
 12 29  1  0
 15 30  1  0
 15 31  1  0
 18 32  1  0
 20 33  1  0
 20 34  1  0
M  END
