
     RDKit          3D

 37 38  0  0  0  0  0  0  0  0999 V2000
    6.3350   -5.2540   26.3000 C   0  0  0  0  0  0  0  0  0  0  0  0
    7.9360   -4.4950   26.1250 S   0  0  1  0  0  0  0  0  0  0  0  0
    8.0700   -3.4700   27.1320 O   0  0  0  0  0  0  0  0  0  0  0  0
    8.9260   -5.5370   25.9810 O   0  0  0  0  0  0  0  0  0  0  0  0
    7.8490   -3.7310   24.6230 N   0  0  0  0  0  0  0  0  0  0  0  0
    9.1070   -3.0510   24.3070 C   0  0  0  0  0  0  0  0  0  0  0  0
    9.1200   -2.2950   23.1270 C   0  0  0  0  0  0  0  0  0  0  0  0
   10.0920   -1.0990   23.0770 C   0  0  0  0  0  0  0  0  0  0  0  0
   11.5090   -1.3330   22.6760 C   0  0  0  0  0  0  0  0  0  0  0  0
   12.5130   -0.3980   22.5830 C   0  0  0  0  0  0  0  0  0  0  0  0
   11.9680    0.9900   22.9290 C   0  0  0  0  0  0  0  0  0  0  0  0
   12.8830    2.0340   22.8420 C   0  0  0  0  0  0  0  0  0  0  0  0
   12.4520    3.4460   23.1110 C   0  0  0  0  0  0  0  0  0  0  0  0
   11.0090    3.6890   23.5100 C   0  0  0  0  0  0  0  0  0  0  0  0
   10.3970    5.3350   23.8460 S   0  0  2  0  0  0  0  0  0  0  0  0
    9.2140    5.4870   22.6790 N   0  0  0  0  0  0  0  0  0  0  0  0
   11.4260    6.2860   23.4850 O   0  0  0  0  0  0  0  0  0  0  0  0
    9.6730    5.4200   25.1050 O   0  0  0  0  0  0  0  0  0  0  0  0
   10.1930    2.5680   23.5900 C   0  0  0  0  0  0  0  0  0  0  0  0
   10.6180    1.2510   23.3080 C   0  0  0  0  0  0  0  0  0  0  0  0
    9.7150    0.2030   23.3870 C   0  0  0  0  0  0  0  0  0  0  0  0
    5.6570   -4.5370   26.7710 H   0  0  0  0  0  0  0  0  0  0  0  0
    5.9430   -5.5170   25.3130 H   0  0  0  0  0  0  0  0  0  0  0  0
    6.4180   -6.1470   26.9270 H   0  0  0  0  0  0  0  0  0  0  0  0
    6.9740   -3.2300   24.5330 H   0  0  0  0  0  0  0  0  0  0  0  0
    9.8900   -3.8120   24.2450 H   0  0  0  0  0  0  0  0  0  0  0  0
    9.3050   -2.3920   25.1540 H   0  0  0  0  0  0  0  0  0  0  0  0
    8.1100   -1.8960   22.9580 H   0  0  0  0  0  0  0  0  0  0  0  0
    9.3050   -2.9680   22.2850 H   0  0  0  0  0  0  0  0  0  0  0  0
   11.7930   -2.3650   22.4300 H   0  0  0  0  0  0  0  0  0  0  0  0
   13.5360   -0.6260   22.2920 H   0  0  0  0  0  0  0  0  0  0  0  0
   13.9110    1.8460   22.5730 H   0  0  0  0  0  0  0  0  0  0  0  0
   13.1670    4.2720   23.0250 H   0  0  0  0  0  0  0  0  0  0  0  0
    9.5470    5.3880   21.7240 H   0  0  0  0  0  0  0  0  0  0  0  0
    8.3850    4.9560   22.9500 H   0  0  0  0  0  0  0  0  0  0  0  0
    9.1400    2.6230   23.8700 H   0  0  0  0  0  0  0  0  0  0  0  0
    8.6850    0.4020   23.6850 H   0  0  0  0  0  0  0  0  0  0  0  0
  1  2  1  0
  2  3  2  0
  2  4  2  0
  2  5  1  6
  5  6  1  0
  6  7  1  0
  7  8  1  0
  8  9  2  0
  9 10  1  0
 10 11  2  0
 11 12  1  0
 12 13  2  0
 13 14  1  0
 14 15  1  0
 15 16  1  6
 15 17  2  0
 15 18  2  0
 14 19  2  0
 11 20  1  0
 19 20  1  0
  8 21  1  0
 20 21  2  0
  1 22  1  0
  1 23  1  0
  1 24  1  0
  5 25  1  0
  6 26  1  0
  6 27  1  0
  7 28  1  0
  7 29  1  0
  9 30  1  0
 10 31  1  0
 12 32  1  0
 13 33  1  0
 16 34  1  0
 16 35  1  0
 19 36  1  0
 21 37  1  0
M  END
