LIG
     RDKit          3D

 54 57  0  0  0  0  0  0  0  0999 V2000
    5.5720    3.8030   30.8520 C   0  0  0  0  0  0  0  0  0  0  0  0
    6.0790    2.6860   29.9860 C   0  0  0  0  0  0  0  0  0  0  0  0
    5.3530    1.5210   29.8320 C   0  0  0  0  0  0  0  0  0  0  0  0
    5.8090    0.4760   29.0440 C   0  0  0  0  0  0  0  0  0  0  0  0
    7.0230    0.5950   28.3850 C   0  0  0  0  0  0  0  0  0  0  0  0
    7.4530   -0.4560   27.6150 O   0  0  0  0  0  0  0  0  0  0  0  0
    8.3750   -0.1600   26.5780 C   0  0  0  0  0  0  0  0  0  0  0  0
    8.7900   -1.4080   25.8100 C   0  0  0  0  0  0  0  0  0  0  0  0
    7.9610   -2.2960   25.6070 O   0  0  0  0  0  0  0  0  0  0  0  0
   10.0690   -1.4770   25.3800 N   0  0  0  0  0  0  0  0  0  0  0  0
   10.6760   -2.6770   24.8000 C   0  0  0  0  0  0  0  0  0  0  0  0
   11.4450   -2.3540   23.5370 C   0  0  0  0  0  0  0  0  0  0  0  0
   12.4250   -1.2910   23.7650 N   0  0  0  0  0  0  0  0  0  0  0  0
   13.2405   -0.8215   22.6240 C   0  0  0  0  0  0  0  0  0  0  0  0
   12.4550    1.1360   23.1310 C   0  0  0  0  0  0  0  0  0  0  0  0
   13.1480    2.2850   22.7650 C   0  0  0  0  0  0  0  0  0  0  0  0
   12.5830    3.5320   23.0260 C   0  0  0  0  0  0  0  0  0  0  0  0
   11.3350    3.6620   23.6540 C   0  0  0  0  0  0  0  0  0  0  0  0
   10.6680    5.1850   23.9350 S   0  0  0  0  0  6  0  0  0  0  0  0
    9.3520    5.1750   22.9550 N   0  0  0  0  0  0  0  0  0  0  0  0
   11.5530    6.1960   23.4620 O   0  0  0  0  0  0  0  0  0  0  0  0
   10.1890    5.2490   25.2610 O   0  0  0  0  0  0  0  0  0  0  0  0
   10.6670    2.4740   24.0250 C   0  0  0  0  0  0  0  0  0  0  0  0
   11.4645    0.5555   23.9835 C   0  0  0  0  0  0  0  0  0  0  0  0
   11.0110   -0.3620   25.5050 C   0  0  0  0  0  0  0  0  0  0  0  0
    7.7660    1.7610   28.5270 C   0  0  0  0  0  0  0  0  0  0  0  0
    7.2890    2.7860   29.3270 C   0  0  0  0  0  0  0  0  0  0  0  0
    6.3469    4.1380   31.5490 H   0  0  0  0  0  0  0  0  0  0  0  0
    4.7163    3.4745   31.4507 H   0  0  0  0  0  0  0  0  0  0  0  0
    5.6265    3.5128   31.9054 H   0  0  0  0  0  0  0  0  0  0  0  0
    4.3841    1.4046   30.3449 H   0  0  0  0  0  0  0  0  0  0  0  0
    5.2205   -0.4271   28.9407 H   0  0  0  0  0  0  0  0  0  0  0  0
    7.9037    0.5286   25.8614 H   0  0  0  0  0  0  0  0  0  0  0  0
    9.2817    0.2854   27.0134 H   0  0  0  0  0  0  0  0  0  0  0  0
    9.8731   -3.3878   24.6033 H   0  0  0  0  0  0  0  0  0  0  0  0
   11.3415   -3.1218   25.5404 H   0  0  0  0  0  0  0  0  0  0  0  0
   10.7762   -2.0893   22.7398 H   0  0  0  0  0  0  0  0  0  0  0  0
   11.9981   -3.2311   23.2413 H   0  0  0  0  0  0  0  0  0  0  0  0
   12.9119   -0.8806   21.6531 H   0  0  0  0  0  0  0  0  0  0  0  0
   14.2377   -0.6285   22.7947 H   0  0  0  0  0  0  0  0  0  0  0  0
   11.7929    1.0403   21.8716 H   0  0  0  0  0  0  0  0  0  0  0  0
   13.3914    2.2286   21.6390 H   0  0  0  0  0  0  0  0  0  0  0  0
   14.2233    2.2481   23.1873 H   0  0  0  0  0  0  0  0  0  0  0  0
   13.3711    4.1972   23.5939 H   0  0  0  0  0  0  0  0  0  0  0  0
   12.5911    4.1424   22.0224 H   0  0  0  0  0  0  0  0  0  0  0  0
   10.6747    3.6087   22.3234 H   0  0  0  0  0  0  0  0  0  0  0  0
    8.7562    5.9934   23.1355 H   0  0  0  0  0  0  0  0  0  0  0  0
    8.4861    5.2305   23.5073 H   0  0  0  0  0  0  0  0  0  0  0  0
   10.2657    2.4200   25.1055 H   0  0  0  0  0  0  0  0  0  0  0  0
    9.6865    2.1916   23.4752 H   0  0  0  0  0  0  0  0  0  0  0  0
   10.6656    0.4450   26.1716 H   0  0  0  0  0  0  0  0  0  0  0  0
   11.9756   -0.7124   25.9041 H   0  0  0  0  0  0  0  0  0  0  0  0
    8.7181    1.9000   28.0275 H   0  0  0  0  0  0  0  0  0  0  0  0
    7.8959    3.6963   29.4362 H   0  0  0  0  0  0  0  0  0  0  0  0
  1  2  1  0
  2  3  4  0
  3  4  4  0
  4  5  4  0
  5  6  1  0
  6  7  1  0
  7  8  1  0
  8  9  2  0
  8 10  1  0
 10 11  1  0
 11 12  1  0
 12 13  1  0
 13 14  1  0
 14 15  1  0
 15 16  1  0
 16 17  1  0
 17 18  1  0
 18 19  1  0
 19 20  1  0
 19 21  2  0
 19 22  2  0
 18 23  1  0
 23 24  1  0
 24 25  1  0
  5 26  4  0
 26 27  4  0
 27  2  4  0
 25 10  1  0
 24 13  1  0
 24 15  1  0
  1 28  1  0
  1 29  1  0
  1 30  1  0
  3 31  1  0
  4 32  1  0
  7 33  1  0
  7 34  1  0
 11 35  1  0
 11 36  1  0
 12 37  1  0
 12 38  1  0
 14 39  1  0
 14 40  1  0
 15 41  1  0
 16 42  1  0
 16 43  1  0
 17 44  1  0
 17 45  1  0
 18 46  1  0
 20 47  1  0
 20 48  1  0
 23 49  1  0
 23 50  1  0
 25 51  1  0
 25 52  1  0
 26 53  1  0
 27 54  1  0
M  END
