
     RDKit          3D

 29 30  0  0  0  0  0  0  0  0999 V2000
    9.6870   -0.2890   25.2040 C   0  0  0  0  0  0  0  0  0  0  0  0
   10.4740   -0.2640   23.9790 N   0  0  0  0  0  0  0  0  0  0  0  0
   11.1900   -1.5500   23.7470 C   0  0  0  0  0  0  0  0  0  0  0  0
   12.1850   -1.3910   22.7810 C   0  0  0  0  0  0  0  0  0  0  0  0
   13.1230   -0.2150   22.9790 C   0  0  0  0  0  0  0  0  0  0  0  0
   12.3790    1.0630   23.1590 C   0  0  0  0  0  0  0  0  0  0  0  0
   12.9480    2.2940   22.8580 C   0  0  0  0  0  0  0  0  0  0  0  0
   12.1890    3.6120   23.0270 C   0  0  0  0  0  0  0  0  0  0  0  0
   10.8800    3.5410   23.5180 C   0  0  0  0  0  0  0  0  0  0  0  0
    9.9650    5.0590   23.7360 S   0  0  1  0  0  0  0  0  0  0  0  0
   11.1800    6.2120   23.5570 N   0  0  0  0  0  0  0  0  0  0  0  0
    9.0950    5.2390   22.6130 O   0  0  0  0  0  0  0  0  0  0  0  0
    9.4100    5.1830   25.0720 O   0  0  0  0  0  0  0  0  0  0  0  0
   10.2720    2.2210   23.8520 C   0  0  0  0  0  0  0  0  0  0  0  0
   11.0800    0.9460   23.6520 C   0  0  0  0  0  0  0  0  0  0  0  0
    9.1970    0.6760   25.3530 H   0  0  0  0  0  0  0  0  0  0  0  0
    8.9050   -1.0520   25.1620 H   0  0  0  0  0  0  0  0  0  0  0  0
   10.3350   -0.4770   26.0630 H   0  0  0  0  0  0  0  0  0  0  0  0
   10.4850   -2.3150   23.3960 H   0  0  0  0  0  0  0  0  0  0  0  0
   11.6420   -1.8990   24.6830 H   0  0  0  0  0  0  0  0  0  0  0  0
   12.7540   -2.3260   22.7090 H   0  0  0  0  0  0  0  0  0  0  0  0
   11.7090   -1.2800   21.7990 H   0  0  0  0  0  0  0  0  0  0  0  0
   13.8050   -0.1270   22.1320 H   0  0  0  0  0  0  0  0  0  0  0  0
   13.7380   -0.4060   23.8580 H   0  0  0  0  0  0  0  0  0  0  0  0
   13.9610    2.3120   22.4970 H   0  0  0  0  0  0  0  0  0  0  0  0
   12.6350    4.5790   22.7850 H   0  0  0  0  0  0  0  0  0  0  0  0
   12.1050    5.8730   23.8450 H   0  0  0  0  0  0  0  0  0  0  0  0
   11.1790    6.5380   22.5980 H   0  0  0  0  0  0  0  0  0  0  0  0
    9.2490    2.1350   24.2400 H   0  0  0  0  0  0  0  0  0  0  0  0
  1  2  1  0
  2  3  1  0
  3  4  1  0
  4  5  1  0
  5  6  1  0
  6  7  1  0
  7  8  2  0
  8  9  1  0
  9 10  1  0
 10 11  1  6
 10 12  2  0
 10 13  2  0
  9 14  2  0
  2 15  1  0
  6 15  2  0
 14 15  1  0
  1 16  1  0
  1 17  1  0
  1 18  1  0
  3 19  1  0
  3 20  1  0
  4 21  1  0
  4 22  1  0
  5 23  1  0
  5 24  1  0
  7 25  1  0
  8 26  1  0
 11 27  1  0
 11 28  1  0
 14 29  1  0
M  END
