
     RDKit          3D

 29 30  0  0  0  0  0  0  0  0999 V2000
    8.9960    6.5620   22.6710 C   0  0  0  0  0  0  0  0  0  0  0  0
   10.1940    6.0990   23.4520 C   0  0  0  0  0  0  0  0  0  0  0  0
   10.2250    6.0920   24.6800 O   0  0  0  0  0  0  0  0  0  0  0  0
   11.2200    5.6880   22.6430 N   0  0  0  0  0  0  0  0  0  0  0  0
   12.3670    5.0050   23.2120 C   0  0  0  0  0  0  0  0  0  0  0  0
   12.6040    3.6240   22.5970 C   0  0  0  0  0  0  0  0  0  0  0  0
   11.7200    2.5540   23.1600 C   0  0  0  0  0  0  0  0  0  0  0  0
   10.5250    2.8080   23.8350 C   0  0  0  0  0  0  0  0  0  0  0  0
    9.9460    1.6280   24.2150 N   0  0  0  0  0  0  0  0  0  0  0  0
   10.7460    0.6250   23.7880 C   0  0  0  0  0  0  0  0  0  0  0  0
   10.5330   -0.7720   23.9480 C   0  0  0  0  0  0  0  0  0  0  0  0
   11.5210   -1.7360   23.3950 C   0  0  0  0  0  0  0  0  0  0  0  0
   12.6930   -1.1110   22.7130 C   0  0  0  0  0  0  0  0  0  0  0  0
   13.6130   -1.9280   22.1880 F   0  0  0  0  0  0  0  0  0  0  0  0
   12.8610    0.2400   22.5990 C   0  0  0  0  0  0  0  0  0  0  0  0
   11.8960    1.1150   23.1180 C   0  0  0  0  0  0  0  0  0  0  0  0
    8.3090    7.1440   23.2860 H   0  0  0  0  0  0  0  0  0  0  0  0
    8.4610    5.6890   22.2830 H   0  0  0  0  0  0  0  0  0  0  0  0
    9.3350    7.1810   21.8360 H   0  0  0  0  0  0  0  0  0  0  0  0
   10.9800    5.5120   21.6640 H   0  0  0  0  0  0  0  0  0  0  0  0
   12.2280    4.9400   24.2970 H   0  0  0  0  0  0  0  0  0  0  0  0
   13.2380    5.6490   23.0370 H   0  0  0  0  0  0  0  0  0  0  0  0
   13.6560    3.3460   22.7130 H   0  0  0  0  0  0  0  0  0  0  0  0
   12.4270    3.6870   21.5180 H   0  0  0  0  0  0  0  0  0  0  0  0
   10.0420    3.7460   24.0720 H   0  0  0  0  0  0  0  0  0  0  0  0
    9.0750    1.5210   24.7180 H   0  0  0  0  0  0  0  0  0  0  0  0
    9.6560   -1.1550   24.4640 H   0  0  0  0  0  0  0  0  0  0  0  0
   11.3960   -2.8250   23.4860 H   0  0  0  0  0  0  0  0  0  0  0  0
   13.7550    0.5590   22.0930 H   0  0  0  0  0  0  0  0  0  0  0  0
  1  2  1  0
  2  3  2  0
  2  4  1  0
  4  5  1  0
  5  6  1  0
  6  7  1  0
  7  8  2  0
  8  9  1  0
  9 10  1  0
 10 11  1  0
 11 12  2  0
 12 13  1  0
 13 14  1  0
 13 15  2  0
  7 16  1  0
 10 16  2  0
 15 16  1  0
  1 17  1  0
  1 18  1  0
  1 19  1  0
  4 20  1  0
  5 21  1  0
  5 22  1  0
  6 23  1  0
  6 24  1  0
  8 25  1  0
  9 26  1  0
 11 27  1  0
 12 28  1  0
 15 29  1  0
M  END
