
     RDKit          3D

 54 57  0  0  0  0  0  0  0  0999 V2000
    5.1040    3.4320   30.9190 C   0  0  0  0  0  0  0  0  0  0  0  0
    5.6330    2.3520   30.0160 C   0  0  0  0  0  0  0  0  0  0  0  0
    5.8750    1.0600   30.5380 C   0  0  0  0  0  0  0  0  0  0  0  0
    6.4320   -0.0490   29.6250 C   0  0  0  0  0  0  0  0  0  0  0  0
    6.6750    0.3540   28.2190 C   0  0  0  0  0  0  0  0  0  0  0  0
    7.1830   -0.5510   27.3200 O   0  0  0  0  0  0  0  0  0  0  0  0
    8.2800   -0.1050   26.5070 C   0  0  0  0  0  0  0  0  0  0  0  0
    8.5410   -1.0560   25.3420 C   0  0  0  0  0  0  0  0  0  0  0  0
    7.6390   -1.8050   24.9560 O   0  0  0  0  0  0  0  0  0  0  0  0
    9.8340   -1.0960   24.7610 N   0  0  0  0  0  0  0  0  0  0  0  0
   10.4930   -2.2980   24.2300 C   0  0  0  0  0  0  0  0  0  0  0  0
   10.7520   -2.0480   22.7890 C   0  0  0  0  0  0  0  0  0  0  0  0
   11.1060   -0.6540   22.4590 N   0  0  0  0  0  0  0  0  0  0  0  0
   12.4920   -0.4700   22.6320 C   0  0  0  0  0  0  0  0  0  0  0  0
   12.0660    0.7020   22.9390 C   0  0  2  0  0  0  0  0  0  0  0  0
   12.7620    1.7500   23.2670 C   0  0  0  0  0  0  0  0  0  0  0  0
   12.2090    2.9900   22.9450 C   0  0  0  0  0  0  0  0  0  0  0  0
   10.8090    3.0180   22.8690 C   0  0  2  0  0  0  0  0  0  0  0  0
   10.2230    4.6160   23.5930 S   0  0  2  0  0  0  0  0  0  0  0  0
    9.1100    5.2480   22.5300 N   0  0  0  0  0  0  0  0  0  0  0  0
   11.3160    5.5750   23.5960 O   0  0  0  0  0  0  0  0  0  0  0  0
    9.3650    4.4490   24.7290 O   0  0  0  0  0  0  0  0  0  0  0  0
   10.0310    1.8000   23.1290 C   0  0  0  0  0  0  0  0  0  0  0  0
   10.8540    0.5030   23.4910 C   0  0  1  0  0  0  0  0  0  0  0  0
   10.6940    0.0690   24.8000 C   0  0  0  0  0  0  0  0  0  0  0  0
    6.3990    1.6550   27.7690 C   0  0  0  0  0  0  0  0  0  0  0  0
    5.8910    2.6080   28.6700 C   0  0  0  0  0  0  0  0  0  0  0  0
    5.6070    4.3870   30.7430 H   0  0  0  0  0  0  0  0  0  0  0  0
    4.0360    3.5680   30.7320 H   0  0  0  0  0  0  0  0  0  0  0  0
    5.2620    3.1370   31.9600 H   0  0  0  0  0  0  0  0  0  0  0  0
    5.6770    0.8320   31.5810 H   0  0  0  0  0  0  0  0  0  0  0  0
    6.6660   -1.0780   29.8880 H   0  0  0  0  0  0  0  0  0  0  0  0
    8.1260    0.9120   26.1250 H   0  0  0  0  0  0  0  0  0  0  0  0
    9.1930   -0.0720   27.1100 H   0  0  0  0  0  0  0  0  0  0  0  0
    9.8340   -3.1700   24.2770 H   0  0  0  0  0  0  0  0  0  0  0  0
   11.3580   -2.4770   24.8710 H   0  0  0  0  0  0  0  0  0  0  0  0
    9.8510   -2.3000   22.2180 H   0  0  0  0  0  0  0  0  0  0  0  0
   11.5440   -2.7240   22.4420 H   0  0  0  0  0  0  0  0  0  0  0  0
   13.0880   -0.6300   21.7370 H   0  0  0  0  0  0  0  0  0  0  0  0
   12.9260   -0.9760   23.5000 H   0  0  0  0  0  0  0  0  0  0  0  0
   11.7460    1.0730   22.0120 H   0  0  0  0  0  0  0  0  0  0  0  0
   13.7510    1.6850   22.8210 H   0  0  0  0  0  0  0  0  0  0  0  0
   12.7850    1.6310   24.3130 H   0  0  0  0  0  0  0  0  0  0  0  0
   12.6340    3.8430   23.4640 H   0  0  0  0  0  0  0  0  0  0  0  0
   12.5280    3.1920   21.9230 H   0  0  0  0  0  0  0  0  0  0  0  0
   10.5920    3.2650   21.8230 H   0  0  0  0  0  0  0  0  0  0  0  0
    9.4580    5.2020   21.5770 H   0  0  0  0  0  0  0  0  0  0  0  0
    8.2180    4.7570   22.6280 H   0  0  0  0  0  0  0  0  0  0  0  0
    9.3280    2.0080   23.9440 H   0  0  0  0  0  0  0  0  0  0  0  0
    9.4080    1.5910   22.2490 H   0  0  0  0  0  0  0  0  0  0  0  0
   10.1910    0.7340   25.4850 H   0  0  0  0  0  0  0  0  0  0  0  0
   11.6650   -0.2000   25.2320 H   0  0  0  0  0  0  0  0  0  0  0  0
    6.5610    1.9890   26.7410 H   0  0  0  0  0  0  0  0  0  0  0  0
    5.7340    3.5710   28.1650 H   0  0  0  0  0  0  0  0  0  0  0  0
  1  2  1  0
  2  3  2  0
  3  4  1  0
  4  5  2  0
  5  6  1  0
  6  7  1  0
  7  8  1  0
  8  9  2  0
  8 10  1  0
 10 11  1  0
 11 12  1  0
 12 13  1  0
 13 14  1  0
 14 15  1  0
 15 16  1  0
 16 17  1  0
 17 18  1  0
 18 19  1  0
 19 20  1  6
 19 21  2  0
 19 22  2  0
 18 23  1  0
 13 24  1  0
 15 24  1  0
 24 23  1  6
 10 25  1  0
 24 25  1  0
  5 26  1  0
  2 27  1  0
 26 27  2  0
  1 28  1  0
  1 29  1  0
  1 30  1  0
  3 31  1  0
  4 32  1  0
  7 33  1  0
  7 34  1  0
 11 35  1  0
 11 36  1  0
 12 37  1  0
 12 38  1  0
 14 39  1  0
 14 40  1  0
 15 41  1  6
 16 42  1  0
 16 43  1  0
 17 44  1  0
 17 45  1  0
 18 46  1  6
 20 47  1  0
 20 48  1  0
 23 49  1  0
 23 50  1  0
 25 51  1  0
 25 52  1  0
 26 53  1  0
 27 54  1  0
M  END
