LIG
     RDKit          3D

 49 51  0  0  0  0  0  0  0  0999 V2000
    7.6470    4.9230   22.5630 C   0  0  0  0  0  0  0  0  0  0  0  0
    7.2040    3.5440   22.9320 C   0  0  0  0  0  0  0  0  0  0  0  0
    6.2270    3.3360   23.6430 O   0  0  0  0  0  0  0  0  0  0  0  0
    7.9040    2.5380   22.4150 N   0  0  0  0  0  0  0  0  0  0  0  0
    7.7770    1.1690   22.8930 C   0  0  1  0  0  0  0  0  0  0  0  0
    6.4470    0.5230   22.4720 C   0  0  0  0  0  0  0  0  0  0  0  0
    6.2110    0.5770   20.9840 C   0  0  0  0  0  0  0  0  0  0  0  0
    4.5940    1.7740   19.9830 C   0  0  0  0  0  0  0  0  0  0  0  0
    5.0445    1.4010   18.9605 C   0  0  0  0  0  0  0  0  0  0  0  0
    5.7135    1.1265   17.9840 C   0  0  0  0  0  0  0  0  0  0  0  0
    6.0985    0.6780   17.1635 O   0  0  0  0  0  0  0  0  0  0  0  0
    6.5785   -0.2795   18.5755 C   0  0  0  0  0  0  0  0  0  0  0  0
    6.1815   -0.1100   19.7135 C   0  0  0  0  0  0  0  0  0  0  0  0
    7.2860   -1.6460   18.4960 C   0  0  0  0  0  0  0  0  0  0  0  0
    7.3620   -2.0310   19.9170 N   0  0  0  0  0  0  0  0  0  0  0  0
    6.4780   -3.0650   20.4600 C   0  0  0  0  0  0  0  0  0  0  0  0
    5.7050   -3.6090   19.7340 O   0  0  0  0  0  0  0  0  0  0  0  0
    6.5520   -3.4250   21.8840 N   0  0  0  0  0  0  0  0  0  0  0  0
    5.6750   -4.4640   22.4420 C   0  0  0  0  0  0  0  0  0  0  0  0
    6.3670   -5.4690   23.3670 C   0  0  0  0  0  0  0  0  0  0  0  0
    5.9460   -5.8890   21.9520 C   0  0  0  0  0  0  0  0  0  0  0  0
    9.1160   -1.5650   21.3440 C   0  0  0  0  0  0  0  0  0  0  0  0
   11.2900   -1.5690   22.3350 C   0  0  0  0  0  0  0  0  0  0  0  0
   12.4300   -1.6070   22.7390 C   0  0  0  0  0  0  0  0  0  0  0  0
   14.1250   -1.9140   23.6280 Br  0  0  0  0  0  0  0  0  0  0  0  0
    9.0130   -0.8970   22.6070 N   0  0  0  0  0  0  0  0  0  0  0  0
    8.9700    0.4030   22.3370 C   0  0  0  0  0  0  0  0  0  0  0  0
    9.8170    0.9750   21.6560 O   0  0  0  0  0  0  0  0  0  0  0  0
    8.6885    4.8894   22.2264 H   0  0  0  0  0  0  0  0  0  0  0  0
    7.5663    5.5749   23.4390 H   0  0  0  0  0  0  0  0  0  0  0  0
    7.0402    5.3501   21.7571 H   0  0  0  0  0  0  0  0  0  0  0  0
    8.5407    2.7057   21.6251 H   0  0  0  0  0  0  0  0  0  0  0  0
    7.8853    1.1770   23.9244 H   0  0  0  0  0  0  0  0  0  0  0  0
    6.3911   -0.5298   22.8047 H   0  0  0  0  0  0  0  0  0  0  0  0
    5.6123    1.0393   22.9808 H   0  0  0  0  0  0  0  0  0  0  0  0
    4.2518    2.1377   20.7292 H   0  0  0  0  0  0  0  0  0  0  0  0
    3.7838    0.8308   18.4507 H   0  0  0  0  0  0  0  0  0  0  0  0
    5.4371    0.2476   16.4815 H   0  0  0  0  0  0  0  0  0  0  0  0
    5.4054   -1.1621   20.0222 H   0  0  0  0  0  0  0  0  0  0  0  0
    8.2739   -1.5241   18.1628 H   0  0  0  0  0  0  0  0  0  0  0  0
    6.6976   -2.2886   17.9205 H   0  0  0  0  0  0  0  0  0  0  0  0
    7.4612   -3.3772   22.2730 H   0  0  0  0  0  0  0  0  0  0  0  0
    7.6464   -4.7764   21.9418 H   0  0  0  0  0  0  0  0  0  0  0  0
    5.8055   -5.8673   24.1901 H   0  0  0  0  0  0  0  0  0  0  0  0
    7.4154   -5.3197   23.5474 H   0  0  0  0  0  0  0  0  0  0  0  0
    6.7263   -6.0154   21.2239 H   0  0  0  0  0  0  0  0  0  0  0  0
    5.1161   -6.5645   21.8641 H   0  0  0  0  0  0  0  0  0  0  0  0
    9.5178   -0.3260   20.8341 H   0  0  0  0  0  0  0  0  0  0  0  0
    8.5332   -1.2170   23.2522 H   0  0  0  0  0  0  0  0  0  0  0  0
  1  2  1  0
  2  3  2  0
  2  4  1  0
  4  5  1  0
  5  6  1  0
  6  7  1  0
  7  8  4  0
  8  9  4  0
  9 10  4  0
 10 11  1  0
 10 12  4  0
 12 13  4  0
 12 14  1  0
 14 15  1  0
 15 16  1  0
 16 17  2  0
 16 18  1  0
 18 19  1  0
 19 20  1  0
 20 21  1  0
 15 22  1  0
 22 23  1  0
 23 24  3  0
 24 25  1  0
 22 26  1  0
 26 27  1  0
 27 28  2  0
 27  5  1  0
 13  7  4  0
 21 19  1  0
  1 29  1  0
  1 30  1  0
  1 31  1  0
  4 32  1  0
  5 33  1  1
  6 34  1  0
  6 35  1  0
  8 36  1  0
  9 37  1  0
 11 38  1  0
 13 39  1  0
 14 40  1  0
 14 41  1  0
 18 42  1  0
 19 43  1  0
 20 44  1  0
 20 45  1  0
 21 46  1  0
 21 47  1  0
 22 48  1  0
 26 49  1  0
M  END
