LIG
     RDKit          3D

 57 60  0  0  0  0  0  0  0  0999 V2000
    7.6470    4.9230   22.5630 C   0  0  0  0  0  0  0  0  0  0  0  0
    7.2040    3.5440   22.9320 C   0  0  0  0  0  0  0  0  0  0  0  0
    6.2270    3.3360   23.6430 O   0  0  0  0  0  0  0  0  0  0  0  0
    7.9040    2.5380   22.4150 N   0  0  0  0  0  0  0  0  0  0  0  0
    7.7770    1.1690   22.8930 C   0  0  1  0  0  0  0  0  0  0  0  0
    6.4470    0.5230   22.4720 C   0  0  0  0  0  0  0  0  0  0  0  0
    6.2110    0.5770   20.9840 C   0  0  0  0  0  0  0  0  0  0  0  0
    6.8970   -0.2650   20.1240 C   0  0  0  0  0  0  0  0  0  0  0  0
    6.7140   -0.2030   18.7560 C   0  0  0  0  0  0  0  0  0  0  0  0
    5.8250    0.7090   18.2260 C   0  0  0  0  0  0  0  0  0  0  0  0
    5.6740    0.7690   16.8820 O   0  0  0  0  0  0  0  0  0  0  0  0
    5.1270    1.5650   19.0620 C   0  0  0  0  0  0  0  0  0  0  0  0
    5.3260    1.4920   20.4300 C   0  0  0  0  0  0  0  0  0  0  0  0
    8.9700    0.4030   22.3370 C   0  0  0  0  0  0  0  0  0  0  0  0
    9.8170    0.9750   21.6560 O   0  0  0  0  0  0  0  0  0  0  0  0
    9.3560   -1.1985   23.4265 N   0  0  0  0  0  4  0  0  0  0  0  0
    9.5440   -2.6880   24.5510 N   0  0  0  0  0  0  0  0  0  0  0  0
    8.3310   -2.8350   25.3360 C   0  0  0  0  0  0  0  0  0  0  0  0
    8.0790   -4.2690   25.8080 C   0  0  0  0  0  0  0  0  0  0  0  0
    9.1820   -4.8160   26.5550 C   0  0  0  0  0  0  0  0  0  0  0  0
    9.3040   -4.2150   27.8200 O   0  0  0  0  0  0  0  0  0  0  0  0
   10.4200   -4.6660   25.8330 C   0  0  0  0  0  0  0  0  0  0  0  0
   10.6550   -3.2590   25.2740 C   0  0  0  0  0  0  0  0  0  0  0  0
   11.0750   -1.1430   23.6660 C   0  0  0  0  0  0  0  0  0  0  0  0
   11.9800   -0.0310   24.1900 C   0  0  0  0  0  0  0  0  0  0  0  0
   13.1900    0.0200   23.4210 C   0  0  0  0  0  0  0  0  0  0  0  0
   14.1743   -1.5117   23.1130 Br  0  0  0  0  0  0  0  0  0  0  0  0
   13.7308   -1.2109   23.2068 C   0  0  0  0  0  0  0  0  0  0  0  0
   13.0426   -2.2090   24.0161 C   0  0  0  0  0  0  0  0  0  0  0  0
    9.9110   -1.7790   21.8910 C   0  0  0  0  0  0  0  0  0  0  0  0
    8.6332    5.1573   22.9778 H   0  0  0  0  0  0  0  0  0  0  0  0
    7.7063    5.0031   21.4731 H   0  0  0  0  0  0  0  0  0  0  0  0
    8.5842    4.8631   22.0013 H   0  0  0  0  0  0  0  0  0  0  0  0
    8.8034    2.7863   21.9482 H   0  0  0  0  0  0  0  0  0  0  0  0
    7.8460    1.1770   23.9552 H   0  0  0  0  0  0  0  0  0  0  0  0
    6.3849   -0.5063   22.8052 H   0  0  0  0  0  0  0  0  0  0  0  0
    5.6390    1.0591   22.9648 H   0  0  0  0  0  0  0  0  0  0  0  0
    7.6076   -1.0107   20.5044 H   0  0  0  0  0  0  0  0  0  0  0  0
    7.2623   -0.8704   18.0918 H   0  0  0  0  0  0  0  0  0  0  0  0
    6.2816    0.1383   16.4574 H   0  0  0  0  0  0  0  0  0  0  0  0
    4.4227    2.2902   18.6569 H   0  0  0  0  0  0  0  0  0  0  0  0
    4.7591    2.1785   21.0729 H   0  0  0  0  0  0  0  0  0  0  0  0
    7.4366   -2.4927   24.7854 H   0  0  0  0  0  0  0  0  0  0  0  0
    8.3664   -2.2123   26.2465 H   0  0  0  0  0  0  0  0  0  0  0  0
    7.8583   -4.8771   24.9001 H   0  0  0  0  0  0  0  0  0  0  0  0
    7.1335   -4.2808   26.3998 H   0  0  0  0  0  0  0  0  0  0  0  0
    9.4830   -3.0391   26.3913 H   0  0  0  0  0  0  0  0  0  0  0  0
   10.0034   -4.6881   28.3159 H   0  0  0  0  0  0  0  0  0  0  0  0
   11.2949   -4.9312   26.4759 H   0  0  0  0  0  0  0  0  0  0  0  0
   10.4779   -5.3742   24.9712 H   0  0  0  0  0  0  0  0  0  0  0  0
   11.5835   -3.2699   24.6589 H   0  0  0  0  0  0  0  0  0  0  0  0
   10.8966   -2.6480   26.1686 H   0  0  0  0  0  0  0  0  0  0  0  0
   11.3308   -2.2861   24.1986 H   0  0  0  0  0  0  0  0  0  0  0  0
   11.6022   -1.6209   22.6021 H   0  0  0  0  0  0  0  0  0  0  0  0
   11.0550    0.7118   23.7886 H   0  0  0  0  0  0  0  0  0  0  0  0
   14.6153   -1.4352   22.6239 H   0  0  0  0  0  0  0  0  0  0  0  0
   13.4370   -3.1795   24.2748 H   0  0  0  0  0  0  0  0  0  0  0  0
  1  2  1  0
  2  3  2  0
  2  4  1  0
  4  5  1  0
  5  6  1  0
  6  7  1  0
  7  8  4  0
  8  9  4  0
  9 10  4  0
 10 11  1  0
 10 12  4  0
 12 13  4  0
  5 14  1  0
 14 15  2  0
 14 16  1  0
 16 17  1  0
 17 18  1  0
 18 19  1  0
 19 20  1  0
 20 21  1  0
 20 22  1  0
 22 23  1  0
 16 24  1  0
 24 25  1  0
 25 26  1  0
 26 27  1  0
 26 28  2  0
 28 29  1  0
 29 30  2  0
 13  7  4  0
 30 16  1  0
 23 17  1  0
 30 25  1  0
  1 31  1  0
  1 32  1  0
  1 33  1  0
  4 34  1  0
  5 35  1  1
  6 36  1  0
  6 37  1  0
  8 38  1  0
  9 39  1  0
 11 40  1  0
 12 41  1  0
 13 42  1  0
 18 43  1  0
 18 44  1  0
 19 45  1  0
 19 46  1  0
 20 47  1  0
 21 48  1  0
 22 49  1  0
 22 50  1  0
 23 51  1  0
 23 52  1  0
 24 53  1  0
 24 54  1  0
 25 55  1  0
 28 56  1  0
 29 57  1  0
M  CHG  1  16   1
M  END
