
     RDKit          3D

 57 58  0  0  0  0  0  0  0  0999 V2000
    7.3840    4.9000   22.1870 C   0  0  0  0  0  0  0  0  0  0  0  0
    6.9080    3.7970   23.0900 C   0  0  0  0  0  0  0  0  0  0  0  0
    5.9350    3.9110   23.8160 O   0  0  0  0  0  0  0  0  0  0  0  0
    7.6650    2.6690   23.0260 N   0  0  0  0  0  0  0  0  0  0  0  0
    7.1140    1.3300   23.1430 C   0  0  2  0  0  0  0  0  0  0  0  0
    8.2710    0.5110   22.4560 C   0  0  0  0  0  0  0  0  0  0  0  0
    9.0370    1.0740   21.6630 O   0  0  0  0  0  0  0  0  0  0  0  0
    8.4530   -0.9130   22.8130 N   0  0  0  0  0  0  0  0  0  0  0  0
    9.6280   -1.6250   22.2400 C   0  0  0  0  0  0  0  0  0  0  0  0
   10.7860   -1.0110   22.6890 C   0  0  0  0  0  0  0  0  0  0  0  0
   12.0150   -1.8360   22.3470 C   0  0  0  0  0  0  0  0  0  0  0  0
   13.1710   -2.1810   24.0840 Br  0  0  0  0  0  0  0  0  0  0  0  0
    5.7090    1.1400   22.7510 C   0  0  1  0  0  0  0  0  0  0  0  0
    4.7740    2.2140   22.8960 N   0  0  0  0  0  0  0  0  0  0  0  0
    3.4390    2.0750   23.3840 C   0  0  0  0  0  0  0  0  0  0  0  0
    3.0350    1.0500   24.2960 O   0  0  0  0  0  0  0  0  0  0  0  0
    2.5210    3.0700   22.8860 N   0  0  0  0  0  0  0  0  0  0  0  0
    1.2120    3.5550   23.3500 C   0  0  2  0  0  0  0  0  0  0  0  0
    1.1200    4.1700   24.5970 C   0  0  0  0  0  0  0  0  0  0  0  0
   -0.1660    4.6340   24.9210 C   0  0  0  0  0  0  0  0  0  0  0  0
   -1.2360    4.3190   24.0890 C   0  0  0  0  0  0  0  0  0  0  0  0
   -1.2060    3.0480   23.5030 C   0  0  0  0  0  0  0  0  0  0  0  0
    0.0940    2.4840   23.3150 C   0  0  0  0  0  0  0  0  0  0  0  0
    5.7320    0.8480   21.2330 C   0  0  0  0  0  0  0  0  0  0  0  0
    6.5060   -0.0700   20.5110 C   0  0  0  0  0  0  0  0  0  0  0  0
    6.4570   -0.2390   19.1070 C   0  0  0  0  0  0  0  0  0  0  0  0
    5.6140    0.4880   18.2150 C   0  0  0  0  0  0  0  0  0  0  0  0
    5.6940    0.2350   17.0600 O   0  0  0  0  0  0  0  0  0  0  0  0
    4.6540    1.5580   18.7280 C   0  0  0  0  0  0  0  0  0  0  0  0
    4.9090    1.5360   20.2030 C   0  0  0  0  0  0  0  0  0  0  0  0
    8.0090    4.5010   21.3940 H   0  0  0  0  0  0  0  0  0  0  0  0
    7.9770    5.6150   22.7620 H   0  0  0  0  0  0  0  0  0  0  0  0
    6.5220    5.4030   21.7380 H   0  0  0  0  0  0  0  0  0  0  0  0
    8.6740    2.7600   22.9970 H   0  0  0  0  0  0  0  0  0  0  0  0
    7.1800    1.1050   24.2140 H   0  0  0  0  0  0  0  0  0  0  0  0
    7.6240   -1.4500   23.0000 H   0  0  0  0  0  0  0  0  0  0  0  0
    9.4760   -1.6510   21.1650 H   0  0  0  0  0  0  0  0  0  0  0  0
    9.4980   -2.6740   22.4970 H   0  0  0  0  0  0  0  0  0  0  0  0
    5.2080    0.2710   23.1760 H   0  0  0  0  0  0  0  0  0  0  0  0
    5.1490    3.1370   23.0700 H   0  0  0  0  0  0  0  0  0  0  0  0
    2.8490    3.5470   22.0590 H   0  0  0  0  0  0  0  0  0  0  0  0
    0.9440    4.2360   22.5450 H   0  0  0  0  0  0  0  0  0  0  0  0
    1.5960    3.5310   25.3420 H   0  0  0  0  0  0  0  0  0  0  0  0
    1.7230    5.0790   24.5490 H   0  0  0  0  0  0  0  0  0  0  0  0
   -0.4270    4.2440   25.9070 H   0  0  0  0  0  0  0  0  0  0  0  0
   -0.1070    5.7280   24.9710 H   0  0  0  0  0  0  0  0  0  0  0  0
   -1.5000    5.1050   23.3800 H   0  0  0  0  0  0  0  0  0  0  0  0
   -2.1130    4.3000   24.7460 H   0  0  0  0  0  0  0  0  0  0  0  0
   -1.6740    2.3950   24.2500 H   0  0  0  0  0  0  0  0  0  0  0  0
   -1.8850    2.9390   22.6620 H   0  0  0  0  0  0  0  0  0  0  0  0
    0.4010    1.6710   23.9820 H   0  0  0  0  0  0  0  0  0  0  0  0
    0.1080    2.0330   22.3170 H   0  0  0  0  0  0  0  0  0  0  0  0
    7.2040   -0.7050   21.0630 H   0  0  0  0  0  0  0  0  0  0  0  0
    7.1110   -0.9930   18.6480 H   0  0  0  0  0  0  0  0  0  0  0  0
    5.3750   -0.6740   16.8790 H   0  0  0  0  0  0  0  0  0  0  0  0
    3.9620    2.1900   18.1860 H   0  0  0  0  0  0  0  0  0  0  0  0
    5.5850    0.7750   19.8500 H   0  0  0  0  0  0  0  0  0  0  0  0
  1  2  1  0
  2  3  2  0
  2  4  1  0
  4  5  1  0
  5  6  1  0
  6  7  2  0
  6  8  1  0
  8  9  1  0
  9 10  1  0
 10 11  3  0
 11 12  1  0
  5 13  1  0
 13 14  1  0
 14 15  1  0
 15 16  2  0
 15 17  1  0
 17 18  1  0
 18 19  1  0
 19 20  1  0
 20 21  1  0
 21 22  1  0
 18 23  1  0
 22 23  1  0
 13 24  1  0
 24 25  2  0
 25 26  1  0
 26 27  2  0
 27 28  1  0
 27 29  1  0
 24 30  1  0
 29 30  2  0
  1 31  1  0
  1 32  1  0
  1 33  1  0
  4 34  1  0
  5 35  1  1
  8 36  1  0
  9 37  1  0
  9 38  1  0
 13 39  1  1
 14 40  1  0
 17 41  1  0
 18 42  1  6
 19 43  1  0
 19 44  1  0
 20 45  1  0
 20 46  1  0
 21 47  1  0
 21 48  1  0
 22 49  1  0
 22 50  1  0
 23 51  1  0
 23 52  1  0
 25 53  1  0
 26 54  1  0
 28 55  1  0
 29 56  1  0
 30 57  1  0
M  END
