
     RDKit          3D

 37 37  0  0  0  0  0  0  0  0999 V2000
    7.7220    4.7670   22.4420 C   0  0  0  0  0  0  0  0  0  0  0  0
    7.1460    3.4600   22.9230 C   0  0  0  0  0  0  0  0  0  0  0  0
    6.1820    3.4110   23.6800 O   0  0  0  0  0  0  0  0  0  0  0  0
    7.7960    2.3490   22.4380 N   0  0  0  0  0  0  0  0  0  0  0  0
    7.6070    1.0390   23.0520 C   0  0  1  0  0  0  0  0  0  0  0  0
    6.2690    0.4130   22.6920 C   0  0  0  0  0  0  0  0  0  0  0  0
    6.0970    0.4280   21.2190 C   0  0  0  0  0  0  0  0  0  0  0  0
    6.8880   -0.3130   20.3540 C   0  0  0  0  0  0  0  0  0  0  0  0
    6.6560   -0.2310   18.8650 C   0  0  0  0  0  0  0  0  0  0  0  0
    5.6440    0.5910   18.3580 C   0  0  0  0  0  0  0  0  0  0  0  0
    5.5300    0.6060   17.1610 O   0  0  0  0  0  0  0  0  0  0  0  0
    4.7630    1.4040   19.2660 C   0  0  0  0  0  0  0  0  0  0  0  0
    3.6880    2.2760   18.7600 N   0  0  0  0  0  0  0  0  0  0  0  0
    5.0710    1.2570   20.7400 C   0  0  0  0  0  0  0  0  0  0  0  0
    8.7490    0.1750   22.6050 C   0  0  0  0  0  0  0  0  0  0  0  0
    9.7850    0.7970   21.8390 O   0  0  0  0  0  0  0  0  0  0  0  0
    8.9470   -1.2550   22.8900 N   0  0  0  0  0  0  0  0  0  0  0  0
    9.8610   -1.9900   22.1740 C   0  0  0  0  0  0  0  0  0  0  0  0
   11.1300   -1.4500   22.0110 C   0  0  0  0  0  0  0  0  0  0  0  0
   12.2130   -1.8340   22.7880 C   0  0  0  0  0  0  0  0  0  0  0  0
   13.2450   -2.3090   24.2350 Br  0  0  0  0  0  0  0  0  0  0  0  0
    7.3930    5.6060   23.0650 H   0  0  0  0  0  0  0  0  0  0  0  0
    7.3920    4.9510   21.4170 H   0  0  0  0  0  0  0  0  0  0  0  0
    8.8150    4.7060   22.4750 H   0  0  0  0  0  0  0  0  0  0  0  0
    8.6410    2.4920   21.9070 H   0  0  0  0  0  0  0  0  0  0  0  0
    7.6900    1.1620   24.1390 H   0  0  0  0  0  0  0  0  0  0  0  0
    5.4420    0.9330   23.1900 H   0  0  0  0  0  0  0  0  0  0  0  0
    6.2390   -0.6220   23.0540 H   0  0  0  0  0  0  0  0  0  0  0  0
    7.6800   -0.9530   20.7560 H   0  0  0  0  0  0  0  0  0  0  0  0
    7.2880   -0.8180   18.1920 H   0  0  0  0  0  0  0  0  0  0  0  0
    6.2940    0.2610   16.5760 H   0  0  0  0  0  0  0  0  0  0  0  0
    3.3560    1.9940   17.8320 H   0  0  0  0  0  0  0  0  0  0  0  0
    2.9400    2.4560   19.4340 H   0  0  0  0  0  0  0  0  0  0  0  0
    4.4110    1.8660   21.3690 H   0  0  0  0  0  0  0  0  0  0  0  0
    8.1430   -1.8020   23.1980 H   0  0  0  0  0  0  0  0  0  0  0  0
    9.9870   -2.9280   22.7160 H   0  0  0  0  0  0  0  0  0  0  0  0
    9.4480   -2.1890   21.1830 H   0  0  0  0  0  0  0  0  0  0  0  0
  1  2  1  0
  2  3  2  0
  2  4  1  0
  4  5  1  0
  5  6  1  0
  6  7  1  0
  7  8  2  0
  8  9  1  0
  9 10  2  0
 10 11  1  0
 10 12  1  0
 12 13  1  0
  7 14  1  0
 12 14  2  0
  5 15  1  0
 15 16  2  0
 15 17  1  0
 17 18  1  0
 18 19  1  0
 19 20  3  0
 20 21  1  0
  1 22  1  0
  1 23  1  0
  1 24  1  0
  4 25  1  0
  5 26  1  1
  6 27  1  0
  6 28  1  0
  8 29  1  0
  9 30  1  0
 11 31  1  0
 13 32  1  0
 13 33  1  0
 14 34  1  0
 17 35  1  0
 18 36  1  0
 18 37  1  0
M  END
