
     RDKit          3D

 32 34  0  0  0  0  0  0  0  0999 V2000
    2.1530    0.4150   23.8040 O   0  0  0  0  0  0  0  0  0  0  0  0
    2.2180    1.8270   23.8830 C   0  0  0  0  0  0  0  0  0  0  0  0
    3.3570    2.5090   23.2750 N   0  0  0  0  0  0  0  0  0  0  0  0
    4.0280    1.7040   22.2430 C   0  0  0  0  0  0  0  0  0  0  0  0
    3.4140    1.9100   20.9970 C   0  0  0  0  0  0  0  0  0  0  0  0
    4.2490    1.3350   19.8610 C   0  0  0  0  0  0  0  0  0  0  0  0
    4.6350    2.0730   18.6140 C   0  0  0  0  0  0  0  0  0  0  0  0
    5.3860    1.2980   17.7550 C   0  0  0  0  0  0  0  0  0  0  0  0
    6.2090    1.0940   18.7200 C   0  0  0  0  0  0  0  0  0  0  0  0
    6.6150    0.3170   18.3200 N   0  0  0  0  0  0  0  0  0  0  0  0
    5.9890   -0.6290   19.0730 C   0  0  0  0  0  0  0  0  0  0  0  0
    4.8450    0.0410   19.7730 C   0  0  0  0  0  0  0  0  0  0  0  0
    1.1670    2.6230   24.5730 C   0  0  0  0  0  0  0  0  0  0  0  0
   -0.1480    2.1790   24.6080 C   0  0  0  0  0  0  0  0  0  0  0  0
   -1.1730    2.8760   25.2390 C   0  0  0  0  0  0  0  0  0  0  0  0
   -0.9230    4.0770   25.8780 C   0  0  0  0  0  0  0  0  0  0  0  0
    0.3530    4.6240   25.9110 C   0  0  0  0  0  0  0  0  0  0  0  0
    1.4350    3.9650   25.2890 C   0  0  0  0  0  0  0  0  0  0  0  0
    2.6580    4.5190   25.3390 F   0  0  0  0  0  0  0  0  0  0  0  0
    3.1120    3.4650   23.0040 H   0  0  0  0  0  0  0  0  0  0  0  0
    3.9440    0.6450   22.5210 H   0  0  0  0  0  0  0  0  0  0  0  0
    5.0870    1.9790   22.1850 H   0  0  0  0  0  0  0  0  0  0  0  0
    2.3670    1.6300   20.9380 H   0  0  0  0  0  0  0  0  0  0  0  0
    3.3770    2.9930   20.8190 H   0  0  0  0  0  0  0  0  0  0  0  0
    4.2730    3.0930   18.5270 H   0  0  0  0  0  0  0  0  0  0  0  0
    6.3720    1.4680   19.7270 H   0  0  0  0  0  0  0  0  0  0  0  0
    6.2460   -1.6840   19.1740 H   0  0  0  0  0  0  0  0  0  0  0  0
    5.4490    0.6720   19.1180 H   0  0  0  0  0  0  0  0  0  0  0  0
   -0.5020    1.2570   24.1540 H   0  0  0  0  0  0  0  0  0  0  0  0
   -2.1770    2.4660   25.2270 H   0  0  0  0  0  0  0  0  0  0  0  0
   -1.7540    4.5880   26.3600 H   0  0  0  0  0  0  0  0  0  0  0  0
    0.5050    5.5690   26.4250 H   0  0  0  0  0  0  0  0  0  0  0  0
  1  2  2  0
  2  3  1  0
  3  4  1  0
  4  5  1  0
  5  6  1  0
  6  7  2  0
  7  8  1  0
  8  9  2  0
  8 10  1  0
  9 10  1  0
 10 11  1  0
  6 12  1  0
 11 12  2  0
  2 13  1  0
 13 14  2  0
 14 15  1  0
 15 16  2  0
 16 17  1  0
 13 18  1  0
 17 18  2  0
 18 19  1  0
  3 20  1  0
  4 21  1  0
  4 22  1  0
  5 23  1  0
  5 24  1  0
  7 25  1  0
  9 26  1  0
 11 27  1  0
 12 28  1  0
 14 29  1  0
 15 30  1  0
 16 31  1  0
 17 32  1  0
M  END
