
     RDKit          3D

 36 37  0  0  0  0  0  0  0  0999 V2000
    3.8830    1.9160   20.1720 N   0  0  0  0  0  0  0  0  0  0  0  0
    4.6400    1.3920   19.4660 C   0  0  0  0  0  0  0  0  0  0  0  0
    5.1640    0.9930   18.0850 C   0  0  0  0  0  0  0  0  0  0  0  0
    6.3450    0.2020   17.8170 N   0  0  0  0  0  0  0  0  0  0  0  0
    7.0890   -0.2390   18.8810 C   0  0  0  0  0  0  0  0  0  0  0  0
    6.6770    0.1100   20.2530 C   0  0  0  0  0  0  0  0  0  0  0  0
    7.5630   -0.3960   21.2770 N   0  0  0  0  0  0  0  0  0  0  0  0
    8.6370    0.2930   21.9030 C   0  0  0  0  0  0  0  0  0  0  0  0
    9.2180    1.3820   21.2900 O   0  0  0  0  0  0  0  0  0  0  0  0
    9.0780   -0.0860   23.1760 C   0  0  0  0  0  0  0  0  0  0  0  0
   10.3340   -0.9690   23.2550 C   0  0  2  0  0  0  0  0  0  0  0  0
   10.9270   -0.6980   24.5080 C   0  0  0  0  0  0  0  0  0  0  0  0
   12.3900   -0.3250   24.4870 C   0  0  0  0  0  0  0  0  0  0  0  0
   13.1760   -1.0920   23.4290 C   0  0  0  0  0  0  0  0  0  0  0  0
   12.4290   -1.6430   22.4130 C   0  0  0  0  0  0  0  0  0  0  0  0
   11.2640   -0.9020   22.2130 C   0  0  0  0  0  0  0  0  0  0  0  0
    5.5180    0.8730   20.4780 C   0  0  0  0  0  0  0  0  0  0  0  0
    3.6770    1.3340   20.9880 H   0  0  0  0  0  0  0  0  0  0  0  0
    3.9610    2.9120   20.3860 H   0  0  0  0  0  0  0  0  0  0  0  0
    4.5690    1.3520   17.2520 H   0  0  0  0  0  0  0  0  0  0  0  0
    7.9680   -0.8340   18.6590 H   0  0  0  0  0  0  0  0  0  0  0  0
    7.3620   -1.3190   21.6340 H   0  0  0  0  0  0  0  0  0  0  0  0
    8.2570   -0.5880   23.7060 H   0  0  0  0  0  0  0  0  0  0  0  0
    9.2840    0.8200   23.7390 H   0  0  0  0  0  0  0  0  0  0  0  0
    9.9800   -1.9880   23.1070 H   0  0  0  0  0  0  0  0  0  0  0  0
   10.7420   -1.6140   25.0540 H   0  0  0  0  0  0  0  0  0  0  0  0
   10.3250    0.0340   25.0420 H   0  0  0  0  0  0  0  0  0  0  0  0
   12.4870    0.7540   24.3170 H   0  0  0  0  0  0  0  0  0  0  0  0
   12.8250   -0.5240   25.4730 H   0  0  0  0  0  0  0  0  0  0  0  0
   13.7940   -0.3370   22.9350 H   0  0  0  0  0  0  0  0  0  0  0  0
   13.8610   -1.7640   23.9560 H   0  0  0  0  0  0  0  0  0  0  0  0
   12.9320   -1.6030   21.4410 H   0  0  0  0  0  0  0  0  0  0  0  0
   12.2690   -2.7190   22.5000 H   0  0  0  0  0  0  0  0  0  0  0  0
   10.7090   -1.1790   21.3140 H   0  0  0  0  0  0  0  0  0  0  0  0
   11.4440    0.1570   22.0720 H   0  0  0  0  0  0  0  0  0  0  0  0
    5.2530    1.0980   21.5170 H   0  0  0  0  0  0  0  0  0  0  0  0
  1  2  1  0
  2  3  2  0
  3  4  1  0
  4  5  2  0
  5  6  1  0
  6  7  1  0
  7  8  1  0
  8  9  2  0
  8 10  1  0
 10 11  1  0
 11 12  1  0
 12 13  1  0
 13 14  1  0
 14 15  1  0
 11 16  1  0
 15 16  1  0
  2 17  1  0
  6 17  2  0
  1 18  1  0
  1 19  1  0
  3 20  1  0
  5 21  1  0
  7 22  1  0
 10 23  1  0
 10 24  1  0
 11 25  1  1
 12 26  1  0
 12 27  1  0
 13 28  1  0
 13 29  1  0
 14 30  1  0
 14 31  1  0
 15 32  1  0
 15 33  1  0
 16 34  1  0
 16 35  1  0
 17 36  1  0
M  END
