LIG
     RDKit          3D

 37 39  0  0  0  0  0  0  0  0999 V2000
   13.7290   -1.2710   23.6040 C   0  0  0  0  0  0  0  0  0  0  0  0
   12.3210   -0.8940   23.7180 N   0  0  0  0  0  0  0  0  0  0  0  0
   11.4670   -1.8380   22.9920 C   0  0  0  0  0  0  0  0  0  0  0  0
   10.0140   -1.4540   23.1290 C   0  0  0  0  0  0  0  0  0  0  0  0
    9.8260   -0.0960   22.6220 N   0  0  0  0  0  0  0  0  0  0  0  0
    9.0660    0.2300   21.5610 C   0  0  0  0  0  0  0  0  0  0  0  0
    8.9960    1.3830   21.1430 O   0  0  0  0  0  0  0  0  0  0  0  0
    8.3080   -0.8880   20.8630 C   0  0  0  0  0  0  0  0  0  0  0  0
    6.7410   -0.4870   19.6690 C   0  0  0  0  0  0  0  0  0  0  0  0
    7.1045   -0.3910   18.3675 C   0  0  0  0  0  0  0  0  0  0  0  0
    6.4350    0.4450   17.6260 N   0  0  0  0  0  0  0  0  0  0  0  0
    5.5250    1.1085   18.3030 C   0  0  0  0  0  0  0  0  0  0  0  0
    4.6650    1.4060   18.8235 N   0  0  0  0  0  0  0  0  0  0  0  0
    3.8355    1.9990   19.5720 C   0  0  0  0  0  0  0  0  0  0  0  0
    4.3240    1.5630   20.9050 C   0  0  0  0  0  0  0  0  0  0  0  0
    5.4760    0.8390   21.1280 C   0  0  0  0  0  0  0  0  0  0  0  0
    5.6745    0.3215   19.9830 C   0  0  0  0  0  0  0  0  0  0  0  0
   10.6540    0.8680   23.3430 C   0  0  0  0  0  0  0  0  0  0  0  0
   12.1050    0.4690   23.2230 C   0  0  0  0  0  0  0  0  0  0  0  0
   14.0495   -1.2409   22.5565 H   0  0  0  0  0  0  0  0  0  0  0  0
   14.3158   -0.4397   23.1984 H   0  0  0  0  0  0  0  0  0  0  0  0
   14.3851   -0.6126   24.1848 H   0  0  0  0  0  0  0  0  0  0  0  0
   11.6162   -2.8526   23.3774 H   0  0  0  0  0  0  0  0  0  0  0  0
   11.7368   -1.8397   21.9325 H   0  0  0  0  0  0  0  0  0  0  0  0
    9.7242   -1.5145   24.1687 H   0  0  0  0  0  0  0  0  0  0  0  0
    9.3786   -2.1079   22.5386 H   0  0  0  0  0  0  0  0  0  0  0  0
    7.7779   -1.5761   21.5362 H   0  0  0  0  0  0  0  0  0  0  0  0
    8.8832   -1.5228   20.1849 H   0  0  0  0  0  0  0  0  0  0  0  0
    7.9512   -0.9892   17.8564 H   0  0  0  0  0  0  0  0  0  0  0  0
    6.5703    0.5953   16.5956 H   0  0  0  0  0  0  0  0  0  0  0  0
    3.1169    2.5486   19.4105 H   0  0  0  0  0  0  0  0  0  0  0  0
    3.6775    1.8656   21.7627 H   0  0  0  0  0  0  0  0  0  0  0  0
    5.9696    0.7896   22.0085 H   0  0  0  0  0  0  0  0  0  0  0  0
   10.4776    1.8415   22.8933 H   0  0  0  0  0  0  0  0  0  0  0  0
   10.3640    0.9041   24.3865 H   0  0  0  0  0  0  0  0  0  0  0  0
   12.7278    1.1777   23.7852 H   0  0  0  0  0  0  0  0  0  0  0  0
   12.4045    0.5320   22.1699 H   0  0  0  0  0  0  0  0  0  0  0  0
  1  2  1  0
  2  3  1  0
  3  4  1  0
  4  5  1  0
  5  6  1  0
  6  7  2  0
  6  8  1  0
  8  9  1  0
  9 10  4  0
 10 11  4  0
 11 12  4  0
 12 13  4  0
 13 14  4  0
 14 15  4  0
 15 16  4  0
 16 17  4  0
  5 18  1  0
 18 19  1  0
 19  2  1  0
 17  9  4  0
 17 12  4  0
  1 20  1  0
  1 21  1  0
  1 22  1  0
  3 23  1  0
  3 24  1  0
  4 25  1  0
  4 26  1  0
  8 27  1  0
  8 28  1  0
 10 29  1  0
 11 30  1  0
 14 31  1  0
 15 32  1  0
 16 33  1  0
 18 34  1  0
 18 35  1  0
 19 36  1  0
 19 37  1  0
M  END
