
     RDKit          3D

 29 30  0  0  0  0  0  0  0  0999 V2000
    3.4740    1.7410   19.8550 N   0  0  0  0  0  0  0  0  0  0  0  0
    4.3630    1.3820   19.2100 C   0  0  0  0  0  0  0  0  0  0  0  0
    5.1310    1.2690   17.8910 C   0  0  0  0  0  0  0  0  0  0  0  0
    6.3750    0.5730   17.7030 N   0  0  0  0  0  0  0  0  0  0  0  0
    6.9370   -0.0320   18.7850 C   0  0  0  0  0  0  0  0  0  0  0  0
    6.2990    0.0300   20.1140 C   0  0  0  0  0  0  0  0  0  0  0  0
    7.1080   -0.6430   21.0800 N   0  0  0  0  0  0  0  0  0  0  0  0
    8.3200   -0.0500   21.4900 C   0  0  0  0  0  0  0  0  0  0  0  0
    8.7250    1.2080   21.0780 O   0  0  0  0  0  0  0  0  0  0  0  0
    9.0910   -0.8310   22.3260 N   0  0  0  0  0  0  0  0  0  0  0  0
   10.4280   -0.4730   22.5090 C   0  0  0  0  0  0  0  0  0  0  0  0
   11.5090   -1.5440   22.3110 C   0  0  0  0  0  0  0  0  0  0  0  0
   12.8160   -1.0610   22.4970 C   0  0  0  0  0  0  0  0  0  0  0  0
   13.1620    0.3320   22.8460 C   0  0  0  0  0  0  0  0  0  0  0  0
   12.0310    1.2740   23.0120 C   0  0  0  0  0  0  0  0  0  0  0  0
   10.7270    0.8670   22.8490 C   0  0  0  0  0  0  0  0  0  0  0  0
    5.0830    0.7040   20.2480 C   0  0  0  0  0  0  0  0  0  0  0  0
    3.0230    2.5530   19.4190 H   0  0  0  0  0  0  0  0  0  0  0  0
    3.5520    1.8200   20.8720 H   0  0  0  0  0  0  0  0  0  0  0  0
    4.6670    1.7700   17.0430 H   0  0  0  0  0  0  0  0  0  0  0  0
    7.8720   -0.5510   18.6170 H   0  0  0  0  0  0  0  0  0  0  0  0
    6.6210   -1.1750   21.7850 H   0  0  0  0  0  0  0  0  0  0  0  0
    8.8760   -1.8170   22.3680 H   0  0  0  0  0  0  0  0  0  0  0  0
   11.2850   -2.5730   22.0500 H   0  0  0  0  0  0  0  0  0  0  0  0
   13.6430   -1.7660   22.3720 H   0  0  0  0  0  0  0  0  0  0  0  0
   14.1830    0.6630   22.9690 H   0  0  0  0  0  0  0  0  0  0  0  0
   12.2620    2.3130   23.2680 H   0  0  0  0  0  0  0  0  0  0  0  0
    9.9280    1.5990   22.9810 H   0  0  0  0  0  0  0  0  0  0  0  0
    4.6230    0.7340   21.2330 H   0  0  0  0  0  0  0  0  0  0  0  0
  1  2  1  0
  2  3  2  0
  3  4  1  0
  4  5  2  0
  5  6  1  0
  6  7  1  0
  7  8  1  0
  8  9  2  0
  8 10  1  0
 10 11  1  0
 11 12  2  0
 12 13  1  0
 13 14  2  0
 14 15  1  0
 11 16  1  0
 15 16  2  0
  2 17  1  0
  6 17  2  0
  1 18  1  0
  1 19  1  0
  3 20  1  0
  5 21  1  0
  7 22  1  0
 10 23  1  0
 12 24  1  0
 13 25  1  0
 14 26  1  0
 15 27  1  0
 16 28  1  0
 17 29  1  0
M  END
