
     RDKit          3D

 37 37  0  0  0  0  0  0  0  0999 V2000
    7.7060    4.7940   22.4000 C   0  0  0  0  0  0  0  0  0  0  0  0
    7.1550    3.4790   22.8910 C   0  0  0  0  0  0  0  0  0  0  0  0
    6.1910    3.4210   23.6450 O   0  0  0  0  0  0  0  0  0  0  0  0
    7.8260    2.3780   22.4170 N   0  0  0  0  0  0  0  0  0  0  0  0
    7.6490    1.0740   23.0480 C   0  0  1  0  0  0  0  0  0  0  0  0
    6.3040    0.4480   22.7310 C   0  0  0  0  0  0  0  0  0  0  0  0
    6.0860    0.4100   21.2640 C   0  0  0  0  0  0  0  0  0  0  0  0
    6.8350   -0.3660   20.3900 C   0  0  0  0  0  0  0  0  0  0  0  0
    6.5370   -0.3370   18.9120 C   0  0  0  0  0  0  0  0  0  0  0  0
    5.5030    0.4730   18.4320 C   0  0  0  0  0  0  0  0  0  0  0  0
    5.3230    0.4410   17.2520 O   0  0  0  0  0  0  0  0  0  0  0  0
    4.6690    1.3260   19.3410 C   0  0  0  0  0  0  0  0  0  0  0  0
    3.5740    2.1850   18.8470 N   0  0  0  0  0  0  0  0  0  0  0  0
    5.0420    1.2310   20.8020 C   0  0  0  0  0  0  0  0  0  0  0  0
    8.7730    0.1960   22.5980 C   0  0  0  0  0  0  0  0  0  0  0  0
    9.8140    0.8020   21.8260 O   0  0  0  0  0  0  0  0  0  0  0  0
    8.9530   -1.2360   22.8810 N   0  0  0  0  0  0  0  0  0  0  0  0
    9.8610   -1.9840   22.1750 C   0  0  0  0  0  0  0  0  0  0  0  0
   11.1340   -1.4540   22.0090 C   0  0  0  0  0  0  0  0  0  0  0  0
   12.2120   -1.8330   22.7980 C   0  0  0  0  0  0  0  0  0  0  0  0
   13.2410   -2.2890   24.2520 Br  0  0  0  0  0  0  0  0  0  0  0  0
    7.4880    5.6050   23.0960 H   0  0  0  0  0  0  0  0  0  0  0  0
    8.7930    4.7090   22.3050 H   0  0  0  0  0  0  0  0  0  0  0  0
    7.2680    5.0290   21.4280 H   0  0  0  0  0  0  0  0  0  0  0  0
    8.6800    2.5290   21.9040 H   0  0  0  0  0  0  0  0  0  0  0  0
    7.7520    1.2130   24.1320 H   0  0  0  0  0  0  0  0  0  0  0  0
    6.2310   -0.5540   23.1670 H   0  0  0  0  0  0  0  0  0  0  0  0
    5.5090    1.0380   23.2030 H   0  0  0  0  0  0  0  0  0  0  0  0
    7.6410   -0.9970   20.7800 H   0  0  0  0  0  0  0  0  0  0  0  0
    7.1260   -0.9470   18.2230 H   0  0  0  0  0  0  0  0  0  0  0  0
    5.0750   -0.4510   16.8170 H   0  0  0  0  0  0  0  0  0  0  0  0
    3.3000    1.9490   17.8840 H   0  0  0  0  0  0  0  0  0  0  0  0
    2.7840    2.2750   19.4930 H   0  0  0  0  0  0  0  0  0  0  0  0
    4.4160    1.8640   21.4410 H   0  0  0  0  0  0  0  0  0  0  0  0
    8.8190   -1.5590   23.8370 H   0  0  0  0  0  0  0  0  0  0  0  0
    9.4380   -2.1170   21.1820 H   0  0  0  0  0  0  0  0  0  0  0  0
    9.9650   -2.9580   22.6650 H   0  0  0  0  0  0  0  0  0  0  0  0
  1  2  1  0
  2  3  2  0
  2  4  1  0
  4  5  1  0
  5  6  1  0
  6  7  1  0
  7  8  2  0
  8  9  1  0
  9 10  2  0
 10 11  1  0
 10 12  1  0
 12 13  1  0
  7 14  1  0
 12 14  2  0
  5 15  1  0
 15 16  2  0
 15 17  1  0
 17 18  1  0
 18 19  1  0
 19 20  3  0
 20 21  1  0
  1 22  1  0
  1 23  1  0
  1 24  1  0
  4 25  1  0
  5 26  1  1
  6 27  1  0
  6 28  1  0
  8 29  1  0
  9 30  1  0
 11 31  1  0
 13 32  1  0
 13 33  1  0
 14 34  1  0
 17 35  1  0
 18 36  1  0
 18 37  1  0
M  END
