
     RDKit          3D

 23 23  0  0  0  0  0  0  0  0999 V2000
    9.7870   -0.6040   22.4310 C   0  0  0  0  0  0  0  0  0  0  0  0
    8.8240    0.1510   21.5520 C   0  0  0  0  0  0  0  0  0  0  0  0
    9.0230    1.3360   21.2250 O   0  0  0  0  0  0  0  0  0  0  0  0
    7.7170   -0.5890   21.1660 N   0  0  0  0  0  0  0  0  0  0  0  0
    6.7640   -0.0730   20.1970 C   0  0  0  0  0  0  0  0  0  0  0  0
    7.1240   -0.2880   18.7790 C   0  0  0  0  0  0  0  0  0  0  0  0
    6.1980    0.2400   17.8260 N   0  0  0  0  0  0  0  0  0  0  0  0
    4.9780    0.9340   18.2390 C   0  0  0  0  0  0  0  0  0  0  0  0
    4.5180    1.1840   19.5420 C   0  0  0  0  0  0  0  0  0  0  0  0
    3.8110    1.5760   20.3700 N   0  0  0  0  0  0  0  0  0  0  0  0
    5.5730    0.5950   20.5290 C   0  0  0  0  0  0  0  0  0  0  0  0
    5.2220    0.7970   21.8830 C   0  0  0  0  0  0  0  0  0  0  0  0
   10.8080   -0.2310   22.3220 H   0  0  0  0  0  0  0  0  0  0  0  0
    9.4890   -0.4870   23.4760 H   0  0  0  0  0  0  0  0  0  0  0  0
    9.7650   -1.6630   22.1540 H   0  0  0  0  0  0  0  0  0  0  0  0
    7.5370   -1.4870   21.5990 H   0  0  0  0  0  0  0  0  0  0  0  0
    8.0050   -0.7940   18.4040 H   0  0  0  0  0  0  0  0  0  0  0  0
    4.4540    1.2420   17.3540 H   0  0  0  0  0  0  0  0  0  0  0  0
    4.1710    2.3720   20.8960 H   0  0  0  0  0  0  0  0  0  0  0  0
    3.4180    0.8600   20.9860 H   0  0  0  0  0  0  0  0  0  0  0  0
    4.2990    1.3700   21.9030 H   0  0  0  0  0  0  0  0  0  0  0  0
    5.9620    1.3910   22.4160 H   0  0  0  0  0  0  0  0  0  0  0  0
    5.0360   -0.0810   22.4930 H   0  0  0  0  0  0  0  0  0  0  0  0
  1  2  1  0
  2  3  2  0
  2  4  1  0
  4  5  1  0
  5  6  2  0
  6  7  1  0
  7  8  2  0
  8  9  1  0
  9 10  1  0
  5 11  1  0
  9 11  2  0
 11 12  1  0
  1 13  1  0
  1 14  1  0
  1 15  1  0
  4 16  1  0
  6 17  1  0
  8 18  1  0
 10 19  1  0
 10 20  1  0
 12 21  1  0
 12 22  1  0
 12 23  1  0
M  END
