
     RDKit          3D

 39 41  0  0  0  0  0  0  0  0999 V2000
   10.6740  -27.0700    4.0760 F   0  0  0  0  0  0  0  0  0  0  0  0
   11.4860  -26.4440    3.2070 C   0  0  1  0  0  0  0  0  0  0  0  0
   12.0370  -25.1650    3.5440 C   0  0  0  0  0  0  0  0  0  0  0  0
   12.8910  -25.1240    2.5180 C   0  0  2  0  0  0  0  0  0  0  0  0
   14.3010  -25.3740    2.8920 C   0  0  0  0  0  0  0  0  0  0  0  0
   14.0520  -26.6770    3.6290 C   0  0  0  0  0  0  0  0  0  0  0  0
   12.7220  -27.3060    3.2490 N   0  0  0  0  0  0  0  0  0  0  0  0
   12.2800  -24.3780    1.3250 C   0  0  0  0  0  0  0  0  0  0  0  0
   10.8160  -24.8680    1.4640 C   0  0  1  0  0  0  0  0  0  0  0  0
   10.1750  -24.7850    0.1780 C   0  0  0  0  0  0  0  0  0  0  0  0
    9.3170  -23.6890   -0.0180 N   0  0  0  0  0  0  0  0  0  0  0  0
    8.2780  -23.4730   -1.0360 C   0  0  0  0  0  0  0  0  0  0  0  0
    7.4620  -22.1480   -1.0820 C   0  0  0  0  0  0  0  0  0  0  0  0
    7.8660  -20.9470   -1.6420 C   0  0  0  0  0  0  0  0  0  0  0  0
    6.8460  -20.0960   -1.4460 C   0  0  0  0  0  0  0  0  0  0  0  0
    5.9000  -20.8250   -0.7920 C   0  0  0  0  0  0  0  0  0  0  0  0
    6.2860  -22.0200   -0.5960 O   0  0  0  0  0  0  0  0  0  0  0  0
   10.7860  -26.2500    1.9490 C   0  0  0  0  0  0  0  0  0  0  0  0
   12.5370  -25.1680    4.5220 H   0  0  0  0  0  0  0  0  0  0  0  0
   11.3180  -24.3640    3.4610 H   0  0  0  0  0  0  0  0  0  0  0  0
   12.7340  -26.1190    2.0910 H   0  0  0  0  0  0  0  0  0  0  0  0
   14.6370  -24.6020    3.5820 H   0  0  0  0  0  0  0  0  0  0  0  0
   15.0790  -25.4980    2.1460 H   0  0  0  0  0  0  0  0  0  0  0  0
   14.0940  -26.4410    4.6880 H   0  0  0  0  0  0  0  0  0  0  0  0
   14.8000  -27.4620    3.5410 H   0  0  0  0  0  0  0  0  0  0  0  0
   12.5280  -28.1180    3.8300 H   0  0  0  0  0  0  0  0  0  0  0  0
   12.5180  -23.3350    1.4430 H   0  0  0  0  0  0  0  0  0  0  0  0
   12.8200  -24.6690    0.4280 H   0  0  0  0  0  0  0  0  0  0  0  0
   10.2360  -24.3580    2.2370 H   0  0  0  0  0  0  0  0  0  0  0  0
    9.6030  -25.6620   -0.1150 H   0  0  0  0  0  0  0  0  0  0  0  0
   10.8970  -24.6980   -0.6390 H   0  0  0  0  0  0  0  0  0  0  0  0
    9.7920  -22.8080    0.2120 H   0  0  0  0  0  0  0  0  0  0  0  0
    8.7100  -23.7740   -1.9880 H   0  0  0  0  0  0  0  0  0  0  0  0
    7.5220  -24.2480   -0.8520 H   0  0  0  0  0  0  0  0  0  0  0  0
    8.8140  -20.7430   -2.1360 H   0  0  0  0  0  0  0  0  0  0  0  0
    6.8160  -19.0530   -1.7570 H   0  0  0  0  0  0  0  0  0  0  0  0
    4.9410  -20.3850   -0.4940 H   0  0  0  0  0  0  0  0  0  0  0  0
   11.2180  -26.8930    1.1890 H   0  0  0  0  0  0  0  0  0  0  0  0
    9.7490  -26.5770    2.0390 H   0  0  0  0  0  0  0  0  0  0  0  0
  2  1  1  1
  2  3  1  0
  3  4  1  0
  4  5  1  0
  5  6  1  0
  2  7  1  0
  6  7  1  0
  4  8  1  0
  8  9  1  0
  9 10  1  0
 10 11  1  0
 11 12  1  0
 12 13  1  0
 13 14  2  0
 14 15  1  0
 15 16  2  0
 13 17  1  0
 16 17  1  0
  2 18  1  0
  9 18  1  0
  3 19  1  0
  3 20  1  0
  4 21  1  6
  5 22  1  0
  5 23  1  0
  6 24  1  0
  6 25  1  0
  7 26  1  0
  8 27  1  0
  8 28  1  0
  9 29  1  1
 10 30  1  0
 10 31  1  0
 11 32  1  0
 12 33  1  0
 12 34  1  0
 14 35  1  0
 15 36  1  0
 16 37  1  0
 18 38  1  0
 18 39  1  0
M  END
