LIG
     RDKit          3D

 38 39  0  0  0  0  0  0  0  0999 V2000
   21.2820   -7.5570    5.4940 O   0  0  0  0  0  0  0  0  0  0  0  0
   22.2085   -7.6245    6.0505 C   0  0  0  0  0  0  0  0  0  0  0  0
   21.9955   -8.4915    6.9100 C   0  0  0  0  0  0  0  0  0  0  0  0
   22.3920   -9.6730    5.7370 C   0  0  0  0  0  0  0  0  0  0  0  0
   23.4140   -9.1470    4.9905 C   0  0  0  0  0  0  0  0  0  0  0  0
   24.2440  -10.7970    3.9930 S   0  0  0  0  0  0  0  0  0  0  0  0
   25.9960  -10.3360    4.1600 C   0  0  0  0  0  0  0  0  0  0  0  0
   26.3490  -10.2540    5.6510 C   0  0  0  0  0  0  0  0  0  0  0  0
   27.2650  -11.0650    6.0370 N   0  0  0  0  0  0  0  0  0  0  0  0
   27.8610  -10.7420    7.2600 C   0  0  0  0  0  0  0  0  0  0  0  0
   27.6580  -11.7280    8.3980 C   0  0  0  0  0  0  0  0  0  0  0  0
   27.8520  -13.0140    7.9640 O   0  0  0  0  0  0  0  0  0  0  0  0
   26.9780  -13.3480    6.9410 C   0  0  0  0  0  0  0  0  0  0  0  0
   27.0730  -12.4170    5.7370 C   0  0  0  0  0  0  0  0  0  0  0  0
   24.0855   -7.9405    4.7800 C   0  0  0  0  0  0  0  0  0  0  0  0
   24.7060   -7.2450    3.9220 O   0  0  0  0  0  0  0  0  0  0  0  0
   23.3080   -6.9470    5.4970 C   0  0  0  0  0  0  0  0  0  0  0  0
   21.0052   -8.7523    7.1376 H   0  0  0  0  0  0  0  0  0  0  0  0
   22.7001   -8.6631    7.6604 H   0  0  0  0  0  0  0  0  0  0  0  0
   22.6144  -10.5385    6.3388 H   0  0  0  0  0  0  0  0  0  0  0  0
   21.4222   -9.8137    5.2711 H   0  0  0  0  0  0  0  0  0  0  0  0
   24.3954   -9.5100    6.0633 H   0  0  0  0  0  0  0  0  0  0  0  0
   26.5804  -11.1279    3.7145 H   0  0  0  0  0  0  0  0  0  0  0  0
   26.1986   -9.4021    3.6599 H   0  0  0  0  0  0  0  0  0  0  0  0
   25.3673  -10.4878    6.1457 H   0  0  0  0  0  0  0  0  0  0  0  0
   26.5049   -9.1708    5.9247 H   0  0  0  0  0  0  0  0  0  0  0  0
   28.9773  -10.6091    7.1503 H   0  0  0  0  0  0  0  0  0  0  0  0
   27.5049   -9.7311    7.6061 H   0  0  0  0  0  0  0  0  0  0  0  0
   26.6514  -11.6239    8.8226 H   0  0  0  0  0  0  0  0  0  0  0  0
   28.3708  -11.5136    9.2021 H   0  0  0  0  0  0  0  0  0  0  0  0
   25.9522  -13.3252    7.3437 H   0  0  0  0  0  0  0  0  0  0  0  0
   27.1640  -14.3914    6.6321 H   0  0  0  0  0  0  0  0  0  0  0  0
   27.8222  -12.8358    5.0296 H   0  0  0  0  0  0  0  0  0  0  0  0
   26.1143  -12.5134    5.1773 H   0  0  0  0  0  0  0  0  0  0  0  0
   24.9938   -7.9970    5.6676 H   0  0  0  0  0  0  0  0  0  0  0  0
   24.7002   -7.6608    3.0117 H   0  0  0  0  0  0  0  0  0  0  0  0
   22.9796   -6.1223    4.8371 H   0  0  0  0  0  0  0  0  0  0  0  0
   23.9176   -6.4791    6.2932 H   0  0  0  0  0  0  0  0  0  0  0  0
  1  2  2  0
  2  3  1  0
  3  4  1  0
  4  5  1  0
  5  6  1  0
  6  7  1  0
  7  8  1  0
  8  9  1  0
  9 10  1  0
 10 11  1  0
 11 12  1  0
 12 13  1  0
 13 14  1  0
  5 15  1  0
 15 16  1  0
 15 17  1  0
 17  2  1  0
 14  9  1  0
  3 18  1  0
  3 19  1  0
  4 20  1  0
  4 21  1  0
  5 22  1  0
  7 23  1  0
  7 24  1  0
  8 25  1  0
  8 26  1  0
 10 27  1  0
 10 28  1  0
 11 29  1  0
 11 30  1  0
 13 31  1  0
 13 32  1  0
 14 33  1  0
 14 34  1  0
 15 35  1  0
 16 36  1  0
 17 37  1  0
 17 38  1  0
M  END
