
     RDKit          3D

 63 66  0  0  0  0  0  0  0  0999 V2000
   13.2110   -2.6340   20.9310 N   0  0  0  0  0  0  0  0  0  0  0  0
   12.5670   -1.9500   21.5910 C   0  0  0  0  0  0  0  0  0  0  0  0
   11.8190   -0.9530   22.4080 C   0  0  2  0  0  0  0  0  0  0  0  0
   12.6960   -0.0640   22.9610 C   0  0  0  0  0  0  0  0  0  0  0  0
   12.1450    0.7670   24.0660 C   0  0  0  0  0  0  0  0  0  0  0  0
   10.6640    0.9110   24.0260 C   0  0  2  0  0  0  0  0  0  0  0  0
    9.8440    0.6890   25.0650 C   0  0  0  0  0  0  0  0  0  0  0  0
    8.7500    0.1620   24.4710 N   0  0  0  0  0  0  0  0  0  0  0  0
    7.8810    1.2100   24.1540 C   0  0  0  0  0  0  0  0  0  0  0  0
    8.2200    2.3880   24.0510 O   0  0  0  0  0  0  0  0  0  0  0  0
    6.4200    1.0250   23.8520 N   0  0  0  0  0  0  0  0  0  0  0  0
    5.5520    0.8230   25.0650 C   0  0  0  0  0  0  0  0  0  0  0  0
    4.0720    0.7510   24.8020 C   0  0  0  0  0  0  0  0  0  0  0  0
    3.6250    1.4120   23.8600 O   0  0  0  0  0  0  0  0  0  0  0  0
    4.5010    1.3850   22.7130 C   0  0  0  0  0  0  0  0  0  0  0  0
    5.7760    1.8620   22.8840 C   0  0  0  0  0  0  0  0  0  0  0  0
    8.2300   -0.9620   24.8220 C   0  0  0  0  0  0  0  0  0  0  0  0
    8.4090   -2.0780   23.9670 C   0  0  2  0  0  0  0  0  0  0  0  0
    7.8170   -3.3280   24.4630 N   0  0  0  0  0  0  0  0  0  0  0  0
    8.2390   -4.4780   23.7100 C   0  0  0  0  0  0  0  0  0  0  0  0
    7.2410   -4.9430   22.8760 C   0  0  0  0  0  0  0  0  0  0  0  0
    6.2280   -5.6940   23.6860 C   0  0  0  0  0  0  0  0  0  0  0  0
    6.5360   -5.5770   25.0680 O   0  0  0  0  0  0  0  0  0  0  0  0
    6.0190   -4.3600   25.6160 C   0  0  0  0  0  0  0  0  0  0  0  0
    6.7520   -3.1830   25.3560 C   0  0  0  0  0  0  0  0  0  0  0  0
    9.8650   -2.4660   23.5130 C   0  0  0  0  0  0  0  0  0  0  0  0
   10.7550   -1.2600   23.2310 C   0  0  2  0  0  0  0  0  0  0  0  0
    9.9280    0.0460   23.2600 C   0  0  2  0  0  0  0  0  0  0  0  0
    9.3750    0.5900   22.0060 C   0  0  0  0  0  0  0  0  0  0  0  0
    8.8580    1.1650   21.1590 N   0  0  0  0  0  0  0  0  0  0  0  0
   11.2650   -0.3770   21.6940 H   0  0  0  0  0  0  0  0  0  0  0  0
   13.0890    0.6010   22.1880 H   0  0  0  0  0  0  0  0  0  0  0  0
   13.5660   -0.6080   23.3460 H   0  0  0  0  0  0  0  0  0  0  0  0
   12.4430    0.2660   24.9920 H   0  0  0  0  0  0  0  0  0  0  0  0
   12.5300    1.7610   24.1300 H   0  0  0  0  0  0  0  0  0  0  0  0
   10.5990    1.8980   23.5800 H   0  0  0  0  0  0  0  0  0  0  0  0
    9.5710    1.6340   25.5170 H   0  0  0  0  0  0  0  0  0  0  0  0
   10.2590   -0.0190   25.7920 H   0  0  0  0  0  0  0  0  0  0  0  0
    5.9570   -0.0720   25.5350 H   0  0  0  0  0  0  0  0  0  0  0  0
    5.8340    1.6290   25.7420 H   0  0  0  0  0  0  0  0  0  0  0  0
    3.5290    1.0510   25.7060 H   0  0  0  0  0  0  0  0  0  0  0  0
    3.8020   -0.2970   24.6280 H   0  0  0  0  0  0  0  0  0  0  0  0
    4.6580    0.3290   22.4810 H   0  0  0  0  0  0  0  0  0  0  0  0
    3.9120    1.8010   21.8890 H   0  0  0  0  0  0  0  0  0  0  0  0
    5.8560    2.8820   23.2660 H   0  0  0  0  0  0  0  0  0  0  0  0
    6.4470    1.8640   22.0230 H   0  0  0  0  0  0  0  0  0  0  0  0
    8.7210   -1.2070   25.7500 H   0  0  0  0  0  0  0  0  0  0  0  0
    7.2190   -0.7400   25.1490 H   0  0  0  0  0  0  0  0  0  0  0  0
    7.9120   -1.8780   23.0100 H   0  0  0  0  0  0  0  0  0  0  0  0
    8.6990   -5.2050   24.3250 H   0  0  0  0  0  0  0  0  0  0  0  0
    9.0270   -4.1070   23.0690 H   0  0  0  0  0  0  0  0  0  0  0  0
    6.7680   -4.1030   22.3520 H   0  0  0  0  0  0  0  0  0  0  0  0
    7.6590   -5.5990   22.1060 H   0  0  0  0  0  0  0  0  0  0  0  0
    6.1560   -6.7350   23.3470 H   0  0  0  0  0  0  0  0  0  0  0  0
    5.2440   -5.2400   23.5140 H   0  0  0  0  0  0  0  0  0  0  0  0
    6.0010   -4.5030   26.7030 H   0  0  0  0  0  0  0  0  0  0  0  0
    4.9720   -4.2310   25.3130 H   0  0  0  0  0  0  0  0  0  0  0  0
    7.0960   -2.5980   26.2160 H   0  0  0  0  0  0  0  0  0  0  0  0
    6.0150   -2.5280   24.8820 H   0  0  0  0  0  0  0  0  0  0  0  0
    9.7920   -3.0420   22.5790 H   0  0  0  0  0  0  0  0  0  0  0  0
   10.3380   -3.1250   24.2480 H   0  0  0  0  0  0  0  0  0  0  0  0
   11.3540   -1.3890   24.1460 H   0  0  0  0  0  0  0  0  0  0  0  0
    8.9750   -0.1600   23.7050 H   0  0  0  0  0  0  0  0  0  0  0  0
  1  2  3  0
  2  3  1  0
  3  4  1  0
  4  5  1  0
  5  6  1  0
  6  7  1  0
  7  8  1  0
  8  9  1  0
  9 10  2  0
  9 11  1  0
 11 12  1  0
 12 13  1  0
 13 14  1  0
 14 15  1  0
 11 16  1  0
 15 16  1  0
  8 17  1  0
 17 18  1  0
 18 19  1  0
 19 20  1  0
 20 21  1  0
 21 22  1  0
 22 23  1  0
 23 24  1  0
 19 25  1  0
 24 25  1  0
 18 26  1  0
  3 27  1  0
 26 27  1  0
  6 28  1  0
 27 28  1  0
 28 29  1  0
 29 30  3  0
  3 31  1  6
  4 32  1  0
  4 33  1  0
  5 34  1  0
  5 35  1  0
  6 36  1  6
  7 37  1  0
  7 38  1  0
 12 39  1  0
 12 40  1  0
 13 41  1  0
 13 42  1  0
 15 43  1  0
 15 44  1  0
 16 45  1  0
 16 46  1  0
 17 47  1  0
 17 48  1  0
 18 49  1  6
 20 50  1  0
 20 51  1  0
 21 52  1  0
 21 53  1  0
 22 54  1  0
 22 55  1  0
 24 56  1  0
 24 57  1  0
 25 58  1  0
 25 59  1  0
 26 60  1  0
 26 61  1  0
 27 62  1  1
 28 63  1  1
M  END
