LIG
     RDKit          3D

 64 67  0  0  0  0  0  0  0  0999 V2000
    8.9920    6.2370   22.6120 C   0  0  0  0  0  0  0  0  0  0  0  0
   10.2740    5.9430   23.3830 C   0  0  0  0  0  0  0  0  0  0  0  0
   10.3130    6.1380   24.5460 O   0  0  0  0  0  0  0  0  0  0  0  0
   11.4270    5.4110   22.6760 N   0  0  0  0  0  0  0  0  0  0  0  0
   12.6680    5.0840   23.3500 C   0  0  0  0  0  0  0  0  0  0  0  0
   13.0500    3.6550   22.9570 C   0  0  0  0  0  0  0  0  0  0  0  0
   12.0650    2.5700   23.4230 C   0  0  0  0  0  0  0  0  0  0  0  0
   10.9400    2.7480   24.2110 C   0  0  0  0  0  0  0  0  0  0  0  0
   10.3530    1.5710   24.3790 N   0  0  0  0  0  0  0  0  0  0  0  0
   11.0480    0.5960   23.7280 C   0  0  0  0  0  0  0  0  0  0  0  0
   12.1310    1.1860   23.1210 C   0  0  0  0  0  0  0  0  0  0  0  0
   13.0300    0.3840   22.3680 C   0  0  0  0  0  0  0  0  0  0  0  0
   12.8100   -0.9880   22.2450 C   0  0  0  0  0  0  0  0  0  0  0  0
   13.6800   -1.7440   21.5180 F   0  0  0  0  0  0  0  0  0  0  0  0
   10.9545   -1.6545   22.6030 C   0  0  0  0  0  0  0  0  0  0  0  0
   10.1230   -2.7850   23.1640 C   0  0  0  0  0  0  0  0  0  0  0  0
    9.4490   -2.7910   24.4310 C   0  0  0  0  0  0  0  0  0  0  0  0
    9.5290   -3.9700   25.2640 N   0  0  0  0  0  0  0  0  0  0  0  0
    9.8940   -5.2910   24.6800 C   0  0  0  0  0  0  0  0  0  0  0  0
    8.9080   -5.8040   23.6240 C   0  0  0  0  0  0  0  0  0  0  0  0
    7.4420   -5.5890   24.0410 C   0  0  0  0  0  0  0  0  0  0  0  0
    7.3000   -5.8000   25.4420 O   0  0  0  0  0  0  0  0  0  0  0  0
    7.2860   -4.6680   26.2770 C   0  0  0  0  0  0  0  0  0  0  0  0
    8.7010   -4.0730   26.4970 C   0  0  0  0  0  0  0  0  0  0  0  0
    8.8070   -1.5850   24.7810 C   0  0  0  0  0  0  0  0  0  0  0  0
    8.8780   -0.4790   23.9400 C   0  0  0  0  0  0  0  0  0  0  0  0
   10.2040   -0.6930   23.1820 C   0  0  0  0  0  0  0  0  0  0  0  0
    9.7510    0.5640   21.9590 C   0  0  0  0  0  0  0  0  0  0  0  0
    9.8900    1.5270   21.3460 N   0  0  0  0  0  0  0  0  0  0  0  0
    8.3522    6.8708   23.2252 H   0  0  0  0  0  0  0  0  0  0  0  0
    8.4701    5.3131   22.3652 H   0  0  0  0  0  0  0  0  0  0  0  0
    8.1440    5.8588   23.1865 H   0  0  0  0  0  0  0  0  0  0  0  0
   11.2151    4.9803   21.7787 H   0  0  0  0  0  0  0  0  0  0  0  0
   12.4980    5.1718   24.4120 H   0  0  0  0  0  0  0  0  0  0  0  0
   13.4301    5.7848   23.0388 H   0  0  0  0  0  0  0  0  0  0  0  0
   13.1807    3.6017   21.8586 H   0  0  0  0  0  0  0  0  0  0  0  0
   14.0516    3.4323   23.3739 H   0  0  0  0  0  0  0  0  0  0  0  0
   12.9001    2.3706   24.6291 H   0  0  0  0  0  0  0  0  0  0  0  0
   11.1816    3.2362   25.2126 H   0  0  0  0  0  0  0  0  0  0  0  0
   10.1919    3.4860   23.7688 H   0  0  0  0  0  0  0  0  0  0  0  0
   10.2791    1.3542   25.4266 H   0  0  0  0  0  0  0  0  0  0  0  0
   10.2173    1.2875   22.4987 H   0  0  0  0  0  0  0  0  0  0  0  0
   11.3063    1.3628   21.8881 H   0  0  0  0  0  0  0  0  0  0  0  0
   13.1531    0.8424   21.3136 H   0  0  0  0  0  0  0  0  0  0  0  0
   14.1167    0.5437   22.7341 H   0  0  0  0  0  0  0  0  0  0  0  0
   12.2255   -0.6865   20.8004 H   0  0  0  0  0  0  0  0  0  0  0  0
   11.5208   -1.6298   24.1437 H   0  0  0  0  0  0  0  0  0  0  0  0
    9.3682   -3.1011   22.3066 H   0  0  0  0  0  0  0  0  0  0  0  0
   10.8209   -3.7314   23.0785 H   0  0  0  0  0  0  0  0  0  0  0  0
   10.7154   -2.3381   25.0358 H   0  0  0  0  0  0  0  0  0  0  0  0
   10.9371   -5.2777   24.2933 H   0  0  0  0  0  0  0  0  0  0  0  0
    9.9351   -6.0650   25.4716 H   0  0  0  0  0  0  0  0  0  0  0  0
    9.0767   -6.8603   23.4537 H   0  0  0  0  0  0  0  0  0  0  0  0
    9.0767   -5.2771   22.6934 H   0  0  0  0  0  0  0  0  0  0  0  0
    7.1030   -4.6039   23.7637 H   0  0  0  0  0  0  0  0  0  0  0  0
    6.8329   -6.3238   23.5377 H   0  0  0  0  0  0  0  0  0  0  0  0
    6.5962   -3.9005   25.9068 H   0  0  0  0  0  0  0  0  0  0  0  0
    6.9034   -4.9823   27.2543 H   0  0  0  0  0  0  0  0  0  0  0  0
    8.5661   -3.1025   26.9461 H   0  0  0  0  0  0  0  0  0  0  0  0
    9.2134   -4.7343   27.1785 H   0  0  0  0  0  0  0  0  0  0  0  0
    7.6915   -1.8053   25.0304 H   0  0  0  0  0  0  0  0  0  0  0  0
    9.1371   -1.2313   25.8357 H   0  0  0  0  0  0  0  0  0  0  0  0
    8.0726   -0.4325   23.2293 H   0  0  0  0  0  0  0  0  0  0  0  0
    8.9376    0.4458   24.4848 H   0  0  0  0  0  0  0  0  0  0  0  0
  1  2  1  0
  2  3  2  0
  2  4  1  0
  4  5  1  0
  5  6  1  0
  6  7  1  0
  7  8  1  0
  8  9  1  0
  9 10  1  0
 10 11  1  0
 11 12  1  0
 12 13  1  0
 13 14  1  0
 13 15  1  0
 15 16  1  0
 16 17  1  0
 17 18  1  0
 18 19  1  0
 19 20  1  0
 20 21  1  0
 21 22  1  0
 22 23  1  0
 23 24  1  0
 17 25  1  0
 25 26  1  0
 26 27  1  0
 27 28  1  0
 28 29  3  0
 11  7  1  0
 27 15  1  0
 27 10  1  0
 24 18  1  0
  1 30  1  0
  1 31  1  0
  1 32  1  0
  4 33  1  0
  5 34  1  0
  5 35  1  0
  6 36  1  0
  6 37  1  0
  7 38  1  0
  8 39  1  0
  8 40  1  0
  9 41  1  0
 10 42  1  0
 11 43  1  0
 12 44  1  0
 12 45  1  0
 13 46  1  0
 15 47  1  0
 16 48  1  0
 16 49  1  0
 17 50  1  0
 19 51  1  0
 19 52  1  0
 20 53  1  0
 20 54  1  0
 21 55  1  0
 21 56  1  0
 23 57  1  0
 23 58  1  0
 24 59  1  0
 24 60  1  0
 25 61  1  0
 25 62  1  0
 26 63  1  0
 26 64  1  0
M  END
