LIG
     RDKit          3D

 63 66  0  0  0  0  0  0  0  0999 V2000
   13.9850   -1.7380   20.5810 N   0  0  0  0  0  0  0  0  0  0  0  0
   13.2800   -1.3010   21.3800 C   0  0  0  0  0  0  0  0  0  0  0  0
   12.4390   -0.7270   22.3590 C   0  0  0  0  0  0  0  0  0  0  0  0
   12.7690    0.5130   22.9150 C   0  0  0  0  0  0  0  0  0  0  0  0
   11.9170    1.0940   23.8520 C   0  0  0  0  0  0  0  0  0  0  0  0
   10.7560    0.4300   24.2400 C   0  0  0  0  0  0  0  0  0  0  0  0
    9.8330    1.0540   25.2470 C   0  0  0  0  0  0  0  0  0  0  0  0
    8.6640    0.1180   24.4310 N   0  0  0  0  0  0  0  0  0  0  0  0
    7.7030    1.4680   24.0150 C   0  0  0  0  0  0  0  0  0  0  0  0
    8.1720    2.4660   23.4420 O   0  0  0  0  0  0  0  0  0  0  0  0
    6.3360    0.9640   23.8050 N   0  0  0  0  0  0  0  0  0  0  0  0
    5.4800    0.8530   25.0320 C   0  0  0  0  0  0  0  0  0  0  0  0
    4.0500    0.3480   24.7320 C   0  0  0  0  0  0  0  0  0  0  0  0
    3.4750    1.0690   23.6570 O   0  0  0  0  0  0  0  0  0  0  0  0
    4.2210    1.0320   22.4570 C   0  0  0  0  0  0  0  0  0  0  0  0
    5.6140    1.6470   22.6990 C   0  0  0  0  0  0  0  0  0  0  0  0
    8.8070   -1.5850   24.7810 C   0  0  0  0  0  0  0  0  0  0  0  0
    9.4490   -2.7910   24.4310 C   0  0  0  0  0  0  0  0  0  0  0  0
    9.5290   -3.9700   25.2640 N   0  0  0  0  0  0  0  0  0  0  0  0
    9.8940   -5.2910   24.6800 C   0  0  0  0  0  0  0  0  0  0  0  0
    8.9080   -5.8040   23.6240 C   0  0  0  0  0  0  0  0  0  0  0  0
    7.4420   -5.5890   24.0410 C   0  0  0  0  0  0  0  0  0  0  0  0
    7.3000   -5.8000   25.4420 O   0  0  0  0  0  0  0  0  0  0  0  0
    7.2860   -4.6680   26.2770 C   0  0  0  0  0  0  0  0  0  0  0  0
    8.7010   -4.0730   26.4970 C   0  0  0  0  0  0  0  0  0  0  0  0
   10.1230   -2.7850   23.1640 C   0  0  0  0  0  0  0  0  0  0  0  0
   10.7415   -1.5630   22.5415 C   0  0  0  0  0  0  0  0  0  0  0  0
   10.0130   -0.7015   23.2215 C   0  0  0  0  0  0  0  0  0  0  0  0
    9.7510    0.5640   21.9590 C   0  0  0  0  0  0  0  0  0  0  0  0
    9.8900    1.5270   21.3460 N   0  0  0  0  0  0  0  0  0  0  0  0
   11.7862   -0.0071   21.1477 H   0  0  0  0  0  0  0  0  0  0  0  0
   12.9409    1.2716   22.0663 H   0  0  0  0  0  0  0  0  0  0  0  0
   13.8448    0.5079   23.3390 H   0  0  0  0  0  0  0  0  0  0  0  0
   12.5517    1.3845   24.7692 H   0  0  0  0  0  0  0  0  0  0  0  0
   11.6462    2.1545   23.4929 H   0  0  0  0  0  0  0  0  0  0  0  0
   10.0205    1.4562   23.2394 H   0  0  0  0  0  0  0  0  0  0  0  0
    9.5678    1.9590   24.9865 H   0  0  0  0  0  0  0  0  0  0  0  0
    9.8096    0.6665   26.1313 H   0  0  0  0  0  0  0  0  0  0  0  0
    5.9727    0.2035   25.7721 H   0  0  0  0  0  0  0  0  0  0  0  0
    5.4520    1.8616   25.4757 H   0  0  0  0  0  0  0  0  0  0  0  0
    3.4280    0.4674   25.6092 H   0  0  0  0  0  0  0  0  0  0  0  0
    4.0738   -0.6969   24.4516 H   0  0  0  0  0  0  0  0  0  0  0  0
    4.3237    0.0001   22.1431 H   0  0  0  0  0  0  0  0  0  0  0  0
    3.6855    1.5774   21.6859 H   0  0  0  0  0  0  0  0  0  0  0  0
    5.4766    2.6872   22.9773 H   0  0  0  0  0  0  0  0  0  0  0  0
    6.2128    1.5722   21.7924 H   0  0  0  0  0  0  0  0  0  0  0  0
    8.7701   -1.4375   26.0376 H   0  0  0  0  0  0  0  0  0  0  0  0
    7.5737   -1.7493   24.8436 H   0  0  0  0  0  0  0  0  0  0  0  0
    8.2950   -3.2823   23.8301 H   0  0  0  0  0  0  0  0  0  0  0  0
    9.9039   -6.0269   25.4836 H   0  0  0  0  0  0  0  0  0  0  0  0
   10.8960   -5.2751   24.2557 H   0  0  0  0  0  0  0  0  0  0  0  0
    9.0792   -5.2487   22.7072 H   0  0  0  0  0  0  0  0  0  0  0  0
    9.0778   -6.8491   23.3981 H   0  0  0  0  0  0  0  0  0  0  0  0
    6.7638   -6.2256   23.4780 H   0  0  0  0  0  0  0  0  0  0  0  0
    7.1656   -4.5575   23.8325 H   0  0  0  0  0  0  0  0  0  0  0  0
    6.8751   -4.9495   27.2391 H   0  0  0  0  0  0  0  0  0  0  0  0
    6.6374   -3.9282   25.8301 H   0  0  0  0  0  0  0  0  0  0  0  0
    9.2405   -4.7165   27.1746 H   0  0  0  0  0  0  0  0  0  0  0  0
    8.6109   -3.1185   26.9837 H   0  0  0  0  0  0  0  0  0  0  0  0
    9.4399   -3.2566   22.3378 H   0  0  0  0  0  0  0  0  0  0  0  0
   10.9686   -3.5906   23.1270 H   0  0  0  0  0  0  0  0  0  0  0  0
   11.3944   -1.6093   24.0568 H   0  0  0  0  0  0  0  0  0  0  0  0
    8.9974   -0.7041   23.4355 H   0  0  0  0  0  0  0  0  0  0  0  0
  1  2  3  0
  2  3  1  0
  3  4  1  0
  4  5  1  0
  5  6  1  0
  6  7  1  0
  7  8  1  0
  8  9  1  0
  9 10  2  0
  9 11  1  0
 11 12  1  0
 12 13  1  0
 13 14  1  0
 14 15  1  0
 15 16  1  0
  8 17  1  0
 17 18  1  0
 18 19  1  0
 19 20  1  0
 20 21  1  0
 21 22  1  0
 22 23  1  0
 23 24  1  0
 24 25  1  0
 18 26  1  0
 26 27  1  0
 27 28  1  0
 28 29  1  0
 29 30  3  0
 27  3  1  0
 28  6  1  0
 16 11  1  0
 25 19  1  0
  3 31  1  0
  4 32  1  0
  4 33  1  0
  5 34  1  0
  5 35  1  0
  6 36  1  0
  7 37  1  0
  7 38  1  0
 12 39  1  0
 12 40  1  0
 13 41  1  0
 13 42  1  0
 15 43  1  0
 15 44  1  0
 16 45  1  0
 16 46  1  0
 17 47  1  0
 17 48  1  0
 18 49  1  0
 20 50  1  0
 20 51  1  0
 21 52  1  0
 21 53  1  0
 22 54  1  0
 22 55  1  0
 24 56  1  0
 24 57  1  0
 25 58  1  0
 25 59  1  0
 26 60  1  0
 26 61  1  0
 27 62  1  0
 28 63  1  0
M  END
