LIG
     RDKit          3D

 43 45  0  0  0  0  0  0  0  0999 V2000
    9.8900    1.5270   21.3460 N   0  0  0  0  0  0  0  0  0  0  0  0
    9.7510    0.5640   21.9590 C   0  0  0  0  0  0  0  0  0  0  0  0
    9.3970   -1.1660   23.0505 C   0  0  0  0  0  0  0  0  0  0  0  0
    8.8780   -0.4790   23.9400 C   0  0  0  0  0  0  0  0  0  0  0  0
    8.8070   -1.5850   24.7810 C   0  0  0  0  0  0  0  0  0  0  0  0
    9.3815   -2.9090   24.2985 C   0  0  0  0  0  0  0  0  0  0  0  0
    8.7950   -3.7525   24.9630 N   0  0  0  0  0  0  0  0  0  0  0  0
    9.4885   -5.3660   25.4250 C   0  0  0  0  0  0  0  0  0  0  0  0
    8.9080   -5.8040   23.6240 C   0  0  0  0  0  0  0  0  0  0  0  0
    7.4420   -5.5890   24.0410 C   0  0  0  0  0  0  0  0  0  0  0  0
    7.3000   -5.8000   25.4420 O   0  0  0  0  0  0  0  0  0  0  0  0
    6.8600   -4.8100   26.4275 C   0  0  0  0  0  0  0  0  0  0  0  0
    8.3980   -4.2155   26.3255 C   0  0  0  0  0  0  0  0  0  0  0  0
    8.6390   -3.5100   27.2010 O   0  0  0  0  0  0  0  0  0  0  0  0
   10.8530   -2.2390   22.8770 C   0  0  0  0  0  0  0  0  0  0  0  0
   12.8710   -1.1970   22.6200 C   0  0  0  0  0  0  0  0  0  0  0  0
   13.1790   -0.1430   23.4700 C   0  0  0  0  0  0  0  0  0  0  0  0
   12.1980    0.4100   24.2780 C   0  0  0  0  0  0  0  0  0  0  0  0
   10.9090   -0.0960   24.2540 C   0  0  0  0  0  0  0  0  0  0  0  0
   10.4025   -1.4350   22.8650 N   0  0  0  0  0  0  0  0  0  0  0  0
   10.6105   -0.0288   23.7576 H   0  0  0  0  0  0  0  0  0  0  0  0
    9.5116    0.2456   24.3979 H   0  0  0  0  0  0  0  0  0  0  0  0
    7.9093   -0.0789   23.7719 H   0  0  0  0  0  0  0  0  0  0  0  0
    7.7367   -1.7925   25.1165 H   0  0  0  0  0  0  0  0  0  0  0  0
    9.2870   -1.3417   25.7824 H   0  0  0  0  0  0  0  0  0  0  0  0
    8.4512   -2.7861   23.2288 H   0  0  0  0  0  0  0  0  0  0  0  0
   10.3916   -5.2334   25.3010 H   0  0  0  0  0  0  0  0  0  0  0  0
    8.8472   -5.7656   25.9251 H   0  0  0  0  0  0  0  0  0  0  0  0
    9.1955   -6.7259   23.5541 H   0  0  0  0  0  0  0  0  0  0  0  0
    9.3081   -5.0075   23.1807 H   0  0  0  0  0  0  0  0  0  0  0  0
    6.7619   -6.2345   23.4695 H   0  0  0  0  0  0  0  0  0  0  0  0
    7.1584   -4.5538   23.8199 H   0  0  0  0  0  0  0  0  0  0  0  0
    6.3277   -4.1580   25.9874 H   0  0  0  0  0  0  0  0  0  0  0  0
    6.8391   -5.2353   27.2826 H   0  0  0  0  0  0  0  0  0  0  0  0
   10.8401   -0.9109   24.1317 H   0  0  0  0  0  0  0  0  0  0  0  0
   13.4157   -2.1592   22.6652 H   0  0  0  0  0  0  0  0  0  0  0  0
   12.6632   -1.0506   21.5311 H   0  0  0  0  0  0  0  0  0  0  0  0
   14.0880   -0.4288   24.1348 H   0  0  0  0  0  0  0  0  0  0  0  0
   13.6885    0.6948   22.8478 H   0  0  0  0  0  0  0  0  0  0  0  0
   12.1706    1.5658   24.1100 H   0  0  0  0  0  0  0  0  0  0  0  0
   12.5791    0.4276   25.3826 H   0  0  0  0  0  0  0  0  0  0  0  0
   10.5574   -0.7264   25.1137 H   0  0  0  0  0  0  0  0  0  0  0  0
   10.0581    0.6061   24.0703 H   0  0  0  0  0  0  0  0  0  0  0  0
  1  2  3  0
  2  3  1  0
  3  4  1  0
  4  5  1  0
  5  6  1  0
  6  7  1  0
  7  8  1  0
  8  9  1  0
  9 10  1  0
 10 11  1  0
 11 12  1  0
 12 13  1  0
 13 14  2  0
  6 15  1  0
 15 16  1  0
 16 17  1  0
 17 18  1  0
 18 19  1  0
 19 20  1  0
 20  3  1  0
 13  7  1  0
 20 15  1  0
  3 21  1  0
  4 22  1  0
  4 23  1  0
  5 24  1  0
  5 25  1  0
  6 26  1  0
  8 27  1  0
  8 28  1  0
  9 29  1  0
  9 30  1  0
 10 31  1  0
 10 32  1  0
 12 33  1  0
 12 34  1  0
 15 35  1  0
 16 36  1  0
 16 37  1  0
 17 38  1  0
 17 39  1  0
 18 40  1  0
 18 41  1  0
 19 42  1  0
 19 43  1  0
M  END
