
     RDKit          3D

 64 67  0  0  0  0  0  0  0  0999 V2000
    9.0580    6.6810   22.6120 C   0  0  0  0  0  0  0  0  0  0  0  0
   10.3380    6.2380   23.2680 C   0  0  0  0  0  0  0  0  0  0  0  0
   10.5200    6.3100   24.4800 O   0  0  0  0  0  0  0  0  0  0  0  0
   11.2550    5.7570   22.3640 N   0  0  0  0  0  0  0  0  0  0  0  0
   12.5000    5.1320   22.7710 C   0  0  0  0  0  0  0  0  0  0  0  0
   12.6420    3.7050   22.2160 C   0  0  0  0  0  0  0  0  0  0  0  0
   12.0130    2.7350   23.1420 C   0  0  1  0  0  0  0  0  0  0  0  0
   10.9300    3.2200   23.8820 C   0  0  0  0  0  0  0  0  0  0  0  0
   10.3830    2.1740   24.5550 N   0  0  0  0  0  0  0  0  0  0  0  0
   10.4940    1.3330   23.5670 C   0  0  1  0  0  0  0  0  0  0  0  0
   11.5690    1.2850   22.8040 C   0  0  2  0  0  0  0  0  0  0  0  0
   12.6260    0.2320   22.9680 C   0  0  0  0  0  0  0  0  0  0  0  0
   11.8650   -1.0810   22.7060 C   0  0  1  0  0  0  0  0  0  0  0  0
   12.7890   -2.0860   22.7790 F   0  0  0  0  0  0  0  0  0  0  0  0
   10.7370   -1.3010   23.5350 C   0  0  2  0  0  0  0  0  0  0  0  0
    9.8460   -2.3770   23.3600 C   0  0  0  0  0  0  0  0  0  0  0  0
    8.7500   -2.3160   24.2500 C   0  0  2  0  0  0  0  0  0  0  0  0
    7.9990   -3.5070   24.6480 N   0  0  0  0  0  0  0  0  0  0  0  0
    8.2000   -4.6370   23.8290 C   0  0  0  0  0  0  0  0  0  0  0  0
    7.2300   -5.1510   22.9880 C   0  0  0  0  0  0  0  0  0  0  0  0
    6.0840   -5.6920   23.7880 C   0  0  0  0  0  0  0  0  0  0  0  0
    6.4170   -5.6100   25.1630 O   0  0  0  0  0  0  0  0  0  0  0  0
    5.9940   -4.3790   25.7270 C   0  0  0  0  0  0  0  0  0  0  0  0
    6.7020   -3.2500   25.3010 C   0  0  0  0  0  0  0  0  0  0  0  0
    7.8050   -1.1810   24.0140 C   0  0  0  0  0  0  0  0  0  0  0  0
    8.6170   -0.0190   24.4580 C   0  0  0  0  0  0  0  0  0  0  0  0
    9.8290   -0.0110   23.5450 C   0  0  1  0  0  0  0  0  0  0  0  0
    9.2130    0.1680   22.2160 C   0  0  0  0  0  0  0  0  0  0  0  0
    8.6910    0.4270   21.2290 N   0  0  0  0  0  0  0  0  0  0  0  0
    8.4830    7.3540   23.2540 H   0  0  0  0  0  0  0  0  0  0  0  0
    9.2980    7.2130   21.6900 H   0  0  0  0  0  0  0  0  0  0  0  0
    8.4500    5.8020   22.3790 H   0  0  0  0  0  0  0  0  0  0  0  0
   10.9090    5.5580   21.4280 H   0  0  0  0  0  0  0  0  0  0  0  0
   12.5570    5.1330   23.8660 H   0  0  0  0  0  0  0  0  0  0  0  0
   13.3130    5.7700   22.4010 H   0  0  0  0  0  0  0  0  0  0  0  0
   12.2050    3.6530   21.2120 H   0  0  0  0  0  0  0  0  0  0  0  0
   13.7040    3.4830   22.1440 H   0  0  0  0  0  0  0  0  0  0  0  0
   12.8290    2.5020   23.7650 H   0  0  0  0  0  0  0  0  0  0  0  0
   11.1350    4.0700   24.5050 H   0  0  0  0  0  0  0  0  0  0  0  0
   10.1700    3.5720   23.1730 H   0  0  0  0  0  0  0  0  0  0  0  0
    9.4370    2.3700   24.8950 H   0  0  0  0  0  0  0  0  0  0  0  0
    9.8150    1.8740   22.8910 H   0  0  0  0  0  0  0  0  0  0  0  0
   11.1650    1.1520   21.8890 H   0  0  0  0  0  0  0  0  0  0  0  0
   13.5650    0.3630   22.4400 H   0  0  0  0  0  0  0  0  0  0  0  0
   12.9280    0.1950   24.0210 H   0  0  0  0  0  0  0  0  0  0  0  0
   11.5440   -1.0810   21.6620 H   0  0  0  0  0  0  0  0  0  0  0  0
   11.1240   -1.3940   24.5530 H   0  0  0  0  0  0  0  0  0  0  0  0
    9.6160   -2.4430   22.2970 H   0  0  0  0  0  0  0  0  0  0  0  0
   10.4130   -3.2850   23.5710 H   0  0  0  0  0  0  0  0  0  0  0  0
    9.1980   -1.9470   25.1500 H   0  0  0  0  0  0  0  0  0  0  0  0
    8.9820   -4.3290   23.1640 H   0  0  0  0  0  0  0  0  0  0  0  0
    8.5310   -5.4820   24.4280 H   0  0  0  0  0  0  0  0  0  0  0  0
    7.6760   -5.9620   22.4010 H   0  0  0  0  0  0  0  0  0  0  0  0
    6.8870   -4.3800   22.2860 H   0  0  0  0  0  0  0  0  0  0  0  0
    5.1340   -5.1880   23.5750 H   0  0  0  0  0  0  0  0  0  0  0  0
    5.9510   -6.7480   23.5400 H   0  0  0  0  0  0  0  0  0  0  0  0
    4.9520   -4.2540   25.4070 H   0  0  0  0  0  0  0  0  0  0  0  0
    5.9660   -4.4520   26.8210 H   0  0  0  0  0  0  0  0  0  0  0  0
    6.0660   -2.6360   24.6540 H   0  0  0  0  0  0  0  0  0  0  0  0
    6.8700   -2.6600   26.2100 H   0  0  0  0  0  0  0  0  0  0  0  0
    7.5100   -1.0790   22.9630 H   0  0  0  0  0  0  0  0  0  0  0  0
    6.9010   -1.2600   24.6280 H   0  0  0  0  0  0  0  0  0  0  0  0
    8.0170    0.8930   24.3540 H   0  0  0  0  0  0  0  0  0  0  0  0
    8.8980   -0.1260   25.5160 H   0  0  0  0  0  0  0  0  0  0  0  0
  1  2  1  0
  2  3  2  0
  2  4  1  0
  4  5  1  0
  5  6  1  0
  6  7  1  0
  7  8  1  0
  8  9  1  0
  9 10  1  0
  7 11  1  0
 10 11  1  0
 11 12  1  0
 12 13  1  0
 13 14  1  0
 13 15  1  0
 15 16  1  0
 16 17  1  0
 17 18  1  0
 18 19  1  0
 19 20  1  0
 20 21  1  0
 21 22  1  0
 22 23  1  0
 18 24  1  0
 23 24  1  0
 17 25  1  0
 25 26  1  0
 10 27  1  0
 15 27  1  0
 26 27  1  0
 27 28  1  6
 28 29  3  0
  1 30  1  0
  1 31  1  0
  1 32  1  0
  4 33  1  0
  5 34  1  0
  5 35  1  0
  6 36  1  0
  6 37  1  0
  7 38  1  1
  8 39  1  0
  8 40  1  0
  9 41  1  0
 10 42  1  6
 11 43  1  6
 12 44  1  0
 12 45  1  0
 13 46  1  6
 15 47  1  1
 16 48  1  0
 16 49  1  0
 17 50  1  1
 19 51  1  0
 19 52  1  0
 20 53  1  0
 20 54  1  0
 21 55  1  0
 21 56  1  0
 23 57  1  0
 23 58  1  0
 24 59  1  0
 24 60  1  0
 25 61  1  0
 25 62  1  0
 26 63  1  0
 26 64  1  0
M  END
