
     RDKit          3D

 43 45  0  0  0  0  0  0  0  0999 V2000
    8.8280    2.5920   21.4390 N   0  0  0  0  0  0  0  0  0  0  0  0
    8.7480    1.7010   22.1490 C   0  0  0  0  0  0  0  0  0  0  0  0
    8.7440    0.5540   23.0730 C   0  0  1  0  0  0  0  0  0  0  0  0
    7.7460   -0.3870   22.9500 C   0  0  0  0  0  0  0  0  0  0  0  0
    7.7240   -1.4860   23.9800 C   0  0  0  0  0  0  0  0  0  0  0  0
    8.9340   -2.3190   23.8130 C   0  0  2  0  0  0  0  0  0  0  0  0
    8.8900   -3.2250   25.0620 N   0  0  0  0  0  0  0  0  0  0  0  0
    8.9970   -4.6470   24.9360 C   0  0  0  0  0  0  0  0  0  0  0  0
    8.0510   -5.2090   23.8660 C   0  0  0  0  0  0  0  0  0  0  0  0
    6.7660   -5.1000   24.3840 C   0  0  0  0  0  0  0  0  0  0  0  0
    6.8900   -5.1450   25.7860 O   0  0  0  0  0  0  0  0  0  0  0  0
    6.8380   -3.8590   26.3900 C   0  0  0  0  0  0  0  0  0  0  0  0
    8.0620   -2.9430   26.1570 C   0  0  0  0  0  0  0  0  0  0  0  0
    8.2900   -2.0470   26.9580 O   0  0  0  0  0  0  0  0  0  0  0  0
   10.2010   -1.3410   23.4660 C   0  0  1  0  0  0  0  0  0  0  0  0
   11.2500   -1.7650   22.6000 C   0  0  0  0  0  0  0  0  0  0  0  0
   12.4260   -0.9690   22.6440 C   0  0  0  0  0  0  0  0  0  0  0  0
   12.3890    0.2560   23.3170 C   0  0  0  0  0  0  0  0  0  0  0  0
   11.0840    0.7570   23.5130 C   0  0  0  0  0  0  0  0  0  0  0  0
   10.0340   -0.0680   22.8820 N   0  0  0  0  0  0  0  0  0  0  0  0
    8.7050    0.9600   24.0940 H   0  0  0  0  0  0  0  0  0  0  0  0
    6.7680    0.1200   22.9630 H   0  0  0  0  0  0  0  0  0  0  0  0
    7.8150   -0.8570   21.9590 H   0  0  0  0  0  0  0  0  0  0  0  0
    6.8350   -2.0990   23.7850 H   0  0  0  0  0  0  0  0  0  0  0  0
    7.6450   -1.2150   25.0280 H   0  0  0  0  0  0  0  0  0  0  0  0
    8.7890   -2.9430   22.9360 H   0  0  0  0  0  0  0  0  0  0  0  0
   10.0370   -4.8440   24.7350 H   0  0  0  0  0  0  0  0  0  0  0  0
    8.7660   -5.0830   25.9140 H   0  0  0  0  0  0  0  0  0  0  0  0
    8.2140   -6.2860   23.7980 H   0  0  0  0  0  0  0  0  0  0  0  0
    8.1840   -4.8510   22.8460 H   0  0  0  0  0  0  0  0  0  0  0  0
    6.0610   -5.8960   24.1540 H   0  0  0  0  0  0  0  0  0  0  0  0
    6.2160   -4.1970   24.1310 H   0  0  0  0  0  0  0  0  0  0  0  0
    5.8670   -3.3960   26.2050 H   0  0  0  0  0  0  0  0  0  0  0  0
    6.8480   -4.0650   27.4680 H   0  0  0  0  0  0  0  0  0  0  0  0
   10.6070   -1.0140   24.4170 H   0  0  0  0  0  0  0  0  0  0  0  0
   11.4950   -2.8100   22.7900 H   0  0  0  0  0  0  0  0  0  0  0  0
   10.9750   -1.7780   21.5380 H   0  0  0  0  0  0  0  0  0  0  0  0
   13.2550   -1.5420   23.0480 H   0  0  0  0  0  0  0  0  0  0  0  0
   12.7550   -0.7830   21.6290 H   0  0  0  0  0  0  0  0  0  0  0  0
   13.1210    0.9760   22.9600 H   0  0  0  0  0  0  0  0  0  0  0  0
   12.7720    0.0380   24.3180 H   0  0  0  0  0  0  0  0  0  0  0  0
   10.8990    0.8180   24.5890 H   0  0  0  0  0  0  0  0  0  0  0  0
   11.0410    1.7870   23.1410 H   0  0  0  0  0  0  0  0  0  0  0  0
  1  2  3  0
  2  3  1  0
  3  4  1  0
  4  5  1  0
  5  6  1  0
  6  7  1  0
  7  8  1  0
  8  9  1  0
  9 10  1  0
 10 11  1  0
 11 12  1  0
  7 13  1  0
 12 13  1  0
 13 14  2  0
  6 15  1  0
 15 16  1  0
 16 17  1  0
 17 18  1  0
 18 19  1  0
  3 20  1  0
 15 20  1  0
 19 20  1  0
  3 21  1  1
  4 22  1  0
  4 23  1  0
  5 24  1  0
  5 25  1  0
  6 26  1  6
  8 27  1  0
  8 28  1  0
  9 29  1  0
  9 30  1  0
 10 31  1  0
 10 32  1  0
 12 33  1  0
 12 34  1  0
 15 35  1  1
 16 36  1  0
 16 37  1  0
 17 38  1  0
 17 39  1  0
 18 40  1  0
 18 41  1  0
 19 42  1  0
 19 43  1  0
M  END
