LIG
     RDKit          3D

 48 51  0  0  0  0  0  0  0  0999 V2000
    9.5170    1.1180   21.0905 O   0  0  0  0  0  0  0  0  0  0  0  0
    9.1715    0.1780   21.6530 C   0  0  0  0  0  0  0  0  0  0  0  0
    7.2840   -0.6350   20.9180 N   0  0  0  0  0  0  0  0  0  0  0  0
    6.6030    0.0510   19.8530 C   0  0  0  0  0  0  0  0  0  0  0  0
    5.3980    0.6740   20.1340 C   0  0  0  0  0  0  0  0  0  0  0  0
    4.7680    1.3310   19.0890 C   0  0  0  0  0  0  0  0  0  0  0  0
    5.3600    1.2970   17.8310 C   0  0  0  0  0  0  0  0  0  0  0  0
    6.5100    0.7030   17.6230 N   0  0  0  0  0  0  0  0  0  0  0  0
    7.1440    0.0770   18.5790 C   0  0  0  0  0  0  0  0  0  0  0  0
    9.4080   -0.7595   22.5850 N   0  0  0  0  0  0  0  0  0  0  0  0
   10.3595   -1.0920   22.5780 C   0  0  0  0  0  0  0  0  0  0  0  0
   11.6620   -0.7700   22.1120 C   0  0  0  0  0  0  0  0  0  0  0  0
   12.0241   -0.8896   20.7958 C   0  0  0  0  0  0  0  0  0  0  0  0
   11.0347   -1.3177   19.8157 C   0  0  0  0  0  0  0  0  0  0  0  0
   11.7600    0.8910   24.3310 C   0  0  0  0  0  0  0  0  0  0  0  0
    9.7165   -0.0505   23.9290 C   0  0  0  0  0  0  0  0  0  0  0  0
    9.0248   -0.1123   24.5032 C   0  0  0  0  0  0  0  0  0  0  0  0
    8.2881   -1.2445   23.9542 C   0  0  0  0  0  0  0  0  0  0  0  0
    7.0583   -1.6654   24.4455 N   0  0  0  0  0  0  0  0  0  0  0  0
    6.5585   -3.0198   24.1419 C   0  0  0  0  0  0  0  0  0  0  0  0
    5.6887   -3.6374   25.2328 C   0  0  0  0  0  0  0  0  0  0  0  0
    4.2398   -3.1810   25.1469 C   0  0  0  0  0  0  0  0  0  0  0  0
    4.0363   -1.8665   25.6455 O   0  0  0  0  0  0  0  0  0  0  0  0
    4.7071   -0.8559   24.8927 C   0  0  0  0  0  0  0  0  0  0  0  0
    6.1954   -0.7698   25.2484 C   0  0  0  0  0  0  0  0  0  0  0  0
   10.1230   -2.7850   23.1640 C   0  0  0  0  0  0  0  0  0  0  0  0
    7.1750   -1.2181   21.5663 H   0  0  0  0  0  0  0  0  0  0  0  0
    4.9494    0.6695   21.1045 H   0  0  0  0  0  0  0  0  0  0  0  0
    3.8352    1.8621   19.2414 H   0  0  0  0  0  0  0  0  0  0  0  0
    4.8833    1.7652   16.9839 H   0  0  0  0  0  0  0  0  0  0  0  0
    8.0600   -0.3921   18.3328 H   0  0  0  0  0  0  0  0  0  0  0  0
    8.5344   -1.3094   22.7073 H   0  0  0  0  0  0  0  0  0  0  0  0
   12.2373   -1.5015   21.5151 H   0  0  0  0  0  0  0  0  0  0  0  0
   13.0301   -0.6779   20.4472 H   0  0  0  0  0  0  0  0  0  0  0  0
   11.3847   -1.5399   18.8121 H   0  0  0  0  0  0  0  0  0  0  0  0
   12.2772    0.2747   23.8353 H   0  0  0  0  0  0  0  0  0  0  0  0
    8.7688    0.3858   25.4249 H   0  0  0  0  0  0  0  0  0  0  0  0
    7.4153   -3.6951   24.0208 H   0  0  0  0  0  0  0  0  0  0  0  0
    6.0329   -3.0063   23.1794 H   0  0  0  0  0  0  0  0  0  0  0  0
    5.6999   -4.7256   25.0934 H   0  0  0  0  0  0  0  0  0  0  0  0
    6.1048   -3.4300   26.2253 H   0  0  0  0  0  0  0  0  0  0  0  0
    3.8469   -3.2565   24.1261 H   0  0  0  0  0  0  0  0  0  0  0  0
    3.6279   -3.8432   25.7691 H   0  0  0  0  0  0  0  0  0  0  0  0
    4.2324    0.0880   25.1831 H   0  0  0  0  0  0  0  0  0  0  0  0
    4.5332   -0.9860   23.8181 H   0  0  0  0  0  0  0  0  0  0  0  0
    6.4895    0.2712   25.0713 H   0  0  0  0  0  0  0  0  0  0  0  0
    6.3541   -0.9824   26.3120 H   0  0  0  0  0  0  0  0  0  0  0  0
    9.6404   -2.8696   24.0404 H   0  0  0  0  0  0  0  0  0  0  0  0
  1  2  2  0
  2  3  1  0
  3  4  1  0
  4  5  4  0
  5  6  4  0
  6  7  4  0
  7  8  4  0
  8  9  4  0
  2 10  1  0
 10 11  1  0
 11 12  1  0
 12 13  2  0
 13 14  1  0
 14 15  2  0
 15 16  1  0
 16 17  2  0
 17 18  1  0
 18 19  1  0
 19 20  1  0
 20 21  1  0
 21 22  1  0
 22 23  1  0
 23 24  1  0
 24 25  1  0
 18 26  2  0
  9  4  4  0
 16 11  1  0
 25 19  1  0
 26 11  1  0
  3 27  1  0
  5 28  1  0
  6 29  1  0
  7 30  1  0
  9 31  1  0
 10 32  1  0
 12 33  1  0
 13 34  1  0
 14 35  1  0
 15 36  1  0
 17 37  1  0
 20 38  1  0
 20 39  1  0
 21 40  1  0
 21 41  1  0
 22 42  1  0
 22 43  1  0
 24 44  1  0
 24 45  1  0
 25 46  1  0
 25 47  1  0
 26 48  1  0
M  END
