
     RDKit          3D

 48 51  0  0  0  0  0  0  0  0999 V2000
    8.7220    1.4270   21.0340 O   0  0  0  0  0  0  0  0  0  0  0  0
    8.3270    0.2380   21.7430 C   0  0  0  0  0  0  0  0  0  0  0  0
    7.3310   -0.6390   21.1180 N   0  0  0  0  0  0  0  0  0  0  0  0
    6.6240    0.0330   20.0270 C   0  0  0  0  0  0  0  0  0  0  0  0
    5.5110    0.7900   20.3840 C   0  0  0  0  0  0  0  0  0  0  0  0
    4.6580    1.5730   19.3870 C   0  0  0  0  0  0  0  0  0  0  0  0
    5.1060    1.4800   17.9630 C   0  0  0  0  0  0  0  0  0  0  0  0
    6.3000    0.6400   17.6790 N   0  0  0  0  0  0  0  0  0  0  0  0
    7.0280   -0.0640   18.7170 C   0  0  0  0  0  0  0  0  0  0  0  0
    8.8140   -0.0870   23.0230 N   0  0  0  0  0  0  0  0  0  0  0  0
    9.9680   -0.8930   23.4460 C   0  0  1  0  0  0  0  0  0  0  0  0
   10.7420   -1.5800   22.3830 C   0  0  0  0  0  0  0  0  0  0  0  0
   10.1540   -0.4410   21.6320 C   0  0  0  0  0  0  0  0  0  0  0  0
   10.0960   -0.4120   23.1030 C   0  0  0  0  0  0  0  0  0  0  0  0
   10.9840    0.4180   23.7720 C   0  0  0  0  0  0  0  0  0  0  0  0
   10.3780   -0.2920   24.7380 C   0  0  0  0  0  0  0  0  0  0  0  0
    9.6070   -1.2770   25.3950 C   0  0  0  0  0  0  0  0  0  0  0  0
    8.9320   -2.3600   24.8450 C   0  0  0  0  0  0  0  0  0  0  0  0
    8.1960   -3.3250   25.7260 N   0  0  0  0  0  0  0  0  0  0  0  0
    8.6550   -4.6160   25.6280 C   0  0  0  0  0  0  0  0  0  0  0  0
    8.5440   -5.4050   26.9400 C   0  0  0  0  0  0  0  0  0  0  0  0
    7.2280   -5.7270   27.2620 C   0  0  0  0  0  0  0  0  0  0  0  0
    6.4830   -4.6980   27.8430 O   0  0  0  0  0  0  0  0  0  0  0  0
    6.3570   -3.5850   27.0590 C   0  0  0  0  0  0  0  0  0  0  0  0
    7.5750   -2.9210   26.8570 C   0  0  0  0  0  0  0  0  0  0  0  0
    9.1740   -2.2350   23.5570 C   0  0  0  0  0  0  0  0  0  0  0  0
    6.7370   -1.0780   21.8230 H   0  0  0  0  0  0  0  0  0  0  0  0
    5.2240    0.8320   21.4420 H   0  0  0  0  0  0  0  0  0  0  0  0
    3.7940    2.1580   19.6890 H   0  0  0  0  0  0  0  0  0  0  0  0
    4.6220    1.9810   17.1330 H   0  0  0  0  0  0  0  0  0  0  0  0
    7.8840   -0.6500   18.3940 H   0  0  0  0  0  0  0  0  0  0  0  0
    8.2350    0.1840   23.8040 H   0  0  0  0  0  0  0  0  0  0  0  0
   11.0140   -2.2170   23.2030 H   0  0  0  0  0  0  0  0  0  0  0  0
    9.5700    0.4620   21.8180 H   0  0  0  0  0  0  0  0  0  0  0  0
    9.3820   -1.1010   23.5580 H   0  0  0  0  0  0  0  0  0  0  0  0
   11.4400    0.8360   24.6490 H   0  0  0  0  0  0  0  0  0  0  0  0
    9.5360   -1.2300   26.5070 H   0  0  0  0  0  0  0  0  0  0  0  0
    9.7240   -4.5690   25.4340 H   0  0  0  0  0  0  0  0  0  0  0  0
    8.2250   -5.0480   24.7210 H   0  0  0  0  0  0  0  0  0  0  0  0
    9.1300   -6.2970   26.9010 H   0  0  0  0  0  0  0  0  0  0  0  0
    8.9670   -4.8280   27.7480 H   0  0  0  0  0  0  0  0  0  0  0  0
    6.6310   -5.9680   26.3910 H   0  0  0  0  0  0  0  0  0  0  0  0
    7.1750   -6.5390   27.9750 H   0  0  0  0  0  0  0  0  0  0  0  0
    5.7580   -2.9140   27.6800 H   0  0  0  0  0  0  0  0  0  0  0  0
    5.7690   -3.8540   26.1870 H   0  0  0  0  0  0  0  0  0  0  0  0
    7.4130   -1.8380   26.8000 H   0  0  0  0  0  0  0  0  0  0  0  0
    8.2430   -3.1050   27.7070 H   0  0  0  0  0  0  0  0  0  0  0  0
    8.8660   -2.8780   22.7230 H   0  0  0  0  0  0  0  0  0  0  0  0
  1  2  2  0
  2  3  1  0
  3  4  1  0
  4  5  2  0
  5  6  1  0
  6  7  2  0
  7  8  1  0
  4  9  1  0
  8  9  2  0
  2 10  1  0
 11 10  1  6
 11 12  1  0
 12 13  2  0
 13 14  1  0
 14 15  2  0
 11 16  1  0
 15 16  1  0
 16 17  2  0
 17 18  1  0
 18 19  1  0
 19 20  1  0
 20 21  1  0
 21 22  1  0
 22 23  1  0
 23 24  1  0
 19 25  1  0
 24 25  1  0
 11 26  1  0
 18 26  2  0
  3 27  1  0
  5 28  1  0
  6 29  1  0
  7 30  1  0
  9 31  1  0
 10 32  1  0
 12 33  1  0
 13 34  1  0
 14 35  1  0
 15 36  1  0
 17 37  1  0
 20 38  1  0
 20 39  1  0
 21 40  1  0
 21 41  1  0
 22 42  1  0
 22 43  1  0
 24 44  1  0
 24 45  1  0
 25 46  1  0
 25 47  1  0
 26 48  1  0
M  END
