LIG
     RDKit          3D

 62 65  0  0  0  0  0  0  0  0999 V2000
   13.7290   -1.2710   23.6040 C   0  0  0  0  0  0  0  0  0  0  0  0
   12.3210   -0.8940   23.7180 N   0  0  0  0  0  0  0  0  0  0  0  0
   11.4670   -1.8380   22.9920 C   0  0  0  0  0  0  0  0  0  0  0  0
   10.0140   -1.4540   23.1290 C   0  0  0  0  0  0  0  0  0  0  0  0
    9.8260   -0.0960   22.6220 N   0  0  0  0  0  0  0  0  0  0  0  0
    9.0660    0.2300   21.5610 C   0  0  0  0  0  0  0  0  0  0  0  0
    8.9960    1.3830   21.1430 O   0  0  0  0  0  0  0  0  0  0  0  0
    8.3080   -0.8880   20.8630 C   0  0  0  0  0  0  0  0  0  0  0  0
    7.4330   -0.3020   19.8060 C   0  0  0  0  0  0  0  0  0  0  0  0
    7.2030   -0.2825   18.4640 C   0  0  0  0  0  0  0  0  0  0  0  0
    6.3815    0.4565   17.7320 N   0  0  0  0  0  0  0  0  0  0  0  0
    5.7600    0.8140   18.7420 C   0  0  0  0  0  0  0  0  0  0  0  0
    4.8685    1.4185   18.2805 N   0  0  0  0  0  0  0  0  0  0  0  0
    4.2975    1.5770   19.4850 C   0  0  0  0  0  0  0  0  0  0  0  0
    4.6025    0.9395   21.3115 C   0  0  0  0  0  0  0  0  0  0  0  0
    5.2050    1.5540   22.5490 C   0  0  0  0  0  0  0  0  0  0  0  0
    4.0700    2.4460   22.4650 N   0  0  0  0  0  0  0  0  0  0  0  0
    2.9270    2.3110   23.3520 C   0  0  0  0  0  0  0  0  0  0  0  0
    2.8920    1.4710   24.2020 O   0  0  0  0  0  0  0  0  0  0  0  0
    1.8460    3.2530   23.1370 N   0  0  0  0  0  0  0  0  0  0  0  0
    0.6480    3.2940   23.9490 C   0  0  0  0  0  0  0  0  0  0  0  0
    0.5370    4.7360   24.4510 C   0  0  0  0  0  0  0  0  0  0  0  0
   -0.7860    4.9880   25.1580 C   0  0  0  0  0  0  0  0  0  0  0  0
   -1.9540    4.6680   24.2350 C   0  0  0  0  0  0  0  0  0  0  0  0
   -1.8960    3.2340   23.7250 C   0  0  0  0  0  0  0  0  0  0  0  0
   -0.5430    2.8790   23.0980 C   0  0  0  0  0  0  0  0  0  0  0  0
    5.3915    0.6325   20.6910 C   0  0  0  0  0  0  0  0  0  0  0  0
    6.3030    0.0485   19.9075 C   0  0  0  0  0  0  0  0  0  0  0  0
   10.6540    0.8680   23.3430 C   0  0  0  0  0  0  0  0  0  0  0  0
   12.1050    0.4690   23.2230 C   0  0  0  0  0  0  0  0  0  0  0  0
   13.9524   -2.1928   24.1522 H   0  0  0  0  0  0  0  0  0  0  0  0
   13.8236   -2.2666   23.1579 H   0  0  0  0  0  0  0  0  0  0  0  0
   14.0061   -1.4171   22.5541 H   0  0  0  0  0  0  0  0  0  0  0  0
   11.7377   -1.9188   21.9506 H   0  0  0  0  0  0  0  0  0  0  0  0
   11.6133   -2.8063   23.4542 H   0  0  0  0  0  0  0  0  0  0  0  0
    9.7028   -1.5091   24.1685 H   0  0  0  0  0  0  0  0  0  0  0  0
    9.3755   -2.1096   22.5383 H   0  0  0  0  0  0  0  0  0  0  0  0
    7.7217   -1.4105   21.6075 H   0  0  0  0  0  0  0  0  0  0  0  0
    8.9814   -1.5816   20.3808 H   0  0  0  0  0  0  0  0  0  0  0  0
    7.8280   -1.0790   17.7341 H   0  0  0  0  0  0  0  0  0  0  0  0
    6.3198    0.6227   16.8139 H   0  0  0  0  0  0  0  0  0  0  0  0
    3.4007    2.2280   19.5993 H   0  0  0  0  0  0  0  0  0  0  0  0
    5.1240    0.9415   23.3356 H   0  0  0  0  0  0  0  0  0  0  0  0
    6.0458    2.0552   22.3315 H   0  0  0  0  0  0  0  0  0  0  0  0
    4.2545    3.4189   22.2466 H   0  0  0  0  0  0  0  0  0  0  0  0
    1.7503    3.4736   22.1465 H   0  0  0  0  0  0  0  0  0  0  0  0
    0.7823    2.6333   24.7759 H   0  0  0  0  0  0  0  0  0  0  0  0
    0.6354    5.4240   23.6002 H   0  0  0  0  0  0  0  0  0  0  0  0
    1.3677    4.9745   25.1270 H   0  0  0  0  0  0  0  0  0  0  0  0
   -0.8587    4.3710   26.0474 H   0  0  0  0  0  0  0  0  0  0  0  0
   -0.8294    6.0262   25.4702 H   0  0  0  0  0  0  0  0  0  0  0  0
   -1.9647    5.3699   23.3923 H   0  0  0  0  0  0  0  0  0  0  0  0
   -2.8991    4.8169   24.7739 H   0  0  0  0  0  0  0  0  0  0  0  0
   -2.1154    2.5316   24.5421 H   0  0  0  0  0  0  0  0  0  0  0  0
   -2.6904    3.0872   22.9771 H   0  0  0  0  0  0  0  0  0  0  0  0
   -0.5019    1.7947   22.9259 H   0  0  0  0  0  0  0  0  0  0  0  0
   -0.5008    3.3365   22.0996 H   0  0  0  0  0  0  0  0  0  0  0  0
    6.1039    1.9556   20.6098 H   0  0  0  0  0  0  0  0  0  0  0  0
   10.3286    0.8604   24.3817 H   0  0  0  0  0  0  0  0  0  0  0  0
   10.4981    1.8579   22.9235 H   0  0  0  0  0  0  0  0  0  0  0  0
   12.4066    0.5427   22.1729 H   0  0  0  0  0  0  0  0  0  0  0  0
   12.7262    1.1603   23.7975 H   0  0  0  0  0  0  0  0  0  0  0  0
  1  2  1  0
  2  3  1  0
  3  4  1  0
  4  5  1  0
  5  6  1  0
  6  7  2  0
  6  8  1  0
  8  9  1  0
  9 10  4  0
 10 11  4  0
 11 12  4  0
 12 13  4  0
 13 14  4  0
 14 15  4  0
 15 16  1  0
 16 17  1  0
 17 18  1  0
 18 19  2  0
 18 20  1  0
 20 21  1  0
 21 22  1  0
 22 23  1  0
 23 24  1  0
 24 25  1  0
 25 26  1  0
 15 27  4  0
 27 28  4  0
  5 29  1  0
 29 30  1  0
 30  2  1  0
 28  9  4  0
 28 12  4  0
 26 21  1  0
  1 31  1  0
  1 32  1  0
  1 33  1  0
  3 34  1  0
  3 35  1  0
  4 36  1  0
  4 37  1  0
  8 38  1  0
  8 39  1  0
 10 40  1  0
 11 41  1  0
 14 42  1  0
 16 43  1  0
 16 44  1  0
 17 45  1  0
 20 46  1  0
 21 47  1  0
 22 48  1  0
 22 49  1  0
 23 50  1  0
 23 51  1  0
 24 52  1  0
 24 53  1  0
 25 54  1  0
 25 55  1  0
 26 56  1  0
 26 57  1  0
 27 58  1  0
 29 59  1  0
 29 60  1  0
 30 61  1  0
 30 62  1  0
M  END
