LIG
     RDKit          3D

 46 49  0  0  0  0  0  0  0  0999 V2000
   13.4960   -0.9430   23.1440 C   0  0  0  0  0  0  0  0  0  0  0  0
   12.3210   -0.8940   23.7180 N   0  0  0  0  0  0  0  0  0  0  0  0
   11.4670   -1.8380   22.9920 C   0  0  0  0  0  0  0  0  0  0  0  0
   10.0140   -1.4540   23.1290 C   0  0  0  0  0  0  0  0  0  0  0  0
    9.8260   -0.0960   22.6220 N   0  0  0  0  0  0  0  0  0  0  0  0
    9.0660    0.2300   21.5610 C   0  0  0  0  0  0  0  0  0  0  0  0
    8.9960    1.3830   21.1430 O   0  0  0  0  0  0  0  0  0  0  0  0
    8.3080   -0.8880   20.8630 C   0  0  0  0  0  0  0  0  0  0  0  0
    7.4330   -0.3020   19.8060 C   0  0  0  0  0  0  0  0  0  0  0  0
    7.6450   -0.3300   18.4600 C   0  0  0  0  0  0  0  0  0  0  0  0
    6.6410    0.3430   17.8150 N   0  0  0  0  0  0  0  0  0  0  0  0
    5.7600    0.8140   18.7420 C   0  0  0  0  0  0  0  0  0  0  0  0
    4.6510    1.5300   18.5060 N   0  0  0  0  0  0  0  0  0  0  0  0
    3.9600    1.8790   19.5990 C   0  0  0  0  0  0  0  0  0  0  0  0
    4.3240    1.5630   20.9050 C   0  0  0  0  0  0  0  0  0  0  0  0
    5.4760    0.8390   21.1280 C   0  0  0  0  0  0  0  0  0  0  0  0
    6.2270    0.4400   20.0170 C   0  0  0  0  0  0  0  0  0  0  0  0
   10.9340    1.0350   23.5560 C   0  0  0  0  0  0  0  0  0  0  0  0
   10.6670    2.4740   24.0250 C   0  0  0  0  0  0  0  0  0  0  0  0
   11.3350    3.6620   23.6540 C   0  0  0  0  0  0  0  0  0  0  0  0
   10.6680    5.1850   23.9350 S   0  0  0  0  0  6  0  0  0  0  0  0
    9.3520    5.1750   22.9550 N   0  0  0  0  0  0  0  0  0  0  0  0
   10.1890    5.2490   25.2610 O   0  0  0  0  0  0  0  0  0  0  0  0
   11.5530    6.1960   23.4620 O   0  0  0  0  0  0  0  0  0  0  0  0
   12.5830    3.5320   23.0260 C   0  0  0  0  0  0  0  0  0  0  0  0
   13.1480    2.2850   22.7650 C   0  0  0  0  0  0  0  0  0  0  0  0
   12.2800    0.8025   23.1770 C   0  0  0  0  0  0  0  0  0  0  0  0
   14.3443   -1.2232   23.8269 H   0  0  0  0  0  0  0  0  0  0  0  0
   13.5822   -1.7117   22.3270 H   0  0  0  0  0  0  0  0  0  0  0  0
   13.8165    0.0123   22.6435 H   0  0  0  0  0  0  0  0  0  0  0  0
   11.6127   -2.8476   23.3942 H   0  0  0  0  0  0  0  0  0  0  0  0
   11.7627   -1.8561   21.9346 H   0  0  0  0  0  0  0  0  0  0  0  0
    9.3961   -2.1644   22.5715 H   0  0  0  0  0  0  0  0  0  0  0  0
    9.6841   -1.4697   24.1744 H   0  0  0  0  0  0  0  0  0  0  0  0
    7.6701   -1.4267   21.5526 H   0  0  0  0  0  0  0  0  0  0  0  0
    9.0268   -1.5693   20.4202 H   0  0  0  0  0  0  0  0  0  0  0  0
    8.4528   -0.7790   17.8673 H   0  0  0  0  0  0  0  0  0  0  0  0
    6.5450    0.4871   16.8272 H   0  0  0  0  0  0  0  0  0  0  0  0
    3.0568    2.4453   19.4119 H   0  0  0  0  0  0  0  0  0  0  0  0
    3.6958    1.8834   21.7345 H   0  0  0  0  0  0  0  0  0  0  0  0
    5.7861    0.5686   22.1379 H   0  0  0  0  0  0  0  0  0  0  0  0
    9.8603    2.5696   24.7989 H   0  0  0  0  0  0  0  0  0  0  0  0
    9.3944    4.3918   22.2922 H   0  0  0  0  0  0  0  0  0  0  0  0
    9.6286    5.1639   21.9661 H   0  0  0  0  0  0  0  0  0  0  0  0
   13.1478    4.4401   22.7530 H   0  0  0  0  0  0  0  0  0  0  0  0
   14.0676    2.1008   22.3533 H   0  0  0  0  0  0  0  0  0  0  0  0
  1  2  1  0
  2  3  1  0
  3  4  1  0
  4  5  1  0
  5  6  1  0
  6  7  2  0
  6  8  1  0
  8  9  1  0
  9 10  4  0
 10 11  4  0
 11 12  4  0
 12 13  4  0
 13 14  4  0
 14 15  4  0
 15 16  4  0
 16 17  4  0
  5 18  1  0
 18 19  4  0
 19 20  4  0
 20 21  1  0
 21 22  1  0
 21 23  2  0
 21 24  2  0
 20 25  4  0
 25 26  4  0
 26 27  4  0
 27  2  1  0
 17  9  4  0
 27 18  4  0
 17 12  4  0
  1 28  1  0
  1 29  1  0
  1 30  1  0
  3 31  1  0
  3 32  1  0
  4 33  1  0
  4 34  1  0
  8 35  1  0
  8 36  1  0
 10 37  1  0
 11 38  1  0
 14 39  1  0
 15 40  1  0
 16 41  1  0
 19 42  1  0
 22 43  1  0
 22 44  1  0
 25 45  1  0
 26 46  1  0
M  END
