
     RDKit          3D

 37 39  0  0  0  0  0  0  0  0999 V2000
   13.3950   -1.7040   23.5340 C   0  0  0  0  0  0  0  0  0  0  0  0
   12.0600   -1.2160   23.7580 N   0  0  0  0  0  0  0  0  0  0  0  0
   11.1050   -2.0450   23.0140 C   0  0  0  0  0  0  0  0  0  0  0  0
    9.8400   -1.4670   23.1030 C   0  0  0  0  0  0  0  0  0  0  0  0
    9.8340   -0.1610   22.7400 N   0  0  0  0  0  0  0  0  0  0  0  0
    8.9500    0.3190   21.6620 C   0  0  0  0  0  0  0  0  0  0  0  0
    9.0170    1.6540   21.1880 O   0  0  0  0  0  0  0  0  0  0  0  0
    7.9940   -0.7030   21.1270 C   0  0  0  0  0  0  0  0  0  0  0  0
    7.1030   -0.2400   20.1910 C   0  0  0  0  0  0  0  0  0  0  0  0
    7.3750   -0.6090   18.7700 C   0  0  0  0  0  0  0  0  0  0  0  0
    6.3140    0.0250   17.9860 N   0  0  0  0  0  0  0  0  0  0  0  0
    5.3970    0.7590   18.9170 C   0  0  0  0  0  0  0  0  0  0  0  0
    4.3080    1.4540   18.5170 N   0  0  0  0  0  0  0  0  0  0  0  0
    3.6470    2.0150   19.5460 C   0  0  0  0  0  0  0  0  0  0  0  0
    4.0820    1.8840   20.9830 C   0  0  0  0  0  0  0  0  0  0  0  0
    5.1950    1.1680   21.2810 C   0  0  0  0  0  0  0  0  0  0  0  0
    5.9150    0.5650   20.2620 C   0  0  0  0  0  0  0  0  0  0  0  0
   10.6850    0.6960   23.4450 C   0  0  0  0  0  0  0  0  0  0  0  0
   11.9850    0.2140   23.3990 C   0  0  0  0  0  0  0  0  0  0  0  0
   13.9030   -1.0240   22.8540 H   0  0  0  0  0  0  0  0  0  0  0  0
   13.9630   -1.7600   24.4620 H   0  0  0  0  0  0  0  0  0  0  0  0
   13.3610   -2.6960   23.0720 H   0  0  0  0  0  0  0  0  0  0  0  0
   11.0640   -3.0530   23.4420 H   0  0  0  0  0  0  0  0  0  0  0  0
   11.4100   -2.1180   21.9630 H   0  0  0  0  0  0  0  0  0  0  0  0
    9.1500   -2.0120   22.4460 H   0  0  0  0  0  0  0  0  0  0  0  0
    9.4420   -1.5900   24.1190 H   0  0  0  0  0  0  0  0  0  0  0  0
    8.4780   -1.6400   20.8680 H   0  0  0  0  0  0  0  0  0  0  0  0
    7.3650   -0.9890   21.9790 H   0  0  0  0  0  0  0  0  0  0  0  0
    8.1850   -1.2110   18.3760 H   0  0  0  0  0  0  0  0  0  0  0  0
    6.1810    0.0030   16.9820 H   0  0  0  0  0  0  0  0  0  0  0  0
    2.7400    2.6080   19.3720 H   0  0  0  0  0  0  0  0  0  0  0  0
    3.5030    2.3650   21.7820 H   0  0  0  0  0  0  0  0  0  0  0  0
    5.5410    1.0530   22.3100 H   0  0  0  0  0  0  0  0  0  0  0  0
   10.5000    1.6900   23.0500 H   0  0  0  0  0  0  0  0  0  0  0  0
   10.3700    0.7160   24.4850 H   0  0  0  0  0  0  0  0  0  0  0  0
   12.5960    0.7690   24.1150 H   0  0  0  0  0  0  0  0  0  0  0  0
   12.4290    0.3650   22.4080 H   0  0  0  0  0  0  0  0  0  0  0  0
  1  2  1  0
  2  3  1  0
  3  4  1  0
  4  5  1  0
  5  6  1  0
  6  7  2  0
  6  8  1  0
  8  9  1  0
  9 10  2  0
 10 11  1  0
 11 12  1  0
 12 13  1  0
 13 14  2  0
 14 15  1  0
 15 16  2  0
  9 17  1  0
 12 17  2  0
 16 17  1  0
  5 18  1  0
  2 19  1  0
 18 19  1  0
  1 20  1  0
  1 21  1  0
  1 22  1  0
  3 23  1  0
  3 24  1  0
  4 25  1  0
  4 26  1  0
  8 27  1  0
  8 28  1  0
 10 29  1  0
 11 30  1  0
 14 31  1  0
 15 32  1  0
 16 33  1  0
 18 34  1  0
 18 35  1  0
 19 36  1  0
 19 37  1  0
M  END
