LIG
     RDKit          3D

 51 54  0  0  0  0  0  0  0  0999 V2000
   13.7290   -1.2710   23.6040 C   0  0  0  0  0  0  0  0  0  0  0  0
   12.3210   -0.8940   23.7180 N   0  0  0  0  0  0  0  0  0  0  0  0
   11.4670   -1.8380   22.9920 C   0  0  0  0  0  0  0  0  0  0  0  0
   10.0140   -1.4540   23.1290 C   0  0  0  0  0  0  0  0  0  0  0  0
    9.8260   -0.0960   22.6220 N   0  0  0  0  0  0  0  0  0  0  0  0
    9.0660    0.2300   21.5610 C   0  0  0  0  0  0  0  0  0  0  0  0
    8.9960    1.3830   21.1430 O   0  0  0  0  0  0  0  0  0  0  0  0
    8.3080   -0.8880   20.8630 C   0  0  0  0  0  0  0  0  0  0  0  0
    7.0650   -0.2135   19.4800 C   0  0  0  0  0  0  0  0  0  0  0  0
    7.6450   -0.3300   18.4600 C   0  0  0  0  0  0  0  0  0  0  0  0
    6.5995    0.3585   17.8740 N   0  0  0  0  0  0  0  0  0  0  0  0
    5.6815    1.0255   18.2095 C   0  0  0  0  0  0  0  0  0  0  0  0
    4.6865    1.5960   18.5815 N   0  0  0  0  0  0  0  0  0  0  0  0
    4.3985    1.5220   19.7660 C   0  0  0  0  0  0  0  0  0  0  0  0
    4.0805    1.6025   20.9470 C   0  0  0  0  0  0  0  0  0  0  0  0
    4.9040    1.2780   21.7810 C   0  0  0  0  0  0  0  0  0  0  0  0
    3.3230    2.4740   23.1750 N   0  0  0  0  0  0  0  0  0  0  0  0
    2.1860    1.8200   23.8150 C   0  0  0  0  0  0  0  0  0  0  0  0
    2.0580    0.6400   23.7610 O   0  0  0  0  0  0  0  0  0  0  0  0
    1.1280    2.6340   24.5580 C   0  0  0  0  0  0  0  0  0  0  0  0
   -0.1860    2.1670   24.5890 C   0  0  0  0  0  0  0  0  0  0  0  0
   -1.1770    2.8770   25.2530 C   0  0  0  0  0  0  0  0  0  0  0  0
   -0.8610    4.0710   25.8830 C   0  0  0  0  0  0  0  0  0  0  0  0
    0.4450    4.5400   25.8480 C   0  0  0  0  0  0  0  0  0  0  0  0
    1.4450    3.8310   25.1930 C   0  0  0  0  0  0  0  0  0  0  0  0
    2.7270    4.3200   25.1830 F   0  0  0  0  0  0  0  0  0  0  0  0
    6.0390    0.3420   20.1090 C   0  0  0  0  0  0  0  0  0  0  0  0
   10.6540    0.8680   23.3430 C   0  0  0  0  0  0  0  0  0  0  0  0
   12.1050    0.4690   23.2230 C   0  0  0  0  0  0  0  0  0  0  0  0
   13.8445   -2.3549   23.7099 H   0  0  0  0  0  0  0  0  0  0  0  0
   13.8994   -1.9745   22.7821 H   0  0  0  0  0  0  0  0  0  0  0  0
   14.1175   -1.0067   22.6152 H   0  0  0  0  0  0  0  0  0  0  0  0
   11.5925   -2.8528   23.3424 H   0  0  0  0  0  0  0  0  0  0  0  0
   11.7563   -1.7906   21.9504 H   0  0  0  0  0  0  0  0  0  0  0  0
    9.3784   -2.1646   22.6118 H   0  0  0  0  0  0  0  0  0  0  0  0
    9.7183   -1.4317   24.1769 H   0  0  0  0  0  0  0  0  0  0  0  0
    8.8499   -1.5403   20.2256 H   0  0  0  0  0  0  0  0  0  0  0  0
    7.6094   -1.4059   21.4615 H   0  0  0  0  0  0  0  0  0  0  0  0
    8.4320   -0.6898   17.9295 H   0  0  0  0  0  0  0  0  0  0  0  0
    6.6525    0.1946   16.6577 H   0  0  0  0  0  0  0  0  0  0  0  0
    4.6686    0.0964   19.7672 H   0  0  0  0  0  0  0  0  0  0  0  0
    3.0538    1.9997   21.2043 H   0  0  0  0  0  0  0  0  0  0  0  0
    3.6656    3.2617   22.9154 H   0  0  0  0  0  0  0  0  0  0  0  0
   -0.4426    1.2317   24.0816 H   0  0  0  0  0  0  0  0  0  0  0  0
   -2.1956    2.4956   25.2793 H   0  0  0  0  0  0  0  0  0  0  0  0
   -1.6299    4.6334   26.4082 H   0  0  0  0  0  0  0  0  0  0  0  0
    0.7046    5.4808   26.3479 H   0  0  0  0  0  0  0  0  0  0  0  0
   10.4844    1.8446   22.9048 H   0  0  0  0  0  0  0  0  0  0  0  0
   10.3452    0.8689   24.3808 H   0  0  0  0  0  0  0  0  0  0  0  0
   12.7442    1.1759   23.7774 H   0  0  0  0  0  0  0  0  0  0  0  0
   12.4077    0.5350   22.1667 H   0  0  0  0  0  0  0  0  0  0  0  0
  1  2  1  0
  2  3  1  0
  3  4  1  0
  4  5  1  0
  5  6  1  0
  6  7  2  0
  6  8  1  0
  8  9  1  0
  9 10  4  0
 10 11  4  0
 11 12  4  0
 12 13  4  0
 13 14  4  0
 14 15  4  0
 15 16  4  0
 16 17  1  0
 17 18  1  0
 18 19  2  0
 18 20  1  0
 20 21  4  0
 21 22  4  0
 22 23  4  0
 23 24  4  0
 24 25  4  0
 25 26  1  0
 16 27  4  0
  5 28  1  0
 28 29  1  0
 29  2  1  0
 27  9  4  0
 27 12  4  0
 25 20  4  0
  1 30  1  0
  1 31  1  0
  1 32  1  0
  3 33  1  0
  3 34  1  0
  4 35  1  0
  4 36  1  0
  8 37  1  0
  8 38  1  0
 10 39  1  0
 11 40  1  0
 14 41  1  0
 15 42  1  0
 17 43  1  0
 21 44  1  0
 22 45  1  0
 23 46  1  0
 24 47  1  0
 28 48  1  0
 28 49  1  0
 29 50  1  0
 29 51  1  0
M  END
