LIG
     RDKit          3D

 38 41  0  0  0  0  0  0  0  0999 V2000
    9.2075    1.2425   21.0715 O   0  0  0  0  0  0  0  0  0  0  0  0
    8.9655    0.2710   21.6285 C   0  0  0  0  0  0  0  0  0  0  0  0
    7.9600   -0.5720   21.0945 C   0  0  0  0  0  0  0  0  0  0  0  0
    7.2165   -0.0655   19.9575 C   0  0  0  0  0  0  0  0  0  0  0  0
    7.6355   -0.1520   18.6735 C   0  0  0  0  0  0  0  0  0  0  0  0
    6.8205    0.3985   17.8145 N   0  0  0  0  0  0  0  0  0  0  0  0
    5.4510    1.0110   18.9125 C   0  0  0  0  0  0  0  0  0  0  0  0
    5.2280    1.2770   18.1915 N   0  0  0  0  0  0  0  0  0  0  0  0
    3.9600    1.8790   19.5990 C   0  0  0  0  0  0  0  0  0  0  0  0
    4.3240    1.5630   20.9050 C   0  0  0  0  0  0  0  0  0  0  0  0
    5.4760    0.8390   21.1280 C   0  0  0  0  0  0  0  0  0  0  0  0
    5.9915    0.6065   20.1330 C   0  0  0  0  0  0  0  0  0  0  0  0
    9.6175   -0.1255   22.8275 N   0  0  0  0  0  0  0  0  0  0  0  0
   10.7885    0.3940   23.2165 C   0  0  0  0  0  0  0  0  0  0  0  0
   11.6930    0.0335   23.8750 C   0  0  0  0  0  0  0  0  0  0  0  0
   12.5460   -0.5235   24.2040 N   0  0  0  0  0  0  0  0  0  0  0  0
   13.6695   -1.0650   23.6165 C   0  0  0  0  0  0  0  0  0  0  0  0
   12.8180   -1.7130   22.6470 C   0  0  0  0  0  0  0  0  0  0  0  0
   11.5145   -1.4425   22.5440 C   0  0  0  0  0  0  0  0  0  0  0  0
   10.0140   -1.4540   23.1290 C   0  0  0  0  0  0  0  0  0  0  0  0
    8.4174   -1.5608   20.8086 H   0  0  0  0  0  0  0  0  0  0  0  0
    7.2038   -0.8360   21.8867 H   0  0  0  0  0  0  0  0  0  0  0  0
    8.5920   -0.6276   18.2896 H   0  0  0  0  0  0  0  0  0  0  0  0
    6.6321    0.6074   16.9458 H   0  0  0  0  0  0  0  0  0  0  0  0
    3.2885    2.3072   19.0689 H   0  0  0  0  0  0  0  0  0  0  0  0
    3.7006    1.8935   21.7340 H   0  0  0  0  0  0  0  0  0  0  0  0
    5.7388    0.6055   22.1617 H   0  0  0  0  0  0  0  0  0  0  0  0
   10.4318    1.5438   23.5674 H   0  0  0  0  0  0  0  0  0  0  0  0
   11.1808    0.8672   22.1219 H   0  0  0  0  0  0  0  0  0  0  0  0
   11.0722    0.1085   25.0912 H   0  0  0  0  0  0  0  0  0  0  0  0
   12.1061    1.2860   24.3167 H   0  0  0  0  0  0  0  0  0  0  0  0
   14.2357   -1.7660   24.2731 H   0  0  0  0  0  0  0  0  0  0  0  0
   14.4400   -0.3682   23.2080 H   0  0  0  0  0  0  0  0  0  0  0  0
   13.0545   -2.9825   22.6770 H   0  0  0  0  0  0  0  0  0  0  0  0
   13.4351   -1.6962   21.5106 H   0  0  0  0  0  0  0  0  0  0  0  0
   11.6039   -2.5762   23.8667 H   0  0  0  0  0  0  0  0  0  0  0  0
    9.4794   -2.1897   22.6048 H   0  0  0  0  0  0  0  0  0  0  0  0
   10.0595   -1.6036   24.1699 H   0  0  0  0  0  0  0  0  0  0  0  0
  1  2  2  0
  2  3  1  0
  3  4  1  0
  4  5  4  0
  5  6  4  0
  6  7  4  0
  7  8  4  0
  8  9  4  0
  9 10  4  0
 10 11  4  0
 11 12  4  0
  2 13  1  0
 13 14  1  0
 14 15  1  0
 15 16  1  0
 16 17  1  0
 17 18  1  0
 18 19  1  0
 19 20  1  0
 12  4  4  0
 20 13  1  0
 12  7  4  0
 19 16  1  0
  3 21  1  0
  3 22  1  0
  5 23  1  0
  6 24  1  0
  9 25  1  0
 10 26  1  0
 11 27  1  0
 14 28  1  0
 14 29  1  0
 15 30  1  0
 15 31  1  0
 17 32  1  0
 17 33  1  0
 18 34  1  0
 18 35  1  0
 19 36  1  0
 20 37  1  0
 20 38  1  0
M  END
