
     RDKit          3D

 45 47  0  0  0  0  0  0  0  0999 V2000
    5.6580  -18.2330   -3.7430 O   0  0  0  0  0  0  0  0  0  0  0  0
    6.6810  -19.1890   -3.5640 C   0  0  0  0  0  0  0  0  0  0  0  0
    7.4020  -19.5900   -4.7960 C   0  0  0  0  0  0  0  0  0  0  0  0
    8.5740  -18.9580   -4.8080 N   0  0  0  0  0  0  0  0  0  0  0  0
    9.2670  -18.4790   -3.6660 C   0  0  0  0  0  0  0  0  0  0  0  0
   10.4730  -17.8530   -4.1740 C   0  0  0  0  0  0  0  0  0  0  0  0
   10.4200  -18.0150   -5.6170 C   0  0  0  0  0  0  0  0  0  0  0  0
    9.2140  -18.7160   -6.1080 N   0  0  0  0  0  0  0  0  0  0  0  0
    7.0720  -19.7500   -2.3840 N   0  0  0  0  0  0  0  0  0  0  0  0
    6.5700  -19.8140   -1.0230 C   0  0  0  0  0  0  0  0  0  0  0  0
    5.6000  -20.9690   -0.7780 C   0  0  0  0  0  0  0  0  0  0  0  0
    6.0320  -22.1410   -0.7450 O   0  0  0  0  0  0  0  0  0  0  0  0
    7.3690  -22.1100   -0.9180 C   0  0  1  0  0  0  0  0  0  0  0  0
    8.1470  -23.3660   -1.2480 C   0  0  0  0  0  0  0  0  0  0  0  0
    8.9750  -23.7830   -0.1950 N   0  0  0  0  0  0  0  0  0  0  0  0
   10.0600  -24.6970   -0.2900 C   0  0  0  0  0  0  0  0  0  0  0  0
   10.7770  -24.9160    0.9070 C   0  0  0  0  0  0  0  0  0  0  0  0
   11.9420  -24.2110    1.1730 C   0  0  0  0  0  0  0  0  0  0  0  0
   12.7420  -24.3460    2.3090 C   0  0  0  0  0  0  0  0  0  0  0  0
   12.4000  -25.2480    3.3130 C   0  0  0  0  0  0  0  0  0  0  0  0
   11.2440  -26.0450    3.1970 C   0  0  0  0  0  0  0  0  0  0  0  0
   10.9110  -26.9240    4.1630 F   0  0  0  0  0  0  0  0  0  0  0  0
   10.4310  -25.8270    1.9040 C   0  0  0  0  0  0  0  0  0  0  0  0
    7.6610  -21.0770   -1.9920 C   0  0  0  0  0  0  0  0  0  0  0  0
    6.8010  -19.3190   -5.6760 H   0  0  0  0  0  0  0  0  0  0  0  0
    7.5860  -20.6710   -4.8110 H   0  0  0  0  0  0  0  0  0  0  0  0
    9.0390  -18.5130   -2.6180 H   0  0  0  0  0  0  0  0  0  0  0  0
   11.2440  -17.3670   -3.5810 H   0  0  0  0  0  0  0  0  0  0  0  0
   11.2300  -17.6180   -6.1850 H   0  0  0  0  0  0  0  0  0  0  0  0
    6.0900  -18.8500   -0.7990 H   0  0  0  0  0  0  0  0  0  0  0  0
    7.4190  -19.9030   -0.3570 H   0  0  0  0  0  0  0  0  0  0  0  0
    4.8340  -20.9560   -1.5500 H   0  0  0  0  0  0  0  0  0  0  0  0
    5.0950  -20.7940    0.1780 H   0  0  0  0  0  0  0  0  0  0  0  0
    7.7020  -21.6240   -0.0260 H   0  0  0  0  0  0  0  0  0  0  0  0
    7.4330  -24.1670   -1.4720 H   0  0  0  0  0  0  0  0  0  0  0  0
    8.6890  -23.1890   -2.1830 H   0  0  0  0  0  0  0  0  0  0  0  0
    8.3860  -23.9620    0.6050 H   0  0  0  0  0  0  0  0  0  0  0  0
   10.7160  -24.3200   -1.0810 H   0  0  0  0  0  0  0  0  0  0  0  0
    9.5720  -25.5970   -0.6830 H   0  0  0  0  0  0  0  0  0  0  0  0
   12.2630  -23.4810    0.4200 H   0  0  0  0  0  0  0  0  0  0  0  0
   13.6460  -23.7440    2.4290 H   0  0  0  0  0  0  0  0  0  0  0  0
   13.0910  -25.2750    4.1630 H   0  0  0  0  0  0  0  0  0  0  0  0
    9.5650  -26.4730    1.8770 H   0  0  0  0  0  0  0  0  0  0  0  0
    8.7330  -20.9160   -1.9330 H   0  0  0  0  0  0  0  0  0  0  0  0
    7.5360  -21.6340   -2.9280 H   0  0  0  0  0  0  0  0  0  0  0  0
  1  2  2  0
  2  3  1  0
  3  4  1  0
  4  5  1  0
  5  6  2  0
  6  7  1  0
  4  8  1  0
  7  8  2  0
  2  9  1  0
  9 10  1  0
 10 11  1  0
 11 12  1  0
 12 13  1  0
 13 14  1  0
 14 15  1  0
 15 16  1  0
 16 17  1  0
 17 18  2  0
 18 19  1  0
 19 20  2  0
 20 21  1  0
 21 22  1  0
 17 23  1  0
 21 23  2  0
  9 24  1  0
 13 24  1  0
  3 25  1  0
  3 26  1  0
  5 27  1  0
  6 28  1  0
  7 29  1  0
 10 30  1  0
 10 31  1  0
 11 32  1  0
 11 33  1  0
 13 34  1  1
 14 35  1  0
 14 36  1  0
 15 37  1  0
 16 38  1  0
 16 39  1  0
 18 40  1  0
 19 41  1  0
 20 42  1  0
 23 43  1  0
 24 44  1  0
 24 45  1  0
M  END
