LIG
     RDKit          3D

 36 37  0  0  0  0  0  0  0  0999 V2000
   22.2960   15.0270    8.4120 C   0  0  0  0  0  0  0  0  0  0  0  0
   20.9580   15.0530    7.2245 C   0  0  0  0  0  0  0  0  0  0  0  0
   20.4075   13.7950    7.6720 C   0  0  0  0  0  0  0  0  0  0  0  0
   19.1090   13.7690    7.3750 O   0  0  0  0  0  0  0  0  0  0  0  0
   20.9590   12.6550    7.1260 C   0  0  0  0  0  0  0  0  0  0  0  0
   22.1230   12.7255    6.3725 C   0  0  0  0  0  0  0  0  0  0  0  0
   22.4305   13.9695    5.7030 C   0  0  0  0  0  0  0  0  0  0  0  0
   21.7285   15.1325    6.0855 C   0  0  0  0  0  0  0  0  0  0  0  0
   22.2960   16.2735    5.6230 C   0  0  0  0  0  0  0  0  0  0  0  0
   21.4545   17.3780    5.4775 N   0  0  0  0  0  0  0  0  0  0  0  0
   21.4060   18.3095    6.4810 C   0  0  0  0  0  0  0  0  0  0  0  0
   20.4640   19.3825    6.3835 C   0  0  0  0  0  0  0  0  0  0  0  0
   20.0365   19.7555    5.1070 O   0  0  0  0  0  0  0  0  0  0  0  0
   20.5340   19.0870    4.0210 C   0  0  1  0  0  0  0  0  0  0  0  0
   21.8270   20.2260    3.9070 C   0  0  0  0  0  0  0  0  0  0  0  0
   21.7060   21.4140    4.5700 O   0  0  0  0  0  0  0  0  0  0  0  0
   21.0980   17.7680    4.1765 C   0  0  0  0  0  0  0  0  0  0  0  0
   22.3247   15.9942    8.8137 H   0  0  0  0  0  0  0  0  0  0  0  0
   21.9853   14.3182    9.1257 H   0  0  0  0  0  0  0  0  0  0  0  0
   21.8166   15.2998    9.3103 H   0  0  0  0  0  0  0  0  0  0  0  0
   18.5837   13.7278    8.1959 H   0  0  0  0  0  0  0  0  0  0  0  0
   20.4837   11.6852    7.2941 H   0  0  0  0  0  0  0  0  0  0  0  0
   22.7937   11.8991    6.2851 H   0  0  0  0  0  0  0  0  0  0  0  0
   23.1773   13.9669    4.9492 H   0  0  0  0  0  0  0  0  0  0  0  0
   22.7975   16.0586    4.6259 H   0  0  0  0  0  0  0  0  0  0  0  0
   23.1999   16.5914    6.2424 H   0  0  0  0  0  0  0  0  0  0  0  0
   21.2000   17.7413    7.4488 H   0  0  0  0  0  0  0  0  0  0  0  0
   22.4417   18.7385    6.7214 H   0  0  0  0  0  0  0  0  0  0  0  0
   19.5254   19.1583    6.9685 H   0  0  0  0  0  0  0  0  0  0  0  0
   20.8461   20.3235    6.8810 H   0  0  0  0  0  0  0  0  0  0  0  0
   19.9702   19.3254    3.1579 H   0  0  0  0  0  0  0  0  0  0  0  0
   21.9834   20.3849    2.8100 H   0  0  0  0  0  0  0  0  0  0  0  0
   22.7331   19.6717    4.2596 H   0  0  0  0  0  0  0  0  0  0  0  0
   20.9981   21.2938    5.2466 H   0  0  0  0  0  0  0  0  0  0  0  0
   22.0038   17.6756    3.4910 H   0  0  0  0  0  0  0  0  0  0  0  0
   20.3931   16.9817    3.7534 H   0  0  0  0  0  0  0  0  0  0  0  0
  1  2  1  0
  2  3  4  0
  3  4  1  0
  3  5  4  0
  5  6  4  0
  6  7  4  0
  7  8  4  0
  8  9  1  0
  9 10  1  0
 10 11  1  0
 11 12  1  0
 12 13  1  0
 13 14  1  0
 14 15  1  0
 15 16  1  0
 14 17  1  0
  8  2  4  0
 17 10  1  0
  1 18  1  0
  1 19  1  0
  1 20  1  0
  4 21  1  0
  5 22  1  0
  6 23  1  0
  7 24  1  0
  9 25  1  0
  9 26  1  0
 11 27  1  0
 11 28  1  0
 12 29  1  0
 12 30  1  0
 14 31  1  6
 15 32  1  0
 15 33  1  0
 16 34  1  0
 17 35  1  0
 17 36  1  0
M  END
