LIG
     RDKit          3D

 48 50  0  0  0  0  0  0  0  0999 V2000
   24.8960  -19.9010   19.9700 C   0  0  0  0  0  0  0  0  0  0  0  0
   23.7980  -20.7320   20.2510 O   0  0  0  0  0  0  0  0  0  0  0  0
   23.5700  -21.8020   19.4120 C   0  0  0  0  0  0  0  0  0  0  0  0
   24.2490  -22.0500   18.4380 O   0  0  0  0  0  0  0  0  0  0  0  0
   22.6925  -22.3875   20.0870 N   0  0  0  0  0  0  0  0  0  0  0  0
   22.2240  -22.0380   21.5910 C   0  0  0  0  0  0  0  0  0  0  0  0
   21.1920  -22.5860   21.7840 O   0  0  0  0  0  0  0  0  0  0  0  0
   22.7540  -21.1280   22.6050 N   0  0  0  0  0  0  0  0  0  0  0  0
   22.0860  -20.8710   23.8350 C   0  0  0  0  0  0  0  0  0  0  0  0
   21.9690  -19.3780   24.1750 C   0  0  0  0  0  0  0  0  0  0  0  0
   23.1680  -18.6610   24.0280 N   0  0  0  0  0  0  0  0  0  0  0  0
   23.0570  -17.4280   24.3160 C   0  0  0  0  0  0  0  0  0  0  0  0
   23.7850  -18.9030   22.7950 C   0  0  0  0  0  0  0  0  0  0  0  0
   23.9770  -20.3910   22.5380 C   0  0  0  0  0  0  0  0  0  0  0  0
   22.2035  -23.4035   19.2565 C   0  0  0  0  0  0  0  0  0  0  0  0
   22.0030  -24.8245   19.7850 S   0  0  0  0  0  0  0  0  0  0  0  0
   21.4135  -25.5705   18.5535 C   0  0  0  0  0  0  0  0  0  0  0  0
   20.9070  -27.2570   18.3710 C   0  0  0  0  0  0  0  0  0  0  0  0
   21.2585  -24.9180   17.4110 N   0  0  0  0  0  0  0  0  0  0  0  0
   21.6465  -23.6245   17.4525 C   0  0  0  0  0  0  0  0  0  0  0  0
   21.7955  -22.6575   17.4690 C   0  0  0  0  0  0  0  0  0  0  0  0
   21.6380  -22.8090   15.5630 C   0  0  0  0  0  0  0  0  0  0  0  0
   21.3690  -21.7900   14.6400 C   0  0  0  0  0  0  0  0  0  0  0  0
   20.8060  -20.5770   15.0660 C   0  0  0  0  0  0  0  0  0  0  0  0
   20.5170  -20.3820   16.4180 C   0  0  0  0  0  0  0  0  0  0  0  0
   20.7840  -21.3960   17.3440 C   0  0  0  0  0  0  0  0  0  0  0  0
   25.1870  -19.9781   18.9134 H   0  0  0  0  0  0  0  0  0  0  0  0
   24.5900  -19.1591   19.2221 H   0  0  0  0  0  0  0  0  0  0  0  0
   24.6794  -18.8559   20.2302 H   0  0  0  0  0  0  0  0  0  0  0  0
   21.0692  -21.2920   23.7875 H   0  0  0  0  0  0  0  0  0  0  0  0
   22.6114  -21.3899   24.6539 H   0  0  0  0  0  0  0  0  0  0  0  0
   21.1523  -18.9355   23.5505 H   0  0  0  0  0  0  0  0  0  0  0  0
   21.5796  -19.3103   25.2204 H   0  0  0  0  0  0  0  0  0  0  0  0
   23.9442  -16.7890   24.0248 H   0  0  0  0  0  0  0  0  0  0  0  0
   22.1758  -16.8791   23.8587 H   0  0  0  0  0  0  0  0  0  0  0  0
   22.9569  -17.2014   25.4206 H   0  0  0  0  0  0  0  0  0  0  0  0
   24.7685  -18.4252   22.7870 H   0  0  0  0  0  0  0  0  0  0  0  0
   23.2293  -18.5008   21.9399 H   0  0  0  0  0  0  0  0  0  0  0  0
   24.7427  -20.7884   23.2298 H   0  0  0  0  0  0  0  0  0  0  0  0
   24.3898  -20.5446   21.5228 H   0  0  0  0  0  0  0  0  0  0  0  0
   21.7165  -27.7045   17.8677 H   0  0  0  0  0  0  0  0  0  0  0  0
   20.0132  -27.1909   17.8188 H   0  0  0  0  0  0  0  0  0  0  0  0
   20.7809  -27.5802   19.3659 H   0  0  0  0  0  0  0  0  0  0  0  0
   21.7941  -23.8631   15.3586 H   0  0  0  0  0  0  0  0  0  0  0  0
   21.5955  -21.9415   13.5879 H   0  0  0  0  0  0  0  0  0  0  0  0
   20.5970  -19.7954   14.3453 H   0  0  0  0  0  0  0  0  0  0  0  0
   20.0781  -19.4461   16.7502 H   0  0  0  0  0  0  0  0  0  0  0  0
   20.1170  -21.3653   18.3236 H   0  0  0  0  0  0  0  0  0  0  0  0
  1  2  1  0
  2  3  1  0
  3  4  2  0
  3  5  1  0
  5  6  1  0
  6  7  2  0
  6  8  1  0
  8  9  1  0
  9 10  1  0
 10 11  1  0
 11 12  1  0
 11 13  1  0
 13 14  1  0
  5 15  1  0
 15 16  4  0
 16 17  4  0
 17 18  1  0
 17 19  4  0
 19 20  4  0
 20 21  1  0
 21 22  4  0
 22 23  4  0
 23 24  4  0
 24 25  4  0
 25 26  4  0
 14  8  1  0
 20 15  4  0
 26 21  4  0
  1 27  1  0
  1 28  1  0
  1 29  1  0
  9 30  1  0
  9 31  1  0
 10 32  1  0
 10 33  1  0
 12 34  1  0
 12 35  1  0
 12 36  1  0
 13 37  1  0
 13 38  1  0
 14 39  1  0
 14 40  1  0
 18 41  1  0
 18 42  1  0
 18 43  1  0
 22 44  1  0
 23 45  1  0
 24 46  1  0
 25 47  1  0
 26 48  1  0
M  END
