LIG
     RDKit          3D

 44 46  0  0  0  0  0  0  0  0999 V2000
   13.9850   -1.7380   20.5810 N   0  0  0  0  0  0  0  0  0  0  0  0
   13.2800   -1.3010   21.3800 C   0  0  0  0  0  0  0  0  0  0  0  0
   12.8510   -0.6710   22.5215 C   0  0  0  0  0  0  0  0  0  0  0  0
   11.2820   -1.3980   22.7460 C   0  0  0  0  0  0  0  0  0  0  0  0
   10.4420   -0.8190   23.6890 C   0  0  0  0  0  0  0  0  0  0  0  0
   10.7560    0.4300   24.2400 C   0  0  0  0  0  0  0  0  0  0  0  0
    9.8330    1.0540   25.2470 C   0  0  0  0  0  0  0  0  0  0  0  0
    8.4500    0.7150   24.9220 N   0  0  0  0  0  0  0  0  0  0  0  0
    7.7030    1.4680   24.0150 C   0  0  0  0  0  0  0  0  0  0  0  0
    8.1720    2.4660   23.4420 O   0  0  0  0  0  0  0  0  0  0  0  0
    6.3360    0.9640   23.8050 N   0  0  0  0  0  0  0  0  0  0  0  0
    5.4800    0.8530   25.0320 C   0  0  0  0  0  0  0  0  0  0  0  0
    4.0500    0.3480   24.7320 C   0  0  0  0  0  0  0  0  0  0  0  0
    3.4750    1.0690   23.6570 O   0  0  0  0  0  0  0  0  0  0  0  0
    4.2210    1.0320   22.4570 C   0  0  0  0  0  0  0  0  0  0  0  0
    5.6140    1.6470   22.6990 C   0  0  0  0  0  0  0  0  0  0  0  0
   11.5655    1.1480   23.8105 C   0  0  0  0  0  0  0  0  0  0  0  0
   10.6670    2.4740   24.0250 C   0  0  0  0  0  0  0  0  0  0  0  0
   11.3350    3.6620   23.6540 C   0  0  0  0  0  0  0  0  0  0  0  0
   10.6680    5.1850   23.9350 S   0  0  0  0  0  6  0  0  0  0  0  0
    9.3520    5.1750   22.9550 N   0  0  0  0  0  0  0  0  0  0  0  0
   11.5530    6.1960   23.4620 O   0  0  0  0  0  0  0  0  0  0  0  0
   10.1890    5.2490   25.2610 O   0  0  0  0  0  0  0  0  0  0  0  0
   12.5830    3.5320   23.0260 C   0  0  0  0  0  0  0  0  0  0  0  0
   13.1480    2.2850   22.7650 C   0  0  0  0  0  0  0  0  0  0  0  0
   12.6120    0.8245   23.0230 C   0  0  0  0  0  0  0  0  0  0  0  0
   11.1315   -2.2084   22.1482 H   0  0  0  0  0  0  0  0  0  0  0  0
    9.5439   -1.3488   23.9944 H   0  0  0  0  0  0  0  0  0  0  0  0
   10.0546    0.7229   26.2622 H   0  0  0  0  0  0  0  0  0  0  0  0
    9.9210    2.1424   25.2484 H   0  0  0  0  0  0  0  0  0  0  0  0
    7.8841    0.4187   25.7162 H   0  0  0  0  0  0  0  0  0  0  0  0
    5.4290    1.8112   25.5575 H   0  0  0  0  0  0  0  0  0  0  0  0
    5.9993    0.1435   25.6926 H   0  0  0  0  0  0  0  0  0  0  0  0
    3.4159    0.4426   25.6202 H   0  0  0  0  0  0  0  0  0  0  0  0
    4.0910   -0.7089   24.4565 H   0  0  0  0  0  0  0  0  0  0  0  0
    3.6911    1.5758   21.6725 H   0  0  0  0  0  0  0  0  0  0  0  0
    4.3299   -0.0056   22.1460 H   0  0  0  0  0  0  0  0  0  0  0  0
    6.2361    1.5311   21.8074 H   0  0  0  0  0  0  0  0  0  0  0  0
    5.5186    2.7112   22.9210 H   0  0  0  0  0  0  0  0  0  0  0  0
    9.7488    2.3921   24.3943 H   0  0  0  0  0  0  0  0  0  0  0  0
    8.7738    6.0232   22.9988 H   0  0  0  0  0  0  0  0  0  0  0  0
    9.3586    6.0075   22.3496 H   0  0  0  0  0  0  0  0  0  0  0  0
   13.1397    4.4414   22.7317 H   0  0  0  0  0  0  0  0  0  0  0  0
   14.1816    2.2951   22.2905 H   0  0  0  0  0  0  0  0  0  0  0  0
  1  2  3  0
  2  3  1  0
  3  4  4  0
  4  5  4  0
  5  6  4  0
  6  7  1  0
  7  8  1  0
  8  9  1  0
  9 10  2  0
  9 11  1  0
 11 12  1  0
 12 13  1  0
 13 14  1  0
 14 15  1  0
 15 16  1  0
  6 17  4  0
 17 18  4  0
 18 19  4  0
 19 20  1  0
 20 21  1  0
 20 22  2  0
 20 23  2  0
 19 24  4  0
 24 25  4  0
 25 26  4  0
 26  3  4  0
 16 11  1  0
 26 17  4  0
  4 27  1  0
  5 28  1  0
  7 29  1  0
  7 30  1  0
  8 31  1  0
 12 32  1  0
 12 33  1  0
 13 34  1  0
 13 35  1  0
 15 36  1  0
 15 37  1  0
 16 38  1  0
 16 39  1  0
 18 40  1  0
 21 41  1  0
 21 42  1  0
 24 43  1  0
 25 44  1  0
M  END
