LIG
     RDKit          3D

 44 47  0  0  0  0  0  0  0  0999 V2000
   13.9850   -1.7380   20.5810 N   0  0  0  0  0  0  0  0  0  0  0  0
   13.2800   -1.3010   21.3800 C   0  0  0  0  0  0  0  0  0  0  0  0
   12.4390   -0.7270   22.3590 C   0  0  0  0  0  0  0  0  0  0  0  0
   12.7690    0.5130   22.9150 C   0  0  0  0  0  0  0  0  0  0  0  0
   11.9170    1.0940   23.8520 C   0  0  0  0  0  0  0  0  0  0  0  0
   10.7560    0.4300   24.2400 C   0  0  0  0  0  0  0  0  0  0  0  0
   10.2355   -0.7215   23.1175 C   0  0  0  0  0  0  0  0  0  0  0  0
   11.2820   -1.3980   22.7460 C   0  0  0  0  0  0  0  0  0  0  0  0
    9.1310   -0.0090   21.4750 C   0  0  0  0  0  0  0  0  0  0  0  0
    9.4550    1.0030   20.9560 O   0  0  0  0  0  0  0  0  0  0  0  0
    7.8860   -0.6570   21.1000 N   0  0  0  0  0  0  0  0  0  0  0  0
    7.0320   -0.0760   20.0760 C   0  0  0  0  0  0  0  0  0  0  0  0
    7.4050   -0.1450   18.7400 C   0  0  0  0  0  0  0  0  0  0  0  0
    6.6520    0.3680   17.7870 N   0  0  0  0  0  0  0  0  0  0  0  0
    5.5190    0.9700   18.0740 C   0  0  0  0  0  0  0  0  0  0  0  0
    5.0650    1.0940   19.3800 C   0  0  0  0  0  0  0  0  0  0  0  0
    5.8360    0.5550   20.4100 C   0  0  0  0  0  0  0  0  0  0  0  0
    5.5035    1.1550   22.2830 C   0  0  0  0  0  0  0  0  0  0  0  0
    4.2210    1.0320   22.4570 C   0  0  0  0  0  0  0  0  0  0  0  0
    3.4750    1.0690   23.6570 O   0  0  0  0  0  0  0  0  0  0  0  0
    4.0500    0.3480   24.7320 C   0  0  0  0  0  0  0  0  0  0  0  0
    5.4800    0.8530   25.0320 C   0  0  0  0  0  0  0  0  0  0  0  0
    6.3360    0.9640   23.8050 N   0  0  0  0  0  0  0  0  0  0  0  0
    7.7030    1.4680   24.0150 C   0  0  0  0  0  0  0  0  0  0  0  0
    8.1720    2.4660   23.4420 O   0  0  0  0  0  0  0  0  0  0  0  0
    8.4500    0.7150   24.9220 N   0  0  0  0  0  0  0  0  0  0  0  0
    9.8330    1.0540   25.2470 C   0  0  0  0  0  0  0  0  0  0  0  0
   13.6763    1.0279   22.6179 H   0  0  0  0  0  0  0  0  0  0  0  0
   12.1685    2.0661   24.2623 H   0  0  0  0  0  0  0  0  0  0  0  0
   11.2916   -2.5047   22.7205 H   0  0  0  0  0  0  0  0  0  0  0  0
    7.8403   -1.6153   21.2642 H   0  0  0  0  0  0  0  0  0  0  0  0
    8.3311   -0.5702   18.4242 H   0  0  0  0  0  0  0  0  0  0  0  0
    4.9410    1.3473   17.2454 H   0  0  0  0  0  0  0  0  0  0  0  0
    4.1164    1.5730   19.5319 H   0  0  0  0  0  0  0  0  0  0  0  0
    5.6006    2.3204   22.0406 H   0  0  0  0  0  0  0  0  0  0  0  0
    3.7585    0.0675   21.9268 H   0  0  0  0  0  0  0  0  0  0  0  0
    3.6109    1.8158   21.8077 H   0  0  0  0  0  0  0  0  0  0  0  0
    3.4311    0.4847   25.6071 H   0  0  0  0  0  0  0  0  0  0  0  0
    4.0739   -0.7047   24.4947 H   0  0  0  0  0  0  0  0  0  0  0  0
    5.4290    1.8608   25.4423 H   0  0  0  0  0  0  0  0  0  0  0  0
    5.9637    0.2048   25.7569 H   0  0  0  0  0  0  0  0  0  0  0  0
    8.1878   -0.2505   24.9822 H   0  0  0  0  0  0  0  0  0  0  0  0
    9.8941    2.1332   25.2138 H   0  0  0  0  0  0  0  0  0  0  0  0
   10.0672    0.6884   26.2360 H   0  0  0  0  0  0  0  0  0  0  0  0
  1  2  3  0
  2  3  1  0
  3  4  4  0
  4  5  4  0
  5  6  4  0
  6  7  4  0
  7  8  4  0
  7  9  1  0
  9 10  2  0
  9 11  1  0
 11 12  1  0
 12 13  4  0
 13 14  4  0
 14 15  4  0
 15 16  4  0
 16 17  4  0
 17 18  1  0
 18 19  1  0
 19 20  1  0
 20 21  1  0
 21 22  1  0
 22 23  1  0
 23 24  1  0
 24 25  2  0
 24 26  1  0
 26 27  1  0
  8  3  4  0
 17 12  4  0
 23 18  1  0
 27  6  1  0
  4 28  1  0
  5 29  1  0
  8 30  1  0
 11 31  1  0
 13 32  1  0
 15 33  1  0
 16 34  1  0
 18 35  1  0
 19 36  1  0
 19 37  1  0
 21 38  1  0
 21 39  1  0
 22 40  1  0
 22 41  1  0
 26 42  1  0
 27 43  1  0
 27 44  1  0
M  END
