
     RDKit          3D

 44 46  0  0  0  0  0  0  0  0999 V2000
   13.7110   -1.5190   21.1750 N   0  0  0  0  0  0  0  0  0  0  0  0
   13.1150   -1.1300   22.0690 C   0  0  0  0  0  0  0  0  0  0  0  0
   12.0680   -0.6550   22.9860 C   0  0  0  0  0  0  0  0  0  0  0  0
   11.3040   -1.6530   23.5450 C   0  0  0  0  0  0  0  0  0  0  0  0
   10.0930   -1.5530   24.4920 C   0  0  0  0  0  0  0  0  0  0  0  0
   10.0880   -0.0370   24.5100 C   0  0  0  0  0  0  0  0  0  0  0  0
    9.1630    0.6230   25.2460 C   0  0  0  0  0  0  0  0  0  0  0  0
    7.9790    0.3050   24.7290 N   0  0  0  0  0  0  0  0  0  0  0  0
    7.5430    1.3650   24.0070 C   0  0  0  0  0  0  0  0  0  0  0  0
    8.2120    2.0980   23.2940 O   0  0  0  0  0  0  0  0  0  0  0  0
    6.1090    1.7040   24.0710 N   0  0  0  0  0  0  0  0  0  0  0  0
    5.4350    1.7040   22.7350 C   0  0  0  0  0  0  0  0  0  0  0  0
    3.9620    1.9450   22.7360 C   0  0  0  0  0  0  0  0  0  0  0  0
    3.3140    1.5120   23.6980 O   0  0  0  0  0  0  0  0  0  0  0  0
    4.1070    0.6840   24.5820 C   0  0  0  0  0  0  0  0  0  0  0  0
    5.2660    1.2150   25.1140 C   0  0  0  0  0  0  0  0  0  0  0  0
   10.8290    1.0270   23.9420 C   0  0  0  0  0  0  0  0  0  0  0  0
   10.5060    2.3810   24.1160 C   0  0  0  0  0  0  0  0  0  0  0  0
   11.2510    3.4190   23.5440 C   0  0  0  0  0  0  0  0  0  0  0  0
   10.6700    5.1370   23.7850 S   0  0  1  0  0  0  0  0  0  0  0  0
   11.7120    6.0550   22.8600 N   0  0  0  0  0  0  0  0  0  0  0  0
    9.3870    5.2600   23.1330 O   0  0  0  0  0  0  0  0  0  0  0  0
   10.8690    5.6490   25.1100 O   0  0  0  0  0  0  0  0  0  0  0  0
   12.3990    3.1460   22.8020 C   0  0  0  0  0  0  0  0  0  0  0  0
   12.6430    1.6490   22.6820 C   0  0  0  0  0  0  0  0  0  0  0  0
   11.8700    0.6920   23.1950 C   0  0  0  0  0  0  0  0  0  0  0  0
   11.5920   -2.6720   23.2800 H   0  0  0  0  0  0  0  0  0  0  0  0
   10.2970   -2.6100   24.3200 H   0  0  0  0  0  0  0  0  0  0  0  0
    9.2900    1.7070   25.2050 H   0  0  0  0  0  0  0  0  0  0  0  0
    9.2030    0.3420   26.3020 H   0  0  0  0  0  0  0  0  0  0  0  0
    7.2930   -0.0490   25.3780 H   0  0  0  0  0  0  0  0  0  0  0  0
    5.5800    0.7050   22.3030 H   0  0  0  0  0  0  0  0  0  0  0  0
    6.0540    2.3640   22.1350 H   0  0  0  0  0  0  0  0  0  0  0  0
    3.5250    1.5590   21.8080 H   0  0  0  0  0  0  0  0  0  0  0  0
    3.7980    3.0280   22.6750 H   0  0  0  0  0  0  0  0  0  0  0  0
    4.3340   -0.2300   24.0270 H   0  0  0  0  0  0  0  0  0  0  0  0
    3.4690    0.4060   25.4230 H   0  0  0  0  0  0  0  0  0  0  0  0
    5.0130    2.0560   25.7700 H   0  0  0  0  0  0  0  0  0  0  0  0
    5.8210    0.5090   25.7360 H   0  0  0  0  0  0  0  0  0  0  0  0
    9.6300    2.6150   24.7100 H   0  0  0  0  0  0  0  0  0  0  0  0
   12.6600    5.9110   23.2110 H   0  0  0  0  0  0  0  0  0  0  0  0
   11.5940    5.7710   21.8830 H   0  0  0  0  0  0  0  0  0  0  0  0
   12.9840    3.9730   22.3870 H   0  0  0  0  0  0  0  0  0  0  0  0
   13.4800    1.3360   22.1520 H   0  0  0  0  0  0  0  0  0  0  0  0
  1  2  3  0
  2  3  1  0
  3  4  2  0
  4  5  1  0
  5  6  2  0
  6  7  1  0
  7  8  1  0
  8  9  1  0
  9 10  2  0
  9 11  1  0
 11 12  1  0
 12 13  1  0
 13 14  1  0
 14 15  1  0
 11 16  1  0
 15 16  1  0
  6 17  1  0
 17 18  1  0
 18 19  2  0
 19 20  1  0
 20 21  1  6
 20 22  2  0
 20 23  2  0
 19 24  1  0
 24 25  2  0
  3 26  1  0
 17 26  2  0
 25 26  1  0
  4 27  1  0
  5 28  1  0
  7 29  1  0
  7 30  1  0
  8 31  1  0
 12 32  1  0
 12 33  1  0
 13 34  1  0
 13 35  1  0
 15 36  1  0
 15 37  1  0
 16 38  1  0
 16 39  1  0
 18 40  1  0
 21 41  1  0
 21 42  1  0
 24 43  1  0
 25 44  1  0
M  END
