
     RDKit          3D

 63 66  0  0  0  0  0  0  0  0999 V2000
   13.2830   -2.6590   20.7820 N   0  0  0  0  0  0  0  0  0  0  0  0
   12.7740   -2.0780   21.6150 C   0  0  0  0  0  0  0  0  0  0  0  0
   12.1910   -1.3510   22.7610 C   0  0  1  0  0  0  0  0  0  0  0  0
   12.8050   -0.1280   22.9470 C   0  0  0  0  0  0  0  0  0  0  0  0
   12.2490    0.6840   24.0710 C   0  0  0  0  0  0  0  0  0  0  0  0
   10.8050    0.8640   23.8680 C   0  0  2  0  0  0  0  0  0  0  0  0
    9.8830    0.5190   24.8280 C   0  0  0  0  0  0  0  0  0  0  0  0
    8.7220    0.1760   24.2320 N   0  0  0  0  0  0  0  0  0  0  0  0
    7.9230    1.2990   24.0370 C   0  0  0  0  0  0  0  0  0  0  0  0
    8.3290    2.4590   23.9800 O   0  0  0  0  0  0  0  0  0  0  0  0
    6.4340    1.1930   23.8230 N   0  0  0  0  0  0  0  0  0  0  0  0
    5.5980    0.9460   25.0530 C   0  0  0  0  0  0  0  0  0  0  0  0
    4.1250    0.7710   24.7950 C   0  0  0  0  0  0  0  0  0  0  0  0
    3.6280    1.4200   23.8710 O   0  0  0  0  0  0  0  0  0  0  0  0
    4.4840    1.4380   22.7060 C   0  0  0  0  0  0  0  0  0  0  0  0
    5.7380    1.9820   22.8540 C   0  0  0  0  0  0  0  0  0  0  0  0
    8.0580   -0.8530   24.6010 C   0  0  0  0  0  0  0  0  0  0  0  0
    8.4400   -2.0190   23.9710 C   0  0  2  0  0  0  0  0  0  0  0  0
    7.8360   -3.2540   24.5490 N   0  0  0  0  0  0  0  0  0  0  0  0
    8.0270   -4.3900   23.7130 C   0  0  0  0  0  0  0  0  0  0  0  0
    6.9180   -4.6970   22.9660 C   0  0  0  0  0  0  0  0  0  0  0  0
    6.0600   -5.6010   23.7990 C   0  0  0  0  0  0  0  0  0  0  0  0
    6.4560   -5.4770   25.1600 O   0  0  0  0  0  0  0  0  0  0  0  0
    6.0310   -4.2300   25.7430 C   0  0  0  0  0  0  0  0  0  0  0  0
    6.7430   -3.0540   25.3960 C   0  0  0  0  0  0  0  0  0  0  0  0
    9.9860   -2.1500   23.9760 C   0  0  0  0  0  0  0  0  0  0  0  0
   10.7920   -1.3480   22.9330 C   0  0  1  0  0  0  0  0  0  0  0  0
   10.4330    0.1650   22.7260 C   0  0  1  0  0  0  0  0  0  0  0  0
    9.2300    0.4790   21.9290 C   0  0  0  0  0  0  0  0  0  0  0  0
    8.3700    0.8540   21.2650 N   0  0  0  0  0  0  0  0  0  0  0  0
   12.5430   -1.9410   23.6180 H   0  0  0  0  0  0  0  0  0  0  0  0
   13.8660   -0.2850   23.1290 H   0  0  0  0  0  0  0  0  0  0  0  0
   12.7560    0.4700   22.0420 H   0  0  0  0  0  0  0  0  0  0  0  0
   12.7300    1.6570   24.0020 H   0  0  0  0  0  0  0  0  0  0  0  0
   12.4230    0.3200   25.0700 H   0  0  0  0  0  0  0  0  0  0  0  0
   10.7960    1.9180   23.6120 H   0  0  0  0  0  0  0  0  0  0  0  0
   10.2630   -0.3090   25.4350 H   0  0  0  0  0  0  0  0  0  0  0  0
    9.6810    1.3790   25.4600 H   0  0  0  0  0  0  0  0  0  0  0  0
    6.0710    0.0910   25.5310 H   0  0  0  0  0  0  0  0  0  0  0  0
    5.8300    1.7820   25.7110 H   0  0  0  0  0  0  0  0  0  0  0  0
    3.9150   -0.2900   24.6130 H   0  0  0  0  0  0  0  0  0  0  0  0
    3.5740    1.0330   25.7060 H   0  0  0  0  0  0  0  0  0  0  0  0
    4.6810    0.3880   22.4690 H   0  0  0  0  0  0  0  0  0  0  0  0
    3.8560    1.8260   21.8950 H   0  0  0  0  0  0  0  0  0  0  0  0
    5.7710    3.0070   23.2230 H   0  0  0  0  0  0  0  0  0  0  0  0
    6.3970    2.0080   21.9830 H   0  0  0  0  0  0  0  0  0  0  0  0
    7.0240   -0.6870   24.2960 H   0  0  0  0  0  0  0  0  0  0  0  0
    8.0110   -0.8370   25.6880 H   0  0  0  0  0  0  0  0  0  0  0  0
    8.1790   -1.9920   22.9060 H   0  0  0  0  0  0  0  0  0  0  0  0
    8.4260   -5.2140   24.2560 H   0  0  0  0  0  0  0  0  0  0  0  0
    8.7760   -4.0550   23.0160 H   0  0  0  0  0  0  0  0  0  0  0  0
    6.3760   -3.7840   22.6950 H   0  0  0  0  0  0  0  0  0  0  0  0
    7.2070   -5.1930   22.0330 H   0  0  0  0  0  0  0  0  0  0  0  0
    6.1050   -6.6310   23.4230 H   0  0  0  0  0  0  0  0  0  0  0  0
    5.0160   -5.2740   23.7060 H   0  0  0  0  0  0  0  0  0  0  0  0
    4.9970   -4.0880   25.4060 H   0  0  0  0  0  0  0  0  0  0  0  0
    5.9730   -4.3310   26.8360 H   0  0  0  0  0  0  0  0  0  0  0  0
    6.1560   -2.2280   24.9720 H   0  0  0  0  0  0  0  0  0  0  0  0
    7.0920   -2.6560   26.3490 H   0  0  0  0  0  0  0  0  0  0  0  0
   10.3420   -1.7790   24.9390 H   0  0  0  0  0  0  0  0  0  0  0  0
   10.2690   -3.2000   23.9380 H   0  0  0  0  0  0  0  0  0  0  0  0
   10.5370   -1.9810   22.0670 H   0  0  0  0  0  0  0  0  0  0  0  0
   11.0780    0.5060   21.9550 H   0  0  0  0  0  0  0  0  0  0  0  0
  1  2  3  0
  2  3  1  0
  3  4  1  0
  4  5  1  0
  5  6  1  0
  6  7  1  0
  7  8  1  0
  8  9  1  0
  9 10  2  0
  9 11  1  0
 11 12  1  0
 12 13  1  0
 13 14  1  0
 14 15  1  0
 11 16  1  0
 15 16  1  0
  8 17  1  0
 17 18  1  0
 18 19  1  0
 19 20  1  0
 20 21  1  0
 21 22  1  0
 22 23  1  0
 23 24  1  0
 19 25  1  0
 24 25  1  0
 18 26  1  0
  3 27  1  0
 26 27  1  0
  6 28  1  0
 27 28  1  0
 28 29  1  0
 29 30  3  0
  3 31  1  1
  4 32  1  0
  4 33  1  0
  5 34  1  0
  5 35  1  0
  6 36  1  6
  7 37  1  0
  7 38  1  0
 12 39  1  0
 12 40  1  0
 13 41  1  0
 13 42  1  0
 15 43  1  0
 15 44  1  0
 16 45  1  0
 16 46  1  0
 17 47  1  0
 17 48  1  0
 18 49  1  6
 20 50  1  0
 20 51  1  0
 21 52  1  0
 21 53  1  0
 22 54  1  0
 22 55  1  0
 24 56  1  0
 24 57  1  0
 25 58  1  0
 25 59  1  0
 26 60  1  0
 26 61  1  0
 27 62  1  6
 28 63  1  6
M  END
