
     RDKit          3D

 49 51  0  0  0  0  0  0  0  0999 V2000
   13.4930   -2.5190   20.7300 N   0  0  0  0  0  0  0  0  0  0  0  0
   12.9500   -1.9600   21.5280 C   0  0  0  0  0  0  0  0  0  0  0  0
   12.1830   -1.3030   22.5760 C   0  0  0  0  0  0  0  0  0  0  0  0
   12.8240   -1.0700   23.7840 C   0  0  0  0  0  0  0  0  0  0  0  0
   12.0620   -0.3920   24.8950 C   0  0  0  0  0  0  0  0  0  0  0  0
   10.6540   -0.0390   24.5390 C   0  0  0  0  0  0  0  0  0  0  0  0
    9.7010    0.5940   25.3350 C   0  0  0  0  0  0  0  0  0  0  0  0
    8.4370    0.2660   24.9760 N   0  0  0  0  0  0  0  0  0  0  0  0
    7.7480    1.3500   24.4500 C   0  0  0  0  0  0  0  0  0  0  0  0
    8.2140    2.4440   24.1170 O   0  0  0  0  0  0  0  0  0  0  0  0
    6.2700    1.2080   24.2290 N   0  0  0  0  0  0  0  0  0  0  0  0
    5.6580    2.0570   23.1560 C   0  0  0  0  0  0  0  0  0  0  0  0
    4.1890    1.8640   22.8980 C   0  0  0  0  0  0  0  0  0  0  0  0
    3.4760    1.5050   23.8470 O   0  0  0  0  0  0  0  0  0  0  0  0
    4.1240    0.5510   24.7180 C   0  0  0  0  0  0  0  0  0  0  0  0
    5.3500    0.8800   25.2640 C   0  0  0  0  0  0  0  0  0  0  0  0
   10.0760   -0.3210   23.2700 C   0  0  0  0  0  0  0  0  0  0  0  0
    8.7730   -0.0030   22.9500 C   0  0  0  0  0  0  0  0  0  0  0  0
    8.5540    0.3820   21.6380 C   0  0  0  0  0  0  0  0  0  0  0  0
    9.0390    1.4130   21.1500 O   0  0  0  0  0  0  0  0  0  0  0  0
    7.6510   -0.6030   20.9860 N   0  0  0  0  0  0  0  0  0  0  0  0
    6.8570    0.0270   20.0860 C   0  0  0  0  0  0  0  0  0  0  0  0
    5.6980    0.9310   20.4360 C   0  0  0  0  0  0  0  0  0  0  0  0
    4.9830    1.5050   19.3900 C   0  0  0  0  0  0  0  0  0  0  0  0
    5.3440    1.2390   18.0740 C   0  0  0  0  0  0  0  0  0  0  0  0
    6.3800    0.4270   17.7270 N   0  0  0  0  0  0  0  0  0  0  0  0
    7.1510   -0.1950   18.7770 C   0  0  0  0  0  0  0  0  0  0  0  0
   10.8630   -0.9520   22.3120 C   0  0  0  0  0  0  0  0  0  0  0  0
   13.8550   -1.3690   23.9360 H   0  0  0  0  0  0  0  0  0  0  0  0
   12.5270   -0.1970   25.8530 H   0  0  0  0  0  0  0  0  0  0  0  0
    9.8260    0.3100   26.3870 H   0  0  0  0  0  0  0  0  0  0  0  0
    9.8110    1.6850   25.2940 H   0  0  0  0  0  0  0  0  0  0  0  0
    7.9060   -0.2580   25.6590 H   0  0  0  0  0  0  0  0  0  0  0  0
    5.7800    3.1030   23.4670 H   0  0  0  0  0  0  0  0  0  0  0  0
    6.3430    1.9370   22.3220 H   0  0  0  0  0  0  0  0  0  0  0  0
    3.7630    2.7990   22.5080 H   0  0  0  0  0  0  0  0  0  0  0  0
    4.0810    1.1530   22.0670 H   0  0  0  0  0  0  0  0  0  0  0  0
    4.2010   -0.3790   24.1530 H   0  0  0  0  0  0  0  0  0  0  0  0
    3.4480    0.3640   25.5520 H   0  0  0  0  0  0  0  0  0  0  0  0
    5.7500    0.0190   25.8110 H   0  0  0  0  0  0  0  0  0  0  0  0
    5.3040    1.6960   25.9830 H   0  0  0  0  0  0  0  0  0  0  0  0
    8.3910    0.7320   23.6340 H   0  0  0  0  0  0  0  0  0  0  0  0
    8.1160   -0.8310   23.2040 H   0  0  0  0  0  0  0  0  0  0  0  0
    7.3730   -1.4900   21.4110 H   0  0  0  0  0  0  0  0  0  0  0  0
    5.4240    1.1320   21.4630 H   0  0  0  0  0  0  0  0  0  0  0  0
    4.1480    2.1610   19.6190 H   0  0  0  0  0  0  0  0  0  0  0  0
    4.7940    1.6870   17.2550 H   0  0  0  0  0  0  0  0  0  0  0  0
    7.9650   -0.8400   18.4280 H   0  0  0  0  0  0  0  0  0  0  0  0
   10.4400   -1.1820   21.3280 H   0  0  0  0  0  0  0  0  0  0  0  0
  1  2  3  0
  2  3  1  0
  3  4  2  0
  4  5  1  0
  5  6  2  0
  6  7  1  0
  7  8  1  0
  8  9  1  0
  9 10  2  0
  9 11  1  0
 11 12  1  0
 12 13  1  0
 13 14  1  0
 14 15  1  0
 11 16  1  0
 15 16  1  0
  6 17  1  0
 17 18  1  0
 18 19  1  0
 19 20  2  0
 19 21  1  0
 21 22  1  0
 22 23  2  0
 23 24  1  0
 24 25  2  0
 25 26  1  0
 22 27  1  0
 26 27  2  0
  3 28  1  0
 17 28  2  0
  4 29  1  0
  5 30  1  0
  7 31  1  0
  7 32  1  0
  8 33  1  0
 12 34  1  0
 12 35  1  0
 13 36  1  0
 13 37  1  0
 15 38  1  0
 15 39  1  0
 16 40  1  0
 16 41  1  0
 18 42  1  0
 18 43  1  0
 21 44  1  0
 23 45  1  0
 24 46  1  0
 25 47  1  0
 27 48  1  0
 28 49  1  0
M  END
