LIG
     RDKit          3D

 36 37  0  0  0  0  0  0  0  0999 V2000
    8.4100    0.0120   27.4140 C   0  0  0  0  0  0  0  0  0  0  0  0
    8.7085    0.0880   25.5215 N   0  0  0  0  0  0  0  0  0  0  0  0
    9.9665    0.6605   25.4760 C   0  0  0  0  0  0  0  0  0  0  0  0
   10.8415    0.1270   24.4245 C   0  0  0  0  0  0  0  0  0  0  0  0
   11.9620    0.8050   24.0755 C   0  0  0  0  0  0  0  0  0  0  0  0
   12.7785    0.3250   23.1020 C   0  0  0  0  0  0  0  0  0  0  0  0
   12.4665   -0.8590   22.4415 C   0  0  0  0  0  0  0  0  0  0  0  0
   13.3340   -1.3665   21.3770 C   0  0  0  0  0  0  0  0  0  0  0  0
   14.0275   -1.7375   20.5495 N   0  0  0  0  0  0  0  0  0  0  0  0
   11.3235   -1.5620   22.7910 C   0  0  0  0  0  0  0  0  0  0  0  0
   10.5090   -1.0650   23.7895 C   0  0  0  0  0  0  0  0  0  0  0  0
    7.7030    1.4680   24.0150 C   0  0  0  0  0  0  0  0  0  0  0  0
    8.1720    2.4660   23.4420 O   0  0  0  0  0  0  0  0  0  0  0  0
    6.3360    0.9640   23.8050 N   0  0  0  0  0  0  0  0  0  0  0  0
    5.4800    0.8530   25.0320 C   0  0  0  0  0  0  0  0  0  0  0  0
    4.0500    0.3480   24.7320 C   0  0  0  0  0  0  0  0  0  0  0  0
    3.4750    1.0690   23.6570 O   0  0  0  0  0  0  0  0  0  0  0  0
    4.2210    1.0320   22.4570 C   0  0  0  0  0  0  0  0  0  0  0  0
    5.6140    1.6470   22.6990 C   0  0  0  0  0  0  0  0  0  0  0  0
    8.1716   -1.0002   27.4657 H   0  0  0  0  0  0  0  0  0  0  0  0
    9.3509    0.2964   27.7360 H   0  0  0  0  0  0  0  0  0  0  0  0
    9.1359   -0.6953   27.6389 H   0  0  0  0  0  0  0  0  0  0  0  0
   10.4812    0.5270   26.4460 H   0  0  0  0  0  0  0  0  0  0  0  0
    9.8697    1.7519   25.3665 H   0  0  0  0  0  0  0  0  0  0  0  0
   12.2401    1.7399   24.5812 H   0  0  0  0  0  0  0  0  0  0  0  0
   13.6927    0.8703   22.8340 H   0  0  0  0  0  0  0  0  0  0  0  0
   11.0668   -2.4906   22.2904 H   0  0  0  0  0  0  0  0  0  0  0  0
    9.6164   -1.6157   24.0731 H   0  0  0  0  0  0  0  0  0  0  0  0
    5.4410    1.8552   25.4855 H   0  0  0  0  0  0  0  0  0  0  0  0
    5.9905    0.1870   25.7422 H   0  0  0  0  0  0  0  0  0  0  0  0
    4.0806   -0.7032   24.4630 H   0  0  0  0  0  0  0  0  0  0  0  0
    3.4233    0.4713   25.6073 H   0  0  0  0  0  0  0  0  0  0  0  0
    4.3220    0.0009   22.1462 H   0  0  0  0  0  0  0  0  0  0  0  0
    3.6900    1.5865   21.6930 H   0  0  0  0  0  0  0  0  0  0  0  0
    5.5153    2.7136   22.9171 H   0  0  0  0  0  0  0  0  0  0  0  0
    6.2263    1.5073   21.8026 H   0  0  0  0  0  0  0  0  0  0  0  0
  1  2  1  0
  2  3  1  0
  3  4  1  0
  4  5  4  0
  5  6  4  0
  6  7  4  0
  7  8  1  0
  8  9  3  0
  7 10  4  0
 10 11  4  0
  2 12  1  0
 12 13  2  0
 12 14  1  0
 14 15  1  0
 15 16  1  0
 16 17  1  0
 17 18  1  0
 18 19  1  0
 11  4  4  0
 19 14  1  0
  1 20  1  0
  1 21  1  0
  1 22  1  0
  3 23  1  0
  3 24  1  0
  5 25  1  0
  6 26  1  0
 10 27  1  0
 11 28  1  0
 15 29  1  0
 15 30  1  0
 16 31  1  0
 16 32  1  0
 18 33  1  0
 18 34  1  0
 19 35  1  0
 19 36  1  0
M  END
