
     RDKit          3D

 19 20  0  0  0  0  0  0  0  0999 V2000
    4.7230   -3.9270   23.9760 N   0  0  0  0  0  0  0  0  0  0  0  0
    0.1610   -4.2910   25.6500 C   0  0  2  0  0  0  0  0  0  0  0  0
    5.8990   -4.6510   19.3420 O   0  0  0  0  0  0  0  0  0  0  0  0
    1.5300   -3.7070   25.7610 C   0  0  0  0  0  0  0  0  0  0  0  0
    6.1750   -4.4510   21.5740 N   0  0  0  0  0  0  0  0  0  0  0  0
    1.8360   -2.8030   26.7700 C   0  0  0  0  0  0  0  0  0  0  0  0
    3.1160   -2.2770   26.8370 C   0  0  0  0  0  0  0  0  0  0  0  0
    4.0830   -2.6430   25.9180 C   0  0  0  0  0  0  0  0  0  0  0  0
    3.7750   -3.5660   24.9020 C   0  0  0  0  0  0  0  0  0  0  0  0
    2.4810   -4.0870   24.8320 C   0  0  0  0  0  0  0  0  0  0  0  0
    4.9240   -5.3150   23.5320 C   0  0  0  0  0  0  0  0  0  0  0  0
    5.1780   -5.4200   22.0410 C   0  0  0  0  0  0  0  0  0  0  0  0
    6.7440   -3.6450   22.6450 C   0  0  0  0  0  0  0  0  0  0  0  0
    5.6230   -2.9440   23.3670 C   0  0  0  0  0  0  0  0  0  0  0  0
    6.5440   -4.2350   20.2960 C   0  0  0  0  0  0  0  0  0  0  0  0
    7.8090   -3.4410   20.1010 C   0  0  0  0  0  0  0  0  0  0  0  0
    0.1120   -5.5590   26.0500 F   0  0  0  0  0  0  0  0  0  0  0  0
   -0.2980   -4.2830   24.3960 F   0  0  0  0  0  0  0  0  0  0  0  0
   -0.7440   -3.6430   26.3740 F   0  0  0  0  0  0  0  0  0  0  0  0
  1  9  1  0
  1 11  1  0
  1 14  1  0
  9  8  1  0
  9 10  2  0
 11 12  1  0
 14 13  1  0
  2  4  1  0
  2 17  1  1
  2 18  1  0
  2 19  1  0
  4  6  2  0
  4 10  1  0
  3 15  2  0
 15  5  1  0
 15 16  1  0
  6  7  1  0
  5 12  1  0
  5 13  1  0
  7  8  2  0
M  END
