x0072-x2694-x0786
     RDKit          3D

 57 62  0  0  0  0  0  0  0  0999 V2000
    7.0990   -1.3310   21.7100 N   0  0  0  0  0  0  0  0  0  0  0  0
    5.8710   -2.2100   21.5950 C   0  0  0  0  0  0  0  0  0  0  0  0
    4.9070   -3.0720   21.1400 O   0  0  0  0  0  0  0  0  0  0  0  0
    6.8190    0.0880   21.6320 C   0  0  1  0  0  0  0  0  0  0  0  0
    8.3350   -1.8930   22.2750 C   0  0  2  0  0  0  0  0  0  0  0  0
    6.4700   -2.5130   20.2480 C   0  0  0  0  0  0  0  0  0  0  0  0
    7.8420    1.0730   21.8490 C   0  0  0  0  0  0  0  0  0  0  0  0
    6.2010    0.4820   20.3320 C   0  0  0  0  0  0  0  0  0  0  0  0
    8.5400   -1.9260   23.6450 N   0  0  0  0  0  0  0  0  0  0  0  0
    9.6400   -1.6090   21.8000 C   0  0  0  0  0  0  0  0  0  0  0  0
    6.8760   -3.9780   20.1080 C   0  0  0  0  0  0  0  0  0  0  0  0
    7.3730    2.2840   22.6480 N   0  0  0  0  0  0  0  0  0  0  0  0
    8.9210    0.8770   21.3340 O   0  0  0  0  0  0  0  0  0  0  0  0
    8.7390   -3.2710   24.1820 C   0  0  0  0  0  0  0  0  0  0  0  0
    5.0220    1.1890   20.2750 C   0  0  0  0  0  0  0  0  0  0  0  0
    6.8370    0.1430   19.1250 C   0  0  0  0  0  0  0  0  0  0  0  0
    9.6340   -1.3910   23.9570 O   0  0  0  0  0  0  0  0  0  0  0  0
   10.5190   -1.2300   22.8290 C   0  0  1  0  0  0  0  0  0  0  0  0
    8.0910   -3.3360   25.3500 N   0  0  0  0  0  0  0  0  0  0  0  0
    6.4080    0.4440   18.0600 N   0  0  0  0  0  0  0  0  0  0  0  0
    4.4590    1.5810   18.9420 C   0  0  0  0  0  0  0  0  0  0  0  0
    8.2160    3.4300   22.8680 C   0  0  0  0  0  0  0  0  0  0  0  0
   11.7870   -2.1570   22.9960 C   0  0  1  0  0  0  0  0  0  0  0  0
   10.8430    0.2320   22.9410 C   0  0  0  0  0  0  0  0  0  0  0  0
    8.3370   -4.4740   26.3900 S   0  0  0  0  0  0  0  0  0  0  0  0
    5.2540    1.1490   17.8900 C   0  0  0  0  0  0  0  0  0  0  0  0
    9.4310    3.2530   23.7540 C   0  0  0  0  0  0  0  0  0  0  0  0
    8.0660    4.7510   22.3600 C   0  0  0  0  0  0  0  0  0  0  0  0
   13.0050   -1.5070   22.8070 C   0  0  0  0  0  0  0  0  0  0  0  0
   12.1190    0.7320   22.9450 C   0  0  0  0  0  0  0  0  0  0  0  0
   11.9350   -2.7060   24.4440 C   0  0  0  0  0  0  0  0  0  0  0  0
    9.7630    1.9610   24.4320 C   0  0  0  0  0  0  0  0  0  0  0  0
    6.8640   -4.4070   27.2350 C   0  0  0  0  0  0  0  0  0  0  0  0
    8.4880   -5.7200   25.6880 O   0  0  0  0  0  0  0  0  0  0  0  0
    9.3590   -4.0510   27.2920 O   0  0  0  0  0  0  0  0  0  0  0  0
   10.3830    4.4400   23.9970 C   0  0  0  0  0  0  0  0  0  0  0  0
    8.9600    5.8200   22.6350 C   0  0  0  0  0  0  0  0  0  0  0  0
   13.1690   -0.1250   22.7950 C   0  0  0  0  0  0  0  0  0  0  0  0
   13.2340   -2.6330   24.9620 C   0  0  0  0  0  0  0  0  0  0  0  0
   10.0880    5.6550   23.4330 C   0  0  0  0  0  0  0  0  0  0  0  0
    5.7960   -3.5860   26.5030 C   0  0  0  0  0  0  0  0  0  0  0  0
   10.8900    6.8310   23.6150 O   0  0  0  0  0  0  0  0  0  0  0  0
    5.3860   -4.3160   25.2620 C   0  0  0  0  0  0  0  0  0  0  0  0
   11.8550    6.7670   24.6670 C   0  0  0  0  0  0  0  0  0  0  0  0
    4.5080   -5.3250   25.3300 C   0  0  0  0  0  0  0  0  0  0  0  0
    5.9270   -4.0040   23.8690 C   0  0  0  0  0  0  0  0  0  0  0  0
    5.6580   -4.6360   22.6100 C   0  0  0  0  0  0  0  0  0  0  0  0
    4.1550   -6.0100   24.2250 C   0  0  0  0  0  0  0  0  0  0  0  0
    3.2020   -7.1240   24.2790 C   0  0  0  0  0  0  0  0  0  0  0  0
    4.7270   -5.6430   22.9940 C   0  0  0  0  0  0  0  0  0  0  0  0
    3.5950   -8.1550   24.8160 O   0  0  0  0  0  0  0  0  0  0  0  0
    1.9190   -6.9800   23.7470 N   0  0  0  0  0  0  0  0  0  0  0  0
    1.4840   -5.6380   23.3440 C   0  0  0  0  0  0  0  0  0  0  0  0
    0.8710   -8.0060   23.8870 C   0  0  0  0  0  0  0  0  0  0  0  0
    0.4880   -5.0250   24.3290 C   0  0  0  0  0  0  0  0  0  0  0  0
   -0.1330   -7.6210   24.8610 C   0  0  0  0  0  0  0  0  0  0  0  0
   -0.9940   -6.0650   24.4440 S   0  0  0  0  0  0  0  0  0  0  0  0
  1  2  1  0
  2  3  2  0
  1  4  1  0
  5  1  1  1
  2  6  1  0
  4  7  1  6
  4  8  1  0
  5  9  1  0
  5 10  1  0
  6 11  1  0
  7 12  1  0
  7 13  2  0
  9 14  1  0
  8 15  2  0
  8 16  1  0
  9 17  1  0
 18 10  1  6
 18 17  1  0
 14 19  1  0
 16 20  2  0
 15 21  1  0
 12 22  1  0
 18 23  1  0
 18 24  1  0
 25 19  1  0
 20 26  1  0
 21 26  2  0
 22 27  2  0
 22 28  1  0
 23 29  1  0
 24 30  2  0
 23 31  1  1
 27 32  1  0
 25 33  1  0
 25 34  2  0
 25 35  2  0
 27 36  1  0
 28 37  2  0
 29 38  2  0
 30 38  1  0
 31 39  1  0
 36 40  2  0
 37 40  1  0
 33 41  1  0
 40 42  1  0
 41 43  1  0
 42 44  1  0
 43 45  2  0
 43 46  1  0
 46 47  2  0
 45 48  1  0
 48 49  1  0
 47 50  1  0
 48 50  2  0
 49 51  2  0
 49 52  1  0
 52 53  1  0
 52 54  1  0
 53 55  1  0
 54 56  1  0
 55 57  1  0
 56 57  1  0
M  END
