x0072-x1119-x2694
     RDKit          3D

 66 71  0  0  0  0  0  0  0  0999 V2000
    7.1110   -1.5640   21.6950 N   0  0  0  0  0  0  0  0  0  0  0  0
    6.1830   -2.7970   21.4020 C   0  0  0  0  0  0  0  0  0  0  0  0
    4.8720   -3.0050   21.1290 O   0  0  0  0  0  0  0  0  0  0  0  0
    6.6920   -0.0640   21.6080 C   0  0  1  0  0  0  0  0  0  0  0  0
    8.4470   -1.8530   22.2420 C   0  0  2  0  0  0  0  0  0  0  0  0
    6.8850   -4.1510   21.4770 C   0  0  0  0  0  0  0  0  0  0  0  0
    7.6880    1.0250   21.7210 C   0  0  0  0  0  0  0  0  0  0  0  0
    6.0690    0.4290   20.3370 C   0  0  0  0  0  0  0  0  0  0  0  0
    8.4630   -2.0510   23.5940 N   0  0  0  0  0  0  0  0  0  0  0  0
    9.7060   -0.9770   22.1510 C   0  0  0  0  0  0  0  0  0  0  0  0
    6.7610   -3.7250   20.0050 C   0  0  0  0  0  0  0  0  0  0  0  0
    7.4800    2.0660   22.8080 N   0  0  0  0  0  0  0  0  0  0  0  0
    8.6340    1.2160   20.9500 O   0  0  0  0  0  0  0  0  0  0  0  0
    8.0660   -3.3750   24.0450 C   0  0  0  0  0  0  0  0  0  0  0  0
    4.9450    1.1550   20.3060 C   0  0  0  0  0  0  0  0  0  0  0  0
    6.7520    0.1190   19.0280 C   0  0  0  0  0  0  0  0  0  0  0  0
    9.9050   -2.0860   23.9890 O   0  0  0  0  0  0  0  0  0  0  0  0
   10.6740   -1.2970   23.0820 C   0  0  1  0  0  0  0  0  0  0  0  0
    7.9500   -3.3440   25.3240 N   0  0  0  0  0  0  0  0  0  0  0  0
    6.3330    0.5290   17.7750 N   0  0  0  0  0  0  0  0  0  0  0  0
    4.4300    1.6340   18.9900 C   0  0  0  0  0  0  0  0  0  0  0  0
    8.2030    3.3180   23.0020 C   0  0  0  0  0  0  0  0  0  0  0  0
   11.9330   -2.0820   22.6020 C   0  0  1  0  0  0  0  0  0  0  0  0
   11.1400   -0.1220   23.9220 C   0  0  0  0  0  0  0  0  0  0  0  0
    8.2690   -4.7160   26.2840 S   0  0  0  0  0  0  0  0  0  0  0  0
    5.2140    1.2690   17.7440 C   0  0  0  0  0  0  0  0  0  0  0  0
    9.3910    3.2650   23.7690 C   0  0  0  0  0  0  0  0  0  0  0  0
    7.8560    4.5910   22.5130 C   0  0  0  0  0  0  0  0  0  0  0  0
   13.0620   -1.2230   22.0560 C   0  0  0  0  0  0  0  0  0  0  0  0
   12.3260    0.5350   23.7430 C   0  0  0  0  0  0  0  0  0  0  0  0
   12.5350   -2.8980   23.7340 C   0  0  0  0  0  0  0  0  0  0  0  0
    9.7390    2.0100   24.2660 C   0  0  0  0  0  0  0  0  0  0  0  0
    6.6710   -5.3940   26.6790 C   0  0  0  0  0  0  0  0  0  0  0  0
    9.0380   -5.8240   25.7820 O   0  0  0  0  0  0  0  0  0  0  0  0
    8.7260   -4.1530   27.5210 O   0  0  0  0  0  0  0  0  0  0  0  0
   10.1610    4.4030   24.0120 C   0  0  0  0  0  0  0  0  0  0  0  0
    8.6550    5.7000   22.7930 C   0  0  0  0  0  0  0  0  0  0  0  0
   13.3010    0.1610   22.6780 C   0  0  0  0  0  0  0  0  0  0  0  0
   13.0940   -1.9860   24.8950 C   0  0  0  0  0  0  0  0  0  0  0  0
    9.8210    5.6520   23.5450 C   0  0  0  0  0  0  0  0  0  0  0  0
   10.5370    6.7970   23.7690 O   0  0  0  0  0  0  0  0  0  0  0  0
   11.9440    6.5960   23.8530 C   0  0  0  0  0  0  0  0  0  0  0  0
   12.3150    5.7340   22.6220 C   0  0  0  0  0  0  0  0  0  0  0  0
   13.6440    5.8260   22.2600 C   0  0  0  0  0  0  0  0  0  0  0  0
   14.4450    4.6530   22.8470 C   0  0  0  0  0  0  0  0  0  0  0  0
   15.9500    4.5410   22.4980 C   0  0  0  0  0  0  0  0  0  0  0  0
   17.0880    4.9330   23.5230 C   0  0  0  0  0  0  0  0  0  0  0  0
   18.6350    5.1130   23.2160 C   0  0  0  0  0  0  0  0  0  0  0  0
   19.1800    6.6140   23.4780 C   0  0  0  0  0  0  0  0  0  0  0  0
   20.4330    6.9670   23.0950 N   0  0  0  0  0  0  0  0  0  0  0  0
   21.3440    6.0210   23.6400 C   0  0  0  0  0  0  0  0  0  0  0  0
   22.5370    5.5680   22.7770 C   0  0  0  0  0  0  0  0  0  0  0  0
   21.1050    5.5380   24.9050 C   0  0  0  0  0  0  0  0  0  0  0  0
   23.3590    4.6070   23.3400 C   0  0  0  0  0  0  0  0  0  0  0  0
   22.0380    4.5240   25.3950 C   0  0  0  0  0  0  0  0  0  0  0  0
   23.1000    4.0920   24.6130 C   0  0  0  0  0  0  0  0  0  0  0  0
   24.0860    2.8350   25.3180 S   0  0  0  0  0  0  0  0  0  0  0  0
   23.2460    1.6770   25.2800 O   0  0  0  0  0  0  0  0  0  0  0  0
   24.2640    3.2410   26.9450 N   0  0  0  0  0  0  0  0  0  0  0  0
   25.4540    2.6330   24.5520 O   0  0  0  0  0  0  0  0  0  0  0  0
   25.0330    4.3440   27.3090 C   0  0  0  0  0  0  0  0  0  0  0  0
   25.0670    4.6470   28.6140 N   0  0  0  0  0  0  0  0  0  0  0  0
   25.7160    5.0680   26.3440 C   0  0  0  0  0  0  0  0  0  0  0  0
   25.8940    5.8320   29.0300 C   0  0  0  0  0  0  0  0  0  0  0  0
   26.4830    6.1620   26.7020 C   0  0  0  0  0  0  0  0  0  0  0  0
   26.5740    6.5430   28.0380 C   0  0  0  0  0  0  0  0  0  0  0  0
  1  2  1  0
  2  3  2  0
  1  4  1  0
  5  1  1  1
  2  6  1  0
  4  7  1  6
  4  8  1  0
  5  9  1  0
  5 10  1  0
  6 11  1  0
  7 12  1  0
  7 13  2  0
  9 14  1  0
  8 15  2  0
  8 16  1  0
  9 17  1  0
 18 10  1  6
 18 17  1  0
 14 19  1  0
 16 20  2  0
 15 21  1  0
 12 22  1  0
 18 23  1  0
 18 24  1  0
 25 19  1  0
 20 26  1  0
 21 26  2  0
 22 27  2  0
 22 28  1  0
 23 29  1  0
 24 30  2  0
 23 31  1  1
 27 32  1  0
 25 33  1  0
 25 34  2  0
 25 35  2  0
 27 36  1  0
 28 37  2  0
 29 38  2  0
 30 38  1  0
 31 39  1  0
 36 40  2  0
 37 40  1  0
 40 41  1  0
 41 42  1  0
 42 43  1  0
 43 44  1  0
 44 45  1  0
 45 46  1  0
 46 47  1  0
 47 48  1  0
 48 49  1  0
 49 50  1  0
 50 51  1  0
 51 52  2  0
 51 53  1  0
 52 54  1  0
 53 55  2  0
 54 56  2  0
 55 56  1  0
 56 57  1  0
 57 58  2  0
 57 59  1  0
 57 60  2  0
 59 61  1  0
 61 62  2  0
 61 63  1  0
 62 64  1  0
 63 65  2  0
 64 66  2  0
 65 66  1  0
M  END
