x0072-x2694-x0426
     RDKit          3D

 54 58  0  0  0  0  0  0  0  0999 V2000
    7.0420   -1.4970   21.7630 N   0  0  0  0  0  0  0  0  0  0  0  0
    6.1200   -2.7240   21.5130 C   0  0  0  0  0  0  0  0  0  0  0  0
    4.8110   -2.9660   21.2100 O   0  0  0  0  0  0  0  0  0  0  0  0
    6.6550   -0.1050   21.6660 C   0  0  1  0  0  0  0  0  0  0  0  0
    8.4470   -1.8480   22.1800 C   0  0  2  0  0  0  0  0  0  0  0  0
    6.7880   -4.0680   21.6040 C   0  0  0  0  0  0  0  0  0  0  0  0
    7.6650    1.1050   21.8210 C   0  0  0  0  0  0  0  0  0  0  0  0
    6.0870    0.2900   20.3290 C   0  0  0  0  0  0  0  0  0  0  0  0
    8.5660   -2.0620   23.6670 N   0  0  0  0  0  0  0  0  0  0  0  0
    9.5650   -0.9910   22.0560 C   0  0  0  0  0  0  0  0  0  0  0  0
    6.6870   -4.6780   20.2470 C   0  0  0  0  0  0  0  0  0  0  0  0
    7.4990    2.1760   22.8730 N   0  0  0  0  0  0  0  0  0  0  0  0
    8.5850    1.2490   21.0070 O   0  0  0  0  0  0  0  0  0  0  0  0
    8.0870   -3.3560   24.1290 C   0  0  0  0  0  0  0  0  0  0  0  0
    4.7190    0.9550   20.1870 C   0  0  0  0  0  0  0  0  0  0  0  0
    6.9400    0.0420   19.0300 C   0  0  0  0  0  0  0  0  0  0  0  0
    9.9130   -2.1300   23.9970 O   0  0  0  0  0  0  0  0  0  0  0  0
   10.6600   -1.3280   23.0850 C   0  0  1  0  0  0  0  0  0  0  0  0
    3.7830    1.2320   21.1960 C   0  0  0  0  0  0  0  0  0  0  0  0
    7.8230   -3.3970   25.5590 N   0  0  0  0  0  0  0  0  0  0  0  0
    6.3220    0.5360   17.7900 N   0  0  0  0  0  0  0  0  0  0  0  0
    4.3160    1.3430   18.9260 C   0  0  0  0  0  0  0  0  0  0  0  0
    8.2950    3.3830   23.0210 C   0  0  0  0  0  0  0  0  0  0  0  0
   11.9620   -2.0860   22.6540 C   0  0  1  0  0  0  0  0  0  0  0  0
   11.0300   -0.1010   23.8840 C   0  0  0  0  0  0  0  0  0  0  0  0
    4.3480    2.0900   22.3790 C   0  0  0  0  0  0  0  0  0  0  0  0
    8.2500   -4.7270   26.4440 S   0  0  0  0  0  0  0  0  0  0  0  0
    5.1470    1.1190   17.7960 C   0  0  0  0  0  0  0  0  0  0  0  0
    9.5420    3.3410   23.6450 C   0  0  0  0  0  0  0  0  0  0  0  0
    7.8350    4.7400   22.5320 C   0  0  0  0  0  0  0  0  0  0  0  0
   12.9850   -1.2790   22.1710 C   0  0  0  0  0  0  0  0  0  0  0  0
   12.3360    0.5900   23.6600 C   0  0  0  0  0  0  0  0  0  0  0  0
   12.5380   -2.8690   23.8380 C   0  0  0  0  0  0  0  0  0  0  0  0
   10.0220    2.1230   24.1150 C   0  0  0  0  0  0  0  0  0  0  0  0
    3.4660    2.6430   23.2520 N   0  0  0  0  0  0  0  0  0  0  0  0
    6.7290   -5.4090   26.7980 C   0  0  0  0  0  0  0  0  0  0  0  0
    8.9860   -5.6520   25.6270 O   0  0  0  0  0  0  0  0  0  0  0  0
    8.7820   -4.2280   27.6780 O   0  0  0  0  0  0  0  0  0  0  0  0
   10.3800    4.4440   23.8500 C   0  0  0  0  0  0  0  0  0  0  0  0
    8.7150    5.9760   22.7410 C   0  0  0  0  0  0  0  0  0  0  0  0
   13.2180   -0.0160   22.6250 C   0  0  0  0  0  0  0  0  0  0  0  0
   13.0440   -2.0850   24.8410 C   0  0  0  0  0  0  0  0  0  0  0  0
    2.3720    1.8320   23.8220 C   0  0  0  0  0  0  0  0  0  0  0  0
    9.9810    5.8500   23.3980 C   0  0  0  0  0  0  0  0  0  0  0  0
   10.9410    6.8830   23.6970 O   0  0  0  0  0  0  0  0  0  0  0  0
    2.3080    0.4040   23.7440 O   0  0  0  0  0  0  0  0  0  0  0  0
    1.2530    2.5970   24.5420 C   0  0  0  0  0  0  0  0  0  0  0  0
   11.8440    6.6420   24.7780 C   0  0  0  0  0  0  0  0  0  0  0  0
    1.5330    3.9260   25.2840 C   0  0  0  0  0  0  0  0  0  0  0  0
   -0.0330    2.0350   24.4980 C   0  0  0  0  0  0  0  0  0  0  0  0
    2.7700    4.4400   25.3100 F   0  0  0  0  0  0  0  0  0  0  0  0
   -1.1860    2.7590   25.2050 C   0  0  0  0  0  0  0  0  0  0  0  0
    0.5180    4.6310   25.9460 C   0  0  0  0  0  0  0  0  0  0  0  0
   -0.8840    4.0520   25.9200 C   0  0  0  0  0  0  0  0  0  0  0  0
  1  2  1  0
  2  3  2  0
  1  4  1  0
  5  1  1  1
  2  6  1  0
  4  7  1  6
  4  8  1  0
  5  9  1  0
  5 10  1  0
  6 11  1  0
  7 12  1  0
  7 13  2  0
  9 14  1  0
  8 15  1  0
  8 16  2  0
  9 17  1  0
 18 10  1  6
 18 17  1  0
 15 19  1  0
 14 20  1  0
 16 21  1  0
 15 22  2  0
 12 23  1  0
 18 24  1  0
 18 25  1  0
 19 26  1  0
 27 20  1  0
 21 28  2  0
 22 28  1  0
 23 29  2  0
 23 30  1  0
 24 31  1  0
 25 32  2  0
 24 33  1  1
 29 34  1  0
 26 35  1  0
 27 36  1  0
 27 37  2  0
 27 38  2  0
 29 39  1  0
 30 40  2  0
 31 41  2  0
 32 41  1  0
 33 42  1  0
 35 43  1  0
 39 44  2  0
 40 44  1  0
 44 45  1  0
 43 46  2  0
 43 47  1  0
 45 48  1  0
 47 49  2  0
 47 50  1  0
 49 51  1  0
 50 52  2  0
 49 53  1  0
 52 54  1  0
 53 54  2  0
M  END
