x0072-x1348-x3110-x0995
     RDKit          3D

 54 60  0  0  0  0  0  0  0  0999 V2000
    7.9590    1.7700   23.3290 N   0  0  0  0  0  0  0  0  0  0  0  0
    8.7720    2.8470   23.8510 C   0  0  0  0  0  0  0  0  0  0  0  0
   10.2690    2.4650   23.8040 C   0  0  0  0  0  0  0  0  0  0  0  0
    7.9430    1.3030   21.9650 C   0  0  0  0  0  0  0  0  0  0  0  0
    8.7840    1.8410   20.9680 O   0  0  0  0  0  0  0  0  0  0  0  0
    6.9110    0.2030   21.7390 C   0  0  2  0  0  0  0  0  0  0  0  0
    7.3000   -1.1960   21.6340 N   0  0  0  0  0  0  0  0  0  0  0  0
   11.1380    3.6460   23.5580 C   0  0  0  0  0  0  0  0  0  0  0  0
    6.2560    0.6010   20.4390 C   0  0  0  0  0  0  0  0  0  0  0  0
   11.9670    3.4040   22.4470 O   0  0  0  0  0  0  0  0  0  0  0  0
   11.1210    4.8270   24.3400 O   0  0  0  0  0  0  0  0  0  0  0  0
    6.2520   -2.1970   21.7630 C   0  0  0  0  0  0  0  0  0  0  0  0
    5.1080    1.3470   20.3210 C   0  0  0  0  0  0  0  0  0  0  0  0
    6.8890    0.1640   19.1470 C   0  0  0  0  0  0  0  0  0  0  0  0
    8.6780   -1.6000   21.9030 C   0  0  1  0  0  0  0  0  0  0  0  0
   12.4460    4.6100   21.8580 C   0  0  0  0  0  0  0  0  0  0  0  0
    6.6070   -3.4290   21.5620 N   0  0  0  0  0  0  0  0  0  0  0  0
    6.3600    0.5070   17.8200 N   0  0  0  0  0  0  0  0  0  0  0  0
    4.5510    1.7010   18.9670 C   0  0  0  0  0  0  0  0  0  0  0  0
    9.8060   -0.8970   21.5190 C   0  0  0  0  0  0  0  0  0  0  0  0
    8.9570   -1.9950   23.3380 C   0  0  1  0  0  0  0  0  0  0  0  0
   13.4640    5.2590   22.8210 C   0  0  0  0  0  0  0  0  0  0  0  0
    3.3290    2.4970   18.9560 N   0  0  0  0  0  0  0  0  0  0  0  0
    6.3290   -3.7390   20.2320 C   0  0  0  0  0  0  0  0  0  0  0  0
    8.9660   -3.4820   23.4280 C   0  0  0  0  0  0  0  0  0  0  0  0
    5.2590    1.2360   17.7380 C   0  0  0  0  0  0  0  0  0  0  0  0
   10.3840   -0.6420   22.6410 C   0  0  1  0  0  0  0  0  0  0  0  0
   10.2220   -1.5080   23.6120 C   0  0  1  0  0  0  0  0  0  0  0  0
    6.1970   -4.2930   22.6720 C   0  0  2  0  0  0  0  0  0  0  0  0
    5.3920   -4.4530   19.8820 O   0  0  0  0  0  0  0  0  0  0  0  0
    7.2520   -3.1420   19.1740 C   0  0  0  0  0  0  0  0  0  0  0  0
    7.9660   -3.8950   24.3580 N   0  0  0  0  0  0  0  0  0  0  0  0
    6.9200   -4.6880   23.7810 N   0  0  0  0  0  0  0  0  0  0  0  0
    5.0570   -5.5760   22.2880 S   0  0  0  0  0  0  0  0  0  0  0  0
   11.8560   -0.5050   22.4100 C   0  0  0  0  0  0  0  0  0  0  0  0
   10.4890   -0.6760   24.8520 C   0  0  0  0  0  0  0  0  0  0  0  0
    8.7110   -4.2080   25.7830 S   0  0  0  0  0  0  0  0  0  0  0  0
    5.7860   -5.2090   24.5920 C   0  0  1  0  0  0  0  0  0  0  0  0
    5.3340   -6.2670   23.7950 C   0  0  1  0  0  0  0  0  0  0  0  0
   12.4800   -0.6870   23.5930 C   0  0  1  0  0  0  0  0  0  0  0  0
   11.7680   -0.1600   24.6650 C   0  0  2  0  0  0  0  0  0  0  0  0
   12.7850   -2.1860   23.9960 C   0  0  0  0  0  0  0  0  0  0  0  0
   12.7460   -0.5520   25.6820 C   0  0  0  0  0  0  0  0  0  0  0  0
    9.0980   -5.5970   25.8130 O   0  0  0  0  0  0  0  0  0  0  0  0
    7.8680   -3.6240   26.7730 O   0  0  0  0  0  0  0  0  0  0  0  0
    5.8850   -5.4430   26.0040 C   0  0  2  0  0  0  0  0  0  0  0  0
    4.2760   -6.9840   24.2970 C   0  0  0  0  0  0  0  0  0  0  0  0
   13.7390   -2.6450   23.0240 C   0  0  0  0  0  0  0  0  0  0  0  0
   11.9060   -3.2210   24.7140 C   0  0  0  0  0  0  0  0  0  0  0  0
    7.2100   -5.8640   26.3660 O   0  0  0  0  0  0  0  0  0  0  0  0
    4.0300   -7.0910   25.6500 C   0  0  0  0  0  0  0  0  0  0  0  0
    4.9910   -6.3760   26.5990 C   0  0  0  0  0  0  0  0  0  0  0  0
   13.1560   -1.5700   25.1480 C   0  0  0  0  0  0  0  0  0  0  0  0
    7.4980   -5.7050   27.7860 C   0  0  0  0  0  0  0  0  0  0  0  0
  1  2  1  0
  2  3  1  0
  1  4  1  0
  4  5  2  0
  6  4  1  6
  6  7  1  0
  3  8  1  0
  6  9  1  0
  8 10  1  0
  8 11  2  0
  7 12  1  0
  9 13  2  0
  9 14  1  0
  7 15  1  0
 10 16  1  0
 12 17  1  0
 14 18  2  0
 13 19  1  0
 15 20  1  1
 15 21  1  0
 16 22  1  0
 19 23  1  0
 17 24  1  0
 21 25  1  6
 18 26  1  0
 19 26  2  0
 27 20  1  6
 21 28  1  0
 27 28  1  0
 17 29  1  0
 24 30  2  0
 24 31  1  0
 25 32  1  0
 29 33  1  0
 32 33  1  0
 29 34  1  6
 27 35  1  0
 28 36  1  1
 32 37  1  0
 38 33  1  6
 34 39  1  0
 38 39  1  0
 40 35  1  6
 41 36  1  1
 40 41  1  0
 40 42  1  0
 41 43  1  0
 37 44  2  0
 37 45  2  0
 38 46  1  0
 39 47  1  1
 42 48  1  0
 42 49  1  0
 46 50  1  6
 47 51  2  0
 46 52  1  0
 51 52  1  0
 42 53  1  0
 43 53  2  0
 50 54  1  0
M  END
