x0072-x1308
     RDKit          3D

 30 33  0  0  0  0  0  0  0  0999 V2000
    8.0700   -3.9480   20.6320 C   0  0  0  0  0  0  0  0  0  0  0  0
    6.6470   -4.5480   20.7760 C   0  0  0  0  0  0  0  0  0  0  0  0
    5.6580   -4.4490   19.9960 O   0  0  0  0  0  0  0  0  0  0  0  0
    6.7580   -5.3290   21.9490 N   0  0  0  0  0  0  0  0  0  0  0  0
    7.0790   -5.1390   23.3580 C   0  0  1  0  0  0  0  0  0  0  0  0
    5.9210   -6.4150   22.0190 C   0  0  0  0  0  0  0  0  0  0  0  0
    7.8460   -4.0280   24.0670 N   0  0  0  0  0  0  0  0  0  0  0  0
    5.7280   -5.2370   23.8870 N   0  0  0  0  0  0  0  0  0  0  0  0
    5.0590   -6.2360   23.1180 C   0  0  0  0  0  0  0  0  0  0  0  0
    5.4080   -5.2870   25.5140 S   0  0  2  0  0  0  0  0  0  0  0  0
    8.1210   -4.5550   25.7260 S   0  0  0  0  0  0  0  0  0  0  0  0
    9.0440   -3.4610   23.5760 C   0  0  0  0  0  0  0  0  0  0  0  0
    6.7460   -4.7630   26.3850 N   0  0  0  0  0  0  0  0  0  0  0  0
    4.9710   -6.6110   25.9120 O   0  0  0  0  0  0  0  0  0  0  0  0
    9.0220   -5.8550   25.5670 O   0  0  0  0  0  0  0  0  0  0  0  0
    9.0030   -3.3890   26.3410 O   0  0  0  0  0  0  0  0  0  0  0  0
    9.0590   -2.0220   23.3810 C   0  0  0  0  0  0  0  0  0  0  0  0
    4.1200   -4.2020   25.8260 C   0  0  0  0  0  0  0  0  0  0  0  0
    4.3300   -2.9410   26.2810 C   0  0  0  0  0  0  0  0  0  0  0  0
    2.8710   -4.5330   25.6350 C   0  0  0  0  0  0  0  0  0  0  0  0
   10.4240   -1.3810   23.2640 C   0  0  0  0  0  0  0  0  0  0  0  0
    3.1700   -1.9740   26.5530 C   0  0  0  0  0  0  0  0  0  0  0  0
    1.7680   -3.7300   25.8530 C   0  0  0  0  0  0  0  0  0  0  0  0
   11.3850   -1.9290   22.4050 C   0  0  0  0  0  0  0  0  0  0  0  0
   10.7100   -0.2320   24.0190 C   0  0  0  0  0  0  0  0  0  0  0  0
    1.6410   -2.2480   26.3680 C   0  0  0  0  0  0  0  0  0  0  0  0
   12.7820   -1.3300   22.2270 C   0  0  0  0  0  0  0  0  0  0  0  0
   12.0770    0.4150   23.8840 C   0  0  0  0  0  0  0  0  0  0  0  0
    0.2750   -1.2490   26.6460 Cl  0  0  0  0  0  0  0  0  0  0  0  0
   13.1020   -0.1860   22.9520 C   0  0  0  0  0  0  0  0  0  0  0  0
  1  2  1  0
  2  3  2  0
  2  4  1  0
  5  4  1  6
  4  6  1  0
  5  7  1  0
  5  8  1  0
  6  9  1  0
  8  9  1  0
  8 10  1  0
  7 11  1  0
  7 12  1  0
 10 13  2  0
 11 13  1  0
 10 14  2  0
 11 15  2  0
 11 16  2  0
 12 17  1  0
 10 18  1  6
 18 19  2  0
 18 20  1  0
 17 21  1  0
 19 22  1  0
 20 23  2  0
 21 24  2  0
 21 25  1  0
 22 26  2  0
 23 26  1  0
 24 27  1  0
 25 28  2  0
 26 29  1  0
 27 30  2  0
 28 30  1  0
M  END
