x0072-x2694-x1348
     RDKit          3D

 50 56  0  0  0  0  0  0  0  0999 V2000
    6.9730   -1.3760   21.8670 N   0  0  0  0  0  0  0  0  0  0  0  0
    6.1990   -2.6500   21.3240 C   0  0  0  0  0  0  0  0  0  0  0  0
    4.8580   -3.0260   21.2490 O   0  0  0  0  0  0  0  0  0  0  0  0
    6.5780    0.0840   21.5950 C   0  0  1  0  0  0  0  0  0  0  0  0
    8.2700   -1.3300   22.6040 C   0  0  1  0  0  0  0  0  0  0  0  0
    6.9820   -3.7010   20.7810 C   0  0  0  0  0  0  0  0  0  0  0  0
    7.6310    1.2670   21.7930 C   0  0  0  0  0  0  0  0  0  0  0  0
    6.0470    0.4670   20.2910 C   0  0  0  0  0  0  0  0  0  0  0  0
    8.4060   -1.9120   23.8640 N   0  0  0  0  0  0  0  0  0  0  0  0
    9.5480   -1.3270   22.0230 C   0  0  0  0  0  0  0  0  0  0  0  0
    7.3190   -3.3010   19.3660 C   0  0  0  0  0  0  0  0  0  0  0  0
    7.2610    2.2710   22.8550 N   0  0  0  0  0  0  0  0  0  0  0  0
    8.6450    1.3510   21.0840 O   0  0  0  0  0  0  0  0  0  0  0  0
    8.6570   -3.2130   24.0230 C   0  0  0  0  0  0  0  0  0  0  0  0
    4.8210    1.1980   20.3410 C   0  0  0  0  0  0  0  0  0  0  0  0
    6.8180    0.0850   19.1720 C   0  0  0  0  0  0  0  0  0  0  0  0
    9.6580   -1.3250   24.2990 O   0  0  0  0  0  0  0  0  0  0  0  0
   10.4580   -1.2000   23.0910 C   0  0  1  0  0  0  0  0  0  0  0  0
    7.6380   -3.8110   24.6010 N   0  0  0  0  0  0  0  0  0  0  0  0
    6.4230    0.4260   17.9370 N   0  0  0  0  0  0  0  0  0  0  0  0
    4.5110    1.5090   18.8880 C   0  0  0  0  0  0  0  0  0  0  0  0
    7.7160    3.5460   23.0960 C   0  0  0  0  0  0  0  0  0  0  0  0
   11.6610   -2.0720   23.0170 C   0  0  1  0  0  0  0  0  0  0  0  0
   10.8390    0.2480   23.3530 C   0  0  0  0  0  0  0  0  0  0  0  0
    7.6500   -4.6060   25.8530 C   0  0  2  0  0  0  0  0  0  0  0  0
    5.2670    1.1440   17.8130 C   0  0  0  0  0  0  0  0  0  0  0  0
    7.7180    3.9700   24.4220 C   0  0  0  0  0  0  0  0  0  0  0  0
    8.1710    4.4680   22.1570 C   0  0  0  0  0  0  0  0  0  0  0  0
    6.7380   -4.4280   23.6970 N   0  0  0  0  0  0  0  0  0  0  0  0
   12.8850   -1.4250   22.7220 C   0  0  0  0  0  0  0  0  0  0  0  0
   12.0840    0.7730   23.2580 C   0  0  0  0  0  0  0  0  0  0  0  0
   11.8610   -2.8140   24.3620 C   0  0  0  0  0  0  0  0  0  0  0  0
    7.2590    3.0120   25.4870 C   0  0  0  0  0  0  0  0  0  0  0  0
    7.4760   -4.0080   27.0870 C   0  0  0  0  0  0  0  0  0  0  0  0
    8.7200   -5.4380   26.0210 O   0  0  0  0  0  0  0  0  0  0  0  0
    8.1510    5.2580   24.8150 C   0  0  0  0  0  0  0  0  0  0  0  0
    8.6230    5.7610   22.5330 C   0  0  0  0  0  0  0  0  0  0  0  0
    6.4650   -5.5650   25.5320 C   0  0  2  0  0  0  0  0  0  0  0  0
    5.7100   -4.9280   24.6090 C   0  0  2  0  0  0  0  0  0  0  0  0
    7.0900   -5.3170   22.7390 C   0  0  0  0  0  0  0  0  0  0  0  0
   13.0050   -0.1060   22.8660 C   0  0  0  0  0  0  0  0  0  0  0  0
   13.3080   -2.7190   24.8480 C   0  0  0  0  0  0  0  0  0  0  0  0
    8.6060    6.1230   23.8450 C   0  0  0  0  0  0  0  0  0  0  0  0
    4.6940   -5.8240   23.8940 C   0  0  1  0  0  0  0  0  0  0  0  0
    5.6720   -6.1150   26.5520 C   0  0  0  0  0  0  0  0  0  0  0  0
    5.8060   -6.4290   22.5870 S   0  0  0  0  0  0  0  0  0  0  0  0
    9.0520    7.3900   24.2150 O   0  0  0  0  0  0  0  0  0  0  0  0
    4.0660   -6.6870   24.7970 C   0  0  0  0  0  0  0  0  0  0  0  0
    4.5420   -6.8330   26.1040 C   0  0  0  0  0  0  0  0  0  0  0  0
   10.3680    7.6960   24.7190 C   0  0  0  0  0  0  0  0  0  0  0  0
  1  2  1  0
  2  3  2  0
  1  4  1  0
  5  1  1  6
  2  6  1  0
  4  7  1  6
  4  8  1  0
  5  9  1  0
  5 10  1  0
  6 11  1  0
  7 12  1  0
  7 13  2  0
  9 14  1  0
  8 15  2  0
  8 16  1  0
  9 17  1  0
 18 10  1  6
 18 17  1  0
 14 19  1  0
 16 20  2  0
 15 21  1  0
 12 22  1  0
 18 23  1  0
 18 24  1  0
 19 25  1  0
 20 26  1  0
 21 26  2  0
 22 27  2  0
 22 28  1  0
 19 29  1  0
 23 30  1  0
 24 31  2  0
 23 32  1  1
 27 33  1  0
 25 34  1  1
 25 35  1  0
 27 36  1  0
 28 37  2  0
 25 38  1  0
 39 29  1  6
 38 39  1  0
 29 40  1  0
 30 41  2  0
 31 41  1  0
 32 42  1  0
 36 43  2  0
 37 43  1  0
 39 44  1  0
 38 45  1  1
 40 46  2  0
 44 46  1  0
 43 47  1  0
 44 48  1  1
 45 49  1  0
 48 49  2  0
 47 50  1  0
M  END
