x0072-x2694-x0540
     RDKit          3D

 54 58  0  0  0  0  0  0  0  0999 V2000
    7.1380   -1.5250   21.7630 N   0  0  0  0  0  0  0  0  0  0  0  0
    6.1680   -2.7420   21.5120 C   0  0  0  0  0  0  0  0  0  0  0  0
    4.8450   -2.9890   21.1930 O   0  0  0  0  0  0  0  0  0  0  0  0
    6.8580   -0.1090   21.5610 C   0  0  1  0  0  0  0  0  0  0  0  0
    8.5180   -1.8720   22.2760 C   0  0  2  0  0  0  0  0  0  0  0  0
    6.8260   -4.0910   21.6340 C   0  0  0  0  0  0  0  0  0  0  0  0
    7.8950    1.0720   21.7530 C   0  0  0  0  0  0  0  0  0  0  0  0
    6.1790    0.2760   20.2750 C   0  0  0  0  0  0  0  0  0  0  0  0
    8.5250   -2.0870   23.7370 N   0  0  0  0  0  0  0  0  0  0  0  0
    9.6430   -0.9900   22.2510 C   0  0  0  0  0  0  0  0  0  0  0  0
    6.7070   -4.7610   20.2790 C   0  0  0  0  0  0  0  0  0  0  0  0
    7.6350    2.1100   22.7900 N   0  0  0  0  0  0  0  0  0  0  0  0
    8.8880    1.2610   21.0550 O   0  0  0  0  0  0  0  0  0  0  0  0
    8.0750   -3.4040   24.1430 C   0  0  0  0  0  0  0  0  0  0  0  0
    4.8510    0.9470   20.2080 C   0  0  0  0  0  0  0  0  0  0  0  0
    6.8280    0.0230   19.0830 C   0  0  0  0  0  0  0  0  0  0  0  0
    9.9470   -2.2020   24.0860 O   0  0  0  0  0  0  0  0  0  0  0  0
   10.6530   -1.3580   23.1900 C   0  0  1  0  0  0  0  0  0  0  0  0
    4.1070    1.2470   21.3780 C   0  0  0  0  0  0  0  0  0  0  0  0
    7.9000   -3.3380   25.4720 N   0  0  0  0  0  0  0  0  0  0  0  0
    6.3410    0.3620   17.8710 N   0  0  0  0  0  0  0  0  0  0  0  0
    4.3970    1.2730   18.9590 C   0  0  0  0  0  0  0  0  0  0  0  0
    8.4010    3.3910   22.9960 C   0  0  0  0  0  0  0  0  0  0  0  0
   11.9480   -2.0720   22.6750 C   0  0  1  0  0  0  0  0  0  0  0  0
   11.0850   -0.2230   24.1010 C   0  0  0  0  0  0  0  0  0  0  0  0
    4.6090    2.4440   21.9180 C   0  0  0  0  0  0  0  0  0  0  0  0
    8.2780   -4.6710   26.4630 S   0  0  0  0  0  0  0  0  0  0  0  0
    5.1530    0.9790   17.8400 C   0  0  0  0  0  0  0  0  0  0  0  0
    9.6210    3.3230   23.6330 C   0  0  0  0  0  0  0  0  0  0  0  0
    7.9680    4.6470   22.5940 C   0  0  0  0  0  0  0  0  0  0  0  0
   12.8960   -1.1650   22.2430 C   0  0  0  0  0  0  0  0  0  0  0  0
   12.2480    0.4180   23.8830 C   0  0  0  0  0  0  0  0  0  0  0  0
   12.6030   -2.9080   23.7830 C   0  0  0  0  0  0  0  0  0  0  0  0
   10.1530    2.1140   24.0760 C   0  0  0  0  0  0  0  0  0  0  0  0
    4.2100    2.7220   23.2810 N   0  0  0  0  0  0  0  0  0  0  0  0
    6.6820   -5.3700   26.7370 C   0  0  0  0  0  0  0  0  0  0  0  0
    9.0530   -5.6150   25.6890 O   0  0  0  0  0  0  0  0  0  0  0  0
    8.7640   -4.1720   27.7200 O   0  0  0  0  0  0  0  0  0  0  0  0
   10.4180    4.4540   23.8820 C   0  0  0  0  0  0  0  0  0  0  0  0
    8.7340    5.8110   22.8300 C   0  0  0  0  0  0  0  0  0  0  0  0
   13.0560    0.0570   22.8400 C   0  0  0  0  0  0  0  0  0  0  0  0
   13.1070   -2.1840   24.8510 C   0  0  0  0  0  0  0  0  0  0  0  0
    2.8440    2.4410   23.7210 C   0  0  0  0  0  0  0  0  0  0  0  0
    9.9780    5.7150   23.4870 C   0  0  0  0  0  0  0  0  0  0  0  0
   10.8350    6.7550   23.7920 O   0  0  0  0  0  0  0  0  0  0  0  0
    2.6560    1.3790   24.6630 O   0  0  0  0  0  0  0  0  0  0  0  0
    1.7900    3.1550   23.2850 N   0  0  0  0  0  0  0  0  0  0  0  0
   11.8050    6.5630   24.8320 C   0  0  0  0  0  0  0  0  0  0  0  0
    0.6610    3.2520   24.0140 C   0  0  0  0  0  0  0  0  0  0  0  0
    0.5900    4.5900   24.4740 C   0  0  0  0  0  0  0  0  0  0  0  0
   -0.4600    2.8200   23.2970 C   0  0  0  0  0  0  0  0  0  0  0  0
   -0.6400    4.9550   25.0360 C   0  0  0  0  0  0  0  0  0  0  0  0
   -1.7010    3.3320   23.7030 C   0  0  0  0  0  0  0  0  0  0  0  0
   -1.7540    4.6130   24.2650 C   0  0  0  0  0  0  0  0  0  0  0  0
  1  2  1  0
  2  3  2  0
  1  4  1  0
  5  1  1  1
  2  6  1  0
  4  7  1  6
  4  8  1  0
  5  9  1  0
  5 10  1  0
  6 11  1  0
  7 12  1  0
  7 13  2  0
  9 14  1  0
  8 15  1  0
  8 16  2  0
  9 17  1  0
 18 10  1  6
 18 17  1  0
 15 19  1  0
 14 20  1  0
 16 21  1  0
 15 22  2  0
 12 23  1  0
 18 24  1  0
 18 25  1  0
 19 26  1  0
 27 20  1  0
 21 28  2  0
 22 28  1  0
 23 29  2  0
 23 30  1  0
 24 31  1  0
 25 32  2  0
 24 33  1  1
 29 34  1  0
 26 35  1  0
 27 36  1  0
 27 37  2  0
 27 38  2  0
 29 39  1  0
 30 40  2  0
 31 41  2  0
 32 41  1  0
 33 42  1  0
 35 43  1  0
 39 44  2  0
 40 44  1  0
 44 45  1  0
 43 46  2  0
 43 47  1  0
 45 48  1  0
 47 49  1  0
 49 50  1  0
 49 51  1  0
 50 52  1  0
 51 53  1  0
 52 54  1  0
 53 54  1  0
M  END
