x0072-x1119-x0786-x3110-x0426-x0946
     RDKit          3D

 98107  0  0  0  0  0  0  0  0999 V2000
    8.1510    1.4100   23.3660 N   0  0  0  0  0  0  0  0  0  0  0  0
    8.7980    2.7230   23.6360 C   0  0  0  0  0  0  0  0  0  0  0  0
   10.3110    2.8100   23.3300 C   0  0  0  0  0  0  0  0  0  0  0  0
    7.8770    1.0710   21.9450 C   0  0  0  0  0  0  0  0  0  0  0  0
    8.7270    1.6120   20.9220 O   0  0  0  0  0  0  0  0  0  0  0  0
    6.7510    0.2640   21.5860 C   0  0  2  0  0  0  0  0  0  0  0  0
    6.9610   -1.1880   21.4480 N   0  0  0  0  0  0  0  0  0  0  0  0
    6.1180    0.6650   20.2850 C   0  0  0  0  0  0  0  0  0  0  0  0
   11.1540    3.9570   23.3250 C   0  0  0  0  0  0  0  0  0  0  0  0
   11.0920    1.7750   22.9920 C   0  0  0  0  0  0  0  0  0  0  0  0
   10.5000    5.3100   23.7110 C   0  0  0  0  0  0  0  0  0  0  0  0
    5.7120   -1.9480   21.5100 C   0  0  0  0  0  0  0  0  0  0  0  0
    4.8560    1.2410   20.1750 C   0  0  0  0  0  0  0  0  0  0  0  0
    6.8380    0.4370   19.1330 C   0  0  0  0  0  0  0  0  0  0  0  0
    7.9990   -1.8680   22.1560 C   0  0  1  0  0  0  0  0  0  0  0  0
   12.3360    1.4380   22.6570 C   0  0  0  0  0  0  0  0  0  0  0  0
   12.5620    3.7820   22.9530 C   0  0  0  0  0  0  0  0  0  0  0  0
   13.6480    4.8760   22.8300 C   0  0  2  0  0  0  0  0  0  0  0  0
    3.9830    1.4730   21.3020 C   0  0  0  0  0  0  0  0  0  0  0  0
    9.5090    5.7410   22.8440 N   0  0  0  0  0  0  0  0  0  0  0  0
    9.9140    5.2980   24.9680 O   0  0  0  0  0  0  0  0  0  0  0  0
   11.3070    6.2410   23.7200 O   0  0  0  0  0  0  0  0  0  0  0  0
    5.8600   -3.3920   21.8140 N   0  0  0  0  0  0  0  0  0  0  0  0
    6.4510    0.7460   17.8940 N   0  0  0  0  0  0  0  0  0  0  0  0
    4.4000    1.5980   18.9130 C   0  0  0  0  0  0  0  0  0  0  0  0
    9.3330   -1.7910   21.7120 C   0  0  0  0  0  0  0  0  0  0  0  0
    7.6720   -1.9460   23.5050 C   0  0  0  0  0  0  0  0  0  0  0  0
   13.1050    2.5350   22.6400 C   0  0  0  0  0  0  0  0  0  0  0  0
   13.0010    6.1270   22.1730 C   0  0  0  0  0  0  0  0  0  0  0  0
    4.4390    2.4010   22.4450 C   0  0  0  0  0  0  0  0  0  0  0  0
    6.0890   -4.1880   20.7140 C   0  0  0  0  0  0  0  0  0  0  0  0
   14.8790    4.5750   21.8860 C   0  0  0  0  0  0  0  0  0  0  0  0
    5.1510    1.3850   17.7640 C   0  0  0  0  0  0  0  0  0  0  0  0
   10.3400   -1.8580   22.8520 C   0  0  2  0  0  0  0  0  0  0  0  0
    8.7540   -1.7690   24.4980 C   0  0  1  0  0  0  0  0  0  0  0  0
    5.2230   -3.9030   22.9770 C   0  0  0  0  0  0  0  0  0  0  0  0
    3.3340    2.9060   23.0630 N   0  0  0  0  0  0  0  0  0  0  0  0
    7.4920   -4.6410   20.5890 C   0  0  0  0  0  0  0  0  0  0  0  0
    5.2090   -4.4840   19.9000 O   0  0  0  0  0  0  0  0  0  0  0  0
    9.1480   -3.1860   24.9490 C   0  0  0  0  0  0  0  0  0  0  0  0
   16.2870    4.2170   22.3550 C   0  0  0  0  0  0  0  0  0  0  0  0
    9.7230   -1.0360   23.9530 C   0  0  1  0  0  0  0  0  0  0  0  0
    4.6090   -5.2430   22.9550 C   0  0  0  0  0  0  0  0  0  0  0  0
    5.1650   -3.1370   24.1480 C   0  0  0  0  0  0  0  0  0  0  0  0
   11.5460   -1.1500   22.4050 C   0  0  0  0  0  0  0  0  0  0  0  0
    2.5710    2.1600   23.9120 C   0  0  0  0  0  0  0  0  0  0  0  0
    8.0650   -3.8240   25.3760 N   0  0  0  0  0  0  0  0  0  0  0  0
   17.2380    4.8270   23.4270 C   0  0  0  0  0  0  0  0  0  0  0  0
    3.9450   -5.7010   24.2020 C   0  0  0  0  0  0  0  0  0  0  0  0
    4.5450   -3.6020   25.3000 C   0  0  0  0  0  0  0  0  0  0  0  0
   12.4320   -1.0140   23.5030 C   0  0  2  0  0  0  0  0  0  0  0  0
   10.6230   -0.5440   25.0590 C   0  0  0  0  0  0  0  0  0  0  0  0
   12.8990   -2.3300   24.0910 C   0  0  0  0  0  0  0  0  0  0  0  0
    2.8090    1.0050   24.1980 O   0  0  0  0  0  0  0  0  0  0  0  0
    3.2780   -7.0040   24.2730 C   0  0  0  0  0  0  0  0  0  0  0  0
    8.2530   -4.8850   26.6270 S   0  0  0  0  0  0  0  0  0  0  0  0
   18.6400    5.0330   23.0860 C   0  0  0  0  0  0  0  0  0  0  0  0
    1.3940    2.8220   24.5600 C   0  0  0  0  0  0  0  0  0  0  0  0
    3.9120   -4.9460   25.3030 C   0  0  0  0  0  0  0  0  0  0  0  0
   12.0020   -0.2840   24.5760 C   0  0  1  0  0  0  0  0  0  0  0  0
   12.9830   -0.7550   25.5500 C   0  0  0  0  0  0  0  0  0  0  0  0
   13.7440   -2.8500   23.0850 C   0  0  0  0  0  0  0  0  0  0  0  0
   11.8990   -3.2480   24.7640 C   0  0  0  0  0  0  0  0  0  0  0  0
    3.9180   -7.9540   24.7170 O   0  0  0  0  0  0  0  0  0  0  0  0
    6.6100   -5.4990   26.8550 C   0  0  0  0  0  0  0  0  0  0  0  0
    9.1200   -5.9340   26.1660 O   0  0  0  0  0  0  0  0  0  0  0  0
    8.5890   -4.0650   27.7580 O   0  0  0  0  0  0  0  0  0  0  0  0
   19.2480    6.4710   22.8660 C   0  0  0  0  0  0  0  0  0  0  0  0
    1.5760    3.9920   25.2960 C   0  0  0  0  0  0  0  0  0  0  0  0
    0.1160    2.2640   24.4320 C   0  0  0  0  0  0  0  0  0  0  0  0
    1.9520   -7.0600   23.8290 N   0  0  0  0  0  0  0  0  0  0  0  0
   13.5420   -1.8890   25.2710 C   0  0  0  0  0  0  0  0  0  0  0  0
    2.7990    4.5270   25.4200 F   0  0  0  0  0  0  0  0  0  0  0  0
   20.5050    6.9330   23.0240 N   0  0  0  0  0  0  0  0  0  0  0  0
   -0.9810    2.8600   25.0320 C   0  0  0  0  0  0  0  0  0  0  0  0
    0.5020    4.6450   25.9290 C   0  0  0  0  0  0  0  0  0  0  0  0
    1.3670   -5.8250   23.2700 C   0  0  0  0  0  0  0  0  0  0  0  0
    1.0230   -8.1530   24.1260 C   0  0  0  0  0  0  0  0  0  0  0  0
   -0.8590    4.0230   25.7770 C   0  0  0  0  0  0  0  0  0  0  0  0
    0.4050   -5.2210   24.1090 C   0  0  0  0  0  0  0  0  0  0  0  0
    0.0140   -7.7690   25.0420 C   0  0  0  0  0  0  0  0  0  0  0  0
   21.3590    6.0370   23.5550 C   0  0  0  0  0  0  0  0  0  0  0  0
   -0.9700   -6.3370   24.5120 S   0  0  0  0  0  0  0  0  0  0  0  0
   22.4630    5.6110   22.8280 C   0  0  0  0  0  0  0  0  0  0  0  0
   21.1110    5.5370   24.8210 C   0  0  0  0  0  0  0  0  0  0  0  0
   23.3080    4.6610   23.3690 C   0  0  0  0  0  0  0  0  0  0  0  0
   21.9370    4.5940   25.3670 C   0  0  0  0  0  0  0  0  0  0  0  0
   23.0190    4.1550   24.6360 C   0  0  0  0  0  0  0  0  0  0  0  0
   24.0290    2.9090   25.3340 S   0  0  0  0  0  0  0  0  0  0  0  0
   23.1720    1.7600   25.3240 O   0  0  0  0  0  0  0  0  0  0  0  0
   24.1790    3.3400   26.9330 N   0  0  0  0  0  0  0  0  0  0  0  0
   25.2890    2.8350   24.6460 O   0  0  0  0  0  0  0  0  0  0  0  0
   24.9980    4.4130   27.3070 C   0  0  0  0  0  0  0  0  0  0  0  0
   25.0800    4.7040   28.6130 N   0  0  0  0  0  0  0  0  0  0  0  0
   25.6830    5.1160   26.3220 C   0  0  0  0  0  0  0  0  0  0  0  0
   25.8750    5.7360   28.9590 C   0  0  0  0  0  0  0  0  0  0  0  0
   26.4960    6.1750   26.7070 C   0  0  0  0  0  0  0  0  0  0  0  0
   26.5960    6.4940   28.0510 C   0  0  0  0  0  0  0  0  0  0  0  0
  1  2  1  0
  2  3  1  0
  1  4  1  0
  4  5  2  0
  6  4  1  6
  6  7  1  0
  6  8  1  0
  3  9  2  0
  3 10  1  0
  9 11  1  0
  7 12  1  0
  8 13  1  0
  8 14  2  0
 15  7  1  1
 10 16  2  0
  9 17  1  0
 17 18  1  0
 13 19  1  0
 11 20  1  0
 11 21  1  0
 11 22  1  0
 12 23  1  0
 14 24  1  0
 13 25  2  0
 15 26  1  0
 15 27  1  0
 16 28  1  0
 17 28  2  0
 18 29  1  6
 19 30  1  0
 23 31  1  0
 18 32  1  0
 24 33  2  0
 25 33  1  0
 34 26  1  6
 27 35  1  0
 23 36  1  0
 30 37  1  0
 31 38  1  0
 31 39  2  0
 35 40  1  6
 32 41  1  0
 34 42  1  0
 35 42  1  0
 36 43  2  0
 36 44  1  0
 34 45  1  0
 37 46  1  0
 40 47  1  0
 41 48  1  0
 43 49  1  0
 44 50  2  0
 51 45  1  6
 42 52  1  1
 51 53  1  0
 46 54  2  0
 49 55  1  0
 56 47  1  0
 48 57  1  0
 46 58  1  0
 49 59  2  0
 50 59  1  0
 51 60  1  0
 60 52  1  1
 60 61  1  0
 53 62  1  0
 53 63  1  0
 55 64  2  0
 56 65  1  0
 56 66  2  0
 56 67  2  0
 57 68  1  0
 58 69  2  0
 58 70  1  0
 55 71  1  0
 53 72  1  0
 61 72  2  0
 69 73  1  0
 68 74  1  0
 70 75  2  0
 69 76  1  0
 71 77  1  0
 71 78  1  0
 75 79  1  0
 76 79  2  0
 77 80  1  0
 78 81  1  0
 74 82  1  0
 80 83  1  0
 81 83  1  0
 82 84  2  0
 82 85  1  0
 84 86  1  0
 85 87  2  0
 86 88  2  0
 87 88  1  0
 88 89  1  0
 89 90  2  0
 89 91  1  0
 89 92  2  0
 91 93  1  0
 93 94  2  0
 93 95  1  0
 94 96  1  0
 95 97  2  0
 96 98  2  0
 97 98  1  0
M  END
