x0072-x0731
     RDKit          3D

 31 34  0  0  0  0  0  0  0  0999 V2000
    1.0440   -1.0110   26.1420 C   0  0  0  0  0  0  0  0  0  0  0  0
    2.1230   -2.1020   26.0140 C   0  0  0  0  0  0  0  0  0  0  0  0
    3.3930   -1.8730   26.5430 C   0  0  0  0  0  0  0  0  0  0  0  0
    1.8350   -3.3640   25.3630 C   0  0  0  0  0  0  0  0  0  0  0  0
    2.8250   -4.3650   25.2660 C   0  0  0  0  0  0  0  0  0  0  0  0
    4.3450   -2.8600   26.4420 C   0  0  0  0  0  0  0  0  0  0  0  0
    4.0850   -4.0810   25.8280 C   0  0  0  0  0  0  0  0  0  0  0  0
    5.3990   -5.1930   25.8210 S   0  0  1  0  0  0  0  0  0  0  0  0
    6.5370   -4.5780   26.8730 N   0  0  0  0  0  0  0  0  0  0  0  0
    4.7950   -6.5360   25.8920 O   0  0  0  0  0  0  0  0  0  0  0  0
    6.1360   -5.0950   24.3260 N   0  0  0  0  0  0  0  0  0  0  0  0
    8.1340   -4.6180   26.2830 S   0  0  0  0  0  0  0  0  0  0  0  0
    6.9060   -4.0120   24.0090 C   0  0  1  0  0  0  0  0  0  0  0  0
    5.5620   -5.7940   23.3150 C   0  0  0  0  0  0  0  0  0  0  0  0
    8.8190   -5.9440   25.7560 O   0  0  0  0  0  0  0  0  0  0  0  0
    9.1690   -3.7790   27.1380 O   0  0  0  0  0  0  0  0  0  0  0  0
    7.9420   -3.6880   24.8690 N   0  0  0  0  0  0  0  0  0  0  0  0
    7.3810   -4.0880   22.5840 C   0  0  0  0  0  0  0  0  0  0  0  0
    6.3600   -6.1620   22.2460 C   0  0  0  0  0  0  0  0  0  0  0  0
    9.2250   -3.1660   24.3350 C   0  0  0  0  0  0  0  0  0  0  0  0
    6.8270   -5.0350   21.6270 N   0  0  0  0  0  0  0  0  0  0  0  0
    6.2470   -4.6430   20.4520 C   0  0  0  0  0  0  0  0  0  0  0  0
    9.1260   -1.9860   23.5760 C   0  0  0  0  0  0  0  0  0  0  0  0
    5.2800   -5.2000   19.9950 O   0  0  0  0  0  0  0  0  0  0  0  0
    6.8810   -3.4940   19.6900 C   0  0  0  0  0  0  0  0  0  0  0  0
   10.4720   -1.3510   23.3880 C   0  0  0  0  0  0  0  0  0  0  0  0
   11.4320   -1.8790   22.5250 C   0  0  0  0  0  0  0  0  0  0  0  0
   10.8690   -0.0870   24.1320 C   0  0  0  0  0  0  0  0  0  0  0  0
   12.7050   -1.3330   22.3040 C   0  0  0  0  0  0  0  0  0  0  0  0
   12.1320    0.4490   23.9000 C   0  0  0  0  0  0  0  0  0  0  0  0
   13.0060   -0.1730   23.0090 C   0  0  0  0  0  0  0  0  0  0  0  0
  1  2  1  0
  2  3  2  0
  2  4  1  0
  4  5  2  0
  3  6  1  0
  5  7  1  0
  6  7  2  0
  8  7  1  6
  8  9  2  0
  8 10  2  0
  8 11  1  0
 12  9  1  0
 11 13  1  0
 11 14  1  0
 12 15  2  0
 12 16  2  0
 12 17  1  0
 13 17  1  0
 13 18  1  6
 14 19  1  0
 17 20  1  0
 18 21  1  0
 19 21  1  0
 21 22  1  0
 20 23  1  0
 22 24  2  0
 22 25  1  0
 23 26  1  0
 26 27  2  0
 26 28  1  0
 27 29  1  0
 28 30  2  0
 29 31  2  0
 30 31  1  0
M  END
