x0072-x0540-x3113-x3110-x0946
     RDKit          3D

 61 66  0  0  0  0  0  0  0  0999 V2000
    7.8600    1.3350   23.1730 N   0  0  0  0  0  0  0  0  0  0  0  0
    8.5040    2.5910   23.3590 C   0  0  0  0  0  0  0  0  0  0  0  0
   10.0340    2.6990   23.1720 C   0  0  0  0  0  0  0  0  0  0  0  0
    7.7650    0.8860   21.7460 C   0  0  0  0  0  0  0  0  0  0  0  0
    8.5630    1.3060   20.8960 O   0  0  0  0  0  0  0  0  0  0  0  0
    6.5930   -0.0310   21.5540 C   0  0  2  0  0  0  0  0  0  0  0  0
    6.7860   -1.4860   21.7870 N   0  0  0  0  0  0  0  0  0  0  0  0
    6.0710    0.3700   20.2320 C   0  0  0  0  0  0  0  0  0  0  0  0
   10.7800    3.8970   23.3560 C   0  0  0  0  0  0  0  0  0  0  0  0
   10.8130    1.4580   22.7460 C   0  0  0  0  0  0  0  0  0  0  0  0
   10.1740    5.2470   23.7680 C   0  0  0  0  0  0  0  0  0  0  0  0
    6.0150   -2.6540   21.3330 C   0  0  0  0  0  0  0  0  0  0  0  0
    4.8290    0.9650   20.2420 C   0  0  0  0  0  0  0  0  0  0  0  0
    6.8510    0.1640   18.9710 C   0  0  0  0  0  0  0  0  0  0  0  0
    7.8320   -1.7230   22.6390 C   0  0  2  0  0  0  0  0  0  0  0  0
   12.1780    1.4200   22.5440 C   0  0  0  0  0  0  0  0  0  0  0  0
   12.2790    3.8900   23.1230 C   0  0  0  0  0  0  0  0  0  0  0  0
   13.1920    5.0650   23.2510 C   0  0  0  0  0  0  0  0  0  0  0  0
    4.7470   -2.9730   21.3260 O   0  0  0  0  0  0  0  0  0  0  0  0
    6.8490   -3.7720   20.7530 C   0  0  0  0  0  0  0  0  0  0  0  0
    4.0660    1.1440   21.3940 C   0  0  0  0  0  0  0  0  0  0  0  0
    9.0750    5.5300   22.9000 N   0  0  0  0  0  0  0  0  0  0  0  0
   10.0570    5.3590   24.9790 O   0  0  0  0  0  0  0  0  0  0  0  0
   11.0000    6.3340   23.4730 O   0  0  0  0  0  0  0  0  0  0  0  0
    6.3620    0.5980   17.7500 N   0  0  0  0  0  0  0  0  0  0  0  0
    4.3010    1.4360   18.9250 C   0  0  0  0  0  0  0  0  0  0  0  0
    9.1010   -1.7290   21.9830 C   0  0  0  0  0  0  0  0  0  0  0  0
    7.5850   -2.4900   23.7150 C   0  0  0  0  0  0  0  0  0  0  0  0
   12.9780    2.6470   22.7210 C   0  0  0  0  0  0  0  0  0  0  0  0
   13.1540    5.8070   21.9260 C   0  0  0  0  0  0  0  0  0  0  0  0
    7.2890   -3.2910   19.3790 C   0  0  0  0  0  0  0  0  0  0  0  0
    4.7640    2.1100   22.3210 C   0  0  0  0  0  0  0  0  0  0  0  0
    5.1810    1.1970   17.7420 C   0  0  0  0  0  0  0  0  0  0  0  0
   10.3900   -2.3600   22.4580 C   0  0  2  0  0  0  0  0  0  0  0  0
    8.8450   -2.6850   24.4060 C   0  0  1  0  0  0  0  0  0  0  0  0
    4.0410    3.0520   22.9280 N   0  0  0  0  0  0  0  0  0  0  0  0
    9.0550   -4.1940   24.3290 C   0  0  0  0  0  0  0  0  0  0  0  0
    9.8560   -2.0110   23.8290 C   0  0  2  0  0  0  0  0  0  0  0  0
   11.6370   -1.6090   22.2140 C   0  0  0  0  0  0  0  0  0  0  0  0
    2.8300    2.5180   23.6010 C   0  0  0  0  0  0  0  0  0  0  0  0
    8.0170   -4.7970   24.9070 N   0  0  0  0  0  0  0  0  0  0  0  0
   12.2220   -1.0610   23.5110 C   0  0  2  0  0  0  0  0  0  0  0  0
    9.9510   -0.5110   24.2200 C   0  0  0  0  0  0  0  0  0  0  0  0
   12.9470   -2.1390   24.5490 C   0  0  0  0  0  0  0  0  0  0  0  0
    2.8950    1.5960   24.4240 O   0  0  0  0  0  0  0  0  0  0  0  0
    1.7440    3.1370   23.2090 N   0  0  0  0  0  0  0  0  0  0  0  0
    8.2000   -5.0350   26.5680 S   0  0  0  0  0  0  0  0  0  0  0  0
   11.2790   -0.2150   24.2740 C   0  0  1  0  0  0  0  0  0  0  0  0
   11.6990   -1.1150   25.1050 C   0  0  0  0  0  0  0  0  0  0  0  0
   13.7810   -2.5640   23.4490 C   0  0  0  0  0  0  0  0  0  0  0  0
   12.2380   -3.3230   25.2330 C   0  0  0  0  0  0  0  0  0  0  0  0
    6.4980   -5.6110   27.0300 C   0  0  0  0  0  0  0  0  0  0  0  0
    9.1730   -6.0760   26.7330 O   0  0  0  0  0  0  0  0  0  0  0  0
    8.3920   -3.7240   27.1260 O   0  0  0  0  0  0  0  0  0  0  0  0
    0.6050    3.3370   24.0970 C   0  0  0  0  0  0  0  0  0  0  0  0
   12.9540   -0.8890   25.1650 C   0  0  0  0  0  0  0  0  0  0  0  0
    0.5960    4.6700   24.5060 C   0  0  0  0  0  0  0  0  0  0  0  0
   -0.6040    2.7870   23.4490 C   0  0  0  0  0  0  0  0  0  0  0  0
   -0.7400    4.9970   25.1680 C   0  0  0  0  0  0  0  0  0  0  0  0
   -1.8290    3.3080   23.5890 C   0  0  0  0  0  0  0  0  0  0  0  0
   -1.9520    4.6260   24.2960 C   0  0  0  0  0  0  0  0  0  0  0  0
  1  2  1  0
  2  3  1  0
  1  4  1  0
  4  5  2  0
  6  4  1  6
  6  7  1  0
  6  8  1  0
  3  9  2  0
  3 10  1  0
  9 11  1  0
  7 12  1  0
  8 13  1  0
  8 14  2  0
 15  7  1  6
 10 16  2  0
  9 17  1  0
 17 18  1  0
 12 19  2  0
 12 20  1  0
 13 21  1  0
 11 22  1  0
 11 23  1  0
 11 24  1  0
 14 25  1  0
 13 26  2  0
 15 27  1  0
 15 28  1  0
 16 29  1  0
 17 29  2  0
 18 30  1  0
 20 31  1  0
 21 32  1  0
 25 33  2  0
 26 33  1  0
 34 27  1  6
 28 35  1  0
 32 36  1  0
 35 37  1  6
 34 38  1  0
 35 38  1  0
 34 39  1  0
 36 40  1  0
 37 41  1  0
 42 39  1  6
 38 43  1  6
 42 44  1  0
 40 45  2  0
 40 46  1  0
 47 41  1  0
 42 48  1  0
 48 43  1  6
 48 49  1  0
 44 50  1  0
 44 51  1  0
 47 52  1  0
 47 53  2  0
 47 54  2  0
 46 55  1  0
 44 56  1  0
 49 56  2  0
 55 57  1  0
 55 58  1  0
 57 59  1  0
 58 60  1  0
 59 61  1  0
 60 61  1  0
M  END
