x0107-x0734
     RDKit          3D

 30 32  0  0  0  0  0  0  0  0999 V2000
    5.1010   -4.5310   26.0820 N   0  0  0  0  0  0  0  0  0  0  0  0
    6.5470   -4.8170   26.0720 C   0  0  0  0  0  0  0  0  0  0  0  0
    7.1430   -5.3950   27.2060 C   0  0  0  0  0  0  0  0  0  0  0  0
    4.3740   -5.4260   25.6230 O   0  0  0  0  0  0  0  0  0  0  0  0
    4.7020   -3.6240   26.8240 O   0  0  0  0  0  0  0  0  0  0  0  0
    7.2620   -4.4890   24.8860 C   0  0  0  0  0  0  0  0  0  0  0  0
    8.6560   -4.7830   24.8560 C   0  0  0  0  0  0  0  0  0  0  0  0
    8.6200   -5.7080   27.1920 C   0  0  0  0  0  0  0  0  0  0  0  0
    6.7750   -3.9960   23.9130 N   0  0  0  0  0  0  0  0  0  0  0  0
    9.3580   -5.4260   26.0680 C   0  0  0  0  0  0  0  0  0  0  0  0
    5.8780   -4.7560   23.2230 C   0  0  0  0  0  0  0  0  0  0  0  0
    7.6020   -3.0900   23.0240 C   0  0  2  0  0  0  0  0  0  0  0  0
    6.9330   -1.7110   22.5560 C   0  0  0  0  0  0  0  0  0  0  0  0
    6.3890   -5.2310   22.0320 C   0  0  0  0  0  0  0  0  0  0  0  0
    8.0470   -3.6730   21.8770 C   0  0  0  0  0  0  0  0  0  0  0  0
    7.6310   -0.9540   21.5500 N   0  0  0  0  0  0  0  0  0  0  0  0
    7.0140   -4.2860   21.2750 N   0  0  0  0  0  0  0  0  0  0  0  0
    6.4520   -3.9380   20.0740 C   0  0  0  0  0  0  0  0  0  0  0  0
    8.9520   -0.3230   21.7530 C   0  0  0  0  0  0  0  0  0  0  0  0
    6.8050   -0.2640   20.4920 C   0  0  0  0  0  0  0  0  0  0  0  0
    5.3000   -4.2300   19.7630 O   0  0  0  0  0  0  0  0  0  0  0  0
    7.4040   -3.2050   19.1480 C   0  0  0  0  0  0  0  0  0  0  0  0
    9.9980   -1.1230   22.2670 C   0  0  0  0  0  0  0  0  0  0  0  0
    9.1910    0.8640   21.4990 O   0  0  0  0  0  0  0  0  0  0  0  0
    5.6760    0.5180   20.8170 C   0  0  0  0  0  0  0  0  0  0  0  0
    7.1080   -0.3440   19.0910 C   0  0  0  0  0  0  0  0  0  0  0  0
    5.1980    0.7380   22.2050 C   0  0  0  0  0  0  0  0  0  0  0  0
    4.9750    1.1190   19.7880 C   0  0  0  0  0  0  0  0  0  0  0  0
    6.4660    0.2250   18.0210 N   0  0  0  0  0  0  0  0  0  0  0  0
    5.4060    0.9510   18.3510 C   0  0  0  0  0  0  0  0  0  0  0  0
  1  2  1  0
  2  3  2  0
  1  4  2  0
  1  5  1  0
  2  6  1  0
  6  7  2  0
  3  8  1  0
  6  9  1  0
  7 10  1  0
  8 10  2  0
  9 11  1  0
  9 12  1  0
 12 13  1  6
 11 14  1  0
 12 15  1  0
 13 16  1  0
 14 17  1  0
 15 17  1  0
 17 18  1  0
 16 19  1  0
 16 20  1  0
 18 21  2  0
 18 22  1  0
 19 23  1  0
 19 24  2  0
 20 25  2  0
 20 26  1  0
 25 27  1  0
 25 28  1  0
 26 29  2  0
 28 30  2  0
 29 30  1  0
M  CHG  2   1   1   5  -1
M  END
