x0104-x3303
     RDKit          3D

 33 37  0  0  0  0  0  0  0  0999 V2000
    9.0710    6.5120   22.6980 C   0  0  0  0  0  0  0  0  0  0  0  0
   10.3630    6.0850   23.3490 C   0  0  0  0  0  0  0  0  0  0  0  0
   10.4990    6.1880   24.5710 O   0  0  0  0  0  0  0  0  0  0  0  0
   11.3410    5.5880   22.5050 N   0  0  0  0  0  0  0  0  0  0  0  0
   12.4190    4.7840   23.1010 C   0  0  0  0  0  0  0  0  0  0  0  0
   12.3880    3.3010   22.6480 C   0  0  0  0  0  0  0  0  0  0  0  0
   11.4160    2.3850   23.4430 C   0  0  1  0  0  0  0  0  0  0  0  0
    9.9660    2.3850   23.0550 C   0  0  0  0  0  0  0  0  0  0  0  0
   11.5880    0.8340   23.6140 C   0  0  1  0  0  0  0  0  0  0  0  0
    9.3370    1.3010   23.5720 N   0  0  0  0  0  0  0  0  0  0  0  0
   10.2480    0.3220   23.6530 C   0  0  1  0  0  0  0  0  0  0  0  0
   12.7170    0.0470   22.9210 C   0  0  0  0  0  0  0  0  0  0  0  0
    9.6550   -1.0710   22.7670 S   0  0  0  0  0  0  0  0  0  0  0  0
   12.2980   -1.2450   22.5820 C   0  0  1  0  0  0  0  0  0  0  0  0
   13.3140   -2.1030   22.4850 F   0  0  0  0  0  0  0  0  0  0  0  0
   11.2210   -1.7290   23.3670 C   0  0  0  0  0  0  0  0  0  0  0  0
    9.2970   -0.4050   21.2620 C   0  0  0  0  0  0  0  0  0  0  0  0
    9.1870   -2.7750   23.2120 C   0  0  0  0  0  0  0  0  0  0  0  0
    7.8660   -1.3450   22.6790 N   0  0  0  0  0  0  0  0  0  0  0  0
    6.7280   -1.1200   21.6590 C   0  0  0  0  0  0  0  0  0  0  0  0
    7.9140   -2.6630   23.2000 C   0  0  0  0  0  0  0  0  0  0  0  0
    5.9360   -2.0600   21.5050 O   0  0  0  0  0  0  0  0  0  0  0  0
    6.1460   -0.0650   20.6300 C   0  0  0  0  0  0  0  0  0  0  0  0
    5.1790    0.9170   20.9690 C   0  0  0  0  0  0  0  0  0  0  0  0
    6.5390   -0.0210   19.2520 C   0  0  0  0  0  0  0  0  0  0  0  0
    4.6010    1.8480   20.1420 C   0  0  0  0  0  0  0  0  0  0  0  0
    5.9210    0.9710   18.4420 C   0  0  0  0  0  0  0  0  0  0  0  0
    4.8050    0.8610   22.4220 C   0  0  0  0  0  0  0  0  0  0  0  0
    6.2360    1.1200   17.0990 O   0  0  0  0  0  0  0  0  0  0  0  0
    4.9450    1.9130   18.8510 N   0  0  0  0  0  0  0  0  0  0  0  0
    3.7610    1.8650   22.9330 C   0  0  0  0  0  0  0  0  0  0  0  0
    3.5960    2.7930   20.6580 C   0  0  0  0  0  0  0  0  0  0  0  0
    3.1800    2.8190   21.9760 C   0  0  0  0  0  0  0  0  0  0  0  0
  1  2  1  0
  2  3  2  0
  2  4  1  0
  4  5  1  0
  5  6  1  0
  7  6  1  6
  7  8  1  0
  7  9  1  0
  8 10  1  0
  9 11  1  0
 11 10  1  6
  9 12  1  6
 11 13  1  0
 12 14  1  0
 14 15  1  1
 13 16  1  0
 14 16  1  0
 13 17  1  0
 13 18  1  0
 13 19  1  0
 19 20  1  0
 18 21  1  0
 19 21  1  0
 20 22  2  0
 20 23  1  0
 23 24  1  0
 23 25  2  0
 24 26  2  0
 25 27  1  0
 24 28  1  0
 27 29  1  0
 26 30  1  0
 27 30  2  0
 28 31  2  0
 26 32  1  0
 31 33  1  0
 32 33  2  0
M  END
