x0107-x1458-x3110
     RDKit          3D

 46 49  0  0  0  0  0  0  0  0999 V2000
    8.2540    1.2260   23.4100 N   0  0  0  0  0  0  0  0  0  0  0  0
    9.0240    2.4690   23.5160 C   0  0  0  0  0  0  0  0  0  0  0  0
   10.3880    2.2800   23.6210 C   0  0  0  0  0  0  0  0  0  0  0  0
    8.4670    0.2380   22.3210 C   0  0  2  0  0  0  0  0  0  0  0  0
    9.3150    0.7400   21.3780 O   0  0  0  0  0  0  0  0  0  0  0  0
    7.0090   -0.0570   21.7710 C   0  0  2  0  0  0  0  0  0  0  0  0
    9.3210   -1.0250   22.8470 C   0  0  0  0  0  0  0  0  0  0  0  0
    7.2250   -1.3840   21.5110 N   0  0  0  0  0  0  0  0  0  0  0  0
   11.1610    3.3940   23.4130 C   0  0  0  0  0  0  0  0  0  0  0  0
    6.4000    0.5260   20.4760 C   0  0  0  0  0  0  0  0  0  0  0  0
    9.6140   -1.7860   21.6160 C   0  0  0  0  0  0  0  0  0  0  0  0
   12.0080    3.3450   22.2900 O   0  0  0  0  0  0  0  0  0  0  0  0
   11.1150    4.3700   24.1430 O   0  0  0  0  0  0  0  0  0  0  0  0
    6.3890   -2.3690   22.1090 C   0  0  0  0  0  0  0  0  0  0  0  0
    5.3770    1.4750   20.3460 C   0  0  0  0  0  0  0  0  0  0  0  0
    6.9660   -0.0210   19.3210 C   0  0  0  0  0  0  0  0  0  0  0  0
   10.7960   -1.8620   22.0730 C   0  0  0  0  0  0  0  0  0  0  0  0
    8.4680   -1.3970   22.0700 C   0  0  0  0  0  0  0  0  0  0  0  0
   12.5380    4.5360   21.9520 C   0  0  0  0  0  0  0  0  0  0  0  0
    6.4890    0.3980   17.9770 N   0  0  0  0  0  0  0  0  0  0  0  0
    4.9090    1.8840   19.0850 C   0  0  0  0  0  0  0  0  0  0  0  0
   10.9240   -1.4250   23.4880 C   0  0  0  0  0  0  0  0  0  0  0  0
    8.5990   -0.9730   23.4620 C   0  0  0  0  0  0  0  0  0  0  0  0
    7.2680   -3.5860   22.3330 C   0  0  2  0  0  0  0  0  0  0  0  0
   13.4410    5.2860   22.8740 C   0  0  0  0  0  0  0  0  0  0  0  0
   12.2950   -1.5250   24.0910 C   0  0  0  0  0  0  0  0  0  0  0  0
    5.3960    1.4070   17.8640 C   0  0  0  0  0  0  0  0  0  0  0  0
    9.7480   -0.8890   24.4240 C   0  0  0  0  0  0  0  0  0  0  0  0
    6.7540   -4.6640   21.5550 N   0  0  0  0  0  0  0  0  0  0  0  0
    7.4910   -3.6860   23.6790 C   0  0  0  0  0  0  0  0  0  0  0  0
   12.4250   -0.4210   25.1090 C   0  0  0  0  0  0  0  0  0  0  0  0
   13.3370   -1.2770   23.0030 C   0  0  0  0  0  0  0  0  0  0  0  0
   12.6560   -2.8470   24.7890 C   0  0  0  0  0  0  0  0  0  0  0  0
    6.2050   -4.4310   20.3190 C   0  0  0  0  0  0  0  0  0  0  0  0
    6.7840   -4.6950   24.3050 C   0  0  1  0  0  0  0  0  0  0  0  0
    6.2070   -5.7540   22.3490 C   0  0  0  0  0  0  0  0  0  0  0  0
    5.2200   -5.0210   19.9640 O   0  0  0  0  0  0  0  0  0  0  0  0
    6.2160   -4.0440   25.5580 C   0  0  0  0  0  0  0  0  0  0  0  0
    6.8970   -3.4420   19.4030 C   0  0  0  0  0  0  0  0  0  0  0  0
    5.6530   -5.4400   23.5760 C   0  0  0  0  0  0  0  0  0  0  0  0
    7.0550   -3.8340   26.5970 N   0  0  0  0  0  0  0  0  0  0  0  0
    5.0290   -3.7150   25.5940 O   0  0  0  0  0  0  0  0  0  0  0  0
    7.6690   -4.9080   27.1620 C   0  0  0  0  0  0  0  0  0  0  0  0
    6.6320   -2.8360   27.4440 C   0  0  0  0  0  0  0  0  0  0  0  0
    8.9960   -4.6380   27.5410 C   0  0  0  0  0  0  0  0  0  0  0  0
    6.9860   -5.5620   28.1840 C   0  0  0  0  0  0  0  0  0  0  0  0
  1  2  1  0
  2  3  1  0
  1  4  1  0
  4  5  1  6
  4  6  1  0
  4  7  1  0
  6  8  1  0
  3  9  1  0
  6 10  1  6
  7 11  1  0
  9 12  1  0
  9 13  2  0
  8 14  1  0
 10 15  2  0
 10 16  1  0
 11 17  2  0
  8 18  1  0
 11 18  1  0
 12 19  1  0
 16 20  2  0
 15 21  1  0
 17 22  1  0
 18 23  2  0
 24 14  1  1
 19 25  1  0
 22 26  1  0
 20 27  1  0
 21 27  2  0
 22 28  2  0
 23 28  1  0
 24 29  1  0
 24 30  1  0
 26 31  1  0
 26 32  1  0
 26 33  1  0
 29 34  1  0
 30 35  1  0
 29 36  1  0
 34 37  2  0
 35 38  1  1
 34 39  1  0
 35 40  1  0
 36 40  1  0
 38 41  1  0
 38 42  2  0
 41 43  1  0
 41 44  1  0
 43 45  1  0
 43 46  1  0
M  END
