x0107-x1336
     RDKit          3D

 31 33  0  0  0  0  0  0  0  0999 V2000
    5.9330   -5.2240   28.8600 C   0  0  0  0  0  0  0  0  0  0  0  0
    7.0190   -4.8050   27.8550 C   0  0  0  0  0  0  0  0  0  0  0  0
    8.2700   -5.5700   27.7250 C   0  0  0  0  0  0  0  0  0  0  0  0
    6.7250   -3.6670   27.0990 C   0  0  0  0  0  0  0  0  0  0  0  0
    7.7450   -3.1450   26.0560 C   0  0  0  0  0  0  0  0  0  0  0  0
    9.3100   -5.1340   26.7390 C   0  0  0  0  0  0  0  0  0  0  0  0
    7.2990   -1.7090   25.1800 S   0  0  0  0  0  0  0  0  0  0  0  0
    9.0860   -3.8880   25.8620 C   0  0  0  0  0  0  0  0  0  0  0  0
    8.5080   -0.8680   25.1460 O   0  0  0  0  0  0  0  0  0  0  0  0
    6.0850   -1.2140   25.7840 O   0  0  0  0  0  0  0  0  0  0  0  0
   10.1580   -3.4720   24.9010 C   0  0  0  0  0  0  0  0  0  0  0  0
    6.8950   -2.0820   23.5670 N   0  0  0  0  0  0  0  0  0  0  0  0
    5.8100   -3.0830   23.3680 C   0  0  0  0  0  0  0  0  0  0  0  0
    7.8180   -1.7870   22.5040 C   0  0  2  0  0  0  0  0  0  0  0  0
    7.7550   -0.4640   21.8190 N   0  0  0  0  0  0  0  0  0  0  0  0
    6.3600   -4.2500   22.5170 C   0  0  0  0  0  0  0  0  0  0  0  0
    8.0470   -2.7770   21.6030 C   0  0  0  0  0  0  0  0  0  0  0  0
    9.0550    0.2160   21.6820 C   0  0  0  0  0  0  0  0  0  0  0  0
    6.8460   -3.5480   21.3480 N   0  0  0  0  0  0  0  0  0  0  0  0
    6.8700   -0.0800   20.6650 C   0  0  0  0  0  0  0  0  0  0  0  0
    6.3650   -3.7280   20.0460 C   0  0  0  0  0  0  0  0  0  0  0  0
   10.2620   -0.6870   22.0540 C   0  0  0  0  0  0  0  0  0  0  0  0
    9.2090    1.3910   21.2950 O   0  0  0  0  0  0  0  0  0  0  0  0
    5.6770    0.5630   20.8880 C   0  0  0  0  0  0  0  0  0  0  0  0
    7.2060   -0.3270   19.2230 C   0  0  0  0  0  0  0  0  0  0  0  0
    5.3060   -4.2840   19.7760 O   0  0  0  0  0  0  0  0  0  0  0  0
    7.3080   -3.2040   18.9770 C   0  0  0  0  0  0  0  0  0  0  0  0
    5.3480    0.8000   22.3280 C   0  0  0  0  0  0  0  0  0  0  0  0
    4.7260    1.0260   19.7720 C   0  0  0  0  0  0  0  0  0  0  0  0
    6.3810    0.0740   18.0790 N   0  0  0  0  0  0  0  0  0  0  0  0
    5.2050    0.7180   18.3550 C   0  0  0  0  0  0  0  0  0  0  0  0
  1  2  1  0
  2  3  2  0
  2  4  1  0
  4  5  2  0
  3  6  1  0
  7  5  1  0
  5  8  1  0
  6  8  2  0
  7  9  2  0
  7 10  2  0
  8 11  1  0
  7 12  1  0
 12 13  1  0
 12 14  1  0
 14 15  1  6
 13 16  1  0
 14 17  1  0
 15 18  1  0
 16 19  1  0
 17 19  1  0
 15 20  1  0
 19 21  1  0
 18 22  1  0
 18 23  2  0
 20 24  2  0
 20 25  1  0
 21 26  2  0
 21 27  1  0
 24 28  1  0
 24 29  1  0
 25 30  2  0
 29 31  2  0
 30 31  1  0
M  END
