x0104-x0755
     RDKit          3D

 40 43  0  0  0  0  0  0  0  0999 V2000
    4.2440   -6.3260   25.9840 O   0  0  0  0  0  0  0  0  0  0  0  0
    4.9480   -5.0730   25.8190 S   0  0  0  0  0  0  0  0  0  0  0  0
    5.9920   -4.7030   26.7320 O   0  0  0  0  0  0  0  0  0  0  0  0
    3.8110   -3.8560   25.8240 C   0  0  0  0  0  0  0  0  0  0  0  0
    5.5470   -4.9900   24.2160 N   0  0  0  0  0  0  0  0  0  0  0  0
    2.4410   -4.0730   25.7080 C   0  0  0  0  0  0  0  0  0  0  0  0
    4.3310   -2.5580   25.9610 C   0  0  0  0  0  0  0  0  0  0  0  0
    6.9170   -4.9790   24.1060 C   0  0  0  0  0  0  0  0  0  0  0  0
    4.7730   -5.7040   23.1890 C   0  0  0  0  0  0  0  0  0  0  0  0
    1.9220   -5.3040   25.5790 F   0  0  0  0  0  0  0  0  0  0  0  0
    5.6950   -2.3190   26.0850 O   0  0  0  0  0  0  0  0  0  0  0  0
    3.4440   -1.4750   25.9800 C   0  0  0  0  0  0  0  0  0  0  0  0
    1.5840   -2.9670   25.7310 C   0  0  0  0  0  0  0  0  0  0  0  0
    7.5540   -4.9100   22.8830 C   0  0  0  0  0  0  0  0  0  0  0  0
    5.6370   -6.2550   22.2250 C   0  0  0  0  0  0  0  0  0  0  0  0
    6.2180   -1.1120   25.4860 C   0  0  0  0  0  0  0  0  0  0  0  0
    2.1200   -1.6760   25.8690 C   0  0  0  0  0  0  0  0  0  0  0  0
    6.6460   -5.2830   21.8090 N   0  0  0  0  0  0  0  0  0  0  0  0
    6.6300   -4.4990   20.6510 C   0  0  0  0  0  0  0  0  0  0  0  0
    6.9490   -1.5270   24.1880 C   0  0  0  0  0  0  0  0  0  0  0  0
    5.6250   -4.4850   19.9240 O   0  0  0  0  0  0  0  0  0  0  0  0
    7.8860   -3.6620   20.3150 C   0  0  0  0  0  0  0  0  0  0  0  0
    8.4420   -1.9080   24.3140 C   0  0  0  0  0  0  0  0  0  0  0  0
    9.3280   -0.7720   24.8480 C   0  0  0  0  0  0  0  0  0  0  0  0
   10.5660   -0.4990   23.9560 C   0  0  0  0  0  0  0  0  0  0  0  0
   10.6300    0.7880   23.2400 C   0  0  1  0  0  0  0  0  0  0  0  0
   11.5700   -1.4270   23.7960 C   0  0  0  0  0  0  0  0  0  0  0  0
    9.8750    1.7500   23.7950 N   0  0  0  0  0  0  0  0  0  0  0  0
   11.9060    1.2250   22.9430 C   0  0  0  0  0  0  0  0  0  0  0  0
   12.6110   -1.0890   22.9990 C   0  0  0  0  0  0  0  0  0  0  0  0
   13.4620   -2.0550   22.6210 F   0  0  0  0  0  0  0  0  0  0  0  0
   11.9220    2.6150   23.0040 C   0  0  0  0  0  0  0  0  0  0  0  0
   10.5880    2.8580   23.6050 C   0  0  0  0  0  0  0  0  0  0  0  0
   12.8290    0.2170   22.5740 C   0  0  0  0  0  0  0  0  0  0  0  0
   12.9200    3.6990   22.6510 C   0  0  0  0  0  0  0  0  0  0  0  0
   12.5830    5.0970   23.2500 C   0  0  0  0  0  0  0  0  0  0  0  0
   11.4090    5.5800   22.6470 N   0  0  0  0  0  0  0  0  0  0  0  0
   10.3150    6.1310   23.4530 C   0  0  0  0  0  0  0  0  0  0  0  0
    9.1210    6.5640   22.6040 C   0  0  0  0  0  0  0  0  0  0  0  0
   10.3370    6.2550   24.8590 O   0  0  0  0  0  0  0  0  0  0  0  0
  1  2  2  0
  2  3  2  0
  2  4  1  0
  2  5  1  0
  4  6  2  0
  4  7  1  0
  5  8  1  0
  5  9  1  0
  6 10  1  0
  7 11  1  0
  7 12  2  0
  6 13  1  0
  8 14  1  0
  9 15  1  0
 11 16  1  0
 12 17  1  0
 13 17  2  0
 14 18  1  0
 15 18  1  0
 18 19  1  0
 16 20  1  0
 19 21  2  0
 19 22  1  0
 20 23  1  0
 23 24  1  0
 24 25  1  0
 25 26  1  0
 25 27  2  0
 26 28  1  1
 26 29  1  0
 27 30  1  0
 30 31  1  0
 29 32  2  0
 28 33  2  0
 32 33  1  0
 29 34  1  0
 30 34  2  0
 32 35  1  0
 35 36  1  0
 36 37  1  0
 37 38  1  0
 38 39  1  0
 38 40  2  0
M  END
