x0107-x2052
     RDKit          3D

 31 33  0  0  0  0  0  0  0  0999 V2000
    5.9490   -1.6140   25.2070 C   0  0  0  0  0  0  0  0  0  0  0  0
    6.8400   -0.7390   26.0220 N   0  0  0  0  0  0  0  0  0  0  0  0
    6.3760   -0.1550   27.2420 C   0  0  0  0  0  0  0  0  0  0  0  0
    4.5250   -1.6040   25.2790 O   0  0  0  0  0  0  0  0  0  0  0  0
    6.6940   -2.5580   24.2430 C   0  0  2  0  0  0  0  0  0  0  0  0
    7.3020   -1.6920   23.3070 C   0  0  0  0  0  0  0  0  0  0  0  0
    5.7240   -3.5340   23.5850 C   0  0  0  0  0  0  0  0  0  0  0  0
    6.9310   -1.8800   21.9510 C   0  0  1  0  0  0  0  0  0  0  0  0
    6.5800   -4.2410   22.5410 C   0  0  0  0  0  0  0  0  0  0  0  0
    6.8250    1.1560   27.3940 C   0  0  0  0  0  0  0  0  0  0  0  0
    5.5860   -0.6330   28.2780 C   0  0  0  0  0  0  0  0  0  0  0  0
    7.7530   -0.9150   21.1420 N   0  0  0  0  0  0  0  0  0  0  0  0
    6.8480   -3.2960   21.4780 N   0  0  0  0  0  0  0  0  0  0  0  0
    6.5270    1.9470   28.4810 N   0  0  0  0  0  0  0  0  0  0  0  0
    5.2660    0.1240   29.3800 C   0  0  0  0  0  0  0  0  0  0  0  0
    6.4800   -3.6440   20.1870 C   0  0  0  0  0  0  0  0  0  0  0  0
    8.9960   -0.3360   21.6070 C   0  0  0  0  0  0  0  0  0  0  0  0
    5.7540    1.4270   29.4630 C   0  0  0  0  0  0  0  0  0  0  0  0
    6.8470   -0.1400   20.2430 C   0  0  0  0  0  0  0  0  0  0  0  0
    5.5070   -4.3620   19.8970 O   0  0  0  0  0  0  0  0  0  0  0  0
    5.4180    2.1630   30.5820 O   0  0  0  0  0  0  0  0  0  0  0  0
    7.3950   -3.1270   19.1100 C   0  0  0  0  0  0  0  0  0  0  0  0
   10.1190   -1.2870   22.0690 C   0  0  0  0  0  0  0  0  0  0  0  0
    9.2270    0.8880   21.6540 O   0  0  0  0  0  0  0  0  0  0  0  0
    5.8090    0.6510   20.6930 C   0  0  0  0  0  0  0  0  0  0  0  0
    7.1160   -0.2600   18.7840 C   0  0  0  0  0  0  0  0  0  0  0  0
    6.0940    3.4120   30.6540 C   0  0  0  0  0  0  0  0  0  0  0  0
    5.5710    0.7530   22.1720 C   0  0  0  0  0  0  0  0  0  0  0  0
    4.9230    1.4080   19.7060 C   0  0  0  0  0  0  0  0  0  0  0  0
    6.3780    0.3830   17.8360 N   0  0  0  0  0  0  0  0  0  0  0  0
    5.3550    1.1590   18.2620 C   0  0  0  0  0  0  0  0  0  0  0  0
  1  2  1  0
  2  3  1  0
  1  4  2  0
  5  1  1  1
  5  6  1  0
  5  7  1  0
  6  8  1  0
  7  9  1  0
  3 10  2  0
  3 11  1  0
  8 12  1  6
  8 13  1  0
  9 13  1  0
 10 14  1  0
 11 15  2  0
 13 16  1  0
 12 17  1  0
 14 18  2  0
 15 18  1  0
 12 19  1  0
 16 20  2  0
 18 21  1  0
 16 22  1  0
 17 23  1  0
 17 24  2  0
 19 25  2  0
 19 26  1  0
 21 27  1  0
 25 28  1  0
 25 29  1  0
 26 30  2  0
 29 31  2  0
 30 31  1  0
M  END
