x0104-x0770
     RDKit          3D

 26 28  0  0  0  0  0  0  0  0999 V2000
    9.0090    6.5430   22.6540 C   0  0  0  0  0  0  0  0  0  0  0  0
   10.2700    6.1500   23.3840 C   0  0  0  0  0  0  0  0  0  0  0  0
   10.3330    6.2650   24.6110 O   0  0  0  0  0  0  0  0  0  0  0  0
   11.3130    5.6690   22.6110 N   0  0  0  0  0  0  0  0  0  0  0  0
   12.4020    4.9750   23.3160 C   0  0  0  0  0  0  0  0  0  0  0  0
   12.7150    3.5900   22.7140 C   0  0  0  0  0  0  0  0  0  0  0  0
   11.7820    2.4380   23.1020 C   0  0  0  0  0  0  0  0  0  0  0  0
   10.4640    2.6590   23.8330 C   0  0  0  0  0  0  0  0  0  0  0  0
   11.7930    0.8780   23.0060 C   0  0  0  0  0  0  0  0  0  0  0  0
    9.6840    1.4570   24.1040 N   0  0  0  0  0  0  0  0  0  0  0  0
   10.4200    0.5850   23.4110 C   0  0  2  0  0  0  0  0  0  0  0  0
   12.8450    0.0840   22.5050 C   0  0  0  0  0  0  0  0  0  0  0  0
   10.5200   -0.9560   23.5350 C   0  0  0  0  0  0  0  0  0  0  0  0
   12.6870   -1.2550   22.5540 C   0  0  0  0  0  0  0  0  0  0  0  0
   13.5740   -2.1110   22.0840 F   0  0  0  0  0  0  0  0  0  0  0  0
    9.4400   -1.7190   24.0740 C   0  0  0  0  0  0  0  0  0  0  0  0
   11.5730   -1.7170   23.1150 C   0  0  0  0  0  0  0  0  0  0  0  0
    8.3480   -1.9370   23.1840 N   0  0  0  0  0  0  0  0  0  0  0  0
    8.6110   -1.5830   21.7710 C   0  0  0  0  0  0  0  0  0  0  0  0
    7.7440   -3.1290   23.2330 C   0  0  0  0  0  0  0  0  0  0  0  0
    7.3790   -1.3590   21.1880 C   0  0  0  0  0  0  0  0  0  0  0  0
    6.5030   -3.1620   22.5170 C   0  0  0  0  0  0  0  0  0  0  0  0
    6.6110   -2.5990   21.1530 N   0  0  0  0  0  0  0  0  0  0  0  0
    6.3600   -3.2970   19.9370 C   0  0  0  0  0  0  0  0  0  0  0  0
    7.2910   -3.0100   18.7670 C   0  0  0  0  0  0  0  0  0  0  0  0
    5.4540   -4.1420   19.7800 O   0  0  0  0  0  0  0  0  0  0  0  0
  1  2  1  0
  2  3  2  0
  2  4  1  0
  4  5  1  0
  5  6  1  0
  6  7  1  0
  7  8  1  0
  7  9  2  0
  8 10  2  0
  9 11  1  0
 11 10  1  1
  9 12  1  0
 11 13  1  0
 12 14  2  0
 14 15  1  0
 13 16  1  0
 13 17  2  0
 14 17  1  0
 16 18  1  0
 18 19  1  0
 18 20  1  0
 19 21  1  0
 20 22  1  0
 21 23  1  0
 22 23  1  0
 23 24  1  0
 24 25  1  0
 24 26  2  0
M  END
