x0104-x0749
     RDKit          3D

 35 39  0  0  0  0  0  0  0  0999 V2000
    8.8800    6.5260   22.6920 C   0  0  0  0  0  0  0  0  0  0  0  0
   10.1970    6.2280   23.3580 C   0  0  0  0  0  0  0  0  0  0  0  0
   10.3040    6.2940   24.5860 O   0  0  0  0  0  0  0  0  0  0  0  0
   11.2360    5.8820   22.5180 N   0  0  0  0  0  0  0  0  0  0  0  0
   12.3320    5.1190   23.1030 C   0  0  0  0  0  0  0  0  0  0  0  0
   12.4500    3.7490   22.4260 C   0  0  0  0  0  0  0  0  0  0  0  0
   11.7660    2.6110   23.1570 C   0  0  0  0  0  0  0  0  0  0  0  0
   10.4440    2.6480   23.8760 C   0  0  0  0  0  0  0  0  0  0  0  0
   12.1120    1.1560   23.3560 C   0  0  0  0  0  0  0  0  0  0  0  0
   10.0540    1.3720   24.4790 N   0  0  0  0  0  0  0  0  0  0  0  0
   11.1230    0.5760   24.2140 C   0  0  1  0  0  0  0  0  0  0  0  0
   13.2240    0.6090   22.7920 C   0  0  0  0  0  0  0  0  0  0  0  0
   11.2430   -0.3720   23.0680 C   0  0  0  0  0  0  0  0  0  0  0  0
   13.0890   -0.6150   22.2400 C   0  0  0  0  0  0  0  0  0  0  0  0
   11.8930   -1.3160   22.2830 C   0  0  0  0  0  0  0  0  0  0  0  0
   11.6940   -1.3570   23.9280 C   0  0  0  0  0  0  0  0  0  0  0  0
   13.0770   -2.1730   22.2040 C   0  0  0  0  0  0  0  0  0  0  0  0
   10.8860   -2.4030   23.9800 C   0  0  0  0  0  0  0  0  0  0  0  0
   12.8670   -1.3850   24.6870 C   0  0  0  0  0  0  0  0  0  0  0  0
   13.4150   -2.2670   20.9120 F   0  0  0  0  0  0  0  0  0  0  0  0
    9.7470   -2.5830   23.3050 N   0  0  0  0  0  0  0  0  0  0  0  0
   11.3030   -3.3950   24.8140 C   0  0  0  0  0  0  0  0  0  0  0  0
   13.4590   -2.3030   25.5560 C   0  0  0  0  0  0  0  0  0  0  0  0
    9.2480   -3.9450   23.6760 C   0  0  0  0  0  0  0  0  0  0  0  0
   10.2240   -4.7850   24.9140 S   0  0  0  0  0  0  0  0  0  0  0  0
   12.5120   -3.2900   25.5130 C   0  0  0  0  0  0  0  0  0  0  0  0
    8.1560   -4.5520   23.1120 C   0  0  2  0  0  0  0  0  0  0  0  0
    7.5380   -3.6160   22.3330 C   0  0  0  0  0  0  0  0  0  0  0  0
    7.2960   -5.2940   23.8950 C   0  0  0  0  0  0  0  0  0  0  0  0
    6.6380   -4.2930   21.4380 N   0  0  0  0  0  0  0  0  0  0  0  0
    6.6110   -6.1940   23.0550 C   0  0  0  0  0  0  0  0  0  0  0  0
    6.3480   -3.8890   20.1360 C   0  0  0  0  0  0  0  0  0  0  0  0
    6.0760   -5.5620   21.9210 C   0  0  0  0  0  0  0  0  0  0  0  0
    7.4310   -3.1980   19.2750 C   0  0  0  0  0  0  0  0  0  0  0  0
    5.2330   -4.1120   19.6890 O   0  0  0  0  0  0  0  0  0  0  0  0
  1  2  1  0
  2  3  2  0
  2  4  1  0
  4  5  1  0
  5  6  1  0
  6  7  1  0
  7  8  1  0
  7  9  2  0
  8 10  2  0
  9 11  1  0
 11 10  1  6
  9 12  1  0
 11 13  1  0
 12 14  2  0
 13 15  2  0
 14 15  1  0
 13 16  1  0
 15 17  1  0
 16 18  1  0
 16 19  2  0
 17 20  1  0
 18 21  1  0
 18 22  2  0
 19 23  1  0
 21 24  2  0
 22 25  1  0
 24 25  1  0
 22 26  1  0
 23 26  2  0
 27 24  1  1
 27 28  1  0
 27 29  1  0
 28 30  1  0
 29 31  1  0
 30 32  1  0
 30 33  1  0
 31 33  1  0
 32 34  1  0
 32 35  2  0
M  END
