x0104-x1392
     RDKit          3D

 30 33  0  0  0  0  0  0  0  0999 V2000
    8.9800    6.7410   22.6380 C   0  0  0  0  0  0  0  0  0  0  0  0
   10.2330    6.2100   23.2850 C   0  0  0  0  0  0  0  0  0  0  0  0
   10.4120    6.3590   24.4990 O   0  0  0  0  0  0  0  0  0  0  0  0
   11.1200    5.5630   22.4480 N   0  0  0  0  0  0  0  0  0  0  0  0
   12.5230    5.4480   22.8260 C   0  0  0  0  0  0  0  0  0  0  0  0
   13.0410    4.0020   22.8910 C   0  0  0  0  0  0  0  0  0  0  0  0
   11.9960    2.8520   23.0350 C   0  0  0  0  0  0  0  0  0  0  0  0
   10.5800    3.1390   23.5400 C   0  0  0  0  0  0  0  0  0  0  0  0
   11.8830    1.5060   22.8930 C   0  0  0  0  0  0  0  0  0  0  0  0
    9.7270    2.0610   23.6170 N   0  0  0  0  0  0  0  0  0  0  0  0
   10.5350    1.1070   23.0530 C   0  0  2  0  0  0  0  0  0  0  0  0
   12.8390    0.4750   22.5340 C   0  0  0  0  0  0  0  0  0  0  0  0
   10.0400   -0.2980   23.0330 C   0  0  0  0  0  0  0  0  0  0  0  0
   12.4170   -0.8590   22.3670 C   0  0  0  0  0  0  0  0  0  0  0  0
   13.3110   -1.7870   22.0040 F   0  0  0  0  0  0  0  0  0  0  0  0
   11.0820   -1.2810   22.5830 C   0  0  0  0  0  0  0  0  0  0  0  0
   10.7300   -2.7020   22.3470 C   0  0  0  0  0  0  0  0  0  0  0  0
    9.2160   -3.1350   22.1720 C   0  0  2  0  0  0  0  0  0  0  0  0
    8.3780   -2.1520   21.5760 C   0  0  0  0  0  0  0  0  0  0  0  0
    8.7390   -3.7190   23.3400 C   0  0  0  0  0  0  0  0  0  0  0  0
    7.0720   -2.8350   21.3300 N   0  0  0  0  0  0  0  0  0  0  0  0
    7.3510   -3.7590   23.4990 C   0  0  0  0  0  0  0  0  0  0  0  0
    9.6270   -4.2600   24.3030 C   0  0  0  0  0  0  0  0  0  0  0  0
    6.7390   -3.3810   20.0420 C   0  0  0  0  0  0  0  0  0  0  0  0
    6.4390   -3.2440   22.5700 C   0  0  0  0  0  0  0  0  0  0  0  0
    6.8990   -4.4400   24.8080 C   0  0  0  0  0  0  0  0  0  0  0  0
    9.1460   -4.8650   25.4660 C   0  0  0  0  0  0  0  0  0  0  0  0
    5.7640   -4.1550   19.8470 O   0  0  0  0  0  0  0  0  0  0  0  0
    7.6210   -3.0350   18.8570 C   0  0  0  0  0  0  0  0  0  0  0  0
    7.7870   -4.9640   25.7370 C   0  0  0  0  0  0  0  0  0  0  0  0
  1  2  1  0
  2  3  2  0
  2  4  1  0
  4  5  1  0
  5  6  1  0
  6  7  1  0
  7  8  1  0
  7  9  2  0
  8 10  2  0
  9 11  1  0
 10 11  1  0
  9 12  1  0
 11 13  1  1
 12 14  2  0
 14 15  1  0
 13 16  2  0
 14 16  1  0
 16 17  1  0
 18 17  1  1
 18 19  1  0
 18 20  1  0
 19 21  1  0
 20 22  2  0
 20 23  1  0
 21 24  1  0
 21 25  1  0
 22 25  1  0
 22 26  1  0
 23 27  2  0
 24 28  2  0
 24 29  1  0
 26 30  2  0
 27 30  1  0
M  END
