x0104-x1385
     RDKit          3D

 34 37  0  0  0  0  0  0  0  0999 V2000
    8.9140    6.5390   22.6440 C   0  0  0  0  0  0  0  0  0  0  0  0
   10.1780    6.2220   23.4040 C   0  0  0  0  0  0  0  0  0  0  0  0
   10.2200    6.3780   24.6270 O   0  0  0  0  0  0  0  0  0  0  0  0
   11.2430    5.7560   22.6620 N   0  0  0  0  0  0  0  0  0  0  0  0
   12.3230    5.0870   23.3990 C   0  0  0  0  0  0  0  0  0  0  0  0
   12.6830    3.7390   22.7740 C   0  0  0  0  0  0  0  0  0  0  0  0
   11.8010    2.5940   23.1450 C   0  0  0  0  0  0  0  0  0  0  0  0
   10.5380    2.6950   23.7230 C   0  0  0  0  0  0  0  0  0  0  0  0
   11.9790    1.2790   23.0700 C   0  0  0  0  0  0  0  0  0  0  0  0
    9.8200    1.5730   24.0100 N   0  0  0  0  0  0  0  0  0  0  0  0
   10.7730    0.6190   23.4080 C   0  0  2  0  0  0  0  0  0  0  0  0
   13.0180    0.5900   22.6960 C   0  0  0  0  0  0  0  0  0  0  0  0
   11.0310   -0.8400   23.9680 C   0  0  0  0  0  0  0  0  0  0  0  0
   13.1130   -0.6980   22.9770 C   0  0  0  0  0  0  0  0  0  0  0  0
   10.0120   -1.4720   24.6910 C   0  0  0  0  0  0  0  0  0  0  0  0
   12.2070   -1.4010   23.6860 C   0  0  0  0  0  0  0  0  0  0  0  0
    9.5860   -2.8550   24.0750 C   0  0  2  0  0  0  0  0  0  0  0  0
   12.7600   -2.7780   24.0470 C   0  0  0  0  0  0  0  0  0  0  0  0
   13.6320   -3.0610   23.0750 F   0  0  0  0  0  0  0  0  0  0  0  0
    8.5460   -2.7200   23.1550 N   0  0  0  0  0  0  0  0  0  0  0  0
    9.2340   -3.9130   25.1130 C   0  0  0  0  0  0  0  0  0  0  0  0
    7.4970   -3.7050   22.9740 C   0  0  0  0  0  0  0  0  0  0  0  0
    8.8060   -2.0790   22.0010 C   0  0  0  0  0  0  0  0  0  0  0  0
    9.7980   -5.2070   25.3160 C   0  0  0  0  0  0  0  0  0  0  0  0
    7.8730   -3.6840   26.4090 S   0  0  0  0  0  0  0  0  0  0  0  0
    6.3250   -3.2990   22.3450 C   0  0  0  0  0  0  0  0  0  0  0  0
    7.7000   -1.6470   21.2720 C   0  0  0  0  0  0  0  0  0  0  0  0
    8.2070   -5.2630   27.0380 C   0  0  0  0  0  0  0  0  0  0  0  0
    9.1990   -6.0330   26.4700 C   0  0  0  0  0  0  0  0  0  0  0  0
    7.1600   -5.8670   28.5060 Br  0  0  0  0  0  0  0  0  0  0  0  0
    6.5510   -2.5730   21.0950 N   0  0  0  0  0  0  0  0  0  0  0  0
    6.4050   -3.2010   19.8470 C   0  0  0  0  0  0  0  0  0  0  0  0
    7.4690   -2.9990   18.7680 C   0  0  0  0  0  0  0  0  0  0  0  0
    5.4380   -3.9470   19.6350 O   0  0  0  0  0  0  0  0  0  0  0  0
  1  2  1  0
  2  3  2  0
  2  4  1  0
  4  5  1  0
  5  6  1  0
  6  7  1  0
  7  8  1  0
  7  9  2  0
  8 10  2  0
  9 11  1  0
 11 10  1  1
  9 12  1  0
 11 13  1  0
 12 14  2  0
 13 15  1  0
 13 16  2  0
 14 16  1  0
 17 15  1  1
 16 18  1  0
 18 19  1  0
 17 20  1  0
 17 21  1  0
 20 22  1  0
 20 23  1  0
 21 24  2  0
 21 25  1  0
 22 26  1  0
 23 27  1  0
 25 28  1  0
 24 29  1  0
 28 29  2  0
 28 30  1  0
 26 31  1  0
 27 31  1  0
 31 32  1  0
 32 33  1  0
 32 34  2  0
M  END
