x0107-x1380
     RDKit          3D

 29 31  0  0  0  0  0  0  0  0999 V2000
    7.2580   -3.3360   19.3250 C   0  0  0  0  0  0  0  0  0  0  0  0
    6.4020   -4.1670   20.2630 C   0  0  0  0  0  0  0  0  0  0  0  0
    5.3180   -4.6230   19.9290 O   0  0  0  0  0  0  0  0  0  0  0  0
    6.9720   -4.4560   21.5120 N   0  0  0  0  0  0  0  0  0  0  0  0
    6.3420   -5.4240   22.3700 C   0  0  0  0  0  0  0  0  0  0  0  0
    7.9520   -3.6040   22.2230 C   0  0  0  0  0  0  0  0  0  0  0  0
    6.1970   -4.9670   23.6720 C   0  0  0  0  0  0  0  0  0  0  0  0
    7.2690   -2.7920   23.3260 C   0  0  1  0  0  0  0  0  0  0  0  0
    6.8110   -1.4200   22.6850 C   0  0  0  0  0  0  0  0  0  0  0  0
    6.1190   -3.4370   23.9030 C   0  0  2  0  0  0  0  0  0  0  0  0
    5.9650   -2.9330   25.3270 C   0  0  0  0  0  0  0  0  0  0  0  0
    7.6230   -0.8320   21.5470 N   0  0  0  0  0  0  0  0  0  0  0  0
    5.1880   -1.9990   25.5110 O   0  0  0  0  0  0  0  0  0  0  0  0
    8.9310   -0.3250   21.8060 C   0  0  0  0  0  0  0  0  0  0  0  0
    6.5940   -3.4910   26.3500 N   0  0  0  0  0  0  0  0  0  0  0  0
    6.8320   -0.1920   20.4770 C   0  0  0  0  0  0  0  0  0  0  0  0
   10.0470   -1.2520   22.2190 C   0  0  0  0  0  0  0  0  0  0  0  0
    9.2800    0.8650   21.7130 O   0  0  0  0  0  0  0  0  0  0  0  0
    7.8710   -4.2220   26.4300 C   0  0  0  0  0  0  0  0  0  0  0  0
    5.9240   -3.4020   27.5770 C   0  0  0  0  0  0  0  0  0  0  0  0
    5.7550    0.6130   20.7940 C   0  0  0  0  0  0  0  0  0  0  0  0
    7.1340   -0.3640   19.0160 C   0  0  0  0  0  0  0  0  0  0  0  0
    5.2990    0.9060   22.1950 C   0  0  0  0  0  0  0  0  0  0  0  0
    7.8730   -5.4150   27.3730 C   0  0  0  0  0  0  0  0  0  0  0  0
    5.9630   -4.6380   28.4190 C   0  0  0  0  0  0  0  0  0  0  0  0
    4.9470    1.2720   19.6740 C   0  0  0  0  0  0  0  0  0  0  0  0
    6.4160    0.2330   17.8870 N   0  0  0  0  0  0  0  0  0  0  0  0
    7.3030   -4.9620   28.5590 C   0  0  0  0  0  0  0  0  0  0  0  0
    5.3590    1.0220   18.2320 C   0  0  0  0  0  0  0  0  0  0  0  0
  1  2  1  0
  2  3  2  0
  2  4  1  0
  4  5  1  0
  4  6  1  0
  5  7  1  0
  6  8  1  0
  8  9  1  6
  7 10  1  0
  8 10  1  0
 10 11  1  1
  9 12  1  0
 11 13  2  0
 12 14  1  0
 11 15  1  0
 12 16  1  0
 14 17  1  0
 14 18  2  0
 15 19  1  0
 15 20  1  0
 16 21  2  0
 16 22  1  0
 21 23  1  0
 19 24  1  0
 20 25  1  0
 21 26  1  0
 22 27  2  0
 24 28  1  0
 25 28  1  0
 26 29  2  0
 27 29  1  0
M  END
