x0104-x2569
     RDKit          3D

 27 29  0  0  0  0  0  0  0  0999 V2000
    9.0220    6.5140   22.6850 C   0  0  0  0  0  0  0  0  0  0  0  0
   10.3240    6.1460   23.3550 C   0  0  0  0  0  0  0  0  0  0  0  0
   10.4390    6.2590   24.5780 O   0  0  0  0  0  0  0  0  0  0  0  0
   11.3330    5.6870   22.5260 N   0  0  0  0  0  0  0  0  0  0  0  0
   12.4270    4.9150   23.1350 C   0  0  0  0  0  0  0  0  0  0  0  0
   12.6230    3.5410   22.4680 C   0  0  0  0  0  0  0  0  0  0  0  0
   11.8660    2.3940   23.1280 C   0  0  0  0  0  0  0  0  0  0  0  0
   10.6040    2.6030   23.9070 C   0  0  0  0  0  0  0  0  0  0  0  0
   11.9560    0.8680   23.2760 C   0  0  0  0  0  0  0  0  0  0  0  0
    9.9860    1.5490   24.4980 N   0  0  0  0  0  0  0  0  0  0  0  0
   10.8450    0.5470   24.1630 C   0  0  1  0  0  0  0  0  0  0  0  0
   12.9140   -0.0300   22.7530 C   0  0  0  0  0  0  0  0  0  0  0  0
   10.2890   -0.3310   23.0390 C   0  0  0  0  0  0  0  0  0  0  0  0
   12.3820   -1.1180   22.1330 C   0  0  0  0  0  0  0  0  0  0  0  0
   13.0780   -2.2810   21.4140 C   0  0  0  0  0  0  0  0  0  0  0  0
    8.8810   -0.4280   22.9060 C   0  0  0  0  0  0  0  0  0  0  0  0
   11.0470   -1.0750   22.1700 C   0  0  0  0  0  0  0  0  0  0  0  0
    8.4110    0.2070   21.7290 C   0  0  0  0  0  0  0  0  0  0  0  0
   13.5560   -3.3260   20.6940 N   0  0  0  0  0  0  0  0  0  0  0  0
    9.0100    1.2100   21.2780 O   0  0  0  0  0  0  0  0  0  0  0  0
    7.2610   -0.3400   21.1670 N   0  0  0  0  0  0  0  0  0  0  0  0
    6.5000    0.2710   20.0840 C   0  0  0  0  0  0  0  0  0  0  0  0
    6.9770    0.0450   18.8130 C   0  0  0  0  0  0  0  0  0  0  0  0
    5.3620    1.0350   20.3210 C   0  0  0  0  0  0  0  0  0  0  0  0
    6.3820    0.5600   17.7230 N   0  0  0  0  0  0  0  0  0  0  0  0
    4.7460    1.5590   19.1900 C   0  0  0  0  0  0  0  0  0  0  0  0
    5.2580    1.3230   17.9160 C   0  0  0  0  0  0  0  0  0  0  0  0
  1  2  1  0
  2  3  2  0
  2  4  1  0
  4  5  1  0
  5  6  1  0
  6  7  1  0
  7  8  1  0
  7  9  2  0
  8 10  2  0
  9 11  1  0
 11 10  1  6
  9 12  1  0
 11 13  1  0
 12 14  2  0
 14 15  1  0
 13 16  1  0
 13 17  2  0
 14 17  1  0
 16 18  1  0
 15 19  3  0
 18 20  2  0
 18 21  1  0
 21 22  1  0
 22 23  2  0
 22 24  1  0
 23 25  1  0
 24 26  2  0
 25 27  2  0
 26 27  1  0
M  END
