x0104-x3108
     RDKit          3D

 37 41  0  0  0  0  0  0  0  0999 V2000
    5.8190    1.7230   21.9040 C   0  0  0  0  0  0  0  0  0  0  0  0
    6.0120    1.0790   20.4940 C   0  0  0  0  0  0  0  0  0  0  0  0
    7.0350    0.1920   20.1710 C   0  0  0  0  0  0  0  0  0  0  0  0
    5.1120    1.4040   19.4710 C   0  0  0  0  0  0  0  0  0  0  0  0
    7.9210   -0.0530   21.2980 N   0  0  0  0  0  0  0  0  0  0  0  0
    7.1520   -0.3460   18.9080 C   0  0  0  0  0  0  0  0  0  0  0  0
    5.2210    0.8740   18.1830 C   0  0  0  0  0  0  0  0  0  0  0  0
    8.6160    0.8570   21.8310 C   0  0  0  0  0  0  0  0  0  0  0  0
    6.2350    0.0180   17.9380 N   0  0  0  0  0  0  0  0  0  0  0  0
    9.0760    1.8440   21.2330 O   0  0  0  0  0  0  0  0  0  0  0  0
    8.8540    0.7690   23.3330 C   0  0  1  0  0  0  0  0  0  0  0  0
    9.3530   -0.4510   23.6920 N   0  0  0  0  0  0  0  0  0  0  0  0
    9.8100    1.9700   23.5610 C   0  0  0  0  0  0  0  0  0  0  0  0
    8.8580   -1.0620   24.8470 C   0  0  0  0  0  0  0  0  0  0  0  0
   10.8760    2.8790   23.6240 C   0  0  0  0  0  0  0  0  0  0  0  0
   10.8720    1.0280   22.9590 C   0  0  2  0  0  0  0  0  0  0  0  0
   10.6140   -0.3150   23.1950 C   0  0  0  0  0  0  0  0  0  0  0  0
    9.2850   -0.7290   25.9480 O   0  0  0  0  0  0  0  0  0  0  0  0
    7.7280   -2.1010   24.7030 C   0  0  0  0  0  0  0  0  0  0  0  0
   12.1060    2.6430   23.1350 C   0  0  0  0  0  0  0  0  0  0  0  0
   12.2020    1.3620   22.8950 C   0  0  0  0  0  0  0  0  0  0  0  0
   11.5250   -1.2500   22.8760 C   0  0  0  0  0  0  0  0  0  0  0  0
   13.0570    3.8750   22.9870 C   0  0  0  0  0  0  0  0  0  0  0  0
    8.2960   -3.4330   25.2360 C   0  0  0  0  0  0  0  0  0  0  0  0
   12.7320   -0.9440   22.4480 C   0  0  0  0  0  0  0  0  0  0  0  0
   13.1400    0.3830   22.4840 C   0  0  0  0  0  0  0  0  0  0  0  0
   12.5780    5.1410   22.5900 C   0  0  0  0  0  0  0  0  0  0  0  0
   13.5390   -1.9040   22.0250 F   0  0  0  0  0  0  0  0  0  0  0  0
    9.2000   -4.0580   24.3970 C   0  0  0  0  0  0  0  0  0  0  0  0
    7.8910   -3.9210   26.4640 C   0  0  0  0  0  0  0  0  0  0  0  0
   11.2220    5.1670   22.5330 N   0  0  0  0  0  0  0  0  0  0  0  0
    9.7680   -5.2200   24.7330 N   0  0  0  0  0  0  0  0  0  0  0  0
    8.4680   -5.1380   26.8440 C   0  0  0  0  0  0  0  0  0  0  0  0
   10.4710    5.9740   23.3240 C   0  0  0  0  0  0  0  0  0  0  0  0
    9.3840   -5.7480   25.9750 C   0  0  0  0  0  0  0  0  0  0  0  0
    9.3450    6.5020   22.6670 C   0  0  0  0  0  0  0  0  0  0  0  0
   10.7220    6.2340   24.5070 O   0  0  0  0  0  0  0  0  0  0  0  0
  1  2  1  0
  2  3  2  0
  2  4  1  0
  3  5  1  0
  3  6  1  0
  4  7  2  0
  5  8  1  0
  6  9  2  0
  7  9  1  0
  8 10  2  0
 11  8  1  6
 11 12  1  0
 11 13  1  0
 12 14  1  0
 13 15  2  0
 16 13  1  1
 12 17  1  0
 16 17  1  0
 14 18  2  0
 14 19  1  0
 15 20  1  0
 16 21  1  0
 20 21  2  0
 17 22  2  0
 20 23  1  0
 19 24  1  0
 22 25  1  0
 21 26  1  0
 25 26  2  0
 23 27  1  0
 25 28  1  0
 24 29  2  0
 24 30  1  0
 27 31  1  0
 29 32  1  0
 30 33  2  0
 31 34  1  0
 32 35  2  0
 33 35  1  0
 34 36  1  0
 34 37  2  0
M  END
