x0104-x1458
     RDKit          3D

 35 37  0  0  0  0  0  0  0  0999 V2000
    7.4070   -3.3060   26.5530 N   0  0  0  0  0  0  0  0  0  0  0  0
    7.7950   -4.2210   27.4020 C   0  0  0  0  0  0  0  0  0  0  0  0
    9.2030   -4.7390   27.0760 C   0  0  0  0  0  0  0  0  0  0  0  0
    8.0810   -1.9790   26.4360 C   0  0  0  0  0  0  0  0  0  0  0  0
    6.4550   -3.6840   25.5220 C   0  0  0  0  0  0  0  0  0  0  0  0
    5.0350   -3.6030   25.6810 O   0  0  0  0  0  0  0  0  0  0  0  0
    6.8510   -5.4230   27.4640 C   0  0  0  0  0  0  0  0  0  0  0  0
    7.2530   -0.8460   25.7820 C   0  0  0  0  0  0  0  0  0  0  0  0
    6.9830   -4.1510   24.2260 C   0  0  0  0  0  0  0  0  0  0  0  0
    7.9470   -0.0690   24.8130 C   0  0  0  0  0  0  0  0  0  0  0  0
    7.2770   -3.0550   23.4160 C   0  0  0  0  0  0  0  0  0  0  0  0
    6.0580   -5.0310   23.6250 C   0  0  0  0  0  0  0  0  0  0  0  0
    8.8210    0.9420   25.2380 C   0  0  0  0  0  0  0  0  0  0  0  0
    7.6630   -3.3110   22.1110 C   0  0  0  0  0  0  0  0  0  0  0  0
    6.4940   -5.4630   22.3660 C   0  0  0  0  0  0  0  0  0  0  0  0
    6.7200   -4.2740   21.5560 N   0  0  0  0  0  0  0  0  0  0  0  0
    9.9350    1.1530   24.4580 N   0  0  0  0  0  0  0  0  0  0  0  0
    6.2360   -4.0960   20.2550 C   0  0  0  0  0  0  0  0  0  0  0  0
   10.5190    2.4830   24.0950 C   0  0  0  0  0  0  0  0  0  0  0  0
   10.7390    0.2240   23.8560 C   0  0  0  0  0  0  0  0  0  0  0  0
    5.1950   -4.6180   19.8950 O   0  0  0  0  0  0  0  0  0  0  0  0
    7.0680   -3.2830   19.2680 C   0  0  0  0  0  0  0  0  0  0  0  0
   11.6630    2.3660   23.3010 C   0  0  0  0  0  0  0  0  0  0  0  0
   11.8160    0.9180   23.1560 C   0  0  0  0  0  0  0  0  0  0  0  0
   10.6720   -1.1680   23.8250 C   0  0  0  0  0  0  0  0  0  0  0  0
   12.5070    3.4900   22.7320 C   0  0  0  0  0  0  0  0  0  0  0  0
   11.6440   -1.8420   23.1100 C   0  0  0  0  0  0  0  0  0  0  0  0
   12.7790    0.1570   22.4800 C   0  0  0  0  0  0  0  0  0  0  0  0
   12.2620    4.7840   23.2350 C   0  0  0  0  0  0  0  0  0  0  0  0
   12.6570   -1.2270   22.4610 C   0  0  0  0  0  0  0  0  0  0  0  0
   11.2970    5.5390   22.6300 N   0  0  0  0  0  0  0  0  0  0  0  0
   13.5310   -1.9750   21.8010 F   0  0  0  0  0  0  0  0  0  0  0  0
   10.3140    6.1090   23.3480 C   0  0  0  0  0  0  0  0  0  0  0  0
    9.1790    6.5120   22.6460 C   0  0  0  0  0  0  0  0  0  0  0  0
   10.3850    6.3020   24.6910 O   0  0  0  0  0  0  0  0  0  0  0  0
  1  2  1  0
  2  3  1  0
  1  4  1  0
  1  5  1  0
  5  6  2  0
  2  7  1  0
  4  8  1  0
  5  9  1  0
  8 10  1  0
  9 11  1  0
  9 12  1  0
 10 13  1  0
 11 14  1  0
 12 15  1  0
 14 16  1  0
 15 16  1  0
 13 17  1  0
 16 18  1  0
 17 19  1  0
 17 20  1  0
 18 21  2  0
 18 22  1  0
 19 23  2  0
 20 24  2  0
 23 24  1  0
 20 25  1  0
 23 26  1  0
 25 27  2  0
 24 28  1  0
 26 29  1  0
 27 30  1  0
 28 30  2  0
 29 31  1  0
 30 32  1  0
 31 33  1  0
 33 34  1  0
 33 35  2  0
M  END
