x0104-x1375
     RDKit          3D

 38 42  0  0  0  0  0  0  0  0999 V2000
    5.6110   -5.0750   20.0810 O   0  0  0  0  0  0  0  0  0  0  0  0
    6.4150   -4.4260   20.7760 C   0  0  0  0  0  0  0  0  0  0  0  0
    7.3960   -3.4650   20.0470 C   0  0  0  0  0  0  0  0  0  0  0  0
    6.3790   -4.5280   22.2390 N   0  0  0  0  0  0  0  0  0  0  0  0
    7.5740   -4.3910   23.0680 C   0  0  0  0  0  0  0  0  0  0  0  0
    5.4340   -5.1520   23.0690 C   0  0  1  0  0  0  0  0  0  0  0  0
    8.0840   -3.1530   23.4890 C   0  0  0  0  0  0  0  0  0  0  0  0
    8.1590   -5.6130   23.4310 C   0  0  0  0  0  0  0  0  0  0  0  0
    4.3500   -4.3480   23.7870 C   0  0  0  0  0  0  0  0  0  0  0  0
    4.9770   -6.4170   22.7690 C   0  0  0  0  0  0  0  0  0  0  0  0
    9.3380   -3.0940   24.3840 C   0  0  0  0  0  0  0  0  0  0  0  0
    9.2820   -5.6940   24.2270 C   0  0  0  0  0  0  0  0  0  0  0  0
    3.7640   -6.8150   23.9430 S   0  0  0  0  0  0  0  0  0  0  0  0
    3.3650   -5.2130   24.3330 C   0  0  0  0  0  0  0  0  0  0  0  0
    2.7650   -7.4690   23.1480 O   0  0  0  0  0  0  0  0  0  0  0  0
    4.4220   -7.5870   24.9680 O   0  0  0  0  0  0  0  0  0  0  0  0
    9.9360   -4.4280   24.7400 C   0  0  0  0  0  0  0  0  0  0  0  0
   10.9300   -4.5920   25.4210 O   0  0  0  0  0  0  0  0  0  0  0  0
   11.7820   -3.4690   25.6800 C   0  0  0  0  0  0  0  0  0  0  0  0
   12.6270   -2.9230   24.7120 C   0  0  0  0  0  0  0  0  0  0  0  0
   12.1380   -2.5150   23.4970 C   0  0  2  0  0  0  0  0  0  0  0  0
   13.0870   -2.5170   22.4990 C   0  0  0  0  0  0  0  0  0  0  0  0
   11.7710   -1.0870   23.3560 C   0  0  0  0  0  0  0  0  0  0  0  0
   13.8500   -1.3640   22.5180 O   0  0  0  0  0  0  0  0  0  0  0  0
   10.6360   -0.3170   23.6150 C   0  0  0  0  0  0  0  0  0  0  0  0
   12.9160   -0.5000   22.8520 C   0  0  0  0  0  0  0  0  0  0  0  0
   10.6590    1.1340   23.2650 C   0  0  1  0  0  0  0  0  0  0  0  0
   13.0780    0.8260   22.7310 C   0  0  0  0  0  0  0  0  0  0  0  0
    9.8000    2.0060   23.8230 N   0  0  0  0  0  0  0  0  0  0  0  0
   12.0450    1.6970   23.0580 C   0  0  0  0  0  0  0  0  0  0  0  0
   12.0120    3.0100   23.1660 C   0  0  0  0  0  0  0  0  0  0  0  0
   10.5650    3.0650   23.6870 C   0  0  0  0  0  0  0  0  0  0  0  0
   13.0090    4.1270   22.9600 C   0  0  0  0  0  0  0  0  0  0  0  0
   12.4560    5.5470   22.8810 C   0  0  0  0  0  0  0  0  0  0  0  0
   11.0400    5.6020   22.5020 N   0  0  0  0  0  0  0  0  0  0  0  0
   10.0340    6.2450   23.3220 C   0  0  0  0  0  0  0  0  0  0  0  0
    8.7580    6.7070   22.6130 C   0  0  0  0  0  0  0  0  0  0  0  0
   10.2560    6.3840   24.5390 O   0  0  0  0  0  0  0  0  0  0  0  0
  1  2  2  0
  2  3  1  0
  2  4  1  0
  4  5  1  0
  6  4  1  6
  5  7  2  0
  5  8  1  0
  6  9  1  0
  6 10  1  0
  7 11  1  0
  8 12  2  0
 10 13  1  0
  9 14  2  0
 13 14  1  0
 13 15  1  0
 13 16  1  0
 11 17  2  0
 12 17  1  0
 17 18  1  0
 18 19  1  0
 19 20  1  0
 21 20  1  1
 21 22  1  0
 21 23  1  0
 22 24  1  0
 23 25  2  0
 23 26  1  0
 24 26  1  0
 27 25  1  1
 26 28  2  0
 27 29  1  0
 27 30  1  0
 28 30  1  0
 30 31  2  0
 29 32  2  0
 31 32  1  0
 31 33  1  0
 33 34  1  0
 34 35  1  0
 35 36  1  0
 36 37  1  0
 36 38  2  0
M  END
