x0107-x2694
     RDKit          3D

 33 35  0  0  0  0  0  0  0  0999 V2000
    7.1010   -1.2770   21.7420 N   0  0  0  0  0  0  0  0  0  0  0  0
    5.8630   -2.1820   21.4990 C   0  0  0  0  0  0  0  0  0  0  0  0
    4.9670   -3.1950   21.2510 O   0  0  0  0  0  0  0  0  0  0  0  0
    6.8340    0.1190   21.5900 C   0  0  1  0  0  0  0  0  0  0  0  0
    8.3660   -1.4460   22.5290 C   0  0  0  0  0  0  0  0  0  0  0  0
    6.8730   -3.3070   21.3270 C   0  0  0  0  0  0  0  0  0  0  0  0
    7.8600    1.1350   21.8000 C   0  0  0  0  0  0  0  0  0  0  0  0
    6.2930    0.4950   20.2520 C   0  0  0  0  0  0  0  0  0  0  0  0
    8.4680   -1.7850   23.9500 N   0  0  0  0  0  0  0  0  0  0  0  0
    9.6380   -1.2790   21.9990 C   0  0  0  0  0  0  0  0  0  0  0  0
    6.6710   -3.9280   19.9490 C   0  0  0  0  0  0  0  0  0  0  0  0
    7.6540    2.0990   22.7680 N   0  0  0  0  0  0  0  0  0  0  0  0
    8.8700    1.1840   21.0960 O   0  0  0  0  0  0  0  0  0  0  0  0
    5.0750    1.4010   20.1800 C   0  0  0  0  0  0  0  0  0  0  0  0
    6.8960    0.0410   19.0880 C   0  0  0  0  0  0  0  0  0  0  0  0
    9.9000   -1.8060   24.2310 O   0  0  0  0  0  0  0  0  0  0  0  0
   10.6750   -1.5120   23.1160 C   0  0  0  0  0  0  0  0  0  0  0  0
   12.2050   -1.4940   23.2650 C   0  0  0  0  0  0  0  0  0  0  0  0
    6.3870    0.4300   17.9080 N   0  0  0  0  0  0  0  0  0  0  0  0
    4.5110    1.8250   19.0280 C   0  0  0  0  0  0  0  0  0  0  0  0
    8.4890    3.2450   23.0080 C   0  0  0  0  0  0  0  0  0  0  0  0
   12.5500   -0.1550   23.4750 C   0  0  0  0  0  0  0  0  0  0  0  0
   12.7540   -2.0830   21.9930 C   0  0  0  0  0  0  0  0  0  0  0  0
   12.5640   -2.4630   24.3470 C   0  0  0  0  0  0  0  0  0  0  0  0
    5.2140    1.3140   17.8160 C   0  0  0  0  0  0  0  0  0  0  0  0
    9.7650    3.0980   23.5730 C   0  0  0  0  0  0  0  0  0  0  0  0
    8.0350    4.5310   22.6780 C   0  0  0  0  0  0  0  0  0  0  0  0
   10.2550    1.7260   23.9380 C   0  0  0  0  0  0  0  0  0  0  0  0
   10.6840    4.3200   23.8370 C   0  0  0  0  0  0  0  0  0  0  0  0
    8.8500    5.7940   22.9090 C   0  0  0  0  0  0  0  0  0  0  0  0
   10.1160    5.6810   23.4690 C   0  0  0  0  0  0  0  0  0  0  0  0
   10.8040    6.8510   23.6660 O   0  0  0  0  0  0  0  0  0  0  0  0
   11.8300    6.8070   24.6630 C   0  0  0  0  0  0  0  0  0  0  0  0
  1  2  1  0
  2  3  2  0
  1  4  1  0
  1  5  1  0
  2  6  1  0
  4  7  1  6
  4  8  1  0
  5  9  2  0
  5 10  1  0
  6 11  1  0
  7 12  1  0
  7 13  2  0
  8 14  2  0
  8 15  1  0
  9 16  1  0
 10 17  2  0
 16 17  1  0
 17 18  1  0
 15 19  2  0
 14 20  1  0
 12 21  1  0
 18 22  1  0
 18 23  1  0
 18 24  1  0
 19 25  1  0
 20 25  2  0
 21 26  2  0
 21 27  1  0
 26 28  1  0
 26 29  1  0
 27 30  2  0
 29 31  2  0
 30 31  1  0
 31 32  1  0
 32 33  1  0
M  END
