x0104-x0771
     RDKit          3D

 40 44  0  0  0  0  0  0  0  0999 V2000
    0.4740   -1.6040   26.2300 C   0  0  0  0  0  0  0  0  0  0  0  0
    1.7130   -2.4960   26.0770 C   0  0  0  0  0  0  0  0  0  0  0  0
    2.9900   -2.0180   26.4030 C   0  0  0  0  0  0  0  0  0  0  0  0
    1.5670   -3.8020   25.6120 C   0  0  0  0  0  0  0  0  0  0  0  0
    2.5790   -4.6440   25.4620 C   0  0  0  0  0  0  0  0  0  0  0  0
    4.0810   -2.8840   26.2570 C   0  0  0  0  0  0  0  0  0  0  0  0
    2.3320   -6.0570   24.9510 C   0  0  0  0  0  0  0  0  0  0  0  0
    3.8580   -4.1760   25.7960 C   0  0  0  0  0  0  0  0  0  0  0  0
    5.2180   -5.3200   25.6190 S   0  0  0  0  0  0  0  0  0  0  0  0
    4.6790   -6.6620   25.5630 O   0  0  0  0  0  0  0  0  0  0  0  0
    6.1410   -4.9770   26.6640 O   0  0  0  0  0  0  0  0  0  0  0  0
    5.9630   -4.9730   24.1000 N   0  0  0  0  0  0  0  0  0  0  0  0
    5.5700   -5.7150   22.9170 C   0  0  0  0  0  0  0  0  0  0  0  0
    6.8860   -3.8200   23.8370 C   0  0  0  0  0  0  0  0  0  0  0  0
    6.5150   -5.9610   21.9600 C   0  0  0  0  0  0  0  0  0  0  0  0
    7.9570   -4.0770   22.7260 C   0  0  2  0  0  0  0  0  0  0  0  0
    8.8040   -2.7620   22.2980 C   0  0  0  0  0  0  0  0  0  0  0  0
    7.1590   -4.6810   21.5870 N   0  0  0  0  0  0  0  0  0  0  0  0
    6.7310   -4.1070   20.3530 C   0  0  0  0  0  0  0  0  0  0  0  0
   10.3180   -2.4390   22.7330 C   0  0  1  0  0  0  0  0  0  0  0  0
    5.5940   -4.3640   19.9180 O   0  0  0  0  0  0  0  0  0  0  0  0
    7.6170   -3.2560   19.4340 C   0  0  0  0  0  0  0  0  0  0  0  0
   11.3370   -2.4040   21.7960 C   0  0  0  0  0  0  0  0  0  0  0  0
   10.6240   -0.9870   22.9200 C   0  0  0  0  0  0  0  0  0  0  0  0
   12.5870   -2.6520   22.3900 C   0  0  0  0  0  0  0  0  0  0  0  0
    9.6770   -0.0600   22.9440 C   0  0  0  0  0  0  0  0  0  0  0  0
   12.0520   -0.6020   23.0510 C   0  0  0  0  0  0  0  0  0  0  0  0
   12.9750   -1.5580   23.1100 O   0  0  0  0  0  0  0  0  0  0  0  0
   10.0530    1.3400   23.1600 C   0  0  2  0  0  0  0  0  0  0  0  0
   12.3950    0.7430   23.0810 C   0  0  0  0  0  0  0  0  0  0  0  0
    9.2690    2.3180   22.8050 N   0  0  0  0  0  0  0  0  0  0  0  0
   11.3720    1.6340   22.9840 C   0  0  0  0  0  0  0  0  0  0  0  0
   11.5350    2.9310   22.7090 C   0  0  0  0  0  0  0  0  0  0  0  0
   10.2640    3.3550   22.6110 C   0  0  0  0  0  0  0  0  0  0  0  0
   12.7290    3.8240   22.4570 C   0  0  0  0  0  0  0  0  0  0  0  0
   12.5550    5.0660   23.1070 C   0  0  0  0  0  0  0  0  0  0  0  0
   11.4800    5.7770   22.5760 N   0  0  0  0  0  0  0  0  0  0  0  0
   10.4210    6.2500   23.4420 C   0  0  0  0  0  0  0  0  0  0  0  0
    9.1540    6.6720   22.6430 C   0  0  0  0  0  0  0  0  0  0  0  0
   10.4690    6.3160   24.6680 O   0  0  0  0  0  0  0  0  0  0  0  0
  1  2  1  0
  2  3  2  0
  2  4  1  0
  4  5  2  0
  3  6  1  0
  5  7  1  0
  5  8  1  0
  6  8  2  0
  9  8  1  0
  9 10  2  0
  9 11  2  0
  9 12  1  0
 12 13  1  0
 12 14  1  0
 13 15  1  0
 14 16  1  0
 16 17  1  6
 15 18  1  0
 16 18  1  0
 18 19  1  0
 20 17  1  6
 19 21  2  0
 19 22  1  0
 20 23  1  0
 20 24  1  0
 23 25  1  0
 24 26  2  0
 24 27  1  0
 25 28  1  0
 27 28  1  0
 29 26  1  6
 27 30  2  0
 29 31  1  0
 29 32  1  0
 30 32  1  0
 32 33  2  0
 31 34  2  0
 33 34  1  0
 33 35  1  0
 35 36  1  0
 36 37  1  0
 37 38  1  0
 38 39  1  0
 38 40  2  0
M  END
