x0104-x1425
     RDKit          3D

 36 40  0  0  0  0  0  0  0  0999 V2000
    8.9600    6.6100   22.5960 C   0  0  0  0  0  0  0  0  0  0  0  0
   10.1890    6.2040   23.3670 C   0  0  0  0  0  0  0  0  0  0  0  0
   10.2160    6.3330   24.5940 O   0  0  0  0  0  0  0  0  0  0  0  0
   11.2440    5.6920   22.6380 N   0  0  0  0  0  0  0  0  0  0  0  0
   12.2410    4.9340   23.4010 C   0  0  0  0  0  0  0  0  0  0  0  0
   12.6670    3.6300   22.7110 C   0  0  0  0  0  0  0  0  0  0  0  0
   11.7090    2.4630   22.8580 C   0  0  0  0  0  0  0  0  0  0  0  0
   10.3810    2.5150   23.0630 C   0  0  0  0  0  0  0  0  0  0  0  0
   11.9110    0.9860   22.7970 C   0  0  0  0  0  0  0  0  0  0  0  0
    9.3680    1.4010   23.1690 N   0  0  0  0  0  0  0  0  0  0  0  0
   10.5730    0.4750   22.9660 C   0  0  0  0  0  0  0  0  0  0  0  0
   12.9740    0.1080   22.6210 C   0  0  0  0  0  0  0  0  0  0  0  0
    8.5520    0.2820   23.2460 C   0  0  0  0  0  0  0  0  0  0  0  0
   10.3920   -0.9290   22.9320 C   0  0  0  0  0  0  0  0  0  0  0  0
   12.7340   -1.2390   22.6000 C   0  0  0  0  0  0  0  0  0  0  0  0
   13.7030   -2.0900   22.4270 F   0  0  0  0  0  0  0  0  0  0  0  0
    9.0020   -1.1200   23.1000 C   0  0  2  0  0  0  0  0  0  0  0  0
   11.4860   -1.7490   22.7500 C   0  0  0  0  0  0  0  0  0  0  0  0
    8.3460   -1.9540   21.9390 C   0  0  0  0  0  0  0  0  0  0  0  0
    7.4750   -3.1470   22.4760 C   0  0  2  0  0  0  0  0  0  0  0  0
    6.9580   -4.2050   21.5660 N   0  0  0  0  0  0  0  0  0  0  0  0
    6.4210   -2.7070   23.1860 C   0  0  0  0  0  0  0  0  0  0  0  0
    6.4340   -3.9740   20.2610 C   0  0  0  0  0  0  0  0  0  0  0  0
    5.5810   -3.7430   23.7720 N   0  0  0  0  0  0  0  0  0  0  0  0
    6.5220   -5.2730   22.2760 C   0  0  0  0  0  0  0  0  0  0  0  0
    5.3610   -4.4670   19.9000 O   0  0  0  0  0  0  0  0  0  0  0  0
    7.2500   -3.1970   19.2480 C   0  0  0  0  0  0  0  0  0  0  0  0
    4.9350   -3.3640   24.9320 C   0  0  0  0  0  0  0  0  0  0  0  0
    5.3880   -4.9730   22.9780 C   0  0  0  0  0  0  0  0  0  0  0  0
    5.4560   -2.5590   25.9460 C   0  0  0  0  0  0  0  0  0  0  0  0
    3.5740   -3.8470   25.1220 C   0  0  0  0  0  0  0  0  0  0  0  0
    4.7620   -2.2090   27.0840 C   0  0  0  0  0  0  0  0  0  0  0  0
    2.9210   -3.4870   26.2490 C   0  0  0  0  0  0  0  0  0  0  0  0
    3.4840   -2.6690   27.2520 C   0  0  0  0  0  0  0  0  0  0  0  0
    2.6850   -2.4030   28.3290 O   0  0  0  0  0  0  0  0  0  0  0  0
    1.2830   -2.3060   28.1130 C   0  0  0  0  0  0  0  0  0  0  0  0
  1  2  1  0
  2  3  2  0
  2  4  1  0
  4  5  1  0
  5  6  1  0
  6  7  1  0
  7  8  2  0
  7  9  1  0
  8 10  1  0
  9 11  2  0
 10 11  1  0
  9 12  1  0
 10 13  1  0
 11 14  1  0
 12 15  2  0
 15 16  1  0
 13 17  1  0
 14 17  1  0
 14 18  2  0
 15 18  1  0
 17 19  1  6
 20 19  1  6
 20 21  1  0
 20 22  1  0
 21 23  1  0
 22 24  1  0
 21 25  1  0
 23 26  2  0
 23 27  1  0
 24 28  1  0
 24 29  1  0
 25 29  1  0
 28 30  2  0
 28 31  1  0
 30 32  1  0
 31 33  2  0
 32 34  2  0
 33 34  1  0
 34 35  1  0
 35 36  1  0
M  END
