x0104-x1308
     RDKit          3D

 39 43  0  0  0  0  0  0  0  0999 V2000
    7.7550   -3.3720   19.7770 C   0  0  0  0  0  0  0  0  0  0  0  0
    6.8690   -4.1260   20.4560 C   0  0  0  0  0  0  0  0  0  0  0  0
    5.7700   -4.3750   19.9100 O   0  0  0  0  0  0  0  0  0  0  0  0
    7.0850   -4.7210   21.7350 N   0  0  0  0  0  0  0  0  0  0  0  0
    7.9240   -4.3390   22.7790 C   0  0  1  0  0  0  0  0  0  0  0  0
    6.0270   -5.5530   22.0290 C   0  0  0  0  0  0  0  0  0  0  0  0
    8.6700   -2.8950   22.7920 C   0  0  0  0  0  0  0  0  0  0  0  0
    7.3760   -4.5160   24.0850 C   0  0  0  0  0  0  0  0  0  0  0  0
    5.9960   -6.0430   23.3150 C   0  0  0  0  0  0  0  0  0  0  0  0
   10.2650   -2.7350   22.7880 C   0  0  1  0  0  0  0  0  0  0  0  0
    6.1090   -5.0730   24.2580 N   0  0  0  0  0  0  0  0  0  0  0  0
    5.4460   -5.3170   25.8020 S   0  0  0  0  0  0  0  0  0  0  0  0
   10.8290   -2.4820   21.4390 C   0  0  0  0  0  0  0  0  0  0  0  0
   10.8100   -1.3760   23.2860 C   0  0  0  0  0  0  0  0  0  0  0  0
    6.4230   -4.9250   26.7800 O   0  0  0  0  0  0  0  0  0  0  0  0
    4.8540   -6.6350   25.8280 O   0  0  0  0  0  0  0  0  0  0  0  0
   12.3600   -2.2270   21.4350 C   0  0  0  0  0  0  0  0  0  0  0  0
    4.1480   -4.2730   25.9480 C   0  0  0  0  0  0  0  0  0  0  0  0
   10.0190   -0.4410   23.8480 C   0  0  0  0  0  0  0  0  0  0  0  0
   12.1550   -1.0960   23.0960 C   0  0  0  0  0  0  0  0  0  0  0  0
   12.8870   -2.2320   22.7240 O   0  0  0  0  0  0  0  0  0  0  0  0
    4.4200   -2.9630   26.3680 C   0  0  0  0  0  0  0  0  0  0  0  0
    2.8450   -4.6890   25.6710 C   0  0  0  0  0  0  0  0  0  0  0  0
   10.6580    0.7930   24.2840 C   0  0  2  0  0  0  0  0  0  0  0  0
   12.7030    0.1950   23.2070 C   0  0  0  0  0  0  0  0  0  0  0  0
    3.3790   -2.0550   26.5220 C   0  0  0  0  0  0  0  0  0  0  0  0
    1.8220   -3.7450   25.8380 C   0  0  0  0  0  0  0  0  0  0  0  0
    9.7910    1.8090   24.4240 N   0  0  0  0  0  0  0  0  0  0  0  0
   11.7600    1.1690   23.5330 C   0  0  0  0  0  0  0  0  0  0  0  0
    2.0780   -2.4430   26.2620 C   0  0  0  0  0  0  0  0  0  0  0  0
   11.7190    2.5190   23.2380 C   0  0  0  0  0  0  0  0  0  0  0  0
   10.4050    2.8500   23.8440 C   0  0  0  0  0  0  0  0  0  0  0  0
    0.7850   -1.3280   26.4640 Cl  0  0  0  0  0  0  0  0  0  0  0  0
   12.6260    3.4810   22.4990 C   0  0  0  0  0  0  0  0  0  0  0  0
   12.5710    4.9430   23.0540 C   0  0  0  0  0  0  0  0  0  0  0  0
   11.4190    5.5630   22.5450 N   0  0  0  0  0  0  0  0  0  0  0  0
   10.3850    6.1220   23.4250 C   0  0  0  0  0  0  0  0  0  0  0  0
    9.1370    6.5260   22.6390 C   0  0  0  0  0  0  0  0  0  0  0  0
   10.4920    6.2590   24.6430 O   0  0  0  0  0  0  0  0  0  0  0  0
  1  2  1  0
  2  3  2  0
  2  4  1  0
  4  5  1  0
  4  6  1  0
  5  7  1  6
  5  8  1  0
  6  9  1  0
 10  7  1  6
  8 11  1  0
  9 11  1  0
 11 12  1  0
 10 13  1  0
 10 14  1  0
 12 15  2  0
 12 16  2  0
 13 17  1  0
 12 18  1  0
 14 19  2  0
 14 20  1  0
 17 21  1  0
 20 21  1  0
 18 22  2  0
 18 23  1  0
 24 19  1  6
 20 25  2  0
 22 26  1  0
 23 27  2  0
 24 28  1  0
 24 29  1  0
 25 29  1  0
 26 30  2  0
 27 30  1  0
 29 31  2  0
 28 32  2  0
 31 32  1  0
 30 33  1  0
 31 34  1  0
 34 35  1  0
 35 36  1  0
 36 37  1  0
 37 38  1  0
 37 39  2  0
M  END
