x0107-x0731
     RDKit          3D

 32 34  0  0  0  0  0  0  0  0999 V2000
    0.9540   -0.8960   26.2110 C   0  0  0  0  0  0  0  0  0  0  0  0
    1.9850   -1.9690   26.0690 C   0  0  0  0  0  0  0  0  0  0  0  0
    3.3620   -1.7140   26.5830 C   0  0  0  0  0  0  0  0  0  0  0  0
    1.5610   -3.2810   25.4020 C   0  0  0  0  0  0  0  0  0  0  0  0
    2.6230   -4.3690   25.2750 C   0  0  0  0  0  0  0  0  0  0  0  0
    4.3240   -2.6920   26.4720 C   0  0  0  0  0  0  0  0  0  0  0  0
    4.0050   -4.0160   25.8380 C   0  0  0  0  0  0  0  0  0  0  0  0
    5.3980   -5.2350   25.7660 S   0  0  0  0  0  0  0  0  0  0  0  0
    6.4990   -4.7260   26.6040 O   0  0  0  0  0  0  0  0  0  0  0  0
    4.8330   -6.5520   25.9560 O   0  0  0  0  0  0  0  0  0  0  0  0
    5.8280   -5.0720   24.1650 N   0  0  0  0  0  0  0  0  0  0  0  0
    7.0390   -4.4170   23.8490 C   0  0  0  0  0  0  0  0  0  0  0  0
    5.4920   -6.0520   23.2460 C   0  0  0  0  0  0  0  0  0  0  0  0
    7.3640   -3.9550   22.5720 C   0  0  2  0  0  0  0  0  0  0  0  0
    6.4200   -6.2170   22.2360 C   0  0  0  0  0  0  0  0  0  0  0  0
    6.9100   -2.4900   22.3720 C   0  0  0  0  0  0  0  0  0  0  0  0
    6.7600   -4.9100   21.6590 N   0  0  0  0  0  0  0  0  0  0  0  0
    6.1900   -4.5580   20.4270 C   0  0  0  0  0  0  0  0  0  0  0  0
    8.0430   -1.8140   21.9120 C   0  0  0  0  0  0  0  0  0  0  0  0
    5.2170   -5.1050   19.9830 O   0  0  0  0  0  0  0  0  0  0  0  0
    6.8760   -3.4790   19.5970 C   0  0  0  0  0  0  0  0  0  0  0  0
    7.9690   -0.4960   21.4070 N   0  0  0  0  0  0  0  0  0  0  0  0
    9.0240    0.4020   21.6750 C   0  0  0  0  0  0  0  0  0  0  0  0
    6.9750   -0.0930   20.4310 C   0  0  0  0  0  0  0  0  0  0  0  0
   10.1650   -0.1270   22.5140 C   0  0  0  0  0  0  0  0  0  0  0  0
    9.0610    1.5690   21.2530 O   0  0  0  0  0  0  0  0  0  0  0  0
    5.6980    0.6470   20.8710 C   0  0  0  0  0  0  0  0  0  0  0  0
    7.2050   -0.3990   18.9310 C   0  0  0  0  0  0  0  0  0  0  0  0
    5.3260    1.0060   22.2820 C   0  0  0  0  0  0  0  0  0  0  0  0
    4.7090    1.0610   19.7550 C   0  0  0  0  0  0  0  0  0  0  0  0
    6.3260   -0.0240   17.9460 N   0  0  0  0  0  0  0  0  0  0  0  0
    5.1430    0.6720   18.3590 C   0  0  0  0  0  0  0  0  0  0  0  0
  1  2  1  0
  2  3  2  0
  2  4  1  0
  4  5  2  0
  3  6  1  0
  5  7  1  0
  6  7  2  0
  8  7  1  0
  8  9  2  0
  8 10  2  0
  8 11  1  0
 11 12  1  0
 11 13  1  0
 12 14  1  0
 13 15  1  0
 14 16  1  6
 14 17  1  0
 15 17  1  0
 17 18  1  0
 16 19  1  0
 18 20  2  0
 18 21  1  0
 19 22  1  0
 22 23  1  0
 22 24  1  0
 23 25  1  0
 23 26  2  0
 24 27  2  0
 24 28  1  0
 27 29  1  0
 27 30  1  0
 28 31  2  0
 30 32  2  0
 31 32  1  0
M  END
