x0107-x2703
     RDKit          3D

 33 36  0  0  0  0  0  0  0  0999 V2000
    7.1650   -1.8970   21.6380 N   0  0  0  0  0  0  0  0  0  0  0  0
    6.0880   -2.9600   21.4560 C   0  0  0  0  0  0  0  0  0  0  0  0
    4.8240   -2.9700   21.1070 O   0  0  0  0  0  0  0  0  0  0  0  0
    6.8780   -0.4860   21.6800 C   0  0  1  0  0  0  0  0  0  0  0  0
    8.5260   -2.3440   22.1710 C   0  0  1  0  0  0  0  0  0  0  0  0
    6.5720   -4.3620   21.7100 C   0  0  0  0  0  0  0  0  0  0  0  0
    7.9490    0.4510   22.0040 C   0  0  2  0  0  0  0  0  0  0  0  0
    6.2390    0.0460   20.4490 C   0  0  0  0  0  0  0  0  0  0  0  0
    9.5590   -1.4320   22.3180 N   0  0  0  0  0  0  0  0  0  0  0  0
    8.6410   -2.9740   23.3680 C   0  0  0  0  0  0  0  0  0  0  0  0
    6.5980   -5.0610   20.3650 C   0  0  0  0  0  0  0  0  0  0  0  0
    7.4240    1.5320   22.7180 N   0  0  0  0  0  0  0  0  0  0  0  0
    8.6550    0.7620   21.0580 O   0  0  0  0  0  0  0  0  0  0  0  0
    8.9800   -0.2770   22.9460 C   0  0  0  0  0  0  0  0  0  0  0  0
    5.0670    0.7740   20.3870 C   0  0  0  0  0  0  0  0  0  0  0  0
    6.8460   -0.1620   19.1920 C   0  0  0  0  0  0  0  0  0  0  0  0
   10.6930   -2.1690   23.0900 C   0  0  2  0  0  0  0  0  0  0  0  0
    9.8620   -2.8950   23.8900 C   0  0  0  0  0  0  0  0  0  0  0  0
   11.7170   -1.4630   24.0650 C   0  0  0  0  0  0  0  0  0  0  0  0
    6.4070    0.2790   17.9710 N   0  0  0  0  0  0  0  0  0  0  0  0
    4.5080    1.3010   19.0780 C   0  0  0  0  0  0  0  0  0  0  0  0
    7.9790    2.8820   22.7910 C   0  0  0  0  0  0  0  0  0  0  0  0
   12.6160   -2.5260   24.7390 C   0  0  0  0  0  0  0  0  0  0  0  0
   12.4380   -0.3000   23.4410 C   0  0  0  0  0  0  0  0  0  0  0  0
    5.1670    1.0600   17.9120 C   0  0  0  0  0  0  0  0  0  0  0  0
    9.3310    3.1370   23.4860 C   0  0  0  0  0  0  0  0  0  0  0  0
    7.3890    4.0780   22.2800 C   0  0  0  0  0  0  0  0  0  0  0  0
   10.2060    2.1120   24.1460 C   0  0  0  0  0  0  0  0  0  0  0  0
    6.0670    4.0130   21.5860 C   0  0  0  0  0  0  0  0  0  0  0  0
    9.9540    4.5140   23.5980 C   0  0  0  0  0  0  0  0  0  0  0  0
    8.0080    5.3280   22.4090 C   0  0  0  0  0  0  0  0  0  0  0  0
    9.3080    1.4460   25.0690 C   0  0  0  0  0  0  0  0  0  0  0  0
    9.2360    5.5690   23.0330 C   0  0  0  0  0  0  0  0  0  0  0  0
  1  2  1  0
  2  3  2  0
  1  4  1  0
  1  5  1  0
  2  6  1  0
  4  7  1  0
  4  8  1  6
  5  9  1  0
  5 10  1  1
  6 11  1  0
  7 12  1  0
  7 13  1  6
  7 14  1  0
  9 14  1  0
  8 15  2  0
  8 16  1  0
  9 17  1  0
 10 18  2  0
 17 18  1  0
 17 19  1  1
 16 20  2  0
 15 21  1  0
 12 22  1  0
 19 23  1  0
 19 24  1  0
 20 25  1  0
 21 25  2  0
 22 26  2  0
 22 27  1  0
 26 28  1  0
 27 29  1  0
 26 30  1  0
 27 31  2  0
 28 32  1  0
 30 33  2  0
 31 33  1  0
M  END
