x0104-x1380
     RDKit          3D

 37 40  0  0  0  0  0  0  0  0999 V2000
    8.9090    6.5440   22.7140 C   0  0  0  0  0  0  0  0  0  0  0  0
   10.2360    6.2440   23.3630 C   0  0  0  0  0  0  0  0  0  0  0  0
   10.3520    6.2840   24.5910 O   0  0  0  0  0  0  0  0  0  0  0  0
   11.2670    5.9290   22.5030 N   0  0  0  0  0  0  0  0  0  0  0  0
   12.4360    5.2510   23.0610 C   0  0  0  0  0  0  0  0  0  0  0  0
   12.6960    3.9420   22.3140 C   0  0  0  0  0  0  0  0  0  0  0  0
   11.9480    2.7980   22.9960 C   0  0  0  0  0  0  0  0  0  0  0  0
   10.6880    2.9730   23.5540 C   0  0  0  0  0  0  0  0  0  0  0  0
   12.2420    1.4710   23.1990 C   0  0  0  0  0  0  0  0  0  0  0  0
   10.1720    1.8350   24.1060 N   0  0  0  0  0  0  0  0  0  0  0  0
   11.2100    0.9430   23.9210 C   0  0  1  0  0  0  0  0  0  0  0  0
   13.4090    0.6690   22.7970 C   0  0  0  0  0  0  0  0  0  0  0  0
   10.8910   -0.3930   23.4290 C   0  0  0  0  0  0  0  0  0  0  0  0
   13.1480   -0.6590   22.6380 C   0  0  0  0  0  0  0  0  0  0  0  0
   11.8900   -1.1350   22.8380 C   0  0  0  0  0  0  0  0  0  0  0  0
   11.6960   -2.4820   22.3920 C   0  0  2  0  0  0  0  0  0  0  0  0
   11.9820   -2.4200   21.0950 F   0  0  0  0  0  0  0  0  0  0  0  0
   10.2370   -2.7520   22.7190 C   0  0  0  0  0  0  0  0  0  0  0  0
    9.4800   -2.0120   21.6410 C   0  0  0  0  0  0  0  0  0  0  0  0
    8.1040   -1.9290   21.7980 C   0  0  0  0  0  0  0  0  0  0  0  0
    7.6000   -3.2930   22.2930 C   0  0  2  0  0  0  0  0  0  0  0  0
    6.7040   -4.1230   21.4890 N   0  0  0  0  0  0  0  0  0  0  0  0
    6.9360   -3.0450   23.4510 C   0  0  0  0  0  0  0  0  0  0  0  0
    6.2900   -3.9530   20.1610 C   0  0  0  0  0  0  0  0  0  0  0  0
    6.1770   -5.2630   22.2260 C   0  0  0  0  0  0  0  0  0  0  0  0
    6.4620   -4.1060   24.2050 C   0  0  1  0  0  0  0  0  0  0  0  0
    7.1870   -3.2360   19.1390 C   0  0  0  0  0  0  0  0  0  0  0  0
    5.2170   -4.4170   19.8100 O   0  0  0  0  0  0  0  0  0  0  0  0
    5.7890   -3.6010   25.4380 C   0  0  0  0  0  0  0  0  0  0  0  0
    5.7210   -5.0910   23.5330 C   0  0  0  0  0  0  0  0  0  0  0  0
    4.6610   -3.1280   25.2800 O   0  0  0  0  0  0  0  0  0  0  0  0
    6.3760   -3.6250   26.6940 N   0  0  0  0  0  0  0  0  0  0  0  0
    7.8110   -3.8960   26.8420 C   0  0  0  0  0  0  0  0  0  0  0  0
    5.5970   -3.8290   27.9030 C   0  0  0  0  0  0  0  0  0  0  0  0
    7.8180   -5.1900   27.2800 C   0  0  0  0  0  0  0  0  0  0  0  0
    6.2380   -4.6000   28.8630 C   0  0  0  0  0  0  0  0  0  0  0  0
    7.4260   -5.2090   28.5640 C   0  0  0  0  0  0  0  0  0  0  0  0
  1  2  1  0
  2  3  2  0
  2  4  1  0
  4  5  1  0
  5  6  1  0
  6  7  1  0
  7  8  1  0
  7  9  2  0
  8 10  2  0
  9 11  1  0
 10 11  1  0
  9 12  1  0
 11 13  1  6
 12 14  2  0
 13 15  2  0
 14 15  1  0
 15 16  1  0
 16 17  1  6
 16 18  1  0
 18 19  1  0
 19 20  1  0
 21 20  1  6
 21 22  1  0
 21 23  1  0
 22 24  1  0
 22 25  1  0
 23 26  1  0
 24 27  1  0
 24 28  2  0
 26 29  1  1
 25 30  1  0
 26 30  1  0
 29 31  2  0
 29 32  1  0
 32 33  1  0
 32 34  1  0
 33 35  1  0
 34 36  1  0
 35 37  1  0
 36 37  1  0
M  END
