x0107-x2754
     RDKit          3D

 31 33  0  0  0  0  0  0  0  0999 V2000
    4.7050   -3.5030   25.1840 C   0  0  0  0  0  0  0  0  0  0  0  0
    5.0350   -3.2160   26.5940 N   0  0  0  0  0  0  0  0  0  0  0  0
    4.6400   -1.9370   26.9030 C   0  0  0  0  0  0  0  0  0  0  0  0
    3.3750   -3.4190   24.6850 O   0  0  0  0  0  0  0  0  0  0  0  0
    5.8410   -3.8780   24.2120 C   0  0  2  0  0  0  0  0  0  0  0  0
    5.9020   -2.7660   23.4240 C   0  0  0  0  0  0  0  0  0  0  0  0
    5.3950   -5.0430   23.3110 C   0  0  0  0  0  0  0  0  0  0  0  0
    6.2750   -3.6630   27.1060 C   0  0  0  0  0  0  0  0  0  0  0  0
    6.9380   -2.7800   22.5050 C   0  0  2  0  0  0  0  0  0  0  0  0
    6.2920   -5.1080   22.2610 C   0  0  0  0  0  0  0  0  0  0  0  0
    6.6130   -5.0110   26.9760 C   0  0  0  0  0  0  0  0  0  0  0  0
    7.0910   -2.7280   27.7220 C   0  0  0  0  0  0  0  0  0  0  0  0
    6.9360   -1.4010   22.2830 C   0  0  0  0  0  0  0  0  0  0  0  0
    6.6450   -3.9480   21.6000 N   0  0  0  0  0  0  0  0  0  0  0  0
    7.8010   -5.4800   27.4770 C   0  0  0  0  0  0  0  0  0  0  0  0
    8.4100   -3.1960   28.3010 C   0  0  0  0  0  0  0  0  0  0  0  0
    6.2360   -3.9170   20.2760 C   0  0  0  0  0  0  0  0  0  0  0  0
    7.6910   -0.7340   21.2270 N   0  0  0  0  0  0  0  0  0  0  0  0
    8.6870   -4.6730   28.1170 C   0  0  0  0  0  0  0  0  0  0  0  0
    5.2380   -4.5160   19.8890 O   0  0  0  0  0  0  0  0  0  0  0  0
    7.1020   -3.1720   19.2830 C   0  0  0  0  0  0  0  0  0  0  0  0
    8.9910   -0.2480   21.5870 C   0  0  0  0  0  0  0  0  0  0  0  0
    6.9170   -0.0830   20.1470 C   0  0  0  0  0  0  0  0  0  0  0  0
   10.0640   -1.1950   22.1530 C   0  0  0  0  0  0  0  0  0  0  0  0
    9.2340    0.9520   21.4540 O   0  0  0  0  0  0  0  0  0  0  0  0
    5.8190    0.8120   20.7850 C   0  0  0  0  0  0  0  0  0  0  0  0
    7.0710   -0.2000   18.6770 C   0  0  0  0  0  0  0  0  0  0  0  0
    5.4390    1.1160   22.2410 C   0  0  0  0  0  0  0  0  0  0  0  0
    5.0460    1.4480   19.6340 C   0  0  0  0  0  0  0  0  0  0  0  0
    6.3590    0.3900   17.7020 N   0  0  0  0  0  0  0  0  0  0  0  0
    5.3090    1.2440   18.1890 C   0  0  0  0  0  0  0  0  0  0  0  0
  1  2  1  0
  2  3  1  0
  1  4  2  0
  5  1  1  1
  5  6  1  0
  5  7  1  0
  2  8  1  0
  6  9  1  0
  7 10  1  0
  8 11  2  0
  8 12  1  0
  9 13  1  6
  9 14  1  0
 10 14  1  0
 11 15  1  0
 12 16  2  0
 14 17  1  0
 13 18  1  0
 15 19  2  0
 16 19  1  0
 17 20  2  0
 17 21  1  0
 18 22  1  0
 18 23  1  0
 22 24  1  0
 22 25  2  0
 23 26  2  0
 23 27  1  0
 26 28  1  0
 26 29  1  0
 27 30  2  0
 29 31  2  0
 30 31  1  0
M  END
