x0107-x2776
     RDKit          3D

 34 37  0  0  0  0  0  0  0  0999 V2000
    7.1460   -1.7130   21.8970 N   0  0  0  0  0  0  0  0  0  0  0  0
    6.1230   -2.8620   21.5640 C   0  0  0  0  0  0  0  0  0  0  0  0
    4.8390   -2.9760   21.1450 O   0  0  0  0  0  0  0  0  0  0  0  0
    6.9700   -0.2900   21.7190 C   0  0  1  0  0  0  0  0  0  0  0  0
    8.3670   -2.1610   22.5860 C   0  0  1  0  0  0  0  0  0  0  0  0
    6.6770   -4.2550   21.7410 C   0  0  0  0  0  0  0  0  0  0  0  0
    8.1030    0.6330   22.0220 C   0  0  2  0  0  0  0  0  0  0  0  0
    6.4000    0.1800   20.3800 C   0  0  0  0  0  0  0  0  0  0  0  0
    9.3340   -2.4750   21.6620 C   0  0  0  0  0  0  0  0  0  0  0  0
    9.1910   -1.3850   23.5010 C   0  0  2  0  0  0  0  0  0  0  0  0
    6.5600   -4.9550   20.4000 C   0  0  0  0  0  0  0  0  0  0  0  0
    7.6570    1.8010   22.6290 N   0  0  0  0  0  0  0  0  0  0  0  0
    8.8330    0.8570   21.0560 O   0  0  0  0  0  0  0  0  0  0  0  0
    9.1790    0.0590   22.9990 C   0  0  0  0  0  0  0  0  0  0  0  0
    5.1680    1.0950   20.3430 C   0  0  0  0  0  0  0  0  0  0  0  0
    6.9640   -0.1820   19.1630 C   0  0  0  0  0  0  0  0  0  0  0  0
   10.5790   -2.3780   22.2040 C   0  0  0  0  0  0  0  0  0  0  0  0
   10.5150   -2.0020   23.4820 C   0  0  1  0  0  0  0  0  0  0  0  0
   11.9100   -1.6640   24.0370 C   0  0  2  0  0  0  0  0  0  0  0  0
    6.4770    0.2440   17.9850 N   0  0  0  0  0  0  0  0  0  0  0  0
    4.6170    1.5660   19.1730 C   0  0  0  0  0  0  0  0  0  0  0  0
    8.5040    2.9840   22.9550 C   0  0  0  0  0  0  0  0  0  0  0  0
   12.1940   -2.7700   24.8930 O   0  0  0  0  0  0  0  0  0  0  0  0
   12.0830   -0.5150   24.7770 C   0  0  0  0  0  0  0  0  0  0  0  0
    5.3050    1.1250   17.9150 C   0  0  0  0  0  0  0  0  0  0  0  0
   10.0050    3.0230   23.4430 C   0  0  0  0  0  0  0  0  0  0  0  0
    7.8750    4.3750   22.8230 C   0  0  0  0  0  0  0  0  0  0  0  0
   10.9840    1.8950   23.6980 C   0  0  0  0  0  0  0  0  0  0  0  0
   13.5420   -2.8990   25.2960 C   0  0  0  0  0  0  0  0  0  0  0  0
   10.5750    4.2990   23.7010 C   0  0  0  0  0  0  0  0  0  0  0  0
    8.5690    5.5490   23.1160 C   0  0  0  0  0  0  0  0  0  0  0  0
    9.8820    5.4820   23.5460 C   0  0  0  0  0  0  0  0  0  0  0  0
   10.5340    6.7250   23.8420 O   0  0  0  0  0  0  0  0  0  0  0  0
   11.6950    6.6820   24.6780 C   0  0  0  0  0  0  0  0  0  0  0  0
  1  2  1  0
  2  3  2  0
  1  4  1  0
  1  5  1  0
  2  6  1  0
  4  7  1  0
  4  8  1  6
  5  9  1  6
  5 10  1  0
  6 11  1  0
  7 12  1  0
  7 13  1  6
  7 14  1  0
 10 14  1  6
  8 15  2  0
  8 16  1  0
  9 17  2  0
 10 18  1  0
 18 17  1  6
 18 19  1  0
 16 20  2  0
 15 21  1  0
 12 22  1  0
 19 23  1  0
 19 24  1  1
 20 25  1  0
 21 25  2  0
 22 26  2  0
 22 27  1  0
 26 28  1  0
 23 29  1  0
 26 30  1  0
 27 31  2  0
 30 32  2  0
 31 32  1  0
 32 33  1  0
 33 34  1  0
M  END
