x0161-x1385
     RDKit          3D

 32 34  0  0  0  0  0  0  0  0999 V2000
   13.3340   -2.1610   24.6500 C   0  0  0  0  0  0  0  0  0  0  0  0
   12.4430   -1.2590   24.0500 N   0  0  0  0  0  0  0  0  0  0  0  0
   12.8940   -0.2120   23.2890 C   0  0  0  0  0  0  0  0  0  0  0  0
   11.1410   -1.7470   23.6020 C   0  0  0  0  0  0  0  0  0  0  0  0
   13.7860   -0.3180   22.4800 O   0  0  0  0  0  0  0  0  0  0  0  0
   10.8340   -3.0100   24.0730 C   0  0  0  0  0  0  0  0  0  0  0  0
   12.2070    1.1190   23.4090 C   0  0  0  0  0  0  0  0  0  0  0  0
    9.4650   -3.5930   23.7080 C   0  0  2  0  0  0  0  0  0  0  0  0
   12.8660    2.4060   22.9150 C   0  0  0  0  0  0  0  0  0  0  0  0
   10.9440    1.2450   23.9690 C   0  0  0  0  0  0  0  0  0  0  0  0
   12.2490    3.6530   23.0130 C   0  0  0  0  0  0  0  0  0  0  0  0
   10.3830    2.5220   24.0420 C   0  0  0  0  0  0  0  0  0  0  0  0
    8.4350   -2.8650   23.1230 N   0  0  0  0  0  0  0  0  0  0  0  0
    9.0490   -4.3560   24.9690 C   0  0  0  0  0  0  0  0  0  0  0  0
   10.9880    3.7060   23.5930 C   0  0  0  0  0  0  0  0  0  0  0  0
    7.4240   -3.7270   22.7560 C   0  0  0  0  0  0  0  0  0  0  0  0
    8.7720   -1.8890   22.0650 C   0  0  0  0  0  0  0  0  0  0  0  0
    9.6140   -5.5470   25.3180 C   0  0  0  0  0  0  0  0  0  0  0  0
    7.8430   -3.8540   26.1070 S   0  0  0  0  0  0  0  0  0  0  0  0
   10.2770    5.2790   23.7140 S   0  0  0  0  0  0  0  0  0  0  0  0
    6.2470   -3.1160   22.3190 C   0  0  0  0  0  0  0  0  0  0  0  0
    7.5160   -1.3610   21.3300 C   0  0  0  0  0  0  0  0  0  0  0  0
    8.0980   -5.2550   27.0250 C   0  0  0  0  0  0  0  0  0  0  0  0
    9.1730   -6.1030   26.4060 C   0  0  0  0  0  0  0  0  0  0  0  0
   11.1460    6.2830   23.1320 O   0  0  0  0  0  0  0  0  0  0  0  0
    9.7020    5.4690   25.0270 O   0  0  0  0  0  0  0  0  0  0  0  0
    8.9620    5.1560   22.6780 N   0  0  0  0  0  0  0  0  0  0  0  0
    7.1290   -5.6630   28.6040 Br  0  0  0  0  0  0  0  0  0  0  0  0
    6.5730   -2.4600   21.0590 N   0  0  0  0  0  0  0  0  0  0  0  0
    6.4410   -3.2160   19.8810 C   0  0  0  0  0  0  0  0  0  0  0  0
    7.5120   -3.0150   18.8110 C   0  0  0  0  0  0  0  0  0  0  0  0
    5.5110   -4.0260   19.7220 O   0  0  0  0  0  0  0  0  0  0  0  0
  1  2  1  0
  2  3  1  0
  2  4  1  0
  3  5  2  0
  4  6  1  0
  3  7  1  0
  8  6  1  1
  7  9  2  0
  7 10  1  0
  9 11  1  0
 10 12  2  0
  8 13  1  0
  8 14  1  0
 11 15  2  0
 12 15  1  0
 13 16  1  0
 13 17  1  0
 14 18  2  0
 14 19  1  0
 15 20  1  0
 16 21  1  0
 17 22  1  0
 19 23  1  0
 18 24  1  0
 23 24  2  0
 20 25  2  0
 20 26  2  0
 20 27  1  0
 23 28  1  0
 21 29  1  0
 22 29  1  0
 29 30  1  0
 30 31  1  0
 30 32  2  0
M  END
