x0161-x2694
     RDKit          3D

 39 42  0  0  0  0  0  0  0  0999 V2000
    6.6220   -1.8840   21.9610 N   0  0  0  0  0  0  0  0  0  0  0  0
    5.7390   -3.0350   21.7380 C   0  0  0  0  0  0  0  0  0  0  0  0
    4.4900   -2.9340   21.6440 O   0  0  0  0  0  0  0  0  0  0  0  0
    5.9360   -0.4780   21.8450 C   0  0  1  0  0  0  0  0  0  0  0  0
    8.0540   -2.0290   22.5160 C   0  0  0  0  0  0  0  0  0  0  0  0
    6.2060   -4.4780   21.5850 C   0  0  0  0  0  0  0  0  0  0  0  0
    6.5650    0.7250   22.7120 C   0  0  0  0  0  0  0  0  0  0  0  0
    5.5780    0.0180   20.4420 C   0  0  0  0  0  0  0  0  0  0  0  0
    8.4450   -2.4080   23.8170 N   0  0  0  0  0  0  0  0  0  0  0  0
    9.1810   -1.7590   21.7220 C   0  0  0  0  0  0  0  0  0  0  0  0
    6.2660   -4.8410   20.0780 C   0  0  0  0  0  0  0  0  0  0  0  0
    5.7120    1.7790   23.0940 N   0  0  0  0  0  0  0  0  0  0  0  0
    7.7420    0.7800   23.0290 O   0  0  0  0  0  0  0  0  0  0  0  0
    4.3530    0.6610   20.0910 C   0  0  0  0  0  0  0  0  0  0  0  0
    6.4210   -0.0720   19.3080 C   0  0  0  0  0  0  0  0  0  0  0  0
    9.8620   -2.3970   23.8890 O   0  0  0  0  0  0  0  0  0  0  0  0
   10.3480   -2.0070   22.6710 C   0  0  0  0  0  0  0  0  0  0  0  0
   11.9570   -1.9250   22.5350 C   0  0  0  0  0  0  0  0  0  0  0  0
    6.1920    0.3520   18.0030 N   0  0  0  0  0  0  0  0  0  0  0  0
    4.0220    1.1320   18.7850 C   0  0  0  0  0  0  0  0  0  0  0  0
    6.0540    3.1730   23.1150 C   0  0  0  0  0  0  0  0  0  0  0  0
   12.7130   -0.5600   22.8540 C   0  0  0  0  0  0  0  0  0  0  0  0
   12.2580   -2.5090   21.1490 C   0  0  0  0  0  0  0  0  0  0  0  0
   12.5960   -2.8970   23.6070 C   0  0  0  0  0  0  0  0  0  0  0  0
    4.9620    0.9820   17.7170 C   0  0  0  0  0  0  0  0  0  0  0  0
    6.8790    3.6490   24.1630 C   0  0  0  0  0  0  0  0  0  0  0  0
    5.5790    4.0940   22.0470 C   0  0  0  0  0  0  0  0  0  0  0  0
    7.4650    4.9500   24.5710 C   0  0  0  0  0  0  0  0  0  0  0  0
    6.0050    5.3960   22.2000 C   0  0  0  0  0  0  0  0  0  0  0  0
   12.0650    0.7760   23.2570 C   0  0  0  0  0  0  0  0  0  0  0  0
    7.9490    6.2130   24.8370 O   0  0  0  0  0  0  0  0  0  0  0  0
    6.8250    5.8340   23.2700 C   0  0  0  0  0  0  0  0  0  0  0  0
   12.8140    2.0080   22.8030 C   0  0  0  0  0  0  0  0  0  0  0  0
   10.8040    0.9360   24.0460 C   0  0  0  0  0  0  0  0  0  0  0  0
    7.0630    7.2240   23.1290 O   0  0  0  0  0  0  0  0  0  0  0  0
   12.2650    3.3690   23.2050 C   0  0  0  0  0  0  0  0  0  0  0  0
   10.8830    2.2600   24.0650 C   0  0  0  0  0  0  0  0  0  0  0  0
    8.0630    7.7220   22.1660 C   0  0  0  0  0  0  0  0  0  0  0  0
   10.9590    3.5480   24.0840 C   0  0  0  0  0  0  0  0  0  0  0  0
  1  2  1  0
  2  3  2  0
  1  4  1  0
  1  5  1  0
  2  6  1  0
  4  7  1  6
  4  8  1  0
  5  9  2  0
  5 10  1  0
  6 11  1  0
  7 12  1  0
  7 13  2  0
  8 14  2  0
  8 15  1  0
  9 16  1  0
 10 17  2  0
 16 17  1  0
 17 18  1  0
 15 19  2  0
 14 20  1  0
 12 21  1  0
 18 22  1  0
 18 23  1  0
 18 24  1  0
 19 25  1  0
 20 25  2  0
 21 26  2  0
 21 27  1  0
 26 28  1  0
 27 29  2  0
 22 30  1  0
 28 31  1  0
 28 32  2  0
 29 32  1  0
 30 33  2  0
 30 34  1  0
 32 35  1  0
 33 36  1  0
 34 37  2  0
 35 38  1  0
 36 39  2  0
 37 39  1  0
M  END
