x0161-x2649
     RDKit          3D

 30 32  0  0  0  0  0  0  0  0999 V2000
   13.2930   -2.3100   25.0920 C   0  0  0  0  0  0  0  0  0  0  0  0
   12.3560   -1.2480   24.8860 O   0  0  0  0  0  0  0  0  0  0  0  0
   12.6450   -0.4360   23.7280 C   0  0  2  0  0  0  0  0  0  0  0  0
   11.7700    0.7490   23.4910 C   0  0  2  0  0  0  0  0  0  0  0  0
   12.8540   -1.4590   22.6030 C   0  0  2  0  0  0  0  0  0  0  0  0
   13.5020   -0.9220   21.4750 O   0  0  0  0  0  0  0  0  0  0  0  0
   12.6040    1.7550   22.9530 C   0  0  0  0  0  0  0  0  0  0  0  0
   10.8060    1.1660   24.3900 C   0  0  0  0  0  0  0  0  0  0  0  0
   10.6330    0.3290   22.6170 C   0  0  0  0  0  0  0  0  0  0  0  0
   11.5800   -2.0280   22.2670 C   0  0  0  0  0  0  0  0  0  0  0  0
   12.0050    3.1480   22.8800 C   0  0  0  0  0  0  0  0  0  0  0  0
   10.1920    2.4560   24.3340 C   0  0  0  0  0  0  0  0  0  0  0  0
   10.5060   -0.9690   22.0990 C   0  0  1  0  0  0  0  0  0  0  0  0
    9.0880   -1.4730   22.4860 C   0  0  1  0  0  0  0  0  0  0  0  0
   10.5780    3.3820   23.3700 C   0  0  1  0  0  0  0  0  0  0  0  0
   10.2450    5.1360   23.7080 S   0  0  0  0  0  0  0  0  0  0  0  0
    8.8590   -1.5710   23.9960 C   0  0  0  0  0  0  0  0  0  0  0  0
    7.9670   -0.8220   21.7040 C   0  0  0  0  0  0  0  0  0  0  0  0
   11.3370    5.9380   23.2030 O   0  0  0  0  0  0  0  0  0  0  0  0
    9.7310    5.3760   25.0370 O   0  0  0  0  0  0  0  0  0  0  0  0
    8.9400    5.4500   22.6640 N   0  0  0  0  0  0  0  0  0  0  0  0
    6.6830   -0.7290   21.2340 N   0  0  0  0  0  0  0  0  0  0  0  0
    8.5250    0.1970   21.2850 O   0  0  0  0  0  0  0  0  0  0  0  0
    6.2390    0.0230   20.0500 C   0  0  0  0  0  0  0  0  0  0  0  0
    5.2730    0.9870   20.1560 C   0  0  0  0  0  0  0  0  0  0  0  0
    6.7340   -0.1440   18.6550 C   0  0  0  0  0  0  0  0  0  0  0  0
    4.8240    1.1180   21.5820 C   0  0  0  0  0  0  0  0  0  0  0  0
    6.2130    0.6300   17.6250 N   0  0  0  0  0  0  0  0  0  0  0  0
    4.7730    1.7400   19.1100 C   0  0  0  0  0  0  0  0  0  0  0  0
    5.2250    1.5920   17.7890 C   0  0  0  0  0  0  0  0  0  0  0  0
  1  2  1  0
  3  2  1  1
  3  4  1  0
  3  5  1  0
  5  6  1  6
  4  7  1  6
  4  8  1  0
  4  9  1  0
  5 10  1  0
  7 11  2  0
  8 12  2  0
 13  9  1  1
 10 13  1  0
 13 14  1  0
 11 15  1  0
 12 15  1  0
 15 16  1  1
 14 17  1  1
 14 18  1  0
 16 19  2  0
 16 20  2  0
 16 21  1  0
 18 22  1  0
 18 23  2  0
 22 24  1  0
 24 25  2  0
 24 26  1  0
 25 27  1  0
 26 28  2  0
 25 29  1  0
 28 30  1  0
 29 30  2  0
M  END
