x0161-x3110
     RDKit          3D

 39 41  0  0  0  0  0  0  0  0999 V2000
    7.9230    1.1430   23.3380 N   0  0  0  0  0  0  0  0  0  0  0  0
    8.5730    2.4080   23.8400 C   0  0  0  0  0  0  0  0  0  0  0  0
   10.0600    2.4950   23.5200 C   0  0  0  0  0  0  0  0  0  0  0  0
    7.7410    0.7540   21.9100 C   0  0  0  0  0  0  0  0  0  0  0  0
    8.4510    1.2960   21.0280 O   0  0  0  0  0  0  0  0  0  0  0  0
    6.6020   -0.3150   21.6310 C   0  0  2  0  0  0  0  0  0  0  0  0
    6.9940   -1.7550   21.7970 N   0  0  0  0  0  0  0  0  0  0  0  0
    6.1910    0.1870   20.2730 C   0  0  0  0  0  0  0  0  0  0  0  0
   10.8310    3.6720   23.4210 C   0  0  0  0  0  0  0  0  0  0  0  0
   10.6840    1.2800   23.2960 C   0  0  0  0  0  0  0  0  0  0  0  0
   10.2620    5.1160   23.6360 C   0  0  0  0  0  0  0  0  0  0  0  0
    6.1750   -2.9650   21.4880 C   0  0  0  0  0  0  0  0  0  0  0  0
    4.9850    1.1100   20.1660 C   0  0  0  0  0  0  0  0  0  0  0  0
    6.8820   -0.1290   18.9690 C   0  0  0  0  0  0  0  0  0  0  0  0
    8.2950   -1.8450   22.4580 C   0  0  0  0  0  0  0  0  0  0  0  0
   11.9930    1.1770   22.9810 C   0  0  0  0  0  0  0  0  0  0  0  0
   12.1950    3.5200   23.1010 C   0  0  0  0  0  0  0  0  0  0  0  0
   13.2190    4.6360   22.9500 C   0  0  0  0  0  0  0  0  0  0  0  0
    4.9130   -3.0910   21.1280 O   0  0  0  0  0  0  0  0  0  0  0  0
    6.8810   -4.3060   21.6410 C   0  0  0  0  0  0  0  0  0  0  0  0
   11.1960    5.8900   23.4100 O   0  0  0  0  0  0  0  0  0  0  0  0
   10.1380    5.2990   24.8350 O   0  0  0  0  0  0  0  0  0  0  0  0
    9.1700    5.3050   22.9220 N   0  0  0  0  0  0  0  0  0  0  0  0
    6.4460    0.3940   17.7780 N   0  0  0  0  0  0  0  0  0  0  0  0
    4.5220    1.6420   19.0140 C   0  0  0  0  0  0  0  0  0  0  0  0
    9.3820   -1.5820   21.6760 C   0  0  0  0  0  0  0  0  0  0  0  0
    8.5650   -2.1840   23.8960 C   0  0  0  0  0  0  0  0  0  0  0  0
   12.7140    2.2930   22.8950 C   0  0  0  0  0  0  0  0  0  0  0  0
   13.0840    5.2870   21.6080 C   0  0  0  0  0  0  0  0  0  0  0  0
    8.2740   -4.4520   20.9690 C   0  0  0  0  0  0  0  0  0  0  0  0
    5.2650    1.2740   17.8570 C   0  0  0  0  0  0  0  0  0  0  0  0
   10.7350   -1.6210   22.1600 C   0  0  0  0  0  0  0  0  0  0  0  0
    9.8900   -2.2130   24.3590 C   0  0  0  0  0  0  0  0  0  0  0  0
   11.0470   -1.9580   23.6160 C   0  0  0  0  0  0  0  0  0  0  0  0
   12.4220   -2.0190   24.2360 C   0  0  0  0  0  0  0  0  0  0  0  0
   12.7820   -0.7880   24.7190 C   0  0  0  0  0  0  0  0  0  0  0  0
   13.3760   -2.2710   23.0800 C   0  0  0  0  0  0  0  0  0  0  0  0
   12.6950   -3.0820   25.2980 C   0  0  0  0  0  0  0  0  0  0  0  0
   13.5080   -0.0890   24.0270 O   0  0  0  0  0  0  0  0  0  0  0  0
  1  2  1  0
  2  3  1  0
  1  4  1  0
  4  5  2  0
  6  4  1  6
  6  7  1  0
  6  8  1  0
  3  9  2  0
  3 10  1  0
  9 11  1  0
  7 12  1  0
  8 13  2  0
  8 14  1  0
  7 15  1  0
 10 16  2  0
  9 17  1  0
 17 18  1  0
 12 19  2  0
 12 20  1  0
 11 21  1  0
 11 22  1  0
 11 23  1  0
 14 24  2  0
 13 25  1  0
 15 26  2  0
 15 27  1  0
 16 28  1  0
 17 28  2  0
 18 29  1  0
 20 30  1  0
 24 31  1  0
 25 31  2  0
 26 32  1  0
 27 33  2  0
 32 34  2  0
 33 34  1  0
 34 35  1  0
 35 36  1  0
 35 37  1  0
 35 38  1  0
 36 39  2  0
M  END
