x0161-x0831
     RDKit          3D

 30 32  0  0  0  0  0  0  0  0999 V2000
   13.2070   -2.1930   24.5280 C   0  0  0  0  0  0  0  0  0  0  0  0
   12.7680   -1.1450   23.7080 N   0  0  0  0  0  0  0  0  0  0  0  0
   13.4230   -0.8010   22.5810 C   0  0  0  0  0  0  0  0  0  0  0  0
   11.5830   -0.4280   23.7800 C   0  0  0  0  0  0  0  0  0  0  0  0
   13.5870   -1.4560   21.3100 N   0  0  0  0  0  0  0  0  0  0  0  0
   11.5340    1.1060   23.4480 C   0  0  2  0  0  0  0  0  0  0  0  0
   10.2370   -0.7830   24.0000 C   0  0  0  0  0  0  0  0  0  0  0  0
    9.7300   -2.0040   24.1430 C   0  0  0  0  0  0  0  0  0  0  0  0
   12.9780   -2.6660   21.2880 C   0  0  0  0  0  0  0  0  0  0  0  0
   12.5920    2.1650   23.1340 C   0  0  0  0  0  0  0  0  0  0  0  0
   10.2980    1.5560   23.8350 C   0  0  0  0  0  0  0  0  0  0  0  0
    9.5030    0.4850   24.1000 C   0  0  0  0  0  0  0  0  0  0  0  0
   11.5350   -2.3830   21.7000 C   0  0  0  0  0  0  0  0  0  0  0  0
   12.2880    3.5410   23.1660 C   0  0  0  0  0  0  0  0  0  0  0  0
   10.0360    2.9020   23.8680 C   0  0  0  0  0  0  0  0  0  0  0  0
    8.8710   -2.3470   23.0670 N   0  0  0  0  0  0  0  0  0  0  0  0
   10.9730    3.8760   23.5520 C   0  0  0  0  0  0  0  0  0  0  0  0
    8.7100   -1.5810   21.8090 C   0  0  0  0  0  0  0  0  0  0  0  0
    7.7530   -2.9980   23.5270 C   0  0  0  0  0  0  0  0  0  0  0  0
   10.5120    5.5260   23.6610 S   0  0  0  0  0  0  0  0  0  0  0  0
    7.5570   -0.7970   21.7180 C   0  0  0  0  0  0  0  0  0  0  0  0
    6.9330   -3.5540   22.3600 C   0  0  0  0  0  0  0  0  0  0  0  0
   11.4650    6.3710   22.9880 O   0  0  0  0  0  0  0  0  0  0  0  0
   10.0570    5.8310   25.0040 O   0  0  0  0  0  0  0  0  0  0  0  0
    9.0960    5.6410   22.7500 N   0  0  0  0  0  0  0  0  0  0  0  0
    6.4860   -2.8730   21.2830 N   0  0  0  0  0  0  0  0  0  0  0  0
    6.3340   -1.4260   21.4240 C   0  0  0  0  0  0  0  0  0  0  0  0
    6.2900   -3.4300   20.0110 C   0  0  0  0  0  0  0  0  0  0  0  0
    5.3800   -4.2360   19.7910 O   0  0  0  0  0  0  0  0  0  0  0  0
    7.2680   -3.0360   18.9000 C   0  0  0  0  0  0  0  0  0  0  0  0
  1  2  1  0
  2  3  1  0
  2  4  1  0
  3  5  2  3
  4  6  1  0
  4  7  2  0
  7  8  1  0
  5  9  1  0
  6 10  1  1
  6 11  1  0
  7 12  1  0
 11 12  2  0
  9 13  1  0
 10 14  2  0
 11 15  1  0
  8 16  1  0
 14 17  1  0
 15 17  2  0
 16 18  1  0
 16 19  1  0
 17 20  1  0
 18 21  1  0
 19 22  1  0
 20 23  2  0
 20 24  2  0
 20 25  1  0
 22 26  1  0
 21 27  1  0
 26 27  1  0
 26 28  1  0
 28 29  2  0
 28 30  1  0
M  END
