x0161-x2562
     RDKit          3D

 31 34  0  0  0  0  0  0  0  0999 V2000
   13.3970   -2.3940   24.5430 C   0  0  0  0  0  0  0  0  0  0  0  0
   12.7270   -1.1360   24.5760 O   0  0  0  0  0  0  0  0  0  0  0  0
   12.4860   -0.5480   23.2690 C   0  0  2  0  0  0  0  0  0  0  0  0
   11.7620    0.7640   23.5040 C   0  0  2  0  0  0  0  0  0  0  0  0
   11.7910   -1.5020   22.5290 C   0  0  0  0  0  0  0  0  0  0  0  0
   12.4240    2.0500   22.9620 C   0  0  0  0  0  0  0  0  0  0  0  0
   10.8160    1.0140   24.4130 C   0  0  0  0  0  0  0  0  0  0  0  0
   10.5360    0.4340   22.6380 C   0  0  0  0  0  0  0  0  0  0  0  0
   10.3660   -0.9680   22.6180 C   0  0  1  0  0  0  0  0  0  0  0  0
    9.5100   -1.1690   21.4440 N   0  0  0  0  0  0  0  0  0  0  0  0
   11.8780    3.5000   23.1290 C   0  0  2  0  0  0  0  0  0  0  0  0
   10.1290    2.3810   24.2790 C   0  0  0  0  0  0  0  0  0  0  0  0
    8.4550   -0.2640   21.2690 C   0  0  0  0  0  0  0  0  0  0  0  0
   10.4590    3.5220   23.2730 C   0  0  1  0  0  0  0  0  0  0  0  0
   12.4850    4.3500   22.0830 C   0  0  1  0  0  0  0  0  0  0  0  0
    9.7720    5.1200   23.7510 S   0  0  0  0  0  0  0  0  0  0  0  0
    8.5970    0.9670   21.2270 O   0  0  0  0  0  0  0  0  0  0  0  0
    7.0370   -0.8540   21.1100 C   0  0  0  0  0  0  0  0  0  0  0  0
   11.9160    5.5020   21.8980 N   0  0  0  0  0  0  0  0  0  0  0  0
   13.7160    4.7800   22.3770 C   0  0  0  0  0  0  0  0  0  0  0  0
   10.8160    6.1200   23.6450 O   0  0  0  0  0  0  0  0  0  0  0  0
    9.0560    4.9970   25.0090 O   0  0  0  0  0  0  0  0  0  0  0  0
    8.5750    5.5230   22.6120 N   0  0  0  0  0  0  0  0  0  0  0  0
    6.3580   -0.0820   20.0270 C   0  0  0  0  0  0  0  0  0  0  0  0
   13.2540    6.0490   22.0640 C   0  0  2  0  0  0  0  0  0  0  0  0
   13.2460    7.1250   22.9920 O   0  0  0  0  0  0  0  0  0  0  0  0
    6.7800   -0.1080   18.6950 C   0  0  0  0  0  0  0  0  0  0  0  0
    5.2570    0.7220   20.3280 C   0  0  0  0  0  0  0  0  0  0  0  0
    4.4710    1.5640   19.4220 N   0  0  0  0  0  0  0  0  0  0  0  0
    6.1920    0.5940   17.7050 N   0  0  0  0  0  0  0  0  0  0  0  0
    5.0540    1.4200   18.0930 C   0  0  0  0  0  0  0  0  0  0  0  0
  1  2  1  0
  3  2  1  1
  3  4  1  0
  3  5  1  0
  4  6  1  6
  4  7  1  0
  4  8  1  0
  5  9  1  0
  8  9  1  0
  9 10  1  6
 11  6  1  6
  7 12  2  0
 10 13  1  0
 11 14  1  0
 12 14  1  0
 11 15  1  0
 14 16  1  1
 13 17  2  0
 13 18  1  0
 15 19  1  0
 15 20  1  1
 16 21  2  0
 16 22  2  0
 16 23  1  0
 18 24  1  0
 19 25  1  0
 20 25  1  0
 25 26  1  1
 24 27  2  0
 24 28  1  0
 28 29  2  0
 27 30  1  0
 29 31  1  0
 30 31  2  0
M  END
