x0161-x0397
     RDKit          3D

 33 35  0  0  0  0  0  0  0  0999 V2000
   13.3570   -2.3000   24.1470 C   0  0  0  0  0  0  0  0  0  0  0  0
   13.0000   -0.9130   24.1410 O   0  0  0  0  0  0  0  0  0  0  0  0
   12.5750   -0.5570   22.8890 C   0  0  1  0  0  0  0  0  0  0  0  0
   13.5780   -0.7700   22.2270 O   0  0  0  0  0  0  0  0  0  0  0  0
   11.4670   -1.4860   22.4670 C   0  0  0  0  0  0  0  0  0  0  0  0
   12.0330    0.8140   22.9930 C   0  0  0  0  0  0  0  0  0  0  0  0
   10.5260   -2.0290   23.5610 C   0  0  0  0  0  0  0  0  0  0  0  0
   12.8490    1.9060   22.9340 C   0  0  0  0  0  0  0  0  0  0  0  0
   10.5640    1.0910   23.1800 C   0  0  0  0  0  0  0  0  0  0  0  0
    9.0580   -2.0740   23.0840 C   0  0  0  0  0  0  0  0  0  0  0  0
   12.4440    3.2510   23.0630 C   0  0  0  0  0  0  0  0  0  0  0  0
   10.1400    2.3660   23.3210 C   0  0  0  0  0  0  0  0  0  0  0  0
    8.7500   -2.4620   21.7730 C   0  0  0  0  0  0  0  0  0  0  0  0
   11.0290    3.4690   23.2890 C   0  0  0  0  0  0  0  0  0  0  0  0
   10.3250    5.1510   23.5620 S   0  0  0  0  0  0  0  0  0  0  0  0
    7.7060   -1.5350   21.0940 C   0  0  0  0  0  0  0  0  0  0  0  0
   11.2160    6.1240   22.9700 O   0  0  0  0  0  0  0  0  0  0  0  0
    9.9680    5.2470   24.9680 O   0  0  0  0  0  0  0  0  0  0  0  0
    8.8930    5.1730   22.6500 N   0  0  0  0  0  0  0  0  0  0  0  0
    6.9890   -1.9690   20.2660 N   0  0  0  0  0  0  0  0  0  0  0  0
    6.9310   -1.4790   18.8870 C   0  0  0  0  0  0  0  0  0  0  0  0
    6.0990   -3.1170   20.5680 C   0  0  0  0  0  0  0  0  0  0  0  0
    5.4400   -3.7660   19.7380 O   0  0  0  0  0  0  0  0  0  0  0  0
    6.1170   -3.4200   21.9930 N   0  0  0  0  0  0  0  0  0  0  0  0
    6.1030   -0.2490   18.7360 C   0  0  0  0  0  0  0  0  0  0  0  0
    5.1010    0.1450   19.5640 C   0  0  0  0  0  0  0  0  0  0  0  0
    6.3580    0.5850   17.6630 N   0  0  0  0  0  0  0  0  0  0  0  0
    5.7020   -4.7060   22.5750 C   0  0  0  0  0  0  0  0  0  0  0  0
    5.4420    1.6310   17.7890 O   0  0  0  0  0  0  0  0  0  0  0  0
    4.6100    1.4220   18.9720 C   0  0  0  0  0  0  0  0  0  0  0  0
    6.6030   -5.3890   23.2470 C   0  0  0  0  0  0  0  0  0  0  0  0
    6.0480   -5.8390   21.9310 C   0  0  0  0  0  0  0  0  0  0  0  0
    3.6040    2.3810   19.2860 C   0  0  0  0  0  0  0  0  0  0  0  0
  1  2  1  0
  3  2  1  0
  3  4  1  6
  3  5  1  0
  3  6  1  0
  5  7  1  0
  6  8  2  0
  6  9  1  0
  7 10  1  0
  8 11  1  0
  9 12  2  0
 10 13  1  0
 11 14  2  0
 12 14  1  0
 14 15  1  0
 13 16  1  0
 15 17  2  0
 15 18  2  0
 15 19  1  0
 16 20  1  0
 20 21  1  0
 20 22  1  0
 22 23  2  0
 22 24  1  0
 21 25  1  0
 25 26  1  0
 25 27  2  0
 24 28  1  0
 27 29  1  0
 26 30  2  0
 29 30  1  0
 28 31  1  0
 28 32  1  0
 31 32  1  0
 30 33  1  0
M  END
