x0161-x3124
     RDKit          3D

 37 39  0  0  0  0  0  0  0  0999 V2000
    6.8160   -1.6850   22.0950 N   0  0  0  0  0  0  0  0  0  0  0  0
    6.0190   -2.8680   21.6950 C   0  0  0  0  0  0  0  0  0  0  0  0
    4.7810   -3.0000   21.3140 O   0  0  0  0  0  0  0  0  0  0  0  0
    6.4740   -0.2300   21.7830 C   0  0  1  0  0  0  0  0  0  0  0  0
    8.1800   -1.7630   22.5490 C   0  0  0  0  0  0  0  0  0  0  0  0
    6.7380   -4.1860   21.7400 C   0  0  0  0  0  0  0  0  0  0  0  0
    7.6680    0.7700   22.1570 C   0  0  0  0  0  0  0  0  0  0  0  0
    6.0530    0.2090   20.4080 C   0  0  0  0  0  0  0  0  0  0  0  0
    9.1830   -1.9440   21.6090 C   0  0  0  0  0  0  0  0  0  0  0  0
    8.5710   -1.6580   23.8710 C   0  0  0  0  0  0  0  0  0  0  0  0
    6.6220   -4.8220   20.3490 C   0  0  0  0  0  0  0  0  0  0  0  0
    7.7060    1.3260   23.4460 N   0  0  0  0  0  0  0  0  0  0  0  0
    8.5070    1.0500   21.2940 O   0  0  0  0  0  0  0  0  0  0  0  0
    4.9360    1.0150   20.2110 C   0  0  0  0  0  0  0  0  0  0  0  0
    6.7330   -0.1130   19.2290 C   0  0  0  0  0  0  0  0  0  0  0  0
   10.6620   -2.0250   22.0420 C   0  0  0  0  0  0  0  0  0  0  0  0
    9.9870   -1.7180   24.3930 C   0  0  0  0  0  0  0  0  0  0  0  0
    8.4420    2.5500   23.8810 C   0  0  0  0  0  0  0  0  0  0  0  0
    6.2910    0.3890   17.9050 N   0  0  0  0  0  0  0  0  0  0  0  0
    4.5380    1.4710   18.9750 C   0  0  0  0  0  0  0  0  0  0  0  0
   11.0680   -1.9020   23.5410 C   0  0  0  0  0  0  0  0  0  0  0  0
   12.5070   -1.9720   23.9650 C   0  0  0  0  0  0  0  0  0  0  0  0
    5.1920    1.1880   17.7920 C   0  0  0  0  0  0  0  0  0  0  0  0
    9.9360    2.5220   23.5530 C   0  0  0  0  0  0  0  0  0  0  0  0
   12.9540   -0.6640   24.5330 C   0  0  0  0  0  0  0  0  0  0  0  0
   13.2990   -2.4290   22.7950 C   0  0  0  0  0  0  0  0  0  0  0  0
   12.7810   -2.9890   25.0570 C   0  0  0  0  0  0  0  0  0  0  0  0
   10.7260    3.6750   23.4730 C   0  0  0  0  0  0  0  0  0  0  0  0
   10.4820    1.2850   23.3210 C   0  0  0  0  0  0  0  0  0  0  0  0
   13.7190    0.0020   23.5270 O   0  0  0  0  0  0  0  0  0  0  0  0
   10.1330    5.3300   23.7550 S   0  0  0  0  0  0  0  0  0  0  0  0
   11.8170    1.1080   22.9930 C   0  0  0  0  0  0  0  0  0  0  0  0
   12.0550    3.5020   23.1500 C   0  0  0  0  0  0  0  0  0  0  0  0
   11.1850    6.2330   23.3360 O   0  0  0  0  0  0  0  0  0  0  0  0
    9.5440    5.4280   25.0720 O   0  0  0  0  0  0  0  0  0  0  0  0
    8.8380    5.5310   22.6940 N   0  0  0  0  0  0  0  0  0  0  0  0
   12.7160    2.1720   22.8820 C   0  0  0  0  0  0  0  0  0  0  0  0
  1  2  1  0
  2  3  2  0
  1  4  1  0
  1  5  1  0
  2  6  1  0
  4  7  1  6
  4  8  1  0
  5  9  2  0
  5 10  1  0
  6 11  1  0
  7 12  1  0
  7 13  2  0
  8 14  2  0
  8 15  1  0
  9 16  1  0
 10 17  2  0
 12 18  1  0
 15 19  2  0
 14 20  1  0
 16 21  2  0
 17 21  1  0
 21 22  1  0
 19 23  1  0
 20 23  2  0
 18 24  1  0
 22 25  1  0
 22 26  1  0
 22 27  1  0
 24 28  2  0
 24 29  1  0
 25 30  2  0
 28 31  1  0
 29 32  2  0
 28 33  1  0
 31 34  2  0
 31 35  2  0
 31 36  1  0
 32 37  1  0
 33 37  2  0
M  END
