x0161-x3080
     RDKit          3D

 39 42  0  0  0  0  0  0  0  0999 V2000
    9.6620   -0.2730   23.5680 N   0  0  0  0  0  0  0  0  0  0  0  0
    9.7570   -0.6680   22.2560 C   0  0  0  0  0  0  0  0  0  0  0  0
    8.8140    0.1610   21.4160 C   0  0  0  0  0  0  0  0  0  0  0  0
    8.5540   -1.0840   24.4870 S   0  0  0  0  0  0  0  0  0  0  0  0
   10.6570    0.3370   24.2970 C   0  0  0  0  0  0  0  0  0  0  0  0
    7.4720   -1.5380   23.6520 O   0  0  0  0  0  0  0  0  0  0  0  0
    8.2590   -0.1850   25.5710 O   0  0  0  0  0  0  0  0  0  0  0  0
    9.3880   -2.5660   25.0530 C   0  0  0  0  0  0  0  0  0  0  0  0
   11.1670    1.5160   23.8540 C   0  0  0  0  0  0  0  0  0  0  0  0
    9.0240    1.3690   21.2080 O   0  0  0  0  0  0  0  0  0  0  0  0
    7.6480   -0.5590   20.8870 N   0  0  0  0  0  0  0  0  0  0  0  0
   10.8400   -3.1010   24.7640 C   0  0  1  0  0  0  0  0  0  0  0  0
    8.3930   -3.2850   25.8240 C   0  0  0  0  0  0  0  0  0  0  0  0
   12.4030    1.5150   23.2810 C   0  0  0  0  0  0  0  0  0  0  0  0
   10.5020    2.6820   23.9750 C   0  0  0  0  0  0  0  0  0  0  0  0
    6.7820    0.0510   20.0390 C   0  0  0  0  0  0  0  0  0  0  0  0
   11.8070   -2.2350   24.2690 N   0  0  0  0  0  0  0  0  0  0  0  0
   11.2360   -3.9620   25.7820 C   0  0  0  0  0  0  0  0  0  0  0  0
    8.7100   -4.6200   26.4210 C   0  0  0  0  0  0  0  0  0  0  0  0
   13.2330    0.2700   23.1170 C   0  0  0  0  0  0  0  0  0  0  0  0
   13.0530    2.7800   22.7750 C   0  0  0  0  0  0  0  0  0  0  0  0
   11.0670    3.9920   23.5120 C   0  0  0  0  0  0  0  0  0  0  0  0
   12.0290   -2.4020   22.8410 C   0  0  0  0  0  0  0  0  0  0  0  0
    5.5710    0.8050   20.5930 C   0  0  0  0  0  0  0  0  0  0  0  0
    7.0320   -0.0100   18.5640 C   0  0  0  0  0  0  0  0  0  0  0  0
   12.5570   -3.9470   26.2460 C   0  0  0  0  0  0  0  0  0  0  0  0
   13.1530   -2.2480   24.8150 C   0  0  0  0  0  0  0  0  0  0  0  0
   10.1670   -4.9710   26.3980 C   0  0  0  0  0  0  0  0  0  0  0  0
   13.5420   -0.1750   22.0280 O   0  0  0  0  0  0  0  0  0  0  0  0
   10.1890    5.5150   23.7120 S   0  0  0  0  0  0  0  0  0  0  0  0
   12.3300    4.0230   22.9140 C   0  0  0  0  0  0  0  0  0  0  0  0
    5.2950    0.8660   22.1130 C   0  0  0  0  0  0  0  0  0  0  0  0
    6.2810    0.5670   17.5930 N   0  0  0  0  0  0  0  0  0  0  0  0
    4.6850    1.4800   19.5230 C   0  0  0  0  0  0  0  0  0  0  0  0
   13.5730   -3.1080   25.7990 C   0  0  0  0  0  0  0  0  0  0  0  0
   10.9950    6.5740   23.1570 O   0  0  0  0  0  0  0  0  0  0  0  0
    9.6740    5.5710   25.0600 O   0  0  0  0  0  0  0  0  0  0  0  0
    8.8640    5.3200   22.6960 N   0  0  0  0  0  0  0  0  0  0  0  0
    5.1310    1.3030   18.0680 C   0  0  0  0  0  0  0  0  0  0  0  0
  1  2  1  0
  2  3  1  0
  4  1  1  0
  1  5  1  0
  4  6  2  0
  4  7  2  0
  4  8  1  0
  5  9  1  0
  3 10  2  0
  3 11  1  0
 12  8  1  1
  8 13  2  0
  9 14  2  0
  9 15  1  0
 11 16  1  0
 12 17  1  0
 12 18  1  0
 13 19  1  0
 14 20  1  0
 14 21  1  0
 15 22  2  0
 17 23  1  0
 16 24  2  0
 16 25  1  0
 18 26  2  0
 17 27  1  0
 18 28  1  0
 19 28  2  0
 20 29  2  0
 22 30  1  0
 21 31  2  0
 22 31  1  0
 24 32  1  0
 25 33  2  0
 24 34  1  0
 26 35  1  0
 27 35  2  0
 30 36  2  0
 30 37  2  0
 30 38  1  0
 33 39  1  0
 34 39  2  0
M  END
