x0161-x1334
     RDKit          3D

 32 34  0  0  0  0  0  0  0  0999 V2000
   13.3400   -2.1070   24.8120 C   0  0  0  0  0  0  0  0  0  0  0  0
   12.5380   -1.4240   23.9090 N   0  0  0  0  0  0  0  0  0  0  0  0
   12.9240   -0.2890   23.2420 C   0  0  0  0  0  0  0  0  0  0  0  0
   11.5100   -2.2110   23.2550 C   0  0  0  0  0  0  0  0  0  0  0  0
   13.8280   -0.2980   22.4440 O   0  0  0  0  0  0  0  0  0  0  0  0
   10.4220   -2.3670   24.1010 C   0  0  0  0  0  0  0  0  0  0  0  0
   12.1940    1.0210   23.3940 C   0  0  0  0  0  0  0  0  0  0  0  0
    9.4500   -3.4400   23.6950 C   0  0  2  0  0  0  0  0  0  0  0  0
   12.8490    2.3210   22.9400 C   0  0  0  0  0  0  0  0  0  0  0  0
   10.9170    1.1310   23.9270 C   0  0  0  0  0  0  0  0  0  0  0  0
   12.2360    3.5630   23.0330 C   0  0  0  0  0  0  0  0  0  0  0  0
   10.3500    2.4140   23.9980 C   0  0  0  0  0  0  0  0  0  0  0  0
    8.3500   -2.9460   23.0550 N   0  0  0  0  0  0  0  0  0  0  0  0
    9.1360   -4.2800   24.9520 C   0  0  0  0  0  0  0  0  0  0  0  0
   10.9600    3.6130   23.5770 C   0  0  0  0  0  0  0  0  0  0  0  0
    8.6170   -2.1390   21.9650 C   0  0  0  0  0  0  0  0  0  0  0  0
    7.2770   -3.9210   22.8880 C   0  0  0  0  0  0  0  0  0  0  0  0
    9.7430   -5.4690   25.2480 C   0  0  0  0  0  0  0  0  0  0  0  0
    7.9710   -3.8490   26.1670 S   0  0  0  0  0  0  0  0  0  0  0  0
   10.2600    5.1960   23.6810 S   0  0  0  0  0  0  0  0  0  0  0  0
    7.5010   -1.5700   21.3210 C   0  0  0  0  0  0  0  0  0  0  0  0
    6.0580   -3.1890   22.3470 C   0  0  0  0  0  0  0  0  0  0  0  0
    8.3080   -5.2650   27.0390 C   0  0  0  0  0  0  0  0  0  0  0  0
    9.3680   -6.0660   26.3410 C   0  0  0  0  0  0  0  0  0  0  0  0
   11.1290    6.1860   23.0760 O   0  0  0  0  0  0  0  0  0  0  0  0
    9.6970    5.4250   24.9930 O   0  0  0  0  0  0  0  0  0  0  0  0
    8.9260    5.0750   22.6680 N   0  0  0  0  0  0  0  0  0  0  0  0
    7.4800   -5.6180   28.4890 Cl  0  0  0  0  0  0  0  0  0  0  0  0
    6.4800   -2.6120   21.0830 N   0  0  0  0  0  0  0  0  0  0  0  0
    6.4140   -3.2660   19.8530 C   0  0  0  0  0  0  0  0  0  0  0  0
    7.4750   -3.0040   18.7730 C   0  0  0  0  0  0  0  0  0  0  0  0
    5.4940   -4.0740   19.6930 O   0  0  0  0  0  0  0  0  0  0  0  0
  1  2  1  0
  2  3  1  0
  2  4  1  0
  3  5  2  0
  4  6  1  0
  3  7  1  0
  8  6  1  1
  7  9  2  0
  7 10  1  0
  9 11  1  0
 10 12  2  0
  8 13  1  0
  8 14  1  0
 11 15  2  0
 12 15  1  0
 13 16  1  0
 13 17  1  0
 14 18  2  0
 14 19  1  0
 15 20  1  0
 16 21  1  0
 17 22  1  0
 19 23  1  0
 18 24  1  0
 23 24  2  0
 20 25  2  0
 20 26  2  0
 20 27  1  0
 23 28  1  0
 21 29  1  0
 22 29  1  0
 29 30  1  0
 30 31  1  0
 30 32  2  0
M  END
