x0161-x3115
     RDKit          3D

 39 41  0  0  0  0  0  0  0  0999 V2000
    6.7540   -1.7330   22.0740 N   0  0  0  0  0  0  0  0  0  0  0  0
    5.9800   -2.9010   21.6770 C   0  0  0  0  0  0  0  0  0  0  0  0
    4.7620   -2.9880   21.2970 O   0  0  0  0  0  0  0  0  0  0  0  0
    6.4110   -0.2870   21.7750 C   0  0  1  0  0  0  0  0  0  0  0  0
    8.1000   -1.8480   22.5660 C   0  0  0  0  0  0  0  0  0  0  0  0
    6.6890   -4.2210   21.7290 C   0  0  0  0  0  0  0  0  0  0  0  0
    7.6500    0.6710   21.9920 C   0  0  0  0  0  0  0  0  0  0  0  0
    5.9670    0.1690   20.4310 C   0  0  0  0  0  0  0  0  0  0  0  0
    9.2660   -1.8890   21.6490 C   0  0  0  0  0  0  0  0  0  0  0  0
    8.4760   -1.9250   23.8840 C   0  0  0  0  0  0  0  0  0  0  0  0
    6.5870   -4.8550   20.3420 C   0  0  0  0  0  0  0  0  0  0  0  0
    7.4940    1.8000   22.7720 N   0  0  0  0  0  0  0  0  0  0  0  0
    8.7130    0.4450   21.4220 O   0  0  0  0  0  0  0  0  0  0  0  0
    4.8720    0.9540   20.2110 C   0  0  0  0  0  0  0  0  0  0  0  0
    6.6710   -0.1260   19.0760 C   0  0  0  0  0  0  0  0  0  0  0  0
   10.7230   -2.0030   22.0910 C   0  0  0  0  0  0  0  0  0  0  0  0
    9.8080   -2.0280   24.2840 C   0  0  0  0  0  0  0  0  0  0  0  0
    8.1410    3.0350   22.3060 C   0  0  0  0  0  0  0  0  0  0  0  0
    6.2670    0.3530   17.7410 N   0  0  0  0  0  0  0  0  0  0  0  0
    4.4910    1.4040   18.9510 C   0  0  0  0  0  0  0  0  0  0  0  0
   10.9840   -2.0760   23.4970 C   0  0  0  0  0  0  0  0  0  0  0  0
    7.8620    4.1370   23.1400 C   0  0  0  0  0  0  0  0  0  0  0  0
   12.2890   -2.1950   24.2090 C   0  0  0  0  0  0  0  0  0  0  0  0
    5.1810    1.1000   17.8170 C   0  0  0  0  0  0  0  0  0  0  0  0
    8.8290    5.1580   22.7860 N   0  0  0  0  0  0  0  0  0  0  0  0
   13.3070   -2.5750   23.3310 C   0  0  0  0  0  0  0  0  0  0  0  0
   12.0950   -3.2250   25.3130 C   0  0  0  0  0  0  0  0  0  0  0  0
   12.7250   -0.8400   24.7070 C   0  0  0  0  0  0  0  0  0  0  0  0
    8.2450    6.4160   22.2990 C   0  0  0  0  0  0  0  0  0  0  0  0
   13.4980   -0.1700   24.0660 O   0  0  0  0  0  0  0  0  0  0  0  0
   10.1520    5.3330   23.8120 S   0  0  0  0  0  0  0  0  0  0  0  0
   11.0020    6.3720   23.2660 O   0  0  0  0  0  0  0  0  0  0  0  0
    9.6280    5.4250   25.1510 O   0  0  0  0  0  0  0  0  0  0  0  0
   10.9870    3.8540   23.5630 C   0  0  0  0  0  0  0  0  0  0  0  0
   12.1920    3.9220   23.0000 C   0  0  0  0  0  0  0  0  0  0  0  0
   10.2560    2.6000   24.0140 C   0  0  0  0  0  0  0  0  0  0  0  0
   12.8470    2.7430   22.7960 C   0  0  0  0  0  0  0  0  0  0  0  0
   11.0290    1.4660   23.7440 C   0  0  0  0  0  0  0  0  0  0  0  0
   12.2920    1.5350   23.1450 C   0  0  0  0  0  0  0  0  0  0  0  0
  1  2  1  0
  2  3  2  0
  1  4  1  0
  1  5  1  0
  2  6  1  0
  4  7  1  6
  4  8  1  0
  5  9  2  0
  5 10  1  0
  6 11  1  0
  7 12  1  0
  7 13  2  0
  8 14  2  0
  8 15  1  0
  9 16  1  0
 10 17  2  0
 12 18  1  0
 15 19  2  0
 14 20  1  0
 16 21  2  0
 17 21  1  0
 18 22  1  0
 21 23  1  0
 19 24  1  0
 20 24  2  0
 22 25  1  0
 23 26  1  0
 23 27  1  0
 23 28  1  0
 25 29  1  0
 28 30  2  0
 31 25  1  0
 31 32  2  0
 31 33  2  0
 31 34  1  0
 34 35  2  0
 34 36  1  0
 35 37  1  0
 36 38  2  0
 37 39  2  0
 38 39  1  0
M  END
