x0195-x0769
     RDKit          3D

 37 40  0  0  0  0  0  0  0  0999 V2000
    5.8400   -5.0170   26.8230 O   0  0  0  0  0  0  0  0  0  0  0  0
    4.8020   -5.2080   25.8410 S   0  0  0  0  0  0  0  0  0  0  0  0
    3.9640   -6.3850   25.8690 O   0  0  0  0  0  0  0  0  0  0  0  0
    3.7390   -3.8740   25.8780 C   0  0  0  0  0  0  0  0  0  0  0  0
    5.5340   -5.1450   24.3090 N   0  0  0  0  0  0  0  0  0  0  0  0
    4.2300   -2.5350   26.0110 C   0  0  0  0  0  0  0  0  0  0  0  0
    2.3590   -4.0710   25.7830 C   0  0  0  0  0  0  0  0  0  0  0  0
    5.0160   -5.9190   23.2490 C   0  0  0  0  0  0  0  0  0  0  0  0
    6.2450   -4.0490   23.9690 C   0  0  0  0  0  0  0  0  0  0  0  0
    5.6300   -2.2960   26.1040 O   0  0  0  0  0  0  0  0  0  0  0  0
    1.4730   -3.0140   25.8180 C   0  0  0  0  0  0  0  0  0  0  0  0
    3.3160   -1.4640   26.0470 C   0  0  0  0  0  0  0  0  0  0  0  0
    5.8890   -6.2820   22.2200 C   0  0  0  0  0  0  0  0  0  0  0  0
    7.2910   -4.4160   22.9180 C   0  0  0  0  0  0  0  0  0  0  0  0
    6.1210   -1.2140   25.3090 C   0  0  0  0  0  0  0  0  0  0  0  0
    1.9590   -1.7290   25.9510 C   0  0  0  0  0  0  0  0  0  0  0  0
    6.6770   -5.1240   21.7940 N   0  0  0  0  0  0  0  0  0  0  0  0
    6.3030   -4.5860   20.5530 C   0  0  0  0  0  0  0  0  0  0  0  0
    7.5210   -0.7360   25.8180 C   0  0  0  0  0  0  0  0  0  0  0  0
    5.3280   -5.0540   19.9970 O   0  0  0  0  0  0  0  0  0  0  0  0
    7.1010   -3.4480   19.8880 C   0  0  0  0  0  0  0  0  0  0  0  0
    8.4610   -0.9990   24.8340 C   0  0  0  0  0  0  0  0  0  0  0  0
    9.8310   -0.3540   25.1110 C   0  0  0  0  0  0  0  0  0  0  0  0
   10.6580   -0.2840   23.9840 N   0  0  0  0  0  0  0  0  0  0  0  0
   11.2190    0.8720   23.6360 C   0  0  0  0  0  0  0  0  0  0  0  0
   11.4420   -1.3700   23.7600 C   0  0  0  0  0  0  0  0  0  0  0  0
   12.4640    0.9340   23.1420 C   0  0  0  0  0  0  0  0  0  0  0  0
   12.3340   -1.2990   22.6920 C   0  0  0  0  0  0  0  0  0  0  0  0
   10.5480    2.0900   23.7690 C   0  0  0  0  0  0  0  0  0  0  0  0
   13.1970   -0.2520   22.9790 C   0  0  0  0  0  0  0  0  0  0  0  0
   13.0110    2.1890   22.8000 C   0  0  0  0  0  0  0  0  0  0  0  0
   11.0840    3.4550   23.4120 C   0  0  0  0  0  0  0  0  0  0  0  0
   10.1650    4.9710   23.6090 S   0  0  0  0  0  0  0  0  0  0  0  0
   12.3320    3.3900   22.9320 C   0  0  0  0  0  0  0  0  0  0  0  0
    9.6460    5.1380   24.9450 O   0  0  0  0  0  0  0  0  0  0  0  0
    9.2370    5.0680   22.5270 O   0  0  0  0  0  0  0  0  0  0  0  0
   11.3490    6.1400   23.3420 N   0  0  0  0  0  0  0  0  0  0  0  0
  1  2  2  0
  2  3  2  0
  2  4  1  0
  2  5  1  0
  4  6  1  0
  4  7  2  0
  5  8  1  0
  5  9  1  0
  6 10  1  0
  7 11  1  0
  6 12  2  0
  8 13  1  0
  9 14  1  0
 10 15  1  0
 11 16  2  0
 12 16  1  0
 13 17  1  0
 14 17  1  0
 17 18  1  0
 15 19  1  0
 18 20  2  0
 18 21  1  0
 19 22  1  0
 22 23  1  0
 23 24  1  0
 24 25  1  0
 24 26  1  0
 25 27  2  0
 26 28  1  0
 25 29  1  0
 27 30  1  0
 28 30  1  0
 27 31  1  0
 29 32  2  0
 32 33  1  0
 31 34  2  0
 32 34  1  0
 33 35  2  0
 33 36  2  0
 33 37  1  0
M  END
