x0195-x3124
     RDKit          3D

 40 43  0  0  0  0  0  0  0  0999 V2000
    6.9380   -1.7330   21.6090 N   0  0  0  0  0  0  0  0  0  0  0  0
    6.0630   -2.9310   21.4900 C   0  0  0  0  0  0  0  0  0  0  0  0
    4.8210   -2.9840   21.1290 O   0  0  0  0  0  0  0  0  0  0  0  0
    6.3230   -0.4380   21.4890 C   0  0  1  0  0  0  0  0  0  0  0  0
    8.3790   -1.7190   22.0320 C   0  0  2  0  0  0  0  0  0  0  0  0
    6.5670   -4.3240   21.7690 C   0  0  0  0  0  0  0  0  0  0  0  0
    7.2800    0.7510   21.9300 C   0  0  0  0  0  0  0  0  0  0  0  0
    5.9310    0.1050   20.1510 C   0  0  0  0  0  0  0  0  0  0  0  0
    9.0990   -3.0620   22.2700 C   0  0  0  0  0  0  0  0  0  0  0  0
    8.5610   -0.9130   23.1460 C   0  0  0  0  0  0  0  0  0  0  0  0
    6.6630   -5.0720   20.4170 C   0  0  0  0  0  0  0  0  0  0  0  0
    6.9650    1.3920   23.1150 N   0  0  0  0  0  0  0  0  0  0  0  0
    8.2390    1.0900   21.2230 O   0  0  0  0  0  0  0  0  0  0  0  0
    4.7880    0.9070   20.0670 C   0  0  0  0  0  0  0  0  0  0  0  0
    6.7340   -0.1350   18.8830 C   0  0  0  0  0  0  0  0  0  0  0  0
   10.1790   -3.0160   23.1100 C   0  0  0  0  0  0  0  0  0  0  0  0
    9.3420   -1.3510   24.1680 C   0  0  2  0  0  0  0  0  0  0  0  0
    7.5070    2.6890   23.5280 C   0  0  0  0  0  0  0  0  0  0  0  0
    9.5350   -0.1270   25.0950 C   0  0  0  0  0  0  0  0  0  0  0  0
    6.3170    0.4530   17.7380 N   0  0  0  0  0  0  0  0  0  0  0  0
    4.4110    1.4770   18.8680 C   0  0  0  0  0  0  0  0  0  0  0  0
   10.5450   -1.8410   23.6580 C   0  0  1  0  0  0  0  0  0  0  0  0
    5.1600    1.2600   17.7430 C   0  0  0  0  0  0  0  0  0  0  0  0
   11.4270   -1.9170   24.6360 N   0  0  0  0  0  0  0  0  0  0  0  0
   11.1430   -1.2330   22.3120 C   0  0  0  0  0  0  0  0  0  0  0  0
   12.7550   -1.6330   24.5510 C   0  0  0  0  0  0  0  0  0  0  0  0
   12.4200   -0.4740   22.4650 C   0  0  2  0  0  0  0  0  0  0  0  0
   12.5700   -0.5960   25.3890 C   0  0  0  0  0  0  0  0  0  0  0  0
   13.3150   -1.3020   23.2910 C   0  0  0  0  0  0  0  0  0  0  0  0
   13.4820   -2.8280   25.1590 C   0  0  0  0  0  0  0  0  0  0  0  0
   12.1910    1.0110   22.7970 C   0  0  0  0  0  0  0  0  0  0  0  0
   10.9620    1.3110   23.1560 C   0  0  0  0  0  0  0  0  0  0  0  0
   13.1480    2.0510   22.7200 C   0  0  0  0  0  0  0  0  0  0  0  0
   12.7320    3.3540   22.9940 C   0  0  0  0  0  0  0  0  0  0  0  0
   10.5640    2.6010   23.4450 C   0  0  0  0  0  0  0  0  0  0  0  0
   11.4280    3.6580   23.3610 C   0  0  0  0  0  0  0  0  0  0  0  0
   10.9420    5.2920   23.6830 S   0  0  0  0  0  0  0  0  0  0  0  0
   10.9540    5.6110   25.0840 O   0  0  0  0  0  0  0  0  0  0  0  0
    9.7160    5.5170   22.9500 O   0  0  0  0  0  0  0  0  0  0  0  0
   12.2110    6.2270   23.0540 N   0  0  0  0  0  0  0  0  0  0  0  0
  1  2  1  0
  2  3  2  0
  1  4  1  0
  5  1  1  1
  2  6  1  0
  4  7  1  6
  4  8  1  0
  5  9  1  0
  5 10  1  0
  6 11  1  0
  7 12  1  0
  7 13  2  0
  8 14  2  0
  8 15  1  0
  9 16  2  0
 10 17  1  0
 12 18  1  0
 17 19  1  1
 15 20  2  0
 14 21  1  0
 22 16  1  6
 17 22  1  0
 20 23  1  0
 21 23  2  0
 22 24  1  0
 22 25  1  0
 24 26  1  0
 25 27  1  0
 26 28  1  0
 26 29  1  0
 27 29  1  0
 26 30  1  0
 27 31  1  1
 31 32  2  0
 31 33  1  0
 33 34  2  0
 32 35  1  0
 34 36  1  0
 35 36  2  0
 36 37  1  0
 37 38  2  0
 37 39  2  0
 37 40  1  0
M  END
