x0195-x1418
     RDKit          3D

 25 27  0  0  0  0  0  0  0  0999 V2000
    9.6210   -0.3570   25.0030 C   0  0  0  0  0  0  0  0  0  0  0  0
   10.6040   -0.3430   24.0270 N   0  0  0  0  0  0  0  0  0  0  0  0
   11.2620   -1.5070   23.6740 C   0  0  1  0  0  0  0  0  0  0  0  0
   11.1590    0.8430   23.6720 C   0  0  0  0  0  0  0  0  0  0  0  0
   10.1700   -2.5830   23.3340 C   0  0  0  0  0  0  0  0  0  0  0  0
   12.3920    0.9360   23.1690 C   0  0  0  0  0  0  0  0  0  0  0  0
   12.2930   -1.3860   22.6700 C   0  0  0  0  0  0  0  0  0  0  0  0
   10.3950    2.1990   23.8300 C   0  0  0  0  0  0  0  0  0  0  0  0
   13.1680   -0.3380   22.9840 C   0  0  0  0  0  0  0  0  0  0  0  0
   12.9910    2.2220   22.7980 C   0  0  0  0  0  0  0  0  0  0  0  0
   11.0210    3.4250   23.4440 C   0  0  0  0  0  0  0  0  0  0  0  0
    8.9610   -2.2700   22.9170 N   0  0  0  0  0  0  0  0  0  0  0  0
   10.1140    4.9660   23.6320 S   0  0  0  0  0  0  0  0  0  0  0  0
   12.3200    3.4050   22.9310 C   0  0  0  0  0  0  0  0  0  0  0  0
    7.9490   -3.1300   23.2270 C   0  0  0  0  0  0  0  0  0  0  0  0
    8.9760   -1.8460   21.6270 C   0  0  0  0  0  0  0  0  0  0  0  0
    9.6000    5.1110   24.9690 O   0  0  0  0  0  0  0  0  0  0  0  0
    9.1860    5.1210   22.5520 O   0  0  0  0  0  0  0  0  0  0  0  0
   11.3190    6.1150   23.3950 N   0  0  0  0  0  0  0  0  0  0  0  0
    6.9690   -3.4770   22.2620 C   0  0  0  0  0  0  0  0  0  0  0  0
    7.5500   -1.4640   21.1940 C   0  0  0  0  0  0  0  0  0  0  0  0
    6.7760   -2.7130   21.1800 N   0  0  0  0  0  0  0  0  0  0  0  0
    6.4240   -3.2830   19.9130 C   0  0  0  0  0  0  0  0  0  0  0  0
    7.3620   -2.9830   18.7500 C   0  0  0  0  0  0  0  0  0  0  0  0
    5.4510   -4.0360   19.7210 O   0  0  0  0  0  0  0  0  0  0  0  0
  1  2  1  0
  2  3  1  0
  2  4  1  0
  3  5  1  6
  4  6  2  0
  3  7  1  0
  4  8  1  0
  6  9  1  0
  7  9  1  0
  6 10  1  0
  8 11  2  0
  5 12  1  0
 11 13  1  0
 10 14  2  0
 11 14  1  0
 12 15  1  0
 12 16  1  0
 13 17  2  0
 13 18  2  0
 13 19  1  0
 15 20  1  0
 16 21  1  0
 20 22  1  0
 21 22  1  0
 22 23  1  0
 23 24  1  0
 23 25  2  0
M  END
