x0195-x1358
     RDKit          3D

 36 39  0  0  0  0  0  0  0  0999 V2000
    6.9680   -2.0260   25.6520 N   0  0  0  0  0  0  0  0  0  0  0  0
    6.1940   -3.1010   25.1720 C   0  0  0  0  0  0  0  0  0  0  0  0
    5.4190   -3.7630   25.8580 O   0  0  0  0  0  0  0  0  0  0  0  0
    8.0040   -1.4160   24.6800 C   0  0  0  0  0  0  0  0  0  0  0  0
    6.6760   -1.1980   26.7740 C   0  0  0  0  0  0  0  0  0  0  0  0
    8.3740   -0.1410   25.1140 C   0  0  0  0  0  0  0  0  0  0  0  0
    5.9180   -0.0270   26.5270 C   0  0  0  0  0  0  0  0  0  0  0  0
    7.0830   -1.4390   28.1120 C   0  0  0  0  0  0  0  0  0  0  0  0
    6.3360   -3.4110   23.6600 C   0  0  0  0  0  0  0  0  0  0  0  0
    5.4920    0.2310   25.2510 O   0  0  0  0  0  0  0  0  0  0  0  0
    9.9050   -0.2340   25.0760 C   0  0  0  0  0  0  0  0  0  0  0  0
    6.7420   -0.5230   29.0880 C   0  0  0  0  0  0  0  0  0  0  0  0
    5.5940    0.8670   27.5440 C   0  0  0  0  0  0  0  0  0  0  0  0
    7.6590   -3.6230   23.2760 C   0  0  0  0  0  0  0  0  0  0  0  0
    5.5780   -4.7200   23.3500 C   0  0  0  0  0  0  0  0  0  0  0  0
    6.0140    0.6190   28.8360 C   0  0  0  0  0  0  0  0  0  0  0  0
    7.7490   -3.3310   21.9310 C   0  0  0  0  0  0  0  0  0  0  0  0
    6.2300   -5.2600   22.0520 C   0  0  0  0  0  0  0  0  0  0  0  0
   10.4690   -0.3520   23.9160 N   0  0  0  0  0  0  0  0  0  0  0  0
    6.7880   -4.1010   21.3450 N   0  0  0  0  0  0  0  0  0  0  0  0
   11.0660    0.9550   23.5820 C   0  0  0  0  0  0  0  0  0  0  0  0
   11.3640   -1.5220   23.7530 C   0  0  0  0  0  0  0  0  0  0  0  0
    6.2850   -3.8500   20.0500 C   0  0  0  0  0  0  0  0  0  0  0  0
   12.3800    0.9220   23.1240 C   0  0  0  0  0  0  0  0  0  0  0  0
   12.2410   -1.3130   22.6860 C   0  0  0  0  0  0  0  0  0  0  0  0
   10.3850    2.1930   23.7130 C   0  0  0  0  0  0  0  0  0  0  0  0
    5.1760   -4.2490   19.7300 O   0  0  0  0  0  0  0  0  0  0  0  0
    7.2070   -3.1070   19.0610 C   0  0  0  0  0  0  0  0  0  0  0  0
   13.0980   -0.2540   22.9770 C   0  0  0  0  0  0  0  0  0  0  0  0
   13.1150    2.2040   22.7590 C   0  0  0  0  0  0  0  0  0  0  0  0
   11.0470    3.5020   23.3670 C   0  0  0  0  0  0  0  0  0  0  0  0
   10.2110    5.0120   23.5350 S   0  0  0  0  0  0  0  0  0  0  0  0
   12.4540    3.4080   22.8820 C   0  0  0  0  0  0  0  0  0  0  0  0
    9.9420    5.3610   24.9050 O   0  0  0  0  0  0  0  0  0  0  0  0
    9.1010    5.0340   22.6170 O   0  0  0  0  0  0  0  0  0  0  0  0
   11.3680    6.1370   22.9570 N   0  0  0  0  0  0  0  0  0  0  0  0
  1  2  1  0
  2  3  2  0
  1  4  1  0
  1  5  1  0
  4  6  1  0
  5  7  2  0
  5  8  1  0
  2  9  1  0
  7 10  1  0
  6 11  1  0
  8 12  2  0
  7 13  1  0
  9 14  1  0
  9 15  1  0
 12 16  1  0
 13 16  2  0
 14 17  1  0
 15 18  1  0
 11 19  1  0
 17 20  1  0
 18 20  1  0
 19 21  1  0
 19 22  1  0
 20 23  1  0
 21 24  2  0
 22 25  1  0
 21 26  1  0
 23 27  2  0
 23 28  1  0
 24 29  1  0
 25 29  1  0
 24 30  1  0
 26 31  2  0
 31 32  1  0
 30 33  2  0
 31 33  1  0
 32 34  2  0
 32 35  2  0
 32 36  1  0
M  END
