x0195-x0749
     RDKit          3D

 32 36  0  0  0  0  0  0  0  0999 V2000
    8.7720   -0.3140   24.9330 C   0  0  0  0  0  0  0  0  0  0  0  0
    8.6750   -1.7280   24.3210 C   0  0  0  0  0  0  0  0  0  0  0  0
    9.6790   -2.2040   23.5170 N   0  0  0  0  0  0  0  0  0  0  0  0
   11.0350   -1.8530   23.9650 C   0  0  2  0  0  0  0  0  0  0  0  0
    9.5700   -3.6800   23.4970 C   0  0  2  0  0  0  0  0  0  0  0  0
   11.3560   -0.6930   24.5560 N   0  0  0  0  0  0  0  0  0  0  0  0
   12.1690   -1.9500   23.0750 C   0  0  0  0  0  0  0  0  0  0  0  0
    8.1870   -4.2330   23.2260 C   0  0  1  0  0  0  0  0  0  0  0  0
   10.3220   -4.3420   24.8730 S   0  0  0  0  0  0  0  0  0  0  0  0
   11.2780   -2.8250   25.0960 C   0  0  1  0  0  0  0  0  0  0  0  0
   11.0800    0.4220   23.7340 C   0  0  2  0  0  0  0  0  0  0  0  0
   12.7000   -0.7860   22.4500 C   0  0  0  0  0  0  0  0  0  0  0  0
    8.0680   -4.2320   21.8750 C   0  0  0  0  0  0  0  0  0  0  0  0
    7.8530   -5.4700   23.8020 C   0  0  0  0  0  0  0  0  0  0  0  0
   12.6660   -0.7970   25.0830 C   0  0  0  0  0  0  0  0  0  0  0  0
   12.7540   -3.1590   25.3050 C   0  0  0  0  0  0  0  0  0  0  0  0
   12.0880    0.4480   22.6430 C   0  0  2  0  0  0  0  0  0  0  0  0
   10.6540    1.8800   24.0760 C   0  0  0  0  0  0  0  0  0  0  0  0
    6.7810   -4.1590   21.5420 N   0  0  0  0  0  0  0  0  0  0  0  0
    6.9040   -6.2070   22.8120 C   0  0  0  0  0  0  0  0  0  0  0  0
   13.3730   -1.9690   25.4570 C   0  0  0  0  0  0  0  0  0  0  0  0
    6.4750   -3.8830   20.1900 C   0  0  0  0  0  0  0  0  0  0  0  0
   12.9600    1.6890   22.8170 C   0  0  0  0  0  0  0  0  0  0  0  0
   10.8640    2.8980   23.1200 C   0  0  1  0  0  0  0  0  0  0  0  0
    6.0710   -5.1370   22.1220 C   0  0  0  0  0  0  0  0  0  0  0  0
   10.1590    4.4590   23.4900 S   0  0  0  0  0  0  0  0  0  0  0  0
    7.5780   -3.2160   19.2950 C   0  0  0  0  0  0  0  0  0  0  0  0
    5.3690   -4.1690   19.7390 O   0  0  0  0  0  0  0  0  0  0  0  0
   12.2560    2.8660   23.0280 C   0  0  0  0  0  0  0  0  0  0  0  0
    9.5230    4.5030   24.7730 O   0  0  0  0  0  0  0  0  0  0  0  0
    9.3070    4.8060   22.4030 O   0  0  0  0  0  0  0  0  0  0  0  0
   11.4340    5.5590   23.4690 N   0  0  0  0  0  0  0  0  0  0  0  0
  1  2  1  0
  2  3  1  0
  3  4  1  0
  3  5  1  0
  4  6  1  0
  4  7  1  6
  5  8  1  0
  5  9  1  1
  4 10  1  0
  9 10  1  0
  6 11  1  0
  7 12  2  0
  8 13  1  6
  8 14  1  0
  6 15  1  0
 10 16  1  6
 11 17  1  0
 17 12  1  1
 11 18  1  1
 13 19  1  0
 14 20  1  0
 15 21  2  0
 16 21  1  0
 19 22  1  0
 17 23  1  0
 18 24  1  0
 19 25  1  0
 20 25  1  0
 24 26  1  1
 22 27  1  0
 22 28  2  0
 23 29  2  0
 24 29  1  0
 26 30  2  0
 26 31  2  0
 26 32  1  0
M  END
