x0195-x0705
     RDKit          3D

 35 38  0  0  0  0  0  0  0  0999 V2000
    1.0980   -2.7690   27.7940 C   0  0  0  0  0  0  0  0  0  0  0  0
    2.4630   -2.5240   27.2330 C   0  0  0  0  0  0  0  0  0  0  0  0
    3.5900   -3.2540   27.6910 C   0  0  0  0  0  0  0  0  0  0  0  0
    2.6240   -1.5630   26.2460 C   0  0  0  0  0  0  0  0  0  0  0  0
    3.8720   -1.3440   25.7420 C   0  0  0  0  0  0  0  0  0  0  0  0
    4.8700   -3.0110   27.1570 C   0  0  0  0  0  0  0  0  0  0  0  0
    4.9890   -2.0340   26.1680 C   0  0  0  0  0  0  0  0  0  0  0  0
    6.2780   -1.6810   25.5360 C   0  0  0  0  0  0  0  0  0  0  0  0
    7.1040   -0.8150   26.2030 N   0  0  0  0  0  0  0  0  0  0  0  0
    6.5290   -2.2900   24.2200 N   0  0  0  0  0  0  0  0  0  0  0  0
    8.3970   -0.2920   25.7480 C   0  0  0  0  0  0  0  0  0  0  0  0
    5.7600   -3.3400   23.8510 C   0  0  0  0  0  0  0  0  0  0  0  0
    6.6550   -1.3660   23.2450 C   0  0  0  0  0  0  0  0  0  0  0  0
    9.0330   -1.1410   24.6600 C   0  0  0  0  0  0  0  0  0  0  0  0
    5.7740   -3.7530   22.5140 C   0  0  0  0  0  0  0  0  0  0  0  0
    7.3340   -2.1010   22.0910 C   0  0  0  0  0  0  0  0  0  0  0  0
   10.5100   -0.8840   24.8400 C   0  0  0  0  0  0  0  0  0  0  0  0
    6.2190   -2.9060   21.5880 N   0  0  0  0  0  0  0  0  0  0  0  0
    6.3240   -3.3560   20.2660 C   0  0  0  0  0  0  0  0  0  0  0  0
   10.9280   -0.3930   23.6490 N   0  0  0  0  0  0  0  0  0  0  0  0
    5.4530   -3.3880   19.3830 O   0  0  0  0  0  0  0  0  0  0  0  0
    7.6190   -3.9630   19.9600 C   0  0  0  0  0  0  0  0  0  0  0  0
   11.2070    0.8960   23.4800 C   0  0  0  0  0  0  0  0  0  0  0  0
   11.3960   -1.2810   22.7570 C   0  0  0  0  0  0  0  0  0  0  0  0
   12.4960    1.0360   23.0880 C   0  0  0  0  0  0  0  0  0  0  0  0
   12.7300   -1.2020   22.3910 C   0  0  0  0  0  0  0  0  0  0  0  0
   10.3790    2.0420   23.6500 C   0  0  0  0  0  0  0  0  0  0  0  0
   13.3300   -0.0550   22.9280 C   0  0  0  0  0  0  0  0  0  0  0  0
   13.0910    2.4000   22.8140 C   0  0  0  0  0  0  0  0  0  0  0  0
   10.9280    3.4390   23.3850 C   0  0  0  0  0  0  0  0  0  0  0  0
    9.9870    4.8830   23.5630 S   0  0  0  0  0  0  0  0  0  0  0  0
   12.3510    3.5440   22.9480 C   0  0  0  0  0  0  0  0  0  0  0  0
    9.6770    5.1750   24.9360 O   0  0  0  0  0  0  0  0  0  0  0  0
    8.9240    4.8410   22.5930 O   0  0  0  0  0  0  0  0  0  0  0  0
   11.1140    6.0890   23.0880 N   0  0  0  0  0  0  0  0  0  0  0  0
  1  2  1  0
  2  3  2  0
  2  4  1  0
  4  5  2  0
  3  6  1  0
  5  7  1  0
  6  7  2  0
  7  8  1  0
  8  9  2  3
  8 10  1  0
  9 11  1  0
 10 12  1  0
 10 13  1  0
 11 14  1  0
 12 15  1  0
 13 16  1  0
 14 17  1  0
 15 18  1  0
 16 18  1  0
 18 19  1  0
 17 20  1  0
 19 21  2  0
 19 22  1  0
 20 23  1  0
 20 24  1  0
 23 25  2  0
 24 26  1  0
 23 27  1  0
 25 28  1  0
 26 28  1  0
 25 29  1  0
 27 30  2  0
 30 31  1  0
 29 32  2  0
 30 32  1  0
 31 33  2  0
 31 34  2  0
 31 35  1  0
M  END
