x0195-x1308
     RDKit          3D

 38 41  0  0  0  0  0  0  0  0999 V2000
    7.3440   -3.4120   19.7690 C   0  0  0  0  0  0  0  0  0  0  0  0
    6.4040   -4.4140   20.4730 C   0  0  0  0  0  0  0  0  0  0  0  0
    5.3340   -4.6730   19.9440 O   0  0  0  0  0  0  0  0  0  0  0  0
    6.7490   -5.0450   21.6670 N   0  0  0  0  0  0  0  0  0  0  0  0
    7.3830   -4.4250   22.6740 C   0  0  0  0  0  0  0  0  0  0  0  0
    6.0530   -6.1880   21.9740 C   0  0  0  0  0  0  0  0  0  0  0  0
    6.6530   -4.1930   23.8230 C   0  0  0  0  0  0  0  0  0  0  0  0
    5.3260   -6.0180   23.1630 C   0  0  0  0  0  0  0  0  0  0  0  0
    5.9750   -5.2630   24.2530 N   0  0  0  0  0  0  0  0  0  0  0  0
    5.4160   -5.2700   25.8640 S   0  0  2  0  0  0  0  0  0  0  0  0
    6.7000   -4.7300   26.8230 N   0  0  0  0  0  0  0  0  0  0  0  0
    5.0810   -6.6220   26.2550 O   0  0  0  0  0  0  0  0  0  0  0  0
    4.1100   -4.2100   26.0230 C   0  0  0  0  0  0  0  0  0  0  0  0
    7.9710   -5.3490   26.8540 C   0  0  0  0  0  0  0  0  0  0  0  0
    4.3890   -2.8970   26.4140 C   0  0  0  0  0  0  0  0  0  0  0  0
    2.8070   -4.6750   25.7670 C   0  0  0  0  0  0  0  0  0  0  0  0
    8.9390   -4.8990   25.6830 C   0  0  0  0  0  0  0  0  0  0  0  0
    3.3720   -1.9630   26.5770 C   0  0  0  0  0  0  0  0  0  0  0  0
    1.7380   -3.7640   25.9210 C   0  0  0  0  0  0  0  0  0  0  0  0
    9.1270   -3.5070   25.6980 C   0  0  0  0  0  0  0  0  0  0  0  0
    1.9410   -2.4300   26.3160 C   0  0  0  0  0  0  0  0  0  0  0  0
    0.5670   -1.4170   26.4800 Cl  0  0  0  0  0  0  0  0  0  0  0  0
    9.7310   -2.9030   24.4040 C   0  0  0  0  0  0  0  0  0  0  0  0
    9.5570   -1.4490   23.9020 C   0  0  0  0  0  0  0  0  0  0  0  0
   10.8840   -0.8060   23.7520 N   0  0  0  0  0  0  0  0  0  0  0  0
   11.1560    0.5570   23.5430 C   0  0  0  0  0  0  0  0  0  0  0  0
   11.7370   -1.7280   23.2290 C   0  0  0  0  0  0  0  0  0  0  0  0
   12.4560    0.7900   23.1150 C   0  0  0  0  0  0  0  0  0  0  0  0
   12.7570   -1.3180   22.4200 C   0  0  0  0  0  0  0  0  0  0  0  0
   10.3440    1.7330   23.6920 C   0  0  0  0  0  0  0  0  0  0  0  0
   13.3490   -0.2080   22.9390 C   0  0  0  0  0  0  0  0  0  0  0  0
   13.0380    2.1600   22.8020 C   0  0  0  0  0  0  0  0  0  0  0  0
   10.8630    3.1580   23.3950 C   0  0  0  0  0  0  0  0  0  0  0  0
    9.9580    4.6270   23.5390 S   0  0  0  0  0  0  0  0  0  0  0  0
   12.2770    3.2850   22.9330 C   0  0  0  0  0  0  0  0  0  0  0  0
    9.9430    5.2580   24.9940 O   0  0  0  0  0  0  0  0  0  0  0  0
    8.7360    4.5550   22.7800 O   0  0  0  0  0  0  0  0  0  0  0  0
   10.9170    5.7270   22.6840 N   0  0  0  0  0  0  0  0  0  0  0  0
  1  2  1  0
  2  3  2  0
  2  4  1  0
  4  5  1  0
  4  6  1  0
  5  7  1  0
  6  8  1  0
  7  9  1  0
  8  9  1  0
  9 10  1  0
 10 11  2  0
 10 12  2  0
 10 13  1  6
 11 14  1  0
 13 15  2  0
 13 16  1  0
 14 17  1  0
 15 18  1  0
 16 19  2  0
 17 20  1  0
 18 21  2  0
 19 21  1  0
 21 22  1  0
 20 23  1  0
 23 24  1  0
 24 25  1  0
 25 26  1  0
 25 27  1  0
 26 28  2  0
 27 29  1  0
 26 30  1  0
 28 31  1  0
 29 31  1  0
 28 32  1  0
 30 33  2  0
 33 34  1  0
 32 35  2  0
 33 35  1  0
 34 36  2  0
 34 37  2  0
 34 38  1  0
M  END
