x0195-x1374
     RDKit          3D

 35 39  0  0  0  0  0  0  0  0999 V2000
   10.5040   -4.2810   25.8710 C   0  0  0  0  0  0  0  0  0  0  0  0
   10.8490   -2.9190   25.3200 C   0  0  0  0  0  0  0  0  0  0  0  0
   10.3040   -2.5490   24.0800 C   0  0  1  0  0  0  0  0  0  0  0  0
    9.4450   -4.4540   24.8960 C   0  0  0  0  0  0  0  0  0  0  0  0
    9.3400   -3.4570   23.9180 C   0  0  0  0  0  0  0  0  0  0  0  0
    8.6080   -5.5090   24.9320 C   0  0  0  0  0  0  0  0  0  0  0  0
    9.9890   -1.0560   24.2460 C   0  0  0  0  0  0  0  0  0  0  0  0
    8.3420   -3.5310   22.9760 C   0  0  0  0  0  0  0  0  0  0  0  0
    7.6350   -5.5620   23.9850 C   0  0  0  0  0  0  0  0  0  0  0  0
    7.4790   -4.5850   23.0110 C   0  0  0  0  0  0  0  0  0  0  0  0
   11.1960   -0.4480   24.0050 N   0  0  0  0  0  0  0  0  0  0  0  0
    6.3510   -4.8470   22.1520 N   0  0  0  0  0  0  0  0  0  0  0  0
   11.3760    0.8880   23.6930 C   0  0  0  0  0  0  0  0  0  0  0  0
   12.2660   -1.4230   23.6510 C   0  0  0  0  0  0  0  0  0  0  0  0
    6.2490   -4.6160   20.7340 C   0  0  0  0  0  0  0  0  0  0  0  0
    5.4100   -5.5480   22.9550 C   0  0  1  0  0  0  0  0  0  0  0  0
   12.5700    1.1160   23.1260 C   0  0  0  0  0  0  0  0  0  0  0  0
   12.8090   -1.0460   22.4840 C   0  0  0  0  0  0  0  0  0  0  0  0
   10.5300    2.0030   23.8800 C   0  0  0  0  0  0  0  0  0  0  0  0
    5.4320   -5.2320   20.0520 O   0  0  0  0  0  0  0  0  0  0  0  0
    7.1660   -3.5630   20.0090 C   0  0  0  0  0  0  0  0  0  0  0  0
    4.9470   -4.7270   24.0120 C   0  0  0  0  0  0  0  0  0  0  0  0
    4.2880   -6.1130   22.4840 C   0  0  0  0  0  0  0  0  0  0  0  0
   13.4190    0.0660   22.9240 C   0  0  0  0  0  0  0  0  0  0  0  0
   12.9610    2.3990   22.7540 C   0  0  0  0  0  0  0  0  0  0  0  0
   10.9690    3.4220   23.4530 C   0  0  0  0  0  0  0  0  0  0  0  0
   10.0310    4.8710   23.6250 S   0  0  0  0  0  0  0  0  0  0  0  0
    3.5820   -6.6700   24.0000 S   0  0  0  0  0  0  0  0  0  0  0  0
    3.9120   -5.2150   24.7250 C   0  0  0  0  0  0  0  0  0  0  0  0
   12.1880    3.5130   22.9080 C   0  0  0  0  0  0  0  0  0  0  0  0
    2.0470   -7.0030   23.7560 O   0  0  0  0  0  0  0  0  0  0  0  0
    4.4020   -7.8430   24.6880 O   0  0  0  0  0  0  0  0  0  0  0  0
    9.7070    5.1990   24.9880 O   0  0  0  0  0  0  0  0  0  0  0  0
    8.9610    4.8030   22.6620 O   0  0  0  0  0  0  0  0  0  0  0  0
   11.1210    6.0800   23.0730 N   0  0  0  0  0  0  0  0  0  0  0  0
  1  2  1  0
  2  3  1  0
  1  4  1  0
  3  5  1  0
  4  5  2  0
  4  6  1  0
  3  7  1  1
  5  8  1  0
  6  9  2  0
  8 10  2  0
  9 10  1  0
  7 11  1  0
 10 12  1  0
 11 13  1  0
 11 14  1  0
 12 15  1  0
 16 12  1  6
 13 17  2  0
 14 18  1  0
 13 19  1  0
 15 20  2  0
 15 21  1  0
 16 22  1  0
 16 23  1  0
 17 24  1  0
 18 24  1  0
 17 25  1  0
 19 26  2  0
 26 27  1  0
 23 28  1  0
 22 29  2  0
 28 29  1  0
 25 30  2  0
 26 30  1  0
 28 31  1  0
 28 32  1  0
 27 33  2  0
 27 34  2  0
 27 35  1  0
M  END
