x0195-x1336
     RDKit          3D

 35 38  0  0  0  0  0  0  0  0999 V2000
    5.9730   -5.2830   29.1590 C   0  0  0  0  0  0  0  0  0  0  0  0
    6.9390   -4.8790   28.0510 C   0  0  0  0  0  0  0  0  0  0  0  0
    8.1190   -5.6290   27.9040 C   0  0  0  0  0  0  0  0  0  0  0  0
    6.6830   -3.8170   27.2070 C   0  0  0  0  0  0  0  0  0  0  0  0
    7.7210   -3.5160   26.1380 C   0  0  0  0  0  0  0  0  0  0  0  0
    9.0710   -5.3520   26.9270 C   0  0  0  0  0  0  0  0  0  0  0  0
    7.4260   -2.1810   25.0790 S   0  0  2  0  0  0  0  0  0  0  0  0
    8.8940   -4.2810   26.0140 C   0  0  0  0  0  0  0  0  0  0  0  0
    8.9470   -1.8450   24.4570 N   0  0  0  0  0  0  0  0  0  0  0  0
    6.5460   -1.2440   25.7460 O   0  0  0  0  0  0  0  0  0  0  0  0
   10.0490   -4.2020   25.0870 C   0  0  0  0  0  0  0  0  0  0  0  0
    6.6160   -2.5880   23.6780 N   0  0  0  0  0  0  0  0  0  0  0  0
    6.2740   -3.8580   23.4460 C   0  0  0  0  0  0  0  0  0  0  0  0
    6.8360   -1.8330   22.5860 C   0  0  0  0  0  0  0  0  0  0  0  0
    9.2130   -0.6750   23.6940 C   0  0  0  0  0  0  0  0  0  0  0  0
    6.6800   -4.5070   22.2860 C   0  0  0  0  0  0  0  0  0  0  0  0
    7.8290   -2.4210   21.6070 C   0  0  0  0  0  0  0  0  0  0  0  0
   10.6330   -0.3460   23.8510 N   0  0  0  0  0  0  0  0  0  0  0  0
    7.0950   -3.6230   21.1670 N   0  0  0  0  0  0  0  0  0  0  0  0
   11.1390    0.9650   23.5740 C   0  0  0  0  0  0  0  0  0  0  0  0
   11.5150   -1.3940   23.8850 C   0  0  0  0  0  0  0  0  0  0  0  0
    6.5360   -3.6350   19.9070 C   0  0  0  0  0  0  0  0  0  0  0  0
   12.5480    0.9610   23.0580 C   0  0  0  0  0  0  0  0  0  0  0  0
   12.2380   -1.3420   22.6670 C   0  0  0  0  0  0  0  0  0  0  0  0
   10.4600    2.1710   23.7370 C   0  0  0  0  0  0  0  0  0  0  0  0
    5.4080   -4.0890   19.7060 O   0  0  0  0  0  0  0  0  0  0  0  0
    7.4600   -3.1140   18.8080 C   0  0  0  0  0  0  0  0  0  0  0  0
   13.2160   -0.3990   22.9070 C   0  0  0  0  0  0  0  0  0  0  0  0
   13.1290    2.1960   22.7610 C   0  0  0  0  0  0  0  0  0  0  0  0
   11.0970    3.3600   23.4140 C   0  0  0  0  0  0  0  0  0  0  0  0
   10.2510    4.9080   23.6100 S   0  0  0  0  0  0  0  0  0  0  0  0
   12.3980    3.3670   22.9370 C   0  0  0  0  0  0  0  0  0  0  0  0
   10.4080    5.4900   25.0780 O   0  0  0  0  0  0  0  0  0  0  0  0
    8.9420    4.8210   23.0060 O   0  0  0  0  0  0  0  0  0  0  0  0
   11.1460    5.9320   22.6290 N   0  0  0  0  0  0  0  0  0  0  0  0
  1  2  1  0
  2  3  2  0
  2  4  1  0
  4  5  2  0
  3  6  1  0
  7  5  1  1
  5  8  1  0
  6  8  2  0
  7  9  2  0
  7 10  2  0
  8 11  1  0
  7 12  1  0
 12 13  1  0
 12 14  1  0
  9 15  1  0
 13 16  1  0
 14 17  1  0
 15 18  1  0
 16 19  1  0
 17 19  1  0
 18 20  1  0
 18 21  1  0
 19 22  1  0
 20 23  2  0
 21 24  1  0
 20 25  1  0
 22 26  2  0
 22 27  1  0
 23 28  1  0
 24 28  1  0
 23 29  1  0
 25 30  2  0
 30 31  1  0
 29 32  2  0
 30 32  1  0
 31 33  2  0
 31 34  2  0
 31 35  1  0
M  END
