x0195-x0755
     RDKit          3D

 38 41  0  0  0  0  0  0  0  0999 V2000
    4.3940   -6.3560   26.0980 O   0  0  0  0  0  0  0  0  0  0  0  0
    5.0530   -5.0940   25.8580 S   0  0  0  0  0  0  0  0  0  0  0  0
    6.0950   -4.6360   26.7360 O   0  0  0  0  0  0  0  0  0  0  0  0
    3.9030   -3.8430   25.8940 C   0  0  0  0  0  0  0  0  0  0  0  0
    5.6320   -5.1420   24.2510 N   0  0  0  0  0  0  0  0  0  0  0  0
    2.5310   -4.1810   25.7510 C   0  0  0  0  0  0  0  0  0  0  0  0
    4.3090   -2.5120   26.0740 C   0  0  0  0  0  0  0  0  0  0  0  0
    6.5950   -4.2030   23.8040 C   0  0  0  0  0  0  0  0  0  0  0  0
    4.8100   -5.6460   23.3020 C   0  0  0  0  0  0  0  0  0  0  0  0
    2.1210   -5.4430   25.5800 F   0  0  0  0  0  0  0  0  0  0  0  0
    5.6110   -2.0950   26.2240 O   0  0  0  0  0  0  0  0  0  0  0  0
    3.3010   -1.5520   26.1070 C   0  0  0  0  0  0  0  0  0  0  0  0
    1.5650   -3.1730   25.7920 C   0  0  0  0  0  0  0  0  0  0  0  0
    7.4520   -4.6950   22.8010 C   0  0  0  0  0  0  0  0  0  0  0  0
    5.6760   -6.2460   22.1920 C   0  0  0  0  0  0  0  0  0  0  0  0
    6.0020   -1.0320   25.3570 C   0  0  0  0  0  0  0  0  0  0  0  0
    1.9590   -1.8610   25.9740 C   0  0  0  0  0  0  0  0  0  0  0  0
    6.6320   -5.2520   21.7170 N   0  0  0  0  0  0  0  0  0  0  0  0
    6.4140   -4.5140   20.5380 C   0  0  0  0  0  0  0  0  0  0  0  0
    7.4240   -0.5160   25.7770 C   0  0  0  0  0  0  0  0  0  0  0  0
    5.3540   -4.7140   19.9590 O   0  0  0  0  0  0  0  0  0  0  0  0
    7.4530   -3.5070   19.9730 C   0  0  0  0  0  0  0  0  0  0  0  0
    8.3510   -0.8820   24.8100 C   0  0  0  0  0  0  0  0  0  0  0  0
    9.7650   -0.3350   25.0930 C   0  0  0  0  0  0  0  0  0  0  0  0
   10.6070   -0.2840   23.9660 N   0  0  0  0  0  0  0  0  0  0  0  0
   11.1750    0.8730   23.6380 C   0  0  0  0  0  0  0  0  0  0  0  0
   11.4070   -1.3720   23.7910 C   0  0  0  0  0  0  0  0  0  0  0  0
   12.4280    0.9340   23.1790 C   0  0  0  0  0  0  0  0  0  0  0  0
   12.3170   -1.3010   22.7310 C   0  0  0  0  0  0  0  0  0  0  0  0
   10.5010    2.0970   23.7590 C   0  0  0  0  0  0  0  0  0  0  0  0
   13.1660   -0.2470   23.0240 C   0  0  0  0  0  0  0  0  0  0  0  0
   12.9780    2.1790   22.8680 C   0  0  0  0  0  0  0  0  0  0  0  0
   11.0720    3.4520   23.4200 C   0  0  0  0  0  0  0  0  0  0  0  0
   10.1620    4.9760   23.6000 S   0  0  0  0  0  0  0  0  0  0  0  0
   12.3340    3.4020   22.9740 C   0  0  0  0  0  0  0  0  0  0  0  0
    9.6580    5.1620   24.9380 O   0  0  0  0  0  0  0  0  0  0  0  0
    9.2260    5.0540   22.5230 O   0  0  0  0  0  0  0  0  0  0  0  0
   11.3440    6.1410   23.3050 N   0  0  0  0  0  0  0  0  0  0  0  0
  1  2  2  0
  2  3  2  0
  2  4  1  0
  2  5  1  0
  4  6  2  0
  4  7  1  0
  5  8  1  0
  5  9  1  0
  6 10  1  0
  7 11  1  0
  7 12  2  0
  6 13  1  0
  8 14  1  0
  9 15  1  0
 11 16  1  0
 12 17  1  0
 13 17  2  0
 14 18  1  0
 15 18  1  0
 18 19  1  0
 16 20  1  0
 19 21  2  0
 19 22  1  0
 20 23  1  0
 23 24  1  0
 24 25  1  0
 25 26  1  0
 25 27  1  0
 26 28  2  0
 27 29  1  0
 26 30  1  0
 28 31  1  0
 29 31  1  0
 28 32  1  0
 30 33  2  0
 33 34  1  0
 32 35  2  0
 33 35  1  0
 34 36  2  0
 34 37  2  0
 34 38  1  0
M  END
