x0195-x0786
     RDKit          3D

 37 40  0  0  0  0  0  0  0  0999 V2000
    5.9070   -3.3790   21.7960 N   0  0  0  0  0  0  0  0  0  0  0  0
    6.0740   -4.2220   20.7170 C   0  0  0  0  0  0  0  0  0  0  0  0
    7.4720   -4.7250   20.5360 C   0  0  0  0  0  0  0  0  0  0  0  0
    5.5880   -1.9340   21.5120 C   0  0  0  0  0  0  0  0  0  0  0  0
    5.4530   -3.9340   23.0000 C   0  0  0  0  0  0  0  0  0  0  0  0
    5.1960   -4.5520   19.9250 O   0  0  0  0  0  0  0  0  0  0  0  0
    6.8170   -1.3410   21.2370 C   0  0  0  0  0  0  0  0  0  0  0  0
    4.6720   -5.0850   23.0270 C   0  0  0  0  0  0  0  0  0  0  0  0
    5.7840   -3.3110   24.2050 C   0  0  0  0  0  0  0  0  0  0  0  0
    7.4620   -0.9290   22.5640 C   0  0  0  0  0  0  0  0  0  0  0  0
    4.1920   -5.6450   24.2000 C   0  0  0  0  0  0  0  0  0  0  0  0
    5.3120   -3.8630   25.4090 C   0  0  0  0  0  0  0  0  0  0  0  0
    3.3750   -6.8290   24.2160 C   0  0  0  0  0  0  0  0  0  0  0  0
    8.6070   -1.6860   22.8690 C   0  0  0  0  0  0  0  0  0  0  0  0
    4.5230   -5.0180   25.3850 C   0  0  0  0  0  0  0  0  0  0  0  0
    3.9920   -8.0030   24.7180 O   0  0  0  0  0  0  0  0  0  0  0  0
    9.3970   -0.7420   23.7150 C   0  0  0  0  0  0  0  0  0  0  0  0
    2.0410   -6.7870   23.7810 N   0  0  0  0  0  0  0  0  0  0  0  0
    1.5420   -5.6360   23.2950 C   0  0  0  0  0  0  0  0  0  0  0  0
    1.0880   -7.8780   23.9350 C   0  0  0  0  0  0  0  0  0  0  0  0
   10.5400   -0.5230   23.1770 N   0  0  0  0  0  0  0  0  0  0  0  0
    0.5450   -5.0680   24.3120 C   0  0  0  0  0  0  0  0  0  0  0  0
    0.1000   -7.5270   24.8610 C   0  0  0  0  0  0  0  0  0  0  0  0
   11.0800    0.7280   23.1010 C   0  0  0  0  0  0  0  0  0  0  0  0
   11.3970   -1.5540   23.3360 C   0  0  0  0  0  0  0  0  0  0  0  0
   -0.7450   -6.1520   24.2920 S   0  0  0  0  0  0  0  0  0  0  0  0
   12.4330    0.7080   22.8550 C   0  0  0  0  0  0  0  0  0  0  0  0
   12.4780   -1.5830   22.5000 C   0  0  0  0  0  0  0  0  0  0  0  0
   10.3780    1.9620   23.2740 C   0  0  0  0  0  0  0  0  0  0  0  0
   13.2130   -0.4340   22.6850 C   0  0  0  0  0  0  0  0  0  0  0  0
   13.0930    1.9210   22.7740 C   0  0  0  0  0  0  0  0  0  0  0  0
   11.0060    3.2050   23.2310 C   0  0  0  0  0  0  0  0  0  0  0  0
   10.1920    4.6960   23.5140 S   0  0  0  0  0  0  0  0  0  0  0  0
   12.4660    3.1390   22.9430 C   0  0  0  0  0  0  0  0  0  0  0  0
   10.0490    4.8390   24.9550 O   0  0  0  0  0  0  0  0  0  0  0  0
    9.0240    4.7930   22.6820 O   0  0  0  0  0  0  0  0  0  0  0  0
   11.3290    5.8800   23.0070 N   0  0  0  0  0  0  0  0  0  0  0  0
  1  2  1  0
  2  3  1  0
  1  4  1  0
  1  5  1  0
  2  6  2  0
  4  7  1  0
  5  8  2  0
  5  9  1  0
  7 10  1  0
  8 11  1  0
  9 12  2  0
 11 13  1  0
 10 14  1  0
 11 15  2  0
 12 15  1  0
 13 16  2  0
 14 17  1  0
 13 18  1  0
 18 19  1  0
 18 20  1  0
 17 21  1  0
 19 22  1  0
 20 23  1  0
 21 24  1  0
 21 25  1  0
 22 26  1  0
 23 26  1  0
 24 27  2  0
 25 28  1  0
 24 29  1  0
 27 30  1  0
 28 30  1  0
 27 31  1  0
 29 32  2  0
 32 33  1  0
 31 34  2  0
 32 34  1  0
 33 35  2  0
 33 36  2  0
 33 37  1  0
M  END
