x0195-x1334
     RDKit          3D

 32 35  0  0  0  0  0  0  0  0999 V2000
    7.4430   -3.0420   18.7450 C   0  0  0  0  0  0  0  0  0  0  0  0
    6.4120   -3.2720   19.8460 C   0  0  0  0  0  0  0  0  0  0  0  0
    5.4300   -4.0000   19.6440 O   0  0  0  0  0  0  0  0  0  0  0  0
    6.5750   -2.6990   21.0890 N   0  0  0  0  0  0  0  0  0  0  0  0
    7.5990   -1.6510   21.2770 C   0  0  0  0  0  0  0  0  0  0  0  0
    6.2220   -3.3800   22.1950 C   0  0  0  0  0  0  0  0  0  0  0  0
    8.7870   -2.3260   21.9660 C   0  0  0  0  0  0  0  0  0  0  0  0
    7.3690   -3.7990   22.9100 C   0  0  0  0  0  0  0  0  0  0  0  0
    8.3580   -2.9230   23.0830 N   0  0  0  0  0  0  0  0  0  0  0  0
    9.3350   -3.1510   24.1210 C   0  0  1  0  0  0  0  0  0  0  0  0
    9.4560   -1.9500   25.0200 C   0  0  0  0  0  0  0  0  0  0  0  0
    9.1180   -4.1840   25.0900 C   0  0  0  0  0  0  0  0  0  0  0  0
    9.5740   -0.6380   24.2820 C   0  0  0  0  0  0  0  0  0  0  0  0
    9.8000   -5.3640   25.2660 C   0  0  0  0  0  0  0  0  0  0  0  0
    7.8670   -4.0130   26.2560 S   0  0  0  0  0  0  0  0  0  0  0  0
    8.1980   -5.4710   27.0390 C   0  0  0  0  0  0  0  0  0  0  0  0
    9.2460   -6.1310   26.4380 C   0  0  0  0  0  0  0  0  0  0  0  0
   10.8000   -0.3690   24.0300 N   0  0  0  0  0  0  0  0  0  0  0  0
    7.2630   -5.9370   28.3970 Cl  0  0  0  0  0  0  0  0  0  0  0  0
   11.2520    0.9830   23.6680 C   0  0  0  0  0  0  0  0  0  0  0  0
   11.7810   -1.4760   23.8550 C   0  0  0  0  0  0  0  0  0  0  0  0
   12.5000    1.0730   23.1540 C   0  0  0  0  0  0  0  0  0  0  0  0
   12.4140   -1.2350   22.6590 C   0  0  0  0  0  0  0  0  0  0  0  0
   10.5240    2.3570   23.7820 C   0  0  0  0  0  0  0  0  0  0  0  0
   13.3030   -0.2170   22.9860 C   0  0  0  0  0  0  0  0  0  0  0  0
   13.1010    2.2660   22.7730 C   0  0  0  0  0  0  0  0  0  0  0  0
   11.2000    3.5140   23.3660 C   0  0  0  0  0  0  0  0  0  0  0  0
   10.2290    4.9530   23.5730 S   0  0  0  0  0  0  0  0  0  0  0  0
   12.4880    3.4870   22.8590 C   0  0  0  0  0  0  0  0  0  0  0  0
   10.3380    5.4490   24.9260 O   0  0  0  0  0  0  0  0  0  0  0  0
    8.9390    4.7690   22.9420 O   0  0  0  0  0  0  0  0  0  0  0  0
   11.0570    6.0560   22.6210 N   0  0  0  0  0  0  0  0  0  0  0  0
  1  2  1  0
  2  3  2  0
  2  4  1  0
  4  5  1  0
  4  6  1  0
  5  7  1  0
  6  8  1  0
  7  9  1  0
  8  9  1  0
  9 10  1  0
 10 11  1  1
 10 12  1  0
 11 13  1  0
 12 14  2  0
 12 15  1  0
 15 16  1  0
 14 17  1  0
 16 17  2  0
 13 18  1  0
 16 19  1  0
 18 20  1  0
 18 21  1  0
 20 22  2  0
 21 23  1  0
 20 24  1  0
 22 25  1  0
 23 25  1  0
 22 26  1  0
 24 27  2  0
 27 28  1  0
 26 29  2  0
 27 29  1  0
 28 30  2  0
 28 31  2  0
 28 32  1  0
M  END
