x0305-x0734
     RDKit          3D

 32 34  0  0  0  0  0  0  0  0999 V2000
    5.3000   -4.6950   26.2140 N   0  0  0  0  0  0  0  0  0  0  0  0
    4.8600   -3.7210   26.8510 O   0  0  0  0  0  0  0  0  0  0  0  0
    5.5350   -2.5240   26.4420 C   0  0  0  0  0  0  0  0  0  0  0  0
    4.5160   -5.5230   25.7230 O   0  0  0  0  0  0  0  0  0  0  0  0
    6.6950   -4.9740   26.2190 C   0  0  0  0  0  0  0  0  0  0  0  0
    7.3710   -4.8240   25.0440 C   0  0  0  0  0  0  0  0  0  0  0  0
    7.3640   -5.4210   27.5190 C   0  0  0  0  0  0  0  0  0  0  0  0
    6.8070   -2.3160   27.3000 C   0  0  0  0  0  0  0  0  0  0  0  0
    8.8020   -5.1220   25.0910 C   0  0  0  0  0  0  0  0  0  0  0  0
    8.7100   -5.6770   27.4720 C   0  0  0  0  0  0  0  0  0  0  0  0
    6.7440   -4.4240   23.9140 N   0  0  0  0  0  0  0  0  0  0  0  0
    7.0990   -0.9860   27.6490 C   0  0  0  0  0  0  0  0  0  0  0  0
    9.3660   -5.5250   26.2870 C   0  0  0  0  0  0  0  0  0  0  0  0
    6.1940   -5.3920   23.1180 C   0  0  0  0  0  0  0  0  0  0  0  0
    7.2130   -3.1450   23.2880 C   0  0  0  0  0  0  0  0  0  0  0  0
    8.3940   -0.5560   27.2910 C   0  0  0  0  0  0  0  0  0  0  0  0
    6.5600   -5.4140   21.7700 C   0  0  0  0  0  0  0  0  0  0  0  0
    7.6630   -3.4780   22.0170 C   0  0  0  0  0  0  0  0  0  0  0  0
    8.7970   -0.7120   25.9770 C   0  0  0  0  0  0  0  0  0  0  0  0
    6.7320   -4.1510   21.3120 N   0  0  0  0  0  0  0  0  0  0  0  0
    6.3260   -3.8210   20.0340 C   0  0  0  0  0  0  0  0  0  0  0  0
    9.5750    0.0950   25.6510 N   0  0  0  0  0  0  0  0  0  0  0  0
    5.1960   -4.1120   19.6680 O   0  0  0  0  0  0  0  0  0  0  0  0
    7.3140   -3.1460   19.0940 C   0  0  0  0  0  0  0  0  0  0  0  0
   10.4560   -0.2690   24.5990 C   0  0  0  0  0  0  0  0  0  0  0  0
   11.6030    0.4170   24.4150 N   0  0  0  0  0  0  0  0  0  0  0  0
   10.1270   -1.3420   23.7670 C   0  0  0  0  0  0  0  0  0  0  0  0
   12.4310    0.0270   23.4170 C   0  0  0  0  0  0  0  0  0  0  0  0
   10.9960   -1.7280   22.7390 C   0  0  0  0  0  0  0  0  0  0  0  0
   12.1700   -1.0230   22.5780 C   0  0  0  0  0  0  0  0  0  0  0  0
   13.0610   -1.3690   21.5840 C   0  0  0  0  0  0  0  0  0  0  0  0
   13.8390   -1.6140   20.5700 N   0  0  0  0  0  0  0  0  0  0  0  0
  1  2  1  0
  2  3  1  0
  1  4  2  0
  1  5  1  0
  5  6  1  0
  5  7  2  0
  3  8  1  0
  6  9  2  0
  7 10  1  0
  6 11  1  0
  8 12  1  0
  9 13  1  0
 10 13  2  0
 11 14  1  0
 11 15  1  0
 12 16  1  0
 14 17  1  0
 15 18  1  0
 16 19  1  0
 17 20  1  0
 18 20  1  0
 20 21  1  0
 19 22  1  0
 21 23  2  0
 21 24  1  0
 22 25  1  0
 25 26  2  0
 25 27  1  0
 26 28  1  0
 27 29  2  0
 28 30  2  0
 29 30  1  0
 30 31  1  0
 31 32  3  0
M  CHG  1   1   1
M  END
