x0305-x2754-x2694
     RDKit          3D

 57 62  0  0  0  0  0  0  0  0999 V2000
    7.3960   -1.1170   22.3250 C   0  0  2  0  0  0  0  0  0  0  0  0
    6.9740    0.2880   21.6960 C   0  0  1  0  0  0  0  0  0  0  0  0
    7.9040    1.5420   21.9120 C   0  0  0  0  0  0  0  0  0  0  0  0
    7.2010   -0.6510   23.8070 C   0  0  0  0  0  0  0  0  0  0  0  0
    8.8810   -1.5740   22.2050 C   0  0  2  0  0  0  0  0  0  0  0  0
    6.5070   -2.4940   22.3450 C   0  0  2  0  0  0  0  0  0  0  0  0
    6.3000    0.3890   20.4600 C   0  0  0  0  0  0  0  0  0  0  0  0
    9.3710   -1.8690   23.5510 N   0  0  0  0  0  0  0  0  0  0  0  0
    9.7430   -0.7010   21.6680 C   0  0  0  0  0  0  0  0  0  0  0  0
    6.6410   -3.5940   21.5510 N   0  0  0  0  0  0  0  0  0  0  0  0
    5.0720   -2.4340   22.8090 C   0  0  0  0  0  0  0  0  0  0  0  0
    7.5970    2.4440   22.8060 N   0  0  0  0  0  0  0  0  0  0  0  0
    8.9910    1.6950   21.0310 O   0  0  0  0  0  0  0  0  0  0  0  0
    6.3300   -3.7070   20.1970 C   0  0  0  0  0  0  0  0  0  0  0  0
    4.9260    1.0310   20.3330 C   0  0  0  0  0  0  0  0  0  0  0  0
    6.9340   -0.0770   19.2470 C   0  0  0  0  0  0  0  0  0  0  0  0
    9.8320   -0.5020   23.9140 N   0  0  0  0  0  0  0  0  0  0  0  0
   10.2940    0.2510   22.7220 C   0  0  1  0  0  0  0  0  0  0  0  0
    4.7990   -3.6570   23.4620 C   0  0  2  0  0  0  0  0  0  0  0  0
    6.5040   -4.8420   22.3030 C   0  0  0  0  0  0  0  0  0  0  0  0
    4.3440   -3.2950   24.8960 C   0  0  0  0  0  0  0  0  0  0  0  0
    5.3320   -4.3420   19.8410 O   0  0  0  0  0  0  0  0  0  0  0  0
    7.2590   -3.1290   19.1560 C   0  0  0  0  0  0  0  0  0  0  0  0
    6.2720    0.0880   17.9590 N   0  0  0  0  0  0  0  0  0  0  0  0
    4.3720    1.1330   18.9600 C   0  0  0  0  0  0  0  0  0  0  0  0
    8.3900    3.6470   23.0230 C   0  0  0  0  0  0  0  0  0  0  0  0
   10.8870   -0.4410   24.8810 C   0  0  1  0  0  0  0  0  0  0  0  0
   11.7650    0.6450   22.6790 C   0  0  0  0  0  0  0  0  0  0  0  0
    5.7940   -4.6540   23.4940 C   0  0  0  0  0  0  0  0  0  0  0  0
   10.3490   -1.0470   25.9240 N   0  0  0  0  0  0  0  0  0  0  0  0
    2.9880   -3.6100   25.2000 O   0  0  0  0  0  0  0  0  0  0  0  0
    5.2140   -2.6500   25.8860 N   0  0  0  0  0  0  0  0  0  0  0  0
    5.0780    0.6650   17.8940 C   0  0  0  0  0  0  0  0  0  0  0  0
    9.5600    3.5700   23.7630 C   0  0  0  0  0  0  0  0  0  0  0  0
    8.0340    4.9040   22.5090 C   0  0  0  0  0  0  0  0  0  0  0  0
   12.2070   -0.7550   24.3720 N   0  0  0  0  0  0  0  0  0  0  0  0
   12.6680    0.1310   23.5100 C   0  0  0  0  0  0  0  0  0  0  0  0
    9.9760    2.2740   24.3350 C   0  0  0  0  0  0  0  0  0  0  0  0
   12.3740   -2.1380   24.0770 C   0  0  2  0  0  0  0  0  0  0  0  0
    9.0090   -0.5730   26.3020 C   0  0  0  0  0  0  0  0  0  0  0  0
    4.3600   -1.7890   26.7360 C   0  0  0  0  0  0  0  0  0  0  0  0
   10.3800    4.6210   24.0150 C   0  0  0  0  0  0  0  0  0  0  0  0
    8.7820    6.0670   22.7040 C   0  0  0  0  0  0  0  0  0  0  0  0
    6.1880   -3.3610   26.6450 C   0  0  0  0  0  0  0  0  0  0  0  0
   13.7130   -2.5920   24.5460 C   0  0  0  0  0  0  0  0  0  0  0  0
    8.8870   -0.2830   27.8010 C   0  0  0  0  0  0  0  0  0  0  0  0
   10.0660    5.8780   23.5370 C   0  0  0  0  0  0  0  0  0  0  0  0
    6.4670   -4.8860   26.5150 C   0  0  0  0  0  0  0  0  0  0  0  0
    6.9780   -2.5420   27.6400 C   0  0  0  0  0  0  0  0  0  0  0  0
   12.2460   -2.6370   22.6630 C   0  0  0  0  0  0  0  0  0  0  0  0
   10.8990    6.9310   23.8170 O   0  0  0  0  0  0  0  0  0  0  0  0
    7.4370   -5.4640   27.3170 C   0  0  0  0  0  0  0  0  0  0  0  0
    7.8890   -3.2120   28.3690 C   0  0  0  0  0  0  0  0  0  0  0  0
   12.3880   -1.6920   21.5200 C   0  0  0  0  0  0  0  0  0  0  0  0
   11.8440    6.7290   24.8670 C   0  0  0  0  0  0  0  0  0  0  0  0
    8.1210   -4.6890   28.2030 C   0  0  0  0  0  0  0  0  0  0  0  0
   13.6830   -1.6610   20.9030 N   0  0  0  0  0  0  0  0  0  0  0  0
  1  2  1  0
  2  3  1  6
  1  4  1  1
  1  5  1  0
  1  6  1  0
  2  7  1  0
  5  8  1  0
  5  9  1  1
  6 10  1  0
  6 11  1  6
  3 12  1  0
  3 13  2  0
 10 14  1  0
  7 15  2  0
  7 16  1  0
  8 17  1  0
 18  9  1  6
 17 18  1  0
 11 19  1  0
 10 20  1  0
 19 21  1  1
 14 22  2  0
 14 23  1  0
 16 24  2  0
 15 25  1  0
 12 26  1  0
 17 27  1  0
 18 28  1  0
 19 29  1  0
 20 29  1  0
 27 30  1  1
 21 31  2  0
 21 32  1  0
 24 33  1  0
 25 33  2  0
 26 34  2  0
 26 35  1  0
 27 36  1  0
 28 37  2  0
 36 37  1  0
 34 38  1  0
 36 39  1  0
 30 40  1  0
 32 41  1  0
 34 42  1  0
 35 43  2  0
 32 44  1  0
 39 45  1  6
 40 46  1  0
 42 47  2  0
 43 47  1  0
 44 48  2  0
 44 49  1  0
 39 50  1  0
 47 51  1  0
 48 52  1  0
 49 53  2  0
 50 54  1  0
 51 55  1  0
 52 56  2  0
 53 56  1  0
 54 57  1  0
M  END
