x0305-x2694
     RDKit          3D

 41 44  0  0  0  0  0  0  0  0999 V2000
    6.8630   -1.3120   21.8400 N   0  0  0  0  0  0  0  0  0  0  0  0
    6.1100   -2.6210   21.5590 C   0  0  0  0  0  0  0  0  0  0  0  0
    4.8230   -2.9910   21.2470 O   0  0  0  0  0  0  0  0  0  0  0  0
    6.5420    0.1720   21.5350 C   0  0  1  0  0  0  0  0  0  0  0  0
    8.1600   -1.2010   22.4910 C   0  0  1  0  0  0  0  0  0  0  0  0
    7.0160   -3.8050   21.6460 C   0  0  0  0  0  0  0  0  0  0  0  0
    7.6910    1.3070   21.7620 C   0  0  0  0  0  0  0  0  0  0  0  0
    6.0630    0.5340   20.1730 C   0  0  0  0  0  0  0  0  0  0  0  0
    8.5900   -2.0850   23.6220 N   0  0  0  0  0  0  0  0  0  0  0  0
    9.3500   -1.1080   21.7980 C   0  0  0  0  0  0  0  0  0  0  0  0
    6.8220   -4.5970   20.3760 C   0  0  0  0  0  0  0  0  0  0  0  0
    7.5200    2.2790   22.7740 N   0  0  0  0  0  0  0  0  0  0  0  0
    8.6760    1.3530   21.0250 O   0  0  0  0  0  0  0  0  0  0  0  0
    4.9280    1.3400   20.0760 C   0  0  0  0  0  0  0  0  0  0  0  0
    6.7080    0.1350   18.9950 C   0  0  0  0  0  0  0  0  0  0  0  0
    9.9420   -1.6930   23.6730 N   0  0  0  0  0  0  0  0  0  0  0  0
   10.0510   -0.6190   22.8470 C   0  0  1  0  0  0  0  0  0  0  0  0
    6.3080    0.4910   17.7530 N   0  0  0  0  0  0  0  0  0  0  0  0
    4.5380    1.6910   18.8140 C   0  0  0  0  0  0  0  0  0  0  0  0
    8.3510    3.4380   23.0180 C   0  0  0  0  0  0  0  0  0  0  0  0
   10.6500   -1.3300   24.8780 C   0  0  2  0  0  0  0  0  0  0  0  0
   11.3760    0.1290   22.7310 C   0  0  0  0  0  0  0  0  0  0  0  0
    9.9530   -0.2820   25.6540 N   0  0  0  0  0  0  0  0  0  0  0  0
    5.2130    1.2810   17.7130 C   0  0  0  0  0  0  0  0  0  0  0  0
    9.5570    3.3550   23.7510 C   0  0  0  0  0  0  0  0  0  0  0  0
    7.9900    4.7260   22.5270 C   0  0  0  0  0  0  0  0  0  0  0  0
   12.0770   -1.1140   24.6060 N   0  0  0  0  0  0  0  0  0  0  0  0
   12.3580   -0.1220   23.6270 C   0  0  0  0  0  0  0  0  0  0  0  0
   10.0070    2.0270   24.3150 C   0  0  0  0  0  0  0  0  0  0  0  0
   12.7100   -2.3810   24.3050 C   0  0  2  0  0  0  0  0  0  0  0  0
    8.6270   -0.3970   25.8880 C   0  0  0  0  0  0  0  0  0  0  0  0
   10.3350    4.4760   23.9680 C   0  0  0  0  0  0  0  0  0  0  0  0
    8.8030    5.8800   22.7690 C   0  0  0  0  0  0  0  0  0  0  0  0
   13.6420   -2.7450   25.4430 C   0  0  0  0  0  0  0  0  0  0  0  0
    8.3140   -0.0850   27.3290 C   0  0  0  0  0  0  0  0  0  0  0  0
    9.9870    5.7240   23.5050 C   0  0  0  0  0  0  0  0  0  0  0  0
   13.4060   -2.3830   22.9480 C   0  0  0  0  0  0  0  0  0  0  0  0
   10.9000    6.8060   23.8280 O   0  0  0  0  0  0  0  0  0  0  0  0
   12.6400   -2.3530   21.8010 C   0  0  0  0  0  0  0  0  0  0  0  0
   11.8430    6.6020   24.8890 C   0  0  0  0  0  0  0  0  0  0  0  0
   13.4400   -1.6350   20.8240 N   0  0  0  0  0  0  0  0  0  0  0  0
  1  2  1  0
  2  3  2  0
  1  4  1  0
  5  1  1  6
  2  6  1  0
  4  7  1  6
  4  8  1  0
  5  9  1  0
  5 10  1  0
  6 11  1  0
  7 12  1  0
  7 13  2  0
  8 14  2  0
  8 15  1  0
  9 16  1  0
 17 10  1  6
 16 17  1  0
 15 18  2  0
 14 19  1  0
 12 20  1  0
 16 21  1  0
 17 22  1  0
 21 23  1  6
 18 24  1  0
 19 24  2  0
 20 25  2  0
 20 26  1  0
 21 27  1  0
 22 28  2  0
 27 28  1  0
 25 29  1  0
 27 30  1  0
 23 31  1  0
 25 32  1  0
 26 33  2  0
 30 34  1  1
 31 35  1  0
 32 36  2  0
 33 36  1  0
 30 37  1  0
 36 38  1  0
 37 39  1  0
 38 40  1  0
 39 41  1  0
M  END
