x0354-x2649
     RDKit          3D

 31 33  0  0  0  0  0  0  0  0999 V2000
    6.8970   -0.4880   21.0980 N   0  0  0  0  0  0  0  0  0  0  0  0
    8.1250   -0.1290   21.5560 C   0  0  0  0  0  0  0  0  0  0  0  0
    8.8010    1.1000   21.2440 O   0  0  0  0  0  0  0  0  0  0  0  0
    6.2830    0.2000   20.0030 C   0  0  0  0  0  0  0  0  0  0  0  0
    8.7160   -1.2250   22.4260 C   0  0  2  0  0  0  0  0  0  0  0  0
    5.1300    1.2110   20.2380 C   0  0  0  0  0  0  0  0  0  0  0  0
    6.7860   -0.0560   18.5930 C   0  0  0  0  0  0  0  0  0  0  0  0
    7.7340   -1.7110   23.5140 C   0  0  0  0  0  0  0  0  0  0  0  0
    4.5560    1.5430   21.5790 C   0  0  0  0  0  0  0  0  0  0  0  0
    6.1340    0.6950   17.5240 N   0  0  0  0  0  0  0  0  0  0  0  0
    4.6440    1.8230   19.0950 C   0  0  0  0  0  0  0  0  0  0  0  0
   10.1470   -0.8710   22.6800 C   0  0  0  0  0  0  0  0  0  0  0  0
    5.1750    1.5450   17.7270 C   0  0  0  0  0  0  0  0  0  0  0  0
   10.5460    0.1270   23.5650 C   0  0  0  0  0  0  0  0  0  0  0  0
   11.0740   -1.5570   21.9840 C   0  0  0  0  0  0  0  0  0  0  0  0
    8.2120   -2.8700   24.4010 C   0  0  0  0  0  0  0  0  0  0  0  0
   11.9070    0.4140   23.7200 C   0  0  0  0  0  0  0  0  0  0  0  0
   12.3820   -1.2890   22.1190 C   0  0  0  0  0  0  0  0  0  0  0  0
    8.1250   -2.3900   25.7530 N   0  0  0  0  0  0  0  0  0  0  0  0
   13.3270   -2.2520   21.1370 Cl  0  0  0  0  0  0  0  0  0  0  0  0
   12.8530   -0.3030   22.9820 C   0  0  0  0  0  0  0  0  0  0  0  0
    8.6680   -1.2470   25.9980 C   0  0  0  0  0  0  0  0  0  0  0  0
    8.6840   -0.5360   27.1800 C   0  0  0  0  0  0  0  0  0  0  0  0
    7.4040   -0.5430   27.7900 O   0  0  0  0  0  0  0  0  0  0  0  0
    7.0200    0.5520   28.4960 C   0  0  0  0  0  0  0  0  0  0  0  0
    7.6370    1.7850   28.4860 C   0  0  0  0  0  0  0  0  0  0  0  0
    5.7820    0.3680   29.3700 C   0  0  0  0  0  0  0  0  0  0  0  0
    7.2310    2.8460   29.1990 C   0  0  0  0  0  0  0  0  0  0  0  0
    5.3280    1.4450   30.1220 C   0  0  0  0  0  0  0  0  0  0  0  0
    6.0050    2.6740   30.0730 C   0  0  0  0  0  0  0  0  0  0  0  0
    5.5160    3.8310   30.8960 C   0  0  0  0  0  0  0  0  0  0  0  0
  1  2  1  0
  2  3  2  0
  1  4  1  0
  2  5  1  0
  4  6  2  0
  4  7  1  0
  5  8  1  1
  6  9  1  0
  7 10  2  0
  6 11  1  0
  5 12  1  0
 10 13  1  0
 11 13  2  0
 12 14  2  0
 12 15  1  0
  8 16  1  0
 14 17  1  0
 15 18  2  0
 16 19  1  0
 18 20  1  0
 17 21  2  0
 18 21  1  0
 19 22  2  3
 22 23  1  0
 23 24  1  0
 24 25  1  0
 25 26  2  0
 25 27  1  0
 26 28  1  0
 27 29  2  0
 28 30  2  0
 29 30  1  0
 30 31  1  0
M  END
