x0354-x2776
     RDKit          3D

 47 51  0  0  0  0  0  0  0  0999 V2000
    6.8430   -1.5730   21.9610 N   0  0  0  0  0  0  0  0  0  0  0  0
    6.0800   -2.8070   21.6050 C   0  0  0  0  0  0  0  0  0  0  0  0
    4.8320   -3.0030   21.1910 O   0  0  0  0  0  0  0  0  0  0  0  0
    6.5480   -0.1090   21.5760 C   0  0  1  0  0  0  0  0  0  0  0  0
    8.2350   -1.5940   22.4310 C   0  0  0  0  0  0  0  0  0  0  0  0
    6.8170   -4.1060   21.7450 C   0  0  0  0  0  0  0  0  0  0  0  0
    7.6710    1.0030   21.8900 C   0  0  0  0  0  0  0  0  0  0  0  0
    6.0550    0.3050   20.2080 C   0  0  0  0  0  0  0  0  0  0  0  0
    9.1980   -1.6430   21.4770 C   0  0  0  0  0  0  0  0  0  0  0  0
    8.6560   -1.5250   23.7650 C   0  0  0  0  0  0  0  0  0  0  0  0
    6.7170   -4.8460   20.4160 C   0  0  0  0  0  0  0  0  0  0  0  0
    7.6220    1.8850   22.9690 N   0  0  0  0  0  0  0  0  0  0  0  0
    8.7990    1.2440   21.0220 O   0  0  0  0  0  0  0  0  0  0  0  0
    7.6950   -1.5140   24.7710 N   0  0  0  0  0  0  0  0  0  0  0  0
    4.8900    1.0550   20.1330 C   0  0  0  0  0  0  0  0  0  0  0  0
    6.7310   -0.0020   19.0280 C   0  0  0  0  0  0  0  0  0  0  0  0
   10.5600   -1.6000   21.7790 C   0  0  0  0  0  0  0  0  0  0  0  0
   10.0430   -1.4450   24.0590 C   0  0  0  0  0  0  0  0  0  0  0  0
    7.9100   -0.6740   25.9300 C   0  0  0  0  0  0  0  0  0  0  0  0
    6.3100    0.4100   17.8150 N   0  0  0  0  0  0  0  0  0  0  0  0
    4.4470    1.4820   18.8980 C   0  0  0  0  0  0  0  0  0  0  0  0
    8.3580    3.1070   23.1710 C   0  0  0  0  0  0  0  0  0  0  0  0
   10.9980   -1.4840   23.0640 C   0  0  0  0  0  0  0  0  0  0  0  0
   10.8180   -1.3040   25.3180 C   0  0  0  0  0  0  0  0  0  0  0  0
    7.0050   -0.5700   26.9620 C   0  0  0  0  0  0  0  0  0  0  0  0
    5.1850    1.1450   17.7810 C   0  0  0  0  0  0  0  0  0  0  0  0
    9.7170    3.0490   23.5810 C   0  0  0  0  0  0  0  0  0  0  0  0
    7.8060    4.3760   22.9900 C   0  0  0  0  0  0  0  0  0  0  0  0
   12.4060   -1.3660   23.6020 C   0  0  1  0  0  0  0  0  0  0  0  0
   12.0580   -0.5810   24.8470 C   0  0  0  0  0  0  0  0  0  0  0  0
   13.1500   -2.5580   23.8240 O   0  0  0  0  0  0  0  0  0  0  0  0
   10.4080    1.7440   23.7950 C   0  0  0  0  0  0  0  0  0  0  0  0
   13.1890   -0.4520   22.6870 C   0  0  0  0  0  0  0  0  0  0  0  0
    7.4700   -0.6770   28.2860 O   0  0  0  0  0  0  0  0  0  0  0  0
   10.5370    4.2310   23.8250 C   0  0  0  0  0  0  0  0  0  0  0  0
    8.5720    5.5240   23.2190 C   0  0  0  0  0  0  0  0  0  0  0  0
   13.1600   -3.0610   25.1440 C   0  0  0  0  0  0  0  0  0  0  0  0
   10.0410    5.4700   23.6750 C   0  0  0  0  0  0  0  0  0  0  0  0
    6.9710    0.3890   28.9710 C   0  0  0  0  0  0  0  0  0  0  0  0
   10.6900    6.6630   23.8790 O   0  0  0  0  0  0  0  0  0  0  0  0
    7.8320    1.2170   29.6720 C   0  0  0  0  0  0  0  0  0  0  0  0
    5.6060    0.6700   28.9710 C   0  0  0  0  0  0  0  0  0  0  0  0
   11.8080    6.6540   24.7650 C   0  0  0  0  0  0  0  0  0  0  0  0
    7.3460    2.3280   30.3550 C   0  0  0  0  0  0  0  0  0  0  0  0
    5.1150    1.7750   29.6590 C   0  0  0  0  0  0  0  0  0  0  0  0
    5.9810    2.6190   30.3540 C   0  0  0  0  0  0  0  0  0  0  0  0
    5.4530    3.8150   31.0890 C   0  0  0  0  0  0  0  0  0  0  0  0
  1  2  1  0
  2  3  2  0
  1  4  1  0
  1  5  1  0
  2  6  1  0
  4  7  1  6
  4  8  1  0
  5  9  2  0
  5 10  1  0
  6 11  1  0
  7 12  1  0
  7 13  2  0
 10 14  1  0
  8 15  2  0
  8 16  1  0
  9 17  1  0
 10 18  2  0
 14 19  2  3
 16 20  2  0
 15 21  1  0
 12 22  1  0
 17 23  2  0
 18 23  1  0
 18 24  1  0
 19 25  1  0
 20 26  1  0
 21 26  2  0
 22 27  2  0
 22 28  1  0
 23 29  1  0
 24 30  1  0
 29 30  1  0
 29 31  1  0
 27 32  1  0
 29 33  1  6
 25 34  1  0
 27 35  1  0
 28 36  2  0
 31 37  1  0
 35 38  2  0
 36 38  1  0
 34 39  1  0
 38 40  1  0
 39 41  2  0
 39 42  1  0
 40 43  1  0
 41 44  1  0
 42 45  2  0
 44 46  2  0
 45 46  1  0
 46 47  1  0
M  END
