x0354-x0397
     RDKit          3D

 35 38  0  0  0  0  0  0  0  0999 V2000
    8.0810   -1.6280   21.0130 C   0  0  0  0  0  0  0  0  0  0  0  0
    6.8140   -1.9340   20.3420 N   0  0  0  0  0  0  0  0  0  0  0  0
    6.8270   -1.5840   18.9780 C   0  0  0  0  0  0  0  0  0  0  0  0
    6.1030   -3.2050   20.7400 C   0  0  0  0  0  0  0  0  0  0  0  0
    5.4580   -3.8440   19.8780 O   0  0  0  0  0  0  0  0  0  0  0  0
    6.1950   -3.5910   21.8530 N   0  0  0  0  0  0  0  0  0  0  0  0
    6.0770   -0.3350   18.7790 C   0  0  0  0  0  0  0  0  0  0  0  0
    6.2800   -2.6040   22.9550 C   0  0  0  0  0  0  0  0  0  0  0  0
    4.9490    0.2620   19.5700 C   0  0  0  0  0  0  0  0  0  0  0  0
    6.3490    0.5780   17.6850 N   0  0  0  0  0  0  0  0  0  0  0  0
    5.6730   -4.9070   22.2850 C   0  0  0  0  0  0  0  0  0  0  0  0
    7.5150   -2.7980   23.8390 C   0  0  0  0  0  0  0  0  0  0  0  0
    5.4440    1.6090   17.8510 O   0  0  0  0  0  0  0  0  0  0  0  0
    4.6290    1.4260   18.9480 C   0  0  0  0  0  0  0  0  0  0  0  0
    6.4050   -5.6310   23.1080 C   0  0  0  0  0  0  0  0  0  0  0  0
    5.9110   -6.0010   21.6070 C   0  0  0  0  0  0  0  0  0  0  0  0
    3.6320    2.4660   19.2110 C   0  0  0  0  0  0  0  0  0  0  0  0
    7.5330   -1.8640   24.9830 N   0  0  0  0  0  0  0  0  0  0  0  0
    8.5620   -1.1790   25.3680 C   0  0  0  0  0  0  0  0  0  0  0  0
    8.4920   -0.1960   26.5600 C   0  0  0  0  0  0  0  0  0  0  0  0
    9.7980   -1.2950   24.6970 N   0  0  0  0  0  0  0  0  0  0  0  0
    7.4510   -0.5750   27.4610 O   0  0  0  0  0  0  0  0  0  0  0  0
   10.4620   -2.5720   24.3750 C   0  0  0  0  0  0  0  0  0  0  0  0
   10.7870   -0.2550   24.9620 C   0  0  0  0  0  0  0  0  0  0  0  0
   11.3230   -2.3030   23.1630 C   0  0  0  0  0  0  0  0  0  0  0  0
   11.6260   -0.1260   23.9370 C   0  0  0  0  0  0  0  0  0  0  0  0
    6.9640    0.3900   28.3020 C   0  0  0  0  0  0  0  0  0  0  0  0
   12.2720   -1.3770   23.5160 N   0  0  0  0  0  0  0  0  0  0  0  0
    7.7500    1.5190   28.4060 C   0  0  0  0  0  0  0  0  0  0  0  0
    5.6430    0.3230   29.1180 C   0  0  0  0  0  0  0  0  0  0  0  0
   13.1890   -1.1600   22.4190 C   0  0  0  0  0  0  0  0  0  0  0  0
    7.3240    2.6880   29.3120 C   0  0  0  0  0  0  0  0  0  0  0  0
    5.2090    1.3590   29.9590 C   0  0  0  0  0  0  0  0  0  0  0  0
    6.1650    2.5790   30.0000 C   0  0  0  0  0  0  0  0  0  0  0  0
    5.7670    3.7330   30.8770 C   0  0  0  0  0  0  0  0  0  0  0  0
  1  2  1  0
  2  3  1  0
  2  4  1  0
  4  5  2  0
  4  6  1  0
  3  7  1  0
  6  8  1  0
  7  9  1  0
  7 10  2  0
  6 11  1  0
  8 12  1  0
 10 13  1  0
  9 14  2  0
 13 14  1  0
 11 15  1  0
 11 16  1  0
 15 16  1  0
 14 17  1  0
 12 18  1  0
 18 19  2  3
 19 20  1  0
 19 21  1  0
 20 22  1  0
 21 23  1  0
 21 24  1  0
 23 25  1  0
 24 26  1  0
 22 27  1  0
 25 28  1  0
 26 28  1  0
 27 29  2  0
 27 30  1  0
 28 31  1  0
 29 32  1  0
 30 33  2  0
 32 34  2  0
 33 34  1  0
 34 35  1  0
M  END
