x0354-x3113
     RDKit          3D

 41 43  0  0  0  0  0  0  0  0999 V2000
    7.1070   -1.9290   21.4950 N   0  0  0  0  0  0  0  0  0  0  0  0
    6.1940   -3.0730   21.3710 C   0  0  0  0  0  0  0  0  0  0  0  0
    4.9220   -3.0930   21.0710 O   0  0  0  0  0  0  0  0  0  0  0  0
    6.7060   -0.4620   21.4590 C   0  0  1  0  0  0  0  0  0  0  0  0
    8.3230   -1.9260   22.2320 C   0  0  0  0  0  0  0  0  0  0  0  0
    6.7590   -4.4620   21.6160 C   0  0  0  0  0  0  0  0  0  0  0  0
    7.8020    0.6220   21.8820 C   0  0  0  0  0  0  0  0  0  0  0  0
    6.1730    0.1380   20.2090 C   0  0  0  0  0  0  0  0  0  0  0  0
    9.5860   -2.2150   21.7410 C   0  0  0  0  0  0  0  0  0  0  0  0
    8.2520   -1.5940   23.5180 C   0  0  0  0  0  0  0  0  0  0  0  0
    8.1510   -4.7230   21.0000 C   0  0  0  0  0  0  0  0  0  0  0  0
    8.0260    0.9960   23.1880 N   0  0  0  0  0  0  0  0  0  0  0  0
    8.6150    1.3580   20.9310 O   0  0  0  0  0  0  0  0  0  0  0  0
    5.0180    0.9050   20.2350 C   0  0  0  0  0  0  0  0  0  0  0  0
    6.8440   -0.0070   18.8680 C   0  0  0  0  0  0  0  0  0  0  0  0
   10.7160   -2.1460   22.4530 C   0  0  0  0  0  0  0  0  0  0  0  0
    9.4880   -1.5060   24.3880 C   0  0  0  0  0  0  0  0  0  0  0  0
    9.0850    1.9590   23.5880 C   0  0  0  0  0  0  0  0  0  0  0  0
    8.7840   -1.1250   25.6530 C   0  0  0  0  0  0  0  0  0  0  0  0
    6.3460    0.6250   17.6460 N   0  0  0  0  0  0  0  0  0  0  0  0
    4.4850    1.5590   18.9850 C   0  0  0  0  0  0  0  0  0  0  0  0
   10.7580   -1.7970   23.7420 C   0  0  0  0  0  0  0  0  0  0  0  0
   10.3230    2.1170   22.6830 C   0  0  0  0  0  0  0  0  0  0  0  0
   12.1720   -1.7490   24.3650 C   0  0  0  0  0  0  0  0  0  0  0  0
    7.8140   -1.8570   25.8550 O   0  0  0  0  0  0  0  0  0  0  0  0
    8.9880   -0.0910   26.5650 C   0  0  0  0  0  0  0  0  0  0  0  0
    5.2300    1.3690   17.7080 C   0  0  0  0  0  0  0  0  0  0  0  0
   11.4850    2.6530   23.2590 C   0  0  0  0  0  0  0  0  0  0  0  0
   13.1010   -1.6670   23.3290 C   0  0  0  0  0  0  0  0  0  0  0  0
   12.7060   -2.9950   25.0950 C   0  0  0  0  0  0  0  0  0  0  0  0
   12.4060   -0.5380   25.2370 C   0  0  0  0  0  0  0  0  0  0  0  0
    7.9910   -0.3130   27.5910 O   0  0  0  0  0  0  0  0  0  0  0  0
   11.6260    3.9780   22.7390 O   0  0  0  0  0  0  0  0  0  0  0  0
    7.4120    0.6820   28.3270 C   0  0  0  0  0  0  0  0  0  0  0  0
   12.9650    4.4720   22.8000 C   0  0  0  0  0  0  0  0  0  0  0  0
    7.7700    2.0180   28.3050 C   0  0  0  0  0  0  0  0  0  0  0  0
    6.3640    0.2840   29.1750 C   0  0  0  0  0  0  0  0  0  0  0  0
    7.1300    2.9530   29.1000 C   0  0  0  0  0  0  0  0  0  0  0  0
    5.7190    1.2360   29.9730 C   0  0  0  0  0  0  0  0  0  0  0  0
    6.0940    2.5710   29.9480 C   0  0  0  0  0  0  0  0  0  0  0  0
    5.4030    3.5860   30.8090 C   0  0  0  0  0  0  0  0  0  0  0  0
  1  2  1  0
  2  3  2  0
  1  4  1  0
  1  5  1  0
  2  6  1  0
  4  7  1  6
  4  8  1  0
  5  9  2  0
  5 10  1  0
  6 11  1  0
  7 12  1  0
  7 13  2  0
  8 14  2  0
  8 15  1  0
  9 16  1  0
 10 17  2  0
 12 18  1  0
 17 19  1  0
 15 20  2  0
 14 21  1  0
 16 22  2  0
 17 22  1  0
 18 23  1  0
 22 24  1  0
 19 25  2  0
 19 26  1  0
 20 27  1  0
 21 27  2  0
 23 28  1  0
 24 29  1  0
 24 30  1  0
 24 31  1  0
 26 32  1  0
 28 33  1  0
 32 34  1  0
 33 35  1  0
 34 36  2  0
 34 37  1  0
 36 38  1  0
 37 39  2  0
 38 40  2  0
 39 40  1  0
 40 41  1  0
M  END
