x0354-x3298-x0769
     RDKit          3D

 63 70  0  0  0  0  0  0  0  0999 V2000
    7.4820    1.9520   22.4840 N   0  0  0  0  0  0  0  0  0  0  0  0
    8.0930    1.1140   21.5990 C   0  0  0  0  0  0  0  0  0  0  0  0
    7.5290   -0.2120   21.1760 C   0  0  1  0  0  0  0  0  0  0  0  0
    7.9520    3.1360   23.0550 C   0  0  0  0  0  0  0  0  0  0  0  0
    9.1090    1.5590   21.1170 O   0  0  0  0  0  0  0  0  0  0  0  0
    8.1840    4.2840   22.2930 C   0  0  0  0  0  0  0  0  0  0  0  0
    8.1840    3.1720   24.4130 C   0  0  0  0  0  0  0  0  0  0  0  0
    6.9980   -0.9040   22.0340 O   0  0  0  0  0  0  0  0  0  0  0  0
    7.9190    1.9090   25.1140 N   0  0  0  0  0  0  0  0  0  0  0  0
    6.6990    0.2040   20.0280 C   0  0  0  0  0  0  0  0  0  0  0  0
    8.6470    5.4490   22.9100 C   0  0  0  0  0  0  0  0  0  0  0  0
    8.6230    4.3520   24.9750 C   0  0  0  0  0  0  0  0  0  0  0  0
    8.5930    0.4680   24.5060 S   0  0  0  0  0  0  0  0  0  0  0  0
    6.9760   -0.0700   18.7240 C   0  0  0  0  0  0  0  0  0  0  0  0
    5.5600    0.9480   20.3100 C   0  0  0  0  0  0  0  0  0  0  0  0
    8.8670    5.4930   24.2430 C   0  0  0  0  0  0  0  0  0  0  0  0
   10.1320    0.9190   24.9250 N   0  0  0  0  0  0  0  0  0  0  0  0
    8.6070   -0.8430   25.6030 C   0  0  2  0  0  0  0  0  0  0  0  0
    6.2900    0.3010   17.6590 N   0  0  0  0  0  0  0  0  0  0  0  0
    4.7640    1.3890   19.2410 C   0  0  0  0  0  0  0  0  0  0  0  0
    7.7230   -1.8200   25.1310 O   0  0  0  0  0  0  0  0  0  0  0  0
    8.2930   -0.2660   26.9800 C   0  0  0  0  0  0  0  0  0  0  0  0
    5.1160    1.0830   17.9360 C   0  0  0  0  0  0  0  0  0  0  0  0
    9.9490   -1.4100   25.4230 N   0  0  0  0  0  0  0  0  0  0  0  0
   10.8520   -0.3370   25.0920 C   0  0  1  0  0  0  0  0  0  0  0  0
    7.1910   -0.4470   27.5000 O   0  0  0  0  0  0  0  0  0  0  0  0
    6.2890   -1.6260   25.2370 C   0  0  0  0  0  0  0  0  0  0  0  0
   11.7220   -0.6960   23.8950 C   0  0  2  0  0  0  0  0  0  0  0  0
   10.1610   -2.6260   24.5860 C   0  0  0  0  0  0  0  0  0  0  0  0
    5.5980   -2.5240   26.1190 O   0  0  0  0  0  0  0  0  0  0  0  0
   12.6680    0.1860   23.5670 C   0  0  0  0  0  0  0  0  0  0  0  0
   10.9840   -1.1230   22.8400 C   0  0  0  0  0  0  0  0  0  0  0  0
    6.7160    0.4960   28.3730 C   0  0  0  0  0  0  0  0  0  0  0  0
   12.4850   -1.8530   24.3780 N   0  0  0  0  0  0  0  0  0  0  0  0
   11.6260   -2.9680   24.3240 C   0  0  0  0  0  0  0  0  0  0  0  0
   13.4030   -0.0750   22.4780 C   0  0  0  0  0  0  0  0  0  0  0  0
   11.7230   -1.4370   21.7520 C   0  0  0  0  0  0  0  0  0  0  0  0
    6.8270    1.8070   27.9830 C   0  0  0  0  0  0  0  0  0  0  0  0
    6.1350    0.1770   29.6160 C   0  0  0  0  0  0  0  0  0  0  0  0
    4.2310   -2.5810   26.0460 C   0  0  0  0  0  0  0  0  0  0  0  0
   13.0950   -1.2350   21.7580 C   0  0  2  0  0  0  0  0  0  0  0  0
    6.3330    2.8380   28.9060 C   0  0  0  0  0  0  0  0  0  0  0  0
    5.6660    1.2050   30.4820 C   0  0  0  0  0  0  0  0  0  0  0  0
    3.6880   -3.8540   25.8660 C   0  0  0  0  0  0  0  0  0  0  0  0
    3.4740   -1.3970   26.1530 C   0  0  0  0  0  0  0  0  0  0  0  0
   13.5950   -2.3060   22.3670 F   0  0  0  0  0  0  0  0  0  0  0  0
    4.6790   -5.2900   25.7440 S   0  0  0  0  0  0  0  0  0  0  0  0
    5.7720    2.5290   30.1210 C   0  0  0  0  0  0  0  0  0  0  0  0
    2.3300   -3.9970   25.7800 C   0  0  0  0  0  0  0  0  0  0  0  0
    1.9320   -1.4100   26.0780 C   0  0  0  0  0  0  0  0  0  0  0  0
    5.2970    3.5450   31.0130 C   0  0  0  0  0  0  0  0  0  0  0  0
    5.7330   -5.2580   26.7230 O   0  0  0  0  0  0  0  0  0  0  0  0
    3.8580   -6.4800   25.7920 O   0  0  0  0  0  0  0  0  0  0  0  0
    1.3530   -2.7920   25.8800 C   0  0  0  0  0  0  0  0  0  0  0  0
    5.3680   -5.1240   24.1730 N   0  0  0  0  0  0  0  0  0  0  0  0
    4.9170   -6.1170   23.1480 C   0  0  0  0  0  0  0  0  0  0  0  0
    6.8010   -4.7890   24.1420 C   0  0  0  0  0  0  0  0  0  0  0  0
    5.9210   -6.3470   22.2000 C   0  0  0  0  0  0  0  0  0  0  0  0
    7.1210   -4.2490   22.8870 C   0  0  0  0  0  0  0  0  0  0  0  0
    6.5350   -5.0770   21.7940 N   0  0  0  0  0  0  0  0  0  0  0  0
    6.2560   -4.4800   20.5530 C   0  0  0  0  0  0  0  0  0  0  0  0
    5.2630   -4.8290   19.9530 O   0  0  0  0  0  0  0  0  0  0  0  0
    7.1790   -3.4000   19.9940 C   0  0  0  0  0  0  0  0  0  0  0  0
  1  2  1  0
  2  3  1  0
  1  4  1  0
  2  5  2  0
  4  6  2  0
  4  7  1  0
  3  8  1  1
  7  9  1  0
  3 10  1  0
  6 11  1  0
  7 12  2  0
 13  9  1  1
 10 14  2  0
 10 15  1  0
 11 16  2  0
 12 16  1  0
 13 17  2  0
 13 18  1  0
 14 19  1  0
 15 20  2  0
 18 21  1  0
 18 22  1  1
 19 23  2  0
 20 23  1  0
 18 24  1  0
 25 17  1  6
 24 25  1  0
 22 26  1  0
 21 27  1  0
 25 28  1  0
 24 29  1  0
 27 30  1  0
 28 31  1  6
 28 32  1  0
 26 33  1  0
 28 34  1  0
 29 35  1  0
 34 35  1  0
 31 36  2  0
 32 37  2  0
 33 38  2  0
 33 39  1  0
 30 40  1  0
 36 41  1  0
 37 41  1  0
 38 42  1  0
 39 43  2  0
 40 44  1  0
 40 45  2  0
 41 46  1  1
 47 44  1  0
 42 48  2  0
 43 48  1  0
 44 49  2  0
 45 50  1  0
 48 51  1  0
 47 52  2  0
 47 53  2  0
 49 54  1  0
 50 54  2  0
 47 55  1  0
 55 56  1  0
 55 57  1  0
 56 58  1  0
 57 59  1  0
 58 60  1  0
 59 60  1  0
 60 61  1  0
 61 62  2  0
 61 63  1  0
M  END
