x0354-x0978
     RDKit          3D

 35 36  0  0  0  0  0  0  0  0999 V2000
    2.0230   -5.6720   23.2470 N   0  0  0  0  0  0  0  0  0  0  0  0
    3.1930   -6.4310   23.2040 C   0  0  2  0  0  0  0  0  0  0  0  0
    3.4150   -7.2720   24.4810 C   0  0  1  0  0  0  0  0  0  0  0  0
    0.7970   -6.2030   22.5820 C   0  0  0  0  0  0  0  0  0  0  0  0
    0.7830   -7.2530   21.9490 O   0  0  0  0  0  0  0  0  0  0  0  0
   -0.4950   -5.3420   22.7290 C   0  0  0  0  0  0  0  0  0  0  0  0
    4.3640   -5.4560   22.8120 C   0  0  0  0  0  0  0  0  0  0  0  0
    2.1330   -8.1070   24.7540 C   0  0  0  0  0  0  0  0  0  0  0  0
    4.4680   -7.8660   24.3210 O   0  0  0  0  0  0  0  0  0  0  0  0
    5.2160   -5.9030   21.6720 N   0  0  0  0  0  0  0  0  0  0  0  0
    4.5080   -4.2750   23.5280 N   0  0  0  0  0  0  0  0  0  0  0  0
    6.4870   -5.1840   21.3860 C   0  0  0  0  0  0  0  0  0  0  0  0
    5.4800   -3.1650   23.4130 C   0  0  0  0  0  0  0  0  0  0  0  0
    6.5040   -4.5160   19.9940 C   0  0  0  0  0  0  0  0  0  0  0  0
    5.3410   -2.0800   24.2860 C   0  0  0  0  0  0  0  0  0  0  0  0
    5.3790   -3.6380   19.5570 C   0  0  0  0  0  0  0  0  0  0  0  0
    6.0980   -2.2060   25.4650 C   0  0  0  0  0  0  0  0  0  0  0  0
    7.4760   -2.1850   25.0130 N   0  0  0  0  0  0  0  0  0  0  0  0
    8.5310   -1.2130   25.4280 C   0  0  0  0  0  0  0  0  0  0  0  0
    8.2500   -0.1900   26.3500 C   0  0  0  0  0  0  0  0  0  0  0  0
    9.8840   -1.3510   24.8470 N   0  0  0  0  0  0  0  0  0  0  0  0
    7.4060   -0.5240   27.4470 O   0  0  0  0  0  0  0  0  0  0  0  0
   10.4540   -2.6110   24.3320 C   0  0  0  0  0  0  0  0  0  0  0  0
   10.8580   -0.2640   24.9440 C   0  0  0  0  0  0  0  0  0  0  0  0
   11.3490   -2.3330   23.1460 C   0  0  0  0  0  0  0  0  0  0  0  0
   11.6220   -0.1470   23.8700 C   0  0  0  0  0  0  0  0  0  0  0  0
    7.0420    0.5120   28.2580 C   0  0  0  0  0  0  0  0  0  0  0  0
   12.2850   -1.3920   23.4890 N   0  0  0  0  0  0  0  0  0  0  0  0
    7.7010    1.7190   28.3210 C   0  0  0  0  0  0  0  0  0  0  0  0
    5.7970    0.2880   29.1570 C   0  0  0  0  0  0  0  0  0  0  0  0
   13.1970   -1.1740   22.3930 C   0  0  0  0  0  0  0  0  0  0  0  0
    7.2180    2.8270   29.2640 C   0  0  0  0  0  0  0  0  0  0  0  0
    5.3090    1.2680   30.0360 C   0  0  0  0  0  0  0  0  0  0  0  0
    6.1270    2.5880   30.0270 C   0  0  0  0  0  0  0  0  0  0  0  0
    5.6700    3.6860   30.9380 C   0  0  0  0  0  0  0  0  0  0  0  0
  2  1  1  1
  2  3  1  0
  1  4  1  0
  4  5  2  0
  4  6  1  0
  2  7  1  0
  3  8  1  6
  3  9  1  0
  7 10  1  0
  7 11  2  3
 10 12  1  0
 11 13  1  0
 12 14  1  0
 13 15  1  0
 14 16  2  3
 15 17  1  0
 17 18  1  0
 18 19  2  3
 19 20  1  0
 19 21  1  0
 20 22  1  0
 21 23  1  0
 21 24  1  0
 23 25  1  0
 24 26  1  0
 22 27  1  0
 25 28  1  0
 26 28  1  0
 27 29  2  0
 27 30  1  0
 28 31  1  0
 29 32  1  0
 30 33  2  0
 32 34  2  0
 33 34  1  0
 34 35  1  0
M  END
