x0354-x0755
     RDKit          3D

 39 42  0  0  0  0  0  0  0  0999 V2000
    4.2620   -6.4530   25.9530 O   0  0  0  0  0  0  0  0  0  0  0  0
    4.9330   -5.1830   25.7960 S   0  0  0  0  0  0  0  0  0  0  0  0
    5.9220   -4.7600   26.7520 O   0  0  0  0  0  0  0  0  0  0  0  0
    3.7220   -3.8970   25.8350 C   0  0  0  0  0  0  0  0  0  0  0  0
    5.6120   -5.0750   24.2230 N   0  0  0  0  0  0  0  0  0  0  0  0
    2.2300   -4.1890   25.6940 C   0  0  0  0  0  0  0  0  0  0  0  0
    4.1730   -2.4550   26.0180 C   0  0  0  0  0  0  0  0  0  0  0  0
    7.0760   -4.8310   24.1110 C   0  0  0  0  0  0  0  0  0  0  0  0
    5.1070   -5.8040   23.2910 C   0  0  0  0  0  0  0  0  0  0  0  0
    1.7500   -5.4280   25.5320 F   0  0  0  0  0  0  0  0  0  0  0  0
    5.5030   -2.1970   26.1440 O   0  0  0  0  0  0  0  0  0  0  0  0
    3.1600   -1.4830   26.0430 C   0  0  0  0  0  0  0  0  0  0  0  0
    1.3520   -3.1230   25.7410 C   0  0  0  0  0  0  0  0  0  0  0  0
    7.4770   -4.5800   22.7750 C   0  0  0  0  0  0  0  0  0  0  0  0
    5.8520   -6.2200   22.1910 C   0  0  0  0  0  0  0  0  0  0  0  0
    6.1260   -1.3420   25.1880 C   0  0  0  0  0  0  0  0  0  0  0  0
    1.8000   -1.8150   25.9100 C   0  0  0  0  0  0  0  0  0  0  0  0
    6.6500   -5.1980   21.7170 N   0  0  0  0  0  0  0  0  0  0  0  0
    6.3470   -4.5210   20.5260 C   0  0  0  0  0  0  0  0  0  0  0  0
    7.4580   -1.7470   24.7510 N   0  0  0  0  0  0  0  0  0  0  0  0
    5.3020   -4.7770   19.9570 O   0  0  0  0  0  0  0  0  0  0  0  0
    7.2800   -3.4590   19.9100 C   0  0  0  0  0  0  0  0  0  0  0  0
    8.6750   -1.1590   25.3500 C   0  0  0  0  0  0  0  0  0  0  0  0
    8.4300   -0.1100   26.4860 C   0  0  0  0  0  0  0  0  0  0  0  0
    9.9940   -1.4500   25.0010 N   0  0  0  0  0  0  0  0  0  0  0  0
    7.5420   -0.5300   27.5220 O   0  0  0  0  0  0  0  0  0  0  0  0
   10.3760   -2.6720   24.2560 C   0  0  0  0  0  0  0  0  0  0  0  0
   10.9590   -0.3530   24.9540 C   0  0  0  0  0  0  0  0  0  0  0  0
   11.5780   -2.4070   23.3470 C   0  0  0  0  0  0  0  0  0  0  0  0
   11.6470   -0.1840   23.6410 C   0  0  0  0  0  0  0  0  0  0  0  0
    6.9840    0.4030   28.3540 C   0  0  0  0  0  0  0  0  0  0  0  0
   12.3500   -1.3040   23.4560 N   0  0  0  0  0  0  0  0  0  0  0  0
    7.6610    1.6460   28.4250 C   0  0  0  0  0  0  0  0  0  0  0  0
    5.8460    0.2840   29.1320 C   0  0  0  0  0  0  0  0  0  0  0  0
   13.1950   -1.2190   22.2960 C   0  0  0  0  0  0  0  0  0  0  0  0
    7.2190    2.6730   29.2190 C   0  0  0  0  0  0  0  0  0  0  0  0
    5.3890    1.4640   30.0040 C   0  0  0  0  0  0  0  0  0  0  0  0
    6.1160    2.6430   30.0120 C   0  0  0  0  0  0  0  0  0  0  0  0
    5.7020    3.8180   30.8500 C   0  0  0  0  0  0  0  0  0  0  0  0
  1  2  2  0
  2  3  2  0
  2  4  1  0
  2  5  1  0
  4  6  2  0
  4  7  1  0
  5  8  1  0
  5  9  1  0
  6 10  1  0
  7 11  1  0
  7 12  2  0
  6 13  1  0
  8 14  1  0
  9 15  1  0
 11 16  1  0
 12 17  1  0
 13 17  2  0
 14 18  1  0
 15 18  1  0
 18 19  1  0
 16 20  1  0
 19 21  2  0
 19 22  1  0
 20 23  2  3
 23 24  1  0
 23 25  1  0
 24 26  1  0
 25 27  1  0
 25 28  1  0
 27 29  1  0
 28 30  1  0
 26 31  1  0
 29 32  1  0
 30 32  1  0
 31 33  2  0
 31 34  1  0
 32 35  1  0
 33 36  1  0
 34 37  2  0
 36 38  2  0
 37 38  1  0
 38 39  1  0
M  END
