x0354-x0981
     RDKit          3D

 35 36  0  0  0  0  0  0  0  0999 V2000
    1.3200   -8.5940   21.5700 C   0  0  0  0  0  0  0  0  0  0  0  0
    1.5030   -7.2620   22.2640 C   0  0  0  0  0  0  0  0  0  0  0  0
    2.6670   -7.0110   22.8160 N   0  0  0  0  0  0  0  0  0  0  0  0
    0.5930   -6.4330   22.2900 O   0  0  0  0  0  0  0  0  0  0  0  0
    2.8850   -5.8380   23.5860 C   0  0  1  0  0  0  0  0  0  0  0  0
    2.6890   -6.1470   25.1110 C   0  0  0  0  0  0  0  0  0  0  0  0
    4.3040   -5.1800   23.3240 C   0  0  0  0  0  0  0  0  0  0  0  0
    5.1170   -5.6260   22.2930 N   0  0  0  0  0  0  0  0  0  0  0  0
    4.6050   -4.1450   24.1880 N   0  0  0  0  0  0  0  0  0  0  0  0
    3.0260   -7.6340   25.3500 C   0  0  0  0  0  0  0  0  0  0  0  0
    2.3150   -8.3930   26.2700 N   0  0  0  0  0  0  0  0  0  0  0  0
    4.0880   -8.2220   24.6140 O   0  0  0  0  0  0  0  0  0  0  0  0
    6.2170   -4.7710   21.7580 C   0  0  0  0  0  0  0  0  0  0  0  0
    5.8570   -3.3710   24.0800 C   0  0  0  0  0  0  0  0  0  0  0  0
    6.3940   -5.0090   20.2910 C   0  0  0  0  0  0  0  0  0  0  0  0
    6.3190   -2.7020   25.2200 C   0  0  0  0  0  0  0  0  0  0  0  0
    5.6960   -6.2520   19.8000 C   0  0  0  0  0  0  0  0  0  0  0  0
    7.7420   -2.4390   24.9310 N   0  0  0  0  0  0  0  0  0  0  0  0
    8.4650   -1.4130   25.3090 C   0  0  0  0  0  0  0  0  0  0  0  0
    8.0130   -0.3300   26.1080 C   0  0  0  0  0  0  0  0  0  0  0  0
    9.8030   -1.4380   24.8610 N   0  0  0  0  0  0  0  0  0  0  0  0
    7.3430   -0.6110   27.3470 O   0  0  0  0  0  0  0  0  0  0  0  0
   10.3900   -2.6650   24.2800 C   0  0  0  0  0  0  0  0  0  0  0  0
   10.7360   -0.3150   25.0220 C   0  0  0  0  0  0  0  0  0  0  0  0
   11.2900   -2.2800   23.1460 C   0  0  0  0  0  0  0  0  0  0  0  0
   11.6110   -0.0970   23.8960 C   0  0  0  0  0  0  0  0  0  0  0  0
    7.0570    0.4700   28.1520 C   0  0  0  0  0  0  0  0  0  0  0  0
   12.2580   -1.2620   23.5540 N   0  0  0  0  0  0  0  0  0  0  0  0
    7.7360    1.6800   28.2120 C   0  0  0  0  0  0  0  0  0  0  0  0
    5.9280    0.1420   28.9300 C   0  0  0  0  0  0  0  0  0  0  0  0
   13.2040   -1.0800   22.4720 C   0  0  0  0  0  0  0  0  0  0  0  0
    7.3160    2.7780   29.1380 C   0  0  0  0  0  0  0  0  0  0  0  0
    5.4810    1.2760   29.8940 C   0  0  0  0  0  0  0  0  0  0  0  0
    6.0940    2.5220   30.0280 C   0  0  0  0  0  0  0  0  0  0  0  0
    5.6030    3.5730   30.9820 C   0  0  0  0  0  0  0  0  0  0  0  0
  1  2  1  0
  2  3  1  0
  2  4  2  0
  3  5  1  0
  5  6  1  1
  5  7  1  0
  7  8  1  0
  7  9  2  3
  6 10  1  0
 10 11  1  0
 10 12  2  0
  8 13  1  0
  9 14  1  0
 13 15  1  0
 14 16  1  0
 15 17  2  3
 16 18  1  0
 18 19  2  3
 19 20  1  0
 19 21  1  0
 20 22  1  0
 21 23  1  0
 21 24  1  0
 23 25  1  0
 24 26  1  0
 22 27  1  0
 25 28  1  0
 26 28  1  0
 27 29  2  0
 27 30  1  0
 28 31  1  0
 29 32  1  0
 30 33  2  0
 32 34  2  0
 33 34  1  0
 34 35  1  0
M  END
