x0354-x0705
     RDKit          3D

 35 38  0  0  0  0  0  0  0  0999 V2000
    1.3120   -2.7240   27.8930 C   0  0  0  0  0  0  0  0  0  0  0  0
    2.6720   -2.5720   27.2860 C   0  0  0  0  0  0  0  0  0  0  0  0
    3.7850   -3.3640   27.6760 C   0  0  0  0  0  0  0  0  0  0  0  0
    2.9100   -1.5470   26.2140 C   0  0  0  0  0  0  0  0  0  0  0  0
    4.1740   -1.4270   25.6700 C   0  0  0  0  0  0  0  0  0  0  0  0
    5.0580   -3.2000   27.0850 C   0  0  0  0  0  0  0  0  0  0  0  0
    5.2530   -2.2340   26.0840 C   0  0  0  0  0  0  0  0  0  0  0  0
    6.5560   -1.9780   25.4010 C   0  0  0  0  0  0  0  0  0  0  0  0
    7.5060   -1.4390   26.0880 N   0  0  0  0  0  0  0  0  0  0  0  0
    6.5790   -2.2910   24.0490 N   0  0  0  0  0  0  0  0  0  0  0  0
    8.8650   -0.8890   25.8620 C   0  0  2  0  0  0  0  0  0  0  0  0
    5.4600   -2.6350   23.4930 C   0  0  0  0  0  0  0  0  0  0  0  0
    7.5990   -1.8850   23.2490 C   0  0  0  0  0  0  0  0  0  0  0  0
    8.4820    0.5260   26.2250 C   0  0  0  0  0  0  0  0  0  0  0  0
    5.6750   -3.3890   22.3840 C   0  0  0  0  0  0  0  0  0  0  0  0
    7.4590   -1.8950   21.8620 C   0  0  0  0  0  0  0  0  0  0  0  0
    9.7200   -1.0460   24.6400 N   0  0  0  0  0  0  0  0  0  0  0  0
    7.3140    0.2380   27.0180 O   0  0  0  0  0  0  0  0  0  0  0  0
    6.3050   -2.6760   21.3710 N   0  0  0  0  0  0  0  0  0  0  0  0
   10.4690   -2.3330   24.6080 C   0  0  0  0  0  0  0  0  0  0  0  0
   10.7670   -0.0390   24.6960 C   0  0  0  0  0  0  0  0  0  0  0  0
    6.4480   -3.2580   20.1540 C   0  0  0  0  0  0  0  0  0  0  0  0
   11.3610   -2.4380   23.5400 C   0  0  0  0  0  0  0  0  0  0  0  0
   11.7020   -0.1500   23.4840 C   0  0  0  0  0  0  0  0  0  0  0  0
    6.8980    0.9880   28.0670 C   0  0  0  0  0  0  0  0  0  0  0  0
    5.6350   -3.2730   19.2280 O   0  0  0  0  0  0  0  0  0  0  0  0
    7.6900   -4.0030   20.0140 C   0  0  0  0  0  0  0  0  0  0  0  0
   12.3340   -1.3370   23.5160 N   0  0  0  0  0  0  0  0  0  0  0  0
    7.5060    2.2300   28.2160 C   0  0  0  0  0  0  0  0  0  0  0  0
    5.9140    0.5910   28.9710 C   0  0  0  0  0  0  0  0  0  0  0  0
   13.0300   -1.5630   22.3380 C   0  0  0  0  0  0  0  0  0  0  0  0
    7.1660    3.0770   29.2230 C   0  0  0  0  0  0  0  0  0  0  0  0
    5.4840    1.3650   30.0290 C   0  0  0  0  0  0  0  0  0  0  0  0
    6.1810    2.7380   30.1570 C   0  0  0  0  0  0  0  0  0  0  0  0
    5.7910    3.7110   31.2930 C   0  0  0  0  0  0  0  0  0  0  0  0
  1  2  1  0
  2  3  2  0
  2  4  1  0
  4  5  2  0
  3  6  1  0
  5  7  1  0
  6  7  2  0
  7  8  1  0
  8  9  2  3
  8 10  1  0
  9 11  1  0
 10 12  1  0
 10 13  1  0
 11 14  1  6
 12 15  1  0
 13 16  1  0
 11 17  1  0
 14 18  1  0
 15 19  1  0
 16 19  1  0
 17 20  1  0
 17 21  1  0
 19 22  1  0
 20 23  1  0
 21 24  1  0
 18 25  1  0
 22 26  2  0
 22 27  1  0
 23 28  1  0
 24 28  1  0
 25 29  2  0
 25 30  1  0
 28 31  1  0
 29 32  1  0
 30 33  2  0
 32 34  2  0
 33 34  1  0
 34 35  1  0
M  END
