x0354-x1311
     RDKit          3D

 36 39  0  0  0  0  0  0  0  0999 V2000
    5.7870   -4.5630   20.0140 O   0  0  0  0  0  0  0  0  0  0  0  0
    6.7060   -4.6470   20.8840 C   0  0  0  0  0  0  0  0  0  0  0  0
    8.1070   -4.0100   20.6820 C   0  0  0  0  0  0  0  0  0  0  0  0
    6.5220   -5.3310   22.1250 N   0  0  0  0  0  0  0  0  0  0  0  0
    7.4580   -5.1220   23.1290 C   0  0  0  0  0  0  0  0  0  0  0  0
    5.2450   -5.3890   22.7360 C   0  0  1  0  0  0  0  0  0  0  0  0
    8.5600   -6.0280   23.4900 C   0  0  0  0  0  0  0  0  0  0  0  0
    7.2770   -3.9790   23.8240 C   0  0  0  0  0  0  0  0  0  0  0  0
    4.5340   -6.3460   22.1400 C   0  0  0  0  0  0  0  0  0  0  0  0
    5.1720   -5.4190   24.1620 C   0  0  0  0  0  0  0  0  0  0  0  0
    9.4750   -5.6900   24.6380 C   0  0  0  0  0  0  0  0  0  0  0  0
    8.0720   -3.6300   24.8640 C   0  0  0  0  0  0  0  0  0  0  0  0
    3.7510   -6.4440   24.4850 S   0  0  0  0  0  0  0  0  0  0  0  0
    3.5860   -6.9940   22.8430 C   0  0  0  0  0  0  0  0  0  0  0  0
    4.1740   -7.5830   25.2930 O   0  0  0  0  0  0  0  0  0  0  0  0
    2.5920   -5.6920   24.9340 O   0  0  0  0  0  0  0  0  0  0  0  0
    7.6130   -2.3410   25.3850 C   0  0  0  0  0  0  0  0  0  0  0  0
    9.2520   -4.5120   25.3390 C   0  0  0  0  0  0  0  0  0  0  0  0
    8.4560   -1.0640   25.1960 C   0  0  0  0  0  0  0  0  0  0  0  0
    6.2670   -2.4730   26.0180 C   0  0  0  0  0  0  0  0  0  0  0  0
    7.7970    0.2540   25.7460 C   0  0  0  0  0  0  0  0  0  0  0  0
    9.6890   -1.1200   24.5840 N   0  0  0  0  0  0  0  0  0  0  0  0
    6.8750    0.0080   26.8320 O   0  0  0  0  0  0  0  0  0  0  0  0
   10.2770   -2.3830   24.0730 C   0  0  0  0  0  0  0  0  0  0  0  0
   10.7330   -0.1500   24.9360 C   0  0  0  0  0  0  0  0  0  0  0  0
   11.2470   -2.2030   23.1000 C   0  0  0  0  0  0  0  0  0  0  0  0
   11.7530    0.0510   23.8150 C   0  0  0  0  0  0  0  0  0  0  0  0
    6.7080    0.8890   27.8570 C   0  0  0  0  0  0  0  0  0  0  0  0
   12.3070   -1.2640   23.4890 N   0  0  0  0  0  0  0  0  0  0  0  0
    7.4410    2.0670   28.0850 C   0  0  0  0  0  0  0  0  0  0  0  0
    5.6820    0.5360   28.7520 C   0  0  0  0  0  0  0  0  0  0  0  0
   13.2670   -1.1630   22.4010 C   0  0  0  0  0  0  0  0  0  0  0  0
    7.2210    2.9090   29.1240 C   0  0  0  0  0  0  0  0  0  0  0  0
    5.3990    1.3450   29.8330 C   0  0  0  0  0  0  0  0  0  0  0  0
    6.2180    2.6270   30.0420 C   0  0  0  0  0  0  0  0  0  0  0  0
    5.9260    3.5440   31.2160 C   0  0  0  0  0  0  0  0  0  0  0  0
  1  2  2  0
  2  3  1  0
  2  4  1  0
  4  5  1  0
  6  4  1  1
  5  7  2  0
  5  8  1  0
  6  9  1  0
  6 10  1  0
  7 11  1  0
  8 12  2  0
 10 13  1  0
  9 14  2  0
 13 14  1  0
 13 15  1  0
 13 16  1  0
 12 17  1  0
 11 18  2  0
 12 18  1  0
 17 19  2  3
 17 20  1  0
 19 21  1  0
 19 22  1  0
 21 23  1  0
 22 24  1  0
 22 25  1  0
 24 26  1  0
 25 27  1  0
 23 28  1  0
 26 29  1  0
 27 29  1  0
 28 30  2  0
 28 31  1  0
 29 32  1  0
 30 33  1  0
 31 34  2  0
 33 35  2  0
 34 35  1  0
 35 36  1  0
M  END
