x0354-x1392
     RDKit          3D

 31 34  0  0  0  0  0  0  0  0999 V2000
   13.2310   -1.2550   22.2680 C   0  0  0  0  0  0  0  0  0  0  0  0
   11.8810   -1.2190   22.7970 N   0  0  0  0  0  0  0  0  0  0  0  0
   11.6980   -0.0720   23.7030 C   0  0  0  0  0  0  0  0  0  0  0  0
   11.2500   -2.5330   23.0560 C   0  0  0  0  0  0  0  0  0  0  0  0
   10.4270   -2.7120   24.2040 C   0  0  1  0  0  0  0  0  0  0  0  0
   10.7580   -0.3210   24.8690 C   0  0  0  0  0  0  0  0  0  0  0  0
    9.9670   -1.5040   24.9530 N   0  0  0  0  0  0  0  0  0  0  0  0
    9.2190   -3.5720   24.2120 C   0  0  0  0  0  0  0  0  0  0  0  0
    8.7870   -1.5120   25.7450 C   0  0  0  0  0  0  0  0  0  0  0  0
    8.2390   -3.2700   23.2730 C   0  0  0  0  0  0  0  0  0  0  0  0
    9.1080   -4.5870   25.1630 C   0  0  0  0  0  0  0  0  0  0  0  0
    7.9490   -2.4090   25.7070 O   0  0  0  0  0  0  0  0  0  0  0  0
    8.5490   -0.3230   26.7090 C   0  0  0  0  0  0  0  0  0  0  0  0
    8.4740   -2.1400   22.2360 C   0  0  0  0  0  0  0  0  0  0  0  0
    7.0770   -3.9420   23.2580 C   0  0  0  0  0  0  0  0  0  0  0  0
    7.7920   -5.3260   25.1060 C   0  0  0  0  0  0  0  0  0  0  0  0
    7.4580   -0.5180   27.6170 O   0  0  0  0  0  0  0  0  0  0  0  0
    7.3080   -1.6020   21.4710 C   0  0  0  0  0  0  0  0  0  0  0  0
    6.0200   -3.5720   22.2690 C   0  0  0  0  0  0  0  0  0  0  0  0
    6.8380   -4.9750   24.1700 C   0  0  0  0  0  0  0  0  0  0  0  0
    7.0670    0.5530   28.3720 C   0  0  0  0  0  0  0  0  0  0  0  0
    6.4460   -2.7330   21.1700 N   0  0  0  0  0  0  0  0  0  0  0  0
    6.3710   -3.3340   19.9340 C   0  0  0  0  0  0  0  0  0  0  0  0
    7.6800    1.7950   28.3740 C   0  0  0  0  0  0  0  0  0  0  0  0
    5.9550    0.3390   29.1940 C   0  0  0  0  0  0  0  0  0  0  0  0
    5.4890   -4.1690   19.7430 O   0  0  0  0  0  0  0  0  0  0  0  0
    7.3660   -3.0070   18.8290 C   0  0  0  0  0  0  0  0  0  0  0  0
    7.2140    2.8400   29.1850 C   0  0  0  0  0  0  0  0  0  0  0  0
    5.4750    1.3730   30.0070 C   0  0  0  0  0  0  0  0  0  0  0  0
    6.1040    2.6180   30.0030 C   0  0  0  0  0  0  0  0  0  0  0  0
    5.6060    3.6690   30.8420 C   0  0  0  0  0  0  0  0  0  0  0  0
  1  2  1  0
  2  3  1  0
  2  4  1  0
  4  5  1  0
  3  6  1  0
  5  7  1  0
  6  7  1  0
  5  8  1  6
  7  9  1  0
  8 10  1  0
  8 11  2  0
  9 12  2  0
  9 13  1  0
 10 14  1  0
 10 15  2  0
 11 16  1  0
 13 17  1  0
 14 18  1  0
 15 19  1  0
 15 20  1  0
 16 20  2  0
 17 21  1  0
 18 22  1  0
 19 22  1  0
 22 23  1  0
 21 24  2  0
 21 25  1  0
 23 26  2  0
 23 27  1  0
 24 28  1  0
 25 29  2  0
 28 30  2  0
 29 30  1  0
 30 31  1  0
M  END
