x0354-x1348
     RDKit          3D

 34 37  0  0  0  0  0  0  0  0999 V2000
    7.0720   -4.2070   21.2790 N   0  0  0  0  0  0  0  0  0  0  0  0
    6.5160   -3.8600   20.0790 C   0  0  0  0  0  0  0  0  0  0  0  0
    5.3630   -4.1750   19.7860 O   0  0  0  0  0  0  0  0  0  0  0  0
    6.4730   -4.7880   22.3190 C   0  0  0  0  0  0  0  0  0  0  0  0
    7.4080   -3.1660   19.0880 C   0  0  0  0  0  0  0  0  0  0  0  0
    6.8680   -4.6750   23.5250 N   0  0  0  0  0  0  0  0  0  0  0  0
    5.1120   -5.7440   22.0410 S   0  0  0  0  0  0  0  0  0  0  0  0
    6.0980   -5.3630   24.3510 C   0  0  0  0  0  0  0  0  0  0  0  0
    5.0500   -6.0360   23.7390 C   0  0  0  0  0  0  0  0  0  0  0  0
    6.3150   -5.4330   25.8600 C   0  0  0  0  0  0  0  0  0  0  0  0
    4.1530   -6.8030   24.4960 C   0  0  0  0  0  0  0  0  0  0  0  0
    7.4240   -4.7310   26.5160 N   0  0  0  0  0  0  0  0  0  0  0  0
    4.3200   -6.8880   25.8870 C   0  0  0  0  0  0  0  0  0  0  0  0
    5.3690   -6.2230   26.5490 C   0  0  0  0  0  0  0  0  0  0  0  0
    8.0230   -5.3860   27.6860 C   0  0  0  0  0  0  0  0  0  0  0  0
    8.3200   -3.8320   25.7870 C   0  0  0  0  0  0  0  0  0  0  0  0
    8.1730   -2.4490   26.2520 N   0  0  0  0  0  0  0  0  0  0  0  0
    8.8300   -1.4340   25.7980 C   0  0  0  0  0  0  0  0  0  0  0  0
    8.4130   -0.1440   26.5420 C   0  0  0  0  0  0  0  0  0  0  0  0
    9.8060   -1.3410   24.7980 N   0  0  0  0  0  0  0  0  0  0  0  0
    7.3870   -0.3950   27.4950 O   0  0  0  0  0  0  0  0  0  0  0  0
   10.0000   -2.3520   23.9350 C   0  0  0  0  0  0  0  0  0  0  0  0
   10.7840   -0.2210   24.8490 C   0  0  0  0  0  0  0  0  0  0  0  0
   10.9330   -2.0240   22.7770 C   0  0  0  0  0  0  0  0  0  0  0  0
   11.5780   -0.0100   23.6620 C   0  0  0  0  0  0  0  0  0  0  0  0
    7.0080    0.6320   28.2990 C   0  0  0  0  0  0  0  0  0  0  0  0
   12.0360   -1.1550   23.1880 N   0  0  0  0  0  0  0  0  0  0  0  0
    7.6090    1.8720   28.2790 C   0  0  0  0  0  0  0  0  0  0  0  0
    5.9310    0.3040   29.1580 C   0  0  0  0  0  0  0  0  0  0  0  0
   13.1240   -1.0730   22.2400 C   0  0  0  0  0  0  0  0  0  0  0  0
    7.1710    2.9690   29.1720 C   0  0  0  0  0  0  0  0  0  0  0  0
    5.4540    1.4510   30.1050 C   0  0  0  0  0  0  0  0  0  0  0  0
    6.0200    2.7280   30.1390 C   0  0  0  0  0  0  0  0  0  0  0  0
    5.5310    3.7980   31.0670 C   0  0  0  0  0  0  0  0  0  0  0  0
  1  2  1  0
  2  3  2  0
  1  4  1  0
  2  5  1  0
  4  6  2  0
  4  7  1  0
  6  8  1  0
  7  9  1  0
  8  9  2  0
  8 10  1  0
  9 11  1  0
 10 12  1  0
 11 13  2  0
 10 14  2  0
 13 14  1  0
 12 15  1  0
 12 16  1  0
 16 17  1  0
 17 18  2  3
 18 19  1  0
 18 20  1  0
 19 21  1  0
 20 22  1  0
 20 23  1  0
 22 24  1  0
 23 25  1  0
 21 26  1  0
 24 27  1  0
 25 27  1  0
 26 28  2  0
 26 29  1  0
 27 30  1  0
 28 31  1  0
 29 32  2  0
 31 33  2  0
 32 33  1  0
 33 34  1  0
M  END
