x0387-x3303
     RDKit          3D

 33 38  0  0  0  0  0  0  0  0999 V2000
    6.2490   -1.6770   20.8090 C   0  0  0  0  0  0  0  0  0  0  0  0
    7.5600   -1.7520   21.2440 N   0  0  0  0  0  0  0  0  0  0  0  0
    8.3870   -0.5770   21.5330 C   0  0  0  0  0  0  0  0  0  0  0  0
    5.2270   -2.6690   20.9630 O   0  0  0  0  0  0  0  0  0  0  0  0
    5.7270   -0.4690   20.0880 C   0  0  0  0  0  0  0  0  0  0  0  0
    7.8920   -2.8910   22.0590 C   0  0  0  0  0  0  0  0  0  0  0  0
    4.6300    0.4890   20.5770 C   0  0  0  0  0  0  0  0  0  0  0  0
    6.2640   -0.0630   18.7470 C   0  0  0  0  0  0  0  0  0  0  0  0
    8.4410   -0.3940   23.0660 C   0  0  0  0  0  0  0  0  0  0  0  0
    7.8530   -2.5680   23.5120 C   0  0  2  0  0  0  0  0  0  0  0  0
    4.2320    1.5850   19.8080 C   0  0  0  0  0  0  0  0  0  0  0  0
    5.8130    1.0460   18.0470 C   0  0  0  0  0  0  0  0  0  0  0  0
    3.9820    0.3130   21.8040 C   0  0  0  0  0  0  0  0  0  0  0  0
    6.2870    1.4310   16.8420 O   0  0  0  0  0  0  0  0  0  0  0  0
    8.7260   -1.5770   23.7660 N   0  0  0  0  0  0  0  0  0  0  0  0
    4.7920    1.9210   18.5210 N   0  0  0  0  0  0  0  0  0  0  0  0
    2.9900    1.1920   22.2250 C   0  0  0  0  0  0  0  0  0  0  0  0
    3.2430    2.4460   20.2460 C   0  0  0  0  0  0  0  0  0  0  0  0
    8.3390   -3.5320   24.5050 N   0  0  0  0  0  0  0  0  0  0  0  0
    9.5700   -1.7090   24.8280 C   0  0  1  0  0  0  0  0  0  0  0  0
    2.5670    2.3100   21.4590 C   0  0  0  0  0  0  0  0  0  0  0  0
    8.8510   -2.8360   25.6450 C   0  0  2  0  0  0  0  0  0  0  0  0
    9.2880   -4.5480   24.1320 C   0  0  0  0  0  0  0  0  0  0  0  0
   10.9850   -1.8590   24.2860 C   0  0  0  0  0  0  0  0  0  0  0  0
    9.6390   -3.8440   26.4830 C   0  0  0  0  0  0  0  0  0  0  0  0
    9.0750   -5.6130   24.9380 C   0  0  0  0  0  0  0  0  0  0  0  0
   11.9670   -2.5740   24.9850 C   0  0  0  0  0  0  0  0  0  0  0  0
   11.2440   -1.2430   23.0550 C   0  0  0  0  0  0  0  0  0  0  0  0
    9.2560   -5.2530   26.2100 C   0  0  2  0  0  0  0  0  0  0  0  0
    8.1110   -5.6620   26.8690 O   0  0  0  0  0  0  0  0  0  0  0  0
   12.4810   -1.3350   22.5250 C   0  0  0  0  0  0  0  0  0  0  0  0
   13.2280   -2.6750   24.4710 C   0  0  0  0  0  0  0  0  0  0  0  0
   13.4840   -2.0730   23.2690 C   0  0  0  0  0  0  0  0  0  0  0  0
  1  2  1  0
  2  3  1  0
  1  4  2  0
  1  5  1  0
  2  6  1  0
  5  7  1  0
  5  8  2  0
  3  9  1  0
 10  6  1  6
  7 11  2  0
  8 12  1  0
  7 13  1  0
 12 14  1  0
  9 15  1  0
 10 15  1  0
 11 16  1  0
 12 16  2  0
 13 17  2  0
 11 18  1  0
 10 19  1  0
 15 20  1  0
 17 21  1  0
 18 21  2  0
 19 22  1  0
 20 22  1  0
 19 23  1  0
 20 24  1  6
 22 25  1  6
 23 26  1  0
 24 27  2  0
 24 28  1  0
 25 29  1  0
 26 29  1  0
 29 30  1  1
 28 31  2  0
 27 32  1  0
 31 33  1  0
 32 33  2  0
M  END
