x0395-x0771
     RDKit          3D

 36 39  0  0  0  0  0  0  0  0999 V2000
    0.5960   -1.4500   26.2190 C   0  0  0  0  0  0  0  0  0  0  0  0
    1.6810   -2.4730   26.0970 C   0  0  0  0  0  0  0  0  0  0  0  0
    2.9860   -2.1410   26.4540 C   0  0  0  0  0  0  0  0  0  0  0  0
    1.4050   -3.7680   25.6320 C   0  0  0  0  0  0  0  0  0  0  0  0
    2.4170   -4.7240   25.5300 C   0  0  0  0  0  0  0  0  0  0  0  0
    4.0040   -3.0860   26.3560 C   0  0  0  0  0  0  0  0  0  0  0  0
    2.0260   -6.1120   25.0150 C   0  0  0  0  0  0  0  0  0  0  0  0
    3.7210   -4.3760   25.9000 C   0  0  0  0  0  0  0  0  0  0  0  0
    5.1030   -5.5020   25.8270 S   0  0  2  0  0  0  0  0  0  0  0  0
    4.5800   -6.8490   25.9150 O   0  0  0  0  0  0  0  0  0  0  0  0
    6.2340   -4.9020   26.7000 N   0  0  0  0  0  0  0  0  0  0  0  0
    5.7320   -5.4480   24.2460 N   0  0  0  0  0  0  0  0  0  0  0  0
    7.1450   -5.8000   27.4320 C   0  0  0  0  0  0  0  0  0  0  0  0
    5.0010   -6.0960   23.1480 C   0  0  0  0  0  0  0  0  0  0  0  0
    6.2010   -4.1510   23.7650 C   0  0  0  0  0  0  0  0  0  0  0  0
    8.4370   -5.3900   27.4000 C   0  0  0  0  0  0  0  0  0  0  0  0
    5.8840   -6.2620   21.8970 C   0  0  0  0  0  0  0  0  0  0  0  0
    7.1830   -4.3460   22.6170 C   0  0  0  0  0  0  0  0  0  0  0  0
    9.0180   -5.2490   25.9830 C   0  0  0  0  0  0  0  0  0  0  0  0
    6.5690   -5.0470   21.5090 N   0  0  0  0  0  0  0  0  0  0  0  0
    6.2380   -4.2990   20.3780 C   0  0  0  0  0  0  0  0  0  0  0  0
    8.8140   -3.8360   25.4430 C   0  0  0  0  0  0  0  0  0  0  0  0
    5.1510   -4.4210   19.8410 O   0  0  0  0  0  0  0  0  0  0  0  0
    7.2380   -3.3400   19.7400 C   0  0  0  0  0  0  0  0  0  0  0  0
    8.1990   -2.9000   26.1300 N   0  0  0  0  0  0  0  0  0  0  0  0
    9.3450   -3.2810   23.8900 S   0  0  0  0  0  0  0  0  0  0  0  0
    8.1110   -1.7150   25.4450 N   0  0  0  0  0  0  0  0  0  0  0  0
    8.6590   -1.7480   24.2470 C   0  0  0  0  0  0  0  0  0  0  0  0
    8.6470   -0.5520   23.3160 C   0  0  0  0  0  0  0  0  0  0  0  0
    9.8870   -0.3100   22.4320 C   0  0  1  0  0  0  0  0  0  0  0  0
   11.0490    0.2390   23.1920 C   0  0  0  0  0  0  0  0  0  0  0  0
   10.1710   -1.5610   21.7290 N   0  0  0  0  0  0  0  0  0  0  0  0
   12.2930    0.0530   22.7880 C   0  0  0  0  0  0  0  0  0  0  0  0
   11.5170   -2.0770   21.9110 C   0  0  0  0  0  0  0  0  0  0  0  0
   12.5560   -1.0670   22.1590 C   0  0  0  0  0  0  0  0  0  0  0  0
   13.7640   -1.3240   21.7080 F   0  0  0  0  0  0  0  0  0  0  0  0
  1  2  1  0
  2  3  2  0
  2  4  1  0
  4  5  2  0
  3  6  1  0
  5  7  1  0
  5  8  1  0
  6  8  2  0
  9  8  1  6
  9 10  2  0
  9 11  2  0
  9 12  1  0
 11 13  1  0
 12 14  1  0
 12 15  1  0
 13 16  1  0
 14 17  1  0
 15 18  1  0
 16 19  1  0
 17 20  1  0
 18 20  1  0
 20 21  1  0
 19 22  1  0
 21 23  2  0
 21 24  1  0
 22 25  2  0
 22 26  1  0
 25 27  1  0
 26 28  1  0
 27 28  2  0
 28 29  1  0
 30 29  1  1
 30 31  1  0
 30 32  1  0
 31 33  1  0
 32 34  1  0
 33 35  2  0
 34 35  1  0
 35 36  1  0
M  END
