x0395-x3124
     RDKit          3D

 38 42  0  0  0  0  0  0  0  0999 V2000
    7.0400   -1.8730   21.9080 N   0  0  0  0  0  0  0  0  0  0  0  0
    6.1160   -3.0130   21.6030 C   0  0  0  0  0  0  0  0  0  0  0  0
    4.8340   -3.0540   21.3090 O   0  0  0  0  0  0  0  0  0  0  0  0
    6.4540   -0.4260   21.7210 C   0  0  1  0  0  0  0  0  0  0  0  0
    8.4770   -2.1650   22.4080 C   0  0  1  0  0  0  0  0  0  0  0  0
    6.7310   -4.3680   21.5970 C   0  0  0  0  0  0  0  0  0  0  0  0
    7.5890    0.5580   22.1490 C   0  0  0  0  0  0  0  0  0  0  0  0
    6.0240    0.0700   20.3600 C   0  0  0  0  0  0  0  0  0  0  0  0
    9.6790   -1.4670   22.0210 C   0  0  0  0  0  0  0  0  0  0  0  0
    8.7040   -2.7150   23.7220 C   0  0  1  0  0  0  0  0  0  0  0  0
    6.5810   -4.8530   20.1780 C   0  0  0  0  0  0  0  0  0  0  0  0
    7.4380    1.2470   23.3070 N   0  0  0  0  0  0  0  0  0  0  0  0
    8.5710    0.8240   21.4610 O   0  0  0  0  0  0  0  0  0  0  0  0
    4.9120    0.8480   20.2190 C   0  0  0  0  0  0  0  0  0  0  0  0
    6.8040   -0.2220   19.0200 C   0  0  0  0  0  0  0  0  0  0  0  0
   10.4700   -0.8090   23.0330 C   0  0  1  0  0  0  0  0  0  0  0  0
   10.0420   -2.7340   24.1470 C   0  0  0  0  0  0  0  0  0  0  0  0
    7.9710   -2.0600   24.8270 N   0  0  0  0  0  0  0  0  0  0  0  0
    8.2140   -4.3240   23.9490 S   0  0  0  0  0  0  0  0  0  0  0  0
    7.8070    2.6560   23.3790 C   0  0  0  0  0  0  0  0  0  0  0  0
    6.3590    0.3010   17.8550 N   0  0  0  0  0  0  0  0  0  0  0  0
    4.4880    1.3610   19.0060 C   0  0  0  0  0  0  0  0  0  0  0  0
   10.8320   -1.5470   24.1660 C   0  0  1  0  0  0  0  0  0  0  0  0
    8.1770   -4.2400   25.6280 C   0  0  2  0  0  0  0  0  0  0  0  0
    8.1520   -2.8120   25.9500 N   0  0  0  0  0  0  0  0  0  0  0  0
   11.9350   -0.3320   22.8960 C   0  0  0  0  0  0  0  0  0  0  0  0
    9.6840    0.3790   23.4080 N   0  0  0  0  0  0  0  0  0  0  0  0
   12.3710   -1.6970   24.3510 C   0  0  0  0  0  0  0  0  0  0  0  0
   12.9570   -1.3720   22.9530 C   0  0  1  0  0  0  0  0  0  0  0  0
    9.3300   -4.9880   26.2600 C   0  0  0  0  0  0  0  0  0  0  0  0
    5.2350    1.0660   17.8830 C   0  0  0  0  0  0  0  0  0  0  0  0
   10.4360    1.5140   23.9340 C   0  0  0  0  0  0  0  0  0  0  0  0
   12.4790    1.0810   22.8710 C   0  0  0  0  0  0  0  0  0  0  0  0
   12.7340   -0.8770   25.1380 C   0  0  0  0  0  0  0  0  0  0  0  0
   12.8840   -3.0340   24.8940 C   0  0  0  0  0  0  0  0  0  0  0  0
   12.9600   -2.3780   21.8360 C   0  0  0  0  0  0  0  0  0  0  0  0
   11.5620    2.0580   23.0250 C   0  0  0  0  0  0  0  0  0  0  0  0
   13.5120   -1.7630   20.7850 F   0  0  0  0  0  0  0  0  0  0  0  0
  1  2  1  0
  2  3  2  0
  1  4  1  0
  5  1  1  1
  2  6  1  0
  4  7  1  6
  4  8  1  0
  5  9  1  0
  5 10  1  0
  6 11  1  0
  7 12  1  0
  7 13  2  0
  8 14  2  0
  8 15  1  0
 16  9  1  6
 10 17  1  1
 10 18  1  0
 10 19  1  0
 12 20  1  0
 15 21  2  0
 14 22  1  0
 16 23  1  0
 23 17  1  6
 19 24  1  0
 18 25  1  0
 24 25  1  0
 16 26  1  0
 16 27  1  0
 23 28  1  0
 26 29  1  0
 28 29  1  0
 24 30  1  1
 21 31  1  0
 22 31  2  0
 27 32  1  0
 26 33  2  0
 28 34  1  0
 28 35  1  0
 29 36  1  6
 32 37  1  0
 33 37  1  0
 36 38  1  0
M  END
