x0395-x3117
     RDKit          3D

 42 46  0  0  0  0  0  0  0  0999 V2000
    6.9030   -1.5910   21.8760 N   0  0  0  0  0  0  0  0  0  0  0  0
    6.0930   -2.7730   21.4410 C   0  0  0  0  0  0  0  0  0  0  0  0
    4.7980   -3.0510   21.3990 O   0  0  0  0  0  0  0  0  0  0  0  0
    6.5490   -0.0850   21.6570 C   0  0  1  0  0  0  0  0  0  0  0  0
    8.2690   -1.7330   22.6300 C   0  0  2  0  0  0  0  0  0  0  0  0
    6.9420   -3.8640   20.9210 C   0  0  0  0  0  0  0  0  0  0  0  0
    7.6470    0.8380   21.8280 C   0  0  0  0  0  0  0  0  0  0  0  0
    5.9950    0.3220   20.3550 C   0  0  0  0  0  0  0  0  0  0  0  0
    9.6000   -1.6740   21.7760 C   0  0  0  0  0  0  0  0  0  0  0  0
    8.5220   -2.4430   24.0470 C   0  0  1  0  0  0  0  0  0  0  0  0
    7.2400   -3.4060   19.5030 C   0  0  0  0  0  0  0  0  0  0  0  0
    7.4570    1.9590   22.6500 N   0  0  0  0  0  0  0  0  0  0  0  0
    8.7230    0.7190   21.2600 O   0  0  0  0  0  0  0  0  0  0  0  0
    4.8170    1.0340   20.2290 C   0  0  0  0  0  0  0  0  0  0  0  0
    6.7600   -0.0320   19.0960 C   0  0  0  0  0  0  0  0  0  0  0  0
   10.7060   -1.1750   22.6870 C   0  0  1  0  0  0  0  0  0  0  0  0
    9.7250   -1.8410   24.6890 C   0  0  0  0  0  0  0  0  0  0  0  0
    7.4910   -2.4940   25.1300 N   0  0  0  0  0  0  0  0  0  0  0  0
    8.9500   -4.2340   23.8560 S   0  0  0  0  0  0  0  0  0  0  0  0
    6.3290    0.3290   17.9140 N   0  0  0  0  0  0  0  0  0  0  0  0
    4.4050    1.3930   18.9570 C   0  0  0  0  0  0  0  0  0  0  0  0
    8.3600    3.1550   22.5360 C   0  0  0  0  0  0  0  0  0  0  0  0
   10.8630   -1.8960   23.7550 C   0  0  2  0  0  0  0  0  0  0  0  0
    8.8880   -4.3100   25.6380 C   0  0  1  0  0  0  0  0  0  0  0  0
    7.6230   -3.6470   25.9070 N   0  0  0  0  0  0  0  0  0  0  0  0
   12.1000   -0.9400   22.1330 C   0  0  0  0  0  0  0  0  0  0  0  0
   10.1740    0.1130   23.1100 N   0  0  0  0  0  0  0  0  0  0  0  0
   12.2620   -2.1130   24.4990 C   0  0  0  0  0  0  0  0  0  0  0  0
    8.9740   -5.7180   26.1990 C   0  0  0  0  0  0  0  0  0  0  0  0
   12.7260   -1.8570   21.3550 F   0  0  0  0  0  0  0  0  0  0  0  0
    5.1760    1.0310   17.8650 C   0  0  0  0  0  0  0  0  0  0  0  0
    9.3910    3.0720   23.3810 C   0  0  0  0  0  0  0  0  0  0  0  0
    7.5460    4.4520   22.7990 C   0  0  0  0  0  0  0  0  0  0  0  0
   11.1070    0.8180   23.9400 C   0  0  0  0  0  0  0  0  0  0  0  0
   12.7940    0.1890   22.4080 C   0  0  0  0  0  0  0  0  0  0  0  0
   12.7960   -0.9540   25.2630 C   0  0  0  0  0  0  0  0  0  0  0  0
   13.4470   -2.5040   23.6160 C   0  0  0  0  0  0  0  0  0  0  0  0
   12.0480   -3.3850   25.3430 C   0  0  0  0  0  0  0  0  0  0  0  0
    9.9170    4.3520   24.0260 C   0  0  0  0  0  0  0  0  0  0  0  0
    8.4440    5.6720   22.8040 C   0  0  0  0  0  0  0  0  0  0  0  0
   12.3230    1.2250   23.1350 C   0  0  0  0  0  0  0  0  0  0  0  0
    9.7830    5.4300   23.2420 O   0  0  0  0  0  0  0  0  0  0  0  0
  1  2  1  0
  2  3  2  0
  1  4  1  0
  5  1  1  6
  2  6  1  0
  4  7  1  6
  4  8  1  0
  5  9  1  0
  5 10  1  0
  6 11  1  0
  7 12  1  0
  7 13  2  0
  8 14  2  0
  8 15  1  0
 16  9  1  6
 10 17  1  1
 10 18  1  0
 10 19  1  0
 15 20  2  0
 14 21  1  0
 12 22  1  0
 16 23  1  0
 17 23  1  0
 19 24  1  0
 18 25  1  0
 24 25  1  0
 16 26  1  0
 16 27  1  0
 23 28  1  1
 24 29  1  6
 26 30  1  0
 20 31  1  0
 21 31  2  0
 22 32  1  0
 22 33  1  0
 27 34  1  0
 26 35  2  0
 28 36  1  0
 28 37  1  0
 28 38  1  0
 32 39  1  0
 33 40  1  0
 34 41  1  0
 35 41  1  0
 39 42  1  0
 40 42  1  0
M  END
