x0395-x2910
     RDKit          3D

 31 34  0  0  0  0  0  0  0  0999 V2000
    6.6950   -1.5090   21.8550 N   0  0  0  0  0  0  0  0  0  0  0  0
    7.6690   -2.5110   22.1430 C   0  0  0  0  0  0  0  0  0  0  0  0
    9.0900   -1.9980   21.9070 C   0  0  0  0  0  0  0  0  0  0  0  0
    5.7280   -1.7270   20.7640 C   0  0  0  0  0  0  0  0  0  0  0  0
    5.2430   -2.8160   20.4900 O   0  0  0  0  0  0  0  0  0  0  0  0
    5.3600   -0.5210   20.0220 C   0  0  0  0  0  0  0  0  0  0  0  0
    9.5330   -1.4480   23.0790 N   0  0  0  0  0  0  0  0  0  0  0  0
    4.3980    0.4080   20.4170 C   0  0  0  0  0  0  0  0  0  0  0  0
    6.0610   -0.2450   18.7340 C   0  0  0  0  0  0  0  0  0  0  0  0
   10.8120   -0.8460   22.9350 C   0  0  0  0  0  0  0  0  0  0  0  0
    4.1260    1.5420   19.5840 C   0  0  0  0  0  0  0  0  0  0  0  0
    5.6770    0.9950   17.9680 C   0  0  0  0  0  0  0  0  0  0  0  0
    3.6880    0.2380   21.6320 C   0  0  0  0  0  0  0  0  0  0  0  0
    9.1330   -2.2480   24.2270 C   0  0  0  0  0  0  0  0  0  0  0  0
    6.2430    1.3290   16.8190 O   0  0  0  0  0  0  0  0  0  0  0  0
   11.0620    0.4780   23.3700 C   0  0  0  0  0  0  0  0  0  0  0  0
   11.8020   -1.5580   22.3710 C   0  0  0  0  0  0  0  0  0  0  0  0
    4.7470    1.8260   18.4010 N   0  0  0  0  0  0  0  0  0  0  0  0
    3.1640    2.4910   19.9300 C   0  0  0  0  0  0  0  0  0  0  0  0
    2.6520    1.2110   22.0650 C   0  0  0  0  0  0  0  0  0  0  0  0
    8.4750   -1.8820   25.3260 N   0  0  0  0  0  0  0  0  0  0  0  0
    9.4780   -3.9400   24.2790 S   0  0  0  0  0  0  0  0  0  0  0  0
   10.1910    1.1930   23.8910 O   0  0  0  0  0  0  0  0  0  0  0  0
   13.0870   -1.0860   22.1830 C   0  0  0  0  0  0  0  0  0  0  0  0
   12.4050    0.9890   23.1840 C   0  0  0  0  0  0  0  0  0  0  0  0
    2.3430    2.3950   21.2100 C   0  0  0  0  0  0  0  0  0  0  0  0
    8.7260   -4.0750   25.7780 C   0  0  0  0  0  0  0  0  0  0  0  0
    8.2370   -2.9260   26.2150 N   0  0  0  0  0  0  0  0  0  0  0  0
   10.3140    2.3810   23.5650 C   0  0  0  0  0  0  0  0  0  0  0  0
    8.6790   -5.3930   26.4730 C   0  0  0  0  0  0  0  0  0  0  0  0
   13.3730    0.2140   22.6060 C   0  0  0  0  0  0  0  0  0  0  0  0
  1  2  1  0
  2  3  1  0
  1  4  1  0
  4  5  2  0
  4  6  1  0
  3  7  1  0
  6  8  1  0
  6  9  2  0
  7 10  1  0
  8 11  2  0
  9 12  1  0
  8 13  1  0
  7 14  1  0
 12 15  1  0
 10 16  2  0
 10 17  1  0
 11 18  1  0
 12 18  2  0
 11 19  1  0
 13 20  2  0
 14 21  2  0
 14 22  1  0
 16 23  1  0
 17 24  2  0
 16 25  1  0
 19 26  2  0
 20 26  1  0
 22 27  1  0
 21 28  1  0
 27 28  2  0
 23 29  1  0
 27 30  1  0
 24 31  1  0
 25 31  2  0
M  END
