x0395-x3117-x0786
     RDKit          3D

 56 62  0  0  0  0  0  0  0  0999 V2000
    7.1290   -1.6560   21.8020 N   0  0  0  0  0  0  0  0  0  0  0  0
    6.1510   -2.7990   21.4930 C   0  0  0  0  0  0  0  0  0  0  0  0
    4.8560   -2.9840   21.1110 O   0  0  0  0  0  0  0  0  0  0  0  0
    6.7660   -0.1870   21.6310 C   0  0  1  0  0  0  0  0  0  0  0  0
    8.4220   -1.8000   22.5920 C   0  0  2  0  0  0  0  0  0  0  0  0
    6.7400   -4.1110   21.6900 C   0  0  2  0  0  0  0  0  0  0  0  0
    7.9140    0.8600   21.8940 C   0  0  0  0  0  0  0  0  0  0  0  0
    6.1640    0.2250   20.3180 C   0  0  0  0  0  0  0  0  0  0  0  0
    9.7000   -1.6740   21.8870 C   0  0  0  0  0  0  0  0  0  0  0  0
    8.6720   -2.7160   23.7050 C   0  0  1  0  0  0  0  0  0  0  0  0
    6.6800   -4.8220   20.3470 C   0  0  0  0  0  0  0  0  0  0  0  0
    7.6020    2.0520   22.7340 N   0  0  0  0  0  0  0  0  0  0  0  0
    9.0050    0.7340   21.3800 O   0  0  0  0  0  0  0  0  0  0  0  0
    5.0120    0.9980   20.2290 C   0  0  0  0  0  0  0  0  0  0  0  0
    6.7790   -0.1410   19.1130 C   0  0  0  0  0  0  0  0  0  0  0  0
   10.6780   -1.0390   22.7450 C   0  0  1  0  0  0  0  0  0  0  0  0
    9.9930   -2.9870   23.8670 C   0  0  0  0  0  0  0  0  0  0  0  0
    8.1980   -2.1870   25.0210 N   0  0  0  0  0  0  0  0  0  0  0  0
    8.2360   -4.3260   24.0140 S   0  0  0  0  0  0  0  0  0  0  0  0
    5.8000   -4.5180   22.8380 C   0  0  0  0  0  0  0  0  0  0  0  0
    6.2770    0.2610   17.8040 N   0  0  0  0  0  0  0  0  0  0  0  0
    4.4530    1.4320   19.0140 C   0  0  0  0  0  0  0  0  0  0  0  0
    8.3800    3.2850   22.7190 C   0  0  0  0  0  0  0  0  0  0  0  0
   10.8190   -1.8000   24.0360 C   0  0  1  0  0  0  0  0  0  0  0  0
    8.7360   -4.4970   25.6450 C   0  0  1  0  0  0  0  0  0  0  0  0
    8.3670   -3.0980   26.0980 N   0  0  0  0  0  0  0  0  0  0  0  0
   11.9810   -0.8600   22.1300 C   0  0  0  0  0  0  0  0  0  0  0  0
   10.3350    0.2400   22.9670 N   0  0  0  0  0  0  0  0  0  0  0  0
    5.0450   -5.6310   22.9470 C   0  0  0  0  0  0  0  0  0  0  0  0
    5.7040   -3.6320   23.8630 C   0  0  0  0  0  0  0  0  0  0  0  0
   12.1540   -2.1080   24.5290 C   0  0  0  0  0  0  0  0  0  0  0  0
    8.1000   -5.5890   26.4670 C   0  0  0  0  0  0  0  0  0  0  0  0
   12.5480   -1.7590   21.3040 F   0  0  0  0  0  0  0  0  0  0  0  0
    5.0830    1.0690   17.8600 C   0  0  0  0  0  0  0  0  0  0  0  0
    9.4930    3.2700   23.5560 C   0  0  0  0  0  0  0  0  0  0  0  0
    7.6460    4.4340   23.0630 C   0  0  0  0  0  0  0  0  0  0  0  0
   11.1330    0.8710   23.8350 C   0  0  0  0  0  0  0  0  0  0  0  0
   12.7170    0.2640   22.4190 C   0  0  0  0  0  0  0  0  0  0  0  0
    4.1440   -5.8620   24.1460 C   0  0  0  0  0  0  0  0  0  0  0  0
    4.8930   -3.8080   24.9910 C   0  0  0  0  0  0  0  0  0  0  0  0
   12.8530   -0.9910   25.2970 C   0  0  0  0  0  0  0  0  0  0  0  0
   13.1920   -2.5100   23.4920 C   0  0  0  0  0  0  0  0  0  0  0  0
   12.0210   -3.3230   25.4460 C   0  0  0  0  0  0  0  0  0  0  0  0
    3.2450   -7.1080   24.3000 C   0  0  0  0  0  0  0  0  0  0  0  0
    9.8690    4.6380   24.1190 C   0  0  0  0  0  0  0  0  0  0  0  0
    8.3550    5.6320   22.8600 C   0  0  0  0  0  0  0  0  0  0  0  0
   12.2650    1.2990   23.2330 C   0  0  0  0  0  0  0  0  0  0  0  0
    4.1330   -4.9170   25.1070 C   0  0  0  0  0  0  0  0  0  0  0  0
    3.7210   -8.1010   24.8280 O   0  0  0  0  0  0  0  0  0  0  0  0
    9.7100    5.5120   23.2980 O   0  0  0  0  0  0  0  0  0  0  0  0
    1.9400   -7.0230   23.8310 N   0  0  0  0  0  0  0  0  0  0  0  0
    1.4830   -5.7210   23.3380 C   0  0  0  0  0  0  0  0  0  0  0  0
    1.0120   -8.0390   23.9160 C   0  0  0  0  0  0  0  0  0  0  0  0
    0.5190   -5.0630   24.3320 C   0  0  0  0  0  0  0  0  0  0  0  0
   -0.1360   -7.6600   24.8720 C   0  0  0  0  0  0  0  0  0  0  0  0
   -0.9700   -6.0880   24.4390 S   0  0  0  0  0  0  0  0  0  0  0  0
  1  2  1  0
  2  3  2  0
  1  4  1  0
  5  1  1  6
  2  6  1  0
  4  7  1  6
  4  8  1  0
  5  9  1  0
  5 10  1  0
  6 11  1  6
  7 12  1  0
  7 13  2  0
  8 14  2  0
  8 15  1  0
 16  9  1  6
 10 17  1  1
 10 18  1  0
 10 19  1  0
  6 20  1  0
 15 21  2  0
 14 22  1  0
 12 23  1  0
 16 24  1  0
 17 24  1  0
 19 25  1  0
 18 26  1  0
 25 26  1  0
 16 27  1  0
 16 28  1  0
 20 29  2  0
 20 30  1  0
 24 31  1  6
 25 32  1  1
 27 33  1  0
 21 34  1  0
 22 34  2  0
 23 35  1  0
 23 36  1  0
 28 37  1  0
 27 38  2  0
 29 39  1  0
 30 40  2  0
 31 41  1  0
 31 42  1  0
 31 43  1  0
 39 44  1  0
 35 45  1  0
 36 46  1  0
 37 47  1  0
 38 47  1  0
 39 48  2  0
 40 48  1  0
 44 49  2  0
 45 50  1  0
 46 50  1  0
 44 51  1  0
 51 52  1  0
 51 53  1  0
 52 54  1  0
 53 55  1  0
 54 56  1  0
 55 56  1  0
M  END
