x0397-x0678
     RDKit          3D

 24 26  0  0  0  0  0  0  0  0999 V2000
    8.2190   -1.6400   21.2360 C   0  0  0  0  0  0  0  0  0  0  0  0
    6.9820   -1.8130   20.4200 N   0  0  0  0  0  0  0  0  0  0  0  0
    7.0260   -1.3580   19.0120 C   0  0  0  0  0  0  0  0  0  0  0  0
    8.6510   -0.2170   21.6760 C   0  0  0  0  0  0  0  0  0  0  0  0
    6.1930   -2.9180   20.7810 C   0  0  0  0  0  0  0  0  0  0  0  0
    8.4810    0.7730   20.9540 O   0  0  0  0  0  0  0  0  0  0  0  0
    9.2360   -0.1360   22.9770 C   0  0  0  0  0  0  0  0  0  0  0  0
    5.3810   -3.4010   19.9880 O   0  0  0  0  0  0  0  0  0  0  0  0
    6.3750   -3.4650   22.0340 N   0  0  0  0  0  0  0  0  0  0  0  0
    6.1640   -0.1800   18.7970 C   0  0  0  0  0  0  0  0  0  0  0  0
   10.7040   -0.4710   23.0730 C   0  0  0  0  0  0  0  0  0  0  0  0
    5.1150    0.2970   19.5980 C   0  0  0  0  0  0  0  0  0  0  0  0
    6.3410    0.5850   17.7190 N   0  0  0  0  0  0  0  0  0  0  0  0
    5.7310   -4.6890   22.4210 C   0  0  0  0  0  0  0  0  0  0  0  0
   11.1930   -1.5000   22.2530 C   0  0  0  0  0  0  0  0  0  0  0  0
   11.1980   -0.6210   24.4980 C   0  0  0  0  0  0  0  0  0  0  0  0
    5.4040    1.5820   17.8060 O   0  0  0  0  0  0  0  0  0  0  0  0
    4.6720    1.4060   18.9350 C   0  0  0  0  0  0  0  0  0  0  0  0
    6.3830   -5.5320   23.3760 C   0  0  0  0  0  0  0  0  0  0  0  0
    6.0460   -5.8490   21.7820 C   0  0  0  0  0  0  0  0  0  0  0  0
   12.5510   -1.7840   22.3960 C   0  0  0  0  0  0  0  0  0  0  0  0
   12.5540   -0.4120   24.4930 C   0  0  0  0  0  0  0  0  0  0  0  0
    3.6090    2.3900   19.2040 C   0  0  0  0  0  0  0  0  0  0  0  0
   13.2800   -1.1170   23.3810 C   0  0  0  0  0  0  0  0  0  0  0  0
  1  2  1  0
  2  3  1  0
  1  4  1  0
  2  5  1  0
  4  6  2  0
  4  7  1  0
  5  8  2  0
  5  9  1  0
  3 10  1  0
  7 11  1  0
 10 12  1  0
 10 13  2  0
  9 14  1  0
 11 15  1  0
 11 16  1  0
 13 17  1  0
 12 18  2  0
 17 18  1  0
 14 19  1  0
 14 20  1  0
 19 20  1  0
 15 21  1  0
 16 22  1  0
 18 23  1  0
 21 24  1  0
 22 24  1  0
M  END
