x0395-x3305
     RDKit          3D

 34 37  0  0  0  0  0  0  0  0999 V2000
    3.3790   -7.1400   23.7500 C   0  0  0  0  0  0  0  0  0  0  0  0
    4.5250   -6.3120   23.4900 N   0  0  0  0  0  0  0  0  0  0  0  0
    4.8500   -4.9830   23.9560 C   0  0  0  0  0  0  0  0  0  0  0  0
    5.5430   -6.6910   22.7140 N   0  0  0  0  0  0  0  0  0  0  0  0
    5.9040   -4.6180   23.5270 C   0  0  0  0  0  0  0  0  0  0  0  0
    6.4130   -5.6400   22.7290 N   0  0  0  0  0  0  0  0  0  0  0  0
    6.6740   -3.3470   23.7180 C   0  0  1  0  0  0  0  0  0  0  0  0
    6.2310   -2.3620   22.8880 N   0  0  0  0  0  0  0  0  0  0  0  0
    6.6640   -2.8780   25.1850 C   0  0  0  0  0  0  0  0  0  0  0  0
    6.3530   -2.4330   21.4380 C   0  0  0  0  0  0  0  0  0  0  0  0
    8.0000   -2.6660   25.6980 N   0  0  0  0  0  0  0  0  0  0  0  0
    5.5570   -3.2520   20.7060 O   0  0  0  0  0  0  0  0  0  0  0  0
    7.2980   -1.6300   20.8580 N   0  0  0  0  0  0  0  0  0  0  0  0
    8.3950   -3.5030   26.6750 N   0  0  0  0  0  0  0  0  0  0  0  0
    9.0320   -2.3960   24.9030 C   0  0  0  0  0  0  0  0  0  0  0  0
    8.3640   -0.9480   21.6030 C   0  0  0  0  0  0  0  0  0  0  0  0
    7.0630   -1.2480   19.4880 C   0  0  0  0  0  0  0  0  0  0  0  0
    9.5210   -4.2150   26.1230 C   0  0  2  0  0  0  0  0  0  0  0  0
   10.4720   -3.3630   24.8380 S   0  0  0  0  0  0  0  0  0  0  0  0
    9.5810   -1.8260   21.9880 C   0  0  0  0  0  0  0  0  0  0  0  0
    6.0820   -0.1790   19.2330 C   0  0  0  0  0  0  0  0  0  0  0  0
    9.1310   -5.5960   25.9160 C   0  0  0  0  0  0  0  0  0  0  0  0
    6.3080    0.7320   18.1130 C   0  0  0  0  0  0  0  0  0  0  0  0
    4.9270    0.0110   19.9950 C   0  0  0  0  0  0  0  0  0  0  0  0
   10.6930   -0.9590   22.4940 C   0  0  0  0  0  0  0  0  0  0  0  0
    5.5210    1.7140   17.7040 N   0  0  0  0  0  0  0  0  0  0  0  0
    4.1210    1.0810   19.5540 C   0  0  0  0  0  0  0  0  0  0  0  0
   10.6710    0.1140   23.2870 C   0  0  0  0  0  0  0  0  0  0  0  0
   12.0280   -1.4290   21.9730 C   0  0  0  0  0  0  0  0  0  0  0  0
    4.4340    1.8710   18.4550 C   0  0  0  0  0  0  0  0  0  0  0  0
   11.8610    0.6980   23.5480 C   0  0  0  0  0  0  0  0  0  0  0  0
   13.3450   -0.9270   22.1550 C   0  0  0  0  0  0  0  0  0  0  0  0
   13.3480   -2.0100   21.3690 F   0  0  0  0  0  0  0  0  0  0  0  0
   13.0440    0.1850   23.0040 C   0  0  0  0  0  0  0  0  0  0  0  0
  1  2  1  0
  2  3  1  0
  2  4  1  0
  3  5  2  0
  4  6  2  0
  5  6  1  0
  5  7  1  0
  7  8  1  0
  7  9  1  1
  8 10  1  0
  9 11  1  0
 10 12  2  0
 10 13  1  0
 11 14  1  0
 11 15  1  0
 13 16  1  0
 13 17  1  0
 14 18  1  0
 15 19  2  0
 18 19  1  0
 16 20  1  0
 17 21  1  0
 18 22  1  6
 21 23  2  0
 21 24  1  0
 20 25  1  0
 23 26  1  0
 24 27  2  0
 25 28  2  0
 25 29  1  0
 26 30  2  0
 27 30  1  0
 28 31  1  0
 29 32  2  0
 32 33  1  0
 31 34  2  0
 32 34  1  0
M  END
