x0397-x0434
     RDKit          3D

 24 26  0  0  0  0  0  0  0  0999 V2000
    7.9960   -1.9340   21.0940 C   0  0  0  0  0  0  0  0  0  0  0  0
    6.8210   -2.0670   20.2120 N   0  0  0  0  0  0  0  0  0  0  0  0
    6.9370   -1.5320   18.8420 C   0  0  0  0  0  0  0  0  0  0  0  0
    8.4190   -0.5410   21.5350 C   0  0  0  0  0  0  0  0  0  0  0  0
    6.0040   -3.1440   20.5560 C   0  0  0  0  0  0  0  0  0  0  0  0
    8.1490    0.4860   20.9020 O   0  0  0  0  0  0  0  0  0  0  0  0
    9.1410   -0.6510   22.6830 N   0  0  0  0  0  0  0  0  0  0  0  0
    5.4040   -3.8350   19.7090 O   0  0  0  0  0  0  0  0  0  0  0  0
    5.9170   -3.4260   21.9010 N   0  0  0  0  0  0  0  0  0  0  0  0
    6.1100   -0.3260   18.7330 C   0  0  0  0  0  0  0  0  0  0  0  0
   10.5070   -0.4590   22.7140 C   0  0  0  0  0  0  0  0  0  0  0  0
    5.0780    0.1980   19.4890 C   0  0  0  0  0  0  0  0  0  0  0  0
    6.3220    0.6130   17.6220 N   0  0  0  0  0  0  0  0  0  0  0  0
    5.5340   -4.7120   22.4100 C   0  0  0  0  0  0  0  0  0  0  0  0
   10.8540    0.9250   23.0640 C   0  0  0  0  0  0  0  0  0  0  0  0
   11.5540   -1.3390   22.4650 C   0  0  0  0  0  0  0  0  0  0  0  0
    5.4050    1.6530   17.7790 O   0  0  0  0  0  0  0  0  0  0  0  0
    4.6290    1.4580   18.8840 C   0  0  0  0  0  0  0  0  0  0  0  0
    6.4910   -5.5140   23.2250 C   0  0  0  0  0  0  0  0  0  0  0  0
    6.0650   -5.8450   21.8440 C   0  0  0  0  0  0  0  0  0  0  0  0
   12.1460    1.3450   23.1450 C   0  0  0  0  0  0  0  0  0  0  0  0
   12.9900   -0.8780   22.5540 C   0  0  0  0  0  0  0  0  0  0  0  0
    3.6080    2.4550   19.2050 C   0  0  0  0  0  0  0  0  0  0  0  0
   13.1520    0.4520   22.8910 C   0  0  0  0  0  0  0  0  0  0  0  0
  1  2  1  0
  2  3  1  0
  1  4  1  0
  2  5  1  0
  4  6  2  0
  4  7  1  0
  5  8  2  0
  5  9  1  0
  3 10  1  0
  7 11  1  0
 10 12  1  0
 10 13  2  0
  9 14  1  0
 11 15  2  0
 11 16  1  0
 13 17  1  0
 12 18  2  0
 17 18  1  0
 14 19  1  0
 14 20  1  0
 19 20  1  0
 15 21  1  0
 16 22  2  0
 18 23  1  0
 21 24  2  0
 22 24  1  0
M  END
