x0397-x2562
     RDKit          3D

 30 33  0  0  0  0  0  0  0  0999 V2000
    6.9830   -1.0610   21.2760 C   0  0  0  0  0  0  0  0  0  0  0  0
    6.8460   -2.0520   20.1920 N   0  0  0  0  0  0  0  0  0  0  0  0
    6.8980   -1.5480   18.8140 C   0  0  0  0  0  0  0  0  0  0  0  0
    8.2680   -0.2410   21.3480 C   0  0  0  0  0  0  0  0  0  0  0  0
    6.1430   -3.2060   20.5530 C   0  0  0  0  0  0  0  0  0  0  0  0
    8.2890    0.9560   21.0020 O   0  0  0  0  0  0  0  0  0  0  0  0
    9.3020   -0.9820   21.8510 N   0  0  0  0  0  0  0  0  0  0  0  0
    5.5320   -3.8980   19.7210 O   0  0  0  0  0  0  0  0  0  0  0  0
    6.1720   -3.5510   21.8840 N   0  0  0  0  0  0  0  0  0  0  0  0
    6.0730   -0.3370   18.7110 C   0  0  0  0  0  0  0  0  0  0  0  0
   10.5370   -0.4340   22.2090 C   0  0  0  0  0  0  0  0  0  0  0  0
    5.0180    0.1960   19.4180 C   0  0  0  0  0  0  0  0  0  0  0  0
    6.3120    0.6410   17.6400 N   0  0  0  0  0  0  0  0  0  0  0  0
    5.6220   -4.7830   22.3560 C   0  0  0  0  0  0  0  0  0  0  0  0
   11.6860   -1.2200   22.2140 C   0  0  0  0  0  0  0  0  0  0  0  0
   10.6540    1.0220   22.5830 C   0  0  0  0  0  0  0  0  0  0  0  0
    5.3880    1.6850   17.7940 O   0  0  0  0  0  0  0  0  0  0  0  0
    4.5700    1.4690   18.8680 C   0  0  0  0  0  0  0  0  0  0  0  0
    6.4320   -5.6720   23.2400 C   0  0  0  0  0  0  0  0  0  0  0  0
    6.0830   -5.9620   21.8260 C   0  0  0  0  0  0  0  0  0  0  0  0
   13.0180   -0.5870   22.5760 C   0  0  0  0  0  0  0  0  0  0  0  0
   11.9530    1.6780   22.9420 C   0  0  0  0  0  0  0  0  0  0  0  0
    3.5350    2.4540   19.1930 C   0  0  0  0  0  0  0  0  0  0  0  0
   12.1080    3.0010   23.2790 O   0  0  0  0  0  0  0  0  0  0  0  0
   13.1610    0.7660   22.9120 C   0  0  0  0  0  0  0  0  0  0  0  0
   13.1250    3.8110   22.6710 C   0  0  1  0  0  0  0  0  0  0  0  0
   12.5820    4.8380   21.7220 N   0  0  0  0  0  0  0  0  0  0  0  0
   13.4870    4.9480   23.3200 C   0  0  0  0  0  0  0  0  0  0  0  0
   12.7480    5.8680   22.7810 C   0  0  1  0  0  0  0  0  0  0  0  0
   13.4620    7.0340   22.4290 O   0  0  0  0  0  0  0  0  0  0  0  0
  1  2  1  0
  2  3  1  0
  1  4  1  0
  2  5  1  0
  4  6  2  0
  4  7  1  0
  5  8  2  0
  5  9  1  0
  3 10  1  0
  7 11  1  0
 10 12  1  0
 10 13  2  0
  9 14  1  0
 11 15  2  0
 11 16  1  0
 13 17  1  0
 12 18  2  0
 17 18  1  0
 14 19  1  0
 14 20  1  0
 19 20  1  0
 15 21  1  0
 16 22  2  0
 18 23  1  0
 22 24  1  0
 21 25  2  0
 22 25  1  0
 26 24  1  1
 26 27  1  0
 26 28  1  0
 27 29  1  0
 28 29  1  0
 29 30  1  6
M  END
