x0397-x2581
     RDKit          3D

 39 44  0  0  0  0  0  0  0  0999 V2000
    8.2290   -2.0850   21.3250 C   0  0  2  0  0  0  0  0  0  0  0  0
    6.9750   -2.0610   20.4600 N   0  0  0  0  0  0  0  0  0  0  0  0
    7.0670   -1.4680   19.0930 C   0  0  0  0  0  0  0  0  0  0  0  0
    8.2410   -3.1260   22.4570 C   0  0  0  0  0  0  0  0  0  0  0  0
    8.8430   -0.7250   21.6820 C   0  0  0  0  0  0  0  0  0  0  0  0
    6.1060   -3.1510   20.6700 C   0  0  0  0  0  0  0  0  0  0  0  0
    9.6410   -3.2360   23.0770 C   0  0  0  0  0  0  0  0  0  0  0  0
   10.0530   -0.4220   22.5980 C   0  0  0  0  0  0  0  0  0  0  0  0
    8.2820    0.5910   21.1030 C   0  0  0  0  0  0  0  0  0  0  0  0
    5.6030   -3.7950   19.7270 O   0  0  0  0  0  0  0  0  0  0  0  0
    5.8120   -3.5030   21.9670 N   0  0  0  0  0  0  0  0  0  0  0  0
   10.1360   -2.1480   23.9400 C   0  0  0  0  0  0  0  0  0  0  0  0
   10.7980   -1.3430   23.2900 O   0  0  0  0  0  0  0  0  0  0  0  0
    6.1770   -0.2940   18.9040 C   0  0  0  0  0  0  0  0  0  0  0  0
    8.8420    1.9340   21.3670 N   0  0  0  0  0  0  0  0  0  0  0  0
   10.5300    1.0010   22.7880 C   0  0  0  0  0  0  0  0  0  0  0  0
    5.0450    0.1180   19.8890 C   0  0  0  0  0  0  0  0  0  0  0  0
    6.3740    0.4450   17.8190 N   0  0  0  0  0  0  0  0  0  0  0  0
    5.5600   -4.8590   22.3820 C   0  0  0  0  0  0  0  0  0  0  0  0
    9.9140    2.0710   22.1700 C   0  0  0  0  0  0  0  0  0  0  0  0
   10.3380    3.4420   22.2800 N   0  0  0  0  0  0  0  0  0  0  0  0
    5.4790    1.4300   17.8670 O   0  0  0  0  0  0  0  0  0  0  0  0
    4.7310    1.2980   18.9770 C   0  0  0  0  0  0  0  0  0  0  0  0
    6.2690   -5.4200   23.3290 C   0  0  0  0  0  0  0  0  0  0  0  0
    6.0790   -5.8730   21.7520 C   0  0  0  0  0  0  0  0  0  0  0  0
    3.7190    2.3490   19.1170 C   0  0  0  0  0  0  0  0  0  0  0  0
   11.0380    3.9930   23.1910 C   0  0  0  0  0  0  0  0  0  0  0  0
   11.0760    3.6280   24.3370 O   0  0  0  0  0  0  0  0  0  0  0  0
   11.8250    5.2240   22.7820 C   0  0  0  0  0  0  0  0  0  0  0  0
   11.0820    6.3870   23.3620 C   0  0  0  0  0  0  0  0  0  0  0  0
    9.8580    6.7630   22.8200 C   0  0  0  0  0  0  0  0  0  0  0  0
   11.6040    7.0820   24.4450 C   0  0  0  0  0  0  0  0  0  0  0  0
    9.1460    7.8250   23.3480 C   0  0  0  0  0  0  0  0  0  0  0  0
   10.8780    8.2490   25.0600 C   0  0  0  0  0  0  0  0  0  0  0  0
    9.6890    8.5900   24.5120 C   0  0  0  0  0  0  0  0  0  0  0  0
   11.4030    8.9590   26.1460 C   0  0  0  0  0  0  0  0  0  0  0  0
    8.9750    9.6740   25.0400 C   0  0  0  0  0  0  0  0  0  0  0  0
   10.7030   10.0380   26.6770 C   0  0  0  0  0  0  0  0  0  0  0  0
    9.4810   10.3980   26.1180 C   0  0  0  0  0  0  0  0  0  0  0  0
  1  2  1  1
  2  3  1  0
  1  4  1  0
  1  5  1  0
  2  6  1  0
  4  7  1  0
  5  8  2  0
  5  9  1  0
  6 10  2  0
  6 11  1  0
  7 12  1  0
  8 13  1  0
 12 13  1  0
  3 14  1  0
  9 15  2  0
  8 16  1  0
 14 17  1  0
 14 18  2  0
 11 19  1  0
 15 20  1  0
 16 20  2  0
 20 21  1  0
 18 22  1  0
 17 23  2  0
 22 23  1  0
 19 24  1  0
 19 25  1  0
 24 25  1  0
 23 26  1  0
 21 27  1  0
 27 28  2  0
 27 29  1  0
 29 30  1  0
 30 31  2  0
 30 32  1  0
 31 33  1  0
 32 34  2  0
 33 35  2  0
 34 35  1  0
 34 36  1  0
 35 37  1  0
 36 38  2  0
 37 39  2  0
 38 39  1  0
M  END
