x0395-x2540
     RDKit          3D

 34 38  0  0  0  0  0  0  0  0999 V2000
    6.9270   -1.4430   22.1470 N   0  0  0  0  0  0  0  0  0  0  0  0
    6.1650   -2.6870   21.6210 C   0  0  0  0  0  0  0  0  0  0  0  0
    4.8260   -3.0900   21.4760 O   0  0  0  0  0  0  0  0  0  0  0  0
    6.3720   -0.0630   21.6930 C   0  0  1  0  0  0  0  0  0  0  0  0
    8.4770   -1.5600   22.7520 C   0  0  2  0  0  0  0  0  0  0  0  0
    7.1130   -3.6780   21.1000 C   0  0  0  0  0  0  0  0  0  0  0  0
    7.5740    0.8670   21.9510 C   0  0  0  0  0  0  0  0  0  0  0  0
    5.9890    0.3490   20.2430 C   0  0  0  0  0  0  0  0  0  0  0  0
    8.5890   -2.5390   23.8080 C   0  0  1  0  0  0  0  0  0  0  0  0
    9.3020   -0.5200   23.4300 C   0  0  1  0  0  0  0  0  0  0  0  0
    7.0450   -3.4970   19.6040 C   0  0  0  0  0  0  0  0  0  0  0  0
    7.4080    1.8530   22.8630 N   0  0  0  0  0  0  0  0  0  0  0  0
    8.6020    0.8180   21.2920 O   0  0  0  0  0  0  0  0  0  0  0  0
    4.8860    1.1420   20.0870 C   0  0  0  0  0  0  0  0  0  0  0  0
    6.7290   -0.0180   19.1260 C   0  0  0  0  0  0  0  0  0  0  0  0
    9.9700   -2.5320   24.1570 O   0  0  0  0  0  0  0  0  0  0  0  0
   10.2860   -1.1840   24.3410 C   0  0  1  0  0  0  0  0  0  0  0  0
    7.9090   -2.1670   24.9340 N   0  0  0  0  0  0  0  0  0  0  0  0
    8.1950   -4.2940   23.7310 S   0  0  0  0  0  0  0  0  0  0  0  0
   10.2770    0.5670   22.7980 C   0  0  1  0  0  0  0  0  0  0  0  0
    8.5370    2.5570   23.3930 C   0  0  0  0  0  0  0  0  0  0  0  0
    9.8910    2.0660   22.7380 C   0  0  0  0  0  0  0  0  0  0  0  0
   11.8500   -1.0160   24.2220 C   0  0  2  0  0  0  0  0  0  0  0  0
    6.2840    0.4900   17.8130 N   0  0  0  0  0  0  0  0  0  0  0  0
    4.5290    1.5740   18.8660 C   0  0  0  0  0  0  0  0  0  0  0  0
    8.2990   -4.3490   25.4310 C   0  0  2  0  0  0  0  0  0  0  0  0
    8.2760   -3.0420   25.9150 N   0  0  0  0  0  0  0  0  0  0  0  0
   10.9510    0.2690   23.8930 C   0  0  0  0  0  0  0  0  0  0  0  0
    8.3260    2.3970   24.8510 C   0  0  0  0  0  0  0  0  0  0  0  0
    8.3900    3.9920   23.0160 C   0  0  0  0  0  0  0  0  0  0  0  0
   11.6460   -0.6540   22.9600 C   0  0  0  0  0  0  0  0  0  0  0  0
   12.7230   -2.2910   24.3600 C   0  0  0  0  0  0  0  0  0  0  0  0
    9.5290   -5.1200   25.9280 C   0  0  0  0  0  0  0  0  0  0  0  0
    5.1950    1.2830   17.7090 C   0  0  0  0  0  0  0  0  0  0  0  0
  1  2  1  0
  2  3  2  0
  1  4  1  0
  5  1  1  1
  2  6  1  0
  4  7  1  0
  4  8  1  6
  5  9  1  0
  5 10  1  0
  6 11  1  0
  7 12  1  0
  7 13  2  0
  8 14  2  0
  8 15  1  0
  9 16  1  0
 10 17  1  0
 17 16  1  6
  9 18  1  1
  9 19  1  0
 10 20  1  6
 12 21  1  0
 20 22  1  1
 21 22  1  0
 17 23  1  0
 15 24  2  0
 14 25  1  0
 19 26  1  0
 18 27  1  0
 26 27  1  0
 20 28  1  0
 21 29  1  0
 21 30  1  0
 23 31  1  0
 28 31  2  0
 23 32  1  6
 26 33  1  6
 24 34  1  0
 25 34  2  0
M  END
