x0426-x3110-x1493-x0786
     RDKit          3D

 61 65  0  0  0  0  0  0  0  0999 V2000
    7.9930    1.0480   23.2650 N   0  0  0  0  0  0  0  0  0  0  0  0
    8.8400    2.1580   23.5000 C   0  0  0  0  0  0  0  0  0  0  0  0
   10.2220    1.9540   23.5300 C   0  0  0  0  0  0  0  0  0  0  0  0
    7.7610    0.5410   21.9490 C   0  0  0  0  0  0  0  0  0  0  0  0
    8.5470    0.9230   21.0850 O   0  0  0  0  0  0  0  0  0  0  0  0
    6.6430   -0.3220   21.6230 C   0  0  2  0  0  0  0  0  0  0  0  0
    6.9980   -1.7730   21.6690 N   0  0  0  0  0  0  0  0  0  0  0  0
   10.9730    3.2660   23.4400 C   0  0  0  0  0  0  0  0  0  0  0  0
    6.0640    0.2290   20.3330 C   0  0  0  0  0  0  0  0  0  0  0  0
   11.9540    3.1890   22.5060 O   0  0  0  0  0  0  0  0  0  0  0  0
   10.7320    4.2580   24.1070 O   0  0  0  0  0  0  0  0  0  0  0  0
    6.1210   -2.9560   21.1820 C   0  0  0  0  0  0  0  0  0  0  0  0
    4.7430    0.9900   20.1080 C   0  0  0  0  0  0  0  0  0  0  0  0
    6.8060    0.0800   19.1240 C   0  0  0  0  0  0  0  0  0  0  0  0
    8.2470   -1.8410   22.4310 C   0  0  0  0  0  0  0  0  0  0  0  0
   12.3670    4.4490   21.9510 C   0  0  0  0  0  0  0  0  0  0  0  0
    4.8530   -2.9600   20.9290 O   0  0  0  0  0  0  0  0  0  0  0  0
    6.5090   -4.4470   21.0460 C   0  0  1  0  0  0  0  0  0  0  0  0
    3.7510    1.2700   21.2090 C   0  0  0  0  0  0  0  0  0  0  0  0
    6.5010    0.5200   17.8960 N   0  0  0  0  0  0  0  0  0  0  0  0
    4.4360    1.4510   18.8280 C   0  0  0  0  0  0  0  0  0  0  0  0
    9.4280   -1.6390   21.7020 C   0  0  0  0  0  0  0  0  0  0  0  0
    8.4610   -2.0590   23.8030 C   0  0  0  0  0  0  0  0  0  0  0  0
   13.3560    5.1430   22.8830 C   0  0  0  0  0  0  0  0  0  0  0  0
    7.8630   -3.7410   20.6790 C   0  0  0  0  0  0  0  0  0  0  0  0
    4.3000    2.0810   22.2100 C   0  0  0  0  0  0  0  0  0  0  0  0
    5.2570    1.2550   17.7390 C   0  0  0  0  0  0  0  0  0  0  0  0
   10.7090   -1.6600   22.2850 C   0  0  0  0  0  0  0  0  0  0  0  0
    9.8660   -2.0730   24.3990 C   0  0  0  0  0  0  0  0  0  0  0  0
    6.0220   -4.7750   22.4560 C   0  0  0  0  0  0  0  0  0  0  0  0
    3.1810    2.7150   22.9230 N   0  0  0  0  0  0  0  0  0  0  0  0
   10.9920   -1.8740   23.6370 C   0  0  0  0  0  0  0  0  0  0  0  0
    4.9500   -5.8230   22.7250 C   0  0  0  0  0  0  0  0  0  0  0  0
    6.5050   -4.1160   23.5670 C   0  0  0  0  0  0  0  0  0  0  0  0
   12.4080   -1.8660   24.2290 C   0  0  0  0  0  0  0  0  0  0  0  0
    2.5700    2.1190   24.0200 C   0  0  0  0  0  0  0  0  0  0  0  0
    4.5050   -6.0900   24.0000 C   0  0  0  0  0  0  0  0  0  0  0  0
    6.0490   -4.4000   24.8390 C   0  0  0  0  0  0  0  0  0  0  0  0
   12.6230   -0.5730   24.9650 C   0  0  0  0  0  0  0  0  0  0  0  0
   13.3880   -1.9350   23.1030 C   0  0  0  0  0  0  0  0  0  0  0  0
   12.7300   -3.0210   25.1870 C   0  0  0  0  0  0  0  0  0  0  0  0
    3.0280    0.9180   24.6170 O   0  0  0  0  0  0  0  0  0  0  0  0
    3.4610   -7.1160   24.2300 C   0  0  0  0  0  0  0  0  0  0  0  0
    1.3930    2.7880   24.6300 C   0  0  0  0  0  0  0  0  0  0  0  0
    5.0730   -5.3740   25.0680 C   0  0  0  0  0  0  0  0  0  0  0  0
    3.8190   -8.1260   24.8270 O   0  0  0  0  0  0  0  0  0  0  0  0
    4.7010   -5.6140   26.4840 C   0  0  0  0  0  0  0  0  0  0  0  0
    1.4990    4.0200   25.2960 C   0  0  0  0  0  0  0  0  0  0  0  0
   -0.0190    2.1600   24.5760 C   0  0  0  0  0  0  0  0  0  0  0  0
    2.1770   -6.9280   23.8270 N   0  0  0  0  0  0  0  0  0  0  0  0
    2.6960    4.6210   25.3800 F   0  0  0  0  0  0  0  0  0  0  0  0
    5.9070   -5.9930   27.1090 C   0  0  0  0  0  0  0  0  0  0  0  0
   -1.2230    2.8320   25.2060 C   0  0  0  0  0  0  0  0  0  0  0  0
    0.4190    4.6870   25.8970 C   0  0  0  0  0  0  0  0  0  0  0  0
    1.7430   -5.5810   23.4660 C   0  0  0  0  0  0  0  0  0  0  0  0
    1.1190   -7.8230   24.3370 C   0  0  0  0  0  0  0  0  0  0  0  0
    7.0010   -5.5910   26.7130 O   0  0  0  0  0  0  0  0  0  0  0  0
   -0.9990    4.1520   25.8970 C   0  0  0  0  0  0  0  0  0  0  0  0
    0.7250   -5.0230   24.5210 C   0  0  0  0  0  0  0  0  0  0  0  0
   -0.1610   -7.5680   23.9620 C   0  0  0  0  0  0  0  0  0  0  0  0
   -0.8380   -5.9570   24.5020 S   0  0  0  0  0  0  0  0  0  0  0  0
  1  2  1  0
  2  3  1  0
  1  4  1  0
  4  5  2  0
  6  4  1  6
  6  7  1  0
  3  8  1  0
  6  9  1  0
  8 10  1  0
  8 11  2  0
  7 12  1  0
  9 13  1  0
  9 14  2  0
  7 15  1  0
 10 16  1  0
 12 17  2  0
 12 18  1  0
 13 19  1  0
 14 20  1  0
 13 21  2  0
 15 22  2  0
 15 23  1  0
 16 24  1  0
 18 25  1  1
 19 26  1  0
 20 27  2  0
 21 27  1  0
 22 28  1  0
 23 29  2  0
 18 30  1  0
 26 31  1  0
 28 32  2  0
 29 32  1  0
 30 33  2  0
 30 34  1  0
 32 35  1  0
 31 36  1  0
 33 37  1  0
 34 38  2  0
 35 39  1  0
 35 40  1  0
 35 41  1  0
 36 42  2  0
 37 43  1  0
 36 44  1  0
 37 45  2  0
 38 45  1  0
 43 46  2  0
 45 47  1  0
 44 48  2  0
 44 49  1  0
 43 50  1  0
 48 51  1  0
 47 52  1  0
 49 53  2  0
 48 54  1  0
 50 55  1  0
 50 56  1  0
 52 57  2  0
 53 58  1  0
 54 58  2  0
 55 59  1  0
 56 60  1  0
 59 61  1  0
 60 61  1  0
M  END
