x0426-x3110-x3113-x0689
     RDKit          3D

 60 65  0  0  0  0  0  0  0  0999 V2000
    7.9150    1.1040   23.2450 N   0  0  0  0  0  0  0  0  0  0  0  0
    8.6250    2.2640   23.3550 C   0  0  0  0  0  0  0  0  0  0  0  0
   10.1400    1.9600   23.5240 C   0  0  0  0  0  0  0  0  0  0  0  0
    7.6270    0.5030   21.9240 C   0  0  0  0  0  0  0  0  0  0  0  0
    8.4040    0.7650   21.0110 O   0  0  0  0  0  0  0  0  0  0  0  0
    6.4550   -0.3310   21.6580 C   0  0  2  0  0  0  0  0  0  0  0  0
    6.6860   -1.7770   21.8680 C   0  0  2  0  0  0  0  0  0  0  0  0
   10.9950    3.2250   23.3600 C   0  0  0  0  0  0  0  0  0  0  0  0
    6.0430    0.2370   20.2910 C   0  0  0  0  0  0  0  0  0  0  0  0
   11.8780    3.1630   22.5170 O   0  0  0  0  0  0  0  0  0  0  0  0
   10.7850    4.4100   24.1240 O   0  0  0  0  0  0  0  0  0  0  0  0
    5.9500   -2.9690   20.8350 C   0  0  0  0  0  0  0  0  0  0  0  0
    5.8880   -2.3100   23.0550 C   0  0  0  0  0  0  0  0  0  0  0  0
    4.8080    1.1190   19.9920 C   0  0  0  0  0  0  0  0  0  0  0  0
    6.9160   -0.0450   19.0250 C   0  0  0  0  0  0  0  0  0  0  0  0
    8.4170   -1.8620   22.3990 C   0  0  0  0  0  0  0  0  0  0  0  0
   12.2750    4.4370   21.9800 C   0  0  0  0  0  0  0  0  0  0  0  0
    4.8580   -3.0450   20.2170 O   0  0  0  0  0  0  0  0  0  0  0  0
    6.5590   -4.3700   20.8810 C   0  0  1  0  0  0  0  0  0  0  0  0
    3.8170    1.5310   20.9030 C   0  0  0  0  0  0  0  0  0  0  0  0
    5.2330   -3.5460   22.8450 C   0  0  0  0  0  0  0  0  0  0  0  0
    6.5410    0.5210   17.7600 N   0  0  0  0  0  0  0  0  0  0  0  0
    4.5540    1.6030   18.7370 C   0  0  0  0  0  0  0  0  0  0  0  0
    9.6010   -2.2530   21.7660 C   0  0  0  0  0  0  0  0  0  0  0  0
    8.6040   -1.4170   23.7130 C   0  0  0  0  0  0  0  0  0  0  0  0
   13.3820    5.0680   22.8330 C   0  0  0  0  0  0  0  0  0  0  0  0
    7.8220   -3.5980   20.4680 C   0  0  0  0  0  0  0  0  0  0  0  0
    4.2420    1.9610   22.3270 C   0  0  0  0  0  0  0  0  0  0  0  0
    5.3520    1.3440   17.6740 C   0  0  0  0  0  0  0  0  0  0  0  0
   10.8410   -2.2170   22.3330 C   0  0  0  0  0  0  0  0  0  0  0  0
    9.8720   -1.3830   24.2690 C   0  0  0  0  0  0  0  0  0  0  0  0
    6.1780   -4.7380   22.3180 C   0  0  0  0  0  0  0  0  0  0  0  0
    3.3290    2.7620   23.1870 N   0  0  0  0  0  0  0  0  0  0  0  0
   11.0290   -1.7750   23.6120 C   0  0  0  0  0  0  0  0  0  0  0  0
    5.5070   -5.9450   22.3810 C   0  0  0  0  0  0  0  0  0  0  0  0
    7.3630   -4.8350   23.3040 C   0  0  0  0  0  0  0  0  0  0  0  0
   12.4200   -1.7150   24.2250 C   0  0  0  0  0  0  0  0  0  0  0  0
    2.4420    2.1430   24.1820 C   0  0  0  0  0  0  0  0  0  0  0  0
    4.8380   -6.2140   23.5640 C   0  0  0  0  0  0  0  0  0  0  0  0
    6.8840   -4.9940   24.5900 C   0  0  0  0  0  0  0  0  0  0  0  0
   12.5170   -0.5110   25.0990 C   0  0  0  0  0  0  0  0  0  0  0  0
   13.4160   -1.6880   23.0940 C   0  0  0  0  0  0  0  0  0  0  0  0
   12.8480   -2.9700   24.9340 C   0  0  0  0  0  0  0  0  0  0  0  0
    2.6470    0.8380   24.6880 O   0  0  0  0  0  0  0  0  0  0  0  0
    1.3030    2.9230   24.7330 C   0  0  0  0  0  0  0  0  0  0  0  0
    5.4660   -5.4320   24.6640 N   0  0  0  0  0  0  0  0  0  0  0  0
    4.6960   -5.2850   25.9780 S   0  0  0  0  0  0  0  0  0  0  0  0
    1.4840    4.0960   25.4530 C   0  0  0  0  0  0  0  0  0  0  0  0
   -0.1580    2.4860   24.5570 C   0  0  0  0  0  0  0  0  0  0  0  0
    2.7320    4.5390   25.6400 F   0  0  0  0  0  0  0  0  0  0  0  0
    3.8780   -6.4580   26.1820 O   0  0  0  0  0  0  0  0  0  0  0  0
    5.6160   -4.7910   26.9710 O   0  0  0  0  0  0  0  0  0  0  0  0
   -1.2830    3.3130   25.1590 C   0  0  0  0  0  0  0  0  0  0  0  0
    0.4510    4.8850   26.0220 C   0  0  0  0  0  0  0  0  0  0  0  0
    3.5560   -4.0240   25.8320 C   0  0  0  0  0  0  0  0  0  0  0  0
   -0.9270    4.5870   25.9360 C   0  0  0  0  0  0  0  0  0  0  0  0
    4.0120   -2.3930   26.2070 S   0  0  0  0  0  0  0  0  0  0  0  0
    2.2670   -4.1660   25.4450 C   0  0  0  0  0  0  0  0  0  0  0  0
    1.5810   -2.9700   25.4410 C   0  0  0  0  0  0  0  0  0  0  0  0
    2.4420   -1.7970   25.8660 C   0  0  0  0  0  0  0  0  0  0  0  0
  1  2  1  0
  2  3  1  0
  1  4  1  0
  4  5  2  0
  6  4  1  6
  6  7  1  0
  3  8  1  0
  6  9  1  0
  8 10  1  0
  8 11  2  0
  7 12  1  0
  7 13  1  0
  9 14  1  0
  9 15  2  0
  7 16  1  1
 10 17  1  0
 12 18  2  0
 12 19  1  0
 14 20  1  0
 13 21  1  0
 15 22  1  0
 14 23  2  0
 16 24  2  0
 16 25  1  0
 17 26  1  0
 19 27  1  1
 20 28  1  0
 22 29  2  0
 23 29  1  0
 24 30  1  0
 25 31  2  0
 19 32  1  0
 32 21  1  0
 28 33  1  0
 30 34  2  0
 31 34  1  0
 32 35  1  0
 32 36  1  0
 34 37  1  0
 33 38  1  0
 35 39  1  0
 36 40  1  0
 37 41  1  0
 37 42  1  0
 37 43  1  0
 38 44  2  0
 38 45  1  0
 39 46  1  0
 40 46  1  0
 46 47  1  0
 45 48  2  0
 45 49  1  0
 48 50  1  0
 47 51  2  0
 47 52  2  0
 49 53  2  0
 48 54  1  0
 47 55  1  0
 53 56  1  0
 54 56  2  0
 55 57  1  0
 55 58  2  0
 58 59  1  0
 57 60  1  0
 59 60  2  0
M  END
