x0426-x3117-x2703-x0769
     RDKit          3D

 63 69  0  0  0  0  0  0  0  0999 V2000
    6.7270   -1.5690   22.0250 C   0  0  1  0  0  0  0  0  0  0  0  0
    5.8570   -2.4700   21.0690 C   0  0  0  0  0  0  0  0  0  0  0  0
    4.7770   -3.0500   21.3690 O   0  0  0  0  0  0  0  0  0  0  0  0
    6.3670   -0.0940   21.8060 C   0  0  1  0  0  0  0  0  0  0  0  0
    6.2330   -2.4400   23.0730 C   0  0  0  0  0  0  0  0  0  0  0  0
    8.2490   -1.6910   22.4440 C   0  0  0  0  0  0  0  0  0  0  0  0
    6.1860   -2.7680   19.8100 C   0  0  0  0  0  0  0  0  0  0  0  0
    7.4920    0.9610   22.0670 C   0  0  0  0  0  0  0  0  0  0  0  0
    5.8630    0.3710   20.4490 C   0  0  0  0  0  0  0  0  0  0  0  0
    8.6040   -1.4360   23.7660 C   0  0  0  0  0  0  0  0  0  0  0  0
    9.3740   -2.0520   21.5990 C   0  0  0  0  0  0  0  0  0  0  0  0
    6.9180   -3.8540   22.8050 C   0  0  2  0  0  0  0  0  0  0  0  0
    6.6100   -4.1680   20.0400 C   0  0  0  0  0  0  0  0  0  0  0  0
    7.4140    1.9460   22.9820 N   0  0  0  0  0  0  0  0  0  0  0  0
    8.5540    0.7850   21.2300 O   0  0  0  0  0  0  0  0  0  0  0  0
    4.6260    0.9600   20.2040 C   0  0  0  0  0  0  0  0  0  0  0  0
    6.6860    0.2110   19.3500 C   0  0  0  0  0  0  0  0  0  0  0  0
   10.6670   -2.1480   21.9940 N   0  0  0  0  0  0  0  0  0  0  0  0
    9.9260   -1.5390   24.1580 C   0  0  0  0  0  0  0  0  0  0  0  0
    6.4740   -4.6250   21.5410 N   0  0  0  0  0  0  0  0  0  0  0  0
    6.7230   -4.6450   24.1030 C   0  0  0  0  0  0  0  0  0  0  0  0
    3.6370    1.1920   21.1740 C   0  0  0  0  0  0  0  0  0  0  0  0
    6.4480    0.5590   18.0770 N   0  0  0  0  0  0  0  0  0  0  0  0
    4.3040    1.3660   18.9110 C   0  0  0  0  0  0  0  0  0  0  0  0
   10.9630   -1.8940   23.2830 C   0  0  0  0  0  0  0  0  0  0  0  0
    8.1100    3.1930   22.9870 C   0  0  0  0  0  0  0  0  0  0  0  0
    5.8560   -5.9490   21.8780 C   0  0  0  0  0  0  0  0  0  0  0  0
    5.3550   -5.1440   24.2240 N   0  0  0  0  0  0  0  0  0  0  0  0
   12.4000   -2.0030   23.7480 C   0  0  0  0  0  0  0  0  0  0  0  0
    4.1210    1.9870   22.4130 C   0  0  0  0  0  0  0  0  0  0  0  0
    4.7280   -5.4070   25.8010 S   0  0  0  0  0  0  0  0  0  0  0  0
    5.1600    1.2040   17.8220 C   0  0  0  0  0  0  0  0  0  0  0  0
    9.3760    3.1930   23.5240 C   0  0  0  0  0  0  0  0  0  0  0  0
    7.5060    4.4800   22.4360 C   0  0  0  0  0  0  0  0  0  0  0  0
    4.9030   -5.9930   23.1080 C   0  0  0  0  0  0  0  0  0  0  0  0
   10.0480    1.9560   24.0790 C   0  0  0  0  0  0  0  0  0  0  0  0
    6.1480    4.6320   21.8150 C   0  0  0  0  0  0  0  0  0  0  0  0
   12.5320   -2.6860   24.9180 C   0  0  0  0  0  0  0  0  0  0  0  0
   12.7650   -1.0150   24.8300 C   0  0  0  0  0  0  0  0  0  0  0  0
   13.3660   -2.0990   22.7630 C   0  0  0  0  0  0  0  0  0  0  0  0
    3.1560    2.6490   23.1640 N   0  0  0  0  0  0  0  0  0  0  0  0
    5.8390   -5.2180   26.6990 O   0  0  0  0  0  0  0  0  0  0  0  0
    3.8360   -6.5130   26.0690 O   0  0  0  0  0  0  0  0  0  0  0  0
   10.0810    4.3850   23.5630 C   0  0  0  0  0  0  0  0  0  0  0  0
    8.2990    5.6460   22.5190 C   0  0  0  0  0  0  0  0  0  0  0  0
    3.7350   -3.9680   26.0120 C   0  0  0  0  0  0  0  0  0  0  0  0
    9.1140    1.2850   25.0890 C   0  0  0  0  0  0  0  0  0  0  0  0
    2.2000    1.9170   23.7930 C   0  0  0  0  0  0  0  0  0  0  0  0
    9.5750    5.5750   23.0850 C   0  0  0  0  0  0  0  0  0  0  0  0
    4.3100   -2.6970   26.1010 C   0  0  0  0  0  0  0  0  0  0  0  0
    2.1860   -4.1020   26.0940 C   0  0  0  0  0  0  0  0  0  0  0  0
    2.1460    0.5610   23.7550 O   0  0  0  0  0  0  0  0  0  0  0  0
    5.6340   -2.5330   26.0480 F   0  0  0  0  0  0  0  0  0  0  0  0
    1.1630    2.6620   24.5570 C   0  0  0  0  0  0  0  0  0  0  0  0
    1.3350   -2.8110   26.2610 C   0  0  0  0  0  0  0  0  0  0  0  0
    3.5270   -1.5370   26.2520 C   0  0  0  0  0  0  0  0  0  0  0  0
    1.4910    3.8090   25.2200 C   0  0  0  0  0  0  0  0  0  0  0  0
   -0.1080    2.1120   24.5350 C   0  0  0  0  0  0  0  0  0  0  0  0
    2.0060   -1.5900   26.3310 C   0  0  0  0  0  0  0  0  0  0  0  0
    2.7470    4.2780   25.1960 F   0  0  0  0  0  0  0  0  0  0  0  0
   -1.1380    2.7150   25.2010 C   0  0  0  0  0  0  0  0  0  0  0  0
    0.5450    4.5410   25.9490 C   0  0  0  0  0  0  0  0  0  0  0  0
   -0.8880    4.0360   25.9970 C   0  0  0  0  0  0  0  0  0  0  0  0
  1  2  1  0
  2  3  2  0
  1  4  1  0
  1  5  1  0
  1  6  1  6
  2  7  1  0
  4  8  1  6
  4  9  1  0
  6 10  2  0
  6 11  1  0
 12  5  1  1
  7 13  1  0
  8 14  1  0
  8 15  2  0
  9 16  1  0
  9 17  2  0
 11 18  2  0
 10 19  1  0
 12 20  1  0
 13 20  1  0
 12 21  1  0
 16 22  1  0
 17 23  1  0
 16 24  2  0
 18 25  1  0
 19 25  2  0
 14 26  1  0
 20 27  1  0
 21 28  1  0
 25 29  1  0
 22 30  1  0
 28 31  1  0
 23 32  2  0
 24 32  1  0
 26 33  2  0
 26 34  1  0
 27 35  1  0
 28 35  1  0
 33 36  1  0
 34 37  1  0
 29 38  1  0
 29 39  1  0
 29 40  1  0
 30 41  1  0
 31 42  2  0
 31 43  2  0
 33 44  1  0
 34 45  2  0
 31 46  1  0
 36 47  1  0
 41 48  1  0
 44 49  2  0
 45 49  1  0
 46 50  2  0
 46 51  1  0
 48 52  2  0
 50 53  1  0
 48 54  1  0
 51 55  2  0
 50 56  1  0
 54 57  2  0
 54 58  1  0
 55 59  1  0
 56 59  2  0
 57 60  1  0
 58 61  2  0
 57 62  1  0
 61 63  1  0
 62 63  2  0
M  END
