x0426-x3110-x0786-x0946
     RDKit          3D

 64 69  0  0  0  0  0  0  0  0999 V2000
    8.0070    1.0940   23.2760 N   0  0  0  0  0  0  0  0  0  0  0  0
    8.5820    2.4040   23.6940 C   0  0  0  0  0  0  0  0  0  0  0  0
   10.0800    2.4890   23.4170 C   0  0  0  0  0  0  0  0  0  0  0  0
    7.7590    0.8350   21.8800 C   0  0  0  0  0  0  0  0  0  0  0  0
    8.4640    1.4120   21.0200 O   0  0  0  0  0  0  0  0  0  0  0  0
    6.5530   -0.1790   21.5770 C   0  0  2  0  0  0  0  0  0  0  0  0
    6.9110   -1.6430   21.7530 N   0  0  0  0  0  0  0  0  0  0  0  0
    6.0260    0.3310   20.2470 C   0  0  0  0  0  0  0  0  0  0  0  0
   10.9000    3.6470   23.3750 C   0  0  0  0  0  0  0  0  0  0  0  0
   10.8000    1.1730   23.1360 C   0  0  0  0  0  0  0  0  0  0  0  0
   10.3660    5.0740   23.6310 C   0  0  0  0  0  0  0  0  0  0  0  0
    6.0970   -2.8540   21.3720 C   0  0  0  0  0  0  0  0  0  0  0  0
    4.7680    0.9660   20.1540 C   0  0  0  0  0  0  0  0  0  0  0  0
    6.7820    0.1850   19.1030 C   0  0  0  0  0  0  0  0  0  0  0  0
    8.2110   -1.7130   22.4150 C   0  0  0  0  0  0  0  0  0  0  0  0
   12.1470    1.1300   22.8560 C   0  0  0  0  0  0  0  0  0  0  0  0
   12.2620    3.5050   23.0810 C   0  0  0  0  0  0  0  0  0  0  0  0
   13.2440    4.6550   23.0000 C   0  0  0  0  0  0  0  0  0  0  0  0
    4.8300   -2.9500   21.0270 O   0  0  0  0  0  0  0  0  0  0  0  0
    6.5920   -4.2700   21.4140 C   0  0  1  0  0  0  0  0  0  0  0  0
    3.8720    1.1510   21.2360 C   0  0  0  0  0  0  0  0  0  0  0  0
    9.2510    5.3480   22.9140 N   0  0  0  0  0  0  0  0  0  0  0  0
   10.0750    5.3510   24.7900 O   0  0  0  0  0  0  0  0  0  0  0  0
   11.1780    5.9600   23.3690 O   0  0  0  0  0  0  0  0  0  0  0  0
    6.4160    0.6260   17.8940 N   0  0  0  0  0  0  0  0  0  0  0  0
    4.3880    1.4310   18.9010 C   0  0  0  0  0  0  0  0  0  0  0  0
    9.2980   -1.7750   21.5890 C   0  0  0  0  0  0  0  0  0  0  0  0
    8.5000   -1.6960   23.7930 C   0  0  0  0  0  0  0  0  0  0  0  0
   12.7830    2.2920   22.8480 C   0  0  0  0  0  0  0  0  0  0  0  0
   13.0950    5.3240   21.6850 C   0  0  0  0  0  0  0  0  0  0  0  0
    8.1080   -4.5100   21.1260 C   0  0  0  0  0  0  0  0  0  0  0  0
    4.2900    2.1360   22.1490 C   0  0  0  0  0  0  0  0  0  0  0  0
    5.2300    1.2480   17.8170 C   0  0  0  0  0  0  0  0  0  0  0  0
   10.7510   -1.8310   22.0980 C   0  0  0  0  0  0  0  0  0  0  0  0
    9.8480   -1.7410   24.2940 C   0  0  0  0  0  0  0  0  0  0  0  0
    5.9580   -4.6380   22.7660 C   0  0  0  0  0  0  0  0  0  0  0  0
    3.1670    2.6760   22.7630 N   0  0  0  0  0  0  0  0  0  0  0  0
   10.9540   -1.8080   23.4530 C   0  0  0  0  0  0  0  0  0  0  0  0
    5.0370   -5.6700   22.8670 C   0  0  0  0  0  0  0  0  0  0  0  0
    6.2720   -3.9030   23.9250 C   0  0  0  0  0  0  0  0  0  0  0  0
   12.3330   -1.8410   24.1770 C   0  0  0  0  0  0  0  0  0  0  0  0
    2.5790    2.1490   23.8770 C   0  0  0  0  0  0  0  0  0  0  0  0
    4.4380   -5.9440   24.1120 C   0  0  0  0  0  0  0  0  0  0  0  0
    5.6880   -4.1730   25.1510 C   0  0  0  0  0  0  0  0  0  0  0  0
   12.5810   -0.7450   24.9560 C   0  0  0  0  0  0  0  0  0  0  0  0
   13.4280   -1.8530   23.1060 C   0  0  0  0  0  0  0  0  0  0  0  0
   12.5310   -3.0100   24.9350 C   0  0  0  0  0  0  0  0  0  0  0  0
    3.0820    1.0070   24.4450 O   0  0  0  0  0  0  0  0  0  0  0  0
    3.4340   -7.0250   24.2710 C   0  0  0  0  0  0  0  0  0  0  0  0
    1.4130    2.7840   24.5340 C   0  0  0  0  0  0  0  0  0  0  0  0
    4.7640   -5.1970   25.2490 C   0  0  0  0  0  0  0  0  0  0  0  0
    3.8210   -8.0550   24.8220 O   0  0  0  0  0  0  0  0  0  0  0  0
    1.6210    3.9690   25.2120 C   0  0  0  0  0  0  0  0  0  0  0  0
   -0.0250    2.1780   24.5020 C   0  0  0  0  0  0  0  0  0  0  0  0
    2.1880   -6.8410   23.8400 N   0  0  0  0  0  0  0  0  0  0  0  0
    2.8420    4.5210   25.2680 F   0  0  0  0  0  0  0  0  0  0  0  0
   -1.0940    2.8110   25.1450 C   0  0  0  0  0  0  0  0  0  0  0  0
    0.4670    4.6750   25.9200 C   0  0  0  0  0  0  0  0  0  0  0  0
    1.6310   -5.5230   23.5200 C   0  0  0  0  0  0  0  0  0  0  0  0
    1.2460   -7.9670   23.8920 C   0  0  0  0  0  0  0  0  0  0  0  0
   -0.8590    4.0210   25.8330 C   0  0  0  0  0  0  0  0  0  0  0  0
    0.6610   -5.0640   24.4220 C   0  0  0  0  0  0  0  0  0  0  0  0
    0.0180   -7.6770   24.7490 C   0  0  0  0  0  0  0  0  0  0  0  0
   -0.8240   -6.1010   24.3530 S   0  0  0  0  0  0  0  0  0  0  0  0
  1  2  1  0
  2  3  1  0
  1  4  1  0
  4  5  2  0
  6  4  1  6
  6  7  1  0
  6  8  1  0
  3  9  2  0
  3 10  1  0
  9 11  1  0
  7 12  1  0
  8 13  1  0
  8 14  2  0
  7 15  1  0
 10 16  2  0
  9 17  1  0
 17 18  1  0
 12 19  2  0
 12 20  1  0
 13 21  1  0
 11 22  1  0
 11 23  1  0
 11 24  1  0
 14 25  1  0
 13 26  2  0
 15 27  2  0
 15 28  1  0
 16 29  1  0
 17 29  2  0
 18 30  1  0
 20 31  1  1
 21 32  1  0
 25 33  2  0
 26 33  1  0
 27 34  1  0
 28 35  2  0
 20 36  1  0
 32 37  1  0
 34 38  2  0
 35 38  1  0
 36 39  2  0
 36 40  1  0
 38 41  1  0
 37 42  1  0
 39 43  1  0
 40 44  2  0
 41 45  1  0
 41 46  1  0
 41 47  1  0
 42 48  2  0
 43 49  1  0
 42 50  1  0
 43 51  2  0
 44 51  1  0
 49 52  2  0
 50 53  2  0
 50 54  1  0
 49 55  1  0
 53 56  1  0
 54 57  2  0
 53 58  1  0
 55 59  1  0
 55 60  1  0
 57 61  1  0
 58 61  2  0
 59 62  1  0
 60 63  1  0
 62 64  1  0
 63 64  1  0
M  END
