x0426-x3117-x2608-x2754
     RDKit          3D

 64 68  0  0  0  0  0  0  0  0999 V2000
    6.6930   -1.9080   22.0220 N   0  0  0  0  0  0  0  0  0  0  0  0
    5.9080   -3.0310   21.6680 C   0  0  0  0  0  0  0  0  0  0  0  0
    4.8600   -3.0210   21.0020 O   0  0  0  0  0  0  0  0  0  0  0  0
    8.0560   -1.9880   22.4690 C   0  0  0  0  0  0  0  0  0  0  0  0
    8.4550   -1.5170   23.7560 C   0  0  0  0  0  0  0  0  0  0  0  0
    6.3740   -4.3470   22.1620 C   0  0  2  0  0  0  0  0  0  0  0  0
    7.6250   -4.9340   21.3390 C   0  0  0  0  0  0  0  0  0  0  0  0
    9.7340   -1.4210   24.2590 C   0  0  0  0  0  0  0  0  0  0  0  0
    5.3190   -5.4590   22.2060 C   0  0  0  0  0  0  0  0  0  0  0  0
    6.3650   -4.1530   23.7850 C   0  0  1  0  0  0  0  0  0  0  0  0
    5.2060   -3.4270   24.7010 C   0  0  2  0  0  0  0  0  0  0  0  0
   10.8640   -1.7440   23.5890 C   0  0  1  0  0  0  0  0  0  0  0  0
    6.5330   -5.4820   24.1530 C   0  0  0  0  0  0  0  0  0  0  0  0
    5.4310   -6.1070   23.3570 C   0  0  0  0  0  0  0  0  0  0  0  0
   12.1520   -1.9780   24.2670 C   0  0  0  0  0  0  0  0  0  0  0  0
    4.5860   -2.4750   24.1440 O   0  0  0  0  0  0  0  0  0  0  0  0
    5.6480   -3.0510   25.9850 N   0  0  0  0  0  0  0  0  0  0  0  0
   10.6120   -2.8410   22.7490 C   0  0  0  0  0  0  0  0  0  0  0  0
   12.4500   -0.6460   24.8030 C   0  0  0  0  0  0  0  0  0  0  0  0
   13.3560   -2.2980   23.3700 C   0  0  0  0  0  0  0  0  0  0  0  0
   12.0680   -2.8350   25.2490 C   0  0  0  0  0  0  0  0  0  0  0  0
    4.7510   -2.6850   26.9390 C   0  0  0  0  0  0  0  0  0  0  0  0
    4.9320   -1.1650   24.4620 C   0  0  0  0  0  0  0  0  0  0  0  0
   10.5490   -2.4220   21.4790 C   0  0  0  0  0  0  0  0  0  0  0  0
    6.8040   -3.6640   26.5220 C   0  0  0  0  0  0  0  0  0  0  0  0
    3.4120   -0.8130   24.5440 C   0  0  0  0  0  0  0  0  0  0  0  0
   12.3900    0.4790   24.1500 C   0  0  0  0  0  0  0  0  0  0  0  0
    6.7160   -4.7310   27.4170 C   0  0  0  0  0  0  0  0  0  0  0  0
    8.1850   -3.1910   26.1350 C   0  0  0  0  0  0  0  0  0  0  0  0
    3.0770    0.5580   24.9000 O   0  0  0  0  0  0  0  0  0  0  0  0
   12.0890    0.8950   22.8620 C   0  0  2  0  0  0  0  0  0  0  0  0
    7.8780   -5.4830   28.0560 C   0  0  0  0  0  0  0  0  0  0  0  0
    9.4240   -3.8750   26.7070 C   0  0  0  0  0  0  0  0  0  0  0  0
    2.4690    1.4850   23.9840 C   0  0  2  0  0  0  0  0  0  0  0  0
   12.9820    2.0870   22.6870 C   0  0  0  0  0  0  0  0  0  0  0  0
   10.4410    1.4810   23.0000 S   0  0  2  0  0  0  0  0  0  0  0  0
    9.2870   -5.0270   27.6780 C   0  0  0  0  0  0  0  0  0  0  0  0
    9.5560    0.9290   22.0170 O   0  0  0  0  0  0  0  0  0  0  0  0
    3.2860    2.3260   23.3290 N   0  0  0  0  0  0  0  0  0  0  0  0
    1.3710    2.3130   24.5980 C   0  0  0  0  0  0  0  0  0  0  0  0
   10.4750    3.0610   22.2640 C   0  0  0  0  0  0  0  0  0  0  0  0
    8.2310    1.4340   22.1630 C   0  0  1  0  0  0  0  0  0  0  0  0
    4.0270    1.6020   22.4360 C   0  0  0  0  0  0  0  0  0  0  0  0
    1.5850    3.6600   25.2250 C   0  0  0  0  0  0  0  0  0  0  0  0
    0.0170    1.8600   24.6210 C   0  0  0  0  0  0  0  0  0  0  0  0
    7.9840    2.5550   21.9380 N   0  0  0  0  0  0  0  0  0  0  0  0
    7.3290    0.5040   21.3950 C   0  0  0  0  0  0  0  0  0  0  0  0
    3.5820    1.5890   21.1190 C   0  0  0  0  0  0  0  0  0  0  0  0
    2.8010    4.2250   25.2790 F   0  0  0  0  0  0  0  0  0  0  0  0
   -1.0050    2.6080   25.1790 C   0  0  0  0  0  0  0  0  0  0  0  0
    0.5130    4.3690   25.7730 C   0  0  0  0  0  0  0  0  0  0  0  0
    4.2410    0.8870   19.9500 C   0  0  0  0  0  0  0  0  0  0  0  0
    6.8670    1.0370   20.0730 C   0  0  0  0  0  0  0  0  0  0  0  0
    7.7850    3.5560   22.9760 C   0  0  0  0  0  0  0  0  0  0  0  0
   -0.7810    3.8420   25.7510 C   0  0  0  0  0  0  0  0  0  0  0  0
    4.6510    1.6570   18.7230 C   0  0  0  0  0  0  0  0  0  0  0  0
    6.8720    0.3280   18.9530 C   0  0  0  0  0  0  0  0  0  0  0  0
    8.4880    3.4270   24.3150 C   0  0  0  0  0  0  0  0  0  0  0  0
    7.7510    4.8300   22.3830 C   0  0  0  0  0  0  0  0  0  0  0  0
    6.4750    0.7420   17.7570 N   0  0  0  0  0  0  0  0  0  0  0  0
    5.2370    1.1340   17.6570 C   0  0  0  0  0  0  0  0  0  0  0  0
    9.2900    4.7420   24.6800 C   0  0  0  0  0  0  0  0  0  0  0  0
    8.7850    5.7030   22.6990 C   0  0  0  0  0  0  0  0  0  0  0  0
    8.7960    5.8890   24.0360 O   0  0  0  0  0  0  0  0  0  0  0  0
  1  2  1  0
  2  3  2  0
  1  4  1  0
  4  5  1  0
  2  6  1  0
  6  7  1  6
  5  8  2  0
  6  9  1  0
  6 10  1  0
 10 11  1  0
  8 12  1  0
 10 13  1  1
  9 14  2  0
 13 14  1  0
 12 15  1  0
 11 16  1  0
 11 17  1  1
 12 18  1  1
 15 19  1  0
 15 20  1  0
 15 21  1  0
 17 22  1  0
 16 23  1  0
 18 24  1  0
 17 25  1  0
 23 26  2  0
 19 27  2  0
 25 28  2  0
 25 29  1  0
 26 30  1  0
 27 31  1  0
 28 32  1  0
 29 33  2  0
 30 34  1  0
 31 35  1  1
 31 36  1  0
 32 37  2  0
 33 37  1  0
 36 38  1  0
 34 39  1  0
 34 40  1  1
 36 41  1  6
 38 42  1  0
 39 43  1  0
 40 44  2  0
 40 45  1  0
 42 46  1  6
 42 47  1  0
 43 48  2  0
 44 49  1  0
 45 50  2  0
 44 51  1  0
 48 52  1  0
 47 53  1  0
 46 54  1  0
 50 55  1  0
 51 55  2  0
 52 56  2  0
 53 57  2  0
 54 58  1  0
 54 59  1  0
 57 60  1  0
 56 61  1  0
 60 61  1  0
 58 62  1  0
 59 63  1  0
 62 64  1  0
 63 64  1  0
M  END
