x0426-x0736-x2562
     RDKit          3D

 50 55  0  0  0  0  0  0  0  0999 V2000
    8.4430   -0.0450   21.2750 C   0  0  0  0  0  0  0  0  0  0  0  0
    7.0540   -0.6420   21.2280 C   0  0  1  0  0  0  0  0  0  0  0  0
    6.2940   -0.4780   19.9280 C   0  0  2  0  0  0  0  0  0  0  0  0
    8.4850    1.3930   21.0420 O   0  0  0  0  0  0  0  0  0  0  0  0
    9.4710   -0.9260   21.5340 N   0  0  0  0  0  0  0  0  0  0  0  0
   10.5980   -0.3120   22.0870 C   0  0  0  0  0  0  0  0  0  0  0  0
    6.8870   -2.0380   21.9670 C   0  0  1  0  0  0  0  0  0  0  0  0
    6.9830    0.2760   18.8180 C   0  0  0  0  0  0  0  0  0  0  0  0
    4.9970   -0.0710   20.0670 C   0  0  0  0  0  0  0  0  0  0  0  0
   11.7390   -1.1080   22.1540 C   0  0  0  0  0  0  0  0  0  0  0  0
   10.6690    1.0250   22.5440 C   0  0  0  0  0  0  0  0  0  0  0  0
    6.6270   -3.2130   21.3510 N   0  0  0  0  0  0  0  0  0  0  0  0
    7.9850   -2.3110   22.7580 C   0  0  0  0  0  0  0  0  0  0  0  0
    6.3750   -3.4570   20.0020 C   0  0  0  0  0  0  0  0  0  0  0  0
    4.8210    1.3010   19.6830 N   0  0  0  0  0  0  0  0  0  0  0  0
    6.1560    1.0360   17.7870 N   0  0  0  0  0  0  0  0  0  0  0  0
   12.9050   -0.6050   22.6220 C   0  0  0  0  0  0  0  0  0  0  0  0
   11.8630    1.5620   23.0210 C   0  0  0  0  0  0  0  0  0  0  0  0
    7.6970   -3.1110   23.7870 N   0  0  0  0  0  0  0  0  0  0  0  0
    6.2700   -4.3130   22.2630 C   0  0  0  0  0  0  0  0  0  0  0  0
   11.9800    2.8730   23.4450 O   0  0  0  0  0  0  0  0  0  0  0  0
    3.9170    1.8550   20.4650 C   0  0  0  0  0  0  0  0  0  0  0  0
    7.4150   -3.0470   18.9680 C   0  0  0  0  0  0  0  0  0  0  0  0
    5.3460   -4.0480   19.6770 O   0  0  0  0  0  0  0  0  0  0  0  0
    7.2360   -2.5200   24.9600 C   0  0  0  0  0  0  0  0  0  0  0  0
    4.8130    1.3900   18.2840 C   0  0  0  0  0  0  0  0  0  0  0  0
   12.9690    0.7140   23.0390 C   0  0  0  0  0  0  0  0  0  0  0  0
    7.0760   -4.3980   23.4250 C   0  0  0  0  0  0  0  0  0  0  0  0
    4.0870    1.8740   21.9970 C   0  0  0  0  0  0  0  0  0  0  0  0
    6.0030   -2.9110   25.5490 O   0  0  0  0  0  0  0  0  0  0  0  0
   12.9090    3.6350   22.7540 C   0  0  1  0  0  0  0  0  0  0  0  0
    8.0920   -1.3840   25.5710 C   0  0  0  0  0  0  0  0  0  0  0  0
    3.0690    2.4890   22.7180 N   0  0  0  0  0  0  0  0  0  0  0  0
   12.2490    4.5550   21.8100 N   0  0  0  0  0  0  0  0  0  0  0  0
   13.5790    4.7610   23.4090 C   0  0  0  0  0  0  0  0  0  0  0  0
    8.5520   -0.1720   24.9690 O   0  0  0  0  0  0  0  0  0  0  0  0
    8.5240   -1.4560   26.8740 C   0  0  0  0  0  0  0  0  0  0  0  0
    2.2610    1.7680   23.6020 C   0  0  0  0  0  0  0  0  0  0  0  0
   13.2870    5.6570   22.2210 C   0  0  2  0  0  0  0  0  0  0  0  0
    9.2430   -0.3390   27.1020 C   0  0  0  0  0  0  0  0  0  0  0  0
    9.2630    0.4380   25.9570 C   0  0  0  0  0  0  0  0  0  0  0  0
   13.0170    6.9740   22.6880 O   0  0  0  0  0  0  0  0  0  0  0  0
    2.3130    0.5460   23.7470 O   0  0  0  0  0  0  0  0  0  0  0  0
    1.2250    2.5950   24.4470 C   0  0  0  0  0  0  0  0  0  0  0  0
    1.5150    3.7670   25.1580 C   0  0  0  0  0  0  0  0  0  0  0  0
   -0.0970    2.1790   24.5320 C   0  0  0  0  0  0  0  0  0  0  0  0
    2.7570    4.2700   25.1550 F   0  0  0  0  0  0  0  0  0  0  0  0
   -1.1030    2.8200   25.2420 C   0  0  0  0  0  0  0  0  0  0  0  0
    0.5260    4.4360   25.8810 C   0  0  0  0  0  0  0  0  0  0  0  0
   -0.7980    3.9760   25.9350 C   0  0  0  0  0  0  0  0  0  0  0  0
  2  1  1  6
  2  3  1  0
  1  4  2  0
  1  5  1  0
  5  6  1  0
  2  7  1  0
  3  8  1  6
  3  9  1  0
  6 10  2  0
  6 11  1  0
  7 12  1  0
  7 13  1  6
 12 14  1  0
  9 15  1  0
  8 16  1  0
 10 17  1  0
 11 18  2  0
 13 19  1  0
 12 20  1  0
 18 21  1  0
 15 22  1  0
 14 23  1  0
 14 24  2  0
 19 25  1  0
 15 26  1  0
 16 26  1  0
 17 27  2  0
 18 27  1  0
 19 28  1  0
 20 28  1  0
 22 29  1  0
 25 30  2  0
 31 21  1  1
 25 32  1  0
 29 33  1  0
 31 34  1  0
 31 35  1  0
 32 36  1  0
 32 37  2  0
 33 38  1  0
 34 39  1  0
 35 39  1  0
 37 40  1  0
 36 41  1  0
 40 41  2  0
 39 42  1  1
 38 43  2  0
 38 44  1  0
 44 45  2  0
 44 46  1  0
 45 47  1  0
 46 48  2  0
 45 49  1  0
 48 50  1  0
 49 50  2  0
M  END
