x0426-x2193-x1119-x2694
     RDKit          3D

 76 82  0  0  0  0  0  0  0  0999 V2000
    7.0100   -1.5430   21.7500 N   0  0  0  0  0  0  0  0  0  0  0  0
    6.1330   -2.7460   21.2730 C   0  0  0  0  0  0  0  0  0  0  0  0
    4.8110   -3.0010   21.2880 O   0  0  0  0  0  0  0  0  0  0  0  0
    6.6740   -0.0580   21.6020 C   0  0  1  0  0  0  0  0  0  0  0  0
    8.3580   -1.8240   22.3400 C   0  0  2  0  0  0  0  0  0  0  0  0
    6.7630   -3.8780   20.6910 C   0  0  0  0  0  0  0  0  0  0  0  0
    7.7510    1.0930   21.7840 C   0  0  0  0  0  0  0  0  0  0  0  0
    6.0870    0.3420   20.2760 C   0  0  0  0  0  0  0  0  0  0  0  0
    8.3820   -1.6800   23.7910 N   0  0  0  0  0  0  0  0  0  0  0  0
    9.6000   -1.2590   22.0640 C   0  0  0  0  0  0  0  0  0  0  0  0
    7.3130   -3.3330   19.3850 C   0  0  0  0  0  0  0  0  0  0  0  0
    7.4690    2.1370   22.8140 N   0  0  0  0  0  0  0  0  0  0  0  0
    8.7490    1.1650   21.0610 O   0  0  0  0  0  0  0  0  0  0  0  0
    4.8200    0.9050   20.1900 C   0  0  0  0  0  0  0  0  0  0  0  0
    6.8070    0.1770   19.1430 C   0  0  0  0  0  0  0  0  0  0  0  0
    9.7410   -1.6280   24.1410 O   0  0  0  0  0  0  0  0  0  0  0  0
   10.5380   -1.7880   22.9620 C   0  0  2  0  0  0  0  0  0  0  0  0
    7.8610   -2.8430   24.5090 C   0  0  0  0  0  0  0  0  0  0  0  0
   12.0640   -1.3860   23.1960 C   0  0  0  0  0  0  0  0  0  0  0  0
    3.8400    1.1520   21.3280 C   0  0  0  0  0  0  0  0  0  0  0  0
    6.3940    0.5420   17.9010 N   0  0  0  0  0  0  0  0  0  0  0  0
    4.3850    1.2880   18.9370 C   0  0  0  0  0  0  0  0  0  0  0  0
    8.2870    3.3740   23.0230 C   0  0  0  0  0  0  0  0  0  0  0  0
    9.0110   -3.5200   25.0950 N   0  0  0  0  0  0  0  0  0  0  0  0
   12.2530   -0.0920   23.5000 C   0  0  0  0  0  0  0  0  0  0  0  0
   12.9310   -1.6740   21.9530 C   0  0  0  0  0  0  0  0  0  0  0  0
   12.6890   -2.1820   24.3790 C   0  0  0  0  0  0  0  0  0  0  0  0
    4.3200    2.0400   22.3100 C   0  0  0  0  0  0  0  0  0  0  0  0
    5.1810    1.1050   17.8290 C   0  0  0  0  0  0  0  0  0  0  0  0
    9.6450    3.2340   23.7300 C   0  0  0  0  0  0  0  0  0  0  0  0
    7.8950    4.6160   22.6290 C   0  0  0  0  0  0  0  0  0  0  0  0
    8.8170   -3.9170   26.5140 C   0  0  0  0  0  0  0  0  0  0  0  0
    9.5560   -4.5850   24.2520 C   0  0  0  0  0  0  0  0  0  0  0  0
   10.1450    1.9060   24.1880 C   0  0  0  0  0  0  0  0  0  0  0  0
    3.3150    2.6210   23.0070 N   0  0  0  0  0  0  0  0  0  0  0  0
   10.4370    4.2960   23.9660 C   0  0  0  0  0  0  0  0  0  0  0  0
    8.7460    5.6880   22.8980 C   0  0  0  0  0  0  0  0  0  0  0  0
    8.4190   -5.3570   26.8280 C   0  0  0  0  0  0  0  0  0  0  0  0
    9.2400   -5.8520   24.6940 C   0  0  0  0  0  0  0  0  0  0  0  0
    2.3170    1.8380   23.7450 C   0  0  0  0  0  0  0  0  0  0  0  0
   10.0640    5.5860   23.5880 C   0  0  0  0  0  0  0  0  0  0  0  0
    8.0660   -5.9070   25.5560 N   0  0  0  0  0  0  0  0  0  0  0  0
   10.7990    6.7020   23.7980 O   0  0  0  0  0  0  0  0  0  0  0  0
    2.3370    0.4110   23.7670 O   0  0  0  0  0  0  0  0  0  0  0  0
    1.2620    2.5790   24.4870 C   0  0  0  0  0  0  0  0  0  0  0  0
   12.2010    6.4890   23.7960 C   0  0  0  0  0  0  0  0  0  0  0  0
    1.6260    3.8620   25.2110 C   0  0  0  0  0  0  0  0  0  0  0  0
   -0.2120    2.0950   24.5540 C   0  0  0  0  0  0  0  0  0  0  0  0
    2.8540    4.3970   25.2390 F   0  0  0  0  0  0  0  0  0  0  0  0
   12.5740    5.5430   22.6320 C   0  0  0  0  0  0  0  0  0  0  0  0
   -1.2010    2.7900   25.2480 C   0  0  0  0  0  0  0  0  0  0  0  0
    0.4210    4.5430   25.9520 C   0  0  0  0  0  0  0  0  0  0  0  0
   13.8750    5.6130   22.2370 C   0  0  0  0  0  0  0  0  0  0  0  0
   -0.8740    3.9840   25.9250 C   0  0  0  0  0  0  0  0  0  0  0  0
   14.6850    4.6440   22.8150 C   0  0  0  0  0  0  0  0  0  0  0  0
   16.1020    4.5910   22.5970 C   0  0  0  0  0  0  0  0  0  0  0  0
   17.0180    5.1080   23.6020 C   0  0  0  0  0  0  0  0  0  0  0  0
   18.4030    5.4720   23.4120 C   0  0  0  0  0  0  0  0  0  0  0  0
   18.9810    6.7780   23.5750 C   0  0  0  0  0  0  0  0  0  0  0  0
   20.2770    7.0390   23.2080 N   0  0  0  0  0  0  0  0  0  0  0  0
   21.1910    6.1450   23.6740 C   0  0  0  0  0  0  0  0  0  0  0  0
   22.3630    5.5160   22.8460 C   0  0  0  0  0  0  0  0  0  0  0  0
   21.0370    5.7560   24.9990 C   0  0  0  0  0  0  0  0  0  0  0  0
   23.1920    4.5740   23.4470 C   0  0  0  0  0  0  0  0  0  0  0  0
   21.9220    4.7410   25.6720 C   0  0  0  0  0  0  0  0  0  0  0  0
   23.0320    4.1570   24.7670 C   0  0  0  0  0  0  0  0  0  0  0  0
   24.1380    2.8940   25.4250 S   0  0  0  0  0  0  0  0  0  0  0  0
   23.4050    1.6820   25.4830 O   0  0  0  0  0  0  0  0  0  0  0  0
   24.3080    3.3830   27.0280 N   0  0  0  0  0  0  0  0  0  0  0  0
   25.4020    2.9610   24.7530 O   0  0  0  0  0  0  0  0  0  0  0  0
   25.1120    4.4790   27.2960 C   0  0  0  0  0  0  0  0  0  0  0  0
   25.1610    4.7440   28.6230 N   0  0  0  0  0  0  0  0  0  0  0  0
   25.7800    5.1990   26.3170 C   0  0  0  0  0  0  0  0  0  0  0  0
   25.9100    5.7860   29.0640 C   0  0  0  0  0  0  0  0  0  0  0  0
   26.6230    6.3590   26.7290 C   0  0  0  0  0  0  0  0  0  0  0  0
   26.6760    6.6530   28.2260 C   0  0  0  0  0  0  0  0  0  0  0  0
  1  2  1  0
  2  3  2  0
  1  4  1  0
  5  1  1  6
  2  6  1  0
  4  7  1  6
  4  8  1  0
  5  9  1  0
  5 10  1  0
  6 11  1  0
  7 12  1  0
  7 13  2  0
  8 14  1  0
  8 15  2  0
  9 16  1  0
 10 17  1  0
 16 17  1  0
  9 18  1  0
 17 19  1  1
 14 20  1  0
 15 21  1  0
 14 22  2  0
 12 23  1  0
 18 24  1  0
 19 25  1  0
 19 26  1  0
 19 27  1  0
 20 28  1  0
 21 29  2  0
 22 29  1  0
 23 30  2  0
 23 31  1  0
 24 32  1  0
 24 33  1  0
 30 34  1  0
 28 35  1  0
 30 36  1  0
 31 37  2  0
 32 38  1  0
 33 39  1  0
 35 40  1  0
 36 41  2  0
 37 41  1  0
 38 42  1  0
 39 42  1  0
 41 43  1  0
 40 44  2  0
 40 45  1  0
 43 46  1  0
 45 47  2  0
 45 48  1  0
 47 49  1  0
 46 50  1  0
 48 51  2  0
 47 52  1  0
 50 53  1  0
 51 54  1  0
 52 54  2  0
 53 55  1  0
 55 56  1  0
 56 57  1  0
 57 58  1  0
 58 59  1  0
 59 60  1  0
 60 61  1  0
 61 62  2  0
 61 63  1  0
 62 64  1  0
 63 65  2  0
 64 66  2  0
 65 66  1  0
 66 67  1  0
 67 68  2  0
 67 69  1  0
 67 70  2  0
 69 71  1  0
 71 72  2  0
 71 73  1  0
 72 74  1  0
 73 75  2  0
 74 76  2  0
 75 76  1  0
M  END
