x0426-x0540-x0072-x2694
     RDKit          3D

 56 61  0  0  0  0  0  0  0  0999 V2000
    7.1530   -1.5680   21.6960 N   0  0  0  0  0  0  0  0  0  0  0  0
    6.1700   -2.7580   21.4660 C   0  0  0  0  0  0  0  0  0  0  0  0
    4.8430   -2.9880   21.1830 O   0  0  0  0  0  0  0  0  0  0  0  0
    6.8080   -0.1710   21.5390 C   0  0  1  0  0  0  0  0  0  0  0  0
    8.5340   -1.8570   22.1980 C   0  0  2  0  0  0  0  0  0  0  0  0
    6.8260   -4.1000   21.5590 C   0  0  0  0  0  0  0  0  0  0  0  0
    7.8010    1.0490   21.7510 C   0  0  0  0  0  0  0  0  0  0  0  0
    6.1890    0.2660   20.3050 C   0  0  0  0  0  0  0  0  0  0  0  0
    8.5960   -2.1770   23.6590 N   0  0  0  0  0  0  0  0  0  0  0  0
    9.6370   -0.9980   22.1390 C   0  0  0  0  0  0  0  0  0  0  0  0
    6.6770   -4.7380   20.2210 C   0  0  0  0  0  0  0  0  0  0  0  0
    7.5730    2.1240   22.7980 N   0  0  0  0  0  0  0  0  0  0  0  0
    8.7530    1.2100   20.9950 O   0  0  0  0  0  0  0  0  0  0  0  0
    8.5840   -3.5920   23.9900 C   0  0  0  0  0  0  0  0  0  0  0  0
    4.8330    0.9260   20.2980 C   0  0  0  0  0  0  0  0  0  0  0  0
    6.8440    0.1130   19.1080 C   0  0  0  0  0  0  0  0  0  0  0  0
    9.8960   -1.9730   24.0560 O   0  0  0  0  0  0  0  0  0  0  0  0
   10.6460   -1.2930   23.0670 C   0  0  1  0  0  0  0  0  0  0  0  0
    4.0260    1.1160   21.5640 C   0  0  2  0  0  0  0  0  0  0  0  0
    7.6870   -3.7470   25.1310 N   0  0  0  0  0  0  0  0  0  0  0  0
    6.3260    0.5740   17.8020 N   0  0  0  0  0  0  0  0  0  0  0  0
    4.3520    1.3820   18.9450 C   0  0  0  0  0  0  0  0  0  0  0  0
    8.3470    3.3280   22.9700 C   0  0  0  0  0  0  0  0  0  0  0  0
   11.8990   -2.1150   22.6370 C   0  0  1  0  0  0  0  0  0  0  0  0
   11.1150   -0.1240   23.9060 C   0  0  0  0  0  0  0  0  0  0  0  0
    3.9450    2.3340   22.3230 C   0  0  2  0  0  0  0  0  0  0  0  0
    4.6810    1.1200   23.0390 C   0  0  0  0  0  0  0  0  0  0  0  0
    8.1470   -4.8230   26.3670 S   0  0  0  0  0  0  0  0  0  0  0  0
    5.1280    1.1790   17.8280 C   0  0  0  0  0  0  0  0  0  0  0  0
    9.5240    3.3460   23.6930 C   0  0  0  0  0  0  0  0  0  0  0  0
    7.9550    4.6580   22.4040 C   0  0  0  0  0  0  0  0  0  0  0  0
   12.9050   -1.3200   22.1270 C   0  0  0  0  0  0  0  0  0  0  0  0
   12.4460    0.5530   23.6700 C   0  0  0  0  0  0  0  0  0  0  0  0
   12.5890   -2.8530   23.7920 C   0  0  0  0  0  0  0  0  0  0  0  0
    9.9390    2.0470   24.2750 C   0  0  0  0  0  0  0  0  0  0  0  0
    2.8530    2.7920   22.9500 N   0  0  0  0  0  0  0  0  0  0  0  0
    6.6460   -5.4940   26.8240 C   0  0  0  0  0  0  0  0  0  0  0  0
    8.9460   -5.8230   25.7150 O   0  0  0  0  0  0  0  0  0  0  0  0
    8.6400   -4.0830   27.4850 O   0  0  0  0  0  0  0  0  0  0  0  0
   10.4130    4.5980   23.9340 C   0  0  0  0  0  0  0  0  0  0  0  0
    8.8000    5.8920   22.6360 C   0  0  0  0  0  0  0  0  0  0  0  0
   13.2290   -0.0590   22.5650 C   0  0  0  0  0  0  0  0  0  0  0  0
   13.0370   -2.0460   24.8160 C   0  0  0  0  0  0  0  0  0  0  0  0
    2.0240    1.9190   23.7810 C   0  0  0  0  0  0  0  0  0  0  0  0
    2.1030    3.8290   22.2870 N   0  0  0  0  0  0  0  0  0  0  0  0
   10.0980    5.8580   23.4470 C   0  0  0  0  0  0  0  0  0  0  0  0
   10.9710    6.8760   23.7520 O   0  0  0  0  0  0  0  0  0  0  0  0
    2.1290    0.4860   23.8570 O   0  0  0  0  0  0  0  0  0  0  0  0
    1.0940    2.5270   24.5050 C   0  0  0  0  0  0  0  0  0  0  0  0
   11.8700    6.6860   24.8450 C   0  0  0  0  0  0  0  0  0  0  0  0
    1.3830    3.8090   25.3120 C   0  0  0  0  0  0  0  0  0  0  0  0
   -0.3270    2.0000   24.5790 C   0  0  0  0  0  0  0  0  0  0  0  0
    2.6240    4.3180   25.2820 F   0  0  0  0  0  0  0  0  0  0  0  0
   -1.2920    2.7920   25.4290 C   0  0  0  0  0  0  0  0  0  0  0  0
    0.4660    4.4610   26.0500 C   0  0  0  0  0  0  0  0  0  0  0  0
   -0.8840    4.0580   26.1860 C   0  0  0  0  0  0  0  0  0  0  0  0
  1  2  1  0
  2  3  2  0
  1  4  1  0
  5  1  1  1
  2  6  1  0
  4  7  1  6
  4  8  1  0
  5  9  1  0
  5 10  1  0
  6 11  1  0
  7 12  1  0
  7 13  2  0
  9 14  1  0
  8 15  1  0
  8 16  2  0
  9 17  1  0
 18 10  1  6
 18 17  1  0
 19 15  1  6
 14 20  1  0
 16 21  1  0
 15 22  2  0
 12 23  1  0
 18 24  1  0
 18 25  1  0
 19 26  1  0
 19 27  1  0
 26 27  1  0
 28 20  1  0
 21 29  2  0
 22 29  1  0
 23 30  2  0
 23 31  1  0
 24 32  1  0
 25 33  2  0
 24 34  1  1
 30 35  1  0
 26 36  1  1
 28 37  1  0
 28 38  2  0
 28 39  2  0
 30 40  1  0
 31 41  2  0
 32 42  2  0
 33 42  1  0
 34 43  1  0
 36 44  1  0
 36 45  1  0
 40 46  2  0
 41 46  1  0
 46 47  1  0
 44 48  2  0
 44 49  1  0
 47 50  1  0
 49 51  2  0
 49 52  1  0
 51 53  1  0
 52 54  2  0
 51 55  1  0
 54 56  1  0
 55 56  2  0
M  END
