x0426-x3124
     RDKit          3D

 38 40  0  0  0  0  0  0  0  0999 V2000
    6.8610   -1.6680   21.8780 N   0  0  0  0  0  0  0  0  0  0  0  0
    6.0420   -2.8660   21.6240 C   0  0  0  0  0  0  0  0  0  0  0  0
    4.8050   -3.0230   21.2780 O   0  0  0  0  0  0  0  0  0  0  0  0
    6.5510   -0.3260   21.6590 C   0  0  1  0  0  0  0  0  0  0  0  0
    8.1930   -1.7750   22.4900 C   0  0  0  0  0  0  0  0  0  0  0  0
    6.7670   -4.1790   21.7830 C   0  0  0  0  0  0  0  0  0  0  0  0
    7.7310    0.5800   22.0040 C   0  0  0  0  0  0  0  0  0  0  0  0
    5.8990    0.2050   20.3960 C   0  0  0  0  0  0  0  0  0  0  0  0
    9.3170   -1.9950   21.7270 C   0  0  0  0  0  0  0  0  0  0  0  0
    8.4090   -1.6420   23.8620 C   0  0  0  0  0  0  0  0  0  0  0  0
    6.6790   -4.9220   20.4460 C   0  0  0  0  0  0  0  0  0  0  0  0
    7.5350    1.5000   23.1100 N   0  0  0  0  0  0  0  0  0  0  0  0
    8.7980    0.6190   21.4010 O   0  0  0  0  0  0  0  0  0  0  0  0
    4.6790    0.8470   20.2370 C   0  0  0  0  0  0  0  0  0  0  0  0
    6.7250    0.0430   19.1120 C   0  0  0  0  0  0  0  0  0  0  0  0
   10.6150   -2.0790   22.2410 C   0  0  0  0  0  0  0  0  0  0  0  0
    9.6910   -1.7240   24.4030 C   0  0  0  0  0  0  0  0  0  0  0  0
    7.8990    2.8970   23.1110 C   0  0  0  0  0  0  0  0  0  0  0  0
    3.6280    1.1670   21.2650 C   0  0  0  0  0  0  0  0  0  0  0  0
    6.3850    0.4720   17.8770 N   0  0  0  0  0  0  0  0  0  0  0  0
    4.3870    1.2950   18.8320 C   0  0  0  0  0  0  0  0  0  0  0  0
   10.8140   -1.9390   23.6050 C   0  0  0  0  0  0  0  0  0  0  0  0
   12.2030   -2.0190   24.2360 C   0  0  0  0  0  0  0  0  0  0  0  0
    4.1020    1.9040   22.2790 C   0  0  0  0  0  0  0  0  0  0  0  0
    5.2190    1.1000   17.7720 C   0  0  0  0  0  0  0  0  0  0  0  0
   12.5990   -0.7480   24.9870 C   0  0  0  0  0  0  0  0  0  0  0  0
   13.2130   -2.2500   23.3310 C   0  0  0  0  0  0  0  0  0  0  0  0
   12.0830   -3.1690   25.2370 C   0  0  0  0  0  0  0  0  0  0  0  0
    3.2230    2.5160   23.2490 N   0  0  0  0  0  0  0  0  0  0  0  0
    2.2100    1.8060   23.8500 C   0  0  0  0  0  0  0  0  0  0  0  0
    2.1320    0.5760   23.8150 O   0  0  0  0  0  0  0  0  0  0  0  0
    1.1740    2.5940   24.5750 C   0  0  0  0  0  0  0  0  0  0  0  0
    1.4670    3.7830   25.2290 C   0  0  0  0  0  0  0  0  0  0  0  0
   -0.1230    2.1020   24.5850 C   0  0  0  0  0  0  0  0  0  0  0  0
    2.7110    4.2880   25.2410 F   0  0  0  0  0  0  0  0  0  0  0  0
   -1.1320    2.8090   25.2540 C   0  0  0  0  0  0  0  0  0  0  0  0
    0.4700    4.4930   25.8980 C   0  0  0  0  0  0  0  0  0  0  0  0
   -0.8360    4.0040   25.9100 C   0  0  0  0  0  0  0  0  0  0  0  0
  1  2  1  0
  2  3  2  0
  1  4  1  0
  1  5  1  0
  2  6  1  0
  4  7  1  6
  4  8  1  0
  5  9  2  0
  5 10  1  0
  6 11  1  0
  7 12  1  0
  7 13  2  0
  8 14  1  0
  8 15  2  0
  9 16  1  0
 10 17  2  0
 12 18  1  0
 14 19  1  0
 15 20  1  0
 14 21  2  0
 16 22  2  0
 17 22  1  0
 22 23  1  0
 19 24  1  0
 20 25  2  0
 21 25  1  0
 23 26  1  0
 23 27  1  0
 23 28  1  0
 24 29  1  0
 29 30  1  0
 30 31  2  0
 30 32  1  0
 32 33  2  0
 32 34  1  0
 33 35  1  0
 34 36  2  0
 33 37  1  0
 36 38  1  0
 37 38  2  0
M  END
