x0426-x1385
     RDKit          3D

 37 40  0  0  0  0  0  0  0  0999 V2000
    2.5760    1.6920   23.8560 C   0  0  0  0  0  0  0  0  0  0  0  0
    3.8070    2.1700   23.4730 N   0  0  0  0  0  0  0  0  0  0  0  0
    4.4240    1.8600   22.3660 C   0  0  2  0  0  0  0  0  0  0  0  0
    2.2090    0.3160   23.7310 O   0  0  0  0  0  0  0  0  0  0  0  0
    1.4510    2.5160   24.5090 C   0  0  0  0  0  0  0  0  0  0  0  0
    1.6700    3.7520   25.1430 C   0  0  0  0  0  0  0  0  0  0  0  0
    0.0030    2.0170   24.5090 C   0  0  0  0  0  0  0  0  0  0  0  0
    3.4810    1.4700   21.2370 C   0  0  0  0  0  0  0  0  0  0  0  0
    2.9020    4.2770   25.2000 F   0  0  0  0  0  0  0  0  0  0  0  0
    5.4720    0.6930   22.5040 C   0  0  0  0  0  0  0  0  0  0  0  0
   -1.1580    2.7770   25.1450 C   0  0  0  0  0  0  0  0  0  0  0  0
    0.5510    4.5570   25.7950 C   0  0  0  0  0  0  0  0  0  0  0  0
    6.7860    0.9990   21.7200 C   0  0  0  0  0  0  0  0  0  0  0  0
   -0.7830    4.1070   25.8010 C   0  0  0  0  0  0  0  0  0  0  0  0
    4.3140    1.1590   19.9630 C   0  0  0  0  0  0  0  0  0  0  0  0
    5.1440   -0.0390   19.6490 C   0  0  0  0  0  0  0  0  0  0  0  0
    4.4780    1.9630   18.8000 C   0  0  0  0  0  0  0  0  0  0  0  0
    7.5390   -0.2390   21.0720 C   0  0  0  0  0  0  0  0  0  0  0  0
    5.9000   -0.3960   18.6070 C   0  0  0  0  0  0  0  0  0  0  0  0
    5.2970    1.5690   17.6800 C   0  0  0  0  0  0  0  0  0  0  0  0
    7.4310   -1.4590   21.7520 C   0  0  1  0  0  0  0  0  0  0  0  0
    6.0260    0.4030   17.5570 N   0  0  0  0  0  0  0  0  0  0  0  0
    6.5860   -2.5920   21.2290 N   0  0  0  0  0  0  0  0  0  0  0  0
    8.6820   -1.9440   22.1370 C   0  0  0  0  0  0  0  0  0  0  0  0
    6.4490   -3.1730   19.9280 C   0  0  0  0  0  0  0  0  0  0  0  0
    6.4530   -3.5940   22.2740 C   0  0  0  0  0  0  0  0  0  0  0  0
    8.5080   -2.7590   23.3350 N   0  0  0  0  0  0  0  0  0  0  0  0
    7.5140   -2.9610   18.8570 C   0  0  0  0  0  0  0  0  0  0  0  0
    5.4780   -3.9100   19.6560 O   0  0  0  0  0  0  0  0  0  0  0  0
    9.6740   -3.1680   24.0720 C   0  0  0  0  0  0  0  0  0  0  0  0
    7.5130   -3.8750   23.1230 C   0  0  0  0  0  0  0  0  0  0  0  0
    9.2780   -4.1370   25.1370 C   0  0  0  0  0  0  0  0  0  0  0  0
    9.7940   -5.4970   25.3770 C   0  0  0  0  0  0  0  0  0  0  0  0
    8.0740   -3.7880   26.3170 S   0  0  0  0  0  0  0  0  0  0  0  0
    8.2270   -5.3100   27.0600 C   0  0  0  0  0  0  0  0  0  0  0  0
    9.1590   -6.0760   26.4640 C   0  0  0  0  0  0  0  0  0  0  0  0
    7.1580   -5.8130   28.5490 Br  0  0  0  0  0  0  0  0  0  0  0  0
  1  2  1  0
  2  3  1  0
  1  4  2  0
  1  5  1  0
  5  6  2  0
  5  7  1  0
  3  8  1  6
  6  9  1  0
  3 10  1  0
  7 11  2  0
  6 12  1  0
 10 13  1  0
 11 14  1  0
 12 14  2  0
  8 15  1  0
 15 16  2  0
 15 17  1  0
 13 18  1  0
 16 19  1  0
 17 20  2  0
 21 18  1  6
 19 22  2  0
 20 22  1  0
 21 23  1  0
 21 24  1  0
 23 25  1  0
 23 26  1  0
 24 27  1  0
 25 28  1  0
 25 29  2  0
 27 30  1  0
 26 31  1  0
 27 31  1  0
 30 32  1  0
 32 33  2  0
 32 34  1  0
 34 35  1  0
 33 36  1  0
 35 36  2  0
 35 37  1  0
M  END
