x0426-x2193-x2776-x1311
     RDKit          3D

 62 67  0  0  0  0  0  0  0  0999 V2000
    6.9930   -1.6030   21.5510 N   0  0  0  0  0  0  0  0  0  0  0  0
    6.1870   -2.8380   21.2590 C   0  0  0  0  0  0  0  0  0  0  0  0
    4.9110   -3.0420   20.9800 O   0  0  0  0  0  0  0  0  0  0  0  0
    6.5760   -0.1840   21.4480 C   0  0  1  0  0  0  0  0  0  0  0  0
    8.3160   -1.7110   22.2280 C   0  0  0  0  0  0  0  0  0  0  0  0
    7.0330   -4.1050   21.3580 C   0  0  0  0  0  0  0  0  0  0  0  0
    7.7060    0.9540   21.6950 C   0  0  0  0  0  0  0  0  0  0  0  0
    5.9690    0.3770   20.1600 C   0  0  0  0  0  0  0  0  0  0  0  0
    9.4600   -1.3240   21.5790 C   0  0  0  0  0  0  0  0  0  0  0  0
    8.5370   -2.2260   23.6320 C   0  0  0  0  0  0  0  0  0  0  0  0
    7.0590   -3.6360   19.8900 C   0  0  0  0  0  0  0  0  0  0  0  0
    7.6640    1.8100   22.8830 N   0  0  0  0  0  0  0  0  0  0  0  0
    8.6090    1.1850   20.9100 O   0  0  0  0  0  0  0  0  0  0  0  0
    4.7840    1.0810   20.0130 C   0  0  0  0  0  0  0  0  0  0  0  0
    6.7590    0.1340   19.0440 C   0  0  0  0  0  0  0  0  0  0  0  0
   10.7450   -1.3730   22.0890 C   0  0  0  0  0  0  0  0  0  0  0  0
    9.8080   -2.2850   24.1850 C   0  0  0  0  0  0  0  0  0  0  0  0
    7.4390   -2.7060   24.4870 C   0  0  0  0  0  0  0  0  0  0  0  0
    3.8170    1.4130   21.1160 C   0  0  0  0  0  0  0  0  0  0  0  0
    6.4170    0.5810   17.8100 N   0  0  0  0  0  0  0  0  0  0  0  0
    4.4280    1.5410   18.7680 C   0  0  0  0  0  0  0  0  0  0  0  0
    8.4280    2.9970   23.1010 C   0  0  0  0  0  0  0  0  0  0  0  0
   10.9960   -1.8250   23.3520 C   0  0  0  0  0  0  0  0  0  0  0  0
    7.8310   -3.9810   25.0460 N   0  0  0  0  0  0  0  0  0  0  0  0
   12.4340   -1.8540   23.8860 C   0  0  2  0  0  0  0  0  0  0  0  0
    4.3030    1.8510   22.4210 C   0  0  0  0  0  0  0  0  0  0  0  0
    5.2670    1.2770   17.7130 C   0  0  0  0  0  0  0  0  0  0  0  0
    9.8630    3.0320   23.5900 C   0  0  0  0  0  0  0  0  0  0  0  0
    7.9650    4.4590   22.8890 C   0  0  0  0  0  0  0  0  0  0  0  0
    8.0700   -3.9600   26.4620 C   0  0  0  0  0  0  0  0  0  0  0  0
    8.7940   -4.8630   24.2860 C   0  0  0  0  0  0  0  0  0  0  0  0
   12.4460   -2.2840   25.2410 O   0  0  0  0  0  0  0  0  0  0  0  0
   10.5670    1.7370   23.8710 C   0  0  0  0  0  0  0  0  0  0  0  0
   12.9430   -0.4510   23.8120 C   0  0  0  0  0  0  0  0  0  0  0  0
    3.2280    2.5150   23.1330 N   0  0  0  0  0  0  0  0  0  0  0  0
   10.6250    4.1800   23.8170 C   0  0  0  0  0  0  0  0  0  0  0  0
    8.7830    5.5950   23.1390 C   0  0  0  0  0  0  0  0  0  0  0  0
    7.8050   -5.3740   26.8560 C   0  0  2  0  0  0  0  0  0  0  0  0
    9.5100   -5.7900   25.0310 C   0  0  0  0  0  0  0  0  0  0  0  0
   13.4960   -3.1640   25.5630 C   0  0  0  0  0  0  0  0  0  0  0  0
    2.2410    1.7820   23.8210 C   0  0  0  0  0  0  0  0  0  0  0  0
   10.1100    5.4730   23.6070 C   0  0  0  0  0  0  0  0  0  0  0  0
    8.9370   -6.1390   26.3470 N   0  0  0  0  0  0  0  0  0  0  0  0
    6.5590   -5.8840   26.0900 C   0  0  0  0  0  0  0  0  0  0  0  0
   10.7850    6.6450   23.8200 O   0  0  0  0  0  0  0  0  0  0  0  0
    2.2080    0.5420   23.8330 O   0  0  0  0  0  0  0  0  0  0  0  0
    1.2000    2.5670   24.5520 C   0  0  0  0  0  0  0  0  0  0  0  0
    5.3570   -4.9730   25.9370 C   0  0  0  0  0  0  0  0  0  0  0  0
   11.8510    6.5990   24.7700 C   0  0  0  0  0  0  0  0  0  0  0  0
    1.4860    3.7840   25.2330 C   0  0  0  0  0  0  0  0  0  0  0  0
   -0.2440    1.9980   24.5430 C   0  0  0  0  0  0  0  0  0  0  0  0
    4.6820   -5.2610   24.5940 C   0  0  1  0  0  0  0  0  0  0  0  0
    2.7670    4.1690   25.1660 F   0  0  0  0  0  0  0  0  0  0  0  0
   -1.3020    2.8080   25.2920 C   0  0  0  0  0  0  0  0  0  0  0  0
    0.5510    4.5090   25.9000 C   0  0  0  0  0  0  0  0  0  0  0  0
    5.4320   -5.4930   23.4310 C   0  0  0  0  0  0  0  0  0  0  0  0
    3.6250   -6.7030   24.5140 S   0  0  0  0  0  0  0  0  0  0  0  0
   -0.9040    4.0860   25.9840 C   0  0  0  0  0  0  0  0  0  0  0  0
    4.1710   -7.6810   25.4110 O   0  0  0  0  0  0  0  0  0  0  0  0
    2.2930   -6.2450   24.8530 O   0  0  0  0  0  0  0  0  0  0  0  0
    4.7200   -6.1210   22.4200 C   0  0  0  0  0  0  0  0  0  0  0  0
    3.6630   -6.8230   22.8340 C   0  0  0  0  0  0  0  0  0  0  0  0
  1  2  1  0
  2  3  2  0
  1  4  1  0
  1  5  1  0
  2  6  1  0
  4  7  1  6
  4  8  1  0
  5  9  2  0
  5 10  1  0
  6 11  1  0
  7 12  1  0
  7 13  2  0
  8 14  1  0
  8 15  2  0
  9 16  1  0
 10 17  2  0
 10 18  1  0
 14 19  1  0
 15 20  1  0
 14 21  2  0
 12 22  1  0
 16 23  2  0
 17 23  1  0
 18 24  1  0
 23 25  1  0
 19 26  1  0
 20 27  2  0
 21 27  1  0
 22 28  2  0
 22 29  1  0
 24 30  1  0
 24 31  1  0
 25 32  1  0
 28 33  1  0
 25 34  1  1
 26 35  1  0
 28 36  1  0
 29 37  2  0
 30 38  1  0
 31 39  1  0
 32 40  1  0
 35 41  1  0
 36 42  2  0
 37 42  1  0
 38 43  1  0
 39 43  1  0
 38 44  1  6
 42 45  1  0
 41 46  2  0
 41 47  1  0
 44 48  1  0
 45 49  1  0
 47 50  2  0
 47 51  1  0
 52 48  1  1
 50 53  1  0
 51 54  2  0
 50 55  1  0
 52 56  1  0
 52 57  1  0
 54 58  1  0
 55 58  2  0
 57 59  1  0
 57 60  1  0
 56 61  1  0
 57 62  1  0
 61 62  2  0
M  END
