x0426-x1418-x2694-x2193
     RDKit          3D

 58 65  0  0  0  0  0  0  0  0999 V2000
    7.3030    3.0100   22.1130 N   0  0  0  0  0  0  0  0  0  0  0  0
    7.7580    1.7350   21.5340 C   0  0  0  0  0  0  0  0  0  0  0  0
    9.0400    1.6600   20.9560 O   0  0  0  0  0  0  0  0  0  0  0  0
    8.2140    4.0190   22.7100 C   0  0  0  0  0  0  0  0  0  0  0  0
    7.0190    0.3820   21.4580 C   0  0  1  0  0  0  0  0  0  0  0  0
    9.2850    3.5560   23.4660 C   0  0  0  0  0  0  0  0  0  0  0  0
    8.0250    5.4130   22.5280 C   0  0  0  0  0  0  0  0  0  0  0  0
    9.2110    2.0820   23.4370 C   0  0  0  0  0  0  0  0  0  0  0  0
    6.2010    0.7550   20.3230 C   0  0  0  0  0  0  0  0  0  0  0  0
   10.2470    4.3580   24.1090 C   0  0  0  0  0  0  0  0  0  0  0  0
    8.9150    6.2770   23.1120 C   0  0  0  0  0  0  0  0  0  0  0  0
    7.8590   -0.9480   21.3590 C   0  0  1  0  0  0  0  0  0  0  0  0
    4.9340    1.3880   20.1280 C   0  0  0  0  0  0  0  0  0  0  0  0
    6.8250    0.4070   19.1080 C   0  0  0  0  0  0  0  0  0  0  0  0
    8.9350   -1.4280   22.6290 C   0  0  2  0  0  0  0  0  0  0  0  0
   10.1040    5.7370   23.9610 C   0  0  0  0  0  0  0  0  0  0  0  0
    6.9060   -2.1140   20.9410 N   0  0  0  0  0  0  0  0  0  0  0  0
   10.4420    0.9040   23.0660 S   0  0  0  0  0  0  0  0  0  0  0  0
   10.8460    6.5950   24.4480 O   0  0  0  0  0  0  0  0  0  0  0  0
    4.0200    1.8570   21.1410 C   0  0  0  0  0  0  0  0  0  0  0  0
    6.7070   -2.9260   19.7610 C   0  0  0  0  0  0  0  0  0  0  0  0
    6.3860    0.6200   17.7070 N   0  0  0  0  0  0  0  0  0  0  0  0
    4.4550    1.6280   18.8230 C   0  0  0  0  0  0  0  0  0  0  0  0
    8.5480   -1.9020   23.7840 N   0  0  0  0  0  0  0  0  0  0  0  0
   10.2800   -0.7480   22.9120 C   0  0  1  0  0  0  0  0  0  0  0  0
    6.7370   -2.9500   22.0940 C   0  0  0  0  0  0  0  0  0  0  0  0
    9.1400   -2.8190   22.0520 N   0  0  0  0  0  0  0  0  0  0  0  0
   12.1060    1.2730   22.8220 C   0  0  0  0  0  0  0  0  0  0  0  0
   11.9380    6.1730   25.2400 C   0  0  0  0  0  0  0  0  0  0  0  0
    4.3180    1.5970   22.6110 C   0  0  0  0  0  0  0  0  0  0  0  0
    7.6650   -2.9330   18.6230 C   0  0  0  0  0  0  0  0  0  0  0  0
    5.7350   -3.7370   19.6260 O   0  0  0  0  0  0  0  0  0  0  0  0
    9.5460   -2.7670   24.3520 C   0  0  0  0  0  0  0  0  0  0  0  0
    5.1390    1.2750   17.7290 C   0  0  0  0  0  0  0  0  0  0  0  0
   10.3200   -0.7510   24.1450 O   0  0  0  0  0  0  0  0  0  0  0  0
    7.9190   -3.6850   22.0950 C   0  0  0  0  0  0  0  0  0  0  0  0
   11.7190   -1.1580   22.2910 C   0  0  1  0  0  0  0  0  0  0  0  0
   12.7340   -0.0170   22.4000 C   0  0  0  0  0  0  0  0  0  0  0  0
    8.9420   -0.7670   24.5180 C   0  0  0  0  0  0  0  0  0  0  0  0
   12.4960   -2.3840   22.6920 C   0  0  0  0  0  0  0  0  0  0  0  0
    3.4200    2.4010   23.4570 N   0  0  0  0  0  0  0  0  0  0  0  0
    8.9700   -3.8590   24.6950 N   0  0  0  0  0  0  0  0  0  0  0  0
    2.3780    1.7410   23.8630 C   0  0  0  0  0  0  0  0  0  0  0  0
    7.5040   -3.7720   24.9110 C   0  0  0  0  0  0  0  0  0  0  0  0
    9.5080   -4.8890   24.0510 C   0  0  0  0  0  0  0  0  0  0  0  0
   13.4810   -2.2600   23.8240 C   0  0  0  0  0  0  0  0  0  0  0  0
    2.2590    0.5250   23.7280 O   0  0  0  0  0  0  0  0  0  0  0  0
    1.2410    2.5150   24.5460 C   0  0  0  0  0  0  0  0  0  0  0  0
    6.9370   -5.1460   24.9050 C   0  0  0  0  0  0  0  0  0  0  0  0
    8.8260   -6.0440   23.9040 C   0  0  0  0  0  0  0  0  0  0  0  0
   12.8270   -2.6590   25.1390 C   0  0  0  0  0  0  0  0  0  0  0  0
    1.6210    3.8100   25.2140 C   0  0  0  0  0  0  0  0  0  0  0  0
   -0.2320    2.0150   24.5660 C   0  0  0  0  0  0  0  0  0  0  0  0
    7.9750   -6.1470   24.9180 N   0  0  0  0  0  0  0  0  0  0  0  0
    2.8730    4.2880   25.2280 F   0  0  0  0  0  0  0  0  0  0  0  0
   -1.2010    2.7930   25.2210 C   0  0  0  0  0  0  0  0  0  0  0  0
    0.5940    4.5340   25.8500 C   0  0  0  0  0  0  0  0  0  0  0  0
   -0.8520    3.9910   25.8400 C   0  0  0  0  0  0  0  0  0  0  0  0
  1  2  1  0
  2  3  2  0
  1  4  1  0
  2  5  1  0
  4  6  2  0
  4  7  1  0
  6  8  1  0
  5  9  1  6
  6 10  1  0
  7 11  2  0
  5 12  1  0
  9 13  1  0
  9 14  2  0
 12 15  1  0
 10 16  2  0
 11 16  1  0
 12 17  1  1
  8 18  2  0
 16 19  1  0
 13 20  1  0
 17 21  1  0
 14 22  1  0
 13 23  2  0
 15 24  1  0
 15 25  1  0
 18 25  1  0
 17 26  1  0
 15 27  1  6
 18 28  1  0
 19 29  1  0
 20 30  1  0
 21 31  1  0
 21 32  2  0
 24 33  1  0
 22 34  2  0
 23 34  1  0
 25 35  1  1
 26 36  1  0
 27 36  1  0
 25 37  1  0
 28 38  2  0
 37 38  1  0
 24 39  1  0
 35 39  1  0
 37 40  1  1
 30 41  1  0
 33 42  1  0
 41 43  1  0
 42 44  1  0
 42 45  1  0
 40 46  1  0
 43 47  2  0
 43 48  1  0
 44 49  1  0
 45 50  1  0
 46 51  1  0
 48 52  2  0
 48 53  1  0
 49 54  1  0
 50 54  1  0
 52 55  1  0
 53 56  2  0
 52 57  1  0
 56 58  1  0
 57 58  2  0
M  END
