x0426-x2193-x2694-x1382
     RDKit          3D

 52 57  0  0  0  0  0  0  0  0999 V2000
    6.8310   -1.4200   21.9780 N   0  0  0  0  0  0  0  0  0  0  0  0
    6.1540   -2.5590   21.4680 C   0  0  0  0  0  0  0  0  0  0  0  0
    4.8770   -3.0630   21.2590 O   0  0  0  0  0  0  0  0  0  0  0  0
    6.6060   -0.0250   21.6620 C   0  0  1  0  0  0  0  0  0  0  0  0
    8.1300   -2.0420   22.1440 C   0  0  2  0  0  0  0  0  0  0  0  0
    7.4340   -3.2680   21.1660 C   0  0  2  0  0  0  0  0  0  0  0  0
    7.8430    0.9990   21.8860 C   0  0  0  0  0  0  0  0  0  0  0  0
    6.0540    0.3910   20.3580 C   0  0  0  0  0  0  0  0  0  0  0  0
    8.3320   -2.5850   23.4720 N   0  0  0  0  0  0  0  0  0  0  0  0
    9.4260   -1.4750   21.8000 C   0  0  0  0  0  0  0  0  0  0  0  0
    7.2880   -3.3340   19.6210 C   0  0  0  0  0  0  0  0  0  0  0  0
    7.5930    2.1020   22.7230 N   0  0  0  0  0  0  0  0  0  0  0  0
    8.9360    0.8800   21.3480 O   0  0  0  0  0  0  0  0  0  0  0  0
    4.7680    0.9860   20.1970 C   0  0  0  0  0  0  0  0  0  0  0  0
    6.8200    0.2060   19.2510 C   0  0  0  0  0  0  0  0  0  0  0  0
    9.7720   -2.3560   23.8010 C   0  0  0  0  0  0  0  0  0  0  0  0
   10.4450   -1.6760   22.8010 C   0  0  0  0  0  0  0  0  0  0  0  0
   12.0100   -1.3100   22.9450 C   0  0  0  0  0  0  0  0  0  0  0  0
    3.7330    1.2570   21.2860 C   0  0  0  0  0  0  0  0  0  0  0  0
    6.4830    0.5520   18.0050 N   0  0  0  0  0  0  0  0  0  0  0  0
    4.4080    1.3580   18.9050 C   0  0  0  0  0  0  0  0  0  0  0  0
    8.4570    3.2710   23.0240 C   0  0  0  0  0  0  0  0  0  0  0  0
   10.2610   -2.9380   25.0800 C   0  0  0  0  0  0  0  0  0  0  0  0
   12.2900    0.0470   23.1660 C   0  0  0  0  0  0  0  0  0  0  0  0
   12.7780   -1.7930   21.7010 C   0  0  0  0  0  0  0  0  0  0  0  0
   12.6860   -2.0580   24.1220 C   0  0  0  0  0  0  0  0  0  0  0  0
    4.2620    1.9940   22.3520 C   0  0  0  0  0  0  0  0  0  0  0  0
    5.2850    1.1370   17.8300 C   0  0  0  0  0  0  0  0  0  0  0  0
    9.6490    3.1190   23.7040 C   0  0  0  0  0  0  0  0  0  0  0  0
    8.1010    4.5630   22.6420 C   0  0  0  0  0  0  0  0  0  0  0  0
    9.1180   -3.7470   25.3620 N   0  0  0  0  0  0  0  0  0  0  0  0
   10.1340    1.8600   24.1550 C   0  0  0  0  0  0  0  0  0  0  0  0
    3.2110    2.5800   22.9980 N   0  0  0  0  0  0  0  0  0  0  0  0
   10.4530    4.2350   23.9890 C   0  0  0  0  0  0  0  0  0  0  0  0
    8.8710    5.7020   22.9100 C   0  0  0  0  0  0  0  0  0  0  0  0
    8.8350   -4.0500   26.7720 C   0  0  0  0  0  0  0  0  0  0  0  0
    9.4250   -4.9060   24.5800 C   0  0  0  0  0  0  0  0  0  0  0  0
    2.3280    1.8690   23.7070 C   0  0  0  0  0  0  0  0  0  0  0  0
   10.0710    5.5180   23.6040 C   0  0  0  0  0  0  0  0  0  0  0  0
    8.2560   -5.3990   27.0690 C   0  0  0  0  0  0  0  0  0  0  0  0
    8.7390   -6.0240   24.8210 C   0  0  0  0  0  0  0  0  0  0  0  0
   10.8680    6.6700   23.8980 O   0  0  0  0  0  0  0  0  0  0  0  0
    2.3250    0.4400   23.7500 O   0  0  0  0  0  0  0  0  0  0  0  0
    1.2800    2.6620   24.5090 C   0  0  0  0  0  0  0  0  0  0  0  0
    8.9370   -6.3710   26.2640 N   0  0  0  0  0  0  0  0  0  0  0  0
   11.8490    6.5410   24.9290 C   0  0  0  0  0  0  0  0  0  0  0  0
    1.5030    3.8500   25.2310 C   0  0  0  0  0  0  0  0  0  0  0  0
   -0.0260    2.1570   24.5260 C   0  0  0  0  0  0  0  0  0  0  0  0
    2.7170    4.4020   25.2720 F   0  0  0  0  0  0  0  0  0  0  0  0
   -1.0600    2.7740   25.2070 C   0  0  0  0  0  0  0  0  0  0  0  0
    0.4680    4.5010   25.9340 C   0  0  0  0  0  0  0  0  0  0  0  0
   -0.8170    3.9520   25.9160 C   0  0  0  0  0  0  0  0  0  0  0  0
  1  2  1  0
  2  3  2  0
  1  4  1  0
  1  5  1  0
  2  6  1  0
  5  6  1  0
  4  7  1  6
  4  8  1  0
  5  9  1  0
  5 10  1  6
  6 11  1  6
  7 12  1  0
  7 13  2  0
  8 14  1  0
  8 15  2  0
  9 16  2  0
 10 17  2  0
 16 17  1  0
 17 18  1  0
 14 19  1  0
 15 20  1  0
 14 21  2  0
 12 22  1  0
 16 23  1  0
 18 24  1  0
 18 25  1  0
 18 26  1  0
 19 27  1  0
 20 28  2  0
 21 28  1  0
 22 29  2  0
 22 30  1  0
 23 31  1  0
 29 32  1  0
 27 33  1  0
 29 34  1  0
 30 35  2  0
 31 36  1  0
 31 37  1  0
 33 38  1  0
 34 39  2  0
 35 39  1  0
 36 40  1  0
 37 41  1  0
 39 42  1  0
 38 43  2  0
 38 44  1  0
 40 45  1  0
 41 45  1  0
 42 46  1  0
 44 47  2  0
 44 48  1  0
 47 49  1  0
 48 50  2  0
 47 51  1  0
 50 52  1  0
 51 52  2  0
M  END
