x0426-x1358
     RDKit          3D

 39 42  0  0  0  0  0  0  0  0999 V2000
    6.7080   -2.5570   26.0300 N   0  0  0  0  0  0  0  0  0  0  0  0
    5.6800   -3.0770   25.2710 C   0  0  0  0  0  0  0  0  0  0  0  0
    4.5280   -3.2700   25.6510 O   0  0  0  0  0  0  0  0  0  0  0  0
    6.6800   -1.5020   26.9800 C   0  0  0  0  0  0  0  0  0  0  0  0
    6.0620   -0.3120   26.5760 C   0  0  0  0  0  0  0  0  0  0  0  0
    7.2400   -1.6290   28.2600 C   0  0  0  0  0  0  0  0  0  0  0  0
    6.0990   -3.4150   23.8370 C   0  0  0  0  0  0  0  0  0  0  0  0
    5.5470   -0.3150   25.3030 O   0  0  0  0  0  0  0  0  0  0  0  0
    7.2630   -0.6340   29.2540 C   0  0  0  0  0  0  0  0  0  0  0  0
    6.0120    0.7520   27.4580 C   0  0  0  0  0  0  0  0  0  0  0  0
    7.3660   -2.9370   23.5020 C   0  0  0  0  0  0  0  0  0  0  0  0
    5.9300   -4.9180   23.5460 C   0  0  0  0  0  0  0  0  0  0  0  0
    5.4050    0.9150   24.5950 C   0  0  0  0  0  0  0  0  0  0  0  0
    6.5670    0.6410   28.7300 C   0  0  0  0  0  0  0  0  0  0  0  0
    7.6090   -3.0040   22.0080 C   0  0  0  0  0  0  0  0  0  0  0  0
    6.3690   -5.1520   22.1070 C   0  0  0  0  0  0  0  0  0  0  0  0
    5.1810    0.7080   23.0910 C   0  0  0  0  0  0  0  0  0  0  0  0
    6.6240   -3.9010   21.4050 N   0  0  0  0  0  0  0  0  0  0  0  0
    6.2040   -3.8470   20.0880 C   0  0  0  0  0  0  0  0  0  0  0  0
    4.3400    1.8030   22.3910 C   0  0  2  0  0  0  0  0  0  0  0  0
    5.1430   -4.3560   19.7700 O   0  0  0  0  0  0  0  0  0  0  0  0
    7.1490   -3.1700   19.1060 C   0  0  0  0  0  0  0  0  0  0  0  0
    3.3550    2.4330   23.2750 N   0  0  0  0  0  0  0  0  0  0  0  0
    3.6890    1.2530   21.1030 C   0  0  0  0  0  0  0  0  0  0  0  0
    2.2690    1.7640   23.8060 C   0  0  0  0  0  0  0  0  0  0  0  0
    4.6690    1.0040   19.9870 C   0  0  0  0  0  0  0  0  0  0  0  0
    2.1280    0.5490   23.7130 O   0  0  0  0  0  0  0  0  0  0  0  0
    1.2380    2.5740   24.5280 C   0  0  0  0  0  0  0  0  0  0  0  0
    5.7510    0.1270   20.1390 C   0  0  0  0  0  0  0  0  0  0  0  0
    4.5120    1.6530   18.7670 C   0  0  0  0  0  0  0  0  0  0  0  0
    1.5190    3.7820   25.1820 C   0  0  0  0  0  0  0  0  0  0  0  0
   -0.0840    2.0940   24.5530 C   0  0  0  0  0  0  0  0  0  0  0  0
    6.6120   -0.0500   19.0690 C   0  0  0  0  0  0  0  0  0  0  0  0
    5.4210    1.4050   17.7680 C   0  0  0  0  0  0  0  0  0  0  0  0
    2.7600    4.2960   25.1970 F   0  0  0  0  0  0  0  0  0  0  0  0
   -1.0900    2.8070   25.2150 C   0  0  0  0  0  0  0  0  0  0  0  0
    0.5170    4.4950   25.8420 C   0  0  0  0  0  0  0  0  0  0  0  0
    6.4630    0.5710   17.8890 N   0  0  0  0  0  0  0  0  0  0  0  0
   -0.7900    4.0070   25.8590 C   0  0  0  0  0  0  0  0  0  0  0  0
  1  2  1  0
  2  3  2  0
  1  4  1  0
  4  5  1  0
  4  6  2  0
  2  7  1  0
  5  8  1  0
  6  9  1  0
  5 10  2  0
  7 11  1  0
  7 12  1  0
  8 13  1  0
  9 14  2  0
 10 14  1  0
 11 15  1  0
 12 16  1  0
 13 17  1  0
 15 18  1  0
 16 18  1  0
 18 19  1  0
 20 17  1  1
 19 21  2  0
 19 22  1  0
 20 23  1  0
 20 24  1  0
 23 25  1  0
 24 26  1  0
 25 27  2  0
 25 28  1  0
 26 29  2  0
 26 30  1  0
 28 31  2  0
 28 32  1  0
 29 33  1  0
 30 34  2  0
 31 35  1  0
 32 36  2  0
 31 37  1  0
 33 38  2  0
 34 38  1  0
 36 39  1  0
 37 39  2  0
M  END
