x0426-x2608-x2776-x0820
     RDKit          3D

 61 68  0  0  0  0  0  0  0  0999 V2000
    6.2670   -1.5830   22.3120 N   0  0  0  0  0  0  0  0  0  0  0  0
    5.8650   -2.5510   21.4420 C   0  0  0  0  0  0  0  0  0  0  0  0
    4.7910   -2.9230   20.9360 O   0  0  0  0  0  0  0  0  0  0  0  0
    6.5610   -0.0820   21.9390 C   0  0  1  0  0  0  0  0  0  0  0  0
    6.9560   -2.7790   22.8390 C   0  0  2  0  0  0  0  0  0  0  0  0
    7.1180   -3.1580   21.2840 C   0  0  1  0  0  0  0  0  0  0  0  0
    7.7130    0.7620   22.3310 C   0  0  0  0  0  0  0  0  0  0  0  0
    6.0300    0.3480   20.5500 C   0  0  0  0  0  0  0  0  0  0  0  0
    6.2280   -3.7240   23.9670 C   0  0  0  0  0  0  0  0  0  0  0  0
    7.0870   -4.4420   20.5190 C   0  0  0  0  0  0  0  0  0  0  0  0
    7.3210    2.1170   22.6130 N   0  0  0  0  0  0  0  0  0  0  0  0
    9.0930    0.3630   22.4440 N   0  0  0  0  0  0  0  0  0  0  0  0
    4.8170    0.9180   20.3640 C   0  0  0  0  0  0  0  0  0  0  0  0
    6.9150    0.1370   19.3120 C   0  0  0  0  0  0  0  0  0  0  0  0
    6.7930   -4.1100   25.2150 C   0  0  0  0  0  0  0  0  0  0  0  0
    4.9140   -4.1950   23.7170 C   0  0  0  0  0  0  0  0  0  0  0  0
    3.8560    1.1510   21.3900 C   0  0  0  0  0  0  0  0  0  0  0  0
    6.6010    0.5160   17.9220 N   0  0  0  0  0  0  0  0  0  0  0  0
    4.4160    1.3490   18.9640 C   0  0  0  0  0  0  0  0  0  0  0  0
    8.0610    3.3130   22.9220 C   0  0  0  0  0  0  0  0  0  0  0  0
   10.3770    1.4090   22.9940 S   0  0  1  0  0  0  0  0  0  0  0  0
    6.0350   -4.8790   26.1130 C   0  0  0  0  0  0  0  0  0  0  0  0
    4.2220   -4.9690   24.6550 C   0  0  0  0  0  0  0  0  0  0  0  0
    8.1050   -3.7850   25.6750 C   0  0  0  0  0  0  0  0  0  0  0  0
    9.6160    2.0730   24.4390 C   0  0  0  0  0  0  0  0  0  0  0  0
    4.2880    2.1100   22.2990 C   0  0  0  0  0  0  0  0  0  0  0  0
    5.3080    1.1590   17.7460 C   0  0  0  0  0  0  0  0  0  0  0  0
    9.2330    3.3500   23.8490 C   0  0  0  0  0  0  0  0  0  0  0  0
    7.6340    4.6190   22.2730 C   0  0  0  0  0  0  0  0  0  0  0  0
   11.9450    0.9330   23.7560 C   0  0  2  0  0  0  0  0  0  0  0  0
   10.5450    2.8880   22.0880 C   0  0  0  0  0  0  0  0  0  0  0  0
    4.7600   -5.3130   25.8590 C   0  0  0  0  0  0  0  0  0  0  0  0
    6.4730   -5.3580   27.4900 C   0  0  0  0  0  0  0  0  0  0  0  0
    8.7010   -4.2020   27.0320 C   0  0  0  0  0  0  0  0  0  0  0  0
    3.1560    2.6500   23.1020 N   0  0  0  0  0  0  0  0  0  0  0  0
   13.1110    0.9140   22.8190 C   0  0  0  0  0  0  0  0  0  0  0  0
    9.8810    4.5130   24.0660 C   0  0  0  0  0  0  0  0  0  0  0  0
    8.3580    5.9280   22.5370 C   0  0  0  0  0  0  0  0  0  0  0  0
   11.8480   -0.3660   24.5140 C   0  0  2  0  0  0  0  0  0  0  0  0
    7.8600   -5.0150   27.9920 C   0  0  0  0  0  0  0  0  0  0  0  0
   13.0140   -1.2700   24.8580 C   0  0  0  0  0  0  0  0  0  0  0  0
    2.2520    1.8770   23.7540 C   0  0  0  0  0  0  0  0  0  0  0  0
    9.5700    5.8340   23.5070 C   0  0  0  0  0  0  0  0  0  0  0  0
   10.9400   -1.1570   23.7810 C   0  0  0  0  0  0  0  0  0  0  0  0
   10.4260    6.8940   23.9240 O   0  0  0  0  0  0  0  0  0  0  0  0
   12.5410   -2.5270   24.9870 O   0  0  0  0  0  0  0  0  0  0  0  0
    2.2580    0.6380   23.7310 O   0  0  0  0  0  0  0  0  0  0  0  0
   11.4160   -1.6280   22.5730 C   0  0  0  0  0  0  0  0  0  0  0  0
    9.5780   -1.4140   24.3090 C   0  0  0  0  0  0  0  0  0  0  0  0
    1.2110    2.6220   24.5250 C   0  0  0  0  0  0  0  0  0  0  0  0
   11.6170    6.5870   24.6570 C   0  0  0  0  0  0  0  0  0  0  0  0
   13.4070   -3.2930   25.7800 C   0  0  0  0  0  0  0  0  0  0  0  0
   10.6250   -2.3680   21.8000 C   0  0  0  0  0  0  0  0  0  0  0  0
    8.9090   -2.1620   23.4280 C   0  0  0  0  0  0  0  0  0  0  0  0
    1.4780    3.7960   25.2300 C   0  0  0  0  0  0  0  0  0  0  0  0
   -0.0870    2.1410   24.5510 C   0  0  0  0  0  0  0  0  0  0  0  0
    2.7120    4.3490   25.2690 F   0  0  0  0  0  0  0  0  0  0  0  0
    9.3810   -2.6120   22.2600 C   0  0  0  0  0  0  0  0  0  0  0  0
   -1.1360    2.8040   25.2660 C   0  0  0  0  0  0  0  0  0  0  0  0
    0.4600    4.4410   25.9240 C   0  0  0  0  0  0  0  0  0  0  0  0
   -0.8490    3.9680   25.9570 C   0  0  0  0  0  0  0  0  0  0  0  0
  1  2  1  0
  2  3  2  0
  1  4  1  0
  1  5  1  0
  2  6  1  0
  5  6  1  0
  4  7  1  6
  4  8  1  0
  5  9  1  1
  6 10  1  1
  7 11  1  0
  7 12  2  0
  8 13  1  0
  8 14  2  0
  9 15  1  0
  9 16  2  0
 13 17  1  0
 14 18  1  0
 13 19  2  0
 11 20  1  0
 12 21  1  0
 15 22  2  0
 16 23  1  0
 15 24  1  0
 21 25  1  0
 17 26  1  0
 18 27  2  0
 19 27  1  0
 20 28  2  0
 25 28  1  0
 20 29  1  0
 21 30  1  0
 21 31  1  6
 22 32  1  0
 23 32  2  0
 22 33  1  0
 24 34  2  0
 26 35  1  0
 30 36  1  6
 28 37  1  0
 29 38  2  0
 30 39  1  0
 33 40  2  0
 34 40  1  0
 39 41  1  6
 35 42  1  0
 37 43  2  0
 38 43  1  0
 39 44  1  0
 43 45  1  0
 41 46  1  0
 42 47  2  0
 44 48  2  0
 44 49  1  0
 42 50  1  0
 45 51  1  0
 46 52  1  0
 48 53  1  0
 49 54  2  0
 50 55  2  0
 50 56  1  0
 55 57  1  0
 53 58  2  0
 54 58  1  0
 56 59  2  0
 55 60  1  0
 59 61  1  0
 60 61  2  0
M  END
