x0426-x3080
     RDKit          3D

 37 40  0  0  0  0  0  0  0  0999 V2000
    9.9730   -0.3140   23.4040 N   0  0  0  0  0  0  0  0  0  0  0  0
   10.7930    0.7870   23.5550 C   0  0  0  0  0  0  0  0  0  0  0  0
    9.8350   -0.9630   22.1300 C   0  0  0  0  0  0  0  0  0  0  0  0
    8.8260   -0.7070   24.5750 S   0  0  0  0  0  0  0  0  0  0  0  0
    7.6170   -1.0370   23.8590 O   0  0  0  0  0  0  0  0  0  0  0  0
    8.8970   -0.0760   21.3200 C   0  0  0  0  0  0  0  0  0  0  0  0
    8.8500    0.2820   25.6270 O   0  0  0  0  0  0  0  0  0  0  0  0
    9.3840   -2.1750   25.1930 C   0  0  0  0  0  0  0  0  0  0  0  0
    9.0620    1.1610   21.2320 O   0  0  0  0  0  0  0  0  0  0  0  0
    7.8750   -0.7600   20.7160 N   0  0  0  0  0  0  0  0  0  0  0  0
   10.7600   -2.3490   25.2720 C   0  0  0  0  0  0  0  0  0  0  0  0
    8.4330   -3.1270   25.6000 C   0  0  0  0  0  0  0  0  0  0  0  0
    6.9270   -0.1370   19.9290 C   0  0  0  0  0  0  0  0  0  0  0  0
   11.6100   -1.3810   24.8470 N   0  0  0  0  0  0  0  0  0  0  0  0
   11.2910   -3.6560   25.8590 C   0  0  0  0  0  0  0  0  0  0  0  0
    8.9120   -4.4390   26.1740 C   0  0  0  0  0  0  0  0  0  0  0  0
    5.8330    0.5110   20.4590 C   0  0  0  0  0  0  0  0  0  0  0  0
    7.0930   -0.1610   18.5680 C   0  0  0  0  0  0  0  0  0  0  0  0
   12.8160   -3.8200   25.9780 C   0  0  0  0  0  0  0  0  0  0  0  0
   12.9380   -1.5290   24.9340 C   0  0  0  0  0  0  0  0  0  0  0  0
   10.3910   -4.6580   26.2860 C   0  0  0  0  0  0  0  0  0  0  0  0
    6.0850    0.5290   17.7060 N   0  0  0  0  0  0  0  0  0  0  0  0
    4.8650    1.1630   19.7450 C   0  0  0  0  0  0  0  0  0  0  0  0
   13.5840   -2.7630   25.5150 C   0  0  0  0  0  0  0  0  0  0  0  0
    3.7460    1.8110   20.5030 C   0  0  0  0  0  0  0  0  0  0  0  0
    5.0540    1.1380   18.3460 C   0  0  0  0  0  0  0  0  0  0  0  0
    4.0290    1.6230   22.0050 C   0  0  0  0  0  0  0  0  0  0  0  0
    3.1240    2.3620   22.8680 N   0  0  0  0  0  0  0  0  0  0  0  0
    2.2340    1.7110   23.7070 C   0  0  0  0  0  0  0  0  0  0  0  0
    2.2410    0.4880   23.8490 O   0  0  0  0  0  0  0  0  0  0  0  0
    1.1810    2.5690   24.5010 C   0  0  0  0  0  0  0  0  0  0  0  0
    1.5290    3.7540   25.1560 C   0  0  0  0  0  0  0  0  0  0  0  0
   -0.1380    2.1040   24.5340 C   0  0  0  0  0  0  0  0  0  0  0  0
    2.7860    4.2250   25.1430 F   0  0  0  0  0  0  0  0  0  0  0  0
   -1.1090    2.8270   25.2250 C   0  0  0  0  0  0  0  0  0  0  0  0
    0.5600    4.4790   25.8480 C   0  0  0  0  0  0  0  0  0  0  0  0
   -0.7480    4.0120   25.8760 C   0  0  0  0  0  0  0  0  0  0  0  0
  1  2  1  0
  1  3  1  0
  4  1  1  0
  4  5  2  0
  3  6  1  0
  4  7  2  0
  4  8  1  0
  6  9  2  0
  6 10  1  0
  8 11  1  0
  8 12  2  0
 10 13  1  0
 11 14  2  0
 11 15  1  0
 12 16  1  0
 13 17  2  0
 13 18  1  0
 15 19  2  0
 14 20  1  0
 15 21  1  0
 16 21  2  0
 18 22  2  0
 17 23  1  0
 19 24  1  0
 20 24  2  0
 23 25  1  0
 22 26  1  0
 23 26  2  0
 25 27  1  0
 27 28  1  0
 28 29  1  0
 29 30  2  0
 29 31  1  0
 31 32  2  0
 31 33  1  0
 32 34  1  0
 33 35  2  0
 32 36  1  0
 35 37  1  0
 36 37  2  0
M  END
