x0426-x2193
     RDKit          3D

 36 39  0  0  0  0  0  0  0  0999 V2000
    2.3980    1.7950   23.8200 C   0  0  0  0  0  0  0  0  0  0  0  0
    3.4860    2.5450   23.4170 N   0  0  0  0  0  0  0  0  0  0  0  0
    4.3840    2.2120   22.3070 C   0  0  2  0  0  0  0  0  0  0  0  0
    2.2850    0.5820   23.6500 O   0  0  0  0  0  0  0  0  0  0  0  0
    1.2820    2.5720   24.5410 C   0  0  0  0  0  0  0  0  0  0  0  0
    1.5100    3.8020   25.2280 C   0  0  0  0  0  0  0  0  0  0  0  0
   -0.1520    1.9750   24.5110 C   0  0  0  0  0  0  0  0  0  0  0  0
    3.7810    1.1490   21.3610 C   0  0  0  0  0  0  0  0  0  0  0  0
    2.7440    4.3320   25.2650 F   0  0  0  0  0  0  0  0  0  0  0  0
    5.7980    1.8910   22.8490 C   0  0  0  0  0  0  0  0  0  0  0  0
   -1.2220    2.7980   25.2520 C   0  0  0  0  0  0  0  0  0  0  0  0
    0.5120    4.5180   25.8880 C   0  0  0  0  0  0  0  0  0  0  0  0
    6.9030    2.8480   22.3280 C   0  0  0  0  0  0  0  0  0  0  0  0
   -0.9300    3.9900   25.9010 C   0  0  0  0  0  0  0  0  0  0  0  0
    4.6890    0.8870   20.1930 C   0  0  0  0  0  0  0  0  0  0  0  0
    8.1360    2.7100   23.1180 N   0  0  0  0  0  0  0  0  0  0  0  0
    5.7230   -0.0530   20.2720 C   0  0  0  0  0  0  0  0  0  0  0  0
    4.5400    1.5710   18.9890 C   0  0  0  0  0  0  0  0  0  0  0  0
    9.3840    1.8530   22.4210 S   0  0  2  0  0  0  0  0  0  0  0  0
    6.6230   -0.2810   19.0710 C   0  0  0  0  0  0  0  0  0  0  0  0
    5.4280    1.3540   17.7810 C   0  0  0  0  0  0  0  0  0  0  0  0
   10.8950    2.6650   22.9180 C   0  0  0  0  0  0  0  0  0  0  0  0
    9.2060    1.8340   21.0110 O   0  0  0  0  0  0  0  0  0  0  0  0
    6.4900    0.3700   17.9070 N   0  0  0  0  0  0  0  0  0  0  0  0
    9.3310    0.1950   23.0660 C   0  0  0  0  0  0  0  0  0  0  0  0
    8.6480    0.0000   24.3800 C   0  0  0  0  0  0  0  0  0  0  0  0
    9.8760   -0.9090   22.4140 C   0  0  0  0  0  0  0  0  0  0  0  0
    8.5750   -1.2650   24.9180 C   0  0  0  0  0  0  0  0  0  0  0  0
    9.7650   -2.1720   23.0160 C   0  0  0  0  0  0  0  0  0  0  0  0
    9.1180   -2.3510   24.2650 C   0  0  0  0  0  0  0  0  0  0  0  0
    8.9850   -3.5820   24.9090 N   0  0  0  0  0  0  0  0  0  0  0  0
    8.0500   -3.8090   26.0590 C   0  0  0  0  0  0  0  0  0  0  0  0
    9.5750   -4.6740   24.1750 C   0  0  0  0  0  0  0  0  0  0  0  0
    8.1850   -5.0690   26.6770 C   0  0  0  0  0  0  0  0  0  0  0  0
    9.1570   -5.8170   24.7770 C   0  0  0  0  0  0  0  0  0  0  0  0
    9.2510   -5.8790   26.0990 N   0  0  0  0  0  0  0  0  0  0  0  0
  1  2  1  0
  2  3  1  0
  1  4  2  0
  1  5  1  0
  5  6  2  0
  5  7  1  0
  3  8  1  1
  6  9  1  0
  3 10  1  0
  7 11  2  0
  6 12  1  0
 10 13  1  0
 11 14  1  0
 12 14  2  0
  8 15  1  0
 13 16  1  0
 15 17  2  0
 15 18  1  0
 16 19  2  0
 17 20  1  0
 18 21  2  0
 19 22  1  6
 19 23  2  0
 20 24  2  0
 21 24  1  0
 19 25  1  0
 25 26  2  0
 25 27  1  0
 26 28  1  0
 27 29  2  0
 28 30  2  0
 29 30  1  0
 30 31  1  0
 31 32  1  0
 31 33  1  0
 32 34  1  0
 33 35  1  0
 34 36  1  0
 35 36  1  0
M  END
