x0426-x0995-x1425-x2694
     RDKit          3D

 59 64  0  0  0  0  0  0  0  0999 V2000
    7.5680   -0.9290   21.7750 N   0  0  0  0  0  0  0  0  0  0  0  0
    7.0450    0.4690   21.6450 C   0  0  1  0  0  0  0  0  0  0  0  0
    8.0560    1.5650   21.7780 C   0  0  0  0  0  0  0  0  0  0  0  0
    6.5960   -1.9090   21.9830 C   0  0  0  0  0  0  0  0  0  0  0  0
    8.7280   -1.0750   22.5940 C   0  0  0  0  0  0  0  0  0  0  0  0
    6.3460    0.7660   20.3250 C   0  0  0  0  0  0  0  0  0  0  0  0
    8.7700   -1.1680   23.9700 N   0  0  0  0  0  0  0  0  0  0  0  0
    9.9850   -1.1570   22.1290 C   0  0  0  0  0  0  0  0  0  0  0  0
    7.1970   -3.3140   22.2810 C   0  0  2  0  0  0  0  0  0  0  0  0
    7.8040    2.5310   22.6050 N   0  0  0  0  0  0  0  0  0  0  0  0
    9.0740    1.5520   21.1110 O   0  0  0  0  0  0  0  0  0  0  0  0
    5.2790    1.6470   20.1710 C   0  0  0  0  0  0  0  0  0  0  0  0
    6.9140    0.0520   19.2940 C   0  0  0  0  0  0  0  0  0  0  0  0
   10.1330   -1.3180   24.3720 O   0  0  0  0  0  0  0  0  0  0  0  0
   10.9630   -1.3190   23.2740 C   0  0  0  0  0  0  0  0  0  0  0  0
    6.6810   -4.4090   21.4590 N   0  0  0  0  0  0  0  0  0  0  0  0
    7.1570   -3.6460   23.6310 C   0  0  0  0  0  0  0  0  0  0  0  0
   12.3780   -1.4370   23.2780 C   0  0  0  0  0  0  0  0  0  0  0  0
    4.7690    2.3280   21.1960 C   0  0  0  0  0  0  0  0  0  0  0  0
    6.1810   -4.1180   20.2030 C   0  0  0  0  0  0  0  0  0  0  0  0
    6.3420    0.2520   17.9510 N   0  0  0  0  0  0  0  0  0  0  0  0
    4.7350    1.8360   18.9140 C   0  0  0  0  0  0  0  0  0  0  0  0
    8.6490    3.5880   22.9580 C   0  0  0  0  0  0  0  0  0  0  0  0
    5.8120   -4.1360   24.0010 N   0  0  0  0  0  0  0  0  0  0  0  0
    6.3130   -5.6620   22.1090 C   0  0  0  0  0  0  0  0  0  0  0  0
   12.9390   -0.0450   23.4550 C   0  0  0  0  0  0  0  0  0  0  0  0
   12.8710   -2.0120   21.9330 C   0  0  0  0  0  0  0  0  0  0  0  0
   12.8570   -2.3290   24.4470 C   0  0  0  0  0  0  0  0  0  0  0  0
    3.9450    1.5270   22.1860 C   0  0  0  0  0  0  0  0  0  0  0  0
    5.1140   -4.5610   19.8440 O   0  0  0  0  0  0  0  0  0  0  0  0
    7.0460   -3.2750   19.2840 C   0  0  0  0  0  0  0  0  0  0  0  0
    5.2260    1.1760   17.8090 C   0  0  0  0  0  0  0  0  0  0  0  0
    9.8620    3.4010   23.5950 C   0  0  0  0  0  0  0  0  0  0  0  0
    8.2340    4.8910   22.6430 C   0  0  0  0  0  0  0  0  0  0  0  0
    5.0910   -3.6390   25.0720 C   0  0  0  0  0  0  0  0  0  0  0  0
    5.4150   -5.3780   23.3030 C   0  0  0  0  0  0  0  0  0  0  0  0
   10.4240    2.0510   23.9880 C   0  0  0  0  0  0  0  0  0  0  0  0
    3.2000    2.2520   23.2250 N   0  0  0  0  0  0  0  0  0  0  0  0
   10.6160    4.5290   23.8930 C   0  0  0  0  0  0  0  0  0  0  0  0
    9.0290    6.0000   22.9700 C   0  0  0  0  0  0  0  0  0  0  0  0
    5.5620   -2.3910   25.8410 C   0  0  0  0  0  0  0  0  0  0  0  0
    3.8970   -4.2490   25.5070 C   0  0  0  0  0  0  0  0  0  0  0  0
    2.1770    1.6530   23.9230 C   0  0  0  0  0  0  0  0  0  0  0  0
   10.2540    5.8260   23.6150 C   0  0  0  0  0  0  0  0  0  0  0  0
    4.7210   -1.9160   26.9900 C   0  0  0  0  0  0  0  0  0  0  0  0
    3.0940   -3.8160   26.5820 C   0  0  0  0  0  0  0  0  0  0  0  0
   11.1250    6.8130   23.9960 O   0  0  0  0  0  0  0  0  0  0  0  0
    2.0630    0.2460   24.0080 O   0  0  0  0  0  0  0  0  0  0  0  0
    1.1450    2.5870   24.6410 C   0  0  0  0  0  0  0  0  0  0  0  0
    3.4380   -2.6710   27.3590 C   0  0  0  0  0  0  0  0  0  0  0  0
   11.8610    6.6270   25.2010 C   0  0  0  0  0  0  0  0  0  0  0  0
    2.7160   -2.1860   28.4140 O   0  0  0  0  0  0  0  0  0  0  0  0
    1.4720    3.8030   25.2400 C   0  0  0  0  0  0  0  0  0  0  0  0
   -0.1540    2.1030   24.6410 C   0  0  0  0  0  0  0  0  0  0  0  0
    2.7290    4.2900   25.2500 F   0  0  0  0  0  0  0  0  0  0  0  0
    1.2890   -2.3270   28.3430 C   0  0  0  0  0  0  0  0  0  0  0  0
   -1.1570    2.8480   25.2540 C   0  0  0  0  0  0  0  0  0  0  0  0
    0.4690    4.5550   25.8580 C   0  0  0  0  0  0  0  0  0  0  0  0
   -0.8650    4.0680   25.8630 C   0  0  0  0  0  0  0  0  0  0  0  0
  1  2  1  0
  2  3  1  6
  1  4  1  0
  1  5  1  0
  2  6  1  0
  5  7  2  0
  5  8  1  0
  9  4  1  1
  3 10  1  0
  3 11  2  0
  6 12  1  0
  6 13  2  0
  7 14  1  0
  8 15  2  0
 14 15  1  0
  9 16  1  0
  9 17  1  0
 15 18  1  0
 12 19  1  0
 16 20  1  0
 13 21  1  0
 12 22  2  0
 10 23  1  0
 17 24  1  0
 16 25  1  0
 18 26  1  0
 18 27  1  0
 18 28  1  0
 19 29  1  0
 20 30  2  0
 20 31  1  0
 21 32  2  0
 22 32  1  0
 23 33  2  0
 23 34  1  0
 24 35  1  0
 24 36  1  0
 25 36  1  0
 33 37  1  0
 29 38  1  0
 33 39  1  0
 34 40  2  0
 35 41  2  0
 35 42  1  0
 38 43  1  0
 39 44  2  0
 40 44  1  0
 41 45  1  0
 42 46  2  0
 44 47  1  0
 43 48  2  0
 43 49  1  0
 45 50  2  0
 46 50  1  0
 47 51  1  0
 50 52  1  0
 49 53  2  0
 49 54  1  0
 53 55  1  0
 52 56  1  0
 54 57  2  0
 53 58  1  0
 57 59  1  0
 58 59  2  0
M  END
