x0426-x0691
     RDKit          3D

 38 41  0  0  0  0  0  0  0  0999 V2000
    4.1670   -6.9380   25.9070 O   0  0  0  0  0  0  0  0  0  0  0  0
    4.8270   -5.6530   25.8260 S   0  0  0  0  0  0  0  0  0  0  0  0
    5.8860   -5.2880   26.7310 O   0  0  0  0  0  0  0  0  0  0  0  0
    3.5490   -4.4340   25.9640 C   0  0  0  0  0  0  0  0  0  0  0  0
    5.4630   -5.4770   24.2700 N   0  0  0  0  0  0  0  0  0  0  0  0
    3.7510   -3.0580   25.9200 C   0  0  0  0  0  0  0  0  0  0  0  0
    2.0720   -4.8270   26.1550 C   0  0  0  0  0  0  0  0  0  0  0  0
    4.8350   -6.1380   23.2740 C   0  0  0  0  0  0  0  0  0  0  0  0
    6.1270   -4.3470   23.9670 C   0  0  0  0  0  0  0  0  0  0  0  0
    2.7150   -2.0990   26.0360 C   0  0  0  0  0  0  0  0  0  0  0  0
    1.0790   -3.8460   26.2670 C   0  0  0  0  0  0  0  0  0  0  0  0
    5.7500   -6.3410   22.2350 C   0  0  0  0  0  0  0  0  0  0  0  0
    7.1300   -4.4640   23.0070 C   0  0  0  0  0  0  0  0  0  0  0  0
    3.1070   -0.8080   25.9650 O   0  0  0  0  0  0  0  0  0  0  0  0
    1.3950   -2.4930   26.2070 C   0  0  0  0  0  0  0  0  0  0  0  0
    6.5960   -5.1710   21.8360 N   0  0  0  0  0  0  0  0  0  0  0  0
    6.2800   -4.5970   20.5900 C   0  0  0  0  0  0  0  0  0  0  0  0
    2.2490    0.0080   25.1510 C   0  0  0  0  0  0  0  0  0  0  0  0
    5.3160   -5.0380   19.9930 O   0  0  0  0  0  0  0  0  0  0  0  0
    7.1100   -3.4570   19.9820 C   0  0  0  0  0  0  0  0  0  0  0  0
    2.8500    0.7510   24.0660 N   0  0  0  0  0  0  0  0  0  0  0  0
    2.4110    2.0940   23.7340 C   0  0  0  0  0  0  0  0  0  0  0  0
    3.0460    2.7700   22.7120 N   0  0  0  0  0  0  0  0  0  0  0  0
    1.3060    2.7310   24.4920 C   0  0  0  0  0  0  0  0  0  0  0  0
    4.0950    2.1280   22.0910 C   0  0  0  0  0  0  0  0  0  0  0  0
    1.5030    3.9050   25.2390 C   0  0  0  0  0  0  0  0  0  0  0  0
   -0.1140    2.1590   24.5090 C   0  0  0  0  0  0  0  0  0  0  0  0
    3.6610    1.1030   21.0770 C   0  0  0  0  0  0  0  0  0  0  0  0
    2.7170    4.4760   25.2830 F   0  0  0  0  0  0  0  0  0  0  0  0
   -1.0950    2.8170   25.2430 C   0  0  0  0  0  0  0  0  0  0  0  0
    0.4720    4.5270   25.9620 C   0  0  0  0  0  0  0  0  0  0  0  0
   -0.7990    3.9680   25.9450 C   0  0  0  0  0  0  0  0  0  0  0  0
    4.6720    0.8700   19.9850 C   0  0  0  0  0  0  0  0  0  0  0  0
    5.7270   -0.0310   20.1650 C   0  0  0  0  0  0  0  0  0  0  0  0
    4.5690    1.5500   18.7730 C   0  0  0  0  0  0  0  0  0  0  0  0
    6.6250   -0.2080   19.1180 C   0  0  0  0  0  0  0  0  0  0  0  0
    5.5090    1.3000   17.8060 C   0  0  0  0  0  0  0  0  0  0  0  0
    6.5310    0.4410   17.9430 N   0  0  0  0  0  0  0  0  0  0  0  0
  1  2  2  0
  2  3  2  0
  2  4  1  0
  2  5  1  0
  4  6  2  0
  4  7  1  0
  5  8  1  0
  5  9  1  0
  6 10  1  0
  7 11  2  0
  8 12  1  0
  9 13  1  0
 10 14  1  0
 10 15  2  0
 11 15  1  0
 12 16  1  0
 13 16  1  0
 16 17  1  0
 14 18  1  0
 17 19  2  0
 17 20  1  0
 18 21  1  0
 21 22  2  3
 22 23  1  0
 22 24  1  0
 23 25  1  0
 24 26  2  0
 24 27  1  0
 25 28  1  0
 26 29  1  0
 27 30  2  0
 26 31  1  0
 30 32  1  0
 31 32  2  0
 28 33  1  0
 33 34  2  0
 33 35  1  0
 34 36  1  0
 35 37  2  0
 36 38  2  0
 37 38  1  0
M  END
