x0426-x2754
     RDKit          3D

 39 42  0  0  0  0  0  0  0  0999 V2000
    5.0590   -2.6390   25.3900 C   0  0  0  0  0  0  0  0  0  0  0  0
    3.7050   -2.8050   25.4080 N   0  0  0  0  0  0  0  0  0  0  0  0
    2.7940   -1.6760   25.4590 C   0  0  0  0  0  0  0  0  0  0  0  0
    5.6560   -3.1600   26.5340 N   0  0  0  0  0  0  0  0  0  0  0  0
    5.6330   -3.1900   24.1080 C   0  0  0  0  0  0  0  0  0  0  0  0
    5.1950   -2.6150   27.7200 C   0  0  0  0  0  0  0  0  0  0  0  0
    7.0930   -2.8980   23.6900 C   0  0  0  0  0  0  0  0  0  0  0  0
    5.7500   -4.7220   23.9400 C   0  0  0  0  0  0  0  0  0  0  0  0
    6.9750   -3.6300   26.6290 C   0  0  0  0  0  0  0  0  0  0  0  0
    3.1770   -0.6130   24.4040 C   0  0  0  0  0  0  0  0  0  0  0  0
    7.0990   -2.8970   22.2020 C   0  0  0  0  0  0  0  0  0  0  0  0
    6.1760   -5.1940   22.5460 C   0  0  0  0  0  0  0  0  0  0  0  0
    7.1880   -4.8170   27.3250 C   0  0  0  0  0  0  0  0  0  0  0  0
    8.0850   -3.0120   26.0940 C   0  0  0  0  0  0  0  0  0  0  0  0
    2.2810    0.5070   24.6010 N   0  0  0  0  0  0  0  0  0  0  0  0
    6.4460   -4.0650   21.6540 N   0  0  0  0  0  0  0  0  0  0  0  0
    8.4480   -5.3750   27.4870 C   0  0  0  0  0  0  0  0  0  0  0  0
    9.3650   -3.5670   26.2450 C   0  0  0  0  0  0  0  0  0  0  0  0
    6.1220   -4.1660   20.3160 C   0  0  0  0  0  0  0  0  0  0  0  0
    2.3210    1.7790   24.0980 C   0  0  0  0  0  0  0  0  0  0  0  0
    9.5690   -4.7550   26.9450 C   0  0  0  0  0  0  0  0  0  0  0  0
    5.2600   -4.9400   19.9630 O   0  0  0  0  0  0  0  0  0  0  0  0
    6.9300   -3.3060   19.3490 C   0  0  0  0  0  0  0  0  0  0  0  0
    3.2670    2.4230   23.1840 N   0  0  0  0  0  0  0  0  0  0  0  0
    1.1710    2.6820   24.6470 C   0  0  0  0  0  0  0  0  0  0  0  0
    4.2490    1.6900   22.3800 C   0  0  0  0  0  0  0  0  0  0  0  0
    1.4450    3.9240   25.2040 C   0  0  0  0  0  0  0  0  0  0  0  0
   -0.1390    2.1950   24.5770 C   0  0  0  0  0  0  0  0  0  0  0  0
    3.6900    1.2530   21.1040 C   0  0  0  0  0  0  0  0  0  0  0  0
    2.7000    4.3960   25.2750 F   0  0  0  0  0  0  0  0  0  0  0  0
   -1.1810    2.9720   25.0780 C   0  0  0  0  0  0  0  0  0  0  0  0
    0.4090    4.7030   25.7050 C   0  0  0  0  0  0  0  0  0  0  0  0
   -0.8940    4.2210   25.6380 C   0  0  0  0  0  0  0  0  0  0  0  0
    4.6860    0.9820   20.0090 C   0  0  0  0  0  0  0  0  0  0  0  0
    5.7620    0.1120   20.1900 C   0  0  0  0  0  0  0  0  0  0  0  0
    4.5390    1.6130   18.7750 C   0  0  0  0  0  0  0  0  0  0  0  0
    6.6390   -0.0840   19.1200 C   0  0  0  0  0  0  0  0  0  0  0  0
    5.4620    1.3500   17.7800 C   0  0  0  0  0  0  0  0  0  0  0  0
    6.5040    0.5140   17.9260 N   0  0  0  0  0  0  0  0  0  0  0  0
  1  2  2  3
  2  3  1  0
  1  4  1  0
  1  5  1  0
  4  6  1  0
  5  7  1  0
  5  8  1  0
  4  9  1  0
  3 10  1  0
  7 11  1  0
  8 12  1  0
  9 13  2  0
  9 14  1  0
 10 15  1  0
 11 16  1  0
 12 16  1  0
 13 17  1  0
 14 18  2  0
 16 19  1  0
 15 20  2  3
 17 21  2  0
 18 21  1  0
 19 22  2  0
 19 23  1  0
 20 24  1  0
 20 25  1  0
 24 26  1  0
 25 27  2  0
 25 28  1  0
 26 29  1  0
 27 30  1  0
 28 31  2  0
 27 32  1  0
 31 33  1  0
 32 33  2  0
 29 34  1  0
 34 35  2  0
 34 36  1  0
 35 37  1  0
 36 38  2  0
 37 39  2  0
 38 39  1  0
M  END
