x0426-x3110-x1493-x0946
     RDKit          3D

 60 65  0  0  0  0  0  0  0  0999 V2000
    7.8550    1.3520   23.3280 N   0  0  0  0  0  0  0  0  0  0  0  0
    8.6140    2.5770   23.7060 C   0  0  0  0  0  0  0  0  0  0  0  0
   10.1130    2.5640   23.4150 C   0  0  0  0  0  0  0  0  0  0  0  0
    7.6760    0.8740   21.9470 C   0  0  0  0  0  0  0  0  0  0  0  0
    8.3970    1.3470   21.0320 O   0  0  0  0  0  0  0  0  0  0  0  0
    6.5350   -0.2120   21.7410 C   0  0  2  0  0  0  0  0  0  0  0  0
    6.9580   -1.5730   22.0070 C   0  0  2  0  0  0  0  0  0  0  0  0
    5.9950    0.2890   20.4010 C   0  0  0  0  0  0  0  0  0  0  0  0
   10.9190    3.7170   23.3900 C   0  0  0  0  0  0  0  0  0  0  0  0
   10.7320    1.2080   23.1280 C   0  0  0  0  0  0  0  0  0  0  0  0
   10.3270    5.1250   23.6630 C   0  0  0  0  0  0  0  0  0  0  0  0
    6.2150   -2.7900   21.3150 C   0  0  0  0  0  0  0  0  0  0  0  0
    6.2670   -2.3710   23.1470 C   0  0  0  0  0  0  0  0  0  0  0  0
    4.7950    0.9890   20.1610 C   0  0  0  0  0  0  0  0  0  0  0  0
    6.8740   -0.0120   19.3650 C   0  0  0  0  0  0  0  0  0  0  0  0
    8.4530   -1.6570   22.5710 C   0  0  0  0  0  0  0  0  0  0  0  0
   12.0820    1.1060   22.8440 C   0  0  0  0  0  0  0  0  0  0  0  0
   12.2780    3.6160   23.1060 C   0  0  0  0  0  0  0  0  0  0  0  0
   13.2360    4.7780   23.0540 C   0  0  0  0  0  0  0  0  0  0  0  0
    4.9720   -3.0760   20.8240 O   0  0  0  0  0  0  0  0  0  0  0  0
    7.2170   -3.8410   21.4700 C   0  0  1  0  0  0  0  0  0  0  0  0
    3.7330    1.3750   21.1750 C   0  0  0  0  0  0  0  0  0  0  0  0
    9.1380    5.3870   22.8690 N   0  0  0  0  0  0  0  0  0  0  0  0
   10.2700    5.4000   24.8550 O   0  0  0  0  0  0  0  0  0  0  0  0
   11.2140    6.0820   23.1630 O   0  0  0  0  0  0  0  0  0  0  0  0
    6.5700    0.4220   17.9880 N   0  0  0  0  0  0  0  0  0  0  0  0
    4.5070    1.4040   18.8610 C   0  0  0  0  0  0  0  0  0  0  0  0
    9.5110   -2.1020   21.7870 C   0  0  0  0  0  0  0  0  0  0  0  0
    8.7540   -1.2690   23.8860 C   0  0  0  0  0  0  0  0  0  0  0  0
   12.8630    2.3900   22.8410 C   0  0  0  0  0  0  0  0  0  0  0  0
    6.5250   -3.9480   22.7990 C   0  0  1  0  0  0  0  0  0  0  0  0
   13.1860    5.3940   21.6550 C   0  0  0  0  0  0  0  0  0  0  0  0
    7.0680   -4.7460   20.3150 C   0  0  0  0  0  0  0  0  0  0  0  0
    4.2460    1.7630   22.4030 C   0  0  0  0  0  0  0  0  0  0  0  0
    5.3150    1.1770   17.7620 C   0  0  0  0  0  0  0  0  0  0  0  0
   10.7450   -2.1530   22.2580 C   0  0  0  0  0  0  0  0  0  0  0  0
   10.0570   -1.3110   24.4140 C   0  0  0  0  0  0  0  0  0  0  0  0
    7.1160   -4.6820   23.8130 C   0  0  0  0  0  0  0  0  0  0  0  0
    5.2640   -4.6130   22.3240 N   0  0  0  0  0  0  0  0  0  0  0  0
    3.3410    2.5660   23.2180 N   0  0  0  0  0  0  0  0  0  0  0  0
   11.1200   -1.7540   23.6320 C   0  0  0  0  0  0  0  0  0  0  0  0
    6.1860   -5.5090   24.5850 N   0  0  0  0  0  0  0  0  0  0  0  0
    5.3300   -6.0420   22.5130 C   0  0  0  0  0  0  0  0  0  0  0  0
   12.4000   -1.8060   24.0910 C   0  0  0  0  0  0  0  0  0  0  0  0
    2.2660    1.8090   23.8460 C   0  0  0  0  0  0  0  0  0  0  0  0
    6.2360   -5.6790   25.9370 C   0  0  0  0  0  0  0  0  0  0  0  0
    5.1280   -6.2020   23.8350 C   0  0  0  0  0  0  0  0  0  0  0  0
   12.6860   -0.6510   24.8090 C   0  0  0  0  0  0  0  0  0  0  0  0
   13.4140   -1.8990   22.9370 C   0  0  0  0  0  0  0  0  0  0  0  0
   12.7760   -3.0030   24.9710 C   0  0  0  0  0  0  0  0  0  0  0  0
    2.1740    0.4580   23.8120 O   0  0  0  0  0  0  0  0  0  0  0  0
    4.9820   -6.0260   26.4300 C   0  0  0  0  0  0  0  0  0  0  0  0
    7.2340   -5.5620   26.6370 O   0  0  0  0  0  0  0  0  0  0  0  0
    1.1820    2.6330   24.5960 C   0  0  0  0  0  0  0  0  0  0  0  0
    1.4510    3.8650   25.2740 C   0  0  0  0  0  0  0  0  0  0  0  0
   -0.0980    2.0610   24.5500 C   0  0  0  0  0  0  0  0  0  0  0  0
    2.6940    4.3770   25.2910 F   0  0  0  0  0  0  0  0  0  0  0  0
   -1.2130    2.8000   25.2560 C   0  0  0  0  0  0  0  0  0  0  0  0
    0.4450    4.5870   25.9440 C   0  0  0  0  0  0  0  0  0  0  0  0
   -0.8550    4.1040   25.9580 C   0  0  0  0  0  0  0  0  0  0  0  0
  1  2  1  0
  2  3  1  0
  1  4  1  0
  4  5  2  0
  6  4  1  6
  6  7  1  0
  6  8  1  0
  3  9  2  0
  3 10  1  0
  9 11  1  0
  7 12  1  0
  7 13  1  0
  8 14  1  0
  8 15  2  0
  7 16  1  1
 10 17  2  0
  9 18  1  0
 18 19  1  0
 12 20  2  0
 12 21  1  0
 14 22  1  0
 11 23  1  0
 11 24  1  0
 11 25  1  0
 15 26  1  0
 14 27  2  0
 16 28  2  0
 16 29  1  0
 17 30  1  0
 18 30  2  0
 31 13  1  1
 21 31  1  0
 19 32  1  0
 21 33  1  6
 22 34  1  0
 26 35  2  0
 27 35  1  0
 28 36  1  0
 29 37  2  0
 31 38  1  0
 31 39  1  0
 34 40  1  0
 36 41  2  0
 37 41  1  0
 38 42  1  0
 39 43  1  0
 41 44  1  0
 40 45  1  0
 42 46  1  0
 42 47  1  0
 43 47  1  0
 44 48  1  0
 44 49  1  0
 44 50  1  0
 45 51  2  0
 46 52  1  0
 46 53  2  0
 45 54  1  0
 54 55  2  0
 54 56  1  0
 55 57  1  0
 56 58  2  0
 55 59  1  0
 58 60  1  0
 59 60  2  0
M  END
