x0426-x3117-x3110-x2193
     RDKit          3D

 56 61  0  0  0  0  0  0  0  0999 V2000
    7.1660    1.6040   22.8570 N   0  0  0  0  0  0  0  0  0  0  0  0
    7.4540    0.5600   21.8340 C   0  0  0  0  0  0  0  0  0  0  0  0
    8.6530    0.7700   21.0430 O   0  0  0  0  0  0  0  0  0  0  0  0
    7.8660    2.8600   23.0350 C   0  0  2  0  0  0  0  0  0  0  0  0
    6.4450   -0.6760   21.6550 C   0  0  2  0  0  0  0  0  0  0  0  0
    9.0220    2.7900   24.0990 C   0  0  1  0  0  0  0  0  0  0  0  0
    6.9380    3.8820   23.3680 C   0  0  0  0  0  0  0  0  0  0  0  0
    7.0640   -2.0830   21.7460 N   0  0  0  0  0  0  0  0  0  0  0  0
   10.2600    1.9490   23.8320 C   0  0  0  0  0  0  0  0  0  0  0  0
    5.7470   -0.2620   20.3550 C   0  0  0  0  0  0  0  0  0  0  0  0
    9.7150    3.9980   24.1460 C   0  0  1  0  0  0  0  0  0  0  0  0
    7.6430    5.2300   23.5990 C   0  0  0  0  0  0  0  0  0  0  0  0
   11.1930    4.0190   23.8470 C   0  0  1  0  0  0  0  0  0  0  0  0
    6.2130   -3.2780   21.5010 C   0  0  0  0  0  0  0  0  0  0  0  0
    4.3970    0.2580   20.2330 C   0  0  0  0  0  0  0  0  0  0  0  0
    6.5810   -0.3890   19.0420 C   0  0  0  0  0  0  0  0  0  0  0  0
    8.2790   -2.1660   22.6000 C   0  0  0  0  0  0  0  0  0  0  0  0
    9.0930    5.1030   23.5020 O   0  0  0  0  0  0  0  0  0  0  0  0
   11.7070    2.5380   23.6450 C   0  0  0  0  0  0  0  0  0  0  0  0
   11.4900    4.7060   22.6270 O   0  0  0  0  0  0  0  0  0  0  0  0
    4.9760   -3.2210   21.1450 O   0  0  0  0  0  0  0  0  0  0  0  0
    6.6870   -4.7470   21.6900 C   0  0  0  0  0  0  0  0  0  0  0  0
    3.3800    0.4600   21.3300 C   0  0  0  0  0  0  0  0  0  0  0  0
    6.1200   -0.0310   17.7970 N   0  0  0  0  0  0  0  0  0  0  0  0
    3.8690    0.6590   18.8570 C   0  0  0  0  0  0  0  0  0  0  0  0
    9.5150   -2.0080   21.8350 C   0  0  0  0  0  0  0  0  0  0  0  0
    7.9810   -2.3910   24.0290 C   0  0  0  0  0  0  0  0  0  0  0  0
   12.2260    5.9610   22.6380 C   0  0  0  0  0  0  0  0  0  0  0  0
    8.1300   -5.0880   21.1970 C   0  0  0  0  0  0  0  0  0  0  0  0
    3.5370    1.6950   22.0150 C   0  0  0  0  0  0  0  0  0  0  0  0
    4.7710    0.5040   17.6910 C   0  0  0  0  0  0  0  0  0  0  0  0
   10.6960   -2.0280   22.4420 C   0  0  0  0  0  0  0  0  0  0  0  0
    9.6380   -2.3570   24.5120 C   0  0  0  0  0  0  0  0  0  0  0  0
    7.6640   -2.6310   25.5530 C   0  0  0  0  0  0  0  0  0  0  0  0
   13.7710    5.7120   22.7030 C   0  0  0  0  0  0  0  0  0  0  0  0
    2.3660    2.2710   22.5130 N   0  0  0  0  0  0  0  0  0  0  0  0
   10.8410   -2.1870   23.7610 C   0  0  0  0  0  0  0  0  0  0  0  0
    7.8080   -3.9660   26.2490 N   0  0  0  0  0  0  0  0  0  0  0  0
   12.2480   -2.2120   24.5710 C   0  0  0  0  0  0  0  0  0  0  0  0
    1.8410    1.6600   23.7880 C   0  0  0  0  0  0  0  0  0  0  0  0
    7.5670   -3.9870   27.7660 C   0  0  0  0  0  0  0  0  0  0  0  0
    8.4060   -5.1830   25.5890 C   0  0  0  0  0  0  0  0  0  0  0  0
   12.4840   -0.9320   25.1740 C   0  0  0  0  0  0  0  0  0  0  0  0
   13.5350   -2.4730   23.6690 C   0  0  0  0  0  0  0  0  0  0  0  0
   12.4350   -3.3540   25.6600 C   0  0  0  0  0  0  0  0  0  0  0  0
    2.2150    0.5760   24.2720 O   0  0  0  0  0  0  0  0  0  0  0  0
    0.7770    2.3930   24.5100 C   0  0  0  0  0  0  0  0  0  0  0  0
    8.3030   -5.0130   28.6330 C   0  0  0  0  0  0  0  0  0  0  0  0
    8.5380   -6.3010   26.4380 C   0  0  0  0  0  0  0  0  0  0  0  0
    1.1420    3.5070   25.3240 C   0  0  0  0  0  0  0  0  0  0  0  0
   -0.5650    1.9520   24.3570 C   0  0  0  0  0  0  0  0  0  0  0  0
    9.0660   -5.9590   27.8040 N   0  0  0  0  0  0  0  0  0  0  0  0
    2.4120    3.9210   25.4680 F   0  0  0  0  0  0  0  0  0  0  0  0
   -1.5970    2.6300   25.0310 C   0  0  0  0  0  0  0  0  0  0  0  0
    0.1240    4.2360   26.0320 C   0  0  0  0  0  0  0  0  0  0  0  0
   -1.2330    3.8550   25.9320 C   0  0  0  0  0  0  0  0  0  0  0  0
  1  2  1  0
  2  3  2  0
  4  1  1  1
  5  2  1  6
  4  6  1  0
  4  7  1  0
  5  8  1  0
  6  9  1  6
  5 10  1  0
  6 11  1  0
  7 12  1  0
 11 13  1  0
  8 14  1  0
 10 15  1  0
 10 16  2  0
  8 17  1  0
 11 18  1  6
 12 18  1  0
  9 19  2  0
 13 19  1  0
 13 20  1  6
 14 21  2  0
 14 22  1  0
 15 23  1  0
 16 24  1  0
 15 25  2  0
 17 26  2  0
 17 27  1  0
 20 28  1  0
 22 29  1  0
 23 30  1  0
 24 31  2  0
 25 31  1  0
 26 32  1  0
 27 33  2  0
 27 34  1  0
 28 35  1  0
 30 36  1  0
 32 37  2  0
 33 37  1  0
 34 38  1  0
 37 39  1  0
 36 40  1  0
 38 41  1  0
 38 42  1  0
 39 43  1  0
 39 44  1  0
 39 45  1  0
 40 46  2  0
 40 47  1  0
 41 48  1  0
 42 49  1  0
 47 50  2  0
 47 51  1  0
 48 52  1  0
 49 52  1  0
 50 53  1  0
 51 54  2  0
 50 55  1  0
 54 56  1  0
 55 56  2  0
M  END
