x0426-x1412
     RDKit          3D

 37 40  0  0  0  0  0  0  0  0999 V2000
    2.2850    1.6340   24.0120 C   0  0  0  0  0  0  0  0  0  0  0  0
    3.4310    2.1540   23.4040 N   0  0  0  0  0  0  0  0  0  0  0  0
    4.2590    1.3380   22.4830 C   0  0  2  0  0  0  0  0  0  0  0  0
    2.0700    0.4290   24.1160 O   0  0  0  0  0  0  0  0  0  0  0  0
    1.2390    2.5250   24.6010 C   0  0  0  0  0  0  0  0  0  0  0  0
    1.5730    3.8530   25.2260 C   0  0  0  0  0  0  0  0  0  0  0  0
   -0.0660    1.9960   24.5210 C   0  0  0  0  0  0  0  0  0  0  0  0
    3.8120    1.7020   21.0450 C   0  0  0  0  0  0  0  0  0  0  0  0
    2.8420    4.2870   25.2640 F   0  0  0  0  0  0  0  0  0  0  0  0
    4.0080   -0.1520   22.8150 C   0  0  0  0  0  0  0  0  0  0  0  0
   -1.0850    2.9680   25.1620 C   0  0  0  0  0  0  0  0  0  0  0  0
    0.6020    4.6870   25.7900 C   0  0  0  0  0  0  0  0  0  0  0  0
    4.9440   -1.2120   22.1970 C   0  0  0  0  0  0  0  0  0  0  0  0
   -0.7260    4.3120   25.7930 C   0  0  0  0  0  0  0  0  0  0  0  0
    4.7670    1.3400   19.9720 C   0  0  0  0  0  0  0  0  0  0  0  0
    6.4230   -1.1100   22.6670 C   0  0  0  0  0  0  0  0  0  0  0  0
    5.9290    0.5890   20.1720 C   0  0  0  0  0  0  0  0  0  0  0  0
    4.4910    1.7680   18.6940 C   0  0  0  0  0  0  0  0  0  0  0  0
    6.7350    0.3010   19.0800 C   0  0  0  0  0  0  0  0  0  0  0  0
    5.3710    1.4270   17.6920 C   0  0  0  0  0  0  0  0  0  0  0  0
    7.3910   -1.8050   21.6720 C   0  0  2  0  0  0  0  0  0  0  0  0
    6.4820    0.7040   17.8270 N   0  0  0  0  0  0  0  0  0  0  0  0
    6.6920   -3.0790   21.3270 N   0  0  0  0  0  0  0  0  0  0  0  0
    8.6500   -2.0670   22.2520 C   0  0  0  0  0  0  0  0  0  0  0  0
    6.4300   -3.4320   19.9980 C   0  0  0  0  0  0  0  0  0  0  0  0
    8.4580   -3.0380   23.3320 N   0  0  0  0  0  0  0  0  0  0  0  0
    6.5500   -4.0520   22.4080 C   0  0  0  0  0  0  0  0  0  0  0  0
    7.4330   -3.0250   18.9210 C   0  0  0  0  0  0  0  0  0  0  0  0
    5.4280   -4.1030   19.7280 O   0  0  0  0  0  0  0  0  0  0  0  0
    8.5080   -2.7330   24.7600 C   0  0  0  0  0  0  0  0  0  0  0  0
    7.8090   -4.2890   22.9430 C   0  0  0  0  0  0  0  0  0  0  0  0
    8.4510   -1.5650   25.1560 O   0  0  0  0  0  0  0  0  0  0  0  0
    8.6320   -3.9000   25.6960 C   0  0  0  0  0  0  0  0  0  0  0  0
    9.4250   -5.0080   25.4460 C   0  0  0  0  0  0  0  0  0  0  0  0
    7.8030   -3.9920   27.2030 S   0  0  0  0  0  0  0  0  0  0  0  0
    8.5140   -5.5140   27.5210 C   0  0  0  0  0  0  0  0  0  0  0  0
    9.3620   -5.9480   26.5020 C   0  0  0  0  0  0  0  0  0  0  0  0
  1  2  1  0
  2  3  1  0
  1  4  2  0
  1  5  1  0
  5  6  2  0
  5  7  1  0
  3  8  1  6
  6  9  1  0
  3 10  1  0
  7 11  2  0
  6 12  1  0
 10 13  1  0
 11 14  1  0
 12 14  2  0
  8 15  1  0
 13 16  1  0
 15 17  2  0
 15 18  1  0
 17 19  1  0
 18 20  2  0
 21 16  1  1
 19 22  2  0
 20 22  1  0
 21 23  1  0
 21 24  1  0
 23 25  1  0
 24 26  1  0
 23 27  1  0
 25 28  1  0
 25 29  2  0
 26 30  1  0
 26 31  1  0
 27 31  1  0
 30 32  2  0
 30 33  1  0
 33 34  2  0
 33 35  1  0
 35 36  1  0
 34 37  1  0
 36 37  2  0
M  END
