x0426-x0736-x2649-x2694
     RDKit          3D

 58 63  0  0  0  0  0  0  0  0999 V2000
    7.6540    2.6640   22.4490 N   0  0  0  0  0  0  0  0  0  0  0  0
    7.9740    1.6040   21.6150 C   0  0  0  0  0  0  0  0  0  0  0  0
    9.0090    1.4320   21.0160 O   0  0  0  0  0  0  0  0  0  0  0  0
    8.4930    3.7290   22.8160 C   0  0  0  0  0  0  0  0  0  0  0  0
    6.9070    0.5450   21.3790 C   0  0  1  0  0  0  0  0  0  0  0  0
    9.8170    3.3370   23.4360 C   0  0  0  0  0  0  0  0  0  0  0  0
    8.1740    5.0830   22.6400 C   0  0  0  0  0  0  0  0  0  0  0  0
   10.3670    1.8920   23.7110 C   0  0  0  0  0  0  0  0  0  0  0  0
    6.1490    0.9600   20.2060 C   0  0  0  0  0  0  0  0  0  0  0  0
   10.6800    4.5350   23.8140 C   0  0  0  0  0  0  0  0  0  0  0  0
    9.0610    6.0930   23.0350 C   0  0  0  0  0  0  0  0  0  0  0  0
    7.2820   -0.8770   21.0180 C   0  0  0  0  0  0  0  0  0  0  0  0
    4.7820    1.5660   20.3850 C   0  0  0  0  0  0  0  0  0  0  0  0
    6.7590    0.7510   18.9580 C   0  0  0  0  0  0  0  0  0  0  0  0
   10.2940    5.8510   23.6150 C   0  0  0  0  0  0  0  0  0  0  0  0
    6.7070   -2.0280   21.8810 C   0  0  1  0  0  0  0  0  0  0  0  0
   11.1360    6.8500   23.9980 O   0  0  0  0  0  0  0  0  0  0  0  0
    4.1940    1.6830   21.8410 C   0  0  1  0  0  0  0  0  0  0  0  0
    6.2130    1.0770   17.8730 N   0  0  0  0  0  0  0  0  0  0  0  0
    4.1750    1.9560   19.0700 C   0  0  0  0  0  0  0  0  0  0  0  0
    6.7100   -3.3810   21.3180 N   0  0  0  0  0  0  0  0  0  0  0  0
    7.5670   -2.0180   23.1160 C   0  0  2  0  0  0  0  0  0  0  0  0
   11.8740    6.6230   25.1920 C   0  0  0  0  0  0  0  0  0  0  0  0
    3.0130    2.3540   22.1700 N   0  0  0  0  0  0  0  0  0  0  0  0
    3.9000    0.2190   22.1270 C   0  0  0  0  0  0  0  0  0  0  0  0
    4.9050    1.7080   17.9020 C   0  0  0  0  0  0  0  0  0  0  0  0
    6.3190   -3.5450   19.9960 C   0  0  0  0  0  0  0  0  0  0  0  0
    8.9580   -2.1160   22.6530 C   0  0  0  0  0  0  0  0  0  0  0  0
    7.2180   -2.9320   24.0560 N   0  0  0  0  0  0  0  0  0  0  0  0
    6.3010   -4.4290   22.2430 C   0  0  0  0  0  0  0  0  0  0  0  0
    2.2400    1.8730   23.3760 C   0  0  0  0  0  0  0  0  0  0  0  0
    7.2830   -3.0710   18.9120 C   0  0  0  0  0  0  0  0  0  0  0  0
    5.2730   -4.1100   19.6930 O   0  0  0  0  0  0  0  0  0  0  0  0
    9.2100   -1.5460   24.0320 N   0  0  0  0  0  0  0  0  0  0  0  0
   10.4180   -2.1360   22.3690 C   0  0  0  0  0  0  0  0  0  0  0  0
    7.1510   -4.3070   23.5350 C   0  0  0  0  0  0  0  0  0  0  0  0
    6.0800   -2.5790   24.8020 C   0  0  1  0  0  0  0  0  0  0  0  0
    2.3470    0.7160   23.7830 O   0  0  0  0  0  0  0  0  0  0  0  0
    1.3740    2.6270   24.1160 C   0  0  0  0  0  0  0  0  0  0  0  0
   10.5080   -1.3280   24.3620 O   0  0  0  0  0  0  0  0  0  0  0  0
   11.2420   -1.6930   23.3270 C   0  0  0  0  0  0  0  0  0  0  0  0
    6.0840   -3.2680   26.0330 O   0  0  0  0  0  0  0  0  0  0  0  0
    5.9900   -1.2180   25.1100 C   0  0  0  0  0  0  0  0  0  0  0  0
    1.7200    3.7890   24.8680 C   0  0  0  0  0  0  0  0  0  0  0  0
    0.0290    2.1880   24.1410 C   0  0  0  0  0  0  0  0  0  0  0  0
   12.6890   -1.5570   23.4080 C   0  0  0  0  0  0  0  0  0  0  0  0
    7.1820   -0.7270   25.8560 C   0  0  0  0  0  0  0  0  0  0  0  0
    2.9950    4.2250   24.8680 F   0  0  0  0  0  0  0  0  0  0  0  0
   -0.9740    2.8540   24.8750 C   0  0  0  0  0  0  0  0  0  0  0  0
    0.7840    4.4970   25.6140 C   0  0  0  0  0  0  0  0  0  0  0  0
   12.9410   -0.0490   23.6460 C   0  0  0  0  0  0  0  0  0  0  0  0
   13.1660   -1.9290   22.0030 C   0  0  0  0  0  0  0  0  0  0  0  0
   13.2130   -2.3950   24.3700 C   0  0  0  0  0  0  0  0  0  0  0  0
    8.1080    0.0560   25.1810 O   0  0  0  0  0  0  0  0  0  0  0  0
    7.6650   -0.8340   27.1460 C   0  0  0  0  0  0  0  0  0  0  0  0
   -0.6340    3.9830   25.6020 C   0  0  0  0  0  0  0  0  0  0  0  0
    8.8290   -0.1740   27.3160 C   0  0  0  0  0  0  0  0  0  0  0  0
    9.0990    0.3730   26.0900 C   0  0  0  0  0  0  0  0  0  0  0  0
  1  2  1  0
  2  3  2  0
  1  4  1  0
  2  5  1  0
  4  6  2  0
  4  7  1  0
  6  8  1  0
  5  9  1  0
  6 10  1  0
  7 11  2  0
  5 12  1  6
  9 13  1  0
  9 14  2  0
 10 15  2  0
 11 15  1  0
 16 12  1  6
 15 17  1  0
 13 18  1  0
 14 19  1  0
 13 20  2  0
 16 21  1  0
 16 22  1  0
 17 23  1  0
 18 24  1  0
 18 25  1  6
 19 26  2  0
 20 26  1  0
 21 27  1  0
 22 28  1  6
 22 29  1  0
 21 30  1  0
 24 31  1  0
 27 32  1  0
 27 33  2  0
 28 34  2  0
 28 35  1  0
 29 36  1  0
 30 36  1  0
 29 37  1  0
 31 38  2  0
 31 39  1  0
 34 40  1  0
 35 41  2  0
 40 41  1  0
 37 42  1  1
 37 43  1  0
 39 44  2  0
 39 45  1  0
 41 46  1  0
 43 47  1  0
 44 48  1  0
 45 49  2  0
 44 50  1  0
 46 51  1  0
 46 52  1  0
 46 53  1  0
 47 54  1  0
 47 55  2  0
 49 56  1  0
 50 56  2  0
 55 57  1  0
 54 58  1  0
 57 58  2  0
M  END
