x0426-x1375
     RDKit          3D

 39 42  0  0  0  0  0  0  0  0999 V2000
    5.6440   -4.8440   20.1090 O   0  0  0  0  0  0  0  0  0  0  0  0
    6.4910   -4.5520   21.0490 C   0  0  0  0  0  0  0  0  0  0  0  0
    7.9630   -4.2830   20.7640 C   0  0  0  0  0  0  0  0  0  0  0  0
    6.2820   -4.4210   22.4950 N   0  0  0  0  0  0  0  0  0  0  0  0
    7.4720   -4.2820   23.3250 C   0  0  0  0  0  0  0  0  0  0  0  0
    5.3630   -5.2240   23.3350 C   0  0  1  0  0  0  0  0  0  0  0  0
    8.0290   -3.0610   23.7370 C   0  0  0  0  0  0  0  0  0  0  0  0
    8.0980   -5.4720   23.7710 C   0  0  0  0  0  0  0  0  0  0  0  0
    4.6220   -4.4250   24.4150 C   0  0  0  0  0  0  0  0  0  0  0  0
    4.5940   -6.2060   22.7770 C   0  0  0  0  0  0  0  0  0  0  0  0
    4.9250   -2.9870   24.8810 C   0  0  0  0  0  0  0  0  0  0  0  0
    9.2620   -3.0720   24.6490 C   0  0  0  0  0  0  0  0  0  0  0  0
    9.1770   -5.5350   24.5730 C   0  0  0  0  0  0  0  0  0  0  0  0
    3.6570   -6.7990   24.0950 S   0  0  0  0  0  0  0  0  0  0  0  0
    3.6610   -5.2090   24.9250 C   0  0  0  0  0  0  0  0  0  0  0  0
    2.3620   -7.1740   23.5930 O   0  0  0  0  0  0  0  0  0  0  0  0
    4.4490   -7.7550   24.8220 O   0  0  0  0  0  0  0  0  0  0  0  0
    4.2380   -1.8690   24.1950 C   0  0  0  0  0  0  0  0  0  0  0  0
    9.8410   -4.2540   25.0770 C   0  0  0  0  0  0  0  0  0  0  0  0
   10.9110   -4.2720   25.8790 F   0  0  0  0  0  0  0  0  0  0  0  0
    3.9210   -0.4700   23.5920 C   0  0  0  0  0  0  0  0  0  0  0  0
    2.7500    0.2660   24.1720 N   0  0  0  0  0  0  0  0  0  0  0  0
    2.5650    1.6620   23.9700 C   0  0  0  0  0  0  0  0  0  0  0  0
    3.3530    2.4510   23.2840 N   0  0  0  0  0  0  0  0  0  0  0  0
    1.3900    2.3760   24.5860 C   0  0  0  0  0  0  0  0  0  0  0  0
    4.2630    2.0510   22.2030 C   0  0  0  0  0  0  0  0  0  0  0  0
    1.5800    3.6250   25.2070 C   0  0  0  0  0  0  0  0  0  0  0  0
    0.1000    1.8620   24.5690 C   0  0  0  0  0  0  0  0  0  0  0  0
    3.6220    1.4190   20.9910 C   0  0  0  0  0  0  0  0  0  0  0  0
    2.7980    4.1830   25.2590 F   0  0  0  0  0  0  0  0  0  0  0  0
   -0.9930    2.5290   25.1390 C   0  0  0  0  0  0  0  0  0  0  0  0
    0.5100    4.3230   25.7900 C   0  0  0  0  0  0  0  0  0  0  0  0
   -0.7800    3.7690   25.7540 C   0  0  0  0  0  0  0  0  0  0  0  0
    4.6320    1.0370   19.9430 C   0  0  0  0  0  0  0  0  0  0  0  0
    5.6060    0.0570   20.1850 C   0  0  0  0  0  0  0  0  0  0  0  0
    4.6100    1.6630   18.7120 C   0  0  0  0  0  0  0  0  0  0  0  0
    6.5120   -0.2440   19.1650 C   0  0  0  0  0  0  0  0  0  0  0  0
    5.5520    1.2950   17.7640 C   0  0  0  0  0  0  0  0  0  0  0  0
    6.4940    0.3620   17.9630 N   0  0  0  0  0  0  0  0  0  0  0  0
  1  2  2  0
  2  3  1  0
  2  4  1  0
  4  5  1  0
  6  4  1  6
  5  7  2  0
  5  8  1  0
  6  9  1  0
  6 10  1  0
  9 11  1  0
  7 12  1  0
  8 13  2  0
 10 14  1  0
  9 15  2  0
 14 15  1  0
 14 16  1  0
 14 17  1  0
 11 18  1  0
 12 19  2  0
 13 19  1  0
 19 20  1  0
 18 21  1  0
 21 22  1  0
 22 23  2  3
 23 24  1  0
 23 25  1  0
 24 26  1  0
 25 27  2  0
 25 28  1  0
 26 29  1  0
 27 30  1  0
 28 31  2  0
 27 32  1  0
 31 33  1  0
 32 33  2  0
 29 34  1  0
 34 35  2  0
 34 36  1  0
 35 37  1  0
 36 38  2  0
 37 39  2  0
 38 39  1  0
M  END
