x0426-x1375-x2776
     RDKit          3D

 61 66  0  0  0  0  0  0  0  0999 V2000
    7.1270   -1.1330   21.9800 N   0  0  0  0  0  0  0  0  0  0  0  0
    6.6750    0.2270   21.6620 C   0  0  1  0  0  0  0  0  0  0  0  0
    7.8250    1.2570   21.8890 C   0  0  0  0  0  0  0  0  0  0  0  0
    8.4330   -1.2210   22.4850 C   0  0  0  0  0  0  0  0  0  0  0  0
    6.0910    0.4930   20.3020 C   0  0  0  0  0  0  0  0  0  0  0  0
    9.4160   -1.6700   21.6560 C   0  0  0  0  0  0  0  0  0  0  0  0
    8.7770   -0.8700   23.7880 C   0  0  0  0  0  0  0  0  0  0  0  0
    7.8190    2.0950   22.9390 N   0  0  0  0  0  0  0  0  0  0  0  0
    8.7750    1.4020   21.1100 O   0  0  0  0  0  0  0  0  0  0  0  0
    4.6880    1.0720   20.2220 C   0  0  0  0  0  0  0  0  0  0  0  0
    6.8590    0.2240   19.1660 C   0  0  0  0  0  0  0  0  0  0  0  0
   10.8680   -1.8120   22.0340 C   0  0  0  0  0  0  0  0  0  0  0  0
   10.0760   -0.9440   24.2870 C   0  0  0  0  0  0  0  0  0  0  0  0
    3.7640    1.3590   21.4270 C   0  0  0  0  0  0  0  0  0  0  0  0
    6.4640    0.4770   17.8120 N   0  0  0  0  0  0  0  0  0  0  0  0
    4.2730    1.3370   18.9430 C   0  0  0  0  0  0  0  0  0  0  0  0
    8.6380    3.2800   23.1370 C   0  0  0  0  0  0  0  0  0  0  0  0
   11.1170   -1.3970   23.4390 C   0  0  0  0  0  0  0  0  0  0  0  0
   12.4500   -1.4620   23.8520 C   0  0  2  0  0  0  0  0  0  0  0  0
    4.3500    2.0640   22.4760 C   0  0  0  0  0  0  0  0  0  0  0  0
    5.1540    1.0520   17.7610 C   0  0  0  0  0  0  0  0  0  0  0  0
   10.0590    3.1870   23.5970 C   0  0  0  0  0  0  0  0  0  0  0  0
    7.9460    4.5930   22.8490 C   0  0  0  0  0  0  0  0  0  0  0  0
   12.5160   -1.9100   24.9800 O   0  0  0  0  0  0  0  0  0  0  0  0
   10.7070    1.8660   23.8670 C   0  0  0  0  0  0  0  0  0  0  0  0
   12.9630   -0.1980   23.8000 C   0  0  0  0  0  0  0  0  0  0  0  0
    3.2500    2.7320   23.1900 N   0  0  0  0  0  0  0  0  0  0  0  0
   10.8630    4.4490   23.8000 C   0  0  0  0  0  0  0  0  0  0  0  0
    8.7160    5.7520   23.0510 C   0  0  0  0  0  0  0  0  0  0  0  0
   12.5550   -3.3020   24.9070 C   0  0  0  0  0  0  0  0  0  0  0  0
    2.2270    1.8860   23.8580 C   0  0  0  0  0  0  0  0  0  0  0  0
   10.1930    5.8040   23.5340 C   0  0  0  0  0  0  0  0  0  0  0  0
   10.9770    6.8960   23.7570 O   0  0  0  0  0  0  0  0  0  0  0  0
    2.2460    0.4570   23.8240 O   0  0  0  0  0  0  0  0  0  0  0  0
   11.6790   -3.8830   25.9570 C   0  0  0  0  0  0  0  0  0  0  0  0
    1.2610    2.5450   24.5150 C   0  0  0  0  0  0  0  0  0  0  0  0
   11.8560    6.7850   24.8730 C   0  0  0  0  0  0  0  0  0  0  0  0
   10.8180   -4.9480   25.6120 O   0  0  0  0  0  0  0  0  0  0  0  0
    1.5190    3.8360   25.2630 C   0  0  0  0  0  0  0  0  0  0  0  0
   -0.0360    2.0380   24.5180 C   0  0  0  0  0  0  0  0  0  0  0  0
    2.7400    4.3950   25.3110 F   0  0  0  0  0  0  0  0  0  0  0  0
   -1.0610    2.7120   25.1970 C   0  0  0  0  0  0  0  0  0  0  0  0
    0.4730    4.4720   25.9220 C   0  0  0  0  0  0  0  0  0  0  0  0
    9.7150   -4.7100   24.8710 C   0  0  0  0  0  0  0  0  0  0  0  0
   -0.8090    3.9050   25.8850 C   0  0  0  0  0  0  0  0  0  0  0  0
    9.0040   -3.5300   24.7530 C   0  0  0  0  0  0  0  0  0  0  0  0
    9.2770   -5.8110   24.1600 C   0  0  0  0  0  0  0  0  0  0  0  0
    7.8770   -3.4570   23.9310 C   0  0  0  0  0  0  0  0  0  0  0  0
    8.1730   -5.7510   23.3450 C   0  0  0  0  0  0  0  0  0  0  0  0
    7.4660   -4.5780   23.2210 C   0  0  0  0  0  0  0  0  0  0  0  0
    6.3340   -4.5630   22.3810 N   0  0  0  0  0  0  0  0  0  0  0  0
    6.5540   -4.5530   20.9670 C   0  0  0  0  0  0  0  0  0  0  0  0
    5.4040   -5.4500   23.0980 C   0  0  1  0  0  0  0  0  0  0  0  0
    5.7120   -4.7870   20.0580 O   0  0  0  0  0  0  0  0  0  0  0  0
    8.0450   -4.1630   20.7850 C   0  0  0  0  0  0  0  0  0  0  0  0
    5.1760   -4.8830   24.4870 C   0  0  0  0  0  0  0  0  0  0  0  0
    4.2860   -5.9860   22.5700 C   0  0  0  0  0  0  0  0  0  0  0  0
    3.6450   -6.6570   24.0780 S   0  0  0  0  0  0  0  0  0  0  0  0
    4.1960   -5.5000   25.1530 C   0  0  0  0  0  0  0  0  0  0  0  0
    2.2150   -6.7870   24.0040 O   0  0  0  0  0  0  0  0  0  0  0  0
    4.4490   -7.9690   24.4130 O   0  0  0  0  0  0  0  0  0  0  0  0
  2  1  1  6
  2  3  1  0
  1  4  1  0
  2  5  1  0
  4  6  2  0
  4  7  1  0
  3  8  1  0
  3  9  2  0
  5 10  1  0
  5 11  2  0
  6 12  1  0
  7 13  2  0
 10 14  1  0
 11 15  1  0
 10 16  2  0
  8 17  1  0
 12 18  2  0
 13 18  1  0
 18 19  1  0
 14 20  1  0
 15 21  2  0
 16 21  1  0
 17 22  2  0
 17 23  1  0
 19 24  1  0
 22 25  1  0
 19 26  1  1
 20 27  1  0
 22 28  1  0
 23 29  2  0
 24 30  1  0
 27 31  1  0
 28 32  2  0
 29 32  1  0
 32 33  1  0
 31 34  2  0
 30 35  1  0
 31 36  1  0
 33 37  1  0
 35 38  1  0
 36 39  2  0
 36 40  1  0
 39 41  1  0
 40 42  2  0
 39 43  1  0
 38 44  1  0
 42 45  1  0
 43 45  2  0
 44 46  2  0
 44 47  1  0
 46 48  1  0
 47 49  2  0
 48 50  2  0
 49 50  1  0
 50 51  1  0
 51 52  1  0
 53 51  1  6
 52 54  2  0
 52 55  1  0
 53 56  1  0
 53 57  1  0
 57 58  1  0
 56 59  2  0
 58 59  1  0
 58 60  1  0
 58 61  1  0
M  END
