x0426-x2705-x2694-x2193
     RDKit          3D

 54 58  0  0  0  0  0  0  0  0999 V2000
    7.0070   -1.5020   21.7740 N   0  0  0  0  0  0  0  0  0  0  0  0
    6.1600   -2.7440   21.5150 C   0  0  0  0  0  0  0  0  0  0  0  0
    4.8420   -3.0060   21.2250 O   0  0  0  0  0  0  0  0  0  0  0  0
    6.5340   -0.1580   21.6070 C   0  0  1  0  0  0  0  0  0  0  0  0
    8.3340   -1.5970   22.4700 C   0  0  0  0  0  0  0  0  0  0  0  0
    6.9700   -3.9990   21.5690 C   0  0  0  0  0  0  0  0  0  0  0  0
    7.7050    0.9340   21.8520 C   0  0  0  0  0  0  0  0  0  0  0  0
    5.9890    0.2930   20.3030 C   0  0  0  0  0  0  0  0  0  0  0  0
    8.6650   -1.9380   23.7850 N   0  0  0  0  0  0  0  0  0  0  0  0
    9.6550   -1.3680   22.0530 C   0  0  0  0  0  0  0  0  0  0  0  0
    6.8690   -4.5730   20.1590 C   0  0  0  0  0  0  0  0  0  0  0  0
    7.4480    1.9670   22.7620 N   0  0  0  0  0  0  0  0  0  0  0  0
    8.7720    0.9010   21.2490 O   0  0  0  0  0  0  0  0  0  0  0  0
    4.7900    0.9760   20.1240 C   0  0  0  0  0  0  0  0  0  0  0  0
    6.7640    0.0270   19.1770 C   0  0  0  0  0  0  0  0  0  0  0  0
    9.9640   -1.9180   24.1580 N   0  0  0  0  0  0  0  0  0  0  0  0
   10.5610   -1.5670   23.0590 C   0  0  0  0  0  0  0  0  0  0  0  0
    7.7690   -2.3320   24.8530 C   0  0  0  0  0  0  0  0  0  0  0  0
   12.1010   -1.4230   23.0140 C   0  0  0  0  0  0  0  0  0  0  0  0
    3.8300    1.3620   21.0860 C   0  0  0  0  0  0  0  0  0  0  0  0
    6.4460    0.3930   17.9270 N   0  0  0  0  0  0  0  0  0  0  0  0
    4.4510    1.3660   18.8090 C   0  0  0  0  0  0  0  0  0  0  0  0
    8.1820    3.1990   22.9350 C   0  0  0  0  0  0  0  0  0  0  0  0
    8.1140   -3.8440   25.2330 N   0  0  0  0  0  0  0  0  0  0  0  0
   12.6820   -1.9250   24.1740 C   0  0  0  0  0  0  0  0  0  0  0  0
   12.7420   -0.4470   23.9470 C   0  0  0  0  0  0  0  0  0  0  0  0
   12.8400   -1.7020   21.8360 C   0  0  0  0  0  0  0  0  0  0  0  0
    4.1570    1.7000   22.4100 C   0  0  0  0  0  0  0  0  0  0  0  0
    5.2980    1.0600   17.7830 C   0  0  0  0  0  0  0  0  0  0  0  0
    9.4540    3.1060   23.5060 C   0  0  0  0  0  0  0  0  0  0  0  0
    7.7020    4.4720   22.5790 C   0  0  0  0  0  0  0  0  0  0  0  0
    8.3840   -3.9900   26.6700 C   0  0  0  0  0  0  0  0  0  0  0  0
    9.2020   -4.5080   24.4700 C   0  0  0  0  0  0  0  0  0  0  0  0
   10.1110    1.8240   23.9310 C   0  0  0  0  0  0  0  0  0  0  0  0
    6.3330    4.6250   21.9470 C   0  0  0  0  0  0  0  0  0  0  0  0
    3.1520    2.5220   23.0920 N   0  0  0  0  0  0  0  0  0  0  0  0
   10.2390    4.2300   23.7360 C   0  0  0  0  0  0  0  0  0  0  0  0
    8.4590    5.6540   22.7930 C   0  0  0  0  0  0  0  0  0  0  0  0
    8.4130   -5.4760   27.0170 C   0  0  0  0  0  0  0  0  0  0  0  0
    9.0640   -5.8600   24.7400 C   0  0  0  0  0  0  0  0  0  0  0  0
    9.2700    1.1250   25.0100 C   0  0  0  0  0  0  0  0  0  0  0  0
    2.1880    1.8110   23.8250 C   0  0  0  0  0  0  0  0  0  0  0  0
    9.7400    5.6160   23.3760 C   0  0  0  0  0  0  0  0  0  0  0  0
    9.3760   -6.1450   26.1450 N   0  0  0  0  0  0  0  0  0  0  0  0
   10.5280    6.7260   23.6240 O   0  0  0  0  0  0  0  0  0  0  0  0
    2.1680    0.3870   23.8980 O   0  0  0  0  0  0  0  0  0  0  0  0
    1.1620    2.6000   24.5490 C   0  0  0  0  0  0  0  0  0  0  0  0
   11.6160    6.5890   24.5690 C   0  0  0  0  0  0  0  0  0  0  0  0
    1.4760    3.8150   25.2230 C   0  0  0  0  0  0  0  0  0  0  0  0
   -0.1510    2.1070   24.5570 C   0  0  0  0  0  0  0  0  0  0  0  0
    2.7320    4.2970   25.2210 F   0  0  0  0  0  0  0  0  0  0  0  0
   -1.1210    2.8410   25.2390 C   0  0  0  0  0  0  0  0  0  0  0  0
    0.4930    4.5460   25.9050 C   0  0  0  0  0  0  0  0  0  0  0  0
   -0.7990    4.0200   25.8890 C   0  0  0  0  0  0  0  0  0  0  0  0
  1  2  1  0
  2  3  2  0
  1  4  1  0
  1  5  1  0
  2  6  1  0
  4  7  1  6
  4  8  1  0
  5  9  1  0
  5 10  2  0
  6 11  1  0
  7 12  1  0
  7 13  2  0
  8 14  1  0
  8 15  2  0
  9 16  1  0
 10 17  1  0
 16 17  2  0
  9 18  1  0
 17 19  1  0
 14 20  1  0
 15 21  1  0
 14 22  2  0
 12 23  1  0
 18 24  1  0
 19 25  1  0
 19 26  1  0
 19 27  1  0
 20 28  1  0
 21 29  2  0
 22 29  1  0
 23 30  2  0
 23 31  1  0
 24 32  1  0
 24 33  1  0
 30 34  1  0
 31 35  1  0
 28 36  1  0
 30 37  1  0
 31 38  2  0
 32 39  1  0
 33 40  1  0
 34 41  1  0
 36 42  1  0
 37 43  2  0
 38 43  1  0
 39 44  1  0
 40 44  1  0
 43 45  1  0
 42 46  2  0
 42 47  1  0
 45 48  1  0
 47 49  2  0
 47 50  1  0
 49 51  1  0
 50 52  2  0
 49 53  1  0
 52 54  1  0
 53 54  2  0
M  END
