x0426-x3117-x1458-x2703
     RDKit          3D

 59 64  0  0  0  0  0  0  0  0999 V2000
    6.9290   -1.6510   21.7040 C   0  0  1  0  0  0  0  0  0  0  0  0
    5.9560   -2.9720   21.2580 C   0  0  0  0  0  0  0  0  0  0  0  0
    4.8730   -2.9960   20.6270 O   0  0  0  0  0  0  0  0  0  0  0  0
    6.4740   -0.2360   21.5350 C   0  0  1  0  0  0  0  0  0  0  0  0
    6.4210   -2.1620   22.9300 C   0  0  0  0  0  0  0  0  0  0  0  0
    8.4460   -1.7510   22.3150 C   0  0  0  0  0  0  0  0  0  0  0  0
    7.6600    0.7640   21.8560 C   0  0  0  0  0  0  0  0  0  0  0  0
    5.9010    0.3060   20.2810 C   0  0  0  0  0  0  0  0  0  0  0  0
    8.6420   -1.3220   23.6590 C   0  0  0  0  0  0  0  0  0  0  0  0
    9.5610   -2.2240   21.6050 C   0  0  0  0  0  0  0  0  0  0  0  0
    6.4340   -4.2780   21.8260 C   0  0  2  0  0  0  0  0  0  0  0  0
    7.2260   -3.4940   22.9260 C   0  0  2  0  0  0  0  0  0  0  0  0
    7.0230   -5.2280   20.7760 C   0  0  0  0  0  0  0  0  0  0  0  0
    7.3240    1.8760   22.7900 N   0  0  0  0  0  0  0  0  0  0  0  0
    8.7810    0.6850   21.3680 O   0  0  0  0  0  0  0  0  0  0  0  0
    4.6820    0.9680   20.1400 C   0  0  0  0  0  0  0  0  0  0  0  0
    6.7990    0.1160   19.0340 C   0  0  0  0  0  0  0  0  0  0  0  0
   10.9190   -2.2700   22.1820 N   0  0  0  0  0  0  0  0  0  0  0  0
    9.8900   -1.3640   24.2190 C   0  0  0  0  0  0  0  0  0  0  0  0
    7.1610   -4.0270   24.1230 C   0  0  0  0  0  0  0  0  0  0  0  0
    5.2060   -5.0390   22.4410 C   0  0  0  0  0  0  0  0  0  0  0  0
    3.7210    1.1860   21.2960 C   0  0  0  0  0  0  0  0  0  0  0  0
    6.3600    0.6560   17.7550 N   0  0  0  0  0  0  0  0  0  0  0  0
    4.2990    1.5060   18.7680 C   0  0  0  0  0  0  0  0  0  0  0  0
   11.0720   -1.8490   23.4410 C   0  0  0  0  0  0  0  0  0  0  0  0
    8.0630    3.1030   22.9120 C   0  0  0  0  0  0  0  0  0  0  0  0
    5.8810   -4.2520   24.4620 C   0  0  1  0  0  0  0  0  0  0  0  0
    5.3450   -5.3130   23.8010 C   0  0  0  0  0  0  0  0  0  0  0  0
   12.4480   -1.8610   24.0280 C   0  0  0  0  0  0  0  0  0  0  0  0
    4.1820    1.7180   22.4940 C   0  0  0  0  0  0  0  0  0  0  0  0
    5.4840   -3.8520   25.8630 C   0  0  0  0  0  0  0  0  0  0  0  0
    5.1450    1.3280   17.6970 C   0  0  0  0  0  0  0  0  0  0  0  0
    9.3290    3.1490   23.5120 C   0  0  0  0  0  0  0  0  0  0  0  0
    7.4030    4.3930   22.3510 C   0  0  0  0  0  0  0  0  0  0  0  0
   10.0070    1.9230   24.0770 C   0  0  0  0  0  0  0  0  0  0  0  0
    6.0470    4.4180   21.6980 C   0  0  0  0  0  0  0  0  0  0  0  0
   12.7590   -2.9890   24.9960 C   0  0  0  0  0  0  0  0  0  0  0  0
   12.6610   -0.5280   24.7380 C   0  0  0  0  0  0  0  0  0  0  0  0
   13.4620   -1.9750   22.9090 C   0  0  0  0  0  0  0  0  0  0  0  0
    3.2630    2.5540   23.2260 N   0  0  0  0  0  0  0  0  0  0  0  0
    6.3000   -3.8480   26.9180 N   0  0  0  0  0  0  0  0  0  0  0  0
    4.1880   -3.4110   25.9800 O   0  0  0  0  0  0  0  0  0  0  0  0
   10.1380    4.4420   23.6550 C   0  0  0  0  0  0  0  0  0  0  0  0
    8.1320    5.7350   22.4490 C   0  0  0  0  0  0  0  0  0  0  0  0
    9.1200    1.3250   25.0870 C   0  0  0  0  0  0  0  0  0  0  0  0
    2.2260    1.7870   23.8210 C   0  0  0  0  0  0  0  0  0  0  0  0
    6.3570   -5.1690   27.6110 C   0  0  0  0  0  0  0  0  0  0  0  0
    6.5460   -2.5880   27.6720 C   0  0  0  0  0  0  0  0  0  0  0  0
    9.5050    5.7290   23.1090 C   0  0  0  0  0  0  0  0  0  0  0  0
    2.1200    0.5640   23.7880 O   0  0  0  0  0  0  0  0  0  0  0  0
    7.1300   -5.1480   28.7490 C   0  0  0  0  0  0  0  0  0  0  0  0
    5.0660   -5.5180   27.9080 C   0  0  0  0  0  0  0  0  0  0  0  0
    1.1890    2.5720   24.5490 C   0  0  0  0  0  0  0  0  0  0  0  0
    1.5350    3.8810   25.2690 C   0  0  0  0  0  0  0  0  0  0  0  0
   -0.1350    2.0840   24.5650 C   0  0  0  0  0  0  0  0  0  0  0  0
    2.7720    4.3980   25.2930 F   0  0  0  0  0  0  0  0  0  0  0  0
   -1.1710    2.7680   25.2300 C   0  0  0  0  0  0  0  0  0  0  0  0
    0.4960    4.5370   25.9180 C   0  0  0  0  0  0  0  0  0  0  0  0
   -0.9330    3.9720   25.9110 C   0  0  0  0  0  0  0  0  0  0  0  0
  1  2  1  0
  2  3  2  0
  1  4  1  0
  1  5  1  0
  1  6  1  1
  4  7  1  6
  4  8  1  0
  6  9  2  0
  6 10  1  0
  2 11  1  0
 12  5  1  1
 11 12  1  0
 11 13  1  6
  7 14  1  0
  7 15  2  0
  8 16  1  0
  8 17  2  0
 10 18  2  0
  9 19  1  0
 12 20  1  0
 11 21  1  0
 16 22  1  0
 17 23  1  0
 16 24  2  0
 18 25  1  0
 19 25  2  0
 14 26  1  0
 20 27  1  0
 21 28  1  0
 27 28  1  0
 25 29  1  0
 22 30  1  0
 27 31  1  1
 23 32  2  0
 24 32  1  0
 26 33  2  0
 26 34  1  0
 33 35  1  0
 34 36  1  0
 29 37  1  0
 29 38  1  0
 29 39  1  0
 30 40  1  0
 31 41  1  0
 31 42  2  0
 33 43  1  0
 34 44  2  0
 35 45  1  0
 40 46  1  0
 41 47  1  0
 41 48  1  0
 43 49  2  0
 44 49  1  0
 46 50  2  0
 47 51  1  0
 47 52  1  0
 46 53  1  0
 53 54  2  0
 53 55  1  0
 54 56  1  0
 55 57  2  0
 54 58  1  0
 57 59  1  0
 58 59  2  0
M  END
