x0426-x0540-x3110-x0769
     RDKit          3D

 64 70  0  0  0  0  0  0  0  0999 V2000
    7.9930    1.2630   23.2340 N   0  0  0  0  0  0  0  0  0  0  0  0
    8.9980    2.3380   23.4310 C   0  0  0  0  0  0  0  0  0  0  0  0
   10.3230    1.9670   23.5930 C   0  0  0  0  0  0  0  0  0  0  0  0
    7.6780    0.7850   21.9310 C   0  0  0  0  0  0  0  0  0  0  0  0
    8.4710    1.3510   20.8760 O   0  0  0  0  0  0  0  0  0  0  0  0
    6.6030   -0.1530   21.6620 C   0  0  2  0  0  0  0  0  0  0  0  0
    6.8040   -1.5960   22.0650 C   0  0  2  0  0  0  0  0  0  0  0  0
   11.1430    3.2320   23.3300 C   0  0  0  0  0  0  0  0  0  0  0  0
    6.1810    0.2650   20.3800 C   0  0  0  0  0  0  0  0  0  0  0  0
   11.9960    3.2480   22.4480 O   0  0  0  0  0  0  0  0  0  0  0  0
   10.9010    4.2020   24.0350 O   0  0  0  0  0  0  0  0  0  0  0  0
    6.1220   -2.8170   21.2990 C   0  0  0  0  0  0  0  0  0  0  0  0
    6.2180   -2.1050   23.3800 C   0  0  0  0  0  0  0  0  0  0  0  0
    5.1820    1.4080   20.1740 C   0  0  0  0  0  0  0  0  0  0  0  0
    6.7130   -0.3790   19.2810 C   0  0  0  0  0  0  0  0  0  0  0  0
    8.3280   -1.6680   22.5610 C   0  0  0  0  0  0  0  0  0  0  0  0
   12.3190    4.3720   22.0530 C   0  0  0  0  0  0  0  0  0  0  0  0
    4.9110   -3.0070   20.7560 O   0  0  0  0  0  0  0  0  0  0  0  0
    6.9600   -3.9920   21.4430 C   0  0  2  0  0  0  0  0  0  0  0  0
    4.5300    2.2260   21.3160 C   0  0  1  0  0  0  0  0  0  0  0  0
    5.5230   -3.3490   23.2310 C   0  0  0  0  0  0  0  0  0  0  0  0
    6.2880    0.0720   17.9520 N   0  0  0  0  0  0  0  0  0  0  0  0
    4.8230    1.7760   18.9310 C   0  0  0  0  0  0  0  0  0  0  0  0
    9.3810   -2.1560   21.8070 C   0  0  0  0  0  0  0  0  0  0  0  0
    8.6670   -1.2090   23.8460 C   0  0  0  0  0  0  0  0  0  0  0  0
   13.3850    5.1790   22.7930 C   0  0  0  0  0  0  0  0  0  0  0  0
    6.9260   -4.8030   20.2100 C   0  0  0  0  0  0  0  0  0  0  0  0
    3.7840    1.6520   22.2130 C   0  0  1  0  0  0  0  0  0  0  0  0
    5.2320    2.4330   22.4070 C   0  0  0  0  0  0  0  0  0  0  0  0
    5.3380    1.1550   17.8130 C   0  0  0  0  0  0  0  0  0  0  0  0
   10.6610   -2.1870   22.3050 C   0  0  0  0  0  0  0  0  0  0  0  0
    9.9630   -1.2430   24.3360 C   0  0  0  0  0  0  0  0  0  0  0  0
    6.4060   -4.5840   22.6570 C   0  0  0  0  0  0  0  0  0  0  0  0
    2.5960    2.2280   22.6850 N   0  0  0  0  0  0  0  0  0  0  0  0
   11.0000   -1.7390   23.5730 C   0  0  0  0  0  0  0  0  0  0  0  0
    5.5050   -5.6360   22.4880 C   0  0  0  0  0  0  0  0  0  0  0  0
    7.4790   -4.8150   23.5760 C   0  0  0  0  0  0  0  0  0  0  0  0
   12.4240   -1.7630   24.1280 C   0  0  0  0  0  0  0  0  0  0  0  0
    1.9760    1.6440   23.8410 C   0  0  0  0  0  0  0  0  0  0  0  0
    2.3760    3.5740   22.3600 N   0  0  0  0  0  0  0  0  0  0  0  0
    4.9090   -6.1390   23.6440 C   0  0  0  0  0  0  0  0  0  0  0  0
    6.9180   -5.0190   24.9540 C   0  0  0  0  0  0  0  0  0  0  0  0
   12.6380   -0.6560   24.9200 C   0  0  0  0  0  0  0  0  0  0  0  0
   13.3930   -1.6840   22.9440 C   0  0  0  0  0  0  0  0  0  0  0  0
   12.7180   -2.8710   24.7990 C   0  0  0  0  0  0  0  0  0  0  0  0
    2.2070    0.3750   24.2630 O   0  0  0  0  0  0  0  0  0  0  0  0
    1.0290    2.4720   24.6130 C   0  0  0  0  0  0  0  0  0  0  0  0
    5.5020   -5.4990   24.8690 N   0  0  0  0  0  0  0  0  0  0  0  0
    4.6380   -5.4510   26.2840 S   0  0  0  0  0  0  0  0  0  0  0  0
    1.4210    3.6720   25.2490 C   0  0  0  0  0  0  0  0  0  0  0  0
   -0.2870    2.0090   24.6750 C   0  0  0  0  0  0  0  0  0  0  0  0
    2.6960    4.0920   25.1680 F   0  0  0  0  0  0  0  0  0  0  0  0
    5.5970   -5.2370   27.3410 O   0  0  0  0  0  0  0  0  0  0  0  0
    3.7890   -6.6190   26.2620 O   0  0  0  0  0  0  0  0  0  0  0  0
   -1.3730    2.7950   25.4450 C   0  0  0  0  0  0  0  0  0  0  0  0
    0.5410    4.4940   25.9870 C   0  0  0  0  0  0  0  0  0  0  0  0
    3.6550   -3.9880   26.1970 C   0  0  0  0  0  0  0  0  0  0  0  0
   -0.9410    4.1030   26.1360 C   0  0  0  0  0  0  0  0  0  0  0  0
    4.2720   -2.5900   26.1380 C   0  0  0  0  0  0  0  0  0  0  0  0
    2.1380   -4.1120   26.1840 C   0  0  0  0  0  0  0  0  0  0  0  0
    5.5980   -2.4110   26.1500 F   0  0  0  0  0  0  0  0  0  0  0  0
    1.4160   -2.8010   26.1130 C   0  0  0  0  0  0  0  0  0  0  0  0
    3.4810   -1.4340   26.0710 C   0  0  0  0  0  0  0  0  0  0  0  0
    1.9550   -1.5720   26.0590 C   0  0  0  0  0  0  0  0  0  0  0  0
  1  2  1  0
  2  3  1  0
  1  4  1  0
  4  5  2  0
  6  4  1  6
  6  7  1  0
  3  8  1  0
  6  9  1  0
  8 10  1  0
  8 11  2  0
  7 12  1  0
  7 13  1  0
  9 14  1  0
  9 15  2  0
  7 16  1  1
 10 17  1  0
 12 18  2  0
 12 19  1  0
 20 14  1  6
 13 21  1  0
 15 22  1  0
 14 23  2  0
 16 24  2  0
 16 25  1  0
 17 26  1  0
 19 27  1  6
 20 28  1  0
 20 29  1  0
 28 29  1  0
 22 30  2  0
 23 30  1  0
 24 31  1  0
 25 32  2  0
 19 33  1  0
 33 21  1  0
 28 34  1  1
 31 35  2  0
 32 35  1  0
 33 36  1  0
 33 37  1  0
 35 38  1  0
 34 39  1  0
 34 40  1  0
 36 41  1  0
 37 42  1  0
 38 43  1  0
 38 44  1  0
 38 45  1  0
 39 46  2  0
 39 47  1  0
 41 48  1  0
 42 48  1  0
 48 49  1  0
 47 50  2  0
 47 51  1  0
 50 52  1  0
 49 53  2  0
 49 54  2  0
 51 55  2  0
 50 56  1  0
 49 57  1  0
 55 58  1  0
 56 58  2  0
 57 59  2  0
 57 60  1  0
 59 61  1  0
 60 62  2  0
 59 63  1  0
 62 64  1  0
 63 64  2  0
M  END
