x0426-x0786-x3124-x2694
     RDKit          3D

 62 67  0  0  0  0  0  0  0  0999 V2000
    7.4570   -0.8300   22.1160 N   0  0  0  0  0  0  0  0  0  0  0  0
    6.9580    0.4130   21.8100 C   0  0  1  0  0  0  0  0  0  0  0  0
    8.0090    1.5040   21.8110 C   0  0  0  0  0  0  0  0  0  0  0  0
    7.1720   -1.8630   21.1700 C   0  0  0  0  0  0  0  0  0  0  0  0
    8.6680   -1.0050   22.7550 C   0  0  0  0  0  0  0  0  0  0  0  0
    5.7790   -2.3930   21.4380 C   0  0  0  0  0  0  0  0  0  0  0  0
    6.2590    0.6110   20.4020 C   0  0  0  0  0  0  0  0  0  0  0  0
    8.9370   -1.1530   24.0840 N   0  0  0  0  0  0  0  0  0  0  0  0
    9.8620   -1.0800   22.1280 C   0  0  0  0  0  0  0  0  0  0  0  0
    7.7360    2.5990   22.7270 N   0  0  0  0  0  0  0  0  0  0  0  0
    8.9970    1.4880   21.0950 O   0  0  0  0  0  0  0  0  0  0  0  0
    5.7520   -3.8080   21.7360 N   0  0  0  0  0  0  0  0  0  0  0  0
    4.9530    1.0450   20.3410 C   0  0  0  0  0  0  0  0  0  0  0  0
    6.9390    0.3610   19.1800 C   0  0  0  0  0  0  0  0  0  0  0  0
   10.3410   -1.3200   24.2560 O   0  0  0  0  0  0  0  0  0  0  0  0
   10.9890   -1.2810   23.0420 C   0  0  0  0  0  0  0  0  0  0  0  0
   12.4770   -1.4220   22.9460 C   0  0  0  0  0  0  0  0  0  0  0  0
    4.0310    1.3130   21.4940 C   0  0  0  0  0  0  0  0  0  0  0  0
    6.0930   -4.6030   20.6980 C   0  0  0  0  0  0  0  0  0  0  0  0
    6.3870    0.5680   17.9480 N   0  0  0  0  0  0  0  0  0  0  0  0
    4.3530    1.2750   19.0000 C   0  0  0  0  0  0  0  0  0  0  0  0
    8.6190    3.6460   23.0360 C   0  0  0  0  0  0  0  0  0  0  0  0
    5.3650   -4.2430   23.0250 C   0  0  0  0  0  0  0  0  0  0  0  0
   13.0420   -0.0650   23.3750 C   0  0  0  0  0  0  0  0  0  0  0  0
   12.9030   -1.7560   21.5140 C   0  0  0  0  0  0  0  0  0  0  0  0
   13.0130   -2.5890   23.7880 C   0  0  0  0  0  0  0  0  0  0  0  0
    4.3060    2.4220   22.2800 C   0  0  0  0  0  0  0  0  0  0  0  0
    7.5520   -4.8330   20.4690 C   0  0  0  0  0  0  0  0  0  0  0  0
    5.2430   -5.0610   19.9790 O   0  0  0  0  0  0  0  0  0  0  0  0
    5.0350    1.0610   17.8390 C   0  0  0  0  0  0  0  0  0  0  0  0
    9.8360    3.3850   23.6220 C   0  0  0  0  0  0  0  0  0  0  0  0
    8.2490    4.9620   22.7440 C   0  0  0  0  0  0  0  0  0  0  0  0
    4.5590   -5.3490   23.1100 C   0  0  0  0  0  0  0  0  0  0  0  0
    5.7850   -3.5600   24.1810 C   0  0  0  0  0  0  0  0  0  0  0  0
   10.3230    2.0080   23.9750 C   0  0  0  0  0  0  0  0  0  0  0  0
   12.9430   -2.3600   25.2710 C   0  0  0  0  0  0  0  0  0  0  0  0
    3.2360    3.0240   23.1280 N   0  0  0  0  0  0  0  0  0  0  0  0
   10.6210    4.4670   23.8870 C   0  0  0  0  0  0  0  0  0  0  0  0
    9.1180    6.0260   23.0550 C   0  0  0  0  0  0  0  0  0  0  0  0
    4.1360   -5.8070   24.3220 C   0  0  0  0  0  0  0  0  0  0  0  0
    5.3530   -4.0350   25.4210 C   0  0  0  0  0  0  0  0  0  0  0  0
    2.5170    2.2170   24.1270 C   0  0  0  0  0  0  0  0  0  0  0  0
    3.2570   -6.9830   24.3890 C   0  0  0  0  0  0  0  0  0  0  0  0
   10.3730    5.9170   23.6520 C   0  0  0  0  0  0  0  0  0  0  0  0
    4.5250   -5.1600   25.4960 C   0  0  0  0  0  0  0  0  0  0  0  0
   11.1390    6.9990   23.9250 O   0  0  0  0  0  0  0  0  0  0  0  0
    2.9700    0.9450   24.5860 O   0  0  0  0  0  0  0  0  0  0  0  0
    3.7850   -8.1510   25.0060 O   0  0  0  0  0  0  0  0  0  0  0  0
    1.2630    2.8120   24.7060 C   0  0  0  0  0  0  0  0  0  0  0  0
    1.9730   -6.9250   23.8500 N   0  0  0  0  0  0  0  0  0  0  0  0
   11.9050    6.8880   25.1190 C   0  0  0  0  0  0  0  0  0  0  0  0
    1.4260    4.0350   25.3640 C   0  0  0  0  0  0  0  0  0  0  0  0
    0.0070    2.1450   24.5780 C   0  0  0  0  0  0  0  0  0  0  0  0
    1.4650   -5.6210   23.4200 C   0  0  0  0  0  0  0  0  0  0  0  0
    0.9870   -8.0030   23.9910 C   0  0  0  0  0  0  0  0  0  0  0  0
    2.6510    4.5820   25.4320 F   0  0  0  0  0  0  0  0  0  0  0  0
   -1.2360    2.8040   25.1980 C   0  0  0  0  0  0  0  0  0  0  0  0
    0.3960    4.7310   25.9620 C   0  0  0  0  0  0  0  0  0  0  0  0
    0.3850   -5.0520   24.3750 C   0  0  0  0  0  0  0  0  0  0  0  0
   -0.1970   -7.6840   24.9040 C   0  0  0  0  0  0  0  0  0  0  0  0
   -1.0260    4.1440   25.9140 C   0  0  0  0  0  0  0  0  0  0  0  0
   -1.0700   -6.1360   24.4520 S   0  0  0  0  0  0  0  0  0  0  0  0
  1  2  1  0
  2  3  1  6
  1  4  1  0
  1  5  1  0
  4  6  1  0
  2  7  1  0
  5  8  2  0
  5  9  1  0
  3 10  1  0
  3 11  2  0
  6 12  1  0
  7 13  1  0
  7 14  2  0
  8 15  1  0
  9 16  2  0
 15 16  1  0
 16 17  1  0
 13 18  1  0
 12 19  1  0
 14 20  1  0
 13 21  2  0
 10 22  1  0
 12 23  1  0
 17 24  1  0
 17 25  1  0
 17 26  1  0
 18 27  1  0
 19 28  1  0
 19 29  2  0
 20 30  2  0
 21 30  1  0
 22 31  2  0
 22 32  1  0
 23 33  2  0
 23 34  1  0
 31 35  1  0
 26 36  1  0
 27 37  1  0
 31 38  1  0
 32 39  2  0
 33 40  1  0
 34 41  2  0
 37 42  1  0
 40 43  1  0
 38 44  2  0
 39 44  1  0
 40 45  2  0
 41 45  1  0
 44 46  1  0
 42 47  2  0
 43 48  2  0
 42 49  1  0
 43 50  1  0
 46 51  1  0
 49 52  2  0
 49 53  1  0
 50 54  1  0
 50 55  1  0
 52 56  1  0
 53 57  2  0
 52 58  1  0
 54 59  1  0
 55 60  1  0
 57 61  1  0
 58 61  2  0
 59 62  1  0
 60 62  1  0
M  END
