x0426-x1458-x2776-x3115
     RDKit          3D

 60 64  0  0  0  0  0  0  0  0999 V2000
    7.2650   -0.9880   21.9300 N   0  0  0  0  0  0  0  0  0  0  0  0
    6.8510    0.3950   21.6860 C   0  0  1  0  0  0  0  0  0  0  0  0
    7.9900    1.4070   21.7640 C   0  0  0  0  0  0  0  0  0  0  0  0
    6.4310   -2.0930   21.9980 C   0  0  0  0  0  0  0  0  0  0  0  0
    8.4680   -1.1970   22.6070 C   0  0  0  0  0  0  0  0  0  0  0  0
    6.1340    0.6850   20.3210 C   0  0  0  0  0  0  0  0  0  0  0  0
    9.5800   -1.7600   21.7740 C   0  0  0  0  0  0  0  0  0  0  0  0
    8.7140   -0.9510   23.9080 C   0  0  0  0  0  0  0  0  0  0  0  0
    7.2300   -3.3910   22.2610 C   0  0  2  0  0  0  0  0  0  0  0  0
    7.9200    2.2040   22.8680 N   0  0  0  0  0  0  0  0  0  0  0  0
    8.8830    1.5280   20.9490 O   0  0  0  0  0  0  0  0  0  0  0  0
    4.9000    1.3250   20.1220 C   0  0  0  0  0  0  0  0  0  0  0  0
    6.8220    0.2530   19.1970 C   0  0  0  0  0  0  0  0  0  0  0  0
   10.8190   -2.0120   22.3110 C   0  0  0  0  0  0  0  0  0  0  0  0
    9.9340   -1.2020   24.4400 C   0  0  0  0  0  0  0  0  0  0  0  0
    6.7330   -4.5780   21.5440 N   0  0  0  0  0  0  0  0  0  0  0  0
    7.2380   -3.6460   23.6020 C   0  0  0  0  0  0  0  0  0  0  0  0
    3.9340    1.8770   21.1020 C   0  0  0  0  0  0  0  0  0  0  0  0
    6.2080   -4.3560   20.2950 C   0  0  0  0  0  0  0  0  0  0  0  0
    6.3990    0.4190   17.9340 N   0  0  0  0  0  0  0  0  0  0  0  0
    4.4750    1.4940   18.8500 C   0  0  0  0  0  0  0  0  0  0  0  0
    8.6640    3.3680   23.0600 C   0  0  0  0  0  0  0  0  0  0  0  0
   10.9990   -1.7240   23.6760 C   0  0  0  0  0  0  0  0  0  0  0  0
    6.0590   -4.1960   24.0020 C   0  0  2  0  0  0  0  0  0  0  0  0
    6.4010   -5.8020   22.3010 C   0  0  0  0  0  0  0  0  0  0  0  0
   12.3240   -1.9670   24.2920 C   0  0  2  0  0  0  0  0  0  0  0  0
    4.2990    1.8240   22.4470 C   0  0  0  0  0  0  0  0  0  0  0  0
    5.2120   -4.9410   19.9560 O   0  0  0  0  0  0  0  0  0  0  0  0
    5.7640   -3.8580   25.4480 C   0  0  0  0  0  0  0  0  0  0  0  0
    6.9610   -3.4000   19.3780 C   0  0  0  0  0  0  0  0  0  0  0  0
    5.2270    1.0480   17.7960 C   0  0  0  0  0  0  0  0  0  0  0  0
    9.9500    3.2230   23.5890 C   0  0  0  0  0  0  0  0  0  0  0  0
    8.1620    4.6390   22.7360 C   0  0  0  0  0  0  0  0  0  0  0  0
    5.9370   -5.5380   23.7360 C   0  0  0  0  0  0  0  0  0  0  0  0
   12.1960   -2.7520   25.2180 O   0  0  0  0  0  0  0  0  0  0  0  0
   10.5270    1.8760   23.9300 C   0  0  0  0  0  0  0  0  0  0  0  0
   12.8890   -0.5900   24.5250 C   0  0  0  0  0  0  0  0  0  0  0  0
    3.3370    2.4670   23.1400 N   0  0  0  0  0  0  0  0  0  0  0  0
    6.8580   -3.4550   26.3490 N   0  0  0  0  0  0  0  0  0  0  0  0
    4.3930   -3.8210   25.8490 O   0  0  0  0  0  0  0  0  0  0  0  0
   10.7000    4.3130   23.8010 C   0  0  0  0  0  0  0  0  0  0  0  0
    8.9050    5.7770   22.9350 C   0  0  0  0  0  0  0  0  0  0  0  0
   13.4500   -3.1970   25.6720 C   0  0  0  0  0  0  0  0  0  0  0  0
    8.3210    7.1190   22.5580 C   0  0  0  0  0  0  0  0  0  0  0  0
    2.2560    1.7440   23.8230 C   0  0  0  0  0  0  0  0  0  0  0  0
    7.4320   -4.4330   27.3140 C   0  0  0  0  0  0  0  0  0  0  0  0
    6.6830   -2.1860   26.7380 C   0  0  0  0  0  0  0  0  0  0  0  0
   10.1780    5.6630   23.4760 C   0  0  0  0  0  0  0  0  0  0  0  0
   10.8630    6.8320   23.6670 O   0  0  0  0  0  0  0  0  0  0  0  0
    2.1750    0.3890   23.8360 O   0  0  0  0  0  0  0  0  0  0  0  0
    8.9220   -4.7190   27.0740 C   0  0  0  0  0  0  0  0  0  0  0  0
    6.5100   -5.6580   27.4700 C   0  0  0  0  0  0  0  0  0  0  0  0
    1.2210    2.5510   24.5340 C   0  0  0  0  0  0  0  0  0  0  0  0
   11.8220    6.8160   24.7270 C   0  0  0  0  0  0  0  0  0  0  0  0
    1.5180    3.8670   25.2460 C   0  0  0  0  0  0  0  0  0  0  0  0
   -0.1070    2.0930   24.5630 C   0  0  0  0  0  0  0  0  0  0  0  0
    2.7560    4.3890   25.2770 F   0  0  0  0  0  0  0  0  0  0  0  0
   -1.1030    2.8300   25.2240 C   0  0  0  0  0  0  0  0  0  0  0  0
    0.4910    4.5550   25.8850 C   0  0  0  0  0  0  0  0  0  0  0  0
   -0.8170    4.0400   25.8760 C   0  0  0  0  0  0  0  0  0  0  0  0
  1  2  1  0
  2  3  1  6
  1  4  1  0
  1  5  1  0
  2  6  1  0
  5  7  2  0
  5  8  1  0
  9  4  1  1
  3 10  1  0
  3 11  2  0
  6 12  1  0
  6 13  2  0
  7 14  1  0
  8 15  2  0
  9 16  1  0
  9 17  1  0
 12 18  1  0
 16 19  1  0
 13 20  1  0
 12 21  2  0
 10 22  1  0
 14 23  2  0
 15 23  1  0
 17 24  1  0
 16 25  1  0
 23 26  1  0
 18 27  1  0
 19 28  2  0
 24 29  1  1
 19 30  1  0
 20 31  2  0
 21 31  1  0
 22 32  2  0
 22 33  1  0
 24 34  1  0
 25 34  1  0
 26 35  1  0
 32 36  1  0
 26 37  1  1
 27 38  1  0
 29 39  1  0
 29 40  2  0
 32 41  1  0
 33 42  2  0
 35 43  1  0
 42 44  1  0
 38 45  1  0
 39 46  1  0
 39 47  1  0
 41 48  2  0
 42 48  1  0
 48 49  1  0
 45 50  2  0
 46 51  1  0
 46 52  1  0
 45 53  1  0
 49 54  1  0
 53 55  2  0
 53 56  1  0
 55 57  1  0
 56 58  2  0
 55 59  1  0
 58 60  1  0
 59 60  2  0
M  END
