x0426-x1458
     RDKit          3D

 37 39  0  0  0  0  0  0  0  0999 V2000
    7.4420   -3.5240   26.6470 N   0  0  0  0  0  0  0  0  0  0  0  0
    7.7720   -4.7190   27.4330 C   0  0  0  0  0  0  0  0  0  0  0  0
    8.9670   -5.5230   26.8860 C   0  0  0  0  0  0  0  0  0  0  0  0
    7.8480   -2.2990   27.1470 C   0  0  0  0  0  0  0  0  0  0  0  0
    6.5510   -3.4620   25.7260 C   0  0  0  0  0  0  0  0  0  0  0  0
    5.2310   -2.8720   25.9640 N   0  0  0  0  0  0  0  0  0  0  0  0
    6.5430   -5.6420   27.5910 C   0  0  0  0  0  0  0  0  0  0  0  0
    6.9540   -3.9990   24.3230 C   0  0  0  0  0  0  0  0  0  0  0  0
    4.1770   -2.7010   25.0280 C   0  0  0  0  0  0  0  0  0  0  0  0
    7.3400   -2.8720   23.3800 C   0  0  0  0  0  0  0  0  0  0  0  0
    5.9860   -4.8940   23.8300 C   0  0  0  0  0  0  0  0  0  0  0  0
    3.2190   -1.7250   25.3440 C   0  0  0  0  0  0  0  0  0  0  0  0
    7.6730   -3.2190   22.0940 C   0  0  0  0  0  0  0  0  0  0  0  0
    6.5240   -5.4190   22.4830 C   0  0  0  0  0  0  0  0  0  0  0  0
    3.4840   -0.7030   24.2130 C   0  0  0  0  0  0  0  0  0  0  0  0
    6.7790   -4.2730   21.6120 N   0  0  0  0  0  0  0  0  0  0  0  0
    6.2610   -4.2160   20.3130 C   0  0  0  0  0  0  0  0  0  0  0  0
    2.4640    0.3600   24.5240 N   0  0  0  0  0  0  0  0  0  0  0  0
    5.3080   -4.9060   19.9840 O   0  0  0  0  0  0  0  0  0  0  0  0
    6.9730   -3.3170   19.3120 C   0  0  0  0  0  0  0  0  0  0  0  0
    2.4730    1.7610   24.0650 C   0  0  0  0  0  0  0  0  0  0  0  0
    3.3610    2.3930   23.2710 N   0  0  0  0  0  0  0  0  0  0  0  0
    1.2690    2.6110   24.6490 C   0  0  0  0  0  0  0  0  0  0  0  0
    4.3010    1.7100   22.3750 C   0  0  0  0  0  0  0  0  0  0  0  0
    1.4680    3.8630   25.2330 C   0  0  0  0  0  0  0  0  0  0  0  0
   -0.0100    2.0620   24.5730 C   0  0  0  0  0  0  0  0  0  0  0  0
    3.6390    1.2150   21.0750 C   0  0  0  0  0  0  0  0  0  0  0  0
    2.7010    4.3880   25.3050 F   0  0  0  0  0  0  0  0  0  0  0  0
   -1.0920    2.7890   25.0960 C   0  0  0  0  0  0  0  0  0  0  0  0
    0.4000    4.5910   25.7550 C   0  0  0  0  0  0  0  0  0  0  0  0
   -0.8870    4.0430   25.6830 C   0  0  0  0  0  0  0  0  0  0  0  0
    4.6490    0.9640   19.9880 C   0  0  0  0  0  0  0  0  0  0  0  0
    5.7300    0.0900   20.1810 C   0  0  0  0  0  0  0  0  0  0  0  0
    4.5220    1.5990   18.7680 C   0  0  0  0  0  0  0  0  0  0  0  0
    6.6260   -0.0970   19.1250 C   0  0  0  0  0  0  0  0  0  0  0  0
    5.4640    1.3480   17.7810 C   0  0  0  0  0  0  0  0  0  0  0  0
    6.5030    0.5160   17.9330 N   0  0  0  0  0  0  0  0  0  0  0  0
  1  2  1  0
  2  3  1  0
  1  4  1  0
  1  5  1  0
  5  6  2  3
  2  7  1  0
  5  8  1  0
  6  9  1  0
  8 10  1  0
  8 11  1  0
  9 12  1  0
 10 13  1  0
 11 14  1  0
 12 15  1  0
 13 16  1  0
 14 16  1  0
 16 17  1  0
 15 18  1  0
 17 19  2  0
 17 20  1  0
 18 21  2  3
 21 22  1  0
 21 23  1  0
 22 24  1  0
 23 25  2  0
 23 26  1  0
 24 27  1  0
 25 28  1  0
 26 29  2  0
 25 30  1  0
 29 31  1  0
 30 31  2  0
 27 32  1  0
 32 33  2  0
 32 34  1  0
 33 35  1  0
 34 36  2  0
 35 37  2  0
 36 37  1  0
M  END
