x0426-x1425-x2694-x0354
     RDKit          3D

 70 76  0  0  0  0  0  0  0  0999 V2000
    7.5460   -0.6360   22.0350 N   0  0  0  0  0  0  0  0  0  0  0  0
    6.9490    0.5750   21.7880 C   0  0  1  0  0  0  0  0  0  0  0  0
    7.9940    1.6490   21.8510 C   0  0  0  0  0  0  0  0  0  0  0  0
    7.4620   -1.8310   21.3430 C   0  0  0  0  0  0  0  0  0  0  0  0
    8.7740   -0.7180   22.9000 C   0  0  1  0  0  0  0  0  0  0  0  0
    6.2550    0.6610   20.4650 C   0  0  0  0  0  0  0  0  0  0  0  0
    8.7710   -1.7050   23.9860 N   0  0  0  0  0  0  0  0  0  0  0  0
   10.1700   -0.8740   22.2080 C   0  0  0  0  0  0  0  0  0  0  0  0
    7.1300   -3.0820   22.2040 C   0  0  2  0  0  0  0  0  0  0  0  0
    7.7580    2.6640   22.7440 N   0  0  0  0  0  0  0  0  0  0  0  0
    8.9830    1.6120   21.1280 O   0  0  0  0  0  0  0  0  0  0  0  0
    8.1490   -1.3120   25.1150 N   0  0  0  0  0  0  0  0  0  0  0  0
    4.8800    1.2700   20.2850 C   0  0  0  0  0  0  0  0  0  0  0  0
    7.0190    0.1560   19.4900 C   0  0  0  0  0  0  0  0  0  0  0  0
   10.1450   -2.0360   24.2240 O   0  0  0  0  0  0  0  0  0  0  0  0
   10.9120   -1.8630   23.0270 C   0  0  2  0  0  0  0  0  0  0  0  0
    6.7260   -4.2540   21.4160 N   0  0  0  0  0  0  0  0  0  0  0  0
    6.1250   -2.8470   23.1250 C   0  0  0  0  0  0  0  0  0  0  0  0
   12.3640   -1.6700   23.3500 C   0  0  0  0  0  0  0  0  0  0  0  0
    3.9230    1.8520   21.3100 C   0  0  0  0  0  0  0  0  0  0  0  0
    9.0630   -0.4780   25.8700 C   0  0  0  0  0  0  0  0  0  0  0  0
    6.1970   -4.0600   20.1340 C   0  0  0  0  0  0  0  0  0  0  0  0
    6.5030    0.2130   18.0940 N   0  0  0  0  0  0  0  0  0  0  0  0
    4.3800    1.3230   18.9130 C   0  0  0  0  0  0  0  0  0  0  0  0
    8.5820    3.7510   23.0520 C   0  0  0  0  0  0  0  0  0  0  0  0
    5.8500   -4.0320   23.9910 N   0  0  0  0  0  0  0  0  0  0  0  0
    6.3910   -5.4830   22.1760 C   0  0  0  0  0  0  0  0  0  0  0  0
   12.6900   -0.2410   23.8050 C   0  0  0  0  0  0  0  0  0  0  0  0
   13.1070   -1.9880   22.0530 C   0  0  0  0  0  0  0  0  0  0  0  0
   12.8060   -2.4410   24.3590 C   0  0  0  0  0  0  0  0  0  0  0  0
    4.2970    1.9200   22.6380 C   0  0  0  0  0  0  0  0  0  0  0  0
    8.5820   -0.0230   27.0140 C   0  0  0  0  0  0  0  0  0  0  0  0
    5.1190   -4.5190   19.8180 O   0  0  0  0  0  0  0  0  0  0  0  0
    7.0430   -3.3060   19.0970 C   0  0  0  0  0  0  0  0  0  0  0  0
    5.2050    0.7980   17.8280 C   0  0  0  0  0  0  0  0  0  0  0  0
    9.7830    3.4580   23.6720 C   0  0  0  0  0  0  0  0  0  0  0  0
    8.2590    5.0850   22.7720 C   0  0  0  0  0  0  0  0  0  0  0  0
    5.0450   -3.6580   25.0770 C   0  0  0  0  0  0  0  0  0  0  0  0
    5.5350   -5.2850   23.2590 C   0  0  0  0  0  0  0  0  0  0  0  0
   10.2420    2.0770   24.0170 C   0  0  0  0  0  0  0  0  0  0  0  0
    3.4290    2.5050   23.4420 N   0  0  0  0  0  0  0  0  0  0  0  0
    7.4160   -0.3290   27.2570 O   0  0  0  0  0  0  0  0  0  0  0  0
   10.7170    4.5940   24.0370 C   0  0  0  0  0  0  0  0  0  0  0  0
    9.0680    6.1240   23.0890 C   0  0  0  0  0  0  0  0  0  0  0  0
    5.3920   -2.5420   25.8730 C   0  0  0  0  0  0  0  0  0  0  0  0
    3.7660   -4.3920   25.4750 C   0  0  0  0  0  0  0  0  0  0  0  0
    2.3090    1.8120   23.8940 C   0  0  0  0  0  0  0  0  0  0  0  0
   10.2650    6.0000   23.7010 C   0  0  0  0  0  0  0  0  0  0  0  0
    6.8640    0.5890   28.0890 C   0  0  0  0  0  0  0  0  0  0  0  0
    4.6200   -2.1010   26.9760 C   0  0  0  0  0  0  0  0  0  0  0  0
    2.9470   -3.9210   26.6460 C   0  0  0  0  0  0  0  0  0  0  0  0
   10.9690    7.1280   23.9720 O   0  0  0  0  0  0  0  0  0  0  0  0
    2.1520    0.4130   23.7350 O   0  0  0  0  0  0  0  0  0  0  0  0
    1.2480    2.5950   24.5800 C   0  0  0  0  0  0  0  0  0  0  0  0
    6.8980    2.0910   27.8250 C   0  0  0  0  0  0  0  0  0  0  0  0
    6.2360    0.1420   29.2610 C   0  0  0  0  0  0  0  0  0  0  0  0
    3.4390   -2.7080   27.4040 C   0  0  0  0  0  0  0  0  0  0  0  0
   11.8920    7.0050   25.0510 C   0  0  0  0  0  0  0  0  0  0  0  0
    2.6630   -2.3190   28.4560 O   0  0  0  0  0  0  0  0  0  0  0  0
    1.4960    3.8860   25.2640 C   0  0  0  0  0  0  0  0  0  0  0  0
   -0.1000    2.1160   24.6080 C   0  0  0  0  0  0  0  0  0  0  0  0
    6.2570    2.9880   28.8750 C   0  0  0  0  0  0  0  0  0  0  0  0
    5.6460    0.9640   30.2190 C   0  0  0  0  0  0  0  0  0  0  0  0
    2.7190    4.4370   25.3040 F   0  0  0  0  0  0  0  0  0  0  0  0
    1.3140   -2.3380   28.2430 C   0  0  0  0  0  0  0  0  0  0  0  0
   -1.1310    2.8050   25.2380 C   0  0  0  0  0  0  0  0  0  0  0  0
    0.4480    4.5450   25.8800 C   0  0  0  0  0  0  0  0  0  0  0  0
    5.6680    2.4730   30.0090 C   0  0  0  0  0  0  0  0  0  0  0  0
    5.0690    3.4120   31.0050 C   0  0  0  0  0  0  0  0  0  0  0  0
   -0.8420    4.0060   25.8650 C   0  0  0  0  0  0  0  0  0  0  0  0
  1  2  1  0
  2  3  1  6
  1  4  1  0
  5  1  1  6
  2  6  1  0
  5  7  1  0
  5  8  1  0
  9  4  1  6
  3 10  1  0
  3 11  2  0
  7 12  1  0
  6 13  1  0
  6 14  2  0
  7 15  1  0
  8 16  1  0
 15 16  1  0
  9 17  1  0
  9 18  1  0
 16 19  1  1
 13 20  1  0
 12 21  2  3
 17 22  1  0
 14 23  1  0
 13 24  2  0
 10 25  1  0
 18 26  1  0
 17 27  1  0
 19 28  1  0
 19 29  1  0
 19 30  1  0
 20 31  1  0
 21 32  1  0
 22 33  2  0
 22 34  1  0
 23 35  2  0
 24 35  1  0
 25 36  2  0
 25 37  1  0
 26 38  1  0
 26 39  1  0
 27 39  1  0
 36 40  1  0
 31 41  1  0
 32 42  1  0
 36 43  1  0
 37 44  2  0
 38 45  2  0
 38 46  1  0
 41 47  1  0
 43 48  2  0
 44 48  1  0
 42 49  1  0
 45 50  1  0
 46 51  2  0
 48 52  1  0
 47 53  2  0
 47 54  1  0
 49 55  2  0
 49 56  1  0
 50 57  2  0
 51 57  1  0
 52 58  1  0
 57 59  1  0
 54 60  2  0
 54 61  1  0
 55 62  1  0
 56 63  2  0
 60 64  1  0
 59 65  1  0
 61 66  2  0
 60 67  1  0
 62 68  2  0
 63 68  1  0
 68 69  1  0
 66 70  1  0
 67 70  2  0
M  END
