x0426-x3110-x3113-x0786
     RDKit          3D

 58 62  0  0  0  0  0  0  0  0999 V2000
    7.9320    1.2370   23.2130 N   0  0  0  0  0  0  0  0  0  0  0  0
    8.8470    2.2750   23.5050 C   0  0  0  0  0  0  0  0  0  0  0  0
   10.2160    2.0760   23.5000 C   0  0  0  0  0  0  0  0  0  0  0  0
    7.7150    0.7350   21.8340 C   0  0  0  0  0  0  0  0  0  0  0  0
    8.4610    1.1790   20.9400 O   0  0  0  0  0  0  0  0  0  0  0  0
    6.6280   -0.1680   21.5880 C   0  0  2  0  0  0  0  0  0  0  0  0
    6.9900   -1.6250   21.7370 N   0  0  0  0  0  0  0  0  0  0  0  0
   10.9550    3.2620   23.4090 C   0  0  0  0  0  0  0  0  0  0  0  0
    6.0550    0.3010   20.2620 C   0  0  0  0  0  0  0  0  0  0  0  0
   11.8190    3.1540   22.5450 O   0  0  0  0  0  0  0  0  0  0  0  0
   10.7750    4.2840   24.0870 O   0  0  0  0  0  0  0  0  0  0  0  0
    6.1270   -2.8070   21.4590 C   0  0  0  0  0  0  0  0  0  0  0  0
    4.8670    0.9900   20.1190 C   0  0  0  0  0  0  0  0  0  0  0  0
    6.8290    0.0070   19.2040 C   0  0  0  0  0  0  0  0  0  0  0  0
    8.2690   -1.6730   22.4390 C   0  0  0  0  0  0  0  0  0  0  0  0
   12.3140    4.4040   22.0520 C   0  0  0  0  0  0  0  0  0  0  0  0
    4.8860   -3.0020   20.9990 O   0  0  0  0  0  0  0  0  0  0  0  0
    6.8100   -4.0820   21.8010 C   0  0  2  0  0  0  0  0  0  0  0  0
    3.8190    1.4190   21.1930 C   0  0  0  0  0  0  0  0  0  0  0  0
    6.3980    0.4550   17.8910 N   0  0  0  0  0  0  0  0  0  0  0  0
    4.4950    1.3960   18.8710 C   0  0  0  0  0  0  0  0  0  0  0  0
    9.3670   -2.0220   21.7090 C   0  0  0  0  0  0  0  0  0  0  0  0
    8.4430   -1.3580   23.8110 C   0  0  0  0  0  0  0  0  0  0  0  0
   13.4110    5.1960   22.8040 C   0  0  0  0  0  0  0  0  0  0  0  0
    6.8490   -4.9300   20.5150 C   0  0  0  0  0  0  0  0  0  0  0  0
    4.3220    1.8910   22.4210 C   0  0  0  0  0  0  0  0  0  0  0  0
    5.2490    1.1450   17.7530 C   0  0  0  0  0  0  0  0  0  0  0  0
   10.7680   -2.0670   22.2810 C   0  0  0  0  0  0  0  0  0  0  0  0
    9.7590   -1.3870   24.4020 C   0  0  0  0  0  0  0  0  0  0  0  0
    5.9340   -4.5010   22.9940 C   0  0  0  0  0  0  0  0  0  0  0  0
    3.2580    2.6180   23.1180 N   0  0  0  0  0  0  0  0  0  0  0  0
   11.0010   -1.7600   23.5770 C   0  0  0  0  0  0  0  0  0  0  0  0
    5.0340   -5.7440   23.0230 C   0  0  0  0  0  0  0  0  0  0  0  0
    5.9860   -3.6440   24.0910 C   0  0  0  0  0  0  0  0  0  0  0  0
   12.4550   -1.7840   24.1390 C   0  0  0  0  0  0  0  0  0  0  0  0
    2.2180    1.8350   23.8050 C   0  0  0  0  0  0  0  0  0  0  0  0
    4.2850   -5.9690   24.1720 C   0  0  0  0  0  0  0  0  0  0  0  0
    5.2410   -3.8680   25.2320 C   0  0  0  0  0  0  0  0  0  0  0  0
   12.5590   -0.6380   24.9280 C   0  0  0  0  0  0  0  0  0  0  0  0
   13.3450   -1.9340   23.0680 C   0  0  0  0  0  0  0  0  0  0  0  0
   12.8250   -2.9670   25.0330 C   0  0  0  0  0  0  0  0  0  0  0  0
    2.1850    0.4220   23.7930 O   0  0  0  0  0  0  0  0  0  0  0  0
    3.3900   -7.1530   24.3010 C   0  0  0  0  0  0  0  0  0  0  0  0
    1.1780    2.5880   24.5320 C   0  0  0  0  0  0  0  0  0  0  0  0
    4.3970   -4.9740   25.3370 C   0  0  0  0  0  0  0  0  0  0  0  0
    3.9330   -8.1290   24.7810 O   0  0  0  0  0  0  0  0  0  0  0  0
    1.4630    3.8990   25.2850 C   0  0  0  0  0  0  0  0  0  0  0  0
   -0.2520    2.0670   24.5520 C   0  0  0  0  0  0  0  0  0  0  0  0
    2.0640   -7.1840   23.9570 N   0  0  0  0  0  0  0  0  0  0  0  0
    2.7150    4.3940   25.2890 F   0  0  0  0  0  0  0  0  0  0  0  0
   -1.3190    2.8610   25.3100 C   0  0  0  0  0  0  0  0  0  0  0  0
    0.4970    4.6280   25.9780 C   0  0  0  0  0  0  0  0  0  0  0  0
    1.3780   -6.2390   23.0810 C   0  0  0  0  0  0  0  0  0  0  0  0
    1.1850   -8.0100   24.7980 C   0  0  0  0  0  0  0  0  0  0  0  0
   -0.9180    4.1500   26.0220 C   0  0  0  0  0  0  0  0  0  0  0  0
    0.2870   -5.4500   23.8190 C   0  0  0  0  0  0  0  0  0  0  0  0
   -0.1390   -8.0860   24.3840 C   0  0  0  0  0  0  0  0  0  0  0  0
   -1.0070   -6.4850   24.5400 S   0  0  0  0  0  0  0  0  0  0  0  0
  1  2  1  0
  2  3  1  0
  1  4  1  0
  4  5  2  0
  6  4  1  6
  6  7  1  0
  3  8  1  0
  6  9  1  0
  8 10  1  0
  8 11  2  0
  7 12  1  0
  9 13  1  0
  9 14  2  0
  7 15  1  0
 10 16  1  0
 12 17  2  0
 12 18  1  0
 13 19  1  0
 14 20  1  0
 13 21  2  0
 15 22  2  0
 15 23  1  0
 16 24  1  0
 18 25  1  6
 19 26  1  0
 20 27  2  0
 21 27  1  0
 22 28  1  0
 23 29  2  0
 18 30  1  0
 26 31  1  0
 28 32  2  0
 29 32  1  0
 30 33  2  0
 30 34  1  0
 32 35  1  0
 31 36  1  0
 33 37  1  0
 34 38  2  0
 35 39  1  0
 35 40  1  0
 35 41  1  0
 36 42  2  0
 37 43  1  0
 36 44  1  0
 37 45  2  0
 38 45  1  0
 43 46  2  0
 44 47  2  0
 44 48  1  0
 43 49  1  0
 47 50  1  0
 48 51  2  0
 47 52  1  0
 49 53  1  0
 49 54  1  0
 51 55  1  0
 52 55  2  0
 53 56  1  0
 54 57  1  0
 56 58  1  0
 57 58  1  0
M  END
