x0426-x2705-x1493-x2694
     RDKit          3D

 57 61  0  0  0  0  0  0  0  0999 V2000
    6.7410   -1.2490   22.3160 C   0  0  1  0  0  0  0  0  0  0  0  0
    6.0800   -2.6150   21.6390 C   0  0  0  0  0  0  0  0  0  0  0  0
    4.8080   -3.0200   21.3390 O   0  0  0  0  0  0  0  0  0  0  0  0
    6.5070    0.1300   21.7040 C   0  0  1  0  0  0  0  0  0  0  0  0
    5.9740   -1.1120   23.6420 C   0  0  0  0  0  0  0  0  0  0  0  0
    8.2580   -1.3690   22.8220 C   0  0  0  0  0  0  0  0  0  0  0  0
    7.1590   -3.5710   21.3800 C   0  0  2  0  0  0  0  0  0  0  0  0
    7.6790    1.1620   21.8060 C   0  0  0  0  0  0  0  0  0  0  0  0
    6.0010    0.3950   20.3650 C   0  0  0  0  0  0  0  0  0  0  0  0
    8.4780   -1.4910   24.2720 N   0  0  0  0  0  0  0  0  0  0  0  0
    9.4380   -1.3590   22.1380 C   0  0  0  0  0  0  0  0  0  0  0  0
    6.8240   -4.1870   20.0540 C   0  0  0  0  0  0  0  0  0  0  0  0
    7.4710    2.1430   22.7690 N   0  0  0  0  0  0  0  0  0  0  0  0
    8.6850    1.1680   21.0810 O   0  0  0  0  0  0  0  0  0  0  0  0
    4.7690    0.9580   20.1010 C   0  0  0  0  0  0  0  0  0  0  0  0
    6.8440    0.0810   19.2910 C   0  0  0  0  0  0  0  0  0  0  0  0
    9.8140   -1.5380   24.3700 N   0  0  0  0  0  0  0  0  0  0  0  0
   10.4980   -1.4600   23.0650 C   0  0  0  0  0  0  0  0  0  0  0  0
    7.3380   -4.5000   22.5970 C   0  0  1  0  0  0  0  0  0  0  0  0
   12.0580   -1.4920   22.9900 C   0  0  0  0  0  0  0  0  0  0  0  0
    3.7600    1.3210   21.1690 C   0  0  0  0  0  0  0  0  0  0  0  0
    6.5020    0.3420   17.9140 N   0  0  0  0  0  0  0  0  0  0  0  0
    4.4110    1.2250   18.8060 C   0  0  0  0  0  0  0  0  0  0  0  0
    8.2140    3.3120   22.9500 C   0  0  0  0  0  0  0  0  0  0  0  0
    6.5230   -4.1800   23.8380 C   0  0  0  0  0  0  0  0  0  0  0  0
    7.2270   -5.8920   22.1140 N   0  0  0  0  0  0  0  0  0  0  0  0
   12.6860   -0.4680   23.7570 C   0  0  0  0  0  0  0  0  0  0  0  0
   12.7380   -2.1630   24.1790 C   0  0  0  0  0  0  0  0  0  0  0  0
   12.6140   -1.9270   21.8460 C   0  0  0  0  0  0  0  0  0  0  0  0
    4.2420    2.0440   22.2590 C   0  0  0  0  0  0  0  0  0  0  0  0
    5.2100    0.9540   17.7350 C   0  0  0  0  0  0  0  0  0  0  0  0
    9.6070    3.2120   23.5700 C   0  0  0  0  0  0  0  0  0  0  0  0
    7.7570    4.6140   22.5960 C   0  0  0  0  0  0  0  0  0  0  0  0
    5.8190   -5.3650   24.2850 N   0  0  0  0  0  0  0  0  0  0  0  0
    5.9130   -6.5260   22.2570 C   0  0  0  0  0  0  0  0  0  0  0  0
   10.2580    1.9390   23.9940 C   0  0  0  0  0  0  0  0  0  0  0  0
    6.4130    4.8600   21.9610 C   0  0  0  0  0  0  0  0  0  0  0  0
    3.0560    2.6350   22.8960 N   0  0  0  0  0  0  0  0  0  0  0  0
    5.6770   -5.6470   25.6350 C   0  0  0  0  0  0  0  0  0  0  0  0
   10.3430    4.3660   23.7690 C   0  0  0  0  0  0  0  0  0  0  0  0
    8.5890    5.9090   22.8270 C   0  0  0  0  0  0  0  0  0  0  0  0
    5.0590   -5.9940   23.2160 C   0  0  0  0  0  0  0  0  0  0  0  0
    9.2890    1.2300   24.9470 C   0  0  0  0  0  0  0  0  0  0  0  0
    2.1640    1.8480   23.7520 C   0  0  0  0  0  0  0  0  0  0  0  0
    4.6350   -6.4410   26.0990 C   0  0  0  0  0  0  0  0  0  0  0  0
    6.3900   -5.2740   26.5580 O   0  0  0  0  0  0  0  0  0  0  0  0
    9.8600    5.7590   23.4140 C   0  0  0  0  0  0  0  0  0  0  0  0
   10.6020    6.8970   23.6370 O   0  0  0  0  0  0  0  0  0  0  0  0
    2.2200    0.4250   23.8660 O   0  0  0  0  0  0  0  0  0  0  0  0
    1.1570    2.6130   24.5290 C   0  0  0  0  0  0  0  0  0  0  0  0
   11.7040    6.7790   24.5530 C   0  0  0  0  0  0  0  0  0  0  0  0
    1.4280    3.8050   25.2390 C   0  0  0  0  0  0  0  0  0  0  0  0
   -0.1510    2.1780   24.6000 C   0  0  0  0  0  0  0  0  0  0  0  0
    2.6690    4.3290   25.2470 F   0  0  0  0  0  0  0  0  0  0  0  0
   -1.1360    2.8380   25.3010 C   0  0  0  0  0  0  0  0  0  0  0  0
    0.4330    4.4950   25.9610 C   0  0  0  0  0  0  0  0  0  0  0  0
   -0.8690    4.0010   25.9900 C   0  0  0  0  0  0  0  0  0  0  0  0
  1  2  1  0
  2  3  2  0
  1  4  1  0
  1  5  1  1
  1  6  1  0
  2  7  1  0
  4  8  1  6
  4  9  1  0
  6 10  2  0
  6 11  1  0
  7 12  1  6
  8 13  1  0
  8 14  2  0
  9 15  1  0
  9 16  2  0
 10 17  1  0
 11 18  2  0
 17 18  1  0
  7 19  1  0
 18 20  1  0
 15 21  1  0
 16 22  1  0
 15 23  2  0
 13 24  1  0
 19 25  1  1
 19 26  1  0
 20 27  1  0
 20 28  1  0
 20 29  1  0
 21 30  1  0
 22 31  2  0
 23 31  1  0
 24 32  2  0
 24 33  1  0
 25 34  1  0
 26 35  1  0
 32 36  1  0
 33 37  1  0
 30 38  1  0
 34 39  1  0
 32 40  1  0
 33 41  2  0
 34 42  1  0
 35 42  1  0
 36 43  1  0
 38 44  1  0
 39 45  1  0
 39 46  2  0
 40 47  2  0
 41 47  1  0
 47 48  1  0
 44 49  2  0
 44 50  1  0
 48 51  1  0
 50 52  2  0
 50 53  1  0
 52 54  1  0
 53 55  2  0
 52 56  1  0
 55 57  1  0
 56 57  2  0
M  END
