x0426-x0755-x3110-x2643
     RDKit          3D

 64 68  0  0  0  0  0  0  0  0999 V2000
    7.8620    1.5750   23.3980 N   0  0  0  0  0  0  0  0  0  0  0  0
    8.6670    2.6110   24.0250 C   0  0  0  0  0  0  0  0  0  0  0  0
   10.1690    2.4040   23.7200 C   0  0  0  0  0  0  0  0  0  0  0  0
    7.8290    1.1750   22.0030 C   0  0  0  0  0  0  0  0  0  0  0  0
    8.7310    1.6910   21.0350 O   0  0  0  0  0  0  0  0  0  0  0  0
    6.7050    0.1600   21.7130 C   0  0  2  0  0  0  0  0  0  0  0  0
    7.0560   -1.2550   21.8230 N   0  0  0  0  0  0  0  0  0  0  0  0
   10.8560    3.7120   23.4230 C   0  0  0  0  0  0  0  0  0  0  0  0
    6.2180    0.5030   20.2990 C   0  0  0  0  0  0  0  0  0  0  0  0
   11.5670    3.6220   22.2050 O   0  0  0  0  0  0  0  0  0  0  0  0
   10.7960    4.8590   24.2530 O   0  0  0  0  0  0  0  0  0  0  0  0
    5.8870   -2.0740   21.8990 C   0  0  0  0  0  0  0  0  0  0  0  0
    5.0080    1.1850   20.1990 C   0  0  0  0  0  0  0  0  0  0  0  0
    6.9120    0.1850   19.1840 C   0  0  0  0  0  0  0  0  0  0  0  0
    8.3150   -1.4760   22.4380 C   0  0  0  0  0  0  0  0  0  0  0  0
   12.3210    4.7860   21.8550 C   0  0  0  0  0  0  0  0  0  0  0  0
    4.1870    1.5160   21.3210 C   0  0  0  0  0  0  0  0  0  0  0  0
    5.8200   -3.2410   22.6460 C   0  0  0  0  0  0  0  0  0  0  0  0
    6.4330    0.5760   17.8670 N   0  0  0  0  0  0  0  0  0  0  0  0
    4.4590    1.6210   18.8630 C   0  0  0  0  0  0  0  0  0  0  0  0
    9.3610   -1.9130   21.6680 C   0  0  0  0  0  0  0  0  0  0  0  0
    8.6360   -1.2640   23.7690 C   0  0  0  0  0  0  0  0  0  0  0  0
   13.3950    5.0600   22.9340 C   0  0  0  0  0  0  0  0  0  0  0  0
    4.3550    2.6730   22.0550 C   0  0  0  0  0  0  0  0  0  0  0  0
    5.1750    1.3240   17.7380 C   0  0  0  0  0  0  0  0  0  0  0  0
   10.6560   -2.1330   22.1050 C   0  0  0  0  0  0  0  0  0  0  0  0
    9.9290   -1.4630   24.2460 C   0  0  0  0  0  0  0  0  0  0  0  0
    6.3900   -4.5650   22.0350 C   0  0  0  0  0  0  0  0  0  0  0  0
    3.1960    3.1340   22.8450 N   0  0  0  0  0  0  0  0  0  0  0  0
    6.2950   -4.4210   20.5010 C   0  0  0  0  0  0  0  0  0  0  0  0
   10.9780   -1.8980   23.4350 C   0  0  0  0  0  0  0  0  0  0  0  0
    7.6270   -5.0260   22.7850 C   0  0  0  0  0  0  0  0  0  0  0  0
    5.5180   -5.7550   22.2460 C   0  0  0  0  0  0  0  0  0  0  0  0
   12.3770   -2.0590   23.9400 C   0  0  0  0  0  0  0  0  0  0  0  0
    2.4950    2.3790   23.9140 C   0  0  0  0  0  0  0  0  0  0  0  0
    5.4630   -5.1310   19.9790 O   0  0  0  0  0  0  0  0  0  0  0  0
    7.1600   -3.4310   19.6910 C   0  0  0  0  0  0  0  0  0  0  0  0
    7.3300   -4.9920   24.3090 C   0  0  0  0  0  0  0  0  0  0  0  0
    4.9850   -5.8810   23.6470 C   0  0  0  0  0  0  0  0  0  0  0  0
   12.7170   -0.6640   24.3490 C   0  0  0  0  0  0  0  0  0  0  0  0
   13.3540   -2.3960   22.8160 C   0  0  0  0  0  0  0  0  0  0  0  0
   12.6860   -3.0510   25.0450 C   0  0  0  0  0  0  0  0  0  0  0  0
    2.9190    1.0920   24.3730 O   0  0  0  0  0  0  0  0  0  0  0  0
    1.3210    3.0060   24.5760 C   0  0  0  0  0  0  0  0  0  0  0  0
    5.8420   -5.1250   24.5810 N   0  0  0  0  0  0  0  0  0  0  0  0
    5.1820   -5.0480   26.0830 S   0  0  0  0  0  0  0  0  0  0  0  0
    1.5160    4.0290   25.4810 C   0  0  0  0  0  0  0  0  0  0  0  0
   -0.0940    2.5260   24.2670 C   0  0  0  0  0  0  0  0  0  0  0  0
   13.0410    0.0500   23.0440 C   0  0  0  0  0  0  0  0  0  0  0  0
    2.7640    4.4430   25.7350 F   0  0  0  0  0  0  0  0  0  0  0  0
    4.5440   -6.3240   26.3350 O   0  0  0  0  0  0  0  0  0  0  0  0
    6.2130   -4.5580   26.9580 O   0  0  0  0  0  0  0  0  0  0  0  0
   -1.1890    3.2560   25.0390 C   0  0  0  0  0  0  0  0  0  0  0  0
    0.4710    4.6710   26.1620 C   0  0  0  0  0  0  0  0  0  0  0  0
    3.9920   -3.8580   26.0140 C   0  0  0  0  0  0  0  0  0  0  0  0
   12.6660    1.7280   23.1400 Cl  0  0  0  0  0  0  0  0  0  0  0  0
   -0.8630    4.2740   25.9340 C   0  0  0  0  0  0  0  0  0  0  0  0
    2.6450   -4.2250   25.8720 C   0  0  0  0  0  0  0  0  0  0  0  0
    4.3100   -2.5060   26.1000 C   0  0  0  0  0  0  0  0  0  0  0  0
    2.2630   -5.5080   25.7780 F   0  0  0  0  0  0  0  0  0  0  0  0
    5.5680   -2.0840   26.2320 F   0  0  0  0  0  0  0  0  0  0  0  0
    3.2980   -1.5410   26.0550 C   0  0  0  0  0  0  0  0  0  0  0  0
    1.6340   -3.2710   25.8270 C   0  0  0  0  0  0  0  0  0  0  0  0
    1.9670   -1.9240   25.9230 C   0  0  0  0  0  0  0  0  0  0  0  0
  1  2  1  0
  2  3  1  0
  1  4  1  0
  4  5  2  0
  6  4  1  6
  6  7  1  0
  3  8  1  0
  6  9  1  0
  8 10  1  0
  8 11  2  0
  7 12  1  0
  9 13  1  0
  9 14  2  0
  7 15  1  0
 10 16  1  0
 13 17  1  0
 12 18  1  0
 14 19  1  0
 13 20  2  0
 15 21  2  0
 15 22  1  0
 16 23  1  0
 17 24  1  0
 19 25  2  0
 20 25  1  0
 21 26  1  0
 22 27  2  0
 18 28  1  0
 24 29  1  0
 28 30  1  0
 26 31  2  0
 27 31  1  0
 28 32  1  0
 28 33  1  0
 31 34  1  0
 29 35  1  0
 30 36  2  0
 30 37  1  0
 32 38  1  0
 33 39  1  0
 34 40  1  0
 34 41  1  0
 34 42  1  0
 35 43  2  0
 35 44  1  0
 38 45  1  0
 39 45  1  0
 45 46  1  0
 44 47  2  0
 44 48  1  0
 40 49  1  0
 47 50  1  0
 46 51  2  0
 46 52  2  0
 48 53  2  0
 47 54  1  0
 46 55  1  0
 49 56  1  0
 53 57  1  0
 54 57  2  0
 55 58  2  0
 55 59  1  0
 58 60  1  0
 59 61  1  0
 59 62  2  0
 58 63  1  0
 62 64  1  0
 63 64  2  0
M  END
