x0426-x1358-x2694
     RDKit          3D

 61 66  0  0  0  0  0  0  0  0999 V2000
    7.6410   -0.6560   21.7080 N   0  0  0  0  0  0  0  0  0  0  0  0
    7.0730    0.5910   21.6540 C   0  0  1  0  0  0  0  0  0  0  0  0
    8.0780    1.7310   21.6660 C   0  0  0  0  0  0  0  0  0  0  0  0
    6.7040   -1.7310   21.6900 C   0  0  0  0  0  0  0  0  0  0  0  0
    8.7970   -0.8970   22.5470 C   0  0  0  0  0  0  0  0  0  0  0  0
    6.3210    0.7740   20.3920 C   0  0  0  0  0  0  0  0  0  0  0  0
    8.8560   -1.0100   23.9950 N   0  0  0  0  0  0  0  0  0  0  0  0
   10.1380   -1.0690   22.0630 C   0  0  0  0  0  0  0  0  0  0  0  0
    7.3210   -3.0920   22.0850 C   0  0  2  0  0  0  0  0  0  0  0  0
    7.5410    2.8940   22.2330 N   0  0  0  0  0  0  0  0  0  0  0  0
    9.1970    1.6760   21.2090 O   0  0  0  0  0  0  0  0  0  0  0  0
    5.0310    1.5520   20.1590 C   0  0  0  0  0  0  0  0  0  0  0  0
    6.8730    0.1330   19.1270 C   0  0  0  0  0  0  0  0  0  0  0  0
   10.2220   -1.2350   24.2520 O   0  0  0  0  0  0  0  0  0  0  0  0
   11.0080   -1.2700   23.1030 C   0  0  0  0  0  0  0  0  0  0  0  0
    6.6880   -4.2310   21.3870 N   0  0  0  0  0  0  0  0  0  0  0  0
    7.2160   -3.2490   23.5940 C   0  0  0  0  0  0  0  0  0  0  0  0
   12.4740   -1.4830   23.2200 C   0  0  0  0  0  0  0  0  0  0  0  0
    4.2370    2.2960   21.2210 C   0  0  0  0  0  0  0  0  0  0  0  0
    6.2030   -3.9720   20.1040 C   0  0  0  0  0  0  0  0  0  0  0  0
    6.2320    0.2770   17.8420 N   0  0  0  0  0  0  0  0  0  0  0  0
    4.4510    1.6350   18.7840 C   0  0  0  0  0  0  0  0  0  0  0  0
    8.2980    3.9690   22.7170 C   0  0  0  0  0  0  0  0  0  0  0  0
    5.9370   -3.7050   23.8440 C   0  0  2  0  0  0  0  0  0  0  0  0
    6.2600   -5.4040   22.1830 C   0  0  0  0  0  0  0  0  0  0  0  0
   13.0440   -0.1910   23.3850 C   0  0  0  0  0  0  0  0  0  0  0  0
   12.9640   -2.0250   22.0500 C   0  0  0  0  0  0  0  0  0  0  0  0
   12.8710   -2.3970   24.4070 C   0  0  0  0  0  0  0  0  0  0  0  0
    4.3300    1.7370   22.6410 C   0  0  0  0  0  0  0  0  0  0  0  0
    5.1070   -4.3630   19.7650 O   0  0  0  0  0  0  0  0  0  0  0  0
    5.4900   -3.4300   25.2930 C   0  0  0  0  0  0  0  0  0  0  0  0
    7.1470   -3.2150   19.1560 C   0  0  0  0  0  0  0  0  0  0  0  0
    5.1100    0.9960   17.7710 C   0  0  0  0  0  0  0  0  0  0  0  0
    9.1820    3.6530   23.7700 C   0  0  0  0  0  0  0  0  0  0  0  0
    8.2400    5.2260   22.2520 C   0  0  0  0  0  0  0  0  0  0  0  0
    5.6490   -4.9920   23.3840 C   0  0  0  0  0  0  0  0  0  0  0  0
    9.1010    2.2300   24.1770 C   0  0  0  0  0  0  0  0  0  0  0  0
    3.3110    2.4340   23.2380 N   0  0  0  0  0  0  0  0  0  0  0  0
    6.5480   -2.8450   26.1580 N   0  0  0  0  0  0  0  0  0  0  0  0
    4.3370   -3.6460   25.6510 O   0  0  0  0  0  0  0  0  0  0  0  0
   10.2050    4.5260   24.5700 C   0  0  0  0  0  0  0  0  0  0  0  0
    9.1330    6.2080   22.8790 C   0  0  0  0  0  0  0  0  0  0  0  0
    2.2810    1.8010   23.8580 C   0  0  0  0  0  0  0  0  0  0  0  0
   10.0150    5.9110   23.9110 C   0  0  0  0  0  0  0  0  0  0  0  0
    6.4790   -1.6520   27.0540 C   0  0  0  0  0  0  0  0  0  0  0  0
   10.8280    6.8690   24.4640 O   0  0  0  0  0  0  0  0  0  0  0  0
    2.1040    0.3860   23.8680 O   0  0  0  0  0  0  0  0  0  0  0  0
    1.2590    2.6940   24.6140 C   0  0  0  0  0  0  0  0  0  0  0  0
    5.9150   -0.4460   26.6540 C   0  0  0  0  0  0  0  0  0  0  0  0
    7.0130   -1.7920   28.3340 C   0  0  0  0  0  0  0  0  0  0  0  0
   11.9120    6.4350   25.2670 C   0  0  0  0  0  0  0  0  0  0  0  0
    5.3950   -0.3470   25.3890 O   0  0  0  0  0  0  0  0  0  0  0  0
    1.4680    3.8580   25.2460 C   0  0  0  0  0  0  0  0  0  0  0  0
   -0.1550    2.0990   24.5970 C   0  0  0  0  0  0  0  0  0  0  0  0
    6.9810   -0.7110   29.1980 C   0  0  0  0  0  0  0  0  0  0  0  0
    5.8810    0.6420   27.5260 C   0  0  0  0  0  0  0  0  0  0  0  0
    2.6890    4.4080   25.2800 F   0  0  0  0  0  0  0  0  0  0  0  0
   -1.2750    2.8490   25.2990 C   0  0  0  0  0  0  0  0  0  0  0  0
    0.4130    4.5410   25.8920 C   0  0  0  0  0  0  0  0  0  0  0  0
    6.4230    0.5040   28.8110 C   0  0  0  0  0  0  0  0  0  0  0  0
   -0.9840    4.0350   25.9230 C   0  0  0  0  0  0  0  0  0  0  0  0
  1  2  1  0
  2  3  1  6
  1  4  1  0
  1  5  1  0
  2  6  1  0
  5  7  2  0
  5  8  1  0
  9  4  1  6
  3 10  1  0
  3 11  2  0
  6 12  1  0
  6 13  2  0
  7 14  1  0
  8 15  2  0
 14 15  1  0
  9 16  1  0
  9 17  1  0
 15 18  1  0
 12 19  1  0
 16 20  1  0
 13 21  1  0
 12 22  2  0
 10 23  1  0
 17 24  1  0
 16 25  1  0
 18 26  1  0
 18 27  1  0
 18 28  1  0
 19 29  1  0
 20 30  2  0
 24 31  1  1
 20 32  1  0
 21 33  2  0
 22 33  1  0
 23 34  2  0
 23 35  1  0
 24 36  1  0
 25 36  1  0
 34 37  1  0
 29 38  1  0
 31 39  1  0
 31 40  2  0
 34 41  1  0
 35 42  2  0
 38 43  1  0
 41 44  2  0
 42 44  1  0
 39 45  1  0
 44 46  1  0
 43 47  2  0
 43 48  1  0
 45 49  2  0
 45 50  1  0
 46 51  1  0
 49 52  1  0
 48 53  2  0
 48 54  1  0
 50 55  2  0
 49 56  1  0
 53 57  1  0
 54 58  2  0
 53 59  1  0
 55 60  1  0
 56 60  2  0
 58 61  1  0
 59 61  2  0
M  END
