x0426-x2705
     RDKit          3D

 45 48  0  0  0  0  0  0  0  0999 V2000
    6.9950   -1.6310   21.7950 N   0  0  0  0  0  0  0  0  0  0  0  0
    6.1440   -2.8650   21.6000 C   0  0  0  0  0  0  0  0  0  0  0  0
    4.8570   -3.0450   21.2390 O   0  0  0  0  0  0  0  0  0  0  0  0
    6.5510   -0.2150   21.5930 C   0  0  1  0  0  0  0  0  0  0  0  0
    8.2570   -1.6510   22.5700 C   0  0  0  0  0  0  0  0  0  0  0  0
    6.8550   -4.1700   21.8270 C   0  0  0  0  0  0  0  0  0  0  0  0
    7.7080    0.8130   21.8790 C   0  0  0  0  0  0  0  0  0  0  0  0
    6.0690    0.2410   20.2710 C   0  0  0  0  0  0  0  0  0  0  0  0
    8.3290   -1.7040   23.9550 N   0  0  0  0  0  0  0  0  0  0  0  0
    9.6820   -1.5890   22.0030 C   0  0  0  0  0  0  0  0  0  0  0  0
    6.8080   -4.9300   20.5010 C   0  0  0  0  0  0  0  0  0  0  0  0
    7.3980    1.9360   22.8240 N   0  0  0  0  0  0  0  0  0  0  0  0
    8.8160    0.7610   21.3510 O   0  0  0  0  0  0  0  0  0  0  0  0
    4.8570    0.9140   20.1300 C   0  0  0  0  0  0  0  0  0  0  0  0
    6.8440    0.0240   19.1440 C   0  0  0  0  0  0  0  0  0  0  0  0
    9.6530   -1.6760   24.3150 N   0  0  0  0  0  0  0  0  0  0  0  0
   10.5140   -1.6070   23.1550 C   0  0  0  0  0  0  0  0  0  0  0  0
   12.0470   -1.5620   23.2820 C   0  0  0  0  0  0  0  0  0  0  0  0
    3.8960    1.2120   21.2460 C   0  0  0  0  0  0  0  0  0  0  0  0
    6.4800    0.4750   17.8250 N   0  0  0  0  0  0  0  0  0  0  0  0
    4.4510    1.3760   18.8920 C   0  0  0  0  0  0  0  0  0  0  0  0
    8.1180    3.2370   22.9260 C   0  0  0  0  0  0  0  0  0  0  0  0
   12.5090   -0.1560   23.6820 C   0  0  0  0  0  0  0  0  0  0  0  0
   12.5850   -2.5370   24.3540 C   0  0  0  0  0  0  0  0  0  0  0  0
   12.7270   -1.9190   21.9400 C   0  0  0  0  0  0  0  0  0  0  0  0
    4.2090    1.7720   22.4840 C   0  0  0  0  0  0  0  0  0  0  0  0
    5.1920    1.2060   17.7390 C   0  0  0  0  0  0  0  0  0  0  0  0
    9.4190    3.2590   23.4770 C   0  0  0  0  0  0  0  0  0  0  0  0
    7.5580    4.4570   22.4980 C   0  0  0  0  0  0  0  0  0  0  0  0
   10.1440    2.0290   23.9610 C   0  0  0  0  0  0  0  0  0  0  0  0
    6.1890    4.5840   21.8820 C   0  0  0  0  0  0  0  0  0  0  0  0
    3.2270    2.4110   23.1830 N   0  0  0  0  0  0  0  0  0  0  0  0
   10.1000    4.4840   23.5870 C   0  0  0  0  0  0  0  0  0  0  0  0
    8.2390    5.6280   22.6150 C   0  0  0  0  0  0  0  0  0  0  0  0
    9.2090    1.2850   24.9170 C   0  0  0  0  0  0  0  0  0  0  0  0
    2.2420    1.7480   23.8180 C   0  0  0  0  0  0  0  0  0  0  0  0
    9.5280    5.6610   23.1670 C   0  0  0  0  0  0  0  0  0  0  0  0
    2.1590    0.5200   23.8300 O   0  0  0  0  0  0  0  0  0  0  0  0
    1.2170    2.5620   24.5410 C   0  0  0  0  0  0  0  0  0  0  0  0
    1.5070    3.7580   25.1940 C   0  0  0  0  0  0  0  0  0  0  0  0
   -0.1080    2.0890   24.5610 C   0  0  0  0  0  0  0  0  0  0  0  0
    2.7530    4.2620   25.2110 F   0  0  0  0  0  0  0  0  0  0  0  0
   -1.1090    2.8090   25.2250 C   0  0  0  0  0  0  0  0  0  0  0  0
    0.5120    4.4800   25.8570 C   0  0  0  0  0  0  0  0  0  0  0  0
   -0.7990    4.0040   25.8720 C   0  0  0  0  0  0  0  0  0  0  0  0
  1  2  1  0
  2  3  2  0
  1  4  1  0
  1  5  1  0
  2  6  1  0
  4  7  1  6
  4  8  1  0
  5  9  2  0
  5 10  1  0
  6 11  1  0
  7 12  1  0
  7 13  2  0
  8 14  1  0
  8 15  2  0
  9 16  1  0
 10 17  2  0
 16 17  1  0
 17 18  1  0
 14 19  1  0
 15 20  1  0
 14 21  2  0
 12 22  1  0
 18 23  1  0
 18 24  1  0
 18 25  1  0
 19 26  1  0
 20 27  2  0
 21 27  1  0
 22 28  2  0
 22 29  1  0
 28 30  1  0
 29 31  1  0
 26 32  1  0
 28 33  1  0
 29 34  2  0
 30 35  1  0
 32 36  1  0
 33 37  2  0
 34 37  1  0
 36 38  2  0
 36 39  1  0
 39 40  2  0
 39 41  1  0
 40 42  1  0
 41 43  2  0
 40 44  1  0
 43 45  1  0
 44 45  2  0
M  END
