x0426-x3117-x1374-x2694
     RDKit          3D

 62 67  0  0  0  0  0  0  0  0999 V2000
    6.6900   -1.1730   22.0100 N   0  0  0  0  0  0  0  0  0  0  0  0
    6.2230   -2.4140   21.2900 C   0  0  0  0  0  0  0  0  0  0  0  0
    4.9730   -3.0740   21.0100 O   0  0  0  0  0  0  0  0  0  0  0  0
    6.4750    0.2200   21.6170 C   0  0  1  0  0  0  0  0  0  0  0  0
    8.0100   -1.2250   22.6970 C   0  0  0  0  0  0  0  0  0  0  0  0
    7.6440   -2.8860   21.0320 C   0  0  2  0  0  0  0  0  0  0  0  0
    7.6780    1.2860   21.7990 C   0  0  0  0  0  0  0  0  0  0  0  0
    6.0240    0.5310   20.2340 C   0  0  0  0  0  0  0  0  0  0  0  0
    8.1860   -1.3250   24.2150 N   0  0  0  0  0  0  0  0  0  0  0  0
    9.4560   -1.1880   22.1380 C   0  0  0  0  0  0  0  0  0  0  0  0
    7.1540   -3.4920   19.7220 C   0  0  0  0  0  0  0  0  0  0  0  0
    7.6010    2.2390   22.9100 N   0  0  0  0  0  0  0  0  0  0  0  0
    8.6380    1.3560   21.0370 O   0  0  0  0  0  0  0  0  0  0  0  0
    4.7700    1.1050   20.1470 C   0  0  0  0  0  0  0  0  0  0  0  0
    6.7900    0.3010   19.1070 C   0  0  0  0  0  0  0  0  0  0  0  0
    9.6030   -1.3540   24.4030 O   0  0  0  0  0  0  0  0  0  0  0  0
   10.3570   -1.2880   23.2220 C   0  0  0  0  0  0  0  0  0  0  0  0
    8.0350   -3.8720   22.0680 C   0  0  0  0  0  0  0  0  0  0  0  0
   11.9160   -1.3520   23.2830 C   0  0  0  0  0  0  0  0  0  0  0  0
    3.9840    1.3120   21.2370 C   0  0  0  0  0  0  0  0  0  0  0  0
    6.4320    0.6170   17.8650 N   0  0  0  0  0  0  0  0  0  0  0  0
    4.3290    1.4680   18.8970 C   0  0  0  0  0  0  0  0  0  0  0  0
    8.4040    3.4020   23.1010 C   0  0  0  0  0  0  0  0  0  0  0  0
    9.1320   -3.7410   23.1080 C   0  0  0  0  0  0  0  0  0  0  0  0
    7.2960   -4.9400   21.9840 C   0  0  0  0  0  0  0  0  0  0  0  0
   12.5370   -0.1050   23.8520 C   0  0  0  0  0  0  0  0  0  0  0  0
   12.6660   -1.6460   21.9620 C   0  0  0  0  0  0  0  0  0  0  0  0
   12.2050   -2.5690   24.1860 C   0  0  0  0  0  0  0  0  0  0  0  0
    4.3770    2.3190   22.1210 C   0  0  0  0  0  0  0  0  0  0  0  0
    5.1120    1.2620   17.7410 C   0  0  0  0  0  0  0  0  0  0  0  0
    9.6750    3.2440   23.6890 C   0  0  0  0  0  0  0  0  0  0  0  0
    8.0150    4.8280   22.7290 C   0  0  0  0  0  0  0  0  0  0  0  0
    9.2520   -4.9590   23.9800 C   0  0  0  0  0  0  0  0  0  0  0  0
    7.4680   -5.9560   22.7870 C   0  0  0  0  0  0  0  0  0  0  0  0
   10.1550    1.9580   24.0800 C   0  0  0  0  0  0  0  0  0  0  0  0
   13.3630   -2.3920   25.1320 C   0  0  0  0  0  0  0  0  0  0  0  0
    3.1380    2.7570   22.7670 N   0  0  0  0  0  0  0  0  0  0  0  0
   10.1670   -5.3060   25.0440 C   0  0  0  0  0  0  0  0  0  0  0  0
   10.5440    4.3410   23.9270 C   0  0  0  0  0  0  0  0  0  0  0  0
    8.8470    5.8990   22.9620 C   0  0  0  0  0  0  0  0  0  0  0  0
    8.4180   -5.9590   23.7610 C   0  0  0  0  0  0  0  0  0  0  0  0
    6.5460   -7.0090   22.4960 C   0  0  0  0  0  0  0  0  0  0  0  0
    2.2890    1.8930   23.6550 C   0  0  0  0  0  0  0  0  0  0  0  0
   10.2170    5.6680   23.6130 C   0  0  0  0  0  0  0  0  0  0  0  0
    5.5920   -6.7960   23.3820 C   0  0  0  0  0  0  0  0  0  0  0  0
   11.0220    6.7610   23.8420 O   0  0  0  0  0  0  0  0  0  0  0  0
    2.4290    0.4670   23.7480 O   0  0  0  0  0  0  0  0  0  0  0  0
    1.2430    2.6000   24.4580 C   0  0  0  0  0  0  0  0  0  0  0  0
    4.6710   -5.6590   23.0010 C   0  0  2  0  0  0  0  0  0  0  0  0
   11.8690    6.6940   24.9880 C   0  0  0  0  0  0  0  0  0  0  0  0
    1.5080    3.7900   25.2000 C   0  0  0  0  0  0  0  0  0  0  0  0
   -0.1900    2.0300   24.4880 C   0  0  0  0  0  0  0  0  0  0  0  0
    4.5710   -4.9480   24.1800 C   0  0  0  0  0  0  0  0  0  0  0  0
    3.4160   -6.4690   22.7920 C   0  0  0  0  0  0  0  0  0  0  0  0
    2.7750    4.2130   25.1190 F   0  0  0  0  0  0  0  0  0  0  0  0
   -1.2630    2.7430   25.2950 C   0  0  0  0  0  0  0  0  0  0  0  0
    0.5680    4.4620   25.9390 C   0  0  0  0  0  0  0  0  0  0  0  0
    2.9700   -6.8660   24.4810 S   0  0  0  0  0  0  0  0  0  0  0  0
    3.7250   -5.4760   25.0890 C   0  0  0  0  0  0  0  0  0  0  0  0
   -0.8780    3.9920   26.0400 C   0  0  0  0  0  0  0  0  0  0  0  0
    1.5580   -6.6770   24.5570 O   0  0  0  0  0  0  0  0  0  0  0  0
    3.6430   -8.1110   24.8190 O   0  0  0  0  0  0  0  0  0  0  0  0
  1  2  1  0
  2  3  2  0
  1  4  1  0
  1  5  1  0
  2  6  1  0
  4  7  1  6
  4  8  1  0
  5  9  2  0
  5 10  1  0
  6 11  1  6
  7 12  1  0
  7 13  2  0
  8 14  1  0
  8 15  2  0
  9 16  1  0
 10 17  2  0
 16 17  1  0
  6 18  1  0
 17 19  1  0
 14 20  1  0
 15 21  1  0
 14 22  2  0
 12 23  1  0
 18 24  2  0
 18 25  1  0
 19 26  1  0
 19 27  1  0
 19 28  1  0
 20 29  1  0
 21 30  2  0
 22 30  1  0
 23 31  2  0
 23 32  1  0
 24 33  1  0
 25 34  2  0
 31 35  1  0
 28 36  1  0
 29 37  1  0
 33 38  1  0
 31 39  1  0
 32 40  2  0
 33 41  2  0
 34 41  1  0
 34 42  1  0
 37 43  1  0
 39 44  2  0
 40 44  1  0
 42 45  1  0
 44 46  1  0
 43 47  2  0
 43 48  1  0
 49 45  1  1
 46 50  1  0
 48 51  2  0
 48 52  1  0
 49 53  1  0
 49 54  1  0
 51 55  1  0
 52 56  2  0
 51 57  1  0
 54 58  1  0
 53 59  2  0
 58 59  1  0
 56 60  1  0
 57 60  2  0
 58 61  1  0
 58 62  1  0
M  END
