x0426-x2193-x1375-x2694
     RDKit          3D

 62 67  0  0  0  0  0  0  0  0999 V2000
    7.5450   -0.8340   21.8980 N   0  0  0  0  0  0  0  0  0  0  0  0
    7.1310    0.5810   21.6270 C   0  0  1  0  0  0  0  0  0  0  0  0
    8.1990    1.6460   21.8340 C   0  0  0  0  0  0  0  0  0  0  0  0
    8.7490   -1.5350   22.2980 C   0  0  2  0  0  0  0  0  0  0  0  0
    6.4830   -1.7530   21.5090 C   0  0  0  0  0  0  0  0  0  0  0  0
    6.4430    0.7150   20.2870 C   0  0  0  0  0  0  0  0  0  0  0  0
    8.9120   -1.5070   23.7660 N   0  0  0  0  0  0  0  0  0  0  0  0
   10.0140   -1.2400   21.8390 C   0  0  0  0  0  0  0  0  0  0  0  0
    6.0520   -2.6930   22.6550 C   0  0  0  0  0  0  0  0  0  0  0  0
    7.8260    2.5870   22.7040 N   0  0  0  0  0  0  0  0  0  0  0  0
    9.2610    1.6680   21.2330 O   0  0  0  0  0  0  0  0  0  0  0  0
    5.2910    1.5190   20.1330 C   0  0  0  0  0  0  0  0  0  0  0  0
    6.8880    0.0770   19.1170 C   0  0  0  0  0  0  0  0  0  0  0  0
    9.9220   -0.6070   23.9690 O   0  0  0  0  0  0  0  0  0  0  0  0
   10.7600   -0.5830   22.8050 C   0  0  1  0  0  0  0  0  0  0  0  0
    9.5570   -2.7400   24.1810 C   0  0  0  0  0  0  0  0  0  0  0  0
    5.9850   -4.1010   22.2370 N   0  0  0  0  0  0  0  0  0  0  0  0
   12.2020   -1.1200   23.1310 C   0  0  0  0  0  0  0  0  0  0  0  0
    4.7470    2.2010   21.2010 C   0  0  0  0  0  0  0  0  0  0  0  0
    6.3030    0.1970   17.8920 N   0  0  0  0  0  0  0  0  0  0  0  0
    4.7010    1.6390   18.9020 C   0  0  0  0  0  0  0  0  0  0  0  0
    8.5930    3.7100   23.0030 C   0  0  0  0  0  0  0  0  0  0  0  0
    8.7950   -3.7480   24.6040 N   0  0  0  0  0  0  0  0  0  0  0  0
    6.4900   -4.4750   20.9660 C   0  0  0  0  0  0  0  0  0  0  0  0
    4.8760   -4.8570   22.8550 C   0  0  2  0  0  0  0  0  0  0  0  0
   12.9570    0.0770   23.6660 C   0  0  0  0  0  0  0  0  0  0  0  0
   12.9610   -1.5570   21.8570 C   0  0  0  0  0  0  0  0  0  0  0  0
   12.3830   -2.2330   24.1870 C   0  0  0  0  0  0  0  0  0  0  0  0
    4.0800    1.4700   22.3390 C   0  0  0  0  0  0  0  0  0  0  0  0
    5.2110    0.9920   17.8300 C   0  0  0  0  0  0  0  0  0  0  0  0
    9.7490    3.5590   23.7480 C   0  0  0  0  0  0  0  0  0  0  0  0
    8.2410    4.9870   22.5690 C   0  0  0  0  0  0  0  0  0  0  0  0
    8.9900   -3.9370   26.0450 C   0  0  2  0  0  0  0  0  0  0  0  0
    9.3710   -4.9250   23.9760 C   0  0  0  0  0  0  0  0  0  0  0  0
    5.6990   -4.7150   20.0260 O   0  0  0  0  0  0  0  0  0  0  0  0
    8.0270   -4.5410   20.8810 C   0  0  0  0  0  0  0  0  0  0  0  0
    4.8850   -4.5390   24.2250 C   0  0  0  0  0  0  0  0  0  0  0  0
    5.0050   -6.2340   22.6830 C   0  0  0  0  0  0  0  0  0  0  0  0
   10.1520    2.1680   24.2380 C   0  0  0  0  0  0  0  0  0  0  0  0
    3.2110    2.2890   22.9810 N   0  0  0  0  0  0  0  0  0  0  0  0
   10.5530    4.6490   24.0580 C   0  0  0  0  0  0  0  0  0  0  0  0
    9.0400    6.1050   22.8820 C   0  0  0  0  0  0  0  0  0  0  0  0
   10.3270   -4.0560   26.2850 F   0  0  0  0  0  0  0  0  0  0  0  0
    8.3700   -5.0830   26.5820 C   0  0  0  0  0  0  0  0  0  0  0  0
    9.4140   -6.0630   24.9360 C   0  0  0  0  0  0  0  0  0  0  0  0
    4.0230   -6.7380   24.0720 S   0  0  0  0  0  0  0  0  0  0  0  0
    4.4300   -5.4740   25.0640 C   0  0  0  0  0  0  0  0  0  0  0  0
    2.2060    1.6900   23.8640 C   0  0  0  0  0  0  0  0  0  0  0  0
   10.2140    5.9380   23.6390 C   0  0  0  0  0  0  0  0  0  0  0  0
    8.3260   -6.1100   25.7460 N   0  0  0  0  0  0  0  0  0  0  0  0
    2.4770   -6.7780   23.6910 O   0  0  0  0  0  0  0  0  0  0  0  0
    4.4900   -8.0100   24.4710 O   0  0  0  0  0  0  0  0  0  0  0  0
   11.1260    6.9620   24.0410 O   0  0  0  0  0  0  0  0  0  0  0  0
    2.1630    0.2860   24.0780 O   0  0  0  0  0  0  0  0  0  0  0  0
    1.1910    2.5770   24.5740 C   0  0  0  0  0  0  0  0  0  0  0  0
   11.8720    6.7300   25.2300 C   0  0  0  0  0  0  0  0  0  0  0  0
    1.5170    3.7910   25.1930 C   0  0  0  0  0  0  0  0  0  0  0  0
   -0.2220    2.1220   24.6110 C   0  0  0  0  0  0  0  0  0  0  0  0
    2.7670    4.2810   25.2110 F   0  0  0  0  0  0  0  0  0  0  0  0
   -1.2690    2.9600   25.3060 C   0  0  0  0  0  0  0  0  0  0  0  0
    0.4870    4.5230   25.8240 C   0  0  0  0  0  0  0  0  0  0  0  0
   -0.8550    4.1500   25.8940 C   0  0  0  0  0  0  0  0  0  0  0  0
  1  2  1  0
  2  3  1  6
  4  1  1  1
  1  5  1  0
  2  6  1  0
  4  7  1  0
  4  8  1  0
  5  9  1  0
  3 10  1  0
  3 11  2  0
  6 12  1  0
  6 13  2  0
  7 14  1  0
  8 15  1  0
 14 15  1  0
  7 16  1  0
  9 17  1  0
 15 18  1  1
 12 19  1  0
 13 20  1  0
 12 21  2  0
 10 22  1  0
 16 23  1  0
 17 24  1  0
 25 17  1  6
 18 26  1  0
 18 27  1  0
 18 28  1  0
 19 29  1  0
 20 30  2  0
 21 30  1  0
 22 31  2  0
 22 32  1  0
 23 33  1  0
 23 34  1  0
 24 35  2  0
 24 36  1  0
 25 37  1  0
 25 38  1  0
 31 39  1  0
 29 40  1  0
 31 41  1  0
 32 42  2  0
 33 43  1  6
 33 44  1  0
 34 45  1  0
 38 46  1  0
 37 47  2  0
 46 47  1  0
 40 48  1  0
 41 49  2  0
 42 49  1  0
 44 50  1  0
 45 50  1  0
 46 51  1  0
 46 52  1  0
 49 53  1  0
 48 54  2  0
 48 55  1  0
 53 56  1  0
 55 57  2  0
 55 58  1  0
 57 59  1  0
 58 60  2  0
 57 61  1  0
 60 62  1  0
 61 62  2  0
M  END
