x0426-x3117-x3110-x1375
     RDKit          3D

 65 71  0  0  0  0  0  0  0  0999 V2000
    7.4170    1.6600   22.8940 N   0  0  0  0  0  0  0  0  0  0  0  0
    7.5780    0.7120   21.8060 C   0  0  0  0  0  0  0  0  0  0  0  0
    8.5520    0.7510   21.0690 O   0  0  0  0  0  0  0  0  0  0  0  0
    8.4330    2.7060   22.9790 C   0  0  2  0  0  0  0  0  0  0  0  0
    6.4450   -0.3710   21.5320 C   0  0  2  0  0  0  0  0  0  0  0  0
    9.6490    2.3190   23.5830 C   0  0  1  0  0  0  0  0  0  0  0  0
    7.9390    3.9920   23.3720 C   0  0  0  0  0  0  0  0  0  0  0  0
    7.0100   -1.7840   21.6800 N   0  0  0  0  0  0  0  0  0  0  0  0
   10.4560    1.3080   22.7030 C   0  0  0  0  0  0  0  0  0  0  0  0
    6.0340    0.1270   20.3650 C   0  0  0  0  0  0  0  0  0  0  0  0
   10.5800    3.4380   23.9330 C   0  0  1  0  0  0  0  0  0  0  0  0
    8.9890    5.1250   23.3060 C   0  0  0  0  0  0  0  0  0  0  0  0
   11.8440    3.2820   23.0210 C   0  0  1  0  0  0  0  0  0  0  0  0
    6.2680   -3.0320   21.3950 C   0  0  0  0  0  0  0  0  0  0  0  0
    4.8430    0.8520   20.1820 C   0  0  0  0  0  0  0  0  0  0  0  0
    6.8050   -0.0320   19.2310 C   0  0  0  0  0  0  0  0  0  0  0  0
    8.3060   -1.7490   22.3860 C   0  0  0  0  0  0  0  0  0  0  0  0
   10.1700    4.7580   24.0960 O   0  0  0  0  0  0  0  0  0  0  0  0
   10.7520    2.4320   23.1010 C   0  0  0  0  0  0  0  0  0  0  0  0
   12.0080    3.6330   21.7560 O   0  0  0  0  0  0  0  0  0  0  0  0
    4.9950   -3.1820   21.0650 O   0  0  0  0  0  0  0  0  0  0  0  0
    7.1010   -4.3170   21.5480 C   0  0  1  0  0  0  0  0  0  0  0  0
    3.8530    1.1020   21.3480 C   0  0  0  0  0  0  0  0  0  0  0  0
    6.4300    0.5380   17.8820 N   0  0  0  0  0  0  0  0  0  0  0  0
    4.4700    1.4280   18.8300 C   0  0  0  0  0  0  0  0  0  0  0  0
    9.4540   -2.0150   21.6980 C   0  0  0  0  0  0  0  0  0  0  0  0
    8.4990   -1.4540   23.7400 C   0  0  0  0  0  0  0  0  0  0  0  0
   12.7510    4.8360   21.5990 C   0  0  0  0  0  0  0  0  0  0  0  0
    8.4320   -4.5110   20.7820 C   0  0  0  0  0  0  0  0  0  0  0  0
    4.2440    1.8970   22.4110 C   0  0  0  0  0  0  0  0  0  0  0  0
    5.2770    1.2600   17.7280 C   0  0  0  0  0  0  0  0  0  0  0  0
   10.7390   -2.0230   22.2260 C   0  0  0  0  0  0  0  0  0  0  0  0
    9.7590   -1.4460   24.3330 C   0  0  0  0  0  0  0  0  0  0  0  0
    7.6450   -4.5110   22.9950 C   0  0  0  0  0  0  0  0  0  0  0  0
   13.3890    5.2260   22.9050 C   0  0  0  0  0  0  0  0  0  0  0  0
    3.2490    2.4700   23.0630 N   0  0  0  0  0  0  0  0  0  0  0  0
   10.9040   -1.7310   23.5820 C   0  0  0  0  0  0  0  0  0  0  0  0
    7.2690   -3.8210   24.2820 C   0  0  0  0  0  0  0  0  0  0  0  0
    8.6200   -5.4560   23.0500 C   0  0  0  0  0  0  0  0  0  0  0  0
   12.3010   -1.7090   24.2230 C   0  0  0  0  0  0  0  0  0  0  0  0
    2.3160    1.7800   23.7570 C   0  0  0  0  0  0  0  0  0  0  0  0
    8.0230   -4.2500   25.3550 C   0  0  0  0  0  0  0  0  0  0  0  0
    9.3870   -5.8380   24.3030 C   0  0  0  0  0  0  0  0  0  0  0  0
    6.2180   -2.7730   24.5700 C   0  0  0  0  0  0  0  0  0  0  0  0
   12.4490   -0.6100   25.0700 C   0  0  0  0  0  0  0  0  0  0  0  0
   13.3570   -1.6060   23.1170 C   0  0  0  0  0  0  0  0  0  0  0  0
   12.6610   -2.9650   25.0410 C   0  0  0  0  0  0  0  0  0  0  0  0
    2.2720    0.3610   23.8370 O   0  0  0  0  0  0  0  0  0  0  0  0
    1.2770    2.5580   24.4840 C   0  0  0  0  0  0  0  0  0  0  0  0
    9.0330   -5.1740   25.4240 C   0  0  0  0  0  0  0  0  0  0  0  0
    5.1250   -3.3040   25.2150 C   0  0  0  0  0  0  0  0  0  0  0  0
    9.6590   -5.4300   26.5780 F   0  0  0  0  0  0  0  0  0  0  0  0
    1.5830    3.8830   25.2300 C   0  0  0  0  0  0  0  0  0  0  0  0
   -0.1900    2.0160   24.4970 C   0  0  0  0  0  0  0  0  0  0  0  0
    4.6630   -4.5320   24.7180 C   0  0  0  0  0  0  0  0  0  0  0  0
    2.8440    4.4060   25.2550 F   0  0  0  0  0  0  0  0  0  0  0  0
   -1.2800    2.7910   25.2350 C   0  0  0  0  0  0  0  0  0  0  0  0
    0.5730    4.5720   25.8970 C   0  0  0  0  0  0  0  0  0  0  0  0
    4.7680   -4.8160   23.3390 C   0  0  0  0  0  0  0  0  0  0  0  0
    4.1150   -5.5200   25.4320 C   0  0  0  0  0  0  0  0  0  0  0  0
   -0.8510    4.0650   25.9210 C   0  0  0  0  0  0  0  0  0  0  0  0
    4.6190   -6.1370   22.9150 C   0  0  0  0  0  0  0  0  0  0  0  0
    3.7400   -6.7990   24.2750 S   0  0  0  0  0  0  0  0  0  0  0  0
    2.3250   -6.8130   23.9980 O   0  0  0  0  0  0  0  0  0  0  0  0
    4.3040   -8.0830   24.5370 O   0  0  0  0  0  0  0  0  0  0  0  0
  1  2  1  0
  2  3  2  0
  4  1  1  1
  5  2  1  6
  4  6  1  0
  4  7  1  0
  5  8  1  0
  6  9  1  6
  5 10  1  0
  6 11  1  0
  7 12  1  0
 11 13  1  0
  8 14  1  0
 10 15  1  0
 10 16  2  0
  8 17  1  0
 11 18  1  6
 12 18  1  0
  9 19  2  0
 13 19  1  0
 13 20  1  6
 14 21  2  0
 14 22  1  0
 15 23  1  0
 16 24  1  0
 15 25  2  0
 17 26  2  0
 17 27  1  0
 20 28  1  0
 22 29  1  6
 23 30  1  0
 24 31  2  0
 25 31  1  0
 26 32  1  0
 27 33  2  0
 22 34  1  0
 28 35  1  0
 30 36  1  0
 32 37  2  0
 33 37  1  0
 34 38  1  0
 34 39  2  0
 37 40  1  0
 36 41  1  0
 38 42  2  0
 39 43  1  0
 38 44  1  0
 40 45  1  0
 40 46  1  0
 40 47  1  0
 41 48  2  0
 41 49  1  0
 42 50  1  0
 43 50  2  0
 44 51  1  0
 50 52  1  0
 49 53  2  0
 49 54  1  0
 51 55  1  0
 53 56  1  0
 54 57  2  0
 53 58  1  0
 55 59  1  0
 55 60  2  0
 57 61  1  0
 58 61  2  0
 59 62  1  0
 60 63  1  0
 62 63  1  0
 63 64  1  0
 63 65  1  0
M  END
