x0426-x0354
     RDKit          3D

 40 43  0  0  0  0  0  0  0  0999 V2000
    2.3030    1.8530   23.7750 C   0  0  0  0  0  0  0  0  0  0  0  0
    3.2640    2.5540   23.1020 N   0  0  0  0  0  0  0  0  0  0  0  0
    4.1790    2.0130   22.3720 C   0  0  2  0  0  0  0  0  0  0  0  0
    2.3210    0.4130   23.7680 O   0  0  0  0  0  0  0  0  0  0  0  0
    1.2100    2.6250   24.5400 C   0  0  0  0  0  0  0  0  0  0  0  0
    1.5880    3.8090   25.1940 C   0  0  0  0  0  0  0  0  0  0  0  0
   -0.1020    2.1290   24.5560 C   0  0  0  0  0  0  0  0  0  0  0  0
    3.6250    1.1460   21.2440 C   0  0  0  0  0  0  0  0  0  0  0  0
    2.8250    4.3260   25.2120 F   0  0  0  0  0  0  0  0  0  0  0  0
    5.1530    1.1390   23.2340 C   0  0  0  0  0  0  0  0  0  0  0  0
   -1.0920    2.7680   25.2080 C   0  0  0  0  0  0  0  0  0  0  0  0
    0.4260    4.4950   25.9170 C   0  0  0  0  0  0  0  0  0  0  0  0
    6.5500    1.7230   23.4920 C   0  0  0  0  0  0  0  0  0  0  0  0
   -0.8520    3.9600   25.8990 C   0  0  0  0  0  0  0  0  0  0  0  0
    4.6010    0.9090   20.1150 C   0  0  0  0  0  0  0  0  0  0  0  0
    7.4280    0.6980   24.2140 C   0  0  0  0  0  0  0  0  0  0  0  0
    5.6900    0.0110   20.2130 C   0  0  0  0  0  0  0  0  0  0  0  0
    4.5250    1.5520   18.8710 C   0  0  0  0  0  0  0  0  0  0  0  0
    7.2980    0.7700   25.6120 C   0  0  0  0  0  0  0  0  0  0  0  0
    6.6380   -0.2650   19.2130 C   0  0  0  0  0  0  0  0  0  0  0  0
    5.4060    1.3450   17.8350 C   0  0  0  0  0  0  0  0  0  0  0  0
    8.1300   -0.1330   26.3030 C   0  0  1  0  0  0  0  0  0  0  0  0
    6.5150    0.4270   17.9310 N   0  0  0  0  0  0  0  0  0  0  0  0
    7.4790   -0.5930   27.2760 O   0  0  0  0  0  0  0  0  0  0  0  0
    8.5680   -1.3080   25.3580 C   0  0  0  0  0  0  0  0  0  0  0  0
    7.7810   -2.2360   25.1650 O   0  0  0  0  0  0  0  0  0  0  0  0
    9.7990   -1.3160   24.7700 N   0  0  0  0  0  0  0  0  0  0  0  0
    7.0400    0.3960   28.1450 C   0  0  0  0  0  0  0  0  0  0  0  0
   10.3970   -2.6080   24.3590 C   0  0  0  0  0  0  0  0  0  0  0  0
   10.7900   -0.2650   25.0290 C   0  0  0  0  0  0  0  0  0  0  0  0
    7.7630    1.5620   28.2980 C   0  0  0  0  0  0  0  0  0  0  0  0
    5.8680    0.2320   28.8770 C   0  0  0  0  0  0  0  0  0  0  0  0
   11.2230   -2.3550   23.2870 C   0  0  0  0  0  0  0  0  0  0  0  0
   11.5200   -0.0620   23.8890 C   0  0  0  0  0  0  0  0  0  0  0  0
    7.3340    2.5640   29.1670 C   0  0  0  0  0  0  0  0  0  0  0  0
    5.4430    1.2390   29.7460 C   0  0  0  0  0  0  0  0  0  0  0  0
   12.2010   -1.3230   23.5840 N   0  0  0  0  0  0  0  0  0  0  0  0
    6.1530    2.4480   29.9300 C   0  0  0  0  0  0  0  0  0  0  0  0
   13.1150   -1.1760   22.4610 C   0  0  0  0  0  0  0  0  0  0  0  0
    5.6960    3.5350   30.8580 C   0  0  0  0  0  0  0  0  0  0  0  0
  1  2  1  0
  2  3  1  0
  1  4  2  0
  1  5  1  0
  5  6  2  0
  5  7  1  0
  3  8  1  6
  6  9  1  0
  3 10  1  0
  7 11  2  0
  6 12  1  0
 10 13  1  0
 11 14  1  0
 12 14  2  0
  8 15  1  0
 13 16  1  0
 15 17  2  0
 15 18  1  0
 16 19  1  0
 17 20  1  0
 18 21  2  0
 22 19  1  6
 20 23  2  0
 21 23  1  0
 22 24  1  0
 22 25  1  0
 25 26  2  0
 25 27  1  0
 24 28  1  0
 27 29  1  0
 27 30  1  0
 28 31  2  0
 28 32  1  0
 29 33  1  0
 30 34  1  0
 31 35  1  0
 32 36  2  0
 33 37  1  0
 34 37  1  0
 35 38  2  0
 36 38  1  0
 37 39  1  0
 38 40  1  0
M  END
