x0426-x1493-x2703
     RDKit          3D

 54 58  0  0  0  0  0  0  0  0999 V2000
    7.1450   -1.4100   22.0390 N   0  0  0  0  0  0  0  0  0  0  0  0
    6.6730   -0.1100   21.8550 C   0  0  1  0  0  0  0  0  0  0  0  0
    7.7620    0.9420   22.0020 C   0  0  0  0  0  0  0  0  0  0  0  0
    6.2300   -2.4410   22.4890 C   0  0  0  0  0  0  0  0  0  0  0  0
    8.4360   -1.5250   22.5890 C   0  0  0  0  0  0  0  0  0  0  0  0
    6.0820    0.2220   20.4810 C   0  0  0  0  0  0  0  0  0  0  0  0
    8.6500   -1.2690   23.9210 C   0  0  0  0  0  0  0  0  0  0  0  0
    9.6330   -1.9320   21.7480 C   0  0  0  0  0  0  0  0  0  0  0  0
    6.9610   -3.8190   22.5140 C   0  0  1  0  0  0  0  0  0  0  0  0
    7.4260    2.0440   22.7630 N   0  0  0  0  0  0  0  0  0  0  0  0
    8.8610    0.8680   21.4660 O   0  0  0  0  0  0  0  0  0  0  0  0
    4.7750    0.7510   20.3460 C   0  0  0  0  0  0  0  0  0  0  0  0
    6.8840    0.0260   19.1520 C   0  0  0  0  0  0  0  0  0  0  0  0
   10.9790   -2.0180   22.3060 N   0  0  0  0  0  0  0  0  0  0  0  0
   10.0580   -1.3610   24.5020 C   0  0  0  0  0  0  0  0  0  0  0  0
    7.0420   -4.3380   23.9350 C   0  0  0  0  0  0  0  0  0  0  0  0
    6.5070   -4.7560   21.4660 N   0  0  0  0  0  0  0  0  0  0  0  0
    3.6850    1.0430   21.4690 C   0  0  0  0  0  0  0  0  0  0  0  0
    6.2390   -4.1450   20.2550 C   0  0  0  0  0  0  0  0  0  0  0  0
    6.3430    0.3820   17.9660 N   0  0  0  0  0  0  0  0  0  0  0  0
    4.3010    1.1050   18.9630 C   0  0  0  0  0  0  0  0  0  0  0  0
   11.2320   -1.7400   23.6370 C   0  0  0  0  0  0  0  0  0  0  0  0
    8.1340    3.2610   22.8840 C   0  0  0  0  0  0  0  0  0  0  0  0
    6.0460   -5.3840   24.1660 N   0  0  0  0  0  0  0  0  0  0  0  0
    5.6030   -5.8290   21.9030 C   0  0  0  0  0  0  0  0  0  0  0  0
   12.6690   -1.8240   24.0930 C   0  0  0  0  0  0  0  0  0  0  0  0
    4.2620    1.7590   22.5230 C   0  0  0  0  0  0  0  0  0  0  0  0
    5.5800   -5.6400   25.4570 C   0  0  0  0  0  0  0  0  0  0  0  0
    5.1450   -4.3320   19.7680 O   0  0  0  0  0  0  0  0  0  0  0  0
    7.2340   -3.2550   19.5030 C   0  0  0  0  0  0  0  0  0  0  0  0
    5.1280    0.8980   17.8840 C   0  0  0  0  0  0  0  0  0  0  0  0
    9.4150    3.3000   23.4740 C   0  0  0  0  0  0  0  0  0  0  0  0
    7.5340    4.4430   22.4030 C   0  0  0  0  0  0  0  0  0  0  0  0
    5.9680   -6.3700   23.1000 C   0  0  0  0  0  0  0  0  0  0  0  0
   10.0710    2.0420   23.9930 C   0  0  0  0  0  0  0  0  0  0  0  0
    6.1270    4.4470   21.7410 C   0  0  0  0  0  0  0  0  0  0  0  0
   12.8830   -2.8630   24.9950 C   0  0  0  0  0  0  0  0  0  0  0  0
   12.7790   -0.7360   24.9070 C   0  0  0  0  0  0  0  0  0  0  0  0
    3.3250    2.5250   23.1250 N   0  0  0  0  0  0  0  0  0  0  0  0
    4.3620   -6.3100   25.5750 C   0  0  0  0  0  0  0  0  0  0  0  0
    6.1770   -5.3160   26.4680 O   0  0  0  0  0  0  0  0  0  0  0  0
   10.0890    4.5300   23.5820 C   0  0  0  0  0  0  0  0  0  0  0  0
    8.2620    5.8080   22.5150 C   0  0  0  0  0  0  0  0  0  0  0  0
    9.1290    1.3240   24.9580 C   0  0  0  0  0  0  0  0  0  0  0  0
    2.3080    1.8090   23.7700 C   0  0  0  0  0  0  0  0  0  0  0  0
    9.5350    5.9270   23.0910 C   0  0  0  0  0  0  0  0  0  0  0  0
    2.2220    0.5940   23.7580 O   0  0  0  0  0  0  0  0  0  0  0  0
    1.2750    2.5990   24.5140 C   0  0  0  0  0  0  0  0  0  0  0  0
    1.5580    3.8040   25.1940 C   0  0  0  0  0  0  0  0  0  0  0  0
   -0.2060    2.0520   24.5370 C   0  0  0  0  0  0  0  0  0  0  0  0
    2.7960    4.3220   25.2150 F   0  0  0  0  0  0  0  0  0  0  0  0
   -1.2100    2.7340   25.2080 C   0  0  0  0  0  0  0  0  0  0  0  0
    0.5460    4.4940   25.8710 C   0  0  0  0  0  0  0  0  0  0  0  0
   -0.7660    4.0190   25.8980 C   0  0  0  0  0  0  0  0  0  0  0  0
  1  2  1  0
  2  3  1  6
  1  4  1  0
  1  5  1  0
  2  6  1  0
  5  7  2  0
  5  8  1  0
  9  4  1  1
  3 10  1  0
  3 11  2  0
  6 12  1  0
  6 13  2  0
  8 14  2  0
  7 15  1  0
  9 16  1  0
  9 17  1  0
 12 18  1  0
 17 19  1  0
 13 20  1  0
 12 21  2  0
 14 22  1  0
 15 22  2  0
 10 23  1  0
 16 24  1  0
 17 25  1  0
 22 26  1  0
 18 27  1  0
 24 28  1  0
 19 29  2  0
 19 30  1  0
 20 31  2  0
 21 31  1  0
 23 32  2  0
 23 33  1  0
 24 34  1  0
 25 34  1  0
 32 35  1  0
 33 36  1  0
 26 37  1  0
 26 38  1  0
 27 39  1  0
 28 40  1  0
 28 41  2  0
 32 42  1  0
 33 43  2  0
 35 44  1  0
 39 45  1  0
 42 46  2  0
 43 46  1  0
 45 47  2  0
 45 48  1  0
 48 49  2  0
 48 50  1  0
 49 51  1  0
 50 52  2  0
 49 53  1  0
 52 54  1  0
 53 54  2  0
M  END
