x0426-x2193-x2694-x2705
     RDKit          3D

 55 59  0  0  0  0  0  0  0  0999 V2000
    7.0050   -1.4100   21.9000 N   0  0  0  0  0  0  0  0  0  0  0  0
    6.2130   -2.6670   21.4200 C   0  0  0  0  0  0  0  0  0  0  0  0
    4.8630   -3.0590   21.3220 O   0  0  0  0  0  0  0  0  0  0  0  0
    6.5860    0.0610   21.7260 C   0  0  1  0  0  0  0  0  0  0  0  0
    8.3040   -1.3240   22.5770 C   0  0  1  0  0  0  0  0  0  0  0  0
    7.0900   -3.7490   20.8970 C   0  0  0  0  0  0  0  0  0  0  0  0
    7.6830    1.2680   21.8300 C   0  0  0  0  0  0  0  0  0  0  0  0
    6.0200    0.4120   20.4080 C   0  0  0  0  0  0  0  0  0  0  0  0
    8.3810   -1.7530   23.9830 N   0  0  0  0  0  0  0  0  0  0  0  0
    9.5260   -1.7570   22.0030 C   0  0  0  0  0  0  0  0  0  0  0  0
    7.3750   -3.3450   19.4630 C   0  0  0  0  0  0  0  0  0  0  0  0
    7.4920    2.4290   22.6160 N   0  0  0  0  0  0  0  0  0  0  0  0
    8.9160    1.3000   21.0840 O   0  0  0  0  0  0  0  0  0  0  0  0
    4.6110    0.9600   20.2190 C   0  0  0  0  0  0  0  0  0  0  0  0
    6.8310    0.2500   19.3580 C   0  0  0  0  0  0  0  0  0  0  0  0
    9.8110   -1.6700   24.2100 O   0  0  0  0  0  0  0  0  0  0  0  0
   10.5220   -2.0430   22.9950 C   0  0  2  0  0  0  0  0  0  0  0  0
    7.9530   -3.1030   24.4050 C   0  0  0  0  0  0  0  0  0  0  0  0
   11.9890   -1.5690   23.1840 C   0  0  0  0  0  0  0  0  0  0  0  0
    3.6760    1.1420   21.2210 C   0  0  0  0  0  0  0  0  0  0  0  0
    6.4240    0.6110   18.0110 N   0  0  0  0  0  0  0  0  0  0  0  0
    4.1010    1.3710   18.8820 C   0  0  0  0  0  0  0  0  0  0  0  0
    8.4400    3.4770   22.8970 C   0  0  0  0  0  0  0  0  0  0  0  0
    8.9670   -3.6600   25.0870 N   0  0  0  0  0  0  0  0  0  0  0  0
    6.1660    2.7940   23.1620 C   0  0  0  0  0  0  0  0  0  0  0  0
   12.1580   -0.0920   23.5750 C   0  0  0  0  0  0  0  0  0  0  0  0
   12.8170   -1.7660   21.9000 C   0  0  0  0  0  0  0  0  0  0  0  0
   12.6810   -2.3920   24.2980 C   0  0  0  0  0  0  0  0  0  0  0  0
    3.4670    2.4610   21.5930 C   0  0  0  0  0  0  0  0  0  0  0  0
    5.0860    1.1780   17.7740 C   0  0  0  0  0  0  0  0  0  0  0  0
    9.6110    3.2130   23.6160 C   0  0  0  0  0  0  0  0  0  0  0  0
    8.2790    4.8190   22.5000 C   0  0  0  0  0  0  0  0  0  0  0  0
    8.7450   -3.8410   26.5440 C   0  0  0  0  0  0  0  0  0  0  0  0
    9.6510   -4.7470   24.4120 C   0  0  0  0  0  0  0  0  0  0  0  0
    5.7070    4.1370   22.5480 C   0  0  0  0  0  0  0  0  0  0  0  0
    9.9200    1.8320   24.0970 C   0  0  0  0  0  0  0  0  0  0  0  0
    3.3350    2.5450   23.0600 N   0  0  0  0  0  0  0  0  0  0  0  0
   10.5330    4.2430   23.9110 C   0  0  0  0  0  0  0  0  0  0  0  0
    9.1860    5.8290   22.8010 C   0  0  0  0  0  0  0  0  0  0  0  0
    8.1590   -5.0410   26.8980 C   0  0  0  0  0  0  0  0  0  0  0  0
    9.5210   -5.9400   25.0960 C   0  0  0  0  0  0  0  0  0  0  0  0
    8.9900    1.3260   25.1850 C   0  0  0  0  0  0  0  0  0  0  0  0
    2.2790    1.8000   23.7860 C   0  0  0  0  0  0  0  0  0  0  0  0
   10.3330    5.5650   23.5200 C   0  0  0  0  0  0  0  0  0  0  0  0
    8.1820   -6.0100   25.7940 N   0  0  0  0  0  0  0  0  0  0  0  0
   11.1480    6.6360   23.7720 O   0  0  0  0  0  0  0  0  0  0  0  0
    2.2600    0.3790   23.8160 O   0  0  0  0  0  0  0  0  0  0  0  0
    1.2190    2.5650   24.5050 C   0  0  0  0  0  0  0  0  0  0  0  0
   11.8780    6.5980   24.9940 C   0  0  0  0  0  0  0  0  0  0  0  0
    1.5220    3.7510   25.1680 C   0  0  0  0  0  0  0  0  0  0  0  0
   -0.2020    2.0160   24.4970 C   0  0  0  0  0  0  0  0  0  0  0  0
    2.7770    4.2320   25.1720 F   0  0  0  0  0  0  0  0  0  0  0  0
   -1.1980    2.8820   25.2670 C   0  0  0  0  0  0  0  0  0  0  0  0
    0.5590    4.5050   25.8590 C   0  0  0  0  0  0  0  0  0  0  0  0
   -0.7860    4.0590   25.8980 C   0  0  0  0  0  0  0  0  0  0  0  0
  1  2  1  0
  2  3  2  0
  1  4  1  0
  5  1  1  6
  2  6  1  0
  4  7  1  6
  4  8  1  0
  5  9  1  0
  5 10  1  0
  6 11  1  0
  7 12  1  0
  7 13  2  0
  8 14  1  0
  8 15  2  0
  9 16  1  0
 10 17  1  0
 16 17  1  0
  9 18  1  0
 17 19  1  6
 14 20  1  0
 15 21  1  0
 14 22  2  0
 12 23  1  0
 18 24  1  0
 12 25  1  0
 19 26  1  0
 19 27  1  0
 19 28  1  0
 20 29  1  0
 21 30  2  0
 22 30  1  0
 23 31  2  0
 23 32  1  0
 24 33  1  0
 24 34  1  0
 25 35  1  0
 31 36  1  0
 29 37  1  0
 31 38  1  0
 32 39  2  0
 33 40  1  0
 34 41  1  0
 36 42  1  0
 37 43  1  0
 38 44  2  0
 39 44  1  0
 40 45  1  0
 41 45  1  0
 44 46  1  0
 43 47  2  0
 43 48  1  0
 46 49  1  0
 48 50  2  0
 48 51  1  0
 50 52  1  0
 51 53  2  0
 50 54  1  0
 53 55  1  0
 54 55  2  0
M  END
