x0426-x0734
     RDKit          3D

 40 43  0  0  0  0  0  0  0  0999 V2000
    5.4210   -5.0360   26.1410 N   0  0  0  0  0  0  0  0  0  0  0  0
    4.7220   -4.1320   26.9860 O   0  0  0  0  0  0  0  0  0  0  0  0
    3.3840   -4.0270   26.5440 C   0  0  0  0  0  0  0  0  0  0  0  0
    4.7240   -6.1240   25.5210 O   0  0  0  0  0  0  0  0  0  0  0  0
    6.8260   -5.0520   26.2180 C   0  0  0  0  0  0  0  0  0  0  0  0
    7.6600   -4.6740   25.1660 C   0  0  0  0  0  0  0  0  0  0  0  0
    7.3720   -5.4700   27.4290 C   0  0  0  0  0  0  0  0  0  0  0  0
    3.1460   -2.6600   26.1300 C   0  0  0  0  0  0  0  0  0  0  0  0
    9.0640   -4.6540   25.1640 C   0  0  0  0  0  0  0  0  0  0  0  0
    8.7340   -5.5150   27.6070 C   0  0  0  0  0  0  0  0  0  0  0  0
    6.9680   -4.2860   24.0480 N   0  0  0  0  0  0  0  0  0  0  0  0
    2.4070   -1.3800   25.7780 C   0  0  0  0  0  0  0  0  0  0  0  0
    9.5510   -5.1320   26.5500 C   0  0  0  0  0  0  0  0  0  0  0  0
    6.1220   -5.2630   23.3240 C   0  0  0  0  0  0  0  0  0  0  0  0
    7.2410   -2.9870   23.4060 C   0  0  0  0  0  0  0  0  0  0  0  0
    3.0390   -0.4800   24.6920 C   0  0  0  0  0  0  0  0  0  0  0  0
    6.5260   -5.4110   22.0070 C   0  0  0  0  0  0  0  0  0  0  0  0
    7.5890   -3.1730   21.9480 C   0  0  0  0  0  0  0  0  0  0  0  0
    2.2230    0.7000   24.7430 N   0  0  0  0  0  0  0  0  0  0  0  0
    6.6240   -4.1040   21.3550 N   0  0  0  0  0  0  0  0  0  0  0  0
    6.1740   -3.8980   20.0700 C   0  0  0  0  0  0  0  0  0  0  0  0
    2.3240    1.9310   24.1310 C   0  0  0  0  0  0  0  0  0  0  0  0
    5.0880   -4.3430   19.7410 O   0  0  0  0  0  0  0  0  0  0  0  0
    7.0780   -3.1650   19.0880 C   0  0  0  0  0  0  0  0  0  0  0  0
    3.2200    2.3850   23.2940 N   0  0  0  0  0  0  0  0  0  0  0  0
    1.1980    2.7810   24.6360 C   0  0  0  0  0  0  0  0  0  0  0  0
    4.1040    1.5310   22.4960 C   0  0  0  0  0  0  0  0  0  0  0  0
    1.4280    4.0280   25.2080 C   0  0  0  0  0  0  0  0  0  0  0  0
   -0.1180    2.2990   24.5490 C   0  0  0  0  0  0  0  0  0  0  0  0
    3.6380    1.3810   21.0710 C   0  0  0  0  0  0  0  0  0  0  0  0
    2.6740    4.5200   25.3080 F   0  0  0  0  0  0  0  0  0  0  0  0
   -1.1810    3.0620   25.0340 C   0  0  0  0  0  0  0  0  0  0  0  0
    0.3710    4.7940   25.6940 C   0  0  0  0  0  0  0  0  0  0  0  0
   -0.9360    4.3100   25.6080 C   0  0  0  0  0  0  0  0  0  0  0  0
    4.6770    1.0430   20.0360 C   0  0  0  0  0  0  0  0  0  0  0  0
    5.7680    0.2070   20.2920 C   0  0  0  0  0  0  0  0  0  0  0  0
    4.5430    1.5930   18.7670 C   0  0  0  0  0  0  0  0  0  0  0  0
    6.6630   -0.0370   19.2660 C   0  0  0  0  0  0  0  0  0  0  0  0
    5.4850    1.2860   17.8170 C   0  0  0  0  0  0  0  0  0  0  0  0
    6.5330    0.4810   18.0390 N   0  0  0  0  0  0  0  0  0  0  0  0
  1  2  1  0
  2  3  1  0
  1  4  2  0
  1  5  1  0
  5  6  1  0
  5  7  2  0
  3  8  1  0
  6  9  2  0
  7 10  1  0
  6 11  1  0
  8 12  1  0
  9 13  1  0
 10 13  2  0
 11 14  1  0
 11 15  1  0
 12 16  1  0
 14 17  1  0
 15 18  1  0
 16 19  1  0
 17 20  1  0
 18 20  1  0
 20 21  1  0
 19 22  2  3
 21 23  2  0
 21 24  1  0
 22 25  1  0
 22 26  1  0
 25 27  1  0
 26 28  2  0
 26 29  1  0
 27 30  1  0
 28 31  1  0
 29 32  2  0
 28 33  1  0
 32 34  1  0
 33 34  2  0
 30 35  1  0
 35 36  2  0
 35 37  1  0
 36 38  1  0
 37 39  2  0
 38 40  2  0
 39 40  1  0
M  CHG  1   1   1
M  END
