x0426-x2193-x3110
     RDKit          3D

 51 54  0  0  0  0  0  0  0  0999 V2000
    8.0580    1.1770   23.3250 N   0  0  0  0  0  0  0  0  0  0  0  0
    8.8230    2.3180   23.6500 C   0  0  0  0  0  0  0  0  0  0  0  0
   10.3170    2.1630   23.5760 C   0  0  0  0  0  0  0  0  0  0  0  0
    7.8070    0.7760   21.9200 C   0  0  0  0  0  0  0  0  0  0  0  0
    8.4870    1.2980   21.0140 O   0  0  0  0  0  0  0  0  0  0  0  0
    6.7220   -0.1900   21.6460 C   0  0  2  0  0  0  0  0  0  0  0  0
    7.1290   -1.6330   21.6990 N   0  0  0  0  0  0  0  0  0  0  0  0
   11.1210    3.3100   23.4330 C   0  0  0  0  0  0  0  0  0  0  0  0
    6.1350    0.3430   20.3500 C   0  0  0  0  0  0  0  0  0  0  0  0
   11.8720    3.2450   22.4700 O   0  0  0  0  0  0  0  0  0  0  0  0
   11.0640    4.2720   24.1960 O   0  0  0  0  0  0  0  0  0  0  0  0
    5.9860   -2.5720   21.6280 C   0  0  0  0  0  0  0  0  0  0  0  0
    4.9250    1.0240   20.1250 C   0  0  0  0  0  0  0  0  0  0  0  0
    6.8440    0.2070   19.0240 C   0  0  0  0  0  0  0  0  0  0  0  0
    8.4180   -1.7350   22.3910 C   0  0  0  0  0  0  0  0  0  0  0  0
   12.2890    4.5230   21.9720 C   0  0  0  0  0  0  0  0  0  0  0  0
    5.1070   -3.4790   21.2540 O   0  0  0  0  0  0  0  0  0  0  0  0
    6.6260   -2.9770   20.3010 C   0  0  0  0  0  0  0  0  0  0  0  0
    3.8960    1.3420   21.1880 C   0  0  0  0  0  0  0  0  0  0  0  0
    6.4410    0.6850   17.7330 N   0  0  0  0  0  0  0  0  0  0  0  0
    4.5580    1.4830   18.8730 C   0  0  0  0  0  0  0  0  0  0  0  0
    9.5580   -1.2870   21.7050 C   0  0  0  0  0  0  0  0  0  0  0  0
    8.6660   -2.2230   23.6920 C   0  0  0  0  0  0  0  0  0  0  0  0
   13.5310    4.9750   22.7740 C   0  0  0  0  0  0  0  0  0  0  0  0
    7.8150   -3.9390   20.5370 C   0  0  0  0  0  0  0  0  0  0  0  0
    4.3550    1.8820   22.5100 C   0  0  0  0  0  0  0  0  0  0  0  0
    5.1890    1.4010   17.6490 C   0  0  0  0  0  0  0  0  0  0  0  0
   10.8360   -1.3220   22.2810 C   0  0  0  0  0  0  0  0  0  0  0  0
    9.9760   -2.2280   24.2300 C   0  0  0  0  0  0  0  0  0  0  0  0
    7.6200   -2.7710   24.5980 C   0  0  0  0  0  0  0  0  0  0  0  0
    3.4520    2.5770   23.2190 N   0  0  0  0  0  0  0  0  0  0  0  0
   11.0680   -1.7820   23.5440 C   0  0  0  0  0  0  0  0  0  0  0  0
    8.0930   -4.0540   25.1340 N   0  0  0  0  0  0  0  0  0  0  0  0
   12.4830   -1.7520   24.0700 C   0  0  0  0  0  0  0  0  0  0  0  0
    2.3420    1.8200   23.8300 C   0  0  0  0  0  0  0  0  0  0  0  0
    8.4480   -4.0290   26.4180 C   0  0  0  0  0  0  0  0  0  0  0  0
    9.2140   -4.6680   24.3680 C   0  0  0  0  0  0  0  0  0  0  0  0
   12.5890   -0.3930   24.7340 C   0  0  0  0  0  0  0  0  0  0  0  0
   13.4060   -2.0440   22.9550 C   0  0  0  0  0  0  0  0  0  0  0  0
   12.7520   -2.8380   25.1280 C   0  0  0  0  0  0  0  0  0  0  0  0
    2.2260    0.3920   23.7850 O   0  0  0  0  0  0  0  0  0  0  0  0
    1.2910    2.6040   24.5430 C   0  0  0  0  0  0  0  0  0  0  0  0
    8.6130   -5.2700   26.9970 C   0  0  0  0  0  0  0  0  0  0  0  0
    9.0710   -6.0010   24.5630 C   0  0  0  0  0  0  0  0  0  0  0  0
    1.4790    3.8190   25.2290 C   0  0  0  0  0  0  0  0  0  0  0  0
   -0.0480    2.1800   24.6000 C   0  0  0  0  0  0  0  0  0  0  0  0
    9.1270   -6.2670   26.0410 N   0  0  0  0  0  0  0  0  0  0  0  0
    2.7000    4.3720   25.2780 F   0  0  0  0  0  0  0  0  0  0  0  0
   -1.0910    2.8400   25.2380 C   0  0  0  0  0  0  0  0  0  0  0  0
    0.4390    4.5210   25.8910 C   0  0  0  0  0  0  0  0  0  0  0  0
   -0.8600    4.0280   25.8980 C   0  0  0  0  0  0  0  0  0  0  0  0
  1  2  1  0
  2  3  1  0
  1  4  1  0
  4  5  2  0
  6  4  1  6
  6  7  1  0
  3  8  1  0
  6  9  1  0
  8 10  1  0
  8 11  2  0
  7 12  1  0
  9 13  1  0
  9 14  2  0
  7 15  1  0
 10 16  1  0
 12 17  2  0
 12 18  1  0
 13 19  1  0
 14 20  1  0
 13 21  2  0
 15 22  2  0
 15 23  1  0
 16 24  1  0
 18 25  1  0
 19 26  1  0
 20 27  2  0
 21 27  1  0
 22 28  1  0
 23 29  2  0
 23 30  1  0
 26 31  1  0
 28 32  2  0
 29 32  1  0
 30 33  1  0
 32 34  1  0
 31 35  1  0
 33 36  1  0
 33 37  1  0
 34 38  1  0
 34 39  1  0
 34 40  1  0
 35 41  2  0
 35 42  1  0
 36 43  1  0
 37 44  1  0
 42 45  2  0
 42 46  1  0
 43 47  1  0
 44 47  1  0
 45 48  1  0
 46 49  2  0
 45 50  1  0
 49 51  1  0
 50 51  2  0
M  END
