x0426-x3110-x2643-x0786
     RDKit          3D

 60 64  0  0  0  0  0  0  0  0999 V2000
    7.9030    1.1170   23.3180 N   0  0  0  0  0  0  0  0  0  0  0  0
    8.6550    2.3410   23.6990 C   0  0  0  0  0  0  0  0  0  0  0  0
   10.0360    2.2600   23.5680 C   0  0  0  0  0  0  0  0  0  0  0  0
    7.7170    0.7320   21.9180 C   0  0  0  0  0  0  0  0  0  0  0  0
    8.5420    1.3160   20.9760 O   0  0  0  0  0  0  0  0  0  0  0  0
    6.5410   -0.2700   21.5800 C   0  0  2  0  0  0  0  0  0  0  0  0
    6.9250   -1.7000   21.7020 N   0  0  0  0  0  0  0  0  0  0  0  0
   10.7030    3.4680   23.3670 C   0  0  0  0  0  0  0  0  0  0  0  0
    6.0300    0.2730   20.2610 C   0  0  0  0  0  0  0  0  0  0  0  0
   11.4800    3.5410   22.1850 O   0  0  0  0  0  0  0  0  0  0  0  0
   10.6370    4.4070   24.1450 O   0  0  0  0  0  0  0  0  0  0  0  0
    6.0490   -2.8460   21.2950 C   0  0  0  0  0  0  0  0  0  0  0  0
    4.8050    0.9320   20.1240 C   0  0  0  0  0  0  0  0  0  0  0  0
    6.7970    0.1440   19.1280 C   0  0  0  0  0  0  0  0  0  0  0  0
    8.1920   -1.7620   22.3940 C   0  0  0  0  0  0  0  0  0  0  0  0
   12.2320    4.6490   22.0040 C   0  0  0  0  0  0  0  0  0  0  0  0
    4.8160   -2.9170   20.9020 O   0  0  0  0  0  0  0  0  0  0  0  0
    6.5490   -4.2520   21.4200 C   0  0  1  0  0  0  0  0  0  0  0  0
    3.8470    1.1160   21.2740 C   0  0  0  0  0  0  0  0  0  0  0  0
    6.4740    0.6420   17.8130 N   0  0  0  0  0  0  0  0  0  0  0  0
    4.4120    1.4560   18.8870 C   0  0  0  0  0  0  0  0  0  0  0  0
    9.2790   -1.7440   21.5650 C   0  0  0  0  0  0  0  0  0  0  0  0
    8.4200   -1.8300   23.7730 C   0  0  0  0  0  0  0  0  0  0  0  0
   13.4010    4.9920   22.8770 C   0  0  0  0  0  0  0  0  0  0  0  0
    8.0550   -4.5110   21.1380 C   0  0  0  0  0  0  0  0  0  0  0  0
    4.2520    2.0890   22.1830 C   0  0  0  0  0  0  0  0  0  0  0  0
    5.1820    1.3600   17.7220 C   0  0  0  0  0  0  0  0  0  0  0  0
   10.6010   -1.8060   22.0230 C   0  0  0  0  0  0  0  0  0  0  0  0
    9.7130   -1.8900   24.2910 C   0  0  0  0  0  0  0  0  0  0  0  0
    5.8870   -4.6430   22.7590 C   0  0  0  0  0  0  0  0  0  0  0  0
    3.2140    2.7190   22.8130 N   0  0  0  0  0  0  0  0  0  0  0  0
   10.8500   -1.8870   23.4830 C   0  0  0  0  0  0  0  0  0  0  0  0
    4.9760   -5.6880   22.8740 C   0  0  0  0  0  0  0  0  0  0  0  0
    6.2190   -3.8510   23.8740 C   0  0  0  0  0  0  0  0  0  0  0  0
   12.1630   -1.9520   24.1840 C   0  0  0  0  0  0  0  0  0  0  0  0
    2.5540    2.0990   24.0040 C   0  0  0  0  0  0  0  0  0  0  0  0
    4.3530   -5.9930   24.0610 C   0  0  0  0  0  0  0  0  0  0  0  0
    5.6300   -4.1070   25.1090 C   0  0  0  0  0  0  0  0  0  0  0  0
   12.5010   -0.6660   24.4650 C   0  0  0  0  0  0  0  0  0  0  0  0
   13.2860   -2.4030   23.2520 C   0  0  0  0  0  0  0  0  0  0  0  0
   12.1910   -2.9290   25.3430 C   0  0  0  0  0  0  0  0  0  0  0  0
    2.9250    1.0440   24.4990 O   0  0  0  0  0  0  0  0  0  0  0  0
    3.3650   -7.0840   24.2190 C   0  0  0  0  0  0  0  0  0  0  0  0
    1.3790    2.8450   24.6680 C   0  0  0  0  0  0  0  0  0  0  0  0
    4.7100   -5.1340   25.2710 C   0  0  0  0  0  0  0  0  0  0  0  0
    3.7420   -8.0770   24.8280 O   0  0  0  0  0  0  0  0  0  0  0  0
    1.5660    4.0530   25.3020 C   0  0  0  0  0  0  0  0  0  0  0  0
    0.1180    2.2190   24.5920 C   0  0  0  0  0  0  0  0  0  0  0  0
    2.1090   -6.9620   23.7160 N   0  0  0  0  0  0  0  0  0  0  0  0
   12.9230    0.0040   23.1980 C   0  0  0  0  0  0  0  0  0  0  0  0
    2.7580    4.6520   25.3790 F   0  0  0  0  0  0  0  0  0  0  0  0
   -1.0200    2.7950   25.1620 C   0  0  0  0  0  0  0  0  0  0  0  0
    0.2960    4.6710   25.9230 C   0  0  0  0  0  0  0  0  0  0  0  0
    1.6130   -5.6170   23.4070 C   0  0  0  0  0  0  0  0  0  0  0  0
    1.1180   -7.9150   23.9770 C   0  0  0  0  0  0  0  0  0  0  0  0
   12.6990    1.7090   23.1320 Cl  0  0  0  0  0  0  0  0  0  0  0  0
   -0.9240    4.0200   25.8250 C   0  0  0  0  0  0  0  0  0  0  0  0
    0.6070   -5.1150   24.4450 C   0  0  0  0  0  0  0  0  0  0  0  0
    0.0260   -7.6160   24.7980 C   0  0  0  0  0  0  0  0  0  0  0  0
   -0.7950   -6.0640   24.3250 S   0  0  0  0  0  0  0  0  0  0  0  0
  1  2  1  0
  2  3  1  0
  1  4  1  0
  4  5  2  0
  6  4  1  6
  6  7  1  0
  3  8  1  0
  6  9  1  0
  8 10  1  0
  8 11  2  0
  7 12  1  0
  9 13  1  0
  9 14  2  0
  7 15  1  0
 10 16  1  0
 12 17  2  0
 12 18  1  0
 13 19  1  0
 14 20  1  0
 13 21  2  0
 15 22  2  0
 15 23  1  0
 16 24  1  0
 18 25  1  1
 19 26  1  0
 20 27  2  0
 21 27  1  0
 22 28  1  0
 23 29  2  0
 18 30  1  0
 26 31  1  0
 28 32  2  0
 29 32  1  0
 30 33  2  0
 30 34  1  0
 32 35  1  0
 31 36  1  0
 33 37  1  0
 34 38  2  0
 35 39  1  0
 35 40  1  0
 35 41  1  0
 36 42  2  0
 37 43  1  0
 36 44  1  0
 37 45  2  0
 38 45  1  0
 43 46  2  0
 44 47  2  0
 44 48  1  0
 43 49  1  0
 39 50  1  0
 47 51  1  0
 48 52  2  0
 47 53  1  0
 49 54  1  0
 49 55  1  0
 50 56  1  0
 52 57  1  0
 53 57  2  0
 54 58  1  0
 55 59  1  0
 58 60  1  0
 59 60  1  0
M  END
