x0426-x1425-x2776-x2694
     RDKit          3D

 61 66  0  0  0  0  0  0  0  0999 V2000
    6.9530   -1.2020   22.4680 C   0  0  2  0  0  0  0  0  0  0  0  0
    6.7900    0.1270   21.7250 C   0  0  1  0  0  0  0  0  0  0  0  0
    7.9180    1.1850   21.9180 C   0  0  0  0  0  0  0  0  0  0  0  0
    5.9160   -1.0810   23.5100 C   0  0  0  0  0  0  0  0  0  0  0  0
    8.3240   -1.2170   23.0740 C   0  0  0  0  0  0  0  0  0  0  0  0
    7.0370   -2.8350   22.0890 C   0  0  2  0  0  0  0  0  0  0  0  0
    6.2320    0.3640   20.3310 C   0  0  0  0  0  0  0  0  0  0  0  0
    9.5540   -1.7060   22.2790 C   0  0  0  0  0  0  0  0  0  0  0  0
    8.3760   -0.7390   24.4900 C   0  0  0  0  0  0  0  0  0  0  0  0
    6.0860   -3.7430   21.3300 N   0  0  0  0  0  0  0  0  0  0  0  0
    7.2130   -3.5240   23.3300 C   0  0  0  0  0  0  0  0  0  0  0  0
    7.8480    1.8550   22.8730 N   0  0  0  0  0  0  0  0  0  0  0  0
    8.8950    1.3390   20.9990 O   0  0  0  0  0  0  0  0  0  0  0  0
    5.9170   -3.7050   19.9720 C   0  0  0  0  0  0  0  0  0  0  0  0
    4.9390    0.9060   20.1900 C   0  0  0  0  0  0  0  0  0  0  0  0
    6.9140    0.1240   19.1730 C   0  0  0  0  0  0  0  0  0  0  0  0
   10.8510   -1.6830   23.0480 C   0  0  0  0  0  0  0  0  0  0  0  0
    9.5810   -0.7460   25.0970 C   0  0  0  0  0  0  0  0  0  0  0  0
    6.0060   -4.1920   23.8860 N   0  0  0  0  0  0  0  0  0  0  0  0
    6.0480   -5.1430   21.8350 C   0  0  0  0  0  0  0  0  0  0  0  0
   12.1930   -2.0840   22.5920 C   0  0  0  0  0  0  0  0  0  0  0  0
    3.9620    1.2280   21.3230 C   0  0  0  0  0  0  0  0  0  0  0  0
    4.9090   -4.1950   19.5640 O   0  0  0  0  0  0  0  0  0  0  0  0
    6.9970   -3.0880   19.0720 C   0  0  0  0  0  0  0  0  0  0  0  0
    6.4480    0.4110   17.8110 N   0  0  0  0  0  0  0  0  0  0  0  0
    4.4030    1.2290   18.8290 C   0  0  0  0  0  0  0  0  0  0  0  0
    8.5760    3.0750   23.0990 C   0  0  0  0  0  0  0  0  0  0  0  0
   10.7160   -1.1680   24.4800 C   0  0  0  0  0  0  0  0  0  0  0  0
    5.2880   -3.6670   25.0720 C   0  0  0  0  0  0  0  0  0  0  0  0
    5.5340   -5.2860   23.1150 C   0  0  0  0  0  0  0  0  0  0  0  0
   13.0620   -1.5220   23.6840 C   0  0  1  0  0  0  0  0  0  0  0  0
    4.3740    2.1320   22.2950 C   0  0  0  0  0  0  0  0  0  0  0  0
    5.1340    1.0010   17.7080 C   0  0  0  0  0  0  0  0  0  0  0  0
    9.9080    3.0560   23.5520 C   0  0  0  0  0  0  0  0  0  0  0  0
    8.0270    4.3500   22.8940 C   0  0  0  0  0  0  0  0  0  0  0  0
    5.7880   -2.5550   26.0360 C   0  0  0  0  0  0  0  0  0  0  0  0
    3.9190   -4.3190   25.3210 C   0  0  0  0  0  0  0  0  0  0  0  0
   13.8960   -2.3290   24.0620 O   0  0  0  0  0  0  0  0  0  0  0  0
   10.6730    1.7990   23.8280 C   0  0  0  0  0  0  0  0  0  0  0  0
   13.2090   -0.1250   23.2780 C   0  0  0  0  0  0  0  0  0  0  0  0
    3.2070    2.6670   23.0240 N   0  0  0  0  0  0  0  0  0  0  0  0
   10.6200    4.2500   23.7810 C   0  0  0  0  0  0  0  0  0  0  0  0
    8.7330    5.5160   23.1280 C   0  0  0  0  0  0  0  0  0  0  0  0
    4.9380   -2.1850   27.0960 C   0  0  0  0  0  0  0  0  0  0  0  0
    3.0790   -3.8310   26.5120 C   0  0  0  0  0  0  0  0  0  0  0  0
   13.4820   -2.8820   25.3150 C   0  0  0  0  0  0  0  0  0  0  0  0
    2.2720    1.8650   23.6900 C   0  0  0  0  0  0  0  0  0  0  0  0
   10.0480    5.5100   23.5820 C   0  0  0  0  0  0  0  0  0  0  0  0
    3.5620   -2.8210   27.3450 C   0  0  0  0  0  0  0  0  0  0  0  0
   10.7220    6.6810   23.8120 O   0  0  0  0  0  0  0  0  0  0  0  0
    2.2700    0.6310   23.6480 O   0  0  0  0  0  0  0  0  0  0  0  0
    2.8950   -2.3170   28.4210 O   0  0  0  0  0  0  0  0  0  0  0  0
    1.2400    2.5970   24.4740 C   0  0  0  0  0  0  0  0  0  0  0  0
   11.7940    6.6350   24.7550 C   0  0  0  0  0  0  0  0  0  0  0  0
    1.4770   -2.3170   28.3440 C   0  0  0  0  0  0  0  0  0  0  0  0
    1.5100    3.8860   25.2630 C   0  0  0  0  0  0  0  0  0  0  0  0
   -0.2000    2.0850   24.5340 C   0  0  0  0  0  0  0  0  0  0  0  0
    2.7280    4.4430   25.2950 F   0  0  0  0  0  0  0  0  0  0  0  0
   -1.2620    2.8290   25.3300 C   0  0  0  0  0  0  0  0  0  0  0  0
    0.4830    4.5260   25.9790 C   0  0  0  0  0  0  0  0  0  0  0  0
   -0.9560    4.0000   26.0290 C   0  0  0  0  0  0  0  0  0  0  0  0
  1  2  1  0
  2  3  1  6
  1  4  1  1
  1  5  1  0
  1  6  1  0
  2  7  1  0
  5  8  2  0
  5  9  1  0
  6 10  1  0
  6 11  1  1
  3 12  1  0
  3 13  2  0
 10 14  1  0
  7 15  1  0
  7 16  2  0
  8 17  1  0
  9 18  2  0
 11 19  1  0
 10 20  1  0
 17 21  1  0
 15 22  1  0
 14 23  2  0
 14 24  1  0
 16 25  1  0
 15 26  2  0
 12 27  1  0
 17 28  2  0
 18 28  1  0
 19 29  1  0
 19 30  1  0
 20 30  1  0
 21 31  1  0
 22 32  1  0
 25 33  2  0
 26 33  1  0
 27 34  2  0
 27 35  1  0
 29 36  2  0
 29 37  1  0
 31 38  1  0
 34 39  1  0
 31 40  1  6
 32 41  1  0
 34 42  1  0
 35 43  2  0
 36 44  1  0
 37 45  2  0
 38 46  1  0
 41 47  1  0
 42 48  2  0
 43 48  1  0
 44 49  2  0
 45 49  1  0
 48 50  1  0
 47 51  2  0
 49 52  1  0
 47 53  1  0
 50 54  1  0
 52 55  1  0
 53 56  2  0
 53 57  1  0
 56 58  1  0
 57 59  2  0
 56 60  1  0
 59 61  1  0
 60 61  2  0
M  END
