x0426-x3110-x0786-x3115
     RDKit          3D

 61 65  0  0  0  0  0  0  0  0999 V2000
    7.7930    1.3530   23.2470 N   0  0  0  0  0  0  0  0  0  0  0  0
    8.6740    2.5370   23.5550 C   0  0  1  0  0  0  0  0  0  0  0  0
   10.0560    2.1580   23.3780 C   0  0  0  0  0  0  0  0  0  0  0  0
    7.6810    0.6830   21.9250 C   0  0  0  0  0  0  0  0  0  0  0  0
    8.5630    0.8760   21.0860 O   0  0  0  0  0  0  0  0  0  0  0  0
    6.5110   -0.1480   21.6310 C   0  0  2  0  0  0  0  0  0  0  0  0
    8.3500    3.5890   22.5160 C   0  0  0  0  0  0  0  0  0  0  0  0
    6.9330   -1.5700   21.8230 N   0  0  0  0  0  0  0  0  0  0  0  0
   11.0160    3.3690   23.3310 C   0  0  0  0  0  0  0  0  0  0  0  0
    8.5280    4.8890   23.1290 O   0  0  0  0  0  0  0  0  0  0  0  0
    6.0910    0.3180   20.2670 C   0  0  0  0  0  0  0  0  0  0  0  0
   11.8760    3.2410   22.4680 O   0  0  0  0  0  0  0  0  0  0  0  0
   10.9200    4.5010   24.1750 O   0  0  0  0  0  0  0  0  0  0  0  0
    6.1040   -2.7650   21.5060 C   0  0  0  0  0  0  0  0  0  0  0  0
    8.1850    5.9260   22.3080 C   0  0  0  0  0  0  0  0  0  0  0  0
    4.8450    1.1710   20.0750 C   0  0  0  0  0  0  0  0  0  0  0  0
    6.7620    0.0600   19.0730 C   0  0  0  0  0  0  0  0  0  0  0  0
    8.2460   -1.6530   22.4230 C   0  0  0  0  0  0  0  0  0  0  0  0
   12.2720    4.4280   21.9480 C   0  0  0  0  0  0  0  0  0  0  0  0
    4.8680   -2.9970   21.0550 O   0  0  0  0  0  0  0  0  0  0  0  0
    6.8450   -4.0130   21.8230 C   0  0  2  0  0  0  0  0  0  0  0  0
    3.9750    1.5740   21.0960 C   0  0  0  0  0  0  0  0  0  0  0  0
    6.4080    0.5060   17.8370 N   0  0  0  0  0  0  0  0  0  0  0  0
    4.5390    1.5930   18.8090 C   0  0  0  0  0  0  0  0  0  0  0  0
    9.3200   -1.9840   21.6680 C   0  0  0  0  0  0  0  0  0  0  0  0
    8.4890   -1.3850   23.7750 C   0  0  0  0  0  0  0  0  0  0  0  0
   13.3930    5.0330   22.7900 C   0  0  0  0  0  0  0  0  0  0  0  0
    6.8610   -4.9010   20.5640 C   0  0  0  0  0  0  0  0  0  0  0  0
    4.1780    1.8160   22.4420 C   0  0  0  0  0  0  0  0  0  0  0  0
    5.3140    1.2620   17.7490 C   0  0  0  0  0  0  0  0  0  0  0  0
   10.5560   -2.0240   22.2440 C   0  0  0  0  0  0  0  0  0  0  0  0
    9.7830   -1.4320   24.3420 C   0  0  0  0  0  0  0  0  0  0  0  0
    6.0010   -4.5030   23.0000 C   0  0  0  0  0  0  0  0  0  0  0  0
    3.0860    2.6710   22.9650 N   0  0  0  0  0  0  0  0  0  0  0  0
   10.9650   -1.7490   23.6560 C   0  0  0  0  0  0  0  0  0  0  0  0
    5.1190   -5.5930   23.0040 C   0  0  0  0  0  0  0  0  0  0  0  0
    6.1490   -3.7240   24.1650 C   0  0  0  0  0  0  0  0  0  0  0  0
   12.3920   -1.7880   24.2160 C   0  0  0  0  0  0  0  0  0  0  0  0
    2.4290    2.0900   24.1300 C   0  0  0  0  0  0  0  0  0  0  0  0
    4.3890   -5.8940   24.1600 C   0  0  0  0  0  0  0  0  0  0  0  0
    5.4180   -4.0360   25.3080 C   0  0  0  0  0  0  0  0  0  0  0  0
   12.5820   -0.6470   24.9810 C   0  0  0  0  0  0  0  0  0  0  0  0
   13.4090   -1.7810   23.0740 C   0  0  0  0  0  0  0  0  0  0  0  0
   12.6820   -2.9520   24.9530 C   0  0  0  0  0  0  0  0  0  0  0  0
    2.8720    0.9550   24.7260 O   0  0  0  0  0  0  0  0  0  0  0  0
    3.4260   -7.0240   24.2350 C   0  0  0  0  0  0  0  0  0  0  0  0
    1.2540    2.7830   24.7120 C   0  0  0  0  0  0  0  0  0  0  0  0
    4.5390   -5.1150   25.3110 C   0  0  0  0  0  0  0  0  0  0  0  0
    3.8200   -8.0590   24.7580 O   0  0  0  0  0  0  0  0  0  0  0  0
    1.4490    4.0220   25.3280 C   0  0  0  0  0  0  0  0  0  0  0  0
   -0.0080    2.1260   24.6060 C   0  0  0  0  0  0  0  0  0  0  0  0
    2.1510   -6.8700   23.7520 N   0  0  0  0  0  0  0  0  0  0  0  0
    2.6820    4.5490   25.3710 F   0  0  0  0  0  0  0  0  0  0  0  0
   -1.2320    2.8300   25.2110 C   0  0  0  0  0  0  0  0  0  0  0  0
    0.4300    4.7540   25.9090 C   0  0  0  0  0  0  0  0  0  0  0  0
    1.5920   -5.5660   23.4080 C   0  0  0  0  0  0  0  0  0  0  0  0
    1.2020   -7.9840   23.9020 C   0  0  0  0  0  0  0  0  0  0  0  0
   -1.0050    4.1890   25.8860 C   0  0  0  0  0  0  0  0  0  0  0  0
    0.5110   -5.0440   24.3900 C   0  0  0  0  0  0  0  0  0  0  0  0
    0.0510   -7.6820   24.8720 C   0  0  0  0  0  0  0  0  0  0  0  0
   -0.9040   -6.1770   24.4450 S   0  0  0  0  0  0  0  0  0  0  0  0
  1  2  1  0
  2  3  1  6
  1  4  1  0
  4  5  2  0
  6  4  1  6
  2  7  1  0
  6  8  1  0
  3  9  1  0
  7 10  1  0
  6 11  1  0
  9 12  1  0
  9 13  2  0
  8 14  1  0
 10 15  1  0
 11 16  1  0
 11 17  2  0
  8 18  1  0
 12 19  1  0
 14 20  2  0
 14 21  1  0
 16 22  1  0
 17 23  1  0
 16 24  2  0
 18 25  2  0
 18 26  1  0
 19 27  1  0
 21 28  1  6
 22 29  1  0
 23 30  2  0
 24 30  1  0
 25 31  1  0
 26 32  2  0
 21 33  1  0
 29 34  1  0
 31 35  2  0
 32 35  1  0
 33 36  2  0
 33 37  1  0
 35 38  1  0
 34 39  1  0
 36 40  1  0
 37 41  2  0
 38 42  1  0
 38 43  1  0
 38 44  1  0
 39 45  2  0
 40 46  1  0
 39 47  1  0
 40 48  2  0
 41 48  1  0
 46 49  2  0
 47 50  2  0
 47 51  1  0
 46 52  1  0
 50 53  1  0
 51 54  2  0
 50 55  1  0
 52 56  1  0
 52 57  1  0
 54 58  1  0
 55 58  2  0
 56 59  1  0
 57 60  1  0
 59 61  1  0
 60 61  1  0
M  END
