x0426-x3110
     RDKit          3D

 44 46  0  0  0  0  0  0  0  0999 V2000
    8.1040    0.9920   23.2610 N   0  0  0  0  0  0  0  0  0  0  0  0
    8.8120    2.0480   23.5820 C   0  0  0  0  0  0  0  0  0  0  0  0
   10.2100    1.8930   23.4920 C   0  0  0  0  0  0  0  0  0  0  0  0
    7.8350    0.6740   21.8530 C   0  0  0  0  0  0  0  0  0  0  0  0
    8.5340    1.2470   20.9890 O   0  0  0  0  0  0  0  0  0  0  0  0
    6.6800   -0.2760   21.5810 C   0  0  2  0  0  0  0  0  0  0  0  0
    7.0570   -1.7300   21.7600 N   0  0  0  0  0  0  0  0  0  0  0  0
   10.9590    3.2140   23.3930 C   0  0  0  0  0  0  0  0  0  0  0  0
    6.0780    0.2300   20.2660 C   0  0  0  0  0  0  0  0  0  0  0  0
   11.8310    3.1680   22.5230 O   0  0  0  0  0  0  0  0  0  0  0  0
   10.7330    4.2030   24.0810 O   0  0  0  0  0  0  0  0  0  0  0  0
    6.1930   -2.9540   21.4680 C   0  0  0  0  0  0  0  0  0  0  0  0
    4.8370    0.8740   20.1600 C   0  0  0  0  0  0  0  0  0  0  0  0
    6.8650    0.0360   19.1320 C   0  0  0  0  0  0  0  0  0  0  0  0
    8.3360   -1.8150   22.4450 C   0  0  0  0  0  0  0  0  0  0  0  0
   12.1710    4.3870   22.0170 C   0  0  0  0  0  0  0  0  0  0  0  0
    4.9120   -3.0830   21.1330 O   0  0  0  0  0  0  0  0  0  0  0  0
    6.8570   -4.3270   21.5940 C   0  0  0  0  0  0  0  0  0  0  0  0
    3.9730    1.0770   21.2640 C   0  0  0  0  0  0  0  0  0  0  0  0
    6.4080    0.5330   17.8460 N   0  0  0  0  0  0  0  0  0  0  0  0
    4.3940    1.3560   18.9380 C   0  0  0  0  0  0  0  0  0  0  0  0
    9.4750   -1.4460   21.7060 C   0  0  0  0  0  0  0  0  0  0  0  0
    8.5100   -2.2160   23.7850 C   0  0  0  0  0  0  0  0  0  0  0  0
   13.3470    4.9760   22.8150 C   0  0  0  0  0  0  0  0  0  0  0  0
    8.2760   -4.4300   20.9740 C   0  0  0  0  0  0  0  0  0  0  0  0
    4.3330    1.9590   22.2790 C   0  0  0  0  0  0  0  0  0  0  0  0
    5.1310    1.2250   17.7670 C   0  0  0  0  0  0  0  0  0  0  0  0
   10.7430   -1.4740   22.2920 C   0  0  0  0  0  0  0  0  0  0  0  0
    9.8000   -2.2370   24.3710 C   0  0  0  0  0  0  0  0  0  0  0  0
    3.3160    2.5630   23.1520 N   0  0  0  0  0  0  0  0  0  0  0  0
   10.9020   -1.8610   23.6180 C   0  0  0  0  0  0  0  0  0  0  0  0
   12.3240   -1.8530   24.2390 C   0  0  0  0  0  0  0  0  0  0  0  0
    2.3120    1.8210   23.7590 C   0  0  0  0  0  0  0  0  0  0  0  0
   12.4930   -0.6530   24.9270 C   0  0  0  0  0  0  0  0  0  0  0  0
   13.3560   -1.9220   23.1040 C   0  0  0  0  0  0  0  0  0  0  0  0
   12.7240   -2.9860   25.2040 C   0  0  0  0  0  0  0  0  0  0  0  0
    2.2630    0.5880   23.7060 O   0  0  0  0  0  0  0  0  0  0  0  0
    1.2620    2.5840   24.5070 C   0  0  0  0  0  0  0  0  0  0  0  0
    1.5380    3.7710   25.1890 C   0  0  0  0  0  0  0  0  0  0  0  0
   -0.0440    2.0670   24.5090 C   0  0  0  0  0  0  0  0  0  0  0  0
    2.7760    4.2960   25.2120 F   0  0  0  0  0  0  0  0  0  0  0  0
   -1.0620    2.7420   25.1920 C   0  0  0  0  0  0  0  0  0  0  0  0
    0.5290    4.4530   25.8730 C   0  0  0  0  0  0  0  0  0  0  0  0
   -0.7780    3.9340   25.8730 C   0  0  0  0  0  0  0  0  0  0  0  0
  1  2  1  0
  2  3  1  0
  1  4  1  0
  4  5  2  0
  6  4  1  6
  6  7  1  0
  3  8  1  0
  6  9  1  0
  8 10  1  0
  8 11  2  0
  7 12  1  0
  9 13  1  0
  9 14  2  0
  7 15  1  0
 10 16  1  0
 12 17  2  0
 12 18  1  0
 13 19  1  0
 14 20  1  0
 13 21  2  0
 15 22  2  0
 15 23  1  0
 16 24  1  0
 18 25  1  0
 19 26  1  0
 20 27  2  0
 21 27  1  0
 22 28  1  0
 23 29  2  0
 26 30  1  0
 28 31  2  0
 29 31  1  0
 31 32  1  0
 30 33  1  0
 32 34  1  0
 32 35  1  0
 32 36  1  0
 33 37  2  0
 33 38  1  0
 38 39  2  0
 38 40  1  0
 39 41  1  0
 40 42  2  0
 39 43  1  0
 42 44  1  0
 43 44  2  0
M  END
