x0426-x2776-x2608-x0786
     RDKit          3D

 63 68  0  0  0  0  0  0  0  0999 V2000
    7.1160   -1.7340   21.6800 N   0  0  0  0  0  0  0  0  0  0  0  0
    6.1200   -2.8550   21.4210 C   0  0  0  0  0  0  0  0  0  0  0  0
    4.8700   -2.9630   20.9410 O   0  0  0  0  0  0  0  0  0  0  0  0
    6.6130   -0.2700   21.5080 C   0  0  1  0  0  0  0  0  0  0  0  0
    8.5850   -2.1430   22.0400 C   0  0  1  0  0  0  0  0  0  0  0  0
    6.5630   -4.1850   21.8250 C   0  0  2  0  0  0  0  0  0  0  0  0
    7.7810    0.6280   22.0660 C   0  0  0  0  0  0  0  0  0  0  0  0
    6.1040    0.2800   20.1240 C   0  0  0  0  0  0  0  0  0  0  0  0
    9.6850   -1.6710   22.9410 C   0  0  1  0  0  0  0  0  0  0  0  0
    8.7400   -3.3600   22.7490 C   0  0  0  0  0  0  0  0  0  0  0  0
    6.5660   -5.0520   20.5560 C   0  0  0  0  0  0  0  0  0  0  0  0
    7.4750    1.9890   21.9270 N   0  0  0  0  0  0  0  0  0  0  0  0
    4.8810    0.9660   20.0310 C   0  0  0  0  0  0  0  0  0  0  0  0
    6.8700    0.1090   18.9830 C   0  0  0  0  0  0  0  0  0  0  0  0
    9.2230   -1.8690   24.2510 C   0  0  0  0  0  0  0  0  0  0  0  0
   11.1970   -1.4560   22.8280 C   0  0  2  0  0  0  0  0  0  0  0  0
    5.7530   -4.5240   23.0610 C   0  0  0  0  0  0  0  0  0  0  0  0
    8.6100   -2.9950   24.1480 C   0  0  0  0  0  0  0  0  0  0  0  0
   12.0600   -2.3990   23.5680 C   0  0  0  0  0  0  0  0  0  0  0  0
    3.9960    1.1520   21.2300 C   0  0  0  0  0  0  0  0  0  0  0  0
    6.4780    0.6310   17.6940 N   0  0  0  0  0  0  0  0  0  0  0  0
    4.4680    1.4850   18.8220 C   0  0  0  0  0  0  0  0  0  0  0  0
    8.2390    3.2130   22.0470 C   0  0  0  0  0  0  0  0  0  0  0  0
   11.8960   -0.1030   23.0510 C   0  0  1  0  0  0  0  0  0  0  0  0
    4.9110   -5.6290   23.0840 C   0  0  0  0  0  0  0  0  0  0  0  0
    5.8930   -3.6510   24.1440 C   0  0  0  0  0  0  0  0  0  0  0  0
   12.4370   -2.0650   24.9180 O   0  0  0  0  0  0  0  0  0  0  0  0
    4.2390    1.9030   22.3720 C   0  0  0  0  0  0  0  0  0  0  0  0
   13.2380    0.1920   22.6050 C   0  0  0  0  0  0  0  0  0  0  0  0
    5.2120    1.3520   17.6870 C   0  0  0  0  0  0  0  0  0  0  0  0
    7.7400    4.4410   22.6030 C   0  0  0  0  0  0  0  0  0  0  0  0
   10.9840    1.3670   23.2510 S   0  0  0  0  0  0  0  0  0  0  0  0
    4.1580   -5.8930   24.2270 C   0  0  0  0  0  0  0  0  0  0  0  0
    5.1970   -3.8340   25.3240 C   0  0  0  0  0  0  0  0  0  0  0  0
   10.7800    2.6350   22.6170 O   0  0  0  0  0  0  0  0  0  0  0  0
    9.8380    2.1380   24.2480 C   0  0  0  0  0  0  0  0  0  0  0  0
   13.3530   -3.0230   25.4160 C   0  0  0  0  0  0  0  0  0  0  0  0
    3.2240    2.6750   22.9330 N   0  0  0  0  0  0  0  0  0  0  0  0
    3.2780   -6.9980   24.2400 C   0  0  0  0  0  0  0  0  0  0  0  0
    8.5710    5.7750   22.7740 C   0  0  0  0  0  0  0  0  0  0  0  0
   10.3230    0.5570   24.5330 C   0  0  0  0  0  0  0  0  0  0  0  0
    4.2660   -5.0560   25.3360 C   0  0  0  0  0  0  0  0  0  0  0  0
    2.4740    2.1820   24.0150 C   0  0  0  0  0  0  0  0  0  0  0  0
    3.7210   -8.0380   24.7240 O   0  0  0  0  0  0  0  0  0  0  0  0
    9.3370    3.3320   24.1760 C   0  0  0  0  0  0  0  0  0  0  0  0
    9.4490    5.6940   23.8700 C   0  0  2  0  0  0  0  0  0  0  0  0
    1.8790   -7.0650   23.7670 N   0  0  0  0  0  0  0  0  0  0  0  0
   10.5100    6.6460   23.7240 O   0  0  0  0  0  0  0  0  0  0  0  0
    2.8790    1.0700   24.5040 O   0  0  0  0  0  0  0  0  0  0  0  0
   10.0700    4.4590   23.9180 C   0  0  0  0  0  0  0  0  0  0  0  0
    1.3570    2.8040   24.6410 C   0  0  0  0  0  0  0  0  0  0  0  0
    1.3000   -5.7850   23.2590 C   0  0  0  0  0  0  0  0  0  0  0  0
    0.9520   -8.1330   23.9360 C   0  0  0  0  0  0  0  0  0  0  0  0
   11.5730    6.6250   24.6890 C   0  0  0  0  0  0  0  0  0  0  0  0
    1.4830    4.0200   25.3340 C   0  0  0  0  0  0  0  0  0  0  0  0
   -0.0330    2.1420   24.5710 C   0  0  0  0  0  0  0  0  0  0  0  0
    0.4850   -5.1910   24.2400 C   0  0  0  0  0  0  0  0  0  0  0  0
   -0.1160   -7.8470   25.0100 C   0  0  0  0  0  0  0  0  0  0  0  0
    2.6980    4.6130   25.4040 F   0  0  0  0  0  0  0  0  0  0  0  0
   -1.2280    2.7830   25.2300 C   0  0  0  0  0  0  0  0  0  0  0  0
    0.4090    4.6800   25.9750 C   0  0  0  0  0  0  0  0  0  0  0  0
   -0.9340   -6.2830   24.4870 S   0  0  0  0  0  0  0  0  0  0  0  0
   -0.9960    4.0910   25.9520 C   0  0  0  0  0  0  0  0  0  0  0  0
  1  2  1  0
  2  3  2  0
  1  4  1  0
  1  5  1  0
  2  6  1  0
  4  7  1  0
  4  8  1  6
  5  9  1  0
  5 10  1  1
  6 11  1  6
  7 12  1  0
  8 13  1  0
  8 14  2  0
  9 15  1  1
  9 16  1  0
  6 17  1  0
 10 18  1  0
 15 18  2  0
 16 19  1  1
 13 20  1  0
 14 21  1  0
 13 22  2  0
 12 23  1  0
 16 24  1  0
 17 25  2  0
 17 26  1  0
 19 27  1  0
 20 28  1  0
 24 29  1  6
 21 30  2  0
 22 30  1  0
 23 31  2  0
 24 32  1  0
 25 33  1  0
 26 34  2  0
 32 35  1  0
 32 36  2  0
 27 37  1  0
 28 38  1  0
 33 39  1  0
 31 40  1  0
 32 41  1  0
 33 42  2  0
 34 42  1  0
 38 43  1  0
 39 44  2  0
 36 45  1  0
 40 46  1  0
 39 47  1  0
 46 48  1  6
 43 49  2  0
 45 50  2  0
 46 50  1  0
 43 51  1  0
 47 52  1  0
 47 53  1  0
 48 54  1  0
 51 55  2  0
 51 56  1  0
 52 57  1  0
 53 58  1  0
 55 59  1  0
 56 60  2  0
 55 61  1  0
 57 62  1  0
 58 62  1  0
 60 63  1  0
 61 63  2  0
M  END
