x0426-x2705-x3115-x0769
     RDKit          3D

 64 70  0  0  0  0  0  0  0  0999 V2000
    6.6860   -1.3230   22.0140 C   0  0  1  0  0  0  0  0  0  0  0  0
    5.8690   -2.2610   20.9960 C   0  0  0  0  0  0  0  0  0  0  0  0
    4.7110   -2.8620   21.1490 O   0  0  0  0  0  0  0  0  0  0  0  0
    6.4180    0.1120   21.7500 C   0  0  1  0  0  0  0  0  0  0  0  0
    5.8180   -1.9090   23.1040 C   0  0  0  0  0  0  0  0  0  0  0  0
    8.1800   -1.4500   22.5710 C   0  0  0  0  0  0  0  0  0  0  0  0
    6.3520   -2.6410   19.7600 C   0  0  0  0  0  0  0  0  0  0  0  0
    7.6200    1.1400   21.8320 C   0  0  0  0  0  0  0  0  0  0  0  0
    5.3330   -3.3520   22.6950 C   0  0  0  0  0  0  0  0  0  0  0  0
    5.9380    0.4990   20.3770 C   0  0  0  0  0  0  0  0  0  0  0  0
    8.3550   -1.8120   23.9020 N   0  0  0  0  0  0  0  0  0  0  0  0
    9.5060   -1.2390   22.0560 C   0  0  0  0  0  0  0  0  0  0  0  0
    6.5310   -4.0550   20.1400 C   0  0  0  0  0  0  0  0  0  0  0  0
    7.5090    2.0920   22.9310 N   0  0  0  0  0  0  0  0  0  0  0  0
    8.5570    1.1730   21.0230 O   0  0  0  0  0  0  0  0  0  0  0  0
    4.7140    1.1390   20.1260 C   0  0  0  0  0  0  0  0  0  0  0  0
    6.7870    0.2070   19.3100 C   0  0  0  0  0  0  0  0  0  0  0  0
    9.8020   -1.8020   24.1940 N   0  0  0  0  0  0  0  0  0  0  0  0
   10.4620   -1.4420   23.0470 C   0  0  0  0  0  0  0  0  0  0  0  0
    6.2760   -4.3660   21.7760 C   0  0  0  0  0  0  0  0  0  0  0  0
   12.0280   -1.2810   22.9220 C   0  0  0  0  0  0  0  0  0  0  0  0
    3.6960    1.5140   21.0430 C   0  0  0  0  0  0  0  0  0  0  0  0
    6.5250    0.5080   18.0320 N   0  0  0  0  0  0  0  0  0  0  0  0
    4.4210    1.4690   18.8170 C   0  0  0  0  0  0  0  0  0  0  0  0
    8.1680    3.3570   22.9800 C   0  0  0  0  0  0  0  0  0  0  0  0
    5.7100   -5.8000   21.8250 C   0  0  0  0  0  0  0  0  0  0  0  0
    7.5140   -4.6520   22.6970 C   0  0  0  0  0  0  0  0  0  0  0  0
   12.6180   -0.1060   23.4470 C   0  0  0  0  0  0  0  0  0  0  0  0
   12.7440   -1.5810   24.2340 C   0  0  0  0  0  0  0  0  0  0  0  0
   12.8120   -1.8230   21.7240 C   0  0  0  0  0  0  0  0  0  0  0  0
    4.0150    1.8170   22.3740 C   0  0  0  0  0  0  0  0  0  0  0  0
    5.2660    1.1950   17.7600 C   0  0  0  0  0  0  0  0  0  0  0  0
    9.4550    3.3380   23.5090 C   0  0  0  0  0  0  0  0  0  0  0  0
    7.5680    4.5430   22.5310 C   0  0  0  0  0  0  0  0  0  0  0  0
    5.0700   -6.1630   23.1620 C   0  0  0  0  0  0  0  0  0  0  0  0
    7.1020   -4.9430   24.1590 C   0  0  0  0  0  0  0  0  0  0  0  0
   10.1500    2.0160   23.9980 C   0  0  0  0  0  0  0  0  0  0  0  0
    6.1290    4.5800   21.9230 C   0  0  0  0  0  0  0  0  0  0  0  0
   12.4100   -2.9450   24.6790 C   0  0  0  0  0  0  0  0  0  0  0  0
    3.2010    2.6360   23.0950 N   0  0  0  0  0  0  0  0  0  0  0  0
   10.1660    4.5470   23.6060 C   0  0  0  0  0  0  0  0  0  0  0  0
    8.2820    5.7370   22.6300 C   0  0  0  0  0  0  0  0  0  0  0  0
    5.6640   -5.3690   24.2820 N   0  0  0  0  0  0  0  0  0  0  0  0
    9.2350    1.2270   24.9480 C   0  0  0  0  0  0  0  0  0  0  0  0
    2.5180    2.0570   24.2690 C   0  0  0  0  0  0  0  0  0  0  0  0
    4.8360   -5.4330   25.7880 S   0  0  0  0  0  0  0  0  0  0  0  0
    9.5550    5.7190   23.1630 C   0  0  0  0  0  0  0  0  0  0  0  0
    2.8700    1.0260   24.8070 O   0  0  0  0  0  0  0  0  0  0  0  0
    5.7950   -5.1690   26.8260 O   0  0  0  0  0  0  0  0  0  0  0  0
    4.1520   -6.7110   25.8070 O   0  0  0  0  0  0  0  0  0  0  0  0
    1.3570    2.7960   24.8450 C   0  0  0  0  0  0  0  0  0  0  0  0
    3.7310   -4.0370   25.8440 C   0  0  0  0  0  0  0  0  0  0  0  0
    1.4720    4.1270   25.2210 C   0  0  0  0  0  0  0  0  0  0  0  0
    0.1620    2.1710   25.0190 C   0  0  0  0  0  0  0  0  0  0  0  0
    4.3160   -2.6380   26.1630 C   0  0  0  0  0  0  0  0  0  0  0  0
    2.3680   -4.1300   25.6270 C   0  0  0  0  0  0  0  0  0  0  0  0
    2.6370    4.7760   25.0730 F   0  0  0  0  0  0  0  0  0  0  0  0
    5.6280   -2.4650   26.3880 F   0  0  0  0  0  0  0  0  0  0  0  0
   -0.9870    2.7570   25.5400 C   0  0  0  0  0  0  0  0  0  0  0  0
    0.3870    4.8320   25.7630 C   0  0  0  0  0  0  0  0  0  0  0  0
    1.5460   -3.0170   25.6920 C   0  0  0  0  0  0  0  0  0  0  0  0
    3.4820   -1.5010   26.2310 C   0  0  0  0  0  0  0  0  0  0  0  0
   -0.8660    4.2490   25.9580 C   0  0  0  0  0  0  0  0  0  0  0  0
    2.1120   -1.6450   26.0080 C   0  0  0  0  0  0  0  0  0  0  0  0
  1  2  1  0
  2  3  2  0
  1  4  1  0
  1  5  1  0
  1  6  1  1
  2  7  1  0
  4  8  1  6
  5  9  1  0
  4 10  1  0
  6 11  2  0
  6 12  1  0
  7 13  1  0
  8 14  1  0
  8 15  2  0
 10 16  1  0
 10 17  2  0
 11 18  1  0
 12 19  2  0
 18 19  1  0
 20  9  1  0
 13 20  1  0
 19 21  1  0
 16 22  1  0
 17 23  1  0
 16 24  2  0
 14 25  1  0
 20 26  1  0
 20 27  1  0
 21 28  1  0
 21 29  1  0
 21 30  1  0
 22 31  1  0
 23 32  2  0
 24 32  1  0
 25 33  2  0
 25 34  1  0
 26 35  1  0
 27 36  1  0
 33 37  1  0
 34 38  1  0
 29 39  1  0
 31 40  1  0
 33 41  1  0
 34 42  2  0
 35 43  1  0
 36 43  1  0
 37 44  1  0
 40 45  1  0
 43 46  1  0
 41 47  2  0
 42 47  1  0
 45 48  2  0
 46 49  2  0
 46 50  2  0
 45 51  1  0
 46 52  1  0
 51 53  2  0
 51 54  1  0
 52 55  2  0
 52 56  1  0
 53 57  1  0
 55 58  1  0
 54 59  2  0
 53 60  1  0
 56 61  2  0
 55 62  1  0
 59 63  1  0
 60 63  2  0
 61 64  1  0
 62 64  2  0
M  END
