x0426-x1493-x2776-x2694
     RDKit          3D

 57 61  0  0  0  0  0  0  0  0999 V2000
    7.0580   -1.0230   21.6630 N   0  0  0  0  0  0  0  0  0  0  0  0
    6.7100    0.2850   21.6080 C   0  0  1  0  0  0  0  0  0  0  0  0
    7.8750    1.2560   21.7590 C   0  0  0  0  0  0  0  0  0  0  0  0
    5.9590   -1.9990   21.7470 C   0  0  0  0  0  0  0  0  0  0  0  0
    8.1740   -1.1880   22.5140 C   0  0  0  0  0  0  0  0  0  0  0  0
    6.0610    0.6430   20.3010 C   0  0  0  0  0  0  0  0  0  0  0  0
    9.4520   -1.5220   22.0190 C   0  0  0  0  0  0  0  0  0  0  0  0
    8.0480   -1.0060   23.8670 C   0  0  0  0  0  0  0  0  0  0  0  0
    6.0030   -3.0000   22.9010 C   0  0  0  0  0  0  0  0  0  0  0  0
    7.7960    2.1030   22.9400 N   0  0  0  0  0  0  0  0  0  0  0  0
    8.8000    1.3580   20.9640 O   0  0  0  0  0  0  0  0  0  0  0  0
    4.8040    1.1380   20.1470 C   0  0  0  0  0  0  0  0  0  0  0  0
    6.8210    0.4650   18.9930 C   0  0  0  0  0  0  0  0  0  0  0  0
   10.5880   -1.6730   22.8150 C   0  0  0  0  0  0  0  0  0  0  0  0
    9.1590   -1.1530   24.6490 C   0  0  0  0  0  0  0  0  0  0  0  0
    7.0830   -4.0980   22.7980 C   0  0  1  0  0  0  0  0  0  0  0  0
   11.9750   -2.0120   22.3550 C   0  0  0  0  0  0  0  0  0  0  0  0
    4.0360    1.2820   21.2530 C   0  0  0  0  0  0  0  0  0  0  0  0
    6.3860    0.7860   17.6500 N   0  0  0  0  0  0  0  0  0  0  0  0
    4.3950    1.4550   18.8510 C   0  0  0  0  0  0  0  0  0  0  0  0
    8.5480    3.3120   23.1500 C   0  0  0  0  0  0  0  0  0  0  0  0
   10.3450   -1.4700   24.1340 C   0  0  0  0  0  0  0  0  0  0  0  0
    7.0930   -4.7460   23.9820 C   0  0  0  0  0  0  0  0  0  0  0  0
    6.8250   -4.9930   21.6930 N   0  0  0  0  0  0  0  0  0  0  0  0
   12.8960   -2.0730   23.6180 C   0  0  2  0  0  0  0  0  0  0  0  0
    4.3460    2.2150   22.2560 C   0  0  0  0  0  0  0  0  0  0  0  0
    5.1650    1.2860   17.7120 C   0  0  0  0  0  0  0  0  0  0  0  0
    9.9850    3.2020   23.5860 C   0  0  0  0  0  0  0  0  0  0  0  0
    8.0460    4.5750   22.9790 C   0  0  0  0  0  0  0  0  0  0  0  0
    6.6550   -4.3490   20.4780 C   0  0  0  0  0  0  0  0  0  0  0  0
    5.8080   -5.3890   24.2740 N   0  0  0  0  0  0  0  0  0  0  0  0
    6.0850   -6.0960   21.9550 C   0  0  0  0  0  0  0  0  0  0  0  0
   12.6020   -2.7730   24.6060 O   0  0  0  0  0  0  0  0  0  0  0  0
   10.6730    1.8240   23.8110 C   0  0  0  0  0  0  0  0  0  0  0  0
   12.9920   -0.6250   24.1240 C   0  0  0  0  0  0  0  0  0  0  0  0
    3.3340    2.7210   23.0150 N   0  0  0  0  0  0  0  0  0  0  0  0
   10.8160    4.4770   23.8230 C   0  0  0  0  0  0  0  0  0  0  0  0
    8.7940    5.7220   23.1980 C   0  0  0  0  0  0  0  0  0  0  0  0
    5.5650   -5.7360   25.6570 C   0  0  0  0  0  0  0  0  0  0  0  0
    5.5920   -4.4310   19.8620 O   0  0  0  0  0  0  0  0  0  0  0  0
    7.8690   -3.5130   20.0440 C   0  0  0  0  0  0  0  0  0  0  0  0
    5.1030   -5.9300   23.0940 C   0  0  0  0  0  0  0  0  0  0  0  0
   13.6730   -2.9190   25.5050 C   0  0  0  0  0  0  0  0  0  0  0  0
    2.3500    1.8720   23.7080 C   0  0  0  0  0  0  0  0  0  0  0  0
   10.1350    5.7380   23.6120 C   0  0  0  0  0  0  0  0  0  0  0  0
    4.3670   -6.6850   25.9430 C   0  0  0  0  0  0  0  0  0  0  0  0
    6.3600   -5.2600   26.7370 O   0  0  0  0  0  0  0  0  0  0  0  0
   10.9030    6.8430   23.8500 O   0  0  0  0  0  0  0  0  0  0  0  0
    2.3630    0.5090   23.6850 O   0  0  0  0  0  0  0  0  0  0  0  0
    1.2780    2.6000   24.4710 C   0  0  0  0  0  0  0  0  0  0  0  0
   11.8150    6.7600   24.9440 C   0  0  0  0  0  0  0  0  0  0  0  0
    1.5410    3.7650   25.1680 C   0  0  0  0  0  0  0  0  0  0  0  0
   -0.0220    2.0920   24.4810 C   0  0  0  0  0  0  0  0  0  0  0  0
    2.7740    4.2960   25.1940 F   0  0  0  0  0  0  0  0  0  0  0  0
   -1.0380    2.7650   25.1920 C   0  0  0  0  0  0  0  0  0  0  0  0
    0.5380    4.4350   25.8730 C   0  0  0  0  0  0  0  0  0  0  0  0
   -0.7870    3.9610   25.9100 C   0  0  0  0  0  0  0  0  0  0  0  0
  1  2  1  0
  2  3  1  6
  1  4  1  0
  1  5  1  0
  2  6  1  0
  5  7  2  0
  5  8  1  0
  4  9  1  0
  3 10  1  0
  3 11  2  0
  6 12  1  0
  6 13  2  0
  7 14  1  0
  8 15  2  0
 16  9  1  1
 14 17  1  0
 12 18  1  0
 13 19  1  0
 12 20  2  0
 10 21  1  0
 14 22  2  0
 15 22  1  0
 16 23  1  0
 16 24  1  0
 17 25  1  0
 18 26  1  0
 19 27  2  0
 20 27  1  0
 21 28  2  0
 21 29  1  0
 24 30  1  0
 23 31  1  0
 24 32  1  0
 25 33  1  0
 28 34  1  0
 25 35  1  1
 26 36  1  0
 28 37  1  0
 29 38  2  0
 31 39  1  0
 30 40  2  0
 30 41  1  0
 31 42  1  0
 32 42  1  0
 33 43  1  0
 36 44  1  0
 37 45  2  0
 38 45  1  0
 39 46  1  0
 39 47  2  0
 45 48  1  0
 44 49  2  0
 44 50  1  0
 48 51  1  0
 50 52  2  0
 50 53  1  0
 52 54  1  0
 53 55  2  0
 52 56  1  0
 55 57  1  0
 56 57  2  0
M  END
