x0426-x1458-x2776-x3124
     RDKit          3D

 59 63  0  0  0  0  0  0  0  0999 V2000
    7.2110   -0.8860   21.8960 N   0  0  0  0  0  0  0  0  0  0  0  0
    6.8660    0.3960   21.6410 C   0  0  1  0  0  0  0  0  0  0  0  0
    7.9840    1.3780   21.7900 C   0  0  0  0  0  0  0  0  0  0  0  0
    6.3920   -2.0000   21.8340 C   0  0  0  0  0  0  0  0  0  0  0  0
    8.4190   -1.1190   22.5220 C   0  0  0  0  0  0  0  0  0  0  0  0
    6.1840    0.6910   20.2360 C   0  0  0  0  0  0  0  0  0  0  0  0
    9.4610   -1.6000   21.7880 C   0  0  0  0  0  0  0  0  0  0  0  0
    8.6280   -0.8840   23.9570 C   0  0  0  0  0  0  0  0  0  0  0  0
    7.1970   -3.2950   22.1760 C   0  0  2  0  0  0  0  0  0  0  0  0
    7.9320    2.1120   22.9510 N   0  0  0  0  0  0  0  0  0  0  0  0
    8.8660    1.5390   20.9640 O   0  0  0  0  0  0  0  0  0  0  0  0
    4.9830    1.3700   20.0940 C   0  0  0  0  0  0  0  0  0  0  0  0
    6.8240    0.2570   19.1320 C   0  0  0  0  0  0  0  0  0  0  0  0
   10.7100   -1.8950   22.2430 C   0  0  0  0  0  0  0  0  0  0  0  0
    9.9950   -1.1850   24.5660 C   0  0  0  0  0  0  0  0  0  0  0  0
    6.5740   -4.4510   21.5360 N   0  0  0  0  0  0  0  0  0  0  0  0
    7.3020   -3.5520   23.6490 C   0  0  0  0  0  0  0  0  0  0  0  0
    3.9980    1.9800   21.1090 C   0  0  0  0  0  0  0  0  0  0  0  0
    6.1520   -4.2090   20.2520 C   0  0  0  0  0  0  0  0  0  0  0  0
    6.4050    0.4440   17.9100 N   0  0  0  0  0  0  0  0  0  0  0  0
    4.5710    1.5540   18.8190 C   0  0  0  0  0  0  0  0  0  0  0  0
    8.6270    3.3240   23.1610 C   0  0  0  0  0  0  0  0  0  0  0  0
   11.0010   -1.6780   23.7150 C   0  0  0  0  0  0  0  0  0  0  0  0
    6.1370   -4.1080   24.0710 C   0  0  2  0  0  0  0  0  0  0  0  0
    6.3280   -5.6760   22.3290 C   0  0  0  0  0  0  0  0  0  0  0  0
   12.3450   -1.9810   24.2320 C   0  0  2  0  0  0  0  0  0  0  0  0
    4.1980    1.8130   22.4700 C   0  0  0  0  0  0  0  0  0  0  0  0
    5.1120   -4.6850   19.8740 O   0  0  0  0  0  0  0  0  0  0  0  0
    5.8230   -3.8420   25.5360 C   0  0  0  0  0  0  0  0  0  0  0  0
    7.0500   -3.3640   19.3340 C   0  0  0  0  0  0  0  0  0  0  0  0
    5.2510    1.1160   17.7270 C   0  0  0  0  0  0  0  0  0  0  0  0
    9.9660    3.2460   23.5910 C   0  0  0  0  0  0  0  0  0  0  0  0
    8.0130    4.5700   22.9520 C   0  0  0  0  0  0  0  0  0  0  0  0
    5.9380   -5.4050   23.6480 C   0  0  0  0  0  0  0  0  0  0  0  0
   12.2860   -2.6230   25.2690 O   0  0  0  0  0  0  0  0  0  0  0  0
   10.6290    1.9050   23.8070 C   0  0  0  0  0  0  0  0  0  0  0  0
   12.9320   -0.6240   24.4990 C   0  0  0  0  0  0  0  0  0  0  0  0
    3.3430    2.3560   23.3690 N   0  0  0  0  0  0  0  0  0  0  0  0
    6.8280   -3.7440   26.4460 N   0  0  0  0  0  0  0  0  0  0  0  0
    4.4550   -3.6280   25.8690 O   0  0  0  0  0  0  0  0  0  0  0  0
   10.7850    4.5310   23.8500 C   0  0  0  0  0  0  0  0  0  0  0  0
    8.7640    5.7270   23.1920 C   0  0  0  0  0  0  0  0  0  0  0  0
   13.5250   -3.1770   25.6230 C   0  0  0  0  0  0  0  0  0  0  0  0
    2.2810    1.6990   23.8520 C   0  0  0  0  0  0  0  0  0  0  0  0
    7.5010   -4.8300   26.9130 C   0  0  0  0  0  0  0  0  0  0  0  0
    6.6640   -2.7390   27.3130 C   0  0  0  0  0  0  0  0  0  0  0  0
   10.2010    5.7540   23.6640 C   0  0  0  0  0  0  0  0  0  0  0  0
   10.9790    6.8490   23.9220 O   0  0  0  0  0  0  0  0  0  0  0  0
    2.1440    0.4850   23.7640 O   0  0  0  0  0  0  0  0  0  0  0  0
    8.9490   -4.6750   27.2260 C   0  0  0  0  0  0  0  0  0  0  0  0
    6.8260   -5.6610   27.8130 C   0  0  0  0  0  0  0  0  0  0  0  0
    1.2310    2.5050   24.5380 C   0  0  0  0  0  0  0  0  0  0  0  0
   11.8090    6.7860   25.0810 C   0  0  0  0  0  0  0  0  0  0  0  0
    1.5100    3.8450   25.2480 C   0  0  0  0  0  0  0  0  0  0  0  0
   -0.0650    2.0320   24.5440 C   0  0  0  0  0  0  0  0  0  0  0  0
    2.7440    4.3690   25.2850 F   0  0  0  0  0  0  0  0  0  0  0  0
   -1.1550    2.8500   25.2480 C   0  0  0  0  0  0  0  0  0  0  0  0
    0.4810    4.5490   25.8730 C   0  0  0  0  0  0  0  0  0  0  0  0
   -0.8190    4.0630   25.8730 C   0  0  0  0  0  0  0  0  0  0  0  0
  1  2  1  0
  2  3  1  6
  1  4  1  0
  1  5  1  0
  2  6  1  0
  5  7  2  0
  5  8  1  0
  9  4  1  1
  3 10  1  0
  3 11  2  0
  6 12  1  0
  6 13  2  0
  7 14  1  0
  8 15  2  0
  9 16  1  0
  9 17  1  0
 12 18  1  0
 16 19  1  0
 13 20  1  0
 12 21  2  0
 10 22  1  0
 14 23  2  0
 15 23  1  0
 17 24  1  0
 16 25  1  0
 23 26  1  0
 18 27  1  0
 19 28  2  0
 24 29  1  1
 19 30  1  0
 20 31  2  0
 21 31  1  0
 22 32  2  0
 22 33  1  0
 24 34  1  0
 25 34  1  0
 26 35  1  0
 32 36  1  0
 26 37  1  1
 27 38  1  0
 29 39  1  0
 29 40  2  0
 32 41  1  0
 33 42  2  0
 35 43  1  0
 38 44  1  0
 39 45  1  0
 39 46  1  0
 41 47  2  0
 42 47  1  0
 47 48  1  0
 44 49  2  0
 45 50  1  0
 45 51  1  0
 44 52  1  0
 48 53  1  0
 52 54  2  0
 52 55  1  0
 54 56  1  0
 55 57  2  0
 54 58  1  0
 57 59  1  0
 58 59  2  0
M  END
