x0426-x2764
     RDKit          3D

 31 33  0  0  0  0  0  0  0  0999 V2000
    8.7420   -1.2870   21.2670 N   0  0  0  0  0  0  0  0  0  0  0  0
    7.4000   -1.3700   20.9830 C   0  0  0  0  0  0  0  0  0  0  0  0
    6.7400   -2.3240   21.3940 O   0  0  0  0  0  0  0  0  0  0  0  0
    9.1430   -2.0780   22.4380 C   0  0  0  0  0  0  0  0  0  0  0  0
   10.5490   -1.8400   22.8360 C   0  0  0  0  0  0  0  0  0  0  0  0
    6.6460   -0.3410   20.2150 C   0  0  0  0  0  0  0  0  0  0  0  0
   11.6750   -1.8040   22.0210 C   0  0  0  0  0  0  0  0  0  0  0  0
   11.0760   -1.5820   24.2460 C   0  0  0  0  0  0  0  0  0  0  0  0
    6.4940   -0.4950   18.8430 C   0  0  0  0  0  0  0  0  0  0  0  0
    6.0280    0.8280   20.9070 C   0  0  0  0  0  0  0  0  0  0  0  0
    6.1870    1.0290   22.2400 O   0  0  0  0  0  0  0  0  0  0  0  0
   12.9240   -1.5820   22.4550 N   0  0  0  0  0  0  0  0  0  0  0  0
   12.7680   -1.3770   24.1490 S   0  0  0  0  0  0  0  0  0  0  0  0
    5.7610    0.3930   18.0200 C   0  0  0  0  0  0  0  0  0  0  0  0
    5.2730    1.7270   20.2110 C   0  0  0  0  0  0  0  0  0  0  0  0
    7.5470    1.4820   22.5270 C   0  0  0  0  0  0  0  0  0  0  0  0
    4.6490    2.8080   21.0220 C   0  0  0  0  0  0  0  0  0  0  0  0
    5.1310    1.5520   18.8290 C   0  0  0  0  0  0  0  0  0  0  0  0
    7.6460    3.0110   22.5420 C   0  0  0  0  0  0  0  0  0  0  0  0
    3.6800    2.0230   21.6990 C   0  0  0  0  0  0  0  0  0  0  0  0
    7.7680    4.3810   22.5750 N   0  0  0  0  0  0  0  0  0  0  0  0
    3.2180    2.4900   22.9160 N   0  0  0  0  0  0  0  0  0  0  0  0
    2.3040    1.8040   23.7070 C   0  0  0  0  0  0  0  0  0  0  0  0
    2.2930    0.5660   23.7970 O   0  0  0  0  0  0  0  0  0  0  0  0
    1.2880    2.5900   24.4720 C   0  0  0  0  0  0  0  0  0  0  0  0
    1.5350    3.7760   25.1720 C   0  0  0  0  0  0  0  0  0  0  0  0
   -0.1590    2.1150   24.5370 C   0  0  0  0  0  0  0  0  0  0  0  0
    2.7700    4.3030   25.1970 F   0  0  0  0  0  0  0  0  0  0  0  0
   -1.1240    2.8340   25.2450 C   0  0  0  0  0  0  0  0  0  0  0  0
    0.5370    4.4670   25.8700 C   0  0  0  0  0  0  0  0  0  0  0  0
   -0.7810    4.0080   25.9110 C   0  0  0  0  0  0  0  0  0  0  0  0
  1  2  1  0
  2  3  2  0
  1  4  1  0
  4  5  1  0
  2  6  1  0
  5  7  1  0
  5  8  2  0
  6  9  2  0
  6 10  1  0
 10 11  1  0
  7 12  2  0
  8 13  1  0
 12 13  1  0
  9 14  1  0
 10 15  2  0
 11 16  1  0
 15 17  1  0
 14 18  2  0
 15 18  1  0
 16 19  1  0
 17 20  1  0
 19 21  3  0
 20 22  1  0
 22 23  1  0
 23 24  2  0
 23 25  1  0
 25 26  2  0
 25 27  1  0
 26 28  1  0
 27 29  2  0
 26 30  1  0
 29 31  1  0
 30 31  2  0
M  END
