x0426-x0820-x3110-x1382
     RDKit          3D

 59 63  0  0  0  0  0  0  0  0999 V2000
    7.9220    1.1460   23.2130 N   0  0  0  0  0  0  0  0  0  0  0  0
    8.7780    2.3510   23.4380 C   0  0  0  0  0  0  0  0  0  0  0  0
   10.1830    2.0430   23.4920 C   0  0  0  0  0  0  0  0  0  0  0  0
    7.8700    0.4130   21.9260 C   0  0  0  0  0  0  0  0  0  0  0  0
    8.7620    0.6250   21.1190 O   0  0  0  0  0  0  0  0  0  0  0  0
    6.7470   -0.4810   21.6510 C   0  0  2  0  0  0  0  0  0  0  0  0
    7.2400   -1.9490   21.7630 N   0  0  0  0  0  0  0  0  0  0  0  0
   11.0450    3.3210   23.4060 C   0  0  0  0  0  0  0  0  0  0  0  0
    6.2170    0.0520   20.3140 C   0  0  0  0  0  0  0  0  0  0  0  0
   11.9320    3.2280   22.5650 O   0  0  0  0  0  0  0  0  0  0  0  0
   10.8340    4.4730   24.2020 O   0  0  0  0  0  0  0  0  0  0  0  0
    6.4230   -3.1550   22.2930 C   0  0  1  0  0  0  0  0  0  0  0  0
    8.4960   -2.2420   21.3800 N   0  0  0  0  0  0  0  0  0  0  0  0
    4.9750    0.7490   20.2440 C   0  0  0  0  0  0  0  0  0  0  0  0
    6.9390   -0.1060   19.0960 C   0  0  0  0  0  0  0  0  0  0  0  0
   12.2100    4.4070   21.9550 C   0  0  0  0  0  0  0  0  0  0  0  0
    6.8610   -4.2380   21.4750 N   0  0  0  0  0  0  0  0  0  0  0  0
    4.0380    1.0030   21.4200 C   0  0  0  0  0  0  0  0  0  0  0  0
    6.4940    0.3930   17.9110 N   0  0  0  0  0  0  0  0  0  0  0  0
    4.4500    1.2860   19.0960 C   0  0  0  0  0  0  0  0  0  0  0  0
    9.2240   -1.9900   22.4210 C   0  0  0  0  0  0  0  0  0  0  0  0
    6.2080   -3.7730   23.7570 C   0  0  0  0  0  0  0  0  0  0  0  0
   13.4690    5.0500   22.5390 C   0  0  0  0  0  0  0  0  0  0  0  0
    6.3100   -4.1960   20.2290 C   0  0  0  0  0  0  0  0  0  0  0  0
    4.3840    1.9630   22.3770 C   0  0  0  0  0  0  0  0  0  0  0  0
    5.2290    1.1190   17.8710 C   0  0  0  0  0  0  0  0  0  0  0  0
   10.5970   -2.1050   22.6020 C   0  0  0  0  0  0  0  0  0  0  0  0
    8.3400   -1.5680   23.3670 C   0  0  0  0  0  0  0  0  0  0  0  0
    7.0070   -4.1690   24.9030 C   0  0  0  0  0  0  0  0  0  0  0  0
    4.8430   -3.9790   23.8240 C   0  0  0  0  0  0  0  0  0  0  0  0
    5.3000   -4.8210   19.9560 O   0  0  0  0  0  0  0  0  0  0  0  0
    7.1010   -3.3830   19.2300 C   0  0  0  0  0  0  0  0  0  0  0  0
    3.2990    2.5190   23.0560 N   0  0  0  0  0  0  0  0  0  0  0  0
   10.9580   -1.7460   23.8780 C   0  0  0  0  0  0  0  0  0  0  0  0
    8.6810   -1.2200   24.5420 C   0  0  0  0  0  0  0  0  0  0  0  0
    6.3190   -4.7400   26.0410 C   0  0  0  0  0  0  0  0  0  0  0  0
    4.2110   -4.5290   24.9370 C   0  0  0  0  0  0  0  0  0  0  0  0
    8.4200   -4.0790   25.0520 C   0  0  0  0  0  0  0  0  0  0  0  0
   12.3490   -1.7520   24.4270 C   0  0  0  0  0  0  0  0  0  0  0  0
    7.5760   -0.7590   25.4420 C   0  0  0  0  0  0  0  0  0  0  0  0
    2.2970    1.8890   23.7290 C   0  0  0  0  0  0  0  0  0  0  0  0
   10.0090   -1.3310   24.7590 C   0  0  0  0  0  0  0  0  0  0  0  0
    4.9450   -4.8960   26.0240 C   0  0  0  0  0  0  0  0  0  0  0  0
    6.9180   -5.1910   27.2170 C   0  0  0  0  0  0  0  0  0  0  0  0
    9.1690   -4.5550   26.3070 C   0  0  0  0  0  0  0  0  0  0  0  0
   12.5760   -0.5310   25.2520 C   0  0  0  0  0  0  0  0  0  0  0  0
   13.4430   -1.7860   23.4560 C   0  0  0  0  0  0  0  0  0  0  0  0
   12.6690   -2.9970   25.2440 C   0  0  0  0  0  0  0  0  0  0  0  0
    2.2240    0.5300   23.7280 O   0  0  0  0  0  0  0  0  0  0  0  0
    8.2790   -5.1380   27.4010 C   0  0  0  0  0  0  0  0  0  0  0  0
    1.2610    2.6290   24.4750 C   0  0  0  0  0  0  0  0  0  0  0  0
    1.5830    3.8090   25.1650 C   0  0  0  0  0  0  0  0  0  0  0  0
   -0.0490    2.1110   24.4690 C   0  0  0  0  0  0  0  0  0  0  0  0
   13.2000   -2.7430   22.3710 C   0  0  0  0  0  0  0  0  0  0  0  0
    2.8400    4.2830   25.1570 F   0  0  0  0  0  0  0  0  0  0  0  0
   -1.2120    2.7730   25.1980 C   0  0  0  0  0  0  0  0  0  0  0  0
    0.6110    4.5190   25.8750 C   0  0  0  0  0  0  0  0  0  0  0  0
   13.3300   -1.8020   20.9170 Cl  0  0  0  0  0  0  0  0  0  0  0  0
   -0.8380    4.0640   25.9460 C   0  0  0  0  0  0  0  0  0  0  0  0
  1  2  1  0
  2  3  1  0
  1  4  1  0
  4  5  2  0
  6  4  1  6
  6  7  1  0
  3  8  1  0
  6  9  1  0
  8 10  1  0
  8 11  2  0
  7 12  1  0
  7 13  1  0
  9 14  1  0
  9 15  2  0
 10 16  1  0
 12 17  1  6
 14 18  1  0
 15 19  1  0
 14 20  2  0
 13 21  1  0
 12 22  1  0
 16 23  1  0
 17 24  1  0
 18 25  1  0
 19 26  2  0
 20 26  1  0
 21 27  2  0
 21 28  1  0
 22 29  1  0
 22 30  2  0
 24 31  2  0
 24 32  1  0
 25 33  1  0
 27 34  1  0
 28 35  2  0
 29 36  2  0
 30 37  1  0
 29 38  1  0
 34 39  1  0
 35 40  1  0
 33 41  1  0
 34 42  2  0
 35 42  1  0
 36 43  1  0
 37 43  2  0
 36 44  1  0
 38 45  2  0
 39 46  1  0
 39 47  1  0
 39 48  1  0
 41 49  2  0
 44 50  2  0
 45 50  1  0
 41 51  1  0
 51 52  2  0
 51 53  1  0
 47 54  1  0
 52 55  1  0
 53 56  2  0
 52 57  1  0
 54 58  1  0
 56 59  1  0
 57 59  2  0
M  END
