x0426-x1375-x1119-x2694
     RDKit          3D

 85 92  0  0  0  0  0  0  0  0999 V2000
    7.6370   -0.8680   21.7120 N   0  0  0  0  0  0  0  0  0  0  0  0
    6.9050    0.2930   21.6650 C   0  0  1  0  0  0  0  0  0  0  0  0
    7.8700    1.4990   21.8420 C   0  0  0  0  0  0  0  0  0  0  0  0
    8.7590   -0.8950   22.5660 C   0  0  0  0  0  0  0  0  0  0  0  0
    6.2170    0.5810   20.3350 C   0  0  0  0  0  0  0  0  0  0  0  0
    8.8150   -0.8230   23.9050 N   0  0  0  0  0  0  0  0  0  0  0  0
   10.0380   -0.9920   22.0920 C   0  0  0  0  0  0  0  0  0  0  0  0
    7.6120    2.4440   22.8750 N   0  0  0  0  0  0  0  0  0  0  0  0
    8.7910    1.5170   21.0330 O   0  0  0  0  0  0  0  0  0  0  0  0
    4.9860    1.2750   20.1660 C   0  0  0  0  0  0  0  0  0  0  0  0
    6.8770    0.1200   19.1900 C   0  0  0  0  0  0  0  0  0  0  0  0
   10.1870   -0.8720   24.2480 O   0  0  0  0  0  0  0  0  0  0  0  0
   10.9480   -0.9720   23.1120 C   0  0  0  0  0  0  0  0  0  0  0  0
   12.4310   -1.0180   23.1940 C   0  0  0  0  0  0  0  0  0  0  0  0
    4.0330    1.8760   21.1480 C   0  0  0  0  0  0  0  0  0  0  0  0
    6.3480    0.3550   17.8590 N   0  0  0  0  0  0  0  0  0  0  0  0
    4.5780    1.4410   18.8730 C   0  0  0  0  0  0  0  0  0  0  0  0
    8.4660    3.6120   23.0750 C   0  0  0  0  0  0  0  0  0  0  0  0
   12.8390    0.2950   23.2410 C   0  0  0  0  0  0  0  0  0  0  0  0
   13.0010   -1.6910   21.9880 C   0  0  0  0  0  0  0  0  0  0  0  0
   12.9450   -1.7170   24.4430 C   0  0  0  0  0  0  0  0  0  0  0  0
    4.3380    1.6510   22.4930 C   0  0  0  0  0  0  0  0  0  0  0  0
    5.2570    0.9920   17.8050 C   0  0  0  0  0  0  0  0  0  0  0  0
    9.7070    3.4250   23.6780 C   0  0  0  0  0  0  0  0  0  0  0  0
    8.1030    4.9020   22.6920 C   0  0  0  0  0  0  0  0  0  0  0  0
   10.1890    2.0670   24.1230 C   0  0  0  0  0  0  0  0  0  0  0  0
    3.5580    2.3110   23.3950 N   0  0  0  0  0  0  0  0  0  0  0  0
   12.5050   -3.1200   24.5840 C   0  0  0  0  0  0  0  0  0  0  0  0
   10.5460    4.5250   23.8820 C   0  0  0  0  0  0  0  0  0  0  0  0
    8.9130    6.0160   22.8830 C   0  0  0  0  0  0  0  0  0  0  0  0
    2.3290    1.6600   23.9270 C   0  0  0  0  0  0  0  0  0  0  0  0
   11.8270   -3.5620   25.6950 C   0  0  0  0  0  0  0  0  0  0  0  0
   10.1610    5.8140   23.4940 C   0  0  0  0  0  0  0  0  0  0  0  0
   11.0700    6.7750   23.7580 O   0  0  0  0  0  0  0  0  0  0  0  0
    2.1530    0.4450   23.8400 O   0  0  0  0  0  0  0  0  0  0  0  0
   10.9590   -4.6860   25.6050 O   0  0  0  0  0  0  0  0  0  0  0  0
    1.3060    2.5300   24.5920 C   0  0  0  0  0  0  0  0  0  0  0  0
   12.4400    6.4510   23.8710 C   0  0  0  0  0  0  0  0  0  0  0  0
    1.6390    3.7480   25.1830 C   0  0  0  0  0  0  0  0  0  0  0  0
   -0.1380    2.0360   24.6100 C   0  0  0  0  0  0  0  0  0  0  0  0
    9.8410   -4.5410   24.8590 C   0  0  0  0  0  0  0  0  0  0  0  0
    2.8670    4.2830   25.2310 F   0  0  0  0  0  0  0  0  0  0  0  0
   13.1160    5.8130   22.6920 C   0  0  0  0  0  0  0  0  0  0  0  0
   -1.1030    2.7690   25.1960 C   0  0  0  0  0  0  0  0  0  0  0  0
    0.4250    4.4500   25.8020 C   0  0  0  0  0  0  0  0  0  0  0  0
    9.1590   -3.3610   24.6400 C   0  0  0  0  0  0  0  0  0  0  0  0
    9.3740   -5.7110   24.2770 C   0  0  0  0  0  0  0  0  0  0  0  0
   14.0280    4.7540   22.9350 C   0  0  0  0  0  0  0  0  0  0  0  0
   -0.8470    4.0080   25.8160 C   0  0  0  0  0  0  0  0  0  0  0  0
    7.9270   -3.3770   23.7680 C   0  0  0  0  0  0  0  0  0  0  0  0
    8.1500   -5.6890   23.4100 C   0  0  0  0  0  0  0  0  0  0  0  0
   15.2950    4.5240   22.0730 C   0  0  0  0  0  0  0  0  0  0  0  0
    7.4380   -4.5200   23.1630 C   0  0  0  0  0  0  0  0  0  0  0  0
    6.2710   -4.5230   22.3530 N   0  0  0  0  0  0  0  0  0  0  0  0
   16.7440    4.2180   22.6030 C   0  0  0  0  0  0  0  0  0  0  0  0
    6.5580   -4.4830   20.9400 C   0  0  0  0  0  0  0  0  0  0  0  0
   17.3870    4.9680   23.5380 C   0  0  0  0  0  0  0  0  0  0  0  0
    5.3780   -5.4000   23.1590 C   0  0  1  0  0  0  0  0  0  0  0  0
    5.7140   -4.7380   20.0410 O   0  0  0  0  0  0  0  0  0  0  0  0
    8.0560   -4.0430   20.7390 C   0  0  0  0  0  0  0  0  0  0  0  0
   18.9250    5.4510   23.3670 C   0  0  0  0  0  0  0  0  0  0  0  0
    5.1260   -4.8450   24.4030 C   0  0  0  0  0  0  0  0  0  0  0  0
    4.2990   -6.0160   22.6090 C   0  0  0  0  0  0  0  0  0  0  0  0
   19.3080    6.8540   23.5250 C   0  0  0  0  0  0  0  0  0  0  0  0
    3.7020   -6.7140   24.1270 S   0  0  0  0  0  0  0  0  0  0  0  0
    4.1960   -5.4640   25.1230 C   0  0  0  0  0  0  0  0  0  0  0  0
    2.2710   -6.8230   24.0320 O   0  0  0  0  0  0  0  0  0  0  0  0
    4.3890   -7.9530   24.3370 O   0  0  0  0  0  0  0  0  0  0  0  0
   20.6070    7.1220   23.1430 N   0  0  0  0  0  0  0  0  0  0  0  0
   21.4470    6.1640   23.5950 C   0  0  0  0  0  0  0  0  0  0  0  0
   22.4460    5.6740   22.8250 C   0  0  0  0  0  0  0  0  0  0  0  0
   21.2440    5.6750   24.8750 C   0  0  0  0  0  0  0  0  0  0  0  0
   23.2580    4.6500   23.3300 C   0  0  0  0  0  0  0  0  0  0  0  0
   22.0240    4.6660   25.3880 C   0  0  0  0  0  0  0  0  0  0  0  0
   23.0200    4.1510   24.6080 C   0  0  0  0  0  0  0  0  0  0  0  0
   23.9560    2.8310   25.2850 S   0  0  0  0  0  0  0  0  0  0  0  0
   23.0680    1.7240   25.2480 O   0  0  0  0  0  0  0  0  0  0  0  0
   24.2030    3.3020   26.8770 N   0  0  0  0  0  0  0  0  0  0  0  0
   25.2220    2.7810   24.5980 O   0  0  0  0  0  0  0  0  0  0  0  0
   25.0120    4.3750   27.2140 C   0  0  0  0  0  0  0  0  0  0  0  0
   25.0140    4.5920   28.5450 N   0  0  0  0  0  0  0  0  0  0  0  0
   25.8000    5.2000   26.2200 C   0  0  0  0  0  0  0  0  0  0  0  0
   25.8300    5.7020   29.0790 C   0  0  0  0  0  0  0  0  0  0  0  0
   26.6410    6.3400   26.7570 C   0  0  0  0  0  0  0  0  0  0  0  0
   26.6540    6.5780   28.1190 C   0  0  0  0  0  0  0  0  0  0  0  0
  2  1  1  6
  2  3  1  0
  1  4  1  0
  2  5  1  0
  4  6  2  0
  4  7  1  0
  3  8  1  0
  3  9  2  0
  5 10  1  0
  5 11  2  0
  6 12  1  0
  7 13  2  0
 12 13  1  0
 13 14  1  0
 10 15  1  0
 11 16  1  0
 10 17  2  0
  8 18  1  0
 14 19  1  0
 14 20  1  0
 14 21  1  0
 15 22  1  0
 16 23  2  0
 17 23  1  0
 18 24  2  0
 18 25  1  0
 24 26  1  0
 22 27  1  0
 21 28  1  0
 24 29  1  0
 25 30  2  0
 27 31  1  0
 28 32  1  0
 29 33  2  0
 30 33  1  0
 33 34  1  0
 31 35  2  0
 32 36  1  0
 31 37  1  0
 34 38  1  0
 37 39  2  0
 37 40  1  0
 36 41  1  0
 39 42  1  0
 38 43  1  0
 40 44  2  0
 39 45  1  0
 41 46  2  0
 41 47  1  0
 43 48  1  0
 44 49  1  0
 45 49  2  0
 46 50  1  0
 47 51  2  0
 48 52  1  0
 50 53  2  0
 51 53  1  0
 53 54  1  0
 52 55  1  0
 54 56  1  0
 55 57  1  0
 58 54  1  6
 56 59  2  0
 56 60  1  0
 57 61  1  0
 58 62  1  0
 58 63  1  0
 61 64  1  0
 63 65  1  0
 62 66  2  0
 65 66  1  0
 65 67  1  0
 65 68  1  0
 64 69  1  0
 69 70  1  0
 70 71  2  0
 70 72  1  0
 71 73  1  0
 72 74  2  0
 73 75  2  0
 74 75  1  0
 75 76  1  0
 76 77  2  0
 76 78  1  0
 76 79  2  0
 78 80  1  0
 80 81  2  0
 80 82  1  0
 81 83  1  0
 82 84  2  0
 83 85  2  0
 84 85  1  0
M  END
