x0426-x1418
     RDKit          3D

 35 39  0  0  0  0  0  0  0  0999 V2000
    2.2430    1.4840   24.0030 C   0  0  0  0  0  0  0  0  0  0  0  0
    3.4340    1.8610   23.4110 N   0  0  0  0  0  0  0  0  0  0  0  0
    3.9940    1.0120   22.3450 C   0  0  1  0  0  0  0  0  0  0  0  0
    1.9330    0.3070   24.0540 O   0  0  0  0  0  0  0  0  0  0  0  0
    1.2890    2.4720   24.6100 C   0  0  0  0  0  0  0  0  0  0  0  0
    1.6670    3.7190   25.1450 C   0  0  0  0  0  0  0  0  0  0  0  0
   -0.0560    2.0680   24.6270 C   0  0  0  0  0  0  0  0  0  0  0  0
    4.0080    1.8490   21.0700 C   0  0  0  0  0  0  0  0  0  0  0  0
    2.9380    4.1430   25.1500 F   0  0  0  0  0  0  0  0  0  0  0  0
    5.3580    0.3500   22.7290 C   0  0  0  0  0  0  0  0  0  0  0  0
   -1.1430    2.8060   25.1490 C   0  0  0  0  0  0  0  0  0  0  0  0
    0.6980    4.5440   25.6910 C   0  0  0  0  0  0  0  0  0  0  0  0
    6.3970    0.0020   21.6110 C   0  0  2  0  0  0  0  0  0  0  0  0
   -0.6380    4.1540   25.7150 C   0  0  0  0  0  0  0  0  0  0  0  0
    4.9080    1.3350   20.0070 C   0  0  0  0  0  0  0  0  0  0  0  0
    5.9990    0.4860   20.2320 C   0  0  0  0  0  0  0  0  0  0  0  0
    4.6830    1.7120   18.7060 C   0  0  0  0  0  0  0  0  0  0  0  0
    6.9770   -1.4930   21.7720 C   0  0  1  0  0  0  0  0  0  0  0  0
    6.7560    0.0910   19.1270 C   0  0  0  0  0  0  0  0  0  0  0  0
    5.4680    1.2880   17.6990 C   0  0  0  0  0  0  0  0  0  0  0  0
    6.3880   -2.6360   21.2760 N   0  0  0  0  0  0  0  0  0  0  0  0
    8.3610   -1.5370   21.7170 C   0  0  0  0  0  0  0  0  0  0  0  0
    6.3430   -3.1710   19.9470 C   0  0  0  0  0  0  0  0  0  0  0  0
    6.5140    0.4740   17.8530 N   0  0  0  0  0  0  0  0  0  0  0  0
    6.6010   -3.6610   22.3130 C   0  0  0  0  0  0  0  0  0  0  0  0
    8.7850   -2.4560   22.7820 N   0  0  0  0  0  0  0  0  0  0  0  0
    7.4590   -2.9440   18.9120 C   0  0  0  0  0  0  0  0  0  0  0  0
    5.3840   -3.9030   19.6360 O   0  0  0  0  0  0  0  0  0  0  0  0
   10.1720   -2.7790   23.1470 C   0  0  0  0  0  0  0  0  0  0  0  0
    7.9410   -3.6780   22.7690 C   0  0  0  0  0  0  0  0  0  0  0  0
   11.1080   -1.6000   23.1030 C   0  0  0  0  0  0  0  0  0  0  0  0
   12.4680   -1.5630   22.7890 C   0  0  0  0  0  0  0  0  0  0  0  0
   10.5320   -0.0310   23.4650 S   0  0  0  0  0  0  0  0  0  0  0  0
   12.0530    0.6550   23.2110 C   0  0  0  0  0  0  0  0  0  0  0  0
   13.0120   -0.2490   22.8530 C   0  0  0  0  0  0  0  0  0  0  0  0
  1  2  1  0
  3  2  1  1
  1  4  2  0
  1  5  1  0
  5  6  2  0
  5  7  1  0
  3  8  1  0
  6  9  1  0
  3 10  1  0
  7 11  2  0
  6 12  1  0
 13 10  1  1
 11 14  1  0
 12 14  2  0
  8 15  1  0
 13 16  1  0
 15 16  2  0
 15 17  1  0
 13 18  1  0
 16 19  1  0
 17 20  2  0
 18 21  1  0
 18 22  1  6
 21 23  1  0
 19 24  2  0
 20 24  1  0
 21 25  1  0
 22 26  1  0
 23 27  1  0
 23 28  2  0
 26 29  1  0
 25 30  1  0
 26 30  1  0
 29 31  1  0
 31 32  2  0
 31 33  1  0
 33 34  1  0
 32 35  1  0
 34 35  2  0
M  END
