x0426-x1458-x2776-x2703
     RDKit          3D

 61 65  0  0  0  0  0  0  0  0999 V2000
    7.2090   -0.9450   21.9000 N   0  0  0  0  0  0  0  0  0  0  0  0
    6.8120    0.3340   21.6690 C   0  0  1  0  0  0  0  0  0  0  0  0
    7.9150    1.3430   21.8000 C   0  0  0  0  0  0  0  0  0  0  0  0
    6.2530   -2.0570   21.9990 C   0  0  0  0  0  0  0  0  0  0  0  0
    8.4190   -1.1850   22.5090 C   0  0  0  0  0  0  0  0  0  0  0  0
    6.1110    0.6460   20.2860 C   0  0  0  0  0  0  0  0  0  0  0  0
    9.5150   -1.3320   21.6850 C   0  0  0  0  0  0  0  0  0  0  0  0
    8.5890   -1.3060   24.0290 C   0  0  0  0  0  0  0  0  0  0  0  0
    7.0590   -3.3590   22.2910 C   0  0  2  0  0  0  0  0  0  0  0  0
    7.7520    2.1680   22.8810 N   0  0  0  0  0  0  0  0  0  0  0  0
    8.8610    1.4440   21.0270 O   0  0  0  0  0  0  0  0  0  0  0  0
    4.9250    1.3640   20.1750 C   0  0  0  0  0  0  0  0  0  0  0  0
    6.9580    0.0540   19.1570 C   0  0  0  0  0  0  0  0  0  0  0  0
   10.9380   -1.6210   22.1720 C   0  0  0  0  0  0  0  0  0  0  0  0
    9.9570   -1.5870   24.5570 C   0  0  0  0  0  0  0  0  0  0  0  0
    6.4950   -4.4560   21.5410 N   0  0  0  0  0  0  0  0  0  0  0  0
    7.3360   -3.6530   23.6120 C   0  0  0  0  0  0  0  0  0  0  0  0
    3.9640    1.9960   21.1540 C   0  0  0  0  0  0  0  0  0  0  0  0
    6.0990   -4.2210   20.2620 C   0  0  0  0  0  0  0  0  0  0  0  0
    6.4390    0.3160   17.8120 N   0  0  0  0  0  0  0  0  0  0  0  0
    4.5580    1.5340   18.8450 C   0  0  0  0  0  0  0  0  0  0  0  0
    8.4880    3.3360   23.0560 C   0  0  0  0  0  0  0  0  0  0  0  0
   11.1090   -1.7410   23.6680 C   0  0  0  0  0  0  0  0  0  0  0  0
    6.6670   -4.6680   24.2670 C   0  0  1  0  0  0  0  0  0  0  0  0
    6.1470   -5.6910   22.2300 C   0  0  0  0  0  0  0  0  0  0  0  0
   12.4480   -1.9980   24.2050 C   0  0  2  0  0  0  0  0  0  0  0  0
    4.2520    1.7990   22.5820 C   0  0  0  0  0  0  0  0  0  0  0  0
    5.0810   -4.7090   19.8650 O   0  0  0  0  0  0  0  0  0  0  0  0
    5.9760   -4.0040   25.4600 C   0  0  0  0  0  0  0  0  0  0  0  0
    6.9950   -3.3520   19.3810 C   0  0  0  0  0  0  0  0  0  0  0  0
    5.2180    1.0820   17.7330 C   0  0  0  0  0  0  0  0  0  0  0  0
    9.7400    3.2310   23.6330 C   0  0  0  0  0  0  0  0  0  0  0  0
    7.9870    4.7370   22.6490 C   0  0  0  0  0  0  0  0  0  0  0  0
    5.7500   -5.4130   23.5390 C   0  0  0  0  0  0  0  0  0  0  0  0
   12.3220   -2.6010   25.2570 O   0  0  0  0  0  0  0  0  0  0  0  0
   10.2460    1.8770   24.0260 C   0  0  0  0  0  0  0  0  0  0  0  0
   12.9350   -0.6040   24.4850 C   0  0  0  0  0  0  0  0  0  0  0  0
    6.6980    4.9160   22.0270 C   0  0  0  0  0  0  0  0  0  0  0  0
    3.3880    2.4500   23.6280 N   0  0  0  0  0  0  0  0  0  0  0  0
    6.8380   -3.6270   26.5920 N   0  0  0  0  0  0  0  0  0  0  0  0
    4.7600   -3.7560   25.4640 O   0  0  0  0  0  0  0  0  0  0  0  0
   10.5360    4.3430   23.8610 C   0  0  0  0  0  0  0  0  0  0  0  0
    8.8660    5.8050   22.9300 C   0  0  0  0  0  0  0  0  0  0  0  0
   13.5150   -3.2050   25.6770 C   0  0  0  0  0  0  0  0  0  0  0  0
    9.3520    1.2840   25.0180 C   0  0  0  0  0  0  0  0  0  0  0  0
    2.2720    1.7990   23.9870 C   0  0  0  0  0  0  0  0  0  0  0  0
    7.4930   -4.4930   27.4140 C   0  0  0  0  0  0  0  0  0  0  0  0
    6.4720   -2.3150   27.1160 C   0  0  0  0  0  0  0  0  0  0  0  0
   10.1220    5.6210   23.5320 C   0  0  0  0  0  0  0  0  0  0  0  0
   10.8580    6.7540   23.7540 O   0  0  0  0  0  0  0  0  0  0  0  0
    2.0910    0.4560   23.7910 O   0  0  0  0  0  0  0  0  0  0  0  0
    8.8410   -4.6150   27.0530 C   0  0  0  0  0  0  0  0  0  0  0  0
    6.8840   -5.7040   27.7500 C   0  0  0  0  0  0  0  0  0  0  0  0
    1.2020    2.5930   24.6420 C   0  0  0  0  0  0  0  0  0  0  0  0
   11.8270    6.6620   24.8020 C   0  0  0  0  0  0  0  0  0  0  0  0
    1.4580    3.8100   25.2690 C   0  0  0  0  0  0  0  0  0  0  0  0
   -0.1020    2.0930   24.6220 C   0  0  0  0  0  0  0  0  0  0  0  0
    2.7040    4.3150   25.3010 F   0  0  0  0  0  0  0  0  0  0  0  0
   -1.1400    2.7940   25.2200 C   0  0  0  0  0  0  0  0  0  0  0  0
    0.4460    4.5650   25.8910 C   0  0  0  0  0  0  0  0  0  0  0  0
   -0.8820    4.0020   25.8430 C   0  0  0  0  0  0  0  0  0  0  0  0
  1  2  1  0
  2  3  1  6
  1  4  1  0
  1  5  1  0
  2  6  1  0
  5  7  2  0
  5  8  1  0
  9  4  1  1
  3 10  1  0
  3 11  2  0
  6 12  1  0
  6 13  2  0
  7 14  1  0
  8 15  2  0
  9 16  1  0
  9 17  1  0
 12 18  1  0
 16 19  1  0
 13 20  1  0
 12 21  2  0
 10 22  1  0
 14 23  2  0
 15 23  1  0
 17 24  1  0
 16 25  1  0
 23 26  1  0
 18 27  1  0
 19 28  2  0
 24 29  1  1
 19 30  1  0
 20 31  2  0
 21 31  1  0
 22 32  2  0
 22 33  1  0
 24 34  1  0
 25 34  1  0
 26 35  1  0
 32 36  1  0
 26 37  1  1
 33 38  1  0
 27 39  1  0
 29 40  1  0
 29 41  2  0
 32 42  1  0
 33 43  2  0
 35 44  1  0
 36 45  1  0
 39 46  1  0
 40 47  1  0
 40 48  1  0
 42 49  2  0
 43 49  1  0
 49 50  1  0
 46 51  2  0
 47 52  1  0
 47 53  1  0
 46 54  1  0
 50 55  1  0
 54 56  2  0
 54 57  1  0
 56 58  1  0
 57 59  2  0
 56 60  1  0
 59 61  1  0
 60 61  2  0
M  END
