x0426-x1348-x3117-x3124
     RDKit          3D

 55 60  0  0  0  0  0  0  0  0999 V2000
    7.2760   -1.1480   22.2120 N   0  0  0  0  0  0  0  0  0  0  0  0
    6.8930    0.1570   21.8570 C   0  0  1  0  0  0  0  0  0  0  0  0
    7.9870    1.2230   21.9760 C   0  0  0  0  0  0  0  0  0  0  0  0
    7.4730   -2.2120   21.2480 C   0  0  0  0  0  0  0  0  0  0  0  0
    8.5650   -1.3060   22.7760 C   0  0  0  0  0  0  0  0  0  0  0  0
    6.5560   -3.1820   21.1840 N   0  0  0  0  0  0  0  0  0  0  0  0
    6.2040    0.3950   20.4940 C   0  0  0  0  0  0  0  0  0  0  0  0
    9.6860   -1.2830   21.9410 C   0  0  0  0  0  0  0  0  0  0  0  0
    8.7520   -1.5060   24.1120 C   0  0  0  0  0  0  0  0  0  0  0  0
    7.9710    1.8210   23.2390 N   0  0  0  0  0  0  0  0  0  0  0  0
    8.7520    1.5030   21.0530 O   0  0  0  0  0  0  0  0  0  0  0  0
    6.2450   -3.6020   19.9300 C   0  0  0  0  0  0  0  0  0  0  0  0
    4.9110    0.9040   20.4170 C   0  0  0  0  0  0  0  0  0  0  0  0
    6.9450    0.0900   19.2010 C   0  0  0  0  0  0  0  0  0  0  0  0
   10.9460   -1.4700   22.4400 C   0  0  0  0  0  0  0  0  0  0  0  0
    9.9960   -1.6950   24.6630 C   0  0  0  0  0  0  0  0  0  0  0  0
    6.2220   -4.0480   22.3360 C   0  0  0  0  0  0  0  0  0  0  0  0
    3.9460    1.2570   21.5270 C   0  0  0  0  0  0  0  0  0  0  0  0
    5.2660   -4.3060   19.7350 O   0  0  0  0  0  0  0  0  0  0  0  0
    7.2110   -3.1590   18.8250 C   0  0  0  0  0  0  0  0  0  0  0  0
    6.3290    0.3610   17.9130 N   0  0  0  0  0  0  0  0  0  0  0  0
    4.4160    1.1290   19.0140 C   0  0  0  0  0  0  0  0  0  0  0  0
    8.5570    3.0770   23.5880 C   0  0  0  0  0  0  0  0  0  0  0  0
   11.0960   -1.6790   23.8010 C   0  0  0  0  0  0  0  0  0  0  0  0
    6.8790   -4.0100   23.6740 N   0  0  0  0  0  0  0  0  0  0  0  0
    4.9030   -5.2350   22.1520 S   0  0  0  0  0  0  0  0  0  0  0  0
   12.4230   -1.8940   24.4160 C   0  0  0  0  0  0  0  0  0  0  0  0
    4.3980    2.1820   22.4560 C   0  0  0  0  0  0  0  0  0  0  0  0
    5.0970    0.8760   17.8560 C   0  0  0  0  0  0  0  0  0  0  0  0
    9.9420    2.9100   23.6520 C   0  0  0  0  0  0  0  0  0  0  0  0
    8.2610    4.1270   22.6990 C   0  0  0  0  0  0  0  0  0  0  0  0
    6.2610   -4.9160   24.5460 C   0  0  0  0  0  0  0  0  0  0  0  0
    5.1380   -5.6550   23.8260 C   0  0  0  0  0  0  0  0  0  0  0  0
   12.7460   -0.6690   25.1910 C   0  0  0  0  0  0  0  0  0  0  0  0
   13.4300   -2.2250   23.3220 C   0  0  0  0  0  0  0  0  0  0  0  0
   12.2640   -3.1270   25.3220 C   0  0  0  0  0  0  0  0  0  0  0  0
    3.3150    2.7030   23.2620 N   0  0  0  0  0  0  0  0  0  0  0  0
   10.5930    4.1540   23.6180 C   0  0  0  0  0  0  0  0  0  0  0  0
    8.8100    5.3500   23.1270 C   0  0  0  0  0  0  0  0  0  0  0  0
    6.5000   -5.2030   25.8580 C   0  0  0  0  0  0  0  0  0  0  0  0
    4.3310   -6.6700   24.6240 C   0  0  0  0  0  0  0  0  0  0  0  0
    2.2610    1.8640   23.8270 C   0  0  0  0  0  0  0  0  0  0  0  0
    7.5310   -4.5160   26.4600 O   0  0  0  0  0  0  0  0  0  0  0  0
    9.8550    5.0510   24.0430 O   0  0  0  0  0  0  0  0  0  0  0  0
    4.6490   -6.8730   25.9560 C   0  0  0  0  0  0  0  0  0  0  0  0
    5.7060   -6.1570   26.5380 C   0  0  0  0  0  0  0  0  0  0  0  0
    2.2270    0.6350   23.7230 O   0  0  0  0  0  0  0  0  0  0  0  0
    7.9950   -5.0310   27.7060 C   0  0  0  0  0  0  0  0  0  0  0  0
    1.1800    2.6050   24.5710 C   0  0  0  0  0  0  0  0  0  0  0  0
    1.4670    3.8050   25.2550 C   0  0  0  0  0  0  0  0  0  0  0  0
   -0.1200    2.1180   24.5920 C   0  0  0  0  0  0  0  0  0  0  0  0
    2.7030    4.3350   25.2780 F   0  0  0  0  0  0  0  0  0  0  0  0
   -1.1360    2.7830   25.2670 C   0  0  0  0  0  0  0  0  0  0  0  0
    0.4030    4.4700   25.9400 C   0  0  0  0  0  0  0  0  0  0  0  0
   -0.9100    3.9680   25.9540 C   0  0  0  0  0  0  0  0  0  0  0  0
  1  2  1  0
  2  3  1  6
  1  4  1  0
  1  5  1  0
  4  6  1  0
  2  7  1  0
  5  8  2  0
  5  9  1  0
  3 10  1  0
  3 11  2  0
  6 12  1  0
  7 13  1  0
  7 14  2  0
  8 15  1  0
  9 16  2  0
  6 17  1  0
 13 18  1  0
 12 19  2  0
 12 20  1  0
 14 21  1  0
 13 22  2  0
 10 23  1  0
 15 24  2  0
 16 24  1  0
 17 25  2  0
 17 26  1  0
 24 27  1  0
 18 28  1  0
 21 29  2  0
 22 29  1  0
 23 30  1  0
 23 31  1  0
 25 32  1  0
 26 33  1  0
 32 33  2  0
 27 34  1  0
 27 35  1  0
 27 36  1  0
 28 37  1  0
 30 38  1  0
 31 39  1  0
 32 40  1  0
 33 41  1  0
 37 42  1  0
 40 43  1  0
 38 44  1  0
 39 44  1  0
 41 45  2  0
 40 46  2  0
 45 46  1  0
 42 47  2  0
 43 48  1  0
 42 49  1  0
 49 50  2  0
 49 51  1  0
 50 52  1  0
 51 53  2  0
 50 54  1  0
 53 55  1  0
 54 55  2  0
M  END
