x0426-x1348-x0387-x2694
     RDKit          3D

 65 72  0  0  0  0  0  0  0  0999 V2000
    7.4800   -1.0320   22.0780 N   0  0  0  0  0  0  0  0  0  0  0  0
    6.9150    0.3300   21.7630 C   0  0  1  0  0  0  0  0  0  0  0  0
    7.8660    1.5230   21.9180 C   0  0  0  0  0  0  0  0  0  0  0  0
    7.5900   -2.1200   21.1550 C   0  0  0  0  0  0  0  0  0  0  0  0
    8.6510   -1.2530   22.7960 C   0  0  2  0  0  0  0  0  0  0  0  0
    6.5920   -3.0840   21.1600 N   0  0  0  0  0  0  0  0  0  0  0  0
    6.2700    0.5830   20.3180 C   0  0  0  0  0  0  0  0  0  0  0  0
    8.7820   -1.0240   24.1070 N   0  0  0  0  0  0  0  0  0  0  0  0
    9.9650   -0.6790   22.2500 C   0  0  0  0  0  0  0  0  0  0  0  0
    7.6630    2.3200   22.7510 N   0  0  0  0  0  0  0  0  0  0  0  0
    8.9160    1.5590   20.9660 O   0  0  0  0  0  0  0  0  0  0  0  0
    6.2630   -3.4640   19.8660 C   0  0  0  0  0  0  0  0  0  0  0  0
    4.9280    1.2580   20.1880 C   0  0  0  0  0  0  0  0  0  0  0  0
    6.9250    0.2060   19.1730 C   0  0  0  0  0  0  0  0  0  0  0  0
   10.0310   -1.5010   24.2950 C   0  0  2  0  0  0  0  0  0  0  0  0
   10.8460   -1.1570   23.1910 C   0  0  2  0  0  0  0  0  0  0  0  0
    6.1630   -3.9230   22.2260 C   0  0  0  0  0  0  0  0  0  0  0  0
    3.9660    1.7670   21.2290 C   0  0  0  0  0  0  0  0  0  0  0  0
    5.2480   -4.1060   19.6330 O   0  0  0  0  0  0  0  0  0  0  0  0
    7.2480   -3.0930   18.7550 C   0  0  0  0  0  0  0  0  0  0  0  0
    6.4280    0.4310   17.9290 N   0  0  0  0  0  0  0  0  0  0  0  0
    4.4740    1.4610   18.8950 C   0  0  0  0  0  0  0  0  0  0  0  0
    8.4310    3.5010   23.0100 C   0  0  0  0  0  0  0  0  0  0  0  0
    6.3030   -3.7130   23.5080 N   0  0  0  0  0  0  0  0  0  0  0  0
    5.2980   -5.4400   21.8800 S   0  0  0  0  0  0  0  0  0  0  0  0
    9.7430   -2.8700   24.7080 N   0  0  0  0  0  0  0  0  0  0  0  0
   12.0370   -0.3030   23.6410 C   0  0  1  0  0  0  0  0  0  0  0  0
   11.4790   -2.2080   22.3330 C   0  0  0  0  0  0  0  0  0  0  0  0
   12.5750   -0.9090   24.9190 C   0  0  0  0  0  0  0  0  0  0  0  0
    4.3890    1.8760   22.6980 C   0  0  0  0  0  0  0  0  0  0  0  0
    5.2410    1.0460   17.8360 C   0  0  0  0  0  0  0  0  0  0  0  0
    9.6640    3.3600   23.6260 C   0  0  0  0  0  0  0  0  0  0  0  0
    8.0380    4.8030   22.6850 C   0  0  0  0  0  0  0  0  0  0  0  0
    5.6530   -4.8120   24.2510 C   0  0  0  0  0  0  0  0  0  0  0  0
    5.0670   -5.8050   23.4970 C   0  0  0  0  0  0  0  0  0  0  0  0
    8.4560   -2.9670   25.3860 C   0  0  0  0  0  0  0  0  0  0  0  0
   10.8390   -3.6290   25.2890 C   0  0  0  0  0  0  0  0  0  0  0  0
   13.0620   -1.8290   21.7160 S   0  0  0  0  0  0  0  0  0  0  0  0
   13.1580   -0.4130   22.6850 C   0  0  0  0  0  0  0  0  0  0  0  0
   10.1830    2.0290   24.0090 C   0  0  0  0  0  0  0  0  0  0  0  0
   13.2410   -2.2950   24.7080 C   0  0  0  0  0  0  0  0  0  0  0  0
    3.3520    2.5860   23.4110 N   0  0  0  0  0  0  0  0  0  0  0  0
   10.5420    4.5790   23.9290 C   0  0  0  0  0  0  0  0  0  0  0  0
    8.8570    5.9450   22.9740 C   0  0  0  0  0  0  0  0  0  0  0  0
    5.6460   -4.8030   25.6430 C   0  0  0  0  0  0  0  0  0  0  0  0
    4.3470   -6.9880   24.1670 C   0  0  0  0  0  0  0  0  0  0  0  0
    8.2150   -4.2210   25.8870 C   0  0  0  0  0  0  0  0  0  0  0  0
   10.5100   -4.7390   26.0820 C   0  0  0  0  0  0  0  0  0  0  0  0
    2.2410    1.8250   23.9370 C   0  0  0  0  0  0  0  0  0  0  0  0
   10.1050    5.8300   23.5980 C   0  0  0  0  0  0  0  0  0  0  0  0
    4.2830   -7.0710   25.7040 C   0  0  0  0  0  0  0  0  0  0  0  0
    4.9700   -5.9260   26.4390 C   0  0  0  0  0  0  0  0  0  0  0  0
    9.1390   -4.7180   26.7390 C   0  0  0  0  0  0  0  0  0  0  0  0
   10.9590    6.8600   23.9210 O   0  0  0  0  0  0  0  0  0  0  0  0
    2.1080    0.4610   23.8410 O   0  0  0  0  0  0  0  0  0  0  0  0
    8.6740   -6.0650   27.2340 C   0  0  0  0  0  0  0  0  0  0  0  0
    9.1930   -3.9570   27.9300 O   0  0  0  0  0  0  0  0  0  0  0  0
    1.1710    2.6480   24.6520 C   0  0  0  0  0  0  0  0  0  0  0  0
   11.8330    6.6840   25.0340 C   0  0  0  0  0  0  0  0  0  0  0  0
    1.4650    3.8460   25.2810 C   0  0  0  0  0  0  0  0  0  0  0  0
   -0.2800    2.1080   24.6600 C   0  0  0  0  0  0  0  0  0  0  0  0
    2.7120    4.3410   25.2930 F   0  0  0  0  0  0  0  0  0  0  0  0
   -1.3010    2.8140   25.2960 C   0  0  0  0  0  0  0  0  0  0  0  0
    0.3620    4.6310   25.9820 C   0  0  0  0  0  0  0  0  0  0  0  0
   -0.9930    4.0350   25.9360 C   0  0  0  0  0  0  0  0  0  0  0  0
  1  2  1  0
  2  3  1  6
  1  4  1  0
  5  1  1  6
  4  6  1  0
  2  7  1  0
  5  8  1  0
  5  9  1  0
  3 10  1  0
  3 11  2  0
  6 12  1  0
  7 13  1  0
  7 14  2  0
  8 15  1  0
 16  9  1  6
 15 16  1  0
  6 17  1  0
 13 18  1  0
 12 19  2  0
 12 20  1  0
 14 21  1  0
 13 22  2  0
 10 23  1  0
 17 24  2  0
 17 25  1  0
 15 26  1  6
 16 27  1  0
 16 28  1  0
 27 29  1  1
 18 30  1  0
 21 31  2  0
 22 31  1  0
 23 32  2  0
 23 33  1  0
 24 34  1  0
 25 35  1  0
 34 35  2  0
 26 36  1  0
 26 37  1  0
 28 38  2  0
 27 39  1  0
 38 39  2  0
 32 40  1  0
 29 41  1  0
 30 42  1  0
 32 43  1  0
 33 44  2  0
 34 45  1  0
 35 46  1  0
 36 47  1  0
 37 48  1  0
 42 49  1  0
 43 50  2  0
 44 50  1  0
 46 51  2  0
 45 52  2  0
 51 52  1  0
 47 53  1  0
 48 53  1  0
 50 54  1  0
 49 55  2  0
 53 56  1  0
 53 57  1  0
 49 58  1  0
 54 59  1  0
 58 60  2  0
 58 61  1  0
 60 62  1  0
 61 63  2  0
 60 64  1  0
 63 65  1  0
 64 65  2  0
M  END
