x0426-x2581
     RDKit          3D

 43 47  0  0  0  0  0  0  0  0999 V2000
    9.7210   -2.7440   23.9720 C   0  0  0  0  0  0  0  0  0  0  0  0
   10.0210   -1.5540   24.0240 O   0  0  0  0  0  0  0  0  0  0  0  0
   10.4890   -1.1100   22.7620 C   0  0  2  0  0  0  0  0  0  0  0  0
   11.2410    0.0340   22.9580 C   0  0  0  0  0  0  0  0  0  0  0  0
    9.3110   -0.9100   21.7700 C   0  0  0  0  0  0  0  0  0  0  0  0
   10.7730    1.2740   22.7400 C   0  0  0  0  0  0  0  0  0  0  0  0
    8.5780    0.4630   21.7640 C   0  0  1  0  0  0  0  0  0  0  0  0
    7.2230    0.2540   22.4580 C   0  0  0  0  0  0  0  0  0  0  0  0
    9.4320    1.5760   22.2870 N   0  0  0  0  0  0  0  0  0  0  0  0
    9.0820    2.8910   22.1940 C   0  0  0  0  0  0  0  0  0  0  0  0
    6.1560   -0.5010   21.6380 C   0  0  0  0  0  0  0  0  0  0  0  0
   10.3070    3.5920   21.9840 N   0  0  0  0  0  0  0  0  0  0  0  0
    5.8080    0.1590   20.3220 C   0  0  0  0  0  0  0  0  0  0  0  0
   11.0950    4.0970   23.0960 C   0  0  0  0  0  0  0  0  0  0  0  0
    6.6530   -0.0780   19.2320 C   0  0  0  0  0  0  0  0  0  0  0  0
    4.6980    1.0080   20.1000 C   0  0  0  0  0  0  0  0  0  0  0  0
   11.1090    3.6180   24.2040 O   0  0  0  0  0  0  0  0  0  0  0  0
   11.8790    5.3560   22.7360 C   0  0  0  0  0  0  0  0  0  0  0  0
    3.6680    1.3750   21.1540 C   0  0  0  0  0  0  0  0  0  0  0  0
    6.4870    0.4460   18.0050 N   0  0  0  0  0  0  0  0  0  0  0  0
    4.5330    1.5540   18.8200 C   0  0  0  0  0  0  0  0  0  0  0  0
   11.0930    6.4880   23.3250 C   0  0  0  0  0  0  0  0  0  0  0  0
    4.2640    1.8140   22.3360 C   0  0  0  0  0  0  0  0  0  0  0  0
    5.4350    1.2510   17.8290 C   0  0  0  0  0  0  0  0  0  0  0  0
    9.8630    6.8380   22.7910 C   0  0  0  0  0  0  0  0  0  0  0  0
   11.6220    7.2420   24.5060 C   0  0  0  0  0  0  0  0  0  0  0  0
    3.2740    2.4760   23.1680 N   0  0  0  0  0  0  0  0  0  0  0  0
    9.0230    7.8560   23.2490 C   0  0  0  0  0  0  0  0  0  0  0  0
   10.8910    8.2730   25.0460 C   0  0  0  0  0  0  0  0  0  0  0  0
    2.2600    1.7830   23.8020 C   0  0  0  0  0  0  0  0  0  0  0  0
    9.6340    8.5990   24.4680 C   0  0  0  0  0  0  0  0  0  0  0  0
   11.4030    8.9870   26.1530 C   0  0  0  0  0  0  0  0  0  0  0  0
    2.1780    0.5530   23.7870 O   0  0  0  0  0  0  0  0  0  0  0  0
    1.2260    2.5790   24.5350 C   0  0  0  0  0  0  0  0  0  0  0  0
    8.9130    9.7250   25.0960 C   0  0  0  0  0  0  0  0  0  0  0  0
   10.7330   10.0590   26.7600 C   0  0  0  0  0  0  0  0  0  0  0  0
    1.5240    3.7710   25.1940 C   0  0  0  0  0  0  0  0  0  0  0  0
   -0.0820    2.0840   24.5430 C   0  0  0  0  0  0  0  0  0  0  0  0
    9.4900   10.4720   26.2760 C   0  0  0  0  0  0  0  0  0  0  0  0
    2.7650    4.2790   25.2110 F   0  0  0  0  0  0  0  0  0  0  0  0
   -1.0850    2.7840   25.2090 C   0  0  0  0  0  0  0  0  0  0  0  0
    0.5200    4.4730   25.8610 C   0  0  0  0  0  0  0  0  0  0  0  0
   -0.7800    3.9840   25.8700 C   0  0  0  0  0  0  0  0  0  0  0  0
  1  2  1  0
  3  2  1  1
  3  4  1  0
  3  5  1  0
  4  6  2  0
  5  7  1  0
  7  8  1  1
  6  9  1  0
  7  9  1  0
  9 10  1  0
  8 11  1  0
 10 12  1  0
 11 13  1  0
 12 14  1  0
 13 15  2  0
 13 16  1  0
 14 17  2  0
 14 18  1  0
 16 19  1  0
 15 20  1  0
 16 21  2  0
 18 22  1  0
 19 23  1  0
 20 24  2  0
 21 24  1  0
 22 25  2  0
 22 26  1  0
 23 27  1  0
 25 28  1  0
 26 29  2  0
 27 30  1  0
 28 31  2  0
 29 31  1  0
 29 32  1  0
 30 33  2  0
 30 34  1  0
 31 35  1  0
 32 36  2  0
 34 37  2  0
 34 38  1  0
 35 39  2  0
 36 39  1  0
 37 40  1  0
 38 41  2  0
 37 42  1  0
 41 43  1  0
 42 43  2  0
M  END
