x0426-x2779
     RDKit          3D

 36 40  0  0  0  0  0  0  0  0999 V2000
    2.1130    1.6030   24.0900 C   0  0  0  0  0  0  0  0  0  0  0  0
    3.1830    2.0350   23.3450 N   0  0  0  0  0  0  0  0  0  0  0  0
    3.5320    1.2460   22.1640 C   0  0  1  0  0  0  0  0  0  0  0  0
    1.9320    0.4030   24.2600 O   0  0  0  0  0  0  0  0  0  0  0  0
    1.1300    2.5670   24.6960 C   0  0  0  0  0  0  0  0  0  0  0  0
    1.7170    3.6990   25.1620 C   0  0  0  0  0  0  0  0  0  0  0  0
   -0.1730    1.8540   24.5400 C   0  0  0  0  0  0  0  0  0  0  0  0
    3.8540    2.1840   21.0040 C   0  0  0  0  0  0  0  0  0  0  0  0
    3.0210    4.0130   25.1220 F   0  0  0  0  0  0  0  0  0  0  0  0
    4.5950    0.1430   22.4340 C   0  0  0  0  0  0  0  0  0  0  0  0
   -1.2660    2.7640   25.1510 C   0  0  0  0  0  0  0  0  0  0  0  0
    0.7650    4.5520   25.7240 C   0  0  0  0  0  0  0  0  0  0  0  0
    5.9840    0.4170   21.8940 C   0  0  2  0  0  0  0  0  0  0  0  0
   -0.7220    4.1300   25.7400 C   0  0  0  0  0  0  0  0  0  0  0  0
    4.8190    1.5680   20.0410 C   0  0  0  0  0  0  0  0  0  0  0  0
    5.8530    0.7140   20.4060 C   0  0  0  0  0  0  0  0  0  0  0  0
    4.6480    1.9130   18.5900 C   0  0  0  0  0  0  0  0  0  0  0  0
    7.0100   -0.5980   22.3470 C   0  0  0  0  0  0  0  0  0  0  0  0
    6.7180    0.2100   19.2480 C   0  0  0  0  0  0  0  0  0  0  0  0
    5.5170    1.3740   17.6820 C   0  0  0  0  0  0  0  0  0  0  0  0
    7.5940   -1.6350   21.3390 C   0  0  2  0  0  0  0  0  0  0  0  0
    6.5260    0.5430   17.9630 N   0  0  0  0  0  0  0  0  0  0  0  0
    6.8230   -2.7130   21.2060 N   0  0  0  0  0  0  0  0  0  0  0  0
    8.8370   -1.9990   21.8260 C   0  0  0  0  0  0  0  0  0  0  0  0
    6.5430   -3.2820   19.9270 C   0  0  0  0  0  0  0  0  0  0  0  0
    8.8980   -2.6670   22.9510 N   0  0  0  0  0  0  0  0  0  0  0  0
    6.7630   -3.5430   22.4230 C   0  0  0  0  0  0  0  0  0  0  0  0
    7.4950   -3.0100   18.7640 C   0  0  0  0  0  0  0  0  0  0  0  0
    5.5630   -4.0390   19.7430 O   0  0  0  0  0  0  0  0  0  0  0  0
   10.2350   -2.8700   23.4960 C   0  0  0  0  0  0  0  0  0  0  0  0
    8.0250   -3.8440   22.9740 C   0  0  0  0  0  0  0  0  0  0  0  0
   11.1410   -1.6760   23.4800 C   0  0  0  0  0  0  0  0  0  0  0  0
   12.2240   -1.4370   22.6310 C   0  0  0  0  0  0  0  0  0  0  0  0
   10.9140   -0.3770   24.5860 S   0  0  0  0  0  0  0  0  0  0  0  0
   12.2220    0.4570   23.9190 C   0  0  0  0  0  0  0  0  0  0  0  0
   12.8570   -0.1930   22.8870 C   0  0  0  0  0  0  0  0  0  0  0  0
  1  2  1  0
  3  2  1  1
  1  4  2  0
  1  5  1  0
  5  6  2  0
  5  7  1  0
  3  8  1  0
  6  9  1  0
  3 10  1  0
  7 11  2  0
  6 12  1  0
 10 13  1  0
 11 14  1  0
 12 14  2  0
  8 15  1  0
 13 16  1  0
 15 16  2  0
 15 17  1  0
 13 18  1  6
 16 19  1  0
 17 20  2  0
 21 18  1  1
 19 22  2  0
 20 22  1  0
 21 23  1  0
 21 24  1  0
 23 25  1  0
 24 26  1  0
 23 27  1  0
 25 28  1  0
 25 29  2  0
 26 30  1  0
 26 31  1  0
 27 31  1  0
 30 32  1  0
 32 33  2  0
 32 34  1  0
 34 35  1  0
 33 36  1  0
 35 36  2  0
M  END
