x0426-x3117-x1358-x2694
     RDKit          3D

 62 68  0  0  0  0  0  0  0  0999 V2000
    7.1770   -1.4620   21.5820 C   0  0  2  0  0  0  0  0  0  0  0  0
    6.0850   -2.7720   21.2540 C   0  0  0  0  0  0  0  0  0  0  0  0
    4.8630   -2.9430   20.7510 O   0  0  0  0  0  0  0  0  0  0  0  0
    6.6740    0.0130   21.4420 C   0  0  1  0  0  0  0  0  0  0  0  0
    6.6650   -2.0100   22.8300 C   0  0  0  0  0  0  0  0  0  0  0  0
    8.5500   -1.4210   22.4010 C   0  0  0  0  0  0  0  0  0  0  0  0
    7.7980    1.1080   21.6500 C   0  0  0  0  0  0  0  0  0  0  0  0
    6.0460    0.5030   20.2160 C   0  0  0  0  0  0  0  0  0  0  0  0
    8.6570   -1.1900   23.7570 N   0  0  0  0  0  0  0  0  0  0  0  0
    9.8480   -1.5890   21.9540 C   0  0  0  0  0  0  0  0  0  0  0  0
    6.5600   -4.0810   21.7770 C   0  0  2  0  0  0  0  0  0  0  0  0
    7.4390   -3.3740   22.8180 C   0  0  2  0  0  0  0  0  0  0  0  0
    7.1240   -5.0270   20.7280 C   0  0  0  0  0  0  0  0  0  0  0  0
    7.5410    2.1560   22.6740 N   0  0  0  0  0  0  0  0  0  0  0  0
    8.8230    1.1440   20.9960 O   0  0  0  0  0  0  0  0  0  0  0  0
    4.7810    1.1010   20.1260 C   0  0  0  0  0  0  0  0  0  0  0  0
    6.8270    0.3370   19.0820 C   0  0  0  0  0  0  0  0  0  0  0  0
   10.0050   -1.2180   24.1300 O   0  0  0  0  0  0  0  0  0  0  0  0
   10.7340   -1.4600   23.0130 C   0  0  0  0  0  0  0  0  0  0  0  0
    7.3070   -3.8930   24.1660 C   0  0  0  0  0  0  0  0  0  0  0  0
    5.3420   -4.9070   22.3430 C   0  0  0  0  0  0  0  0  0  0  0  0
   12.2300   -1.5510   22.9810 C   0  0  0  0  0  0  0  0  0  0  0  0
    3.8510    1.3030   21.1790 C   0  0  0  0  0  0  0  0  0  0  0  0
    6.4010    0.7920   17.7840 N   0  0  0  0  0  0  0  0  0  0  0  0
    4.3560    1.5540   18.8850 C   0  0  0  0  0  0  0  0  0  0  0  0
    8.4150    3.2700   22.9960 C   0  0  0  0  0  0  0  0  0  0  0  0
    5.8380   -3.8600   24.4370 C   0  0  1  0  0  0  0  0  0  0  0  0
    5.1900   -5.0070   23.7210 C   0  0  0  0  0  0  0  0  0  0  0  0
   12.8720   -0.2460   23.4890 C   0  0  0  0  0  0  0  0  0  0  0  0
   12.7780   -1.8400   21.5790 C   0  0  0  0  0  0  0  0  0  0  0  0
   12.6860   -2.7250   23.8510 C   0  0  0  0  0  0  0  0  0  0  0  0
    4.2880    2.0270   22.2870 C   0  0  0  0  0  0  0  0  0  0  0  0
    5.3460   -3.4420   25.7990 C   0  0  0  0  0  0  0  0  0  0  0  0
    5.1040    1.4430   17.7120 C   0  0  0  0  0  0  0  0  0  0  0  0
    9.6770    3.0720   23.6120 C   0  0  0  0  0  0  0  0  0  0  0  0
    8.0070    4.5900   22.6910 C   0  0  0  0  0  0  0  0  0  0  0  0
   10.2880    1.7110   24.0200 C   0  0  0  0  0  0  0  0  0  0  0  0
   12.9920   -2.4450   25.1540 C   0  0  0  0  0  0  0  0  0  0  0  0
    3.3120    2.5610   23.0700 N   0  0  0  0  0  0  0  0  0  0  0  0
    6.4310   -2.9100   26.6140 N   0  0  0  0  0  0  0  0  0  0  0  0
    4.1620   -3.5210   26.0800 O   0  0  0  0  0  0  0  0  0  0  0  0
   10.4520    4.1900   23.8850 C   0  0  0  0  0  0  0  0  0  0  0  0
    8.8340    5.6980   22.9980 C   0  0  0  0  0  0  0  0  0  0  0  0
    2.3410    1.8290   23.6790 C   0  0  0  0  0  0  0  0  0  0  0  0
   10.0680    5.4950   23.6040 C   0  0  0  0  0  0  0  0  0  0  0  0
    6.5140   -1.6980   27.3230 C   0  0  0  0  0  0  0  0  0  0  0  0
   10.8040    6.6290   23.8720 O   0  0  0  0  0  0  0  0  0  0  0  0
    2.2900    0.6000   23.6180 O   0  0  0  0  0  0  0  0  0  0  0  0
    1.2770    2.6010   24.4680 C   0  0  0  0  0  0  0  0  0  0  0  0
    5.9390   -0.5420   26.7670 C   0  0  0  0  0  0  0  0  0  0  0  0
    7.1470   -1.6020   28.5610 C   0  0  0  0  0  0  0  0  0  0  0  0
   11.8510    6.5250   24.8440 C   0  0  0  0  0  0  0  0  0  0  0  0
    5.3160   -0.6270   25.5450 O   0  0  0  0  0  0  0  0  0  0  0  0
    1.5470    3.7810   25.1640 C   0  0  0  0  0  0  0  0  0  0  0  0
   -0.0340    2.1070   24.4980 C   0  0  0  0  0  0  0  0  0  0  0  0
    7.1860   -0.3850   29.1980 C   0  0  0  0  0  0  0  0  0  0  0  0
    5.9920    0.6820   27.4380 C   0  0  0  0  0  0  0  0  0  0  0  0
    2.7700    4.3350   25.1970 F   0  0  0  0  0  0  0  0  0  0  0  0
   -1.0210    2.7860   25.2040 C   0  0  0  0  0  0  0  0  0  0  0  0
    0.4960    4.4210   25.8620 C   0  0  0  0  0  0  0  0  0  0  0  0
    6.6250    0.7600   28.6730 C   0  0  0  0  0  0  0  0  0  0  0  0
   -0.7580    3.9230   25.8730 C   0  0  0  0  0  0  0  0  0  0  0  0
  1  2  1  0
  2  3  2  0
  1  4  1  0
  1  5  1  0
  1  6  1  1
  4  7  1  6
  4  8  1  0
  6  9  2  0
  6 10  1  0
  2 11  1  0
 12  5  1  1
 11 12  1  0
 11 13  1  6
  7 14  1  0
  7 15  2  0
  8 16  1  0
  8 17  2  0
  9 18  1  0
 10 19  2  0
 18 19  1  0
 12 20  1  0
 11 21  1  0
 19 22  1  0
 16 23  1  0
 17 24  1  0
 16 25  2  0
 14 26  1  0
 20 27  1  0
 21 28  1  0
 27 28  1  0
 22 29  1  0
 22 30  1  0
 22 31  1  0
 23 32  1  0
 27 33  1  1
 24 34  2  0
 25 34  1  0
 26 35  2  0
 26 36  1  0
 35 37  1  0
 31 38  1  0
 32 39  1  0
 33 40  1  0
 33 41  2  0
 35 42  1  0
 36 43  2  0
 39 44  1  0
 42 45  2  0
 43 45  1  0
 40 46  1  0
 45 47  1  0
 44 48  2  0
 44 49  1  0
 46 50  2  0
 46 51  1  0
 47 52  1  0
 50 53  1  0
 49 54  2  0
 49 55  1  0
 51 56  2  0
 50 57  1  0
 54 58  1  0
 55 59  2  0
 54 60  1  0
 56 61  1  0
 57 61  2  0
 59 62  1  0
 60 62  2  0
M  END
