x0426-x0759
     RDKit          3D

 37 40  0  0  0  0  0  0  0  0999 V2000
    2.3150    1.8080   23.7830 C   0  0  0  0  0  0  0  0  0  0  0  0
    3.3630    2.5100   23.2050 N   0  0  0  0  0  0  0  0  0  0  0  0
    4.4550    1.8740   22.4550 C   0  0  2  0  0  0  0  0  0  0  0  0
    2.2140    0.5850   23.7160 O   0  0  0  0  0  0  0  0  0  0  0  0
    1.2750    2.5940   24.5210 C   0  0  0  0  0  0  0  0  0  0  0  0
    1.5770    3.7920   25.1900 C   0  0  0  0  0  0  0  0  0  0  0  0
   -0.0380    2.0880   24.5240 C   0  0  0  0  0  0  0  0  0  0  0  0
    3.8720    1.0030   21.3130 C   0  0  0  0  0  0  0  0  0  0  0  0
    2.8150    4.3110   25.2160 F   0  0  0  0  0  0  0  0  0  0  0  0
    5.4010    1.1150   23.4280 C   0  0  0  0  0  0  0  0  0  0  0  0
   -1.1600    2.6800   25.1610 C   0  0  0  0  0  0  0  0  0  0  0  0
    0.5630    4.4560   25.8450 C   0  0  0  0  0  0  0  0  0  0  0  0
    5.7940   -0.2450   23.0410 C   0  0  0  0  0  0  0  0  0  0  0  0
   -0.7450    3.9920   25.8730 C   0  0  0  0  0  0  0  0  0  0  0  0
    4.7570    0.9130   20.0880 C   0  0  0  0  0  0  0  0  0  0  0  0
    5.7720   -1.6650   22.4400 C   0  0  0  0  0  0  0  0  0  0  0  0
    5.9520    0.1930   20.0810 C   0  0  0  0  0  0  0  0  0  0  0  0
    4.4370    1.5430   18.8820 C   0  0  0  0  0  0  0  0  0  0  0  0
    6.7230    0.1340   18.9330 C   0  0  0  0  0  0  0  0  0  0  0  0
    5.2830    1.4210   17.7930 C   0  0  0  0  0  0  0  0  0  0  0  0
    7.1840   -2.2760   22.0010 C   0  0  2  0  0  0  0  0  0  0  0  0
    6.4330    0.7250   17.7670 N   0  0  0  0  0  0  0  0  0  0  0  0
    6.8530   -3.4550   21.4660 N   0  0  0  0  0  0  0  0  0  0  0  0
    8.0390   -2.5170   23.1110 C   0  0  1  0  0  0  0  0  0  0  0  0
    6.4610   -3.5930   20.1120 C   0  0  0  0  0  0  0  0  0  0  0  0
    8.3720   -3.6840   23.2550 O   0  0  0  0  0  0  0  0  0  0  0  0
    6.3880   -4.4570   22.4300 C   0  0  0  0  0  0  0  0  0  0  0  0
    9.3490   -1.7000   23.1820 C   0  0  0  0  0  0  0  0  0  0  0  0
    5.4240   -4.2020   19.8110 O   0  0  0  0  0  0  0  0  0  0  0  0
    7.3900   -3.0490   19.0500 C   0  0  0  0  0  0  0  0  0  0  0  0
    7.2820   -4.5630   23.4870 C   0  0  0  0  0  0  0  0  0  0  0  0
    9.4690   -0.7380   24.1990 C   0  0  0  0  0  0  0  0  0  0  0  0
   10.4100   -1.8920   22.2900 C   0  0  0  0  0  0  0  0  0  0  0  0
   10.6310    0.0130   24.3140 C   0  0  0  0  0  0  0  0  0  0  0  0
   11.5900   -1.1230   22.4210 C   0  0  0  0  0  0  0  0  0  0  0  0
   11.6940   -0.1700   23.4380 C   0  0  0  0  0  0  0  0  0  0  0  0
   12.8030    0.5620   23.5680 F   0  0  0  0  0  0  0  0  0  0  0  0
  1  2  1  0
  2  3  1  0
  1  4  2  0
  1  5  1  0
  5  6  2  0
  5  7  1  0
  3  8  1  6
  6  9  1  0
  3 10  1  0
  7 11  2  0
  6 12  1  0
 10 13  1  0
 11 14  1  0
 12 14  2  0
  8 15  1  0
 13 16  1  0
 15 17  2  0
 15 18  1  0
 17 19  1  0
 18 20  2  0
 21 16  1  1
 19 22  2  0
 20 22  1  0
 21 23  1  0
 21 24  1  0
 23 25  1  0
 24 26  1  0
 23 27  1  0
 24 28  1  6
 25 29  2  0
 25 30  1  0
 26 31  1  0
 27 31  1  0
 28 32  2  0
 28 33  1  0
 32 34  1  0
 33 35  2  0
 34 36  2  0
 35 36  1  0
 36 37  1  0
M  END
