x0426-x1358-x2776-x2694
     RDKit          3D

 62 67  0  0  0  0  0  0  0  0999 V2000
    7.5570   -1.4030   21.3700 N   0  0  0  0  0  0  0  0  0  0  0  0
    6.8650   -0.0760   21.4520 C   0  0  1  0  0  0  0  0  0  0  0  0
    7.8740    1.0670   21.7190 C   0  0  0  0  0  0  0  0  0  0  0  0
    8.6700   -1.3600   22.3030 C   0  0  0  0  0  0  0  0  0  0  0  0
    6.9700   -2.6490   22.0480 C   0  0  2  0  0  0  0  0  0  0  0  0
    6.2020    0.3720   20.1480 C   0  0  0  0  0  0  0  0  0  0  0  0
    9.9490   -1.8000   22.0020 C   0  0  0  0  0  0  0  0  0  0  0  0
    8.4360   -0.8800   23.5740 C   0  0  0  0  0  0  0  0  0  0  0  0
    6.2990   -3.6320   21.2200 N   0  0  0  0  0  0  0  0  0  0  0  0
    6.1240   -2.4550   23.2900 C   0  0  0  0  0  0  0  0  0  0  0  0
    7.8220    1.8830   22.8500 N   0  0  0  0  0  0  0  0  0  0  0  0
    8.7580    1.3400   20.9210 O   0  0  0  0  0  0  0  0  0  0  0  0
    6.0570   -3.5960   19.8870 C   0  0  0  0  0  0  0  0  0  0  0  0
    4.9330    0.9430   20.1290 C   0  0  0  0  0  0  0  0  0  0  0  0
    6.8950    0.2140   18.9520 C   0  0  0  0  0  0  0  0  0  0  0  0
   10.9610   -1.7620   22.9290 C   0  0  0  0  0  0  0  0  0  0  0  0
    9.4050   -0.8380   24.5180 C   0  0  0  0  0  0  0  0  0  0  0  0
    6.2060   -3.6190   24.0080 C   0  0  1  0  0  0  0  0  0  0  0  0
    6.1160   -4.9480   21.8750 C   0  0  0  0  0  0  0  0  0  0  0  0
   12.3550   -2.2120   22.6470 C   0  0  0  0  0  0  0  0  0  0  0  0
    3.9770    1.1820   21.2800 C   0  0  0  0  0  0  0  0  0  0  0  0
    4.9920   -4.0260   19.5080 O   0  0  0  0  0  0  0  0  0  0  0  0
    5.5930   -3.3170   25.3750 C   0  0  0  0  0  0  0  0  0  0  0  0
    7.1390   -3.0710   18.9500 C   0  0  0  0  0  0  0  0  0  0  0  0
    6.3540    0.6500   17.7800 N   0  0  0  0  0  0  0  0  0  0  0  0
    4.4760    1.3490   18.9090 C   0  0  0  0  0  0  0  0  0  0  0  0
    8.5620    3.0860   23.0820 C   0  0  0  0  0  0  0  0  0  0  0  0
   10.6450   -1.2700   24.2100 C   0  0  0  0  0  0  0  0  0  0  0  0
    5.7150   -4.7620   23.3620 C   0  0  0  0  0  0  0  0  0  0  0  0
   12.8950   -2.0710   24.0480 C   0  0  1  0  0  0  0  0  0  0  0  0
    4.4980    2.0130   22.4450 C   0  0  0  0  0  0  0  0  0  0  0  0
    6.5920   -2.8040   26.3020 N   0  0  0  0  0  0  0  0  0  0  0  0
    4.4020   -3.4820   25.6160 O   0  0  0  0  0  0  0  0  0  0  0  0
    5.1510    1.2310   17.7350 C   0  0  0  0  0  0  0  0  0  0  0  0
    9.8770    3.0520   23.5590 C   0  0  0  0  0  0  0  0  0  0  0  0
    8.0090    4.3400   22.8420 C   0  0  0  0  0  0  0  0  0  0  0  0
   13.9180   -2.6750   24.2570 O   0  0  0  0  0  0  0  0  0  0  0  0
   10.5780    1.7610   23.8510 C   0  0  0  0  0  0  0  0  0  0  0  0
   13.0690   -0.5310   24.2650 C   0  0  0  0  0  0  0  0  0  0  0  0
    3.3800    2.6180   23.1560 N   0  0  0  0  0  0  0  0  0  0  0  0
   10.5780    4.2300   23.7810 C   0  0  0  0  0  0  0  0  0  0  0  0
    8.7820    5.6420   23.0910 C   0  0  0  0  0  0  0  0  0  0  0  0
    6.5840   -1.6550   27.1230 C   0  0  0  0  0  0  0  0  0  0  0  0
   13.9740   -2.9140   25.6540 C   0  0  0  0  0  0  0  0  0  0  0  0
    2.3670    1.8750   23.7330 C   0  0  0  0  0  0  0  0  0  0  0  0
   10.0870    5.5230   23.5740 C   0  0  0  0  0  0  0  0  0  0  0  0
    5.9070   -0.3890   26.5900 C   0  0  0  0  0  0  0  0  0  0  0  0
    7.1770   -1.6490   28.3980 C   0  0  0  0  0  0  0  0  0  0  0  0
   10.7650    6.6920   23.8050 O   0  0  0  0  0  0  0  0  0  0  0  0
    2.2830    0.4500   23.6520 O   0  0  0  0  0  0  0  0  0  0  0  0
    5.3260   -0.3880   25.3490 O   0  0  0  0  0  0  0  0  0  0  0  0
    1.3060    2.6180   24.4810 C   0  0  0  0  0  0  0  0  0  0  0  0
    7.1750   -0.5150   29.2110 C   0  0  0  0  0  0  0  0  0  0  0  0
    5.9030    0.7450   27.4020 C   0  0  0  0  0  0  0  0  0  0  0  0
   11.8560    6.6280   24.7230 C   0  0  0  0  0  0  0  0  0  0  0  0
    1.5550    3.9130   25.2390 C   0  0  0  0  0  0  0  0  0  0  0  0
   -0.1290    2.0680   24.5070 C   0  0  0  0  0  0  0  0  0  0  0  0
    6.5750    0.6750   28.7890 C   0  0  0  0  0  0  0  0  0  0  0  0
    2.7800    4.4550   25.2660 F   0  0  0  0  0  0  0  0  0  0  0  0
   -1.2680    2.7900   25.2640 C   0  0  0  0  0  0  0  0  0  0  0  0
    0.5170    4.5730   25.9300 C   0  0  0  0  0  0  0  0  0  0  0  0
   -0.9490    4.0880   26.0050 C   0  0  0  0  0  0  0  0  0  0  0  0
  1  2  1  0
  2  3  1  6
  1  4  1  0
  5  1  1  6
  2  6  1  0
  4  7  2  0
  4  8  1  0
  5  9  1  0
  5 10  1  0
  3 11  1  0
  3 12  2  0
  9 13  1  0
  6 14  1  0
  6 15  2  0
  7 16  1  0
  8 17  2  0
 10 18  1  0
  9 19  1  0
 16 20  1  0
 14 21  1  0
 13 22  2  0
 18 23  1  1
 13 24  1  0
 15 25  1  0
 14 26  2  0
 11 27  1  0
 16 28  2  0
 17 28  1  0
 18 29  1  0
 19 29  1  0
 20 30  1  0
 21 31  1  0
 23 32  1  0
 23 33  2  0
 25 34  2  0
 26 34  1  0
 27 35  2  0
 27 36  1  0
 30 37  1  0
 35 38  1  0
 30 39  1  6
 31 40  1  0
 35 41  1  0
 36 42  2  0
 32 43  1  0
 37 44  1  0
 40 45  1  0
 41 46  2  0
 42 46  1  0
 43 47  2  0
 43 48  1  0
 46 49  1  0
 45 50  2  0
 47 51  1  0
 45 52  1  0
 48 53  2  0
 47 54  1  0
 49 55  1  0
 52 56  2  0
 52 57  1  0
 53 58  1  0
 54 58  2  0
 56 59  1  0
 57 60  2  0
 56 61  1  0
 60 62  1  0
 61 62  2  0
M  END
