x0426-x0771-x2643-x3115
     RDKit          3D

 66 72  0  0  0  0  0  0  0  0999 V2000
    6.4010   -1.4290   22.1480 N   0  0  0  0  0  0  0  0  0  0  0  0
    6.0740   -0.0820   21.9460 C   0  0  1  0  0  0  0  0  0  0  0  0
    7.2330    0.9710   22.1500 C   0  0  0  0  0  0  0  0  0  0  0  0
    7.7040   -1.5660   22.3810 C   0  0  0  0  0  0  0  0  0  0  0  0
    5.7030    0.3690   20.5350 C   0  0  0  0  0  0  0  0  0  0  0  0
    8.8530   -1.9010   22.7470 C   0  0  0  0  0  0  0  0  0  0  0  0
    7.7230   -2.6920   23.2230 C   0  0  0  0  0  0  0  0  0  0  0  0
    7.4880    1.3800   23.4730 N   0  0  0  0  0  0  0  0  0  0  0  0
    7.8400    1.4690   21.2000 O   0  0  0  0  0  0  0  0  0  0  0  0
    4.5910    1.1510   20.2660 C   0  0  0  0  0  0  0  0  0  0  0  0
    6.6120   -0.0220   19.4140 C   0  0  0  0  0  0  0  0  0  0  0  0
   10.1200   -1.5900   22.6580 C   0  0  0  0  0  0  0  0  0  0  0  0
    9.1260   -3.2670   23.8050 C   0  0  0  0  0  0  0  0  0  0  0  0
    7.9540    2.7070   23.7090 C   0  0  0  0  0  0  0  0  0  0  0  0
    3.5520    1.6420   21.2750 C   0  0  0  0  0  0  0  0  0  0  0  0
    6.3900    0.4030   18.0290 N   0  0  0  0  0  0  0  0  0  0  0  0
    4.3420    1.6050   18.8560 C   0  0  0  0  0  0  0  0  0  0  0  0
   10.3300   -2.6050   23.4650 C   0  0  0  0  0  0  0  0  0  0  0  0
   10.6670   -0.6580   22.0380 C   0  0  2  0  0  0  0  0  0  0  0  0
    7.7830    3.7940   22.7320 C   0  0  0  0  0  0  0  0  0  0  0  0
   11.9150   -2.5600   23.6700 C   0  0  0  0  0  0  0  0  0  0  0  0
    3.7810    1.5700   22.6380 C   0  0  0  0  0  0  0  0  0  0  0  0
    5.2470    1.2460   17.7060 C   0  0  0  0  0  0  0  0  0  0  0  0
   11.3540   -0.0720   23.1600 C   0  0  0  0  0  0  0  0  0  0  0  0
    9.8500    0.3510   21.6380 C   0  0  0  0  0  0  0  0  0  0  0  0
    8.4390    4.7800   23.1080 O   0  0  0  0  0  0  0  0  0  0  0  0
   12.7130   -2.5880   22.3660 C   0  0  0  0  0  0  0  0  0  0  0  0
   12.4780   -3.1590   24.8910 C   0  0  0  0  0  0  0  0  0  0  0  0
   12.0550   -1.0650   24.0600 C   0  0  2  0  0  0  0  0  0  0  0  0
    2.9530    2.3420   23.3470 N   0  0  0  0  0  0  0  0  0  0  0  0
   11.1330    1.4660   23.0440 C   0  0  0  0  0  0  0  0  0  0  0  0
   10.1620    1.6650   22.2000 C   0  0  0  0  0  0  0  0  0  0  0  0
    8.1750    5.9560   22.3340 C   0  0  0  0  0  0  0  0  0  0  0  0
    1.8600    1.8480   23.9960 C   0  0  0  0  0  0  0  0  0  0  0  0
   13.3750   -0.6420   24.0560 C   0  0  0  0  0  0  0  0  0  0  0  0
    1.5700    0.5070   24.1310 N   0  0  0  0  0  0  0  0  0  0  0  0
    0.9310    2.8370   24.6060 C   0  0  0  0  0  0  0  0  0  0  0  0
   13.4910    0.5760   22.7990 Cl  0  0  0  0  0  0  0  0  0  0  0  0
    0.3500    0.1780   24.8030 C   0  0  0  0  0  0  0  0  0  0  0  0
    1.4250    3.8730   25.3010 C   0  0  0  0  0  0  0  0  0  0  0  0
   -0.5980    2.6730   24.4610 C   0  0  0  0  0  0  0  0  0  0  0  0
    2.7470    4.0510   25.4390 F   0  0  0  0  0  0  0  0  0  0  0  0
    0.2680   -1.0330   25.4750 C   0  0  0  0  0  0  0  0  0  0  0  0
   -1.4890    3.6970   25.1340 C   0  0  0  0  0  0  0  0  0  0  0  0
    0.5800    4.8140   25.9140 C   0  0  0  0  0  0  0  0  0  0  0  0
    1.0540   -1.1360   26.6150 C   0  0  0  0  0  0  0  0  0  0  0  0
   -0.8850    4.7060   25.8220 C   0  0  0  0  0  0  0  0  0  0  0  0
    1.9630   -2.3040   26.4390 C   0  0  0  0  0  0  0  0  0  0  0  0
    1.3690   -3.7300   26.2860 C   0  0  0  0  0  0  0  0  0  0  0  0
    3.3300   -2.1380   26.3980 C   0  0  0  0  0  0  0  0  0  0  0  0
    2.3820   -4.8860   26.0730 C   0  0  0  0  0  0  0  0  0  0  0  0
    4.1630   -3.2150   26.2150 C   0  0  0  0  0  0  0  0  0  0  0  0
    1.8660   -6.2880   25.8940 C   0  0  0  0  0  0  0  0  0  0  0  0
    3.7430   -4.5360   26.0540 C   0  0  0  0  0  0  0  0  0  0  0  0
    5.0050   -5.7490   25.8200 S   0  0  0  0  0  0  0  0  0  0  0  0
    4.4020   -7.0630   25.9110 O   0  0  0  0  0  0  0  0  0  0  0  0
    6.0890   -5.3790   26.6950 O   0  0  0  0  0  0  0  0  0  0  0  0
    5.4860   -5.4980   24.2070 N   0  0  0  0  0  0  0  0  0  0  0  0
    4.9950   -6.4710   23.1870 C   0  0  0  0  0  0  0  0  0  0  0  0
    6.9000   -5.3230   24.1220 C   0  0  0  0  0  0  0  0  0  0  0  0
    5.1520   -5.9480   21.9170 C   0  0  0  0  0  0  0  0  0  0  0  0
    7.3870   -5.3980   22.6910 C   0  0  0  0  0  0  0  0  0  0  0  0
    6.3330   -5.1260   21.7350 N   0  0  0  0  0  0  0  0  0  0  0  0
    6.4140   -4.3320   20.5910 C   0  0  0  0  0  0  0  0  0  0  0  0
    5.4510   -4.2560   19.8250 O   0  0  0  0  0  0  0  0  0  0  0  0
    7.7340   -3.5850   20.3550 C   0  0  0  0  0  0  0  0  0  0  0  0
  2  1  1  6
  2  3  1  0
  1  4  1  0
  2  5  1  0
  4  6  2  0
  4  7  1  0
  3  8  1  0
  3  9  2  0
  5 10  1  0
  5 11  2  0
  6 12  1  0
  7 13  2  0
  8 14  1  0
 10 15  1  0
 11 16  1  0
 10 17  2  0
 12 18  2  0
 13 18  1  0
 12 19  1  0
 14 20  1  0
 18 21  1  0
 15 22  1  0
 16 23  2  0
 17 23  1  0
 19 24  1  0
 19 25  1  1
 20 26  1  0
 21 27  1  0
 21 28  1  0
 21 29  1  0
 24 29  1  0
 22 30  1  0
 24 31  2  0
 25 32  2  0
 31 32  1  0
 26 33  1  0
 30 34  1  0
 29 35  1  6
 34 36  2  3
 34 37  1  0
 35 38  1  0
 36 39  1  0
 37 40  2  0
 37 41  1  0
 40 42  1  0
 39 43  1  0
 41 44  2  0
 40 45  1  0
 43 46  1  0
 44 47  1  0
 45 47  2  0
 46 48  1  0
 48 49  2  0
 48 50  1  0
 49 51  1  0
 50 52  2  0
 51 53  1  0
 51 54  2  0
 52 54  1  0
 55 54  1  0
 55 56  2  0
 55 57  2  0
 55 58  1  0
 58 59  1  0
 58 60  1  0
 59 61  1  0
 60 62  1  0
 61 63  1  0
 62 63  1  0
 63 64  1  0
 64 65  2  0
 64 66  1  0
M  END
