x0426-x0705
     RDKit          3D

 39 43  0  0  0  0  0  0  0  0999 V2000
    1.3130   -2.7330   27.8460 C   0  0  0  0  0  0  0  0  0  0  0  0
    0.5830   -1.5810   27.1260 C   0  0  0  0  0  0  0  0  0  0  0  0
    1.3010   -1.0930   25.8390 C   0  0  2  0  0  0  0  0  0  0  0  0
    2.6700   -2.5420   27.2750 C   0  0  0  0  0  0  0  0  0  0  0  0
    2.6750   -1.6590   26.1950 C   0  0  0  0  0  0  0  0  0  0  0  0
    3.7840   -3.2050   27.8090 C   0  0  0  0  0  0  0  0  0  0  0  0
    1.4360    0.4170   25.8440 C   0  0  0  0  0  0  0  0  0  0  0  0
    4.0770   -1.4530   25.6110 C   0  0  0  0  0  0  0  0  0  0  0  0
    5.1560   -2.9800   27.2070 C   0  0  0  0  0  0  0  0  0  0  0  0
    2.2970    0.7410   24.6860 N   0  0  0  0  0  0  0  0  0  0  0  0
    5.3310   -2.1300   26.1380 C   0  0  0  0  0  0  0  0  0  0  0  0
    6.6540   -1.8710   25.5080 C   0  0  0  0  0  0  0  0  0  0  0  0
    2.1870    1.8680   24.1070 C   0  0  0  0  0  0  0  0  0  0  0  0
    7.5340   -1.3510   26.1690 O   0  0  0  0  0  0  0  0  0  0  0  0
    2.9930    2.3480   22.9910 N   0  0  0  0  0  0  0  0  0  0  0  0
    6.8020   -2.2210   24.1810 N   0  0  0  0  0  0  0  0  0  0  0  0
    1.0920    2.8210   24.6660 C   0  0  0  0  0  0  0  0  0  0  0  0
    4.0850    1.6730   22.3240 C   0  0  0  0  0  0  0  0  0  0  0  0
    5.6120   -2.8040   23.5890 C   0  0  0  0  0  0  0  0  0  0  0  0
    7.6540   -1.5680   23.2030 C   0  0  0  0  0  0  0  0  0  0  0  0
    1.4300    4.0060   25.2970 C   0  0  0  0  0  0  0  0  0  0  0  0
   -0.2380    2.4240   24.5200 C   0  0  0  0  0  0  0  0  0  0  0  0
    3.5990    1.2680   21.0110 C   0  0  0  0  0  0  0  0  0  0  0  0
    2.7100    4.3900   25.4360 F   0  0  0  0  0  0  0  0  0  0  0  0
    5.8800   -3.5280   22.4630 C   0  0  0  0  0  0  0  0  0  0  0  0
    7.7690   -2.4130   22.0860 C   0  0  0  0  0  0  0  0  0  0  0  0
   -1.2470    3.2340   25.0260 C   0  0  0  0  0  0  0  0  0  0  0  0
    0.4240    4.8200   25.8050 C   0  0  0  0  0  0  0  0  0  0  0  0
    6.5630   -2.8120   21.6110 N   0  0  0  0  0  0  0  0  0  0  0  0
   -0.9020    4.4260   25.6670 C   0  0  0  0  0  0  0  0  0  0  0  0
    4.6370    0.9570   19.9670 C   0  0  0  0  0  0  0  0  0  0  0  0
    6.6030   -3.4780   20.3980 C   0  0  0  0  0  0  0  0  0  0  0  0
    5.6630    0.0350   20.1900 C   0  0  0  0  0  0  0  0  0  0  0  0
    4.5780    1.6050   18.7340 C   0  0  0  0  0  0  0  0  0  0  0  0
    5.8030   -3.4000   19.4390 O   0  0  0  0  0  0  0  0  0  0  0  0
    7.7490   -4.3900   20.4120 C   0  0  0  0  0  0  0  0  0  0  0  0
    6.5800   -0.1960   19.1610 C   0  0  0  0  0  0  0  0  0  0  0  0
    5.5330    1.3080   17.7780 C   0  0  0  0  0  0  0  0  0  0  0  0
    6.5230    0.4230   17.9660 N   0  0  0  0  0  0  0  0  0  0  0  0
  1  2  1  0
  2  3  1  0
  1  4  1  0
  3  5  1  0
  4  5  2  0
  4  6  1  0
  3  7  1  1
  5  8  1  0
  6  9  2  0
  7 10  1  0
  8 11  2  0
  9 11  1  0
 11 12  1  0
 10 13  2  3
 12 14  2  0
 13 15  1  0
 12 16  1  0
 13 17  1  0
 15 18  1  0
 16 19  1  0
 16 20  1  0
 17 21  2  0
 17 22  1  0
 18 23  1  0
 21 24  1  0
 19 25  1  0
 20 26  1  0
 22 27  2  0
 21 28  1  0
 25 29  1  0
 26 29  1  0
 27 30  1  0
 28 30  2  0
 23 31  1  0
 29 32  1  0
 31 33  2  0
 31 34  1  0
 32 35  2  0
 32 36  1  0
 33 37  1  0
 34 38  2  0
 37 39  2  0
 38 39  1  0
M  END
