x0426-x1374-x2649-x2694
     RDKit          3D

 61 66  0  0  0  0  0  0  0  0999 V2000
    7.6420   -0.8380   21.6050 N   0  0  0  0  0  0  0  0  0  0  0  0
    7.0340    0.4030   21.6860 C   0  0  1  0  0  0  0  0  0  0  0  0
    8.0510    1.5190   21.7910 C   0  0  0  0  0  0  0  0  0  0  0  0
    8.7560   -0.8590   22.4800 C   0  0  0  0  0  0  0  0  0  0  0  0
    6.3010    0.6910   20.3650 C   0  0  0  0  0  0  0  0  0  0  0  0
    8.6820   -0.6940   23.8230 N   0  0  0  0  0  0  0  0  0  0  0  0
    9.9730   -1.0380   22.0600 C   0  0  0  0  0  0  0  0  0  0  0  0
    7.8240    2.4100   22.6900 N   0  0  0  0  0  0  0  0  0  0  0  0
    9.0180    1.5890   21.0630 O   0  0  0  0  0  0  0  0  0  0  0  0
    5.0200    1.2350   20.5050 C   0  0  0  0  0  0  0  0  0  0  0  0
    6.8070    0.4660   19.1140 C   0  0  0  0  0  0  0  0  0  0  0  0
   10.0330   -0.7900   24.2180 O   0  0  0  0  0  0  0  0  0  0  0  0
   10.8290   -1.0000   23.1140 C   0  0  0  0  0  0  0  0  0  0  0  0
   12.2930   -1.1180   23.2740 C   0  0  0  0  0  0  0  0  0  0  0  0
    4.4260    1.4270   21.9140 C   0  0  1  0  0  0  0  0  0  0  0  0
    6.2110    0.7400   17.9640 N   0  0  0  0  0  0  0  0  0  0  0  0
    4.3660    1.5440   19.2590 C   0  0  0  0  0  0  0  0  0  0  0  0
    8.5930    3.5650   22.9630 C   0  0  0  0  0  0  0  0  0  0  0  0
   12.8260    0.1160   23.5370 C   0  0  0  0  0  0  0  0  0  0  0  0
   12.9500   -1.7020   22.0630 C   0  0  0  0  0  0  0  0  0  0  0  0
   12.5300   -1.8200   24.3750 C   0  0  0  0  0  0  0  0  0  0  0  0
    3.1790    2.2480   22.2160 N   0  0  0  0  0  0  0  0  0  0  0  0
    4.1410    0.0250   22.2820 C   0  0  0  0  0  0  0  0  0  0  0  0
    4.9910    1.2920   18.0150 C   0  0  0  0  0  0  0  0  0  0  0  0
    9.8190    3.3430   23.6040 C   0  0  0  0  0  0  0  0  0  0  0  0
    8.1890    4.8650   22.6310 C   0  0  0  0  0  0  0  0  0  0  0  0
   10.2720    1.9460   23.9730 C   0  0  0  0  0  0  0  0  0  0  0  0
    2.4210    1.7730   23.3140 C   0  0  0  0  0  0  0  0  0  0  0  0
   12.1380   -3.0880   24.2870 C   0  0  0  0  0  0  0  0  0  0  0  0
   10.6530    4.4080   23.9180 C   0  0  0  0  0  0  0  0  0  0  0  0
    9.0140    5.9440   22.9500 C   0  0  0  0  0  0  0  0  0  0  0  0
    2.4630    0.4310   23.7720 O   0  0  0  0  0  0  0  0  0  0  0  0
   11.5700   -3.5470   25.6300 C   0  0  0  0  0  0  0  0  0  0  0  0
   10.2300    5.8130   23.5810 C   0  0  0  0  0  0  0  0  0  0  0  0
    1.4650    2.6430   24.1480 C   0  0  0  0  0  0  0  0  0  0  0  0
   10.9820    6.9150   23.8680 O   0  0  0  0  0  0  0  0  0  0  0  0
   10.6500   -4.6000   25.7090 C   0  0  0  0  0  0  0  0  0  0  0  0
    1.7400    3.8130   24.8950 C   0  0  0  0  0  0  0  0  0  0  0  0
    0.1420    2.1630   24.1550 C   0  0  0  0  0  0  0  0  0  0  0  0
   11.8890    6.7580   24.9830 C   0  0  0  0  0  0  0  0  0  0  0  0
    2.9770    4.3310   24.9450 F   0  0  0  0  0  0  0  0  0  0  0  0
   -0.8690    2.8290   24.8830 C   0  0  0  0  0  0  0  0  0  0  0  0
    0.7320    4.4660   25.6120 C   0  0  0  0  0  0  0  0  0  0  0  0
    9.5440   -4.5750   24.7700 C   0  0  0  0  0  0  0  0  0  0  0  0
   -0.5830    3.9830   25.6160 C   0  0  0  0  0  0  0  0  0  0  0  0
    8.8590   -3.2600   24.4770 C   0  0  0  0  0  0  0  0  0  0  0  0
    9.1550   -5.7590   24.1840 C   0  0  0  0  0  0  0  0  0  0  0  0
    7.7900   -3.3120   23.5800 C   0  0  0  0  0  0  0  0  0  0  0  0
    8.1050   -5.7890   23.3040 C   0  0  0  0  0  0  0  0  0  0  0  0
    7.3680   -4.4840   22.9880 C   0  0  0  0  0  0  0  0  0  0  0  0
    6.2610   -4.5660   22.1410 N   0  0  0  0  0  0  0  0  0  0  0  0
    6.2730   -4.5150   20.7060 C   0  0  0  0  0  0  0  0  0  0  0  0
    5.4160   -5.4910   22.9480 C   0  0  1  0  0  0  0  0  0  0  0  0
    5.5330   -5.2650   20.0670 O   0  0  0  0  0  0  0  0  0  0  0  0
    7.1580   -3.4780   19.9290 C   0  0  0  0  0  0  0  0  0  0  0  0
    5.1310   -4.9030   24.3260 C   0  0  0  0  0  0  0  0  0  0  0  0
    4.2970   -6.1050   22.5350 C   0  0  0  0  0  0  0  0  0  0  0  0
    3.5710   -6.8110   23.9870 S   0  0  0  0  0  0  0  0  0  0  0  0
    4.1540   -5.5030   25.0350 C   0  0  0  0  0  0  0  0  0  0  0  0
    2.1350   -6.7860   23.8530 O   0  0  0  0  0  0  0  0  0  0  0  0
    4.2560   -8.0320   24.2700 O   0  0  0  0  0  0  0  0  0  0  0  0
  2  1  1  6
  2  3  1  0
  1  4  1  0
  2  5  1  0
  4  6  2  0
  4  7  1  0
  3  8  1  0
  3  9  2  0
  5 10  1  0
  5 11  2  0
  6 12  1  0
  7 13  2  0
 12 13  1  0
 13 14  1  0
 10 15  1  0
 11 16  1  0
 10 17  2  0
  8 18  1  0
 14 19  1  0
 14 20  1  0
 14 21  1  0
 15 22  1  0
 15 23  1  6
 16 24  2  0
 17 24  1  0
 18 25  2  0
 18 26  1  0
 25 27  1  0
 22 28  1  0
 21 29  1  0
 25 30  1  0
 26 31  2  0
 28 32  2  0
 29 33  1  0
 30 34  2  0
 31 34  1  0
 28 35  1  0
 34 36  1  0
 33 37  1  0
 35 38  2  0
 35 39  1  0
 36 40  1  0
 38 41  1  0
 39 42  2  0
 38 43  1  0
 37 44  1  0
 42 45  1  0
 43 45  2  0
 44 46  2  0
 44 47  1  0
 46 48  1  0
 47 49  2  0
 48 50  2  0
 49 50  1  0
 50 51  1  0
 51 52  1  0
 53 51  1  6
 52 54  2  0
 52 55  1  0
 53 56  1  0
 53 57  1  0
 57 58  1  0
 56 59  2  0
 58 59  1  0
 58 60  1  0
 58 61  1  0
M  END
