x0426-x3110-x0755-x1311
     RDKit          3D

 67 72  0  0  0  0  0  0  0  0999 V2000
    7.9470    1.4350   23.2890 N   0  0  0  0  0  0  0  0  0  0  0  0
    8.8330    2.5630   23.7470 C   0  0  0  0  0  0  0  0  0  0  0  0
   10.2960    2.1650   23.5410 C   0  0  0  0  0  0  0  0  0  0  0  0
    7.7270    0.9640   21.9040 C   0  0  0  0  0  0  0  0  0  0  0  0
    8.4530    1.4680   21.0240 O   0  0  0  0  0  0  0  0  0  0  0  0
    6.6020   -0.1120   21.6920 C   0  0  2  0  0  0  0  0  0  0  0  0
    6.8800   -1.4400   21.9260 N   0  0  0  0  0  0  0  0  0  0  0  0
   11.1520    3.4100   23.3650 C   0  0  0  0  0  0  0  0  0  0  0  0
    6.0010    0.2910   20.3510 C   0  0  0  0  0  0  0  0  0  0  0  0
   11.9520    3.2890   22.4550 O   0  0  0  0  0  0  0  0  0  0  0  0
   11.0180    4.5750   24.1620 O   0  0  0  0  0  0  0  0  0  0  0  0
    6.1430   -2.6840   21.6030 C   0  0  0  0  0  0  0  0  0  0  0  0
    4.7380    0.8770   20.1870 C   0  0  0  0  0  0  0  0  0  0  0  0
    6.8410    0.0550   19.2540 C   0  0  0  0  0  0  0  0  0  0  0  0
    8.1990   -1.4810   22.5420 C   0  0  0  0  0  0  0  0  0  0  0  0
   12.3350    4.3630   21.9890 C   0  0  0  0  0  0  0  0  0  0  0  0
    4.8650   -3.0590   21.2620 O   0  0  0  0  0  0  0  0  0  0  0  0
    7.2170   -3.7180   21.6920 C   0  0  2  0  0  0  0  0  0  0  0  0
    3.6490    1.2030   21.2500 C   0  0  0  0  0  0  0  0  0  0  0  0
    6.5100    0.3870   17.9880 N   0  0  0  0  0  0  0  0  0  0  0  0
    4.3520    1.2390   18.9220 C   0  0  0  0  0  0  0  0  0  0  0  0
    9.3010   -1.8570   21.7620 C   0  0  0  0  0  0  0  0  0  0  0  0
    8.4410   -1.1540   23.8750 C   0  0  0  0  0  0  0  0  0  0  0  0
   13.4240    5.1720   22.6900 C   0  0  0  0  0  0  0  0  0  0  0  0
    7.0720   -4.6560   20.5080 C   0  0  0  0  0  0  0  0  0  0  0  0
    4.1940    2.0690   22.2070 C   0  0  0  0  0  0  0  0  0  0  0  0
    5.2060    1.0160   17.8300 C   0  0  0  0  0  0  0  0  0  0  0  0
   10.5920   -1.9140   22.2690 C   0  0  0  0  0  0  0  0  0  0  0  0
    9.7090   -1.1750   24.4570 C   0  0  0  0  0  0  0  0  0  0  0  0
    7.6530   -4.3550   23.0300 C   0  0  0  0  0  0  0  0  0  0  0  0
    3.3060    2.5290   23.1270 N   0  0  0  0  0  0  0  0  0  0  0  0
   10.8730   -1.5910   23.5860 C   0  0  0  0  0  0  0  0  0  0  0  0
    9.0020   -4.9540   22.9600 C   0  0  0  0  0  0  0  0  0  0  0  0
    6.9520   -4.4810   24.3880 C   0  0  0  0  0  0  0  0  0  0  0  0
   12.2820   -1.6380   24.1290 C   0  0  0  0  0  0  0  0  0  0  0  0
    2.3140    1.8380   23.7370 C   0  0  0  0  0  0  0  0  0  0  0  0
    9.6830   -5.6850   24.1120 C   0  0  0  0  0  0  0  0  0  0  0  0
    7.6610   -5.2590   25.5630 C   0  0  0  0  0  0  0  0  0  0  0  0
   12.4460   -0.5360   24.9400 C   0  0  0  0  0  0  0  0  0  0  0  0
   13.3310   -1.4610   23.0110 C   0  0  0  0  0  0  0  0  0  0  0  0
   12.5830   -2.8890   24.6850 C   0  0  0  0  0  0  0  0  0  0  0  0
    2.2110    0.6220   23.6950 O   0  0  0  0  0  0  0  0  0  0  0  0
    1.2940    2.6210   24.5040 C   0  0  0  0  0  0  0  0  0  0  0  0
    9.0190   -5.8480   25.4140 C   0  0  0  0  0  0  0  0  0  0  0  0
    7.0340   -5.4770   26.8840 C   0  0  0  0  0  0  0  0  0  0  0  0
    1.5510    3.8050   25.1940 C   0  0  0  0  0  0  0  0  0  0  0  0
   -0.1650    2.1180   24.5610 C   0  0  0  0  0  0  0  0  0  0  0  0
    5.9190   -4.6210   26.9210 N   0  0  0  0  0  0  0  0  0  0  0  0
    2.7750    4.3520   25.2270 F   0  0  0  0  0  0  0  0  0  0  0  0
   -1.1470    2.8120   25.2590 C   0  0  0  0  0  0  0  0  0  0  0  0
    0.5320    4.4480   25.8690 C   0  0  0  0  0  0  0  0  0  0  0  0
    4.5630   -5.2360   26.1980 S   0  0  2  0  0  0  0  0  0  0  0  0
   -0.7880    3.9850   25.9140 C   0  0  0  0  0  0  0  0  0  0  0  0
    3.9860   -6.3680   26.8880 O   0  0  0  0  0  0  0  0  0  0  0  0
    4.4350   -5.5980   24.5030 C   0  0  1  0  0  0  0  0  0  0  0  0
    3.4860   -3.8430   26.2100 C   0  0  0  0  0  0  0  0  0  0  0  0
    5.2870   -5.9420   23.4550 C   0  0  0  0  0  0  0  0  0  0  0  0
    3.2250   -6.8710   24.4070 S   0  0  1  0  0  0  0  0  0  0  0  0
    2.1160   -4.0520   26.2590 C   0  0  0  0  0  0  0  0  0  0  0  0
    4.0320   -2.5300   26.1520 C   0  0  0  0  0  0  0  0  0  0  0  0
    2.0240   -6.0960   24.5510 O   0  0  0  0  0  0  0  0  0  0  0  0
    5.3490   -2.2940   26.1070 F   0  0  0  0  0  0  0  0  0  0  0  0
    4.5860   -6.4940   22.4090 C   0  0  0  0  0  0  0  0  0  0  0  0
    3.4030   -7.0340   22.7560 C   0  0  0  0  0  0  0  0  0  0  0  0
    3.1850   -1.4240   26.1370 C   0  0  0  0  0  0  0  0  0  0  0  0
    1.2380   -2.9720   26.2470 C   0  0  0  0  0  0  0  0  0  0  0  0
    1.6830   -1.6620   26.1860 C   0  0  0  0  0  0  0  0  0  0  0  0
  1  2  1  0
  2  3  1  0
  1  4  1  0
  4  5  2  0
  6  4  1  6
  6  7  1  0
  3  8  1  0
  6  9  1  0
  8 10  1  0
  8 11  2  0
  7 12  1  0
  9 13  1  0
  9 14  2  0
  7 15  1  0
 10 16  1  0
 12 17  2  0
 12 18  1  0
 13 19  1  0
 14 20  1  0
 13 21  2  0
 15 22  2  0
 15 23  1  0
 16 24  1  0
 18 25  1  6
 19 26  1  0
 20 27  2  0
 21 27  1  0
 22 28  1  0
 23 29  2  0
 18 30  1  0
 26 31  1  0
 28 32  2  0
 29 32  1  0
 30 33  2  0
 30 34  1  0
 32 35  1  0
 31 36  1  0
 33 37  1  0
 34 38  2  0
 35 39  1  0
 35 40  1  0
 35 41  1  0
 36 42  2  0
 36 43  1  0
 37 44  2  0
 38 44  1  0
 38 45  1  0
 43 46  2  0
 43 47  1  0
 45 48  1  0
 46 49  1  0
 47 50  2  0
 46 51  1  0
 48 52  2  0
 50 53  1  0
 51 53  2  0
 52 54  2  0
 52 55  1  0
 52 56  1  6
 55 57  1  1
 55 58  1  0
 56 59  2  0
 56 60  1  0
 58 61  1  6
 60 62  1  0
 57 63  1  0
 58 64  1  0
 63 64  2  0
 60 65  2  0
 59 66  1  0
 65 67  1  0
 66 67  2  0
M  END
