x0426-x2908-x1458-x2694
     RDKit          3D

 61 67  0  0  0  0  0  0  0  0999 V2000
    7.9570   -0.6670   22.1560 N   0  0  0  0  0  0  0  0  0  0  0  0
    7.1850    0.5220   21.8040 C   0  0  1  0  0  0  0  0  0  0  0  0
    8.1050    1.6800   21.6910 C   0  0  0  0  0  0  0  0  0  0  0  0
    7.7630   -1.9000   21.5030 C   0  0  0  0  0  0  0  0  0  0  0  0
    9.1610   -0.5860   22.9980 C   0  0  2  0  0  0  0  0  0  0  0  0
    6.4640    0.6060   20.4380 C   0  0  0  0  0  0  0  0  0  0  0  0
    9.0620   -1.4850   23.9620 N   0  0  0  0  0  0  0  0  0  0  0  0
    9.9800    0.5730   23.8580 C   0  0  2  0  0  0  0  0  0  0  0  0
    7.5530   -3.2650   22.2690 C   0  0  2  0  0  0  0  0  0  0  0  0
    7.7290    2.7760   22.3830 N   0  0  0  0  0  0  0  0  0  0  0  0
    9.1170    1.6930   21.0490 O   0  0  0  0  0  0  0  0  0  0  0  0
    9.4470    2.0510   24.0890 C   0  0  0  0  0  0  0  0  0  0  0  0
    5.2930    1.3840   20.2210 C   0  0  0  0  0  0  0  0  0  0  0  0
    6.9120   -0.0590   19.2880 C   0  0  0  0  0  0  0  0  0  0  0  0
   10.1920   -1.5820   24.6740 O   0  0  0  0  0  0  0  0  0  0  0  0
   11.5260    0.7660   23.5550 C   0  0  0  0  0  0  0  0  0  0  0  0
    6.8040   -4.2130   21.6380 N   0  0  0  0  0  0  0  0  0  0  0  0
    7.1530   -3.0550   23.5720 C   0  0  0  0  0  0  0  0  0  0  0  0
    4.6200    2.2070   21.3300 C   0  0  0  0  0  0  0  0  0  0  0  0
    6.2920   -4.1710   20.3150 C   0  0  0  0  0  0  0  0  0  0  0  0
    6.3400   -0.0180   18.0390 N   0  0  0  0  0  0  0  0  0  0  0  0
    4.7240    1.4240   18.9720 C   0  0  0  0  0  0  0  0  0  0  0  0
   11.0220   -2.3550   23.9810 C   0  0  0  0  0  0  0  0  0  0  0  0
    9.7540    3.3300   23.1990 C   0  0  1  0  0  0  0  0  0  0  0  0
    8.6560    3.7640   22.4480 C   0  0  2  0  0  0  0  0  0  0  0  0
   12.5090   -0.2620   23.4890 C   0  0  1  0  0  0  0  0  0  0  0  0
    5.9310   -3.9350   23.9440 C   0  0  2  0  0  0  0  0  0  0  0  0
    6.5380   -5.4960   22.3180 C   0  0  0  0  0  0  0  0  0  0  0  0
   12.3480   -1.7230   23.8910 C   0  0  2  0  0  0  0  0  0  0  0  0
    4.0040    1.5270   22.3590 C   0  0  0  0  0  0  0  0  0  0  0  0
    5.3160   -4.8320   19.9830 O   0  0  0  0  0  0  0  0  0  0  0  0
    5.4760   -3.6900   25.3920 C   0  0  0  0  0  0  0  0  0  0  0  0
    7.0360   -3.3640   19.2580 C   0  0  0  0  0  0  0  0  0  0  0  0
    5.2570    0.7390   17.9520 C   0  0  0  0  0  0  0  0  0  0  0  0
   10.6600    4.3290   23.6530 C   0  0  0  0  0  0  0  0  0  0  0  0
    8.2090    5.0530   22.6520 C   0  0  0  0  0  0  0  0  0  0  0  0
   12.6220   -0.5680   22.1830 C   0  0  0  0  0  0  0  0  0  0  0  0
    6.2190   -5.3950   23.6330 C   0  0  0  0  0  0  0  0  0  0  0  0
   13.0620   -2.3080   22.8800 C   0  0  0  0  0  0  0  0  0  0  0  0
   13.1770   -2.0580   25.1160 C   0  0  0  0  0  0  0  0  0  0  0  0
    3.3890    2.2470   23.4760 N   0  0  0  0  0  0  0  0  0  0  0  0
    6.4020   -3.4450   26.5160 N   0  0  0  0  0  0  0  0  0  0  0  0
    4.1410   -3.6330   25.6410 O   0  0  0  0  0  0  0  0  0  0  0  0
   10.1650    5.5350   24.2060 C   0  0  2  0  0  0  0  0  0  0  0  0
    9.0230    5.9300   23.5600 C   0  0  0  0  0  0  0  0  0  0  0  0
   13.3290   -1.7000   21.7430 C   0  0  0  0  0  0  0  0  0  0  0  0
   11.0120    6.6060   24.2830 O   0  0  0  0  0  0  0  0  0  0  0  0
    2.1580    1.6690   24.0260 C   0  0  0  0  0  0  0  0  0  0  0  0
    6.0210   -4.2920   27.5260 C   0  0  0  0  0  0  0  0  0  0  0  0
    6.6490   -2.1650   26.8930 C   0  0  0  0  0  0  0  0  0  0  0  0
   11.9430    6.6110   25.3480 C   0  0  0  0  0  0  0  0  0  0  0  0
    1.9940    0.4490   23.9520 O   0  0  0  0  0  0  0  0  0  0  0  0
    6.8070   -4.3340   28.6220 C   0  0  0  0  0  0  0  0  0  0  0  0
    5.9930   -5.6830   27.2730 C   0  0  0  0  0  0  0  0  0  0  0  0
    1.1460    2.5140   24.6570 C   0  0  0  0  0  0  0  0  0  0  0  0
    1.4640    3.7530   25.2450 C   0  0  0  0  0  0  0  0  0  0  0  0
   -0.3260    2.0370   24.6840 C   0  0  0  0  0  0  0  0  0  0  0  0
    2.7260    4.2100   25.2440 F   0  0  0  0  0  0  0  0  0  0  0  0
   -1.4200    2.8850   25.3350 C   0  0  0  0  0  0  0  0  0  0  0  0
    0.5140    4.5680   25.8510 C   0  0  0  0  0  0  0  0  0  0  0  0
   -0.9430    4.1930   25.9300 C   0  0  0  0  0  0  0  0  0  0  0  0
  1  2  1  0
  2  3  1  0
  1  4  1  0
  1  5  1  0
  2  6  1  6
  5  7  1  1
  5  8  1  0
  9  4  1  6
  3 10  1  0
  3 11  2  0
  8 12  1  6
  6 13  1  0
  6 14  2  0
  7 15  1  0
  8 16  1  0
  9 17  1  0
  9 18  1  0
 13 19  1  0
 17 20  1  0
 14 21  1  0
 13 22  2  0
 15 23  1  0
 24 12  1  1
 10 25  1  0
 24 25  1  0
 26 16  1  6
 18 27  1  0
 17 28  1  0
 23 29  1  0
 26 29  1  0
 19 30  1  0
 20 31  2  0
 27 32  1  1
 20 33  1  0
 21 34  2  0
 22 34  1  0
 24 35  1  0
 25 36  1  1
 26 37  1  0
 27 38  1  0
 28 38  1  0
 29 39  1  0
 29 40  1  1
 30 41  1  0
 32 42  1  0
 32 43  2  0
 35 44  1  0
 36 45  2  0
 44 45  1  0
 37 46  1  0
 39 46  2  0
 44 47  1  6
 41 48  1  0
 42 49  1  0
 42 50  1  0
 47 51  1  0
 48 52  2  0
 49 53  1  0
 49 54  1  0
 48 55  1  0
 55 56  2  0
 55 57  1  0
 56 58  1  0
 57 59  2  0
 56 60  1  0
 59 61  1  0
 60 61  2  0
M  END
