x0426-x2705-x0689
     RDKit          3D

 61 67  0  0  0  0  0  0  0  0999 V2000
    6.7360   -1.3290   21.9410 C   0  0  1  0  0  0  0  0  0  0  0  0
    5.8870   -2.2760   20.9390 C   0  0  0  0  0  0  0  0  0  0  0  0
    4.7170   -2.8550   21.1040 O   0  0  0  0  0  0  0  0  0  0  0  0
    6.5250    0.0850   21.8560 C   0  0  1  0  0  0  0  0  0  0  0  0
    5.9020   -2.0690   23.0000 C   0  0  0  0  0  0  0  0  0  0  0  0
    8.2420   -1.4110   22.5250 C   0  0  0  0  0  0  0  0  0  0  0  0
    6.3710   -2.7040   19.7130 C   0  0  0  0  0  0  0  0  0  0  0  0
    7.6280    0.9890   22.0000 C   0  0  0  0  0  0  0  0  0  0  0  0
    5.3600   -3.3300   22.6000 C   0  0  0  0  0  0  0  0  0  0  0  0
    6.0680    0.4220   20.4070 C   0  0  0  0  0  0  0  0  0  0  0  0
    8.3950   -1.6620   23.9870 N   0  0  0  0  0  0  0  0  0  0  0  0
    9.5630   -1.2670   22.0320 C   0  0  0  0  0  0  0  0  0  0  0  0
    6.5730   -4.0860   20.1130 C   0  0  0  0  0  0  0  0  0  0  0  0
    7.4670    1.9740   22.9520 N   0  0  0  0  0  0  0  0  0  0  0  0
    8.6440    0.9400   21.3010 O   0  0  0  0  0  0  0  0  0  0  0  0
    4.7500    1.2280   20.1100 C   0  0  0  0  0  0  0  0  0  0  0  0
    6.8970    0.0130   19.1860 C   0  0  0  0  0  0  0  0  0  0  0  0
    9.7090   -1.6590   24.3590 N   0  0  0  0  0  0  0  0  0  0  0  0
   10.5820   -1.4100   23.2160 C   0  0  0  0  0  0  0  0  0  0  0  0
    6.2830   -4.3830   21.7530 C   0  0  0  0  0  0  0  0  0  0  0  0
   12.1180   -1.2860   23.1230 C   0  0  0  0  0  0  0  0  0  0  0  0
    3.8300    1.7030   21.0720 C   0  0  0  0  0  0  0  0  0  0  0  0
    6.4630    0.3790   17.8670 N   0  0  0  0  0  0  0  0  0  0  0  0
    4.4480    1.5150   18.8100 C   0  0  0  0  0  0  0  0  0  0  0  0
    8.1220    3.2450   22.9850 C   0  0  0  0  0  0  0  0  0  0  0  0
    5.6380   -5.7740   21.8260 C   0  0  0  0  0  0  0  0  0  0  0  0
    7.5280   -4.6690   22.6070 C   0  0  0  0  0  0  0  0  0  0  0  0
   12.5590    0.1500   23.5280 C   0  0  0  0  0  0  0  0  0  0  0  0
   12.7190   -2.2300   24.1180 C   0  0  0  0  0  0  0  0  0  0  0  0
   12.6690   -1.5890   21.8940 C   0  0  0  0  0  0  0  0  0  0  0  0
    4.2100    1.9870   22.5280 C   0  0  0  0  0  0  0  0  0  0  0  0
    5.2670    1.1140   17.7660 C   0  0  0  0  0  0  0  0  0  0  0  0
    9.4360    3.2920   23.5260 C   0  0  0  0  0  0  0  0  0  0  0  0
    7.4470    4.5300   22.4600 C   0  0  0  0  0  0  0  0  0  0  0  0
    5.0500   -6.0700   23.2030 C   0  0  0  0  0  0  0  0  0  0  0  0
    7.0960   -5.0070   24.0440 C   0  0  0  0  0  0  0  0  0  0  0  0
   10.1560    2.0370   24.0390 C   0  0  0  0  0  0  0  0  0  0  0  0
    6.0520    4.6780   21.8340 C   0  0  0  0  0  0  0  0  0  0  0  0
    3.1560    2.6650   23.0330 N   0  0  0  0  0  0  0  0  0  0  0  0
   10.1590    4.5080   23.6150 C   0  0  0  0  0  0  0  0  0  0  0  0
    8.2690    5.8100   22.5810 C   0  0  0  0  0  0  0  0  0  0  0  0
    5.6360   -5.3240   24.1690 N   0  0  0  0  0  0  0  0  0  0  0  0
    9.2350    1.2610   24.9980 C   0  0  0  0  0  0  0  0  0  0  0  0
    2.3370    2.0890   24.1280 C   0  0  0  0  0  0  0  0  0  0  0  0
    4.8410   -5.2640   25.6930 S   0  0  0  0  0  0  0  0  0  0  0  0
    9.6630    5.7260   23.1900 C   0  0  0  0  0  0  0  0  0  0  0  0
    2.5910    0.8680   24.6950 O   0  0  0  0  0  0  0  0  0  0  0  0
    4.1000   -6.4980   25.8350 O   0  0  0  0  0  0  0  0  0  0  0  0
    5.7810   -4.8400   26.6960 O   0  0  0  0  0  0  0  0  0  0  0  0
    1.1780    2.8740   24.6970 C   0  0  0  0  0  0  0  0  0  0  0  0
    3.6220   -4.1050   25.6670 C   0  0  0  0  0  0  0  0  0  0  0  0
    1.5390    4.1310   25.4320 C   0  0  0  0  0  0  0  0  0  0  0  0
   -0.1570    2.5130   24.5970 C   0  0  0  0  0  0  0  0  0  0  0  0
    4.0140   -2.4630   26.0980 S   0  0  0  0  0  0  0  0  0  0  0  0
    2.1300   -4.1640   25.3390 C   0  0  0  0  0  0  0  0  0  0  0  0
    2.8120    4.5330   25.5580 F   0  0  0  0  0  0  0  0  0  0  0  0
   -1.2220    3.2300   25.1380 C   0  0  0  0  0  0  0  0  0  0  0  0
    0.5100    4.8830   25.9890 C   0  0  0  0  0  0  0  0  0  0  0  0
    1.5210   -2.8500   25.4970 C   0  0  0  0  0  0  0  0  0  0  0  0
    2.4000   -1.8770   25.8910 C   0  0  0  0  0  0  0  0  0  0  0  0
   -0.9600    4.4030   25.8350 C   0  0  0  0  0  0  0  0  0  0  0  0
  1  2  1  0
  2  3  2  0
  1  4  1  0
  1  5  1  0
  1  6  1  1
  2  7  1  0
  4  8  1  6
  5  9  1  0
  4 10  1  0
  6 11  2  0
  6 12  1  0
  7 13  1  0
  8 14  1  0
  8 15  2  0
 10 16  1  0
 10 17  2  0
 11 18  1  0
 12 19  2  0
 18 19  1  0
 20  9  1  0
 13 20  1  0
 19 21  1  0
 16 22  1  0
 17 23  1  0
 16 24  2  0
 14 25  1  0
 20 26  1  0
 20 27  1  0
 21 28  1  0
 21 29  1  0
 21 30  1  0
 22 31  1  0
 23 32  2  0
 24 32  1  0
 25 33  2  0
 25 34  1  0
 26 35  1  0
 27 36  1  0
 33 37  1  0
 34 38  1  0
 31 39  1  0
 33 40  1  0
 34 41  2  0
 35 42  1  0
 36 42  1  0
 37 43  1  0
 39 44  1  0
 42 45  1  0
 40 46  2  0
 41 46  1  0
 44 47  2  0
 45 48  2  0
 45 49  2  0
 44 50  1  0
 45 51  1  0
 50 52  2  0
 50 53  1  0
 51 54  1  0
 51 55  2  0
 52 56  1  0
 53 57  2  0
 52 58  1  0
 55 59  1  0
 54 60  1  0
 59 60  2  0
 57 61  1  0
 58 61  2  0
M  END
