x0426-x3110-x0786
     RDKit          3D

 58 62  0  0  0  0  0  0  0  0999 V2000
    7.9840    1.1550   23.2960 N   0  0  0  0  0  0  0  0  0  0  0  0
    8.8170    2.3440   23.6280 C   0  0  0  0  0  0  0  0  0  0  0  0
   10.3400    2.0620   23.5540 C   0  0  0  0  0  0  0  0  0  0  0  0
    7.7810    0.7680   21.9060 C   0  0  0  0  0  0  0  0  0  0  0  0
    8.4970    1.2500   21.0080 O   0  0  0  0  0  0  0  0  0  0  0  0
    6.5850   -0.2140   21.6130 C   0  0  2  0  0  0  0  0  0  0  0  0
    6.9250   -1.5350   21.6970 N   0  0  0  0  0  0  0  0  0  0  0  0
   11.1190    3.2380   23.3460 C   0  0  0  0  0  0  0  0  0  0  0  0
    5.9900    0.3160   20.3340 C   0  0  0  0  0  0  0  0  0  0  0  0
   11.9870    3.1870   22.4840 O   0  0  0  0  0  0  0  0  0  0  0  0
   10.8080    4.1840   24.0780 O   0  0  0  0  0  0  0  0  0  0  0  0
    6.1090   -2.7390   21.4680 C   0  0  0  0  0  0  0  0  0  0  0  0
    4.7680    0.9820   20.2270 C   0  0  0  0  0  0  0  0  0  0  0  0
    6.8420    0.1040   19.1190 C   0  0  0  0  0  0  0  0  0  0  0  0
    8.1760   -1.6130   22.4060 C   0  0  0  0  0  0  0  0  0  0  0  0
   12.3220    4.4770   21.9520 C   0  0  0  0  0  0  0  0  0  0  0  0
    4.8640   -2.9960   21.0530 O   0  0  0  0  0  0  0  0  0  0  0  0
    6.8300   -4.0200   21.8050 C   0  0  2  0  0  0  0  0  0  0  0  0
    3.8780    1.2220   21.2660 C   0  0  0  0  0  0  0  0  0  0  0  0
    6.4890    0.5860   17.7800 N   0  0  0  0  0  0  0  0  0  0  0  0
    4.3800    1.4930   18.8760 C   0  0  0  0  0  0  0  0  0  0  0  0
    9.3160   -1.8880   21.6180 C   0  0  0  0  0  0  0  0  0  0  0  0
    8.3470   -1.4350   23.7380 C   0  0  0  0  0  0  0  0  0  0  0  0
   13.3960    5.1630   22.8810 C   0  0  0  0  0  0  0  0  0  0  0  0
    6.9390   -4.8900   20.5440 C   0  0  0  0  0  0  0  0  0  0  0  0
    4.2270    2.0460   22.3250 C   0  0  0  0  0  0  0  0  0  0  0  0
    5.2260    1.3140   17.6660 C   0  0  0  0  0  0  0  0  0  0  0  0
   10.8260   -2.0340   21.9600 C   0  0  0  0  0  0  0  0  0  0  0  0
    9.7190   -1.5290   24.2570 C   0  0  0  0  0  0  0  0  0  0  0  0
    6.0010   -4.4320   23.0280 C   0  0  0  0  0  0  0  0  0  0  0  0
    3.2020    2.7790   23.0410 N   0  0  0  0  0  0  0  0  0  0  0  0
   10.8270   -1.7910   23.4710 C   0  0  0  0  0  0  0  0  0  0  0  0
    5.0470   -5.6180   23.0260 C   0  0  0  0  0  0  0  0  0  0  0  0
    6.1050   -3.6760   24.1910 C   0  0  0  0  0  0  0  0  0  0  0  0
   12.1850   -1.8280   24.1480 C   0  0  0  0  0  0  0  0  0  0  0  0
    2.5520    2.1270   24.0750 C   0  0  0  0  0  0  0  0  0  0  0  0
    4.3110   -5.9030   24.1810 C   0  0  0  0  0  0  0  0  0  0  0  0
    5.3540   -4.0010   25.3130 C   0  0  0  0  0  0  0  0  0  0  0  0
   13.1300   -0.9280   23.6020 C   0  0  0  0  0  0  0  0  0  0  0  0
   12.4710   -0.6110   24.9430 C   0  0  0  0  0  0  0  0  0  0  0  0
   12.6270   -3.0500   24.9140 C   0  0  0  0  0  0  0  0  0  0  0  0
    2.9160    1.0480   24.5230 O   0  0  0  0  0  0  0  0  0  0  0  0
    3.3660   -7.0390   24.2330 C   0  0  0  0  0  0  0  0  0  0  0  0
    1.3660    2.8050   24.6860 C   0  0  0  0  0  0  0  0  0  0  0  0
    4.4680   -5.1020   25.3010 C   0  0  0  0  0  0  0  0  0  0  0  0
    3.7950   -8.0680   24.7410 O   0  0  0  0  0  0  0  0  0  0  0  0
    1.4650    3.9810   25.3180 C   0  0  0  0  0  0  0  0  0  0  0  0
   -0.0370    2.1710   24.6180 C   0  0  0  0  0  0  0  0  0  0  0  0
    2.1100   -6.9110   23.7680 N   0  0  0  0  0  0  0  0  0  0  0  0
    2.6590    4.5830   25.4110 F   0  0  0  0  0  0  0  0  0  0  0  0
   -1.2230    2.8760   25.2500 C   0  0  0  0  0  0  0  0  0  0  0  0
    0.3540    4.6280   25.9030 C   0  0  0  0  0  0  0  0  0  0  0  0
    1.6070   -5.5900   23.4040 C   0  0  0  0  0  0  0  0  0  0  0  0
    1.0640   -7.9520   23.8530 C   0  0  0  0  0  0  0  0  0  0  0  0
   -1.0190    4.0750   25.8740 C   0  0  0  0  0  0  0  0  0  0  0  0
    0.5620   -5.0700   24.4150 C   0  0  0  0  0  0  0  0  0  0  0  0
    0.0350   -7.5750   24.7400 C   0  0  0  0  0  0  0  0  0  0  0  0
   -0.8270   -6.0570   24.3770 S   0  0  0  0  0  0  0  0  0  0  0  0
  1  2  1  0
  2  3  1  0
  1  4  1  0
  4  5  2  0
  6  4  1  6
  6  7  1  0
  3  8  1  0
  6  9  1  0
  8 10  1  0
  8 11  2  0
  7 12  1  0
  9 13  1  0
  9 14  2  0
  7 15  1  0
 10 16  1  0
 12 17  2  0
 12 18  1  0
 13 19  1  0
 14 20  1  0
 13 21  2  0
 15 22  2  0
 15 23  1  0
 16 24  1  0
 18 25  1  6
 19 26  1  0
 20 27  2  0
 21 27  1  0
 22 28  1  0
 23 29  2  0
 18 30  1  0
 26 31  1  0
 28 32  2  0
 29 32  1  0
 30 33  2  0
 30 34  1  0
 32 35  1  0
 31 36  1  0
 33 37  1  0
 34 38  2  0
 35 39  1  0
 35 40  1  0
 35 41  1  0
 36 42  2  0
 37 43  1  0
 36 44  1  0
 37 45  2  0
 38 45  1  0
 43 46  2  0
 44 47  2  0
 44 48  1  0
 43 49  1  0
 47 50  1  0
 48 51  2  0
 47 52  1  0
 49 53  1  0
 49 54  1  0
 51 55  1  0
 52 55  2  0
 53 56  1  0
 54 57  1  0
 56 58  1  0
 57 58  1  0
M  END
