x0426-x0786-x3124
     RDKit          3D

 53 57  0  0  0  0  0  0  0  0999 V2000
    6.9770   -1.2720   21.8440 N   0  0  0  0  0  0  0  0  0  0  0  0
    6.6620    0.1480   21.6800 C   0  0  1  0  0  0  0  0  0  0  0  0
    7.8770    1.0890   22.0070 C   0  0  0  0  0  0  0  0  0  0  0  0
    5.8500   -2.1460   22.0240 C   0  0  0  0  0  0  0  0  0  0  0  0
    8.3020   -1.4540   22.4770 C   0  0  0  0  0  0  0  0  0  0  0  0
    6.1470   -3.5980   22.0370 N   0  0  0  0  0  0  0  0  0  0  0  0
    6.0910    0.4740   20.2720 C   0  0  0  0  0  0  0  0  0  0  0  0
    9.3490   -1.8850   21.7140 C   0  0  0  0  0  0  0  0  0  0  0  0
    8.5270   -1.1670   23.8290 C   0  0  0  0  0  0  0  0  0  0  0  0
    8.1360    1.5480   23.2590 N   0  0  0  0  0  0  0  0  0  0  0  0
    8.6640    1.5290   21.1490 O   0  0  0  0  0  0  0  0  0  0  0  0
    6.3580   -4.2450   20.8350 C   0  0  0  0  0  0  0  0  0  0  0  0
    4.7110    1.1030   20.1960 C   0  0  0  0  0  0  0  0  0  0  0  0
    6.8830    0.1840   19.1970 C   0  0  0  0  0  0  0  0  0  0  0  0
   10.7740   -2.0630   22.1980 C   0  0  0  0  0  0  0  0  0  0  0  0
    9.9240   -1.3020   24.4400 C   0  0  0  0  0  0  0  0  0  0  0  0
    5.6210   -4.1880   23.1820 C   0  0  0  0  0  0  0  0  0  0  0  0
    8.8490    2.6200   23.7660 C   0  0  0  0  0  0  0  0  0  0  0  0
    3.8250    1.3800   21.3860 C   0  0  0  0  0  0  0  0  0  0  0  0
    7.8270   -4.4320   20.6030 C   0  0  0  0  0  0  0  0  0  0  0  0
    5.4890   -4.6070   20.0040 O   0  0  0  0  0  0  0  0  0  0  0  0
    6.3530    0.5490   17.8790 N   0  0  0  0  0  0  0  0  0  0  0  0
    4.2780    1.4360   18.8180 C   0  0  0  0  0  0  0  0  0  0  0  0
   11.0060   -1.7210   23.6550 C   0  0  0  0  0  0  0  0  0  0  0  0
    4.7810   -5.2980   23.1180 C   0  0  0  0  0  0  0  0  0  0  0  0
    5.9730   -3.5790   24.4040 C   0  0  0  0  0  0  0  0  0  0  0  0
   12.4090   -1.8310   24.1650 C   0  0  0  0  0  0  0  0  0  0  0  0
    4.2890    2.3160   22.3000 C   0  0  0  0  0  0  0  0  0  0  0  0
    5.1480    1.1320   17.7960 C   0  0  0  0  0  0  0  0  0  0  0  0
    4.2630   -5.8140   24.3020 C   0  0  0  0  0  0  0  0  0  0  0  0
    5.4380   -4.1280   25.5590 C   0  0  0  0  0  0  0  0  0  0  0  0
   12.6050   -0.6830   24.9220 C   0  0  0  0  0  0  0  0  0  0  0  0
   13.3980   -1.7920   23.0310 C   0  0  0  0  0  0  0  0  0  0  0  0
   12.6840   -3.0340   24.9990 C   0  0  0  0  0  0  0  0  0  0  0  0
    3.1240    2.9290   22.9720 N   0  0  0  0  0  0  0  0  0  0  0  0
    3.3550   -6.9800   24.2700 C   0  0  0  0  0  0  0  0  0  0  0  0
    4.5910   -5.2290   25.5140 C   0  0  0  0  0  0  0  0  0  0  0  0
    2.4910    2.1760   24.0830 C   0  0  0  0  0  0  0  0  0  0  0  0
    3.8360   -8.1280   24.8060 O   0  0  0  0  0  0  0  0  0  0  0  0
    2.0660   -6.8730   23.7380 N   0  0  0  0  0  0  0  0  0  0  0  0
    2.9830    0.9510   24.6130 O   0  0  0  0  0  0  0  0  0  0  0  0
    1.2900    2.7940   24.6700 C   0  0  0  0  0  0  0  0  0  0  0  0
    1.5480   -5.5400   23.4400 C   0  0  0  0  0  0  0  0  0  0  0  0
    1.0660   -7.9430   23.8540 C   0  0  0  0  0  0  0  0  0  0  0  0
    1.4930    4.0140   25.3200 C   0  0  0  0  0  0  0  0  0  0  0  0
    0.0300    2.1950   24.5840 C   0  0  0  0  0  0  0  0  0  0  0  0
    0.6520   -5.1120   24.3840 C   0  0  0  0  0  0  0  0  0  0  0  0
   -0.0040   -7.7150   24.7540 C   0  0  0  0  0  0  0  0  0  0  0  0
    2.7160    4.5530   25.3770 F   0  0  0  0  0  0  0  0  0  0  0  0
   -1.1020    2.7860   25.1460 C   0  0  0  0  0  0  0  0  0  0  0  0
    0.4190    4.6950   25.9210 C   0  0  0  0  0  0  0  0  0  0  0  0
   -0.8590   -6.1320   24.3850 S   0  0  0  0  0  0  0  0  0  0  0  0
   -1.0250    4.1280   25.8910 C   0  0  0  0  0  0  0  0  0  0  0  0
  1  2  1  0
  2  3  1  6
  1  4  1  0
  1  5  1  0
  4  6  1  0
  2  7  1  0
  5  8  2  0
  5  9  1  0
  3 10  1  0
  3 11  2  0
  6 12  1  0
  7 13  1  0
  7 14  2  0
  8 15  1  0
  9 16  2  0
  6 17  1  0
 10 18  1  0
 13 19  1  0
 12 20  1  0
 12 21  2  0
 14 22  1  0
 13 23  2  0
 15 24  2  0
 16 24  1  0
 17 25  2  0
 17 26  1  0
 24 27  1  0
 19 28  1  0
 22 29  2  0
 23 29  1  0
 25 30  1  0
 26 31  2  0
 27 32  1  0
 27 33  1  0
 27 34  1  0
 28 35  1  0
 30 36  1  0
 30 37  2  0
 31 37  1  0
 35 38  1  0
 36 39  2  0
 36 40  1  0
 38 41  2  0
 38 42  1  0
 40 43  1  0
 40 44  1  0
 42 45  2  0
 42 46  1  0
 43 47  1  0
 44 48  1  0
 45 49  1  0
 46 50  2  0
 45 51  1  0
 47 52  1  0
 48 52  1  0
 50 53  1  0
 51 53  2  0
M  END
