x0426-x0771-x2694-x3124
     RDKit          3D

 64 69  0  0  0  0  0  0  0  0999 V2000
    7.5970   -0.9130   21.7460 N   0  0  0  0  0  0  0  0  0  0  0  0
    6.9870    0.3360   21.7750 C   0  0  1  0  0  0  0  0  0  0  0  0
    8.0570    1.4490   21.8470 C   0  0  0  0  0  0  0  0  0  0  0  0
    8.7340   -1.1410   22.5620 C   0  0  0  0  0  0  0  0  0  0  0  0
    6.2110    0.6370   20.4890 C   0  0  0  0  0  0  0  0  0  0  0  0
    8.8950   -1.4270   23.9700 N   0  0  0  0  0  0  0  0  0  0  0  0
    9.9950   -1.1140   22.0400 C   0  0  0  0  0  0  0  0  0  0  0  0
    7.7680    2.4110   22.8210 N   0  0  0  0  0  0  0  0  0  0  0  0
    9.0400    1.5240   21.1260 O   0  0  0  0  0  0  0  0  0  0  0  0
    4.9570    1.2540   20.3550 C   0  0  0  0  0  0  0  0  0  0  0  0
    6.9450    0.2090   19.2780 C   0  0  0  0  0  0  0  0  0  0  0  0
   10.2890   -1.5630   24.2620 O   0  0  0  0  0  0  0  0  0  0  0  0
   10.9670   -1.3730   23.0970 C   0  0  0  0  0  0  0  0  0  0  0  0
   12.4700   -1.4120   22.9590 C   0  0  0  0  0  0  0  0  0  0  0  0
    3.9960    1.7570   21.4290 C   0  0  0  0  0  0  0  0  0  0  0  0
    6.4510    0.4230   17.9280 N   0  0  0  0  0  0  0  0  0  0  0  0
    4.4170    1.4910   18.9700 C   0  0  0  0  0  0  0  0  0  0  0  0
    8.5590    3.5480   23.0720 C   0  0  0  0  0  0  0  0  0  0  0  0
   12.9780   -0.1480   23.3780 C   0  0  0  0  0  0  0  0  0  0  0  0
   12.9070   -1.6180   21.6720 C   0  0  0  0  0  0  0  0  0  0  0  0
   13.1200   -2.5600   23.7350 C   0  0  0  0  0  0  0  0  0  0  0  0
    4.3570    1.9940   22.7370 C   0  0  0  0  0  0  0  0  0  0  0  0
    5.1810    1.0790   17.7480 C   0  0  0  0  0  0  0  0  0  0  0  0
    9.7940    3.3350   23.6700 C   0  0  0  0  0  0  0  0  0  0  0  0
    8.1620    4.9230   22.7440 C   0  0  0  0  0  0  0  0  0  0  0  0
   10.3240    1.9740   24.0590 C   0  0  0  0  0  0  0  0  0  0  0  0
   12.5950   -2.6750   25.1460 C   0  0  0  0  0  0  0  0  0  0  0  0
    3.2950    2.5940   23.3280 N   0  0  0  0  0  0  0  0  0  0  0  0
   10.5660    4.4520   23.9160 C   0  0  0  0  0  0  0  0  0  0  0  0
    8.9410    5.9850   23.0060 C   0  0  0  0  0  0  0  0  0  0  0  0
    2.3180    1.9020   23.9870 C   0  0  0  0  0  0  0  0  0  0  0  0
   10.1970    5.8500   23.6120 C   0  0  0  0  0  0  0  0  0  0  0  0
   11.0950    6.8290   23.9430 O   0  0  0  0  0  0  0  0  0  0  0  0
    2.4170    0.5440   24.0590 N   0  0  0  0  0  0  0  0  0  0  0  0
    1.1890    2.6820   24.5990 C   0  0  0  0  0  0  0  0  0  0  0  0
   11.8700    6.6370   25.1200 C   0  0  0  0  0  0  0  0  0  0  0  0
    1.5000   -0.3230   24.6840 C   0  0  0  0  0  0  0  0  0  0  0  0
    1.5500    3.7950   25.2540 C   0  0  0  0  0  0  0  0  0  0  0  0
   -0.1340    2.2150   24.4650 C   0  0  0  0  0  0  0  0  0  0  0  0
    2.8330    4.1830   25.3450 F   0  0  0  0  0  0  0  0  0  0  0  0
    1.2350   -0.0610   26.0150 C   0  0  0  0  0  0  0  0  0  0  0  0
   -1.2930    2.9830   25.0920 C   0  0  0  0  0  0  0  0  0  0  0  0
    0.5790    4.5820   25.8690 C   0  0  0  0  0  0  0  0  0  0  0  0
    0.8620   -1.2400   26.6780 C   0  0  0  0  0  0  0  0  0  0  0  0
   -0.9010    4.2460   25.8420 C   0  0  0  0  0  0  0  0  0  0  0  0
    1.8610   -2.3880   26.4550 C   0  0  0  0  0  0  0  0  0  0  0  0
    1.3900   -3.6590   26.1810 C   0  0  0  0  0  0  0  0  0  0  0  0
    3.2210   -2.0840   26.5420 C   0  0  0  0  0  0  0  0  0  0  0  0
    2.3590   -4.8230   25.9510 C   0  0  0  0  0  0  0  0  0  0  0  0
    4.2610   -3.1850   26.3330 C   0  0  0  0  0  0  0  0  0  0  0  0
    1.8170   -6.1890   25.6450 C   0  0  0  0  0  0  0  0  0  0  0  0
    3.8640   -4.4950   26.0530 C   0  0  0  0  0  0  0  0  0  0  0  0
    5.1320   -5.7210   25.8350 S   0  0  0  0  0  0  0  0  0  0  0  0
    4.4720   -7.0130   25.8020 O   0  0  0  0  0  0  0  0  0  0  0  0
    6.1690   -5.4500   26.7990 O   0  0  0  0  0  0  0  0  0  0  0  0
    5.6860   -5.3750   24.2630 N   0  0  0  0  0  0  0  0  0  0  0  0
    5.0640   -6.0300   23.0730 C   0  0  0  0  0  0  0  0  0  0  0  0
    6.3020   -4.0580   23.9710 C   0  0  0  0  0  0  0  0  0  0  0  0
    5.9930   -6.2360   22.0510 C   0  0  0  0  0  0  0  0  0  0  0  0
    7.2930   -4.2380   22.8050 C   0  0  0  0  0  0  0  0  0  0  0  0
    6.7050   -4.9860   21.6750 N   0  0  0  0  0  0  0  0  0  0  0  0
    6.3710   -4.3420   20.4680 C   0  0  0  0  0  0  0  0  0  0  0  0
    5.3140   -4.5990   19.9190 O   0  0  0  0  0  0  0  0  0  0  0  0
    7.3450   -3.3280   19.8670 C   0  0  0  0  0  0  0  0  0  0  0  0
  2  1  1  6
  2  3  1  0
  1  4  1  0
  2  5  1  0
  4  6  2  0
  4  7  1  0
  3  8  1  0
  3  9  2  0
  5 10  1  0
  5 11  2  0
  6 12  1  0
  7 13  2  0
 12 13  1  0
 13 14  1  0
 10 15  1  0
 11 16  1  0
 10 17  2  0
  8 18  1  0
 14 19  1  0
 14 20  1  0
 14 21  1  0
 15 22  1  0
 16 23  2  0
 17 23  1  0
 18 24  2  0
 18 25  1  0
 24 26  1  0
 21 27  1  0
 22 28  1  0
 24 29  1  0
 25 30  2  0
 28 31  1  0
 29 32  2  0
 30 32  1  0
 32 33  1  0
 31 34  2  3
 31 35  1  0
 33 36  1  0
 34 37  1  0
 35 38  2  0
 35 39  1  0
 38 40  1  0
 37 41  1  0
 39 42  2  0
 38 43  1  0
 41 44  1  0
 42 45  1  0
 43 45  2  0
 44 46  1  0
 46 47  2  0
 46 48  1  0
 47 49  1  0
 48 50  2  0
 49 51  1  0
 49 52  2  0
 50 52  1  0
 53 52  1  0
 53 54  2  0
 53 55  2  0
 53 56  1  0
 56 57  1  0
 56 58  1  0
 57 59  1  0
 58 60  1  0
 59 61  1  0
 60 61  1  0
 61 62  1  0
 62 63  2  0
 62 64  1  0
M  END
