x0426-x0736-x2776-x3115
     RDKit          3D

 57 62  0  0  0  0  0  0  0  0999 V2000
    7.8680    1.8300   22.8010 N   0  0  0  0  0  0  0  0  0  0  0  0
    8.0030    0.8070   21.8550 C   0  0  0  0  0  0  0  0  0  0  0  0
    8.9970    0.5530   21.2080 O   0  0  0  0  0  0  0  0  0  0  0  0
    8.5800    3.0430   22.9790 C   0  0  0  0  0  0  0  0  0  0  0  0
    6.7540   -0.0850   21.6050 C   0  0  1  0  0  0  0  0  0  0  0  0
    9.8850    3.0020   23.5150 C   0  0  0  0  0  0  0  0  0  0  0  0
    7.9480    4.3890   22.6080 C   0  0  0  0  0  0  0  0  0  0  0  0
   10.5800    1.7280   23.8770 C   0  0  0  0  0  0  0  0  0  0  0  0
    6.1510    0.3700   20.2660 C   0  0  0  0  0  0  0  0  0  0  0  0
   10.6030    4.1710   23.7350 C   0  0  0  0  0  0  0  0  0  0  0  0
    8.7870    5.6360   22.8630 C   0  0  0  0  0  0  0  0  0  0  0  0
    6.9580   -1.6510   21.9920 C   0  0  2  0  0  0  0  0  0  0  0  0
    8.2500    7.0270   22.5140 C   0  0  0  0  0  0  0  0  0  0  0  0
    4.8650    0.9480   20.1790 C   0  0  0  0  0  0  0  0  0  0  0  0
    6.9080    0.2070   19.1140 C   0  0  0  0  0  0  0  0  0  0  0  0
   10.0710    5.5630   23.4200 C   0  0  0  0  0  0  0  0  0  0  0  0
    8.3130   -2.4040   22.5520 C   0  0  1  0  0  0  0  0  0  0  0  0
    6.0750   -2.6700   21.2960 N   0  0  0  0  0  0  0  0  0  0  0  0
   10.8860    6.6520   23.6970 O   0  0  0  0  0  0  0  0  0  0  0  0
    3.9560    1.1440   21.2840 C   0  0  0  0  0  0  0  0  0  0  0  0
    6.2190   -3.2900   20.0060 C   0  0  0  0  0  0  0  0  0  0  0  0
    6.4180    0.6500   17.8090 N   0  0  0  0  0  0  0  0  0  0  0  0
    4.4060    1.3700   18.9300 C   0  0  0  0  0  0  0  0  0  0  0  0
    9.3650   -2.0430   21.7750 C   0  0  0  0  0  0  0  0  0  0  0  0
    8.5650   -2.5670   23.9070 C   0  0  2  0  0  0  0  0  0  0  0  0
    8.0610   -3.6260   22.1590 N   0  0  0  0  0  0  0  0  0  0  0  0
    5.6430   -3.6410   22.2890 C   0  0  0  0  0  0  0  0  0  0  0  0
   11.7800    6.5400   24.8090 C   0  0  0  0  0  0  0  0  0  0  0  0
    4.3230    2.1050   22.4070 C   0  0  0  0  0  0  0  0  0  0  0  0
    7.2830   -2.9340   18.9570 C   0  0  0  0  0  0  0  0  0  0  0  0
    5.4170   -4.1930   19.7560 O   0  0  0  0  0  0  0  0  0  0  0  0
    7.4660   -2.0670   24.8490 C   0  0  0  0  0  0  0  0  0  0  0  0
    5.1950    1.2140   17.8010 C   0  0  0  0  0  0  0  0  0  0  0  0
   10.5550   -1.6210   22.3200 C   0  0  0  0  0  0  0  0  0  0  0  0
    9.8260   -2.1780   24.4540 C   0  0  0  0  0  0  0  0  0  0  0  0
    6.9100   -4.3430   22.7460 C   0  0  0  0  0  0  0  0  0  0  0  0
    3.3890    2.6430   23.1500 N   0  0  0  0  0  0  0  0  0  0  0  0
    6.1530   -2.6320   24.7970 O   0  0  0  0  0  0  0  0  0  0  0  0
   10.7760   -1.5140   23.6880 C   0  0  1  0  0  0  0  0  0  0  0  0
    7.7670   -1.0640   25.7920 C   0  0  0  0  0  0  0  0  0  0  0  0
   12.2110   -1.8860   23.9040 C   0  0  2  0  0  0  0  0  0  0  0  0
    2.3090    1.8600   23.7800 C   0  0  0  0  0  0  0  0  0  0  0  0
    8.4170    0.0460   25.2730 O   0  0  0  0  0  0  0  0  0  0  0  0
    7.5900   -0.8460   27.2660 C   0  0  0  0  0  0  0  0  0  0  0  0
   12.2650   -2.4840   24.9840 O   0  0  0  0  0  0  0  0  0  0  0  0
   13.0040   -0.6190   23.7270 C   0  0  0  0  0  0  0  0  0  0  0  0
    2.2580    0.4980   23.7240 O   0  0  0  0  0  0  0  0  0  0  0  0
    1.2310    2.5960   24.5090 C   0  0  0  0  0  0  0  0  0  0  0  0
    8.1560    0.3560   27.4820 C   0  0  0  0  0  0  0  0  0  0  0  0
    8.6410    0.8840   26.3030 C   0  0  0  0  0  0  0  0  0  0  0  0
   13.5760   -2.8560   25.3620 C   0  0  0  0  0  0  0  0  0  0  0  0
    1.5590    3.7860   25.1820 C   0  0  0  0  0  0  0  0  0  0  0  0
   -0.0630    2.0600   24.4870 C   0  0  0  0  0  0  0  0  0  0  0  0
    2.8140    4.2610   25.1760 F   0  0  0  0  0  0  0  0  0  0  0  0
   -1.0880    2.7190   25.1540 C   0  0  0  0  0  0  0  0  0  0  0  0
    0.5990    4.5280   25.8850 C   0  0  0  0  0  0  0  0  0  0  0  0
   -0.8550    4.0180   25.9180 C   0  0  0  0  0  0  0  0  0  0  0  0
  1  2  1  0
  2  3  2  0
  1  4  1  0
  5  2  1  6
  4  6  2  0
  4  7  1  0
  6  8  1  0
  5  9  1  0
  6 10  1  0
  7 11  2  0
  5 12  1  0
 11 13  1  0
  9 14  1  0
  9 15  2  0
 10 16  2  0
 11 16  1  0
 12 17  1  0
 12 18  1  6
 16 19  1  0
 14 20  1  0
 18 21  1  0
 15 22  1  0
 14 23  2  0
 17 24  1  6
 17 25  1  0
 17 26  1  0
 18 27  1  0
 19 28  1  0
 20 29  1  0
 21 30  1  0
 21 31  2  0
 25 32  1  1
 22 33  2  0
 23 33  1  0
 24 34  2  0
 25 35  1  0
 26 36  1  0
 27 36  1  0
 29 37  1  0
 32 38  2  0
 39 34  1  6
 35 39  1  0
 32 40  1  0
 39 41  1  0
 37 42  1  0
 40 43  1  0
 40 44  2  0
 41 45  1  0
 41 46  1  1
 42 47  2  0
 42 48  1  0
 44 49  1  0
 43 50  1  0
 49 50  2  0
 45 51  1  0
 48 52  2  0
 48 53  1  0
 52 54  1  0
 53 55  2  0
 52 56  1  0
 55 57  1  0
 56 57  2  0
M  END
