x0434-x0749
     RDKit          3D

 33 38  0  0  0  0  0  0  0  0999 V2000
    7.4610   -3.2060   19.2060 C   0  0  0  0  0  0  0  0  0  0  0  0
    6.3730   -3.8790   20.1130 C   0  0  0  0  0  0  0  0  0  0  0  0
    5.2640   -4.1900   19.7070 O   0  0  0  0  0  0  0  0  0  0  0  0
    6.6590   -4.1740   21.4400 N   0  0  0  0  0  0  0  0  0  0  0  0
    7.9940   -3.9670   21.9070 C   0  0  0  0  0  0  0  0  0  0  0  0
    6.0400   -5.3780   21.9740 C   0  0  0  0  0  0  0  0  0  0  0  0
    8.1340   -3.9420   23.4240 C   0  0  1  0  0  0  0  0  0  0  0  0
    6.9520   -6.0900   22.9870 C   0  0  0  0  0  0  0  0  0  0  0  0
    7.5610   -5.2110   24.1240 C   0  0  0  0  0  0  0  0  0  0  0  0
    9.5080   -3.7380   23.4140 C   0  0  1  0  0  0  0  0  0  0  0  0
   10.0940   -2.4960   23.3260 C   0  0  1  0  0  0  0  0  0  0  0  0
   10.1110   -4.4410   24.8700 S   0  0  0  0  0  0  0  0  0  0  0  0
    9.8190   -1.4740   22.2700 N   0  0  0  0  0  0  0  0  0  0  0  0
   10.9050   -3.0380   25.3530 C   0  0  2  0  0  0  0  0  0  0  0  0
   10.3480   -1.9600   24.7250 C   0  0  1  0  0  0  0  0  0  0  0  0
    8.6740   -0.5730   21.7560 C   0  0  0  0  0  0  0  0  0  0  0  0
   11.0890   -0.7230   24.7370 C   0  0  1  0  0  0  0  0  0  0  0  0
   12.3720   -3.2240   25.0630 C   0  0  0  0  0  0  0  0  0  0  0  0
   10.9510   -0.6530   22.4220 C   0  0  1  0  0  0  0  0  0  0  0  0
    8.8630    0.8380   21.7760 O   0  0  0  0  0  0  0  0  0  0  0  0
    7.6590   -0.9750   21.2790 N   0  0  0  0  0  0  0  0  0  0  0  0
   12.5190   -0.9140   25.0410 C   0  0  0  0  0  0  0  0  0  0  0  0
   13.1310   -2.1660   25.2000 C   0  0  0  0  0  0  0  0  0  0  0  0
   11.0110    0.1300   23.6140 C   0  0  2  0  0  0  0  0  0  0  0  0
   12.2320   -1.1720   22.1560 C   0  0  0  0  0  0  0  0  0  0  0  0
   12.3710    0.8680   23.3650 C   0  0  0  0  0  0  0  0  0  0  0  0
   13.1320   -0.0470   22.4430 C   0  0  0  0  0  0  0  0  0  0  0  0
    6.8530   -0.2860   20.2670 C   0  0  0  0  0  0  0  0  0  0  0  0
    5.7110    0.4720   20.5820 C   0  0  0  0  0  0  0  0  0  0  0  0
    7.1790   -0.3390   18.9130 C   0  0  0  0  0  0  0  0  0  0  0  0
    4.8720    1.1800   19.6990 C   0  0  0  0  0  0  0  0  0  0  0  0
    6.4040    0.3350   17.9960 N   0  0  0  0  0  0  0  0  0  0  0  0
    5.2990    1.0710   18.3090 C   0  0  0  0  0  0  0  0  0  0  0  0
  1  2  1  0
  2  3  2  0
  2  4  1  0
  4  5  1  0
  4  6  1  0
  7  5  1  6
  6  8  1  0
  7  9  1  0
  8  9  1  0
  7 10  1  0
 10 11  1  0
 10 12  1  1
 11 13  1  1
 12 14  1  0
 11 15  1  0
 15 14  1  1
 13 16  1  0
 15 17  1  0
 14 18  1  6
 13 19  1  0
 16 20  2  0
 16 21  1  0
 17 22  1  6
 18 23  1  0
 22 23  2  0
 17 24  1  0
 19 24  1  0
 19 25  1  1
 24 26  1  6
 25 27  1  0
 26 27  2  0
 21 28  1  0
 28 29  2  0
 28 30  1  0
 29 31  1  0
 30 32  2  0
 31 33  2  0
 32 33  1  0
M  END
