x0434-x0978
     RDKit          3D

 33 34  0  0  0  0  0  0  0  0999 V2000
    1.9520   -5.7140   23.1400 N   0  0  0  0  0  0  0  0  0  0  0  0
    3.2060   -6.4810   23.1760 C   0  0  2  0  0  0  0  0  0  0  0  0
    3.3330   -7.2640   24.4950 C   0  0  1  0  0  0  0  0  0  0  0  0
    0.7200   -6.2350   22.5130 C   0  0  0  0  0  0  0  0  0  0  0  0
    0.6960   -7.2980   21.9010 O   0  0  0  0  0  0  0  0  0  0  0  0
   -0.4150   -5.4230   22.6660 C   0  0  0  0  0  0  0  0  0  0  0  0
    4.3780   -5.4760   22.9780 C   0  0  0  0  0  0  0  0  0  0  0  0
    2.1150   -8.1910   24.7390 C   0  0  0  0  0  0  0  0  0  0  0  0
    4.4500   -7.7440   24.5450 O   0  0  0  0  0  0  0  0  0  0  0  0
    5.2900   -5.7400   21.8200 N   0  0  0  0  0  0  0  0  0  0  0  0
    4.4960   -4.5270   23.7420 O   0  0  0  0  0  0  0  0  0  0  0  0
    6.4210   -4.7980   21.5580 C   0  0  1  0  0  0  0  0  0  0  0  0
    6.4730   -4.3620   20.0520 C   0  0  0  0  0  0  0  0  0  0  0  0
    6.3250   -3.6470   22.5930 C   0  0  0  0  0  0  0  0  0  0  0  0
    5.3490   -3.5610   19.4600 C   0  0  0  0  0  0  0  0  0  0  0  0
    7.2330   -2.6240   22.3350 C   0  0  0  0  0  0  0  0  0  0  0  0
    6.5640   -1.5220   21.7770 C   0  0  0  0  0  0  0  0  0  0  0  0
    7.2450   -0.6230   21.0600 N   0  0  0  0  0  0  0  0  0  0  0  0
    8.3750   -0.0750   21.4950 C   0  0  0  0  0  0  0  0  0  0  0  0
    6.5770   -0.0040   19.9970 C   0  0  0  0  0  0  0  0  0  0  0  0
    8.7600    1.1980   21.1080 O   0  0  0  0  0  0  0  0  0  0  0  0
    9.1200   -0.8330   22.3150 N   0  0  0  0  0  0  0  0  0  0  0  0
    5.4060    0.7100   20.2240 C   0  0  0  0  0  0  0  0  0  0  0  0
    6.8950    0.0380   18.6830 C   0  0  0  0  0  0  0  0  0  0  0  0
   10.5030   -0.4910   22.5440 C   0  0  0  0  0  0  0  0  0  0  0  0
    4.7010    1.3660   19.2160 C   0  0  0  0  0  0  0  0  0  0  0  0
    6.3140    0.6120   17.6900 N   0  0  0  0  0  0  0  0  0  0  0  0
   10.7890    0.7890   23.0190 C   0  0  0  0  0  0  0  0  0  0  0  0
   11.4590   -1.3680   22.2910 C   0  0  0  0  0  0  0  0  0  0  0  0
    5.1730    1.2980   18.0120 C   0  0  0  0  0  0  0  0  0  0  0  0
   12.1040    1.1560   23.2240 C   0  0  0  0  0  0  0  0  0  0  0  0
   12.8100   -1.0610   22.4810 C   0  0  0  0  0  0  0  0  0  0  0  0
   13.1340    0.2140   22.9480 C   0  0  0  0  0  0  0  0  0  0  0  0
  2  1  1  1
  2  3  1  0
  1  4  1  0
  4  5  2  0
  4  6  1  0
  2  7  1  0
  3  8  1  6
  3  9  1  0
  7 10  1  0
  7 11  2  0
 10 12  1  0
 12 13  1  6
 12 14  1  0
 13 15  2  3
 14 16  1  0
 16 17  1  0
 17 18  1  0
 18 19  1  0
 18 20  1  0
 19 21  2  0
 19 22  1  0
 20 23  2  0
 20 24  1  0
 22 25  1  0
 23 26  1  0
 24 27  2  0
 25 28  2  0
 25 29  1  0
 26 30  2  0
 27 30  1  0
 28 31  1  0
 29 32  2  0
 31 33  2  0
 32 33  1  0
M  END
