x0434-x1336
     RDKit          3D

 36 39  0  0  0  0  0  0  0  0999 V2000
    6.1170   -5.4800   29.0360 C   0  0  0  0  0  0  0  0  0  0  0  0
    7.0370   -4.9000   28.0030 C   0  0  0  0  0  0  0  0  0  0  0  0
    8.2680   -5.5460   27.7560 C   0  0  0  0  0  0  0  0  0  0  0  0
    6.7070   -3.7330   27.2750 C   0  0  0  0  0  0  0  0  0  0  0  0
    7.7160   -3.2340   26.2530 C   0  0  0  0  0  0  0  0  0  0  0  0
    9.2370   -5.1270   26.8220 C   0  0  0  0  0  0  0  0  0  0  0  0
    7.2860   -1.6950   25.3170 S   0  0  0  0  0  0  0  0  0  0  0  0
    9.0290   -4.0020   26.0580 C   0  0  0  0  0  0  0  0  0  0  0  0
    8.4950   -0.9120   25.2380 O   0  0  0  0  0  0  0  0  0  0  0  0
    6.0860   -1.1220   25.8860 O   0  0  0  0  0  0  0  0  0  0  0  0
   10.0580   -3.5190   25.0560 C   0  0  0  0  0  0  0  0  0  0  0  0
    6.9520   -2.1160   23.7270 N   0  0  0  0  0  0  0  0  0  0  0  0
    5.7870   -2.7390   23.3430 C   0  0  0  0  0  0  0  0  0  0  0  0
    7.9950   -1.9660   22.7120 C   0  0  2  0  0  0  0  0  0  0  0  0
    7.9090   -0.7460   21.8210 C   0  0  1  0  0  0  0  0  0  0  0  0
    6.1470   -3.8760   22.5910 C   0  0  0  0  0  0  0  0  0  0  0  0
    8.1220   -2.9620   21.7880 C   0  0  0  0  0  0  0  0  0  0  0  0
    7.8200    0.2700   22.5000 O   0  0  0  0  0  0  0  0  0  0  0  0
    9.2780   -0.6030   21.3630 N   0  0  0  0  0  0  0  0  0  0  0  0
    6.9010   -0.9830   20.9050 N   0  0  0  0  0  0  0  0  0  0  0  0
    7.0040   -3.6670   21.4370 N   0  0  0  0  0  0  0  0  0  0  0  0
    6.5080   -3.7110   20.1140 C   0  0  0  0  0  0  0  0  0  0  0  0
   10.4390   -0.4600   22.1330 C   0  0  0  0  0  0  0  0  0  0  0  0
    6.3250   -0.1400   19.9370 C   0  0  0  0  0  0  0  0  0  0  0  0
    5.4280   -4.2490   19.8300 O   0  0  0  0  0  0  0  0  0  0  0  0
    7.3990   -3.1440   19.0190 C   0  0  0  0  0  0  0  0  0  0  0  0
   10.5580    0.6230   23.0260 C   0  0  0  0  0  0  0  0  0  0  0  0
   11.4580   -1.3770   22.0030 C   0  0  0  0  0  0  0  0  0  0  0  0
    5.1550    0.5960   20.2000 C   0  0  0  0  0  0  0  0  0  0  0  0
    6.8990   -0.0260   18.6860 C   0  0  0  0  0  0  0  0  0  0  0  0
   11.8480    0.7550   23.8420 C   0  0  0  0  0  0  0  0  0  0  0  0
   12.7210   -1.3030   22.7610 C   0  0  0  0  0  0  0  0  0  0  0  0
    4.5610    1.4260   19.2460 C   0  0  0  0  0  0  0  0  0  0  0  0
    6.4160    0.7400   17.7030 N   0  0  0  0  0  0  0  0  0  0  0  0
   12.9610   -0.3070   23.6550 C   0  0  0  0  0  0  0  0  0  0  0  0
    5.2980    1.4170   18.0070 C   0  0  0  0  0  0  0  0  0  0  0  0
  1  2  1  0
  2  3  2  0
  2  4  1  0
  4  5  2  0
  3  6  1  0
  7  5  1  0
  5  8  1  0
  6  8  2  0
  7  9  2  0
  7 10  2  0
  8 11  1  0
  7 12  1  0
 12 13  1  0
 12 14  1  0
 14 15  1  0
 13 16  1  0
 14 17  1  6
 15 18  1  1
 15 19  1  0
 15 20  1  0
 16 21  1  0
 17 21  1  0
 21 22  1  0
 19 23  1  0
 20 24  1  0
 22 25  2  0
 22 26  1  0
 23 27  2  0
 23 28  1  0
 24 29  2  0
 24 30  1  0
 27 31  1  0
 28 32  2  0
 29 33  1  0
 30 34  2  0
 31 35  2  0
 32 35  1  0
 33 36  2  0
 34 36  1  0
M  END
