x0434-x1425
     RDKit          3D

 34 37  0  0  0  0  0  0  0  0999 V2000
    1.2850   -2.3340   28.3430 C   0  0  0  0  0  0  0  0  0  0  0  0
    2.6910   -2.0360   28.3510 O   0  0  0  0  0  0  0  0  0  0  0  0
    3.3510   -2.5800   27.2090 C   0  0  0  0  0  0  0  0  0  0  0  0
    4.6560   -2.1410   27.0730 C   0  0  0  0  0  0  0  0  0  0  0  0
    2.8800   -3.5040   26.1870 C   0  0  0  0  0  0  0  0  0  0  0  0
    5.4660   -2.5670   26.0150 C   0  0  0  0  0  0  0  0  0  0  0  0
    3.6780   -3.9290   25.1370 C   0  0  0  0  0  0  0  0  0  0  0  0
    4.9750   -3.4570   25.0570 C   0  0  0  0  0  0  0  0  0  0  0  0
    5.7270   -3.9710   23.9180 N   0  0  0  0  0  0  0  0  0  0  0  0
    6.9750   -3.3100   23.5400 C   0  0  0  0  0  0  0  0  0  0  0  0
    5.4310   -5.0980   23.2450 C   0  0  0  0  0  0  0  0  0  0  0  0
    7.1430   -3.1250   22.0650 C   0  0  2  0  0  0  0  0  0  0  0  0
    6.2750   -5.3580   22.1660 C   0  0  0  0  0  0  0  0  0  0  0  0
    6.3400   -1.7950   21.8490 C   0  0  0  0  0  0  0  0  0  0  0  0
    6.6620   -4.1900   21.3980 N   0  0  0  0  0  0  0  0  0  0  0  0
    6.1960   -3.9870   20.1190 C   0  0  0  0  0  0  0  0  0  0  0  0
    6.9920   -0.8420   21.1350 N   0  0  0  0  0  0  0  0  0  0  0  0
    5.1200   -4.4490   19.7970 O   0  0  0  0  0  0  0  0  0  0  0  0
    7.0940   -3.2290   19.1470 C   0  0  0  0  0  0  0  0  0  0  0  0
    8.2540   -0.4290   21.5120 C   0  0  0  0  0  0  0  0  0  0  0  0
    6.3940   -0.0900   20.1060 C   0  0  0  0  0  0  0  0  0  0  0  0
    8.7940    0.6370   21.2390 O   0  0  0  0  0  0  0  0  0  0  0  0
    9.1640   -1.2520   22.3590 N   0  0  0  0  0  0  0  0  0  0  0  0
    5.2200    0.6580   20.3320 C   0  0  0  0  0  0  0  0  0  0  0  0
    6.9390   -0.0580   18.8210 C   0  0  0  0  0  0  0  0  0  0  0  0
   10.4240   -0.7230   22.6490 C   0  0  0  0  0  0  0  0  0  0  0  0
    4.6700    1.3680   19.3390 C   0  0  0  0  0  0  0  0  0  0  0  0
    6.4330    0.6890   17.6320 N   0  0  0  0  0  0  0  0  0  0  0  0
   10.5500    0.4520   23.4030 C   0  0  0  0  0  0  0  0  0  0  0  0
   11.5400   -1.3930   22.1630 C   0  0  0  0  0  0  0  0  0  0  0  0
    5.2160    1.4130   18.0400 C   0  0  0  0  0  0  0  0  0  0  0  0
   11.8850    1.0100   23.6880 C   0  0  0  0  0  0  0  0  0  0  0  0
   12.7610   -0.8430   22.4520 C   0  0  0  0  0  0  0  0  0  0  0  0
   12.9080    0.2540   23.1450 C   0  0  0  0  0  0  0  0  0  0  0  0
  1  2  1  0
  2  3  1  0
  3  4  2  0
  3  5  1  0
  4  6  1  0
  5  7  2  0
  6  8  2  0
  7  8  1  0
  8  9  1  0
  9 10  1  0
  9 11  1  0
 10 12  1  0
 11 13  1  0
 12 14  1  6
 12 15  1  0
 13 15  1  0
 15 16  1  0
 14 17  1  0
 16 18  2  0
 16 19  1  0
 17 20  1  0
 17 21  1  0
 20 22  2  0
 20 23  1  0
 21 24  2  0
 21 25  1  0
 23 26  1  0
 24 27  1  0
 25 28  2  0
 26 29  2  0
 26 30  1  0
 27 31  2  0
 28 31  1  0
 29 32  1  0
 30 33  2  0
 32 34  2  0
 33 34  1  0
M  END
