x0434-x1351
     RDKit          3D

 35 38  0  0  0  0  0  0  0  0999 V2000
    6.9810   -3.2720   19.2160 C   0  0  0  0  0  0  0  0  0  0  0  0
    6.1280   -4.0150   20.2430 C   0  0  0  0  0  0  0  0  0  0  0  0
    5.1610   -4.6510   19.8760 O   0  0  0  0  0  0  0  0  0  0  0  0
    6.5070   -3.9760   21.5730 N   0  0  0  0  0  0  0  0  0  0  0  0
    7.1480   -2.9170   22.2020 C   0  0  1  0  0  0  0  0  0  0  0  0
    5.9970   -4.9610   22.3010 C   0  0  0  0  0  0  0  0  0  0  0  0
    6.5160   -1.7030   21.9270 C   0  0  0  0  0  0  0  0  0  0  0  0
    7.3660   -3.0080   23.5590 C   0  0  0  0  0  0  0  0  0  0  0  0
    5.4400   -4.3930   23.4360 C   0  0  0  0  0  0  0  0  0  0  0  0
    7.1500   -0.8340   21.2130 N   0  0  0  0  0  0  0  0  0  0  0  0
    6.4460   -3.8360   24.2390 C   0  0  2  0  0  0  0  0  0  0  0  0
    5.9260   -2.9800   25.3150 N   0  0  0  0  0  0  0  0  0  0  0  0
    8.4660   -0.3760   21.6480 C   0  0  0  0  0  0  0  0  0  0  0  0
    6.4010   -0.0590   20.2260 C   0  0  0  0  0  0  0  0  0  0  0  0
    6.8250   -2.3790   26.3050 C   0  0  0  0  0  0  0  0  0  0  0  0
    9.0440    0.6770   21.4040 O   0  0  0  0  0  0  0  0  0  0  0  0
    9.1790   -1.1970   22.4480 N   0  0  0  0  0  0  0  0  0  0  0  0
    5.2270    0.6690   20.4400 C   0  0  0  0  0  0  0  0  0  0  0  0
    6.9610   -0.0440   18.8170 C   0  0  0  0  0  0  0  0  0  0  0  0
    7.8900   -2.9160   26.6580 O   0  0  0  0  0  0  0  0  0  0  0  0
    6.4120   -1.0650   26.8970 C   0  0  0  0  0  0  0  0  0  0  0  0
   10.4120   -0.6590   22.6960 C   0  0  0  0  0  0  0  0  0  0  0  0
    4.6000    1.3970   19.3630 C   0  0  0  0  0  0  0  0  0  0  0  0
    6.4590    0.6060   17.7390 N   0  0  0  0  0  0  0  0  0  0  0  0
    6.9890   -0.6580   28.0930 C   0  0  0  0  0  0  0  0  0  0  0  0
    5.4810   -0.1640   26.3750 C   0  0  0  0  0  0  0  0  0  0  0  0
   10.6020    0.4790   23.4860 C   0  0  0  0  0  0  0  0  0  0  0  0
   11.5270   -1.2740   22.1320 C   0  0  0  0  0  0  0  0  0  0  0  0
    5.2030    1.3990   17.9410 C   0  0  0  0  0  0  0  0  0  0  0  0
    6.7040    0.5330   28.7640 C   0  0  0  0  0  0  0  0  0  0  0  0
    5.1670    1.0380   27.0130 C   0  0  0  0  0  0  0  0  0  0  0  0
   11.8680    0.9950   23.6950 C   0  0  0  0  0  0  0  0  0  0  0  0
   12.7770   -0.7370   22.3600 C   0  0  0  0  0  0  0  0  0  0  0  0
    5.7650    1.4150   28.2160 C   0  0  0  0  0  0  0  0  0  0  0  0
   12.9790    0.3870   23.1230 C   0  0  0  0  0  0  0  0  0  0  0  0
  1  2  1  0
  2  3  2  0
  2  4  1  0
  4  5  1  0
  4  6  1  0
  5  7  1  1
  5  8  1  0
  6  9  1  0
  7 10  1  0
  8 11  1  0
  9 11  1  0
 11 12  1  1
 10 13  1  0
 10 14  1  0
 12 15  1  0
 13 16  2  0
 13 17  1  0
 14 18  2  0
 14 19  1  0
 15 20  2  0
 15 21  1  0
 17 22  1  0
 18 23  1  0
 19 24  2  0
 21 25  2  0
 21 26  1  0
 22 27  2  0
 22 28  1  0
 23 29  2  0
 24 29  1  0
 25 30  1  0
 26 31  2  0
 27 32  1  0
 28 33  2  0
 30 34  2  0
 31 34  1  0
 32 35  2  0
 33 35  1  0
M  END
