x0434-x0734
     RDKit          3D

 35 38  0  0  0  0  0  0  0  0999 V2000
    5.1540   -4.5860   26.0400 N   0  0  0  0  0  0  0  0  0  0  0  0
    6.5220   -4.8710   26.0990 C   0  0  0  0  0  0  0  0  0  0  0  0
    7.1210   -5.4340   27.2320 C   0  0  0  0  0  0  0  0  0  0  0  0
    4.4200   -5.4930   25.6150 O   0  0  0  0  0  0  0  0  0  0  0  0
    4.7580   -3.6400   26.7340 O   0  0  0  0  0  0  0  0  0  0  0  0
    7.3360   -4.5320   24.8510 C   0  0  0  0  0  0  0  0  0  0  0  0
    8.6940   -4.8200   24.8930 C   0  0  0  0  0  0  0  0  0  0  0  0
    8.4880   -5.6920   27.2010 C   0  0  0  0  0  0  0  0  0  0  0  0
    6.6130   -3.9710   23.8070 N   0  0  0  0  0  0  0  0  0  0  0  0
    9.2620   -5.3990   26.0570 C   0  0  0  0  0  0  0  0  0  0  0  0
    5.8170   -4.8730   23.1530 C   0  0  0  0  0  0  0  0  0  0  0  0
    7.2780   -2.9360   22.9120 C   0  0  2  0  0  0  0  0  0  0  0  0
    6.2790   -1.8880   22.3480 C   0  0  0  0  0  0  0  0  0  0  0  0
    6.3390   -5.5450   21.9380 C   0  0  0  0  0  0  0  0  0  0  0  0
    7.9750   -3.7000   22.0050 C   0  0  0  0  0  0  0  0  0  0  0  0
    6.9790   -0.9880   21.3340 N   0  0  0  0  0  0  0  0  0  0  0  0
    7.0010   -4.4830   21.2090 N   0  0  0  0  0  0  0  0  0  0  0  0
    6.4370   -3.9650   20.0280 C   0  0  0  0  0  0  0  0  0  0  0  0
    8.2650   -0.3670   21.6230 C   0  0  0  0  0  0  0  0  0  0  0  0
    6.2920   -0.2620   20.2850 C   0  0  0  0  0  0  0  0  0  0  0  0
    5.2610   -4.1840   19.7410 O   0  0  0  0  0  0  0  0  0  0  0  0
    7.3980   -3.2040   19.1040 C   0  0  0  0  0  0  0  0  0  0  0  0
    8.5540    0.7600   21.1950 O   0  0  0  0  0  0  0  0  0  0  0  0
    9.2020   -1.1300   22.4490 N   0  0  0  0  0  0  0  0  0  0  0  0
    5.0850    0.4180   20.3820 C   0  0  0  0  0  0  0  0  0  0  0  0
    6.9120   -0.2310   19.0570 C   0  0  0  0  0  0  0  0  0  0  0  0
   10.6120   -0.6460   22.5790 C   0  0  0  0  0  0  0  0  0  0  0  0
    4.5900    1.0480   19.3480 C   0  0  0  0  0  0  0  0  0  0  0  0
    6.3550    0.4600   17.9550 N   0  0  0  0  0  0  0  0  0  0  0  0
   10.6930    0.6550   23.0920 C   0  0  0  0  0  0  0  0  0  0  0  0
   11.7600   -1.3410   22.2380 C   0  0  0  0  0  0  0  0  0  0  0  0
    5.1700    1.1120   18.1100 C   0  0  0  0  0  0  0  0  0  0  0  0
   12.0090    1.1620   23.2090 C   0  0  0  0  0  0  0  0  0  0  0  0
   12.9900   -0.8570   22.3560 C   0  0  0  0  0  0  0  0  0  0  0  0
   13.2130    0.4430   22.8510 C   0  0  0  0  0  0  0  0  0  0  0  0
  1  2  1  0
  2  3  2  0
  1  4  2  0
  1  5  1  0
  2  6  1  0
  6  7  2  0
  3  8  1  0
  6  9  1  0
  7 10  1  0
  8 10  2  0
  9 11  1  0
  9 12  1  0
 12 13  1  6
 11 14  1  0
 12 15  1  0
 13 16  1  0
 14 17  1  0
 15 17  1  0
 17 18  1  0
 16 19  1  0
 16 20  1  0
 18 21  2  0
 18 22  1  0
 19 23  2  0
 19 24  1  0
 20 25  2  0
 20 26  1  0
 24 27  1  0
 25 28  1  0
 26 29  2  0
 27 30  2  0
 27 31  1  0
 28 32  2  0
 29 32  1  0
 30 33  1  0
 31 34  2  0
 33 35  2  0
 34 35  1  0
M  CHG  2   1   1   5  -1
M  END
