x0434-x2754
     RDKit          3D

 36 39  0  0  0  0  0  0  0  0999 V2000
    5.1100   -3.2090   25.2890 C   0  0  0  0  0  0  0  0  0  0  0  0
    5.6830   -2.9700   26.5410 N   0  0  0  0  0  0  0  0  0  0  0  0
    5.0600   -2.1310   27.5870 C   0  0  0  0  0  0  0  0  0  0  0  0
    3.7700   -2.9130   24.8680 O   0  0  0  0  0  0  0  0  0  0  0  0
    5.9360   -3.8760   24.1870 C   0  0  2  0  0  0  0  0  0  0  0  0
    6.9040   -3.0060   23.6240 C   0  0  0  0  0  0  0  0  0  0  0  0
    5.1690   -4.5300   23.2240 C   0  0  0  0  0  0  0  0  0  0  0  0
    6.9110   -3.5920   26.8190 C   0  0  0  0  0  0  0  0  0  0  0  0
    6.9690   -2.9400   22.2290 C   0  0  2  0  0  0  0  0  0  0  0  0
    6.0250   -5.1430   22.3370 C   0  0  0  0  0  0  0  0  0  0  0  0
    7.0850   -4.7200   27.6190 C   0  0  0  0  0  0  0  0  0  0  0  0
    8.0490   -3.0360   26.2320 C   0  0  0  0  0  0  0  0  0  0  0  0
    6.3400   -1.7790   21.7550 C   0  0  0  0  0  0  0  0  0  0  0  0
    6.4920   -4.0130   21.5490 N   0  0  0  0  0  0  0  0  0  0  0  0
    8.3620   -5.2650   27.8140 C   0  0  0  0  0  0  0  0  0  0  0  0
    9.3180   -3.5610   26.4120 C   0  0  0  0  0  0  0  0  0  0  0  0
    6.1450   -3.9480   20.2020 C   0  0  0  0  0  0  0  0  0  0  0  0
    7.0600   -0.8340   21.0730 N   0  0  0  0  0  0  0  0  0  0  0  0
    9.4740   -4.6830   27.2110 C   0  0  0  0  0  0  0  0  0  0  0  0
    5.1390   -4.5240   19.8360 O   0  0  0  0  0  0  0  0  0  0  0  0
    7.0570   -3.2030   19.2210 C   0  0  0  0  0  0  0  0  0  0  0  0
    8.3200   -0.3130   21.6000 C   0  0  0  0  0  0  0  0  0  0  0  0
    6.3860   -0.0970   20.1030 C   0  0  0  0  0  0  0  0  0  0  0  0
    8.6590    0.8420   21.3240 O   0  0  0  0  0  0  0  0  0  0  0  0
    9.1120   -1.0890   22.3700 N   0  0  0  0  0  0  0  0  0  0  0  0
    5.1980    0.6080   20.3460 C   0  0  0  0  0  0  0  0  0  0  0  0
    6.9430   -0.0650   18.8230 C   0  0  0  0  0  0  0  0  0  0  0  0
   10.4030   -0.7200   22.6340 C   0  0  0  0  0  0  0  0  0  0  0  0
    4.5610    1.4030   19.1800 C   0  0  0  0  0  0  0  0  0  0  0  0
    6.3950    0.6750   17.6490 N   0  0  0  0  0  0  0  0  0  0  0  0
   10.5970    0.3920   23.4370 C   0  0  0  0  0  0  0  0  0  0  0  0
   11.5050   -1.4110   22.1120 C   0  0  0  0  0  0  0  0  0  0  0  0
    5.1470    1.4130   17.9400 C   0  0  0  0  0  0  0  0  0  0  0  0
   11.8650    0.8330   23.7180 C   0  0  0  0  0  0  0  0  0  0  0  0
   12.7910   -0.9560   22.4040 C   0  0  0  0  0  0  0  0  0  0  0  0
   12.9570    0.1690   23.2030 C   0  0  0  0  0  0  0  0  0  0  0  0
  1  2  1  0
  2  3  1  0
  1  4  2  0
  5  1  1  1
  5  6  1  0
  5  7  1  0
  2  8  1  0
  6  9  1  0
  7 10  1  0
  8 11  2  0
  8 12  1  0
  9 13  1  6
  9 14  1  0
 10 14  1  0
 11 15  1  0
 12 16  2  0
 14 17  1  0
 13 18  1  0
 15 19  2  0
 16 19  1  0
 17 20  2  0
 17 21  1  0
 18 22  1  0
 18 23  1  0
 22 24  2  0
 22 25  1  0
 23 26  2  0
 23 27  1  0
 25 28  1  0
 26 29  1  0
 27 30  2  0
 28 31  2  0
 28 32  1  0
 29 33  2  0
 30 33  1  0
 31 34  1  0
 32 35  2  0
 34 36  2  0
 35 36  1  0
M  END
