x0434-x1348
     RDKit          3D

 33 36  0  0  0  0  0  0  0  0999 V2000
    6.9800   -3.8450   21.4290 N   0  0  0  0  0  0  0  0  0  0  0  0
    6.4330   -3.8030   20.1320 C   0  0  0  0  0  0  0  0  0  0  0  0
    5.3410   -4.2710   19.8090 O   0  0  0  0  0  0  0  0  0  0  0  0
    7.6690   -2.7120   21.8400 C   0  0  0  0  0  0  0  0  0  0  0  0
    6.4130   -4.5710   22.4580 C   0  0  0  0  0  0  0  0  0  0  0  0
    7.3420   -3.1570   19.0850 C   0  0  0  0  0  0  0  0  0  0  0  0
    6.7120   -1.5310   21.7180 C   0  0  0  0  0  0  0  0  0  0  0  0
    6.8930   -4.4760   23.6920 N   0  0  0  0  0  0  0  0  0  0  0  0
    5.0650   -5.6230   22.2590 S   0  0  0  0  0  0  0  0  0  0  0  0
    7.2160   -0.5590   20.9430 N   0  0  0  0  0  0  0  0  0  0  0  0
    6.1600   -5.2360   24.4900 C   0  0  0  0  0  0  0  0  0  0  0  0
    5.0900   -5.9650   23.9430 C   0  0  0  0  0  0  0  0  0  0  0  0
    8.4140    0.0500   21.4740 C   0  0  0  0  0  0  0  0  0  0  0  0
    6.4170   -5.3240   25.8420 C   0  0  0  0  0  0  0  0  0  0  0  0
    4.2440   -6.7920   24.6960 C   0  0  0  0  0  0  0  0  0  0  0  0
    6.3770    0.1490   19.9780 C   0  0  0  0  0  0  0  0  0  0  0  0
    7.3560   -4.6940   26.3560 O   0  0  0  0  0  0  0  0  0  0  0  0
    8.9020    1.1690   21.2450 O   0  0  0  0  0  0  0  0  0  0  0  0
    9.1690   -0.6670   22.3230 N   0  0  0  0  0  0  0  0  0  0  0  0
    4.4200   -6.9430   26.0720 C   0  0  0  0  0  0  0  0  0  0  0  0
    5.4740   -6.2390   26.6660 C   0  0  0  0  0  0  0  0  0  0  0  0
    5.1870    0.8090   20.1870 C   0  0  0  0  0  0  0  0  0  0  0  0
    6.8640    0.1470   18.7120 C   0  0  0  0  0  0  0  0  0  0  0  0
    7.9030   -5.3290   27.4010 C   0  0  0  0  0  0  0  0  0  0  0  0
   10.5050   -0.3920   22.5140 C   0  0  0  0  0  0  0  0  0  0  0  0
    4.5960    1.4230   19.0930 C   0  0  0  0  0  0  0  0  0  0  0  0
    6.3230    0.7140   17.6890 N   0  0  0  0  0  0  0  0  0  0  0  0
   10.8420    0.8610   23.0260 C   0  0  0  0  0  0  0  0  0  0  0  0
   11.4960   -1.2280   22.2300 C   0  0  0  0  0  0  0  0  0  0  0  0
    5.1410    1.3770   17.9150 C   0  0  0  0  0  0  0  0  0  0  0  0
   12.1390    1.2560   23.2330 C   0  0  0  0  0  0  0  0  0  0  0  0
   12.8490   -0.9080   22.4110 C   0  0  0  0  0  0  0  0  0  0  0  0
   13.1790    0.3470   22.9140 C   0  0  0  0  0  0  0  0  0  0  0  0
  1  2  1  0
  2  3  2  0
  1  4  1  0
  1  5  1  0
  2  6  1  0
  4  7  1  0
  5  8  2  0
  5  9  1  0
  7 10  1  0
  8 11  1  0
  9 12  1  0
 11 12  2  0
 10 13  1  0
 11 14  1  0
 12 15  1  0
 10 16  1  0
 14 17  1  0
 13 18  2  0
 13 19  1  0
 15 20  2  0
 14 21  2  0
 20 21  1  0
 16 22  2  0
 16 23  1  0
 17 24  1  0
 19 25  1  0
 22 26  1  0
 23 27  2  0
 25 28  2  0
 25 29  1  0
 26 30  2  0
 27 30  1  0
 28 31  1  0
 29 32  2  0
 31 33  2  0
 32 33  1  0
M  END
