x0434-x1334
     RDKit          3D

 32 36  0  0  0  0  0  0  0  0999 V2000
    7.5110   -2.9590   18.6590 C   0  0  0  0  0  0  0  0  0  0  0  0
    6.6380   -3.0760   19.8830 C   0  0  0  0  0  0  0  0  0  0  0  0
    5.7130   -3.9370   19.7610 O   0  0  0  0  0  0  0  0  0  0  0  0
    6.9850   -2.1590   21.1710 C   0  0  2  0  0  0  0  0  0  0  0  0
    6.9290   -0.7830   20.9550 N   0  0  0  0  0  0  0  0  0  0  0  0
    8.4650   -2.2400   21.5640 C   0  0  1  0  0  0  0  0  0  0  0  0
    6.1050   -2.6460   22.3780 C   0  0  0  0  0  0  0  0  0  0  0  0
    8.0620   -0.1060   21.4000 C   0  0  0  0  0  0  0  0  0  0  0  0
    8.9450   -1.0070   22.1240 N   0  0  0  0  0  0  0  0  0  0  0  0
    8.7760   -3.1530   22.4350 C   0  0  0  0  0  0  0  0  0  0  0  0
    6.9280   -2.9980   23.5000 C   0  0  0  0  0  0  0  0  0  0  0  0
    6.2610   -0.0710   19.9450 C   0  0  0  0  0  0  0  0  0  0  0  0
    8.3170    1.0810   21.1950 O   0  0  0  0  0  0  0  0  0  0  0  0
    8.2490   -2.6950   23.5300 N   0  0  0  0  0  0  0  0  0  0  0  0
   10.2680   -0.6350   22.4890 C   0  0  0  0  0  0  0  0  0  0  0  0
    5.0140    0.5410   20.0840 C   0  0  0  0  0  0  0  0  0  0  0  0
    6.8420    0.0820   18.7240 C   0  0  0  0  0  0  0  0  0  0  0  0
    9.1730   -2.7090   24.6630 C   0  0  0  0  0  0  0  0  0  0  0  0
   10.5100    0.4830   23.3130 C   0  0  0  0  0  0  0  0  0  0  0  0
   11.3250   -1.3220   22.0650 C   0  0  0  0  0  0  0  0  0  0  0  0
    4.4720    1.2520   19.0070 C   0  0  0  0  0  0  0  0  0  0  0  0
    6.2950    0.8030   17.6240 N   0  0  0  0  0  0  0  0  0  0  0  0
    9.0630   -3.8140   25.5610 C   0  0  0  0  0  0  0  0  0  0  0  0
   11.7900    0.8780   23.6760 C   0  0  0  0  0  0  0  0  0  0  0  0
   12.6590   -0.9900   22.3880 C   0  0  0  0  0  0  0  0  0  0  0  0
    5.1030    1.3520   17.8820 C   0  0  0  0  0  0  0  0  0  0  0  0
    9.9100   -4.8940   25.7880 C   0  0  0  0  0  0  0  0  0  0  0  0
    7.6730   -3.8840   26.5560 S   0  0  0  0  0  0  0  0  0  0  0  0
   12.9070    0.1220   23.2000 C   0  0  0  0  0  0  0  0  0  0  0  0
    8.1940   -5.3130   27.2530 C   0  0  0  0  0  0  0  0  0  0  0  0
    9.4070   -5.7770   26.7670 C   0  0  0  0  0  0  0  0  0  0  0  0
    7.2340   -6.1050   28.4930 Cl  0  0  0  0  0  0  0  0  0  0  0  0
  1  2  1  0
  2  3  2  0
  4  2  1  6
  4  5  1  0
  4  6  1  0
  4  7  1  0
  5  8  1  0
  6  9  1  0
  8  9  1  0
  6 10  1  1
  7 11  1  0
  5 12  1  0
  8 13  2  0
 10 14  1  0
 11 14  1  0
  9 15  1  0
 12 16  2  0
 12 17  1  0
 14 18  1  0
 15 19  2  0
 15 20  1  0
 16 21  1  0
 17 22  2  0
 18 23  1  0
 19 24  1  0
 20 25  2  0
 21 26  2  0
 22 26  1  0
 23 27  2  0
 23 28  1  0
 24 29  2  0
 25 29  1  0
 28 30  1  0
 27 31  1  0
 30 31  2  0
 30 32  1  0
M  END
