x0434-x1412
     RDKit          3D

 32 35  0  0  0  0  0  0  0  0999 V2000
    7.4750   -3.0060   18.9440 C   0  0  0  0  0  0  0  0  0  0  0  0
    6.5040   -3.4010   20.0520 C   0  0  0  0  0  0  0  0  0  0  0  0
    5.4870   -4.0400   19.7240 O   0  0  0  0  0  0  0  0  0  0  0  0
    6.7490   -3.1460   21.4150 N   0  0  0  0  0  0  0  0  0  0  0  0
    7.6610   -2.1250   21.9880 C   0  0  2  0  0  0  0  0  0  0  0  0
    6.3430   -4.0310   22.3420 C   0  0  0  0  0  0  0  0  0  0  0  0
    7.9950   -0.9460   21.4370 C   0  0  2  0  0  0  0  0  0  0  0  0
    8.8790   -2.8880   22.3900 C   0  0  0  0  0  0  0  0  0  0  0  0
    7.4460   -4.5930   23.0110 C   0  0  0  0  0  0  0  0  0  0  0  0
    8.7100   -0.7890   20.5090 O   0  0  0  0  0  0  0  0  0  0  0  0
    8.8720   -0.3320   22.4920 N   0  0  0  0  0  0  0  0  0  0  0  0
    7.0070   -0.0800   21.2640 N   0  0  0  0  0  0  0  0  0  0  0  0
    8.4140   -3.7420   23.4340 N   0  0  0  0  0  0  0  0  0  0  0  0
    8.3470   -3.2010   24.7130 C   0  0  0  0  0  0  0  0  0  0  0  0
   10.2860   -0.1170   22.5990 C   0  0  0  0  0  0  0  0  0  0  0  0
    6.3850    0.4210   20.1490 C   0  0  0  0  0  0  0  0  0  0  0  0
    8.1710   -1.9840   24.9420 O   0  0  0  0  0  0  0  0  0  0  0  0
    8.5080   -4.1360   25.7620 C   0  0  0  0  0  0  0  0  0  0  0  0
   10.7650    1.0920   23.0690 C   0  0  0  0  0  0  0  0  0  0  0  0
   11.2800   -1.0760   22.2560 C   0  0  0  0  0  0  0  0  0  0  0  0
    5.2140    1.1750   20.2340 C   0  0  0  0  0  0  0  0  0  0  0  0
    6.9440    0.1760   18.8660 C   0  0  0  0  0  0  0  0  0  0  0  0
    9.3100   -5.2260   25.5710 C   0  0  0  0  0  0  0  0  0  0  0  0
    7.7820   -4.0810   27.3190 S   0  0  0  0  0  0  0  0  0  0  0  0
   12.1340    1.3240   23.1920 C   0  0  0  0  0  0  0  0  0  0  0  0
   12.6590   -0.8650   22.3740 C   0  0  0  0  0  0  0  0  0  0  0  0
    4.6480    1.6620   19.0950 C   0  0  0  0  0  0  0  0  0  0  0  0
    6.3640    0.6800   17.7180 N   0  0  0  0  0  0  0  0  0  0  0  0
    8.5630   -5.5330   27.7100 C   0  0  0  0  0  0  0  0  0  0  0  0
    9.3670   -6.0720   26.6950 C   0  0  0  0  0  0  0  0  0  0  0  0
   13.0710    0.3650   22.8530 C   0  0  0  0  0  0  0  0  0  0  0  0
    5.1540    1.4640   17.8530 C   0  0  0  0  0  0  0  0  0  0  0  0
  1  2  1  0
  2  3  2  0
  2  4  1  0
  4  5  1  0
  4  6  1  0
  5  7  1  0
  5  8  1  6
  6  9  1  0
  7 10  1  6
  7 11  1  0
  7 12  1  0
  8 13  1  0
  9 13  1  0
 13 14  1  0
 11 15  1  0
 12 16  1  0
 14 17  2  0
 14 18  1  0
 15 19  2  0
 15 20  1  0
 16 21  2  0
 16 22  1  0
 18 23  2  0
 18 24  1  0
 19 25  1  0
 20 26  2  0
 21 27  1  0
 22 28  2  0
 24 29  1  0
 23 30  1  0
 29 30  2  0
 25 31  2  0
 26 31  1  0
 27 32  2  0
 28 32  1  0
M  END
