x0434-x1392
     RDKit          3D

 29 34  0  0  0  0  0  0  0  0999 V2000
    5.8290   -3.9800   19.8530 O   0  0  0  0  0  0  0  0  0  0  0  0
    6.7590   -3.1070   20.0270 C   0  0  0  0  0  0  0  0  0  0  0  0
    7.6550   -2.9610   18.8240 C   0  0  0  0  0  0  0  0  0  0  0  0
    7.0670   -2.1900   21.3510 C   0  0  2  0  0  0  0  0  0  0  0  0
    6.7400   -0.8170   21.1330 N   0  0  0  0  0  0  0  0  0  0  0  0
    8.6440   -2.0450   21.6130 C   0  0  1  0  0  0  0  0  0  0  0  0
    6.3850   -2.6970   22.4770 C   0  0  0  0  0  0  0  0  0  0  0  0
    7.8710   -0.0220   21.5580 C   0  0  0  0  0  0  0  0  0  0  0  0
    8.7310   -0.7800   22.3680 N   0  0  0  0  0  0  0  0  0  0  0  0
    9.4380   -2.6020   22.6720 C   0  0  2  0  0  0  0  0  0  0  0  0
    7.2910   -3.6290   23.3170 C   0  0  0  0  0  0  0  0  0  0  0  0
    6.1750   -0.1280   20.0570 C   0  0  0  0  0  0  0  0  0  0  0  0
    8.1170    1.3210   21.1590 O   0  0  0  0  0  0  0  0  0  0  0  0
    8.7940   -3.5990   23.3560 C   0  0  0  0  0  0  0  0  0  0  0  0
    6.6220   -4.6630   24.1970 C   0  0  0  0  0  0  0  0  0  0  0  0
   10.0570   -0.0410   22.6100 C   0  0  0  0  0  0  0  0  0  0  0  0
   10.5310   -1.6030   22.7960 C   0  0  0  0  0  0  0  0  0  0  0  0
    4.8220    0.6160   20.1310 C   0  0  0  0  0  0  0  0  0  0  0  0
    6.8290    0.0160   18.7360 C   0  0  0  0  0  0  0  0  0  0  0  0
    7.4610   -5.5100   24.9550 C   0  0  0  0  0  0  0  0  0  0  0  0
    9.6240   -4.5620   24.1460 C   0  0  0  0  0  0  0  0  0  0  0  0
   11.8110   -2.1070   23.0730 C   0  0  0  0  0  0  0  0  0  0  0  0
   11.3200    0.5670   22.8440 C   0  0  0  0  0  0  0  0  0  0  0  0
    4.2870    1.4050   18.9380 C   0  0  0  0  0  0  0  0  0  0  0  0
    6.3350    0.7530   17.6100 N   0  0  0  0  0  0  0  0  0  0  0  0
    8.8730   -5.4580   24.9010 C   0  0  0  0  0  0  0  0  0  0  0  0
   12.9470   -1.3890   23.2600 C   0  0  0  0  0  0  0  0  0  0  0  0
   12.7050    0.0420   23.1490 C   0  0  0  0  0  0  0  0  0  0  0  0
    5.0740    1.4420   17.7330 C   0  0  0  0  0  0  0  0  0  0  0  0
  1  2  2  0
  2  3  1  0
  4  2  1  6
  4  5  1  0
  4  6  1  0
  4  7  1  0
  5  8  1  0
  6  9  1  1
  8  9  1  0
  6 10  1  0
  7 11  1  0
  5 12  1  0
  8 13  2  0
 10 14  1  1
 11 14  2  0
 11 15  1  0
  9 16  1  0
 10 17  1  0
 16 17  2  0
 12 18  2  0
 12 19  1  0
 15 20  2  0
 14 21  1  0
 17 22  1  0
 16 23  1  0
 18 24  1  0
 19 25  2  0
 20 26  1  0
 21 26  2  0
 22 27  2  0
 23 28  2  0
 27 28  1  0
 24 29  2  0
 25 29  1  0
M  END
