x0434-x0820
     RDKit          3D

 33 36  0  0  0  0  0  0  0  0999 V2000
    6.8440   -5.0500   21.7780 N   0  0  0  0  0  0  0  0  0  0  0  0
    7.3350   -4.2830   22.8260 C   0  0  1  0  0  0  0  0  0  0  0  0
    7.4780   -2.7840   22.5480 C   0  0  0  0  0  0  0  0  0  0  0  0
    6.3000   -4.6270   20.5330 C   0  0  0  0  0  0  0  0  0  0  0  0
    5.3240   -5.1540   20.0280 O   0  0  0  0  0  0  0  0  0  0  0  0
    6.9780   -3.5220   19.7130 C   0  0  0  0  0  0  0  0  0  0  0  0
    6.4100   -4.3860   24.0500 C   0  0  0  0  0  0  0  0  0  0  0  0
    8.9640   -2.4680   22.3430 C   0  0  0  0  0  0  0  0  0  0  0  0
    6.9050   -4.4200   25.3470 C   0  0  0  0  0  0  0  0  0  0  0  0
    4.8810   -4.4500   23.8330 C   0  0  0  0  0  0  0  0  0  0  0  0
    9.1690   -1.0300   22.3110 N   0  0  0  0  0  0  0  0  0  0  0  0
    5.9640   -4.5150   26.3800 C   0  0  0  0  0  0  0  0  0  0  0  0
    3.9820   -4.5470   24.9890 C   0  0  0  0  0  0  0  0  0  0  0  0
    8.2820   -4.3680   25.7150 C   0  0  0  0  0  0  0  0  0  0  0  0
    8.2830   -0.1800   21.5610 C   0  0  0  0  0  0  0  0  0  0  0  0
    4.5640   -4.5780   26.2600 C   0  0  0  0  0  0  0  0  0  0  0  0
    6.4040   -4.5630   27.8470 C   0  0  0  0  0  0  0  0  0  0  0  0
    8.6870   -4.4140   27.0580 C   0  0  0  0  0  0  0  0  0  0  0  0
   10.4310   -0.6040   22.6160 C   0  0  0  0  0  0  0  0  0  0  0  0
    8.5620    0.9380   21.1370 O   0  0  0  0  0  0  0  0  0  0  0  0
    7.0840   -0.5450   21.2770 N   0  0  0  0  0  0  0  0  0  0  0  0
    7.7640   -4.5110   28.1040 C   0  0  0  0  0  0  0  0  0  0  0  0
   10.6180    0.5220   23.4080 C   0  0  0  0  0  0  0  0  0  0  0  0
   11.5230   -1.3130   22.1100 C   0  0  0  0  0  0  0  0  0  0  0  0
   11.9050    0.9290   23.6690 C   0  0  0  0  0  0  0  0  0  0  0  0
   12.8110   -0.8830   22.3900 C   0  0  0  0  0  0  0  0  0  0  0  0
    6.3660    0.1560   20.2400 C   0  0  0  0  0  0  0  0  0  0  0  0
   12.9920    0.2420   23.1650 C   0  0  0  0  0  0  0  0  0  0  0  0
    5.2090    0.9190   20.3650 C   0  0  0  0  0  0  0  0  0  0  0  0
    6.9170    0.0680   18.8380 C   0  0  0  0  0  0  0  0  0  0  0  0
    4.6060    1.5740   19.2400 C   0  0  0  0  0  0  0  0  0  0  0  0
    6.4030    0.6910   17.6180 N   0  0  0  0  0  0  0  0  0  0  0  0
    5.2000    1.4760   17.8230 C   0  0  0  0  0  0  0  0  0  0  0  0
  1  2  1  0
  2  3  1  6
  1  4  1  0
  4  5  2  0
  4  6  1  0
  2  7  1  0
  3  8  1  0
  7  9  1  0
  7 10  2  0
  8 11  1  0
  9 12  2  0
 10 13  1  0
  9 14  1  0
 11 15  1  0
 12 16  1  0
 13 16  2  0
 12 17  1  0
 14 18  2  0
 11 19  1  0
 15 20  2  0
 15 21  1  0
 17 22  2  0
 18 22  1  0
 19 23  2  0
 19 24  1  0
 23 25  1  0
 24 26  2  0
 21 27  1  0
 25 28  2  0
 26 28  1  0
 27 29  2  0
 27 30  1  0
 29 31  1  0
 30 32  2  0
 31 33  2  0
 32 33  1  0
M  END
