x0434-x1374
     RDKit          3D

 36 39  0  0  0  0  0  0  0  0999 V2000
   10.8180   -3.5870   25.7480 C   0  0  0  0  0  0  0  0  0  0  0  0
    9.7410   -4.0310   24.8550 C   0  0  0  0  0  0  0  0  0  0  0  0
    9.6360   -5.3740   24.5870 C   0  0  0  0  0  0  0  0  0  0  0  0
    8.7380   -3.0650   24.2160 C   0  0  0  0  0  0  0  0  0  0  0  0
    7.6500   -3.6310   23.2970 C   0  0  0  0  0  0  0  0  0  0  0  0
    8.6550   -5.8250   23.7520 C   0  0  0  0  0  0  0  0  0  0  0  0
    6.5070   -2.9370   22.5300 C   0  0  2  0  0  0  0  0  0  0  0  0
    7.7200   -5.0360   23.1400 C   0  0  0  0  0  0  0  0  0  0  0  0
    5.7280   -4.0760   22.0300 N   0  0  0  0  0  0  0  0  0  0  0  0
    6.8840   -2.1010   21.2450 C   0  0  0  0  0  0  0  0  0  0  0  0
    6.3070   -4.4490   20.8070 C   0  0  0  0  0  0  0  0  0  0  0  0
    6.9230   -0.6600   21.3240 N   0  0  0  0  0  0  0  0  0  0  0  0
    5.3280   -5.1100   22.9630 C   0  0  1  0  0  0  0  0  0  0  0  0
    5.5160   -4.6480   19.9130 O   0  0  0  0  0  0  0  0  0  0  0  0
    7.8940   -4.5640   20.7500 C   0  0  0  0  0  0  0  0  0  0  0  0
    8.2410   -0.1510   21.5890 C   0  0  0  0  0  0  0  0  0  0  0  0
    4.9760   -4.6510   24.2570 C   0  0  0  0  0  0  0  0  0  0  0  0
    4.2900   -6.0000   22.6930 C   0  0  0  0  0  0  0  0  0  0  0  0
    6.3140   -0.0260   20.2640 C   0  0  0  0  0  0  0  0  0  0  0  0
    8.5980    0.9810   21.2420 O   0  0  0  0  0  0  0  0  0  0  0  0
    9.0610   -1.0340   22.2450 N   0  0  0  0  0  0  0  0  0  0  0  0
    3.6360   -6.7730   24.0620 S   0  0  0  0  0  0  0  0  0  0  0  0
    4.0830   -5.4380   25.0030 C   0  0  0  0  0  0  0  0  0  0  0  0
    5.1320    0.7290   20.3870 C   0  0  0  0  0  0  0  0  0  0  0  0
    6.9020   -0.1380   19.0480 C   0  0  0  0  0  0  0  0  0  0  0  0
    2.1990   -6.8050   23.9200 O   0  0  0  0  0  0  0  0  0  0  0  0
    4.4170   -7.9370   24.3590 O   0  0  0  0  0  0  0  0  0  0  0  0
   10.3640   -0.5770   22.5960 C   0  0  0  0  0  0  0  0  0  0  0  0
    4.5490    1.3860   19.2260 C   0  0  0  0  0  0  0  0  0  0  0  0
    6.4500    0.4320   17.8990 N   0  0  0  0  0  0  0  0  0  0  0  0
   10.5280    0.5700   23.3450 C   0  0  0  0  0  0  0  0  0  0  0  0
   11.4160   -1.3450   22.1190 C   0  0  0  0  0  0  0  0  0  0  0  0
    5.2330    1.2100   18.0420 C   0  0  0  0  0  0  0  0  0  0  0  0
   11.9420    1.0600   23.6700 C   0  0  0  0  0  0  0  0  0  0  0  0
   12.7170   -0.9960   22.3550 C   0  0  0  0  0  0  0  0  0  0  0  0
   13.0870    0.2150   23.1270 C   0  0  0  0  0  0  0  0  0  0  0  0
  1  2  1  0
  2  3  2  0
  2  4  1  0
  4  5  2  0
  3  6  1  0
  5  7  1  0
  5  8  1  0
  6  8  2  0
  7  9  1  0
  7 10  1  6
  9 11  1  0
 10 12  1  0
 13  9  1  6
 11 14  2  0
 11 15  1  0
 12 16  1  0
 13 17  1  0
 13 18  1  0
 12 19  1  0
 16 20  2  0
 16 21  1  0
 18 22  1  0
 17 23  2  0
 22 23  1  0
 19 24  2  0
 19 25  1  0
 22 26  1  0
 22 27  1  0
 21 28  1  0
 24 29  1  0
 25 30  2  0
 28 31  2  0
 28 32  1  0
 29 33  2  0
 30 33  1  0
 31 34  1  0
 32 35  2  0
 34 36  2  0
 35 36  1  0
M  END
