x0434-x1358
     RDKit          3D

 36 39  0  0  0  0  0  0  0  0999 V2000
    6.8140   -2.6510   25.9880 N   0  0  0  0  0  0  0  0  0  0  0  0
    5.8120   -3.3020   25.3090 C   0  0  0  0  0  0  0  0  0  0  0  0
    4.7370   -3.6780   25.7380 O   0  0  0  0  0  0  0  0  0  0  0  0
    6.7080   -1.4840   26.9090 C   0  0  0  0  0  0  0  0  0  0  0  0
    5.9740   -0.3370   26.5820 C   0  0  0  0  0  0  0  0  0  0  0  0
    7.4110   -1.6650   28.1060 C   0  0  0  0  0  0  0  0  0  0  0  0
    6.1610   -3.5420   23.8320 C   0  0  1  0  0  0  0  0  0  0  0  0
    5.3290   -0.2780   25.3730 O   0  0  0  0  0  0  0  0  0  0  0  0
    7.3870   -0.6400   29.0490 C   0  0  0  0  0  0  0  0  0  0  0  0
    5.9890    0.6970   27.6110 C   0  0  0  0  0  0  0  0  0  0  0  0
    7.4620   -3.2110   23.4730 C   0  0  0  0  0  0  0  0  0  0  0  0
    5.8950   -4.8640   23.4510 C   0  0  0  0  0  0  0  0  0  0  0  0
    6.6820    0.5340   28.8090 C   0  0  0  0  0  0  0  0  0  0  0  0
    7.3510   -2.8980   22.0150 C   0  0  2  0  0  0  0  0  0  0  0  0
    6.2010   -5.1050   22.0590 C   0  0  0  0  0  0  0  0  0  0  0  0
    6.6100   -1.5290   21.9720 C   0  0  0  0  0  0  0  0  0  0  0  0
    6.5880   -4.0100   21.3430 N   0  0  0  0  0  0  0  0  0  0  0  0
    6.1200   -3.9240   20.0530 C   0  0  0  0  0  0  0  0  0  0  0  0
    7.2150   -0.6930   21.2130 N   0  0  0  0  0  0  0  0  0  0  0  0
    5.0570   -4.4050   19.7530 O   0  0  0  0  0  0  0  0  0  0  0  0
    7.0570   -3.2090   19.0810 C   0  0  0  0  0  0  0  0  0  0  0  0
    8.5130   -0.2030   21.6450 C   0  0  0  0  0  0  0  0  0  0  0  0
    6.4420    0.0450   20.2190 C   0  0  0  0  0  0  0  0  0  0  0  0
    8.9740    0.8870   21.3010 O   0  0  0  0  0  0  0  0  0  0  0  0
    9.1390   -1.0560   22.4760 N   0  0  0  0  0  0  0  0  0  0  0  0
    5.2640    0.7710   20.4360 C   0  0  0  0  0  0  0  0  0  0  0  0
    6.9700    0.0230   18.8020 C   0  0  0  0  0  0  0  0  0  0  0  0
   10.3940   -0.5880   22.7220 C   0  0  0  0  0  0  0  0  0  0  0  0
    4.6130    1.4590   19.3490 C   0  0  0  0  0  0  0  0  0  0  0  0
    6.4450    0.6350   17.7140 N   0  0  0  0  0  0  0  0  0  0  0  0
   10.6210    0.5710   23.4560 C   0  0  0  0  0  0  0  0  0  0  0  0
   11.4800   -1.2980   22.2160 C   0  0  0  0  0  0  0  0  0  0  0  0
    5.1880    1.4240   17.9170 C   0  0  0  0  0  0  0  0  0  0  0  0
   11.9010    1.0250   23.6720 C   0  0  0  0  0  0  0  0  0  0  0  0
   12.7480   -0.8190   22.4500 C   0  0  0  0  0  0  0  0  0  0  0  0
   12.9890    0.3300   23.1610 C   0  0  0  0  0  0  0  0  0  0  0  0
  1  2  1  0
  2  3  2  0
  1  4  1  0
  4  5  2  0
  4  6  1  0
  7  2  1  1
  5  8  1  0
  6  9  2  0
  5 10  1  0
  7 11  1  0
  7 12  1  0
  9 13  1  0
 10 13  2  0
 11 14  1  0
 12 15  1  0
 14 16  1  1
 14 17  1  0
 15 17  1  0
 17 18  1  0
 16 19  1  0
 18 20  2  0
 18 21  1  0
 19 22  1  0
 19 23  1  0
 22 24  2  0
 22 25  1  0
 23 26  2  0
 23 27  1  0
 25 28  1  0
 26 29  1  0
 27 30  2  0
 28 31  2  0
 28 32  1  0
 29 33  2  0
 30 33  1  0
 31 34  1  0
 32 35  2  0
 34 36  2  0
 35 36  1  0
M  END
