x0540-x0820-x2193-x2705
     RDKit          3D

 61 67  0  0  0  0  0  0  0  0999 V2000
    7.3040   -1.8830   22.1860 N   0  0  0  0  0  0  0  0  0  0  0  0
    6.9410   -0.4150   21.7660 C   0  0  1  0  0  0  0  0  0  0  0  0
    8.0350    0.7400   21.9640 C   0  0  0  0  0  0  0  0  0  0  0  0
    7.2440   -3.2480   22.5760 C   0  0  2  0  0  0  0  0  0  0  0  0
    8.5840   -1.6110   22.8420 C   0  0  0  0  0  0  0  0  0  0  0  0
    7.2070   -4.2110   21.5830 N   0  0  0  0  0  0  0  0  0  0  0  0
    6.2880   -0.0260   20.4110 C   0  0  0  0  0  0  0  0  0  0  0  0
    8.7320   -1.1490   24.1060 N   0  0  0  0  0  0  0  0  0  0  0  0
    9.8520   -1.7940   22.2730 C   0  0  0  0  0  0  0  0  0  0  0  0
    6.3750   -3.7940   23.8270 C   0  0  1  0  0  0  0  0  0  0  0  0
    7.5900    1.8070   22.7250 N   0  0  0  0  0  0  0  0  0  0  0  0
    9.1660    0.7220   21.4640 O   0  0  0  0  0  0  0  0  0  0  0  0
    6.5240   -4.0980   20.3460 C   0  0  0  0  0  0  0  0  0  0  0  0
    5.0250    0.5260   20.3330 C   0  0  0  0  0  0  0  0  0  0  0  0
    7.0260   -0.2230   19.2300 C   0  0  0  0  0  0  0  0  0  0  0  0
   10.0630   -1.0420   24.3470 N   0  0  0  0  0  0  0  0  0  0  0  0
   10.8230   -1.4480   23.1850 C   0  0  0  0  0  0  0  0  0  0  0  0
    6.3960   -3.0140   25.0270 C   0  0  1  0  0  0  0  0  0  0  0  0
    4.8910   -4.0940   23.4720 C   0  0  0  0  0  0  0  0  0  0  0  0
   12.3340   -1.4470   23.1060 C   0  0  0  0  0  0  0  0  0  0  0  0
    5.4890   -4.7160   20.0270 O   0  0  0  0  0  0  0  0  0  0  0  0
    7.2150   -3.2590   19.3370 C   0  0  0  0  0  0  0  0  0  0  0  0
    4.1710    0.7490   21.5440 C   0  0  0  0  0  0  0  0  0  0  0  0
    6.5610    0.1280   18.0100 N   0  0  0  0  0  0  0  0  0  0  0  0
    4.5300    0.8920   19.0960 C   0  0  0  0  0  0  0  0  0  0  0  0
    8.2100    3.1160   22.8450 C   0  0  0  0  0  0  0  0  0  0  0  0
    5.4310   -3.2790   26.0890 C   0  0  1  0  0  0  0  0  0  0  0  0
    4.1590   -4.6030   24.5330 C   0  0  0  0  0  0  0  0  0  0  0  0
    7.8310   -3.0350   25.6070 C   0  0  0  0  0  0  0  0  0  0  0  0
   12.8800   -0.0420   23.3910 C   0  0  0  0  0  0  0  0  0  0  0  0
   12.8940   -2.3910   24.1400 C   0  0  0  0  0  0  0  0  0  0  0  0
   12.8380   -1.8880   21.7200 C   0  0  0  0  0  0  0  0  0  0  0  0
    4.7930    1.5720   22.4850 C   0  0  0  0  0  0  0  0  0  0  0  0
    5.2080    0.7430   17.9160 C   0  0  0  0  0  0  0  0  0  0  0  0
    9.4700    3.1640   23.4730 C   0  0  0  0  0  0  0  0  0  0  0  0
    7.6130    4.3200   22.3760 C   0  0  0  0  0  0  0  0  0  0  0  0
    4.4330   -4.2070   25.8160 C   0  0  0  0  0  0  0  0  0  0  0  0
    6.0130   -3.4400   27.4930 C   0  0  0  0  0  0  0  0  0  0  0  0
    8.0230   -3.9530   26.6110 C   0  0  1  0  0  0  0  0  0  0  0  0
   10.1250    1.9150   23.9970 C   0  0  0  0  0  0  0  0  0  0  0  0
    6.2670    4.3190   21.7070 C   0  0  0  0  0  0  0  0  0  0  0  0
    4.0030    2.6210   22.7440 N   0  0  0  0  0  0  0  0  0  0  0  0
   10.1550    4.3760   23.6430 C   0  0  0  0  0  0  0  0  0  0  0  0
    8.2820    5.5560   22.5370 C   0  0  0  0  0  0  0  0  0  0  0  0
    7.3170   -3.7650   27.7550 C   0  0  0  0  0  0  0  0  0  0  0  0
    7.4520   -5.3380   26.1660 C   0  0  0  0  0  0  0  0  0  0  0  0
    9.4950   -3.9100   26.8330 N   0  0  0  0  0  0  0  0  0  0  0  0
    9.2950    1.4270   24.9890 C   0  0  0  0  0  0  0  0  0  0  0  0
    2.8100    2.4240   23.5810 C   0  0  0  0  0  0  0  0  0  0  0  0
    9.5280    5.6260   23.1500 C   0  0  0  0  0  0  0  0  0  0  0  0
    8.2740   -5.8970   25.1560 N   0  0  0  0  0  0  0  0  0  0  0  0
   10.2010   -4.7430   25.8720 C   0  0  0  0  0  0  0  0  0  0  0  0
    2.7350    1.5670   24.4600 O   0  0  0  0  0  0  0  0  0  0  0  0
    1.7250    3.3570   23.2530 N   0  0  0  0  0  0  0  0  0  0  0  0
    9.4580   -6.0390   25.9140 C   0  0  0  0  0  0  0  0  0  0  0  0
    0.5400    3.3690   23.9650 C   0  0  0  0  0  0  0  0  0  0  0  0
    0.3430    4.7820   24.5280 C   0  0  0  0  0  0  0  0  0  0  0  0
   -0.6200    2.9180   23.3400 C   0  0  0  0  0  0  0  0  0  0  0  0
   -0.8790    4.8610   25.1920 C   0  0  0  0  0  0  0  0  0  0  0  0
   -1.8560    3.3390   23.8190 C   0  0  0  0  0  0  0  0  0  0  0  0
   -1.9440    4.6190   24.3460 C   0  0  0  0  0  0  0  0  0  0  0  0
  1  2  1  0
  2  3  1  6
  1  4  1  0
  1  5  1  0
  4  6  1  6
  2  7  1  0
  5  8  2  0
  5  9  1  0
  4 10  1  0
  3 11  1  0
  3 12  2  0
  6 13  1  0
  7 14  1  0
  7 15  2  0
  8 16  1  0
  9 17  2  0
 16 17  1  0
 10 18  1  0
 10 19  1  6
 17 20  1  0
 13 21  2  0
 13 22  1  0
 14 23  1  0
 15 24  1  0
 14 25  2  0
 11 26  1  0
 18 27  1  0
 19 28  1  0
 18 29  1  1
 20 30  1  0
 20 31  1  0
 20 32  1  0
 23 33  1  0
 24 34  2  0
 25 34  1  0
 26 35  2  0
 26 36  1  0
 27 37  1  6
 28 37  2  0
 27 38  1  0
 39 29  1  6
 35 40  1  0
 36 41  1  0
 33 42  1  0
 35 43  1  0
 36 44  2  0
 38 45  2  0
 39 45  1  0
 39 46  1  0
 39 47  1  0
 40 48  1  0
 42 49  1  0
 43 50  2  0
 44 50  1  0
 46 51  1  0
 47 52  1  0
 49 53  2  0
 49 54  1  0
 51 55  1  0
 52 55  1  0
 54 56  1  0
 56 57  1  0
 56 58  1  0
 57 59  1  0
 58 60  1  0
 59 61  1  0
 60 61  1  0
M  END
