x0540-x1458-x2776-x2705
     RDKit          3D

 62 66  0  0  0  0  0  0  0  0999 V2000
    7.5470   -1.1100   21.6400 N   0  0  0  0  0  0  0  0  0  0  0  0
    7.0920    0.1520   21.5080 C   0  0  1  0  0  0  0  0  0  0  0  0
    8.1720    1.2340   21.7250 C   0  0  0  0  0  0  0  0  0  0  0  0
    6.6840   -2.1190   21.8750 C   0  0  0  0  0  0  0  0  0  0  0  0
    8.6040   -1.2870   22.4420 C   0  0  0  0  0  0  0  0  0  0  0  0
    6.4310    0.5330   20.2260 C   0  0  0  0  0  0  0  0  0  0  0  0
    9.9060   -1.5640   22.0440 C   0  0  0  0  0  0  0  0  0  0  0  0
    8.2700   -1.1860   23.8940 C   0  0  0  0  0  0  0  0  0  0  0  0
    7.3830   -3.4510   22.2240 C   0  0  2  0  0  0  0  0  0  0  0  0
    7.8440    2.1510   22.7230 N   0  0  0  0  0  0  0  0  0  0  0  0
    9.1920    1.3420   21.0960 O   0  0  0  0  0  0  0  0  0  0  0  0
    5.0480    1.1080   20.0550 C   0  0  0  0  0  0  0  0  0  0  0  0
    6.8850    0.4750   18.8020 C   0  0  0  0  0  0  0  0  0  0  0  0
   10.8790   -1.7480   22.9940 C   0  0  0  0  0  0  0  0  0  0  0  0
    9.2850   -1.3830   24.7460 C   0  0  0  0  0  0  0  0  0  0  0  0
    6.7660   -4.5740   21.5070 N   0  0  0  0  0  0  0  0  0  0  0  0
    7.3180   -3.7000   23.5760 C   0  0  0  0  0  0  0  0  0  0  0  0
   12.3160   -2.0530   22.7110 C   0  0  0  0  0  0  0  0  0  0  0  0
    4.1120    1.3230   21.2170 C   0  0  0  0  0  0  0  0  0  0  0  0
    6.2050   -4.3250   20.2620 C   0  0  0  0  0  0  0  0  0  0  0  0
    6.3660    0.8360   17.5900 N   0  0  0  0  0  0  0  0  0  0  0  0
    4.4310    1.5070   18.9380 C   0  0  0  0  0  0  0  0  0  0  0  0
    8.5460    3.3530   22.9680 C   0  0  0  0  0  0  0  0  0  0  0  0
   10.5450   -1.6550   24.3610 C   0  0  0  0  0  0  0  0  0  0  0  0
    6.0760   -4.0970   23.9430 C   0  0  2  0  0  0  0  0  0  0  0  0
    6.4200   -5.7970   22.2670 C   0  0  0  0  0  0  0  0  0  0  0  0
   12.7870   -2.0410   24.1320 C   0  0  1  0  0  0  0  0  0  0  0  0
    4.6720    1.8600   22.3020 C   0  0  0  0  0  0  0  0  0  0  0  0
    5.1750   -4.8520   19.9310 O   0  0  0  0  0  0  0  0  0  0  0  0
    5.8110   -3.8190   25.4180 C   0  0  0  0  0  0  0  0  0  0  0  0
    7.0050   -3.3880   19.3360 C   0  0  0  0  0  0  0  0  0  0  0  0
    5.0810    1.4070   17.6290 C   0  0  0  0  0  0  0  0  0  0  0  0
    9.7900    3.2380   23.5700 C   0  0  0  0  0  0  0  0  0  0  0  0
    8.0450    4.6740   22.6290 C   0  0  0  0  0  0  0  0  0  0  0  0
    5.6880   -5.4830   23.4310 C   0  0  0  0  0  0  0  0  0  0  0  0
   13.7620   -2.7180   24.3720 O   0  0  0  0  0  0  0  0  0  0  0  0
   10.3500    1.8980   23.9430 C   0  0  0  0  0  0  0  0  0  0  0  0
   13.0010   -0.6780   24.4510 C   0  0  0  0  0  0  0  0  0  0  0  0
    6.6860    4.8980   21.9530 C   0  0  0  0  0  0  0  0  0  0  0  0
    4.0250    2.7420   23.0040 N   0  0  0  0  0  0  0  0  0  0  0  0
    6.8160   -3.5170   26.2680 N   0  0  0  0  0  0  0  0  0  0  0  0
    4.4450   -3.7620   25.8200 O   0  0  0  0  0  0  0  0  0  0  0  0
   10.5390    4.3780   23.8450 C   0  0  0  0  0  0  0  0  0  0  0  0
    8.7560    5.7770   22.8950 C   0  0  0  0  0  0  0  0  0  0  0  0
   13.6430   -3.1970   25.7170 C   0  0  0  0  0  0  0  0  0  0  0  0
    9.4260    1.3090   24.9430 C   0  0  0  0  0  0  0  0  0  0  0  0
    2.8510    2.3540   23.5880 C   0  0  0  0  0  0  0  0  0  0  0  0
    7.4020   -4.4490   27.1640 C   0  0  0  0  0  0  0  0  0  0  0  0
    6.6420   -2.2790   26.7430 C   0  0  0  0  0  0  0  0  0  0  0  0
   10.0220    5.7330   23.5100 C   0  0  0  0  0  0  0  0  0  0  0  0
   10.8360    6.7890   23.8380 O   0  0  0  0  0  0  0  0  0  0  0  0
    2.7300    1.3860   24.3430 O   0  0  0  0  0  0  0  0  0  0  0  0
    1.8570    3.1680   23.2180 N   0  0  0  0  0  0  0  0  0  0  0  0
    8.7460   -4.6590   26.8550 C   0  0  0  0  0  0  0  0  0  0  0  0
    6.6060   -5.7090   27.5090 C   0  0  0  0  0  0  0  0  0  0  0  0
   11.7920    6.5910   24.8760 C   0  0  0  0  0  0  0  0  0  0  0  0
    0.6420    3.2970   24.0030 C   0  0  0  0  0  0  0  0  0  0  0  0
    0.5040    4.7420   24.5210 C   0  0  0  0  0  0  0  0  0  0  0  0
   -0.5710    2.8920   23.1610 C   0  0  0  0  0  0  0  0  0  0  0  0
   -0.7110    4.9400   25.1600 C   0  0  0  0  0  0  0  0  0  0  0  0
   -1.7760    3.2590   23.7640 C   0  0  0  0  0  0  0  0  0  0  0  0
   -1.9050    4.5610   24.2710 C   0  0  0  0  0  0  0  0  0  0  0  0
  1  2  1  0
  2  3  1  6
  1  4  1  0
  1  5  1  0
  2  6  1  0
  5  7  2  0
  5  8  1  0
  9  4  1  1
  3 10  1  0
  3 11  2  0
  6 12  1  0
  6 13  2  0
  7 14  1  0
  8 15  2  0
  9 16  1  0
  9 17  1  0
 14 18  1  0
 12 19  1  0
 16 20  1  0
 13 21  1  0
 12 22  2  0
 10 23  1  0
 14 24  2  0
 15 24  1  0
 17 25  1  0
 16 26  1  0
 18 27  1  0
 19 28  1  0
 20 29  2  0
 25 30  1  1
 20 31  1  0
 21 32  2  0
 22 32  1  0
 23 33  2  0
 23 34  1  0
 25 35  1  0
 26 35  1  0
 27 36  1  0
 33 37  1  0
 27 38  1  6
 34 39  1  0
 28 40  1  0
 30 41  1  0
 30 42  2  0
 33 43  1  0
 34 44  2  0
 36 45  1  0
 37 46  1  0
 40 47  1  0
 41 48  1  0
 41 49  1  0
 43 50  2  0
 44 50  1  0
 50 51  1  0
 47 52  2  0
 47 53  1  0
 48 54  1  0
 48 55  1  0
 51 56  1  0
 53 57  1  0
 57 58  1  0
 57 59  1  0
 58 60  1  0
 59 61  1  0
 60 62  1  0
 61 62  1  0
M  END
