x0540-x3110-x3115-x0769
     RDKit          3D

 65 70  0  0  0  0  0  0  0  0999 V2000
    7.7610    1.5920   23.2340 N   0  0  0  0  0  0  0  0  0  0  0  0
    8.6200    2.6880   23.3840 C   0  0  1  0  0  0  0  0  0  0  0  0
   10.1100    2.4010   22.9670 C   0  0  0  0  0  0  0  0  0  0  0  0
    7.6680    0.9050   21.9250 C   0  0  0  0  0  0  0  0  0  0  0  0
    8.5770    1.2150   20.9550 O   0  0  0  0  0  0  0  0  0  0  0  0
    6.4720   -0.0850   21.7090 C   0  0  2  0  0  0  0  0  0  0  0  0
    8.0410    3.8590   22.6030 C   0  0  0  0  0  0  0  0  0  0  0  0
    6.7540   -1.5440   22.1270 C   0  0  2  0  0  0  0  0  0  0  0  0
   11.1460    3.4090   23.4420 C   0  0  0  0  0  0  0  0  0  0  0  0
    8.5870    5.1050   23.0680 O   0  0  0  0  0  0  0  0  0  0  0  0
    6.0660    0.3660   20.3260 C   0  0  0  0  0  0  0  0  0  0  0  0
   12.1610    3.4550   22.7640 O   0  0  0  0  0  0  0  0  0  0  0  0
   10.9170    4.0880   24.4420 O   0  0  0  0  0  0  0  0  0  0  0  0
    6.0830   -2.7570   21.3390 C   0  0  0  0  0  0  0  0  0  0  0  0
    8.2180    6.2050   22.2300 C   0  0  0  0  0  0  0  0  0  0  0  0
    5.9400   -2.0010   23.3090 C   0  0  0  0  0  0  0  0  0  0  0  0
    4.9610    1.1330   20.0960 C   0  0  0  0  0  0  0  0  0  0  0  0
    6.8830   -0.0010   19.1580 C   0  0  0  0  0  0  0  0  0  0  0  0
    8.2660   -1.6450   22.6150 C   0  0  0  0  0  0  0  0  0  0  0  0
   12.3350    4.5770   22.0320 C   0  0  0  0  0  0  0  0  0  0  0  0
    4.8730   -2.9800   20.8640 O   0  0  0  0  0  0  0  0  0  0  0  0
    6.9280   -3.8430   21.3110 C   0  0  2  0  0  0  0  0  0  0  0  0
    4.1480    1.4940   21.1260 C   0  0  0  0  0  0  0  0  0  0  0  0
    5.3020   -3.2510   23.1780 C   0  0  0  0  0  0  0  0  0  0  0  0
    6.5580    0.4210   17.9220 N   0  0  0  0  0  0  0  0  0  0  0  0
    4.6690    1.5420   18.8200 C   0  0  0  0  0  0  0  0  0  0  0  0
    9.2920   -1.7810   21.7360 C   0  0  0  0  0  0  0  0  0  0  0  0
    8.6670   -1.5790   24.0820 C   0  0  0  0  0  0  0  0  0  0  0  0
   13.6370    5.2050   22.4600 C   0  0  0  0  0  0  0  0  0  0  0  0
    6.7580   -4.4670   20.0000 C   0  0  0  0  0  0  0  0  0  0  0  0
    4.8410    2.2590   22.0650 C   0  0  0  0  0  0  0  0  0  0  0  0
    5.4610    1.2020   17.7210 C   0  0  0  0  0  0  0  0  0  0  0  0
   10.6350   -1.8590   22.0650 C   0  0  0  0  0  0  0  0  0  0  0  0
   10.0360   -1.6580   24.3800 C   0  0  0  0  0  0  0  0  0  0  0  0
    6.1900   -4.3950   22.4820 C   0  0  0  0  0  0  0  0  0  0  0  0
    4.1170    3.2140   22.8880 N   0  0  0  0  0  0  0  0  0  0  0  0
   11.0060   -1.7940   23.4000 C   0  0  0  0  0  0  0  0  0  0  0  0
    5.3850   -5.6640   22.1980 C   0  0  0  0  0  0  0  0  0  0  0  0
    7.3130   -4.8520   23.3910 C   0  0  0  0  0  0  0  0  0  0  0  0
   12.4670   -1.8520   23.8390 C   0  0  0  0  0  0  0  0  0  0  0  0
    2.9870    2.6350   23.5030 C   0  0  0  0  0  0  0  0  0  0  0  0
    4.8770   -6.3220   23.4900 C   0  0  0  0  0  0  0  0  0  0  0  0
    6.7670   -5.1160   24.7410 C   0  0  0  0  0  0  0  0  0  0  0  0
   12.9340   -0.5710   24.0450 C   0  0  0  0  0  0  0  0  0  0  0  0
   13.3020   -2.4150   22.6940 C   0  0  0  0  0  0  0  0  0  0  0  0
   12.6500   -2.7680   24.8970 C   0  0  0  0  0  0  0  0  0  0  0  0
    3.0130    1.7110   24.3040 O   0  0  0  0  0  0  0  0  0  0  0  0
    1.7810    3.3040   23.0490 N   0  0  0  0  0  0  0  0  0  0  0  0
    5.3340   -5.4820   24.6370 N   0  0  0  0  0  0  0  0  0  0  0  0
    4.5560   -5.5440   26.0770 S   0  0  0  0  0  0  0  0  0  0  0  0
    0.5770    3.3080   23.8640 C   0  0  0  0  0  0  0  0  0  0  0  0
    5.5740   -5.4760   27.0980 O   0  0  0  0  0  0  0  0  0  0  0  0
    3.6130   -6.6390   26.0680 O   0  0  0  0  0  0  0  0  0  0  0  0
    0.5030    4.6470   24.6150 C   0  0  0  0  0  0  0  0  0  0  0  0
   -0.6460    2.9390   23.0330 C   0  0  0  0  0  0  0  0  0  0  0  0
    3.6320   -4.0510   26.0680 C   0  0  0  0  0  0  0  0  0  0  0  0
   -0.7260    4.8470   25.1490 C   0  0  0  0  0  0  0  0  0  0  0  0
   -1.9410    3.3410   23.7370 C   0  0  0  0  0  0  0  0  0  0  0  0
    4.2560   -2.7960   26.2300 C   0  0  0  0  0  0  0  0  0  0  0  0
    2.0810   -4.0830   25.8830 C   0  0  0  0  0  0  0  0  0  0  0  0
    5.5790   -2.6730   26.3940 F   0  0  0  0  0  0  0  0  0  0  0  0
   -1.8250    4.7570   24.3180 C   0  0  0  0  0  0  0  0  0  0  0  0
    1.2940   -2.7590   25.8910 C   0  0  0  0  0  0  0  0  0  0  0  0
    3.4990   -1.6050   26.2310 C   0  0  0  0  0  0  0  0  0  0  0  0
    1.9920   -1.5750   26.0620 C   0  0  0  0  0  0  0  0  0  0  0  0
  1  2  1  0
  2  3  1  6
  1  4  1  0
  4  5  2  0
  6  4  1  6
  2  7  1  0
  6  8  1  0
  3  9  1  0
  7 10  1  0
  6 11  1  0
  9 12  1  0
  9 13  2  0
  8 14  1  0
 10 15  1  0
  8 16  1  0
 11 17  1  0
 11 18  2  0
  8 19  1  1
 12 20  1  0
 14 21  2  0
 14 22  1  0
 17 23  1  0
 16 24  1  0
 18 25  1  0
 17 26  2  0
 19 27  2  0
 19 28  1  0
 20 29  1  0
 22 30  1  6
 23 31  1  0
 25 32  2  0
 26 32  1  0
 27 33  1  0
 28 34  2  0
 22 35  1  0
 35 24  1  0
 31 36  1  0
 33 37  2  0
 34 37  1  0
 35 38  1  0
 35 39  1  0
 37 40  1  0
 36 41  1  0
 38 42  1  0
 39 43  1  0
 40 44  1  0
 40 45  1  0
 40 46  1  0
 41 47  2  0
 41 48  1  0
 42 49  1  0
 43 49  1  0
 49 50  1  0
 48 51  1  0
 50 52  2  0
 50 53  2  0
 51 54  1  0
 51 55  1  0
 50 56  1  0
 54 57  1  0
 55 58  1  0
 56 59  2  0
 56 60  1  0
 59 61  1  0
 57 62  1  0
 58 62  1  0
 60 63  2  0
 59 64  1  0
 63 65  1  0
 64 65  2  0
M  END
