x0540-x0755
     RDKit          3D

 41 45  0  0  0  0  0  0  0  0999 V2000
    4.6320   -6.3990   26.2380 O   0  0  0  0  0  0  0  0  0  0  0  0
    5.2590   -5.1290   25.9450 S   0  0  0  0  0  0  0  0  0  0  0  0
    6.3160   -4.6290   26.7860 O   0  0  0  0  0  0  0  0  0  0  0  0
    3.9570   -3.8830   25.9380 C   0  0  0  0  0  0  0  0  0  0  0  0
    5.8830   -5.1940   24.3660 N   0  0  0  0  0  0  0  0  0  0  0  0
    2.5120   -4.2200   26.1710 C   0  0  0  0  0  0  0  0  0  0  0  0
    4.3080   -2.5440   25.6990 C   0  0  0  0  0  0  0  0  0  0  0  0
    6.7520   -4.2760   23.9520 C   0  0  0  0  0  0  0  0  0  0  0  0
    5.0690   -5.8560   23.3390 C   0  0  0  0  0  0  0  0  0  0  0  0
    2.0900   -5.4700   26.4030 F   0  0  0  0  0  0  0  0  0  0  0  0
    5.3860   -2.0210   25.5100 O   0  0  0  0  0  0  0  0  0  0  0  0
    3.2830   -1.5940   25.6580 C   0  0  0  0  0  0  0  0  0  0  0  0
    1.5390   -3.1850   26.1460 C   0  0  0  0  0  0  0  0  0  0  0  0
    7.5220   -4.7410   22.8900 C   0  0  0  0  0  0  0  0  0  0  0  0
    5.8130   -6.2480   22.2310 C   0  0  0  0  0  0  0  0  0  0  0  0
    5.0220   -0.7130   26.0490 C   0  0  0  0  0  0  0  0  0  0  0  0
    3.7990   -0.2770   25.3310 C   0  0  1  0  0  0  0  0  0  0  0  0
    1.9340   -1.8870   25.8840 C   0  0  0  0  0  0  0  0  0  0  0  0
    6.6410   -5.2300   21.8280 N   0  0  0  0  0  0  0  0  0  0  0  0
    6.3600   -4.6000   20.5900 C   0  0  0  0  0  0  0  0  0  0  0  0
    3.1000    0.0570   24.3920 C   0  0  0  0  0  0  0  0  0  0  0  0
    5.3450   -4.9240   19.9920 O   0  0  0  0  0  0  0  0  0  0  0  0
    7.3070   -3.5360   19.9990 C   0  0  0  0  0  0  0  0  0  0  0  0
    2.5010    1.3930   24.5050 N   0  0  0  0  0  0  0  0  0  0  0  0
    2.8540    2.4090   23.4870 C   0  0  0  0  0  0  0  0  0  0  0  0
    3.7510    2.2100   22.4620 N   0  0  0  0  0  0  0  0  0  0  0  0
    2.0880    3.6430   23.7150 N   0  0  0  0  0  0  0  0  0  0  0  0
    5.0100    1.4620   22.5900 C   0  0  0  0  0  0  0  0  0  0  0  0
    0.7370    3.5670   24.2840 C   0  0  0  0  0  0  0  0  0  0  0  0
    4.9420    0.1100   21.8400 C   0  0  0  0  0  0  0  0  0  0  0  0
    0.4270    4.9050   24.6450 C   0  0  0  0  0  0  0  0  0  0  0  0
   -0.1340    2.9890   23.3520 C   0  0  0  0  0  0  0  0  0  0  0  0
    5.3770    0.2630   20.4220 C   0  0  0  0  0  0  0  0  0  0  0  0
   -0.8460    5.0270   25.2100 C   0  0  0  0  0  0  0  0  0  0  0  0
   -1.6170    3.3370   23.5520 C   0  0  0  0  0  0  0  0  0  0  0  0
    6.4880   -0.4260   19.9540 C   0  0  0  0  0  0  0  0  0  0  0  0
    4.7210    1.0800   19.5020 C   0  0  0  0  0  0  0  0  0  0  0  0
   -1.9700    4.4730   24.2730 C   0  0  0  0  0  0  0  0  0  0  0  0
    6.8860   -0.2770   18.6340 C   0  0  0  0  0  0  0  0  0  0  0  0
    5.2010    1.1640   18.1960 C   0  0  0  0  0  0  0  0  0  0  0  0
    6.2730    0.5080   17.7180 N   0  0  0  0  0  0  0  0  0  0  0  0
  1  2  2  0
  2  3  2  0
  2  4  1  0
  2  5  1  0
  4  6  2  0
  4  7  1  0
  5  8  1  0
  5  9  1  0
  6 10  1  0
  7 11  1  0
  7 12  2  0
  6 13  1  0
  8 14  1  0
  9 15  1  0
 11 16  1  0
 12 17  1  0
 16 17  1  0
 12 18  1  0
 13 18  2  0
 14 19  1  0
 15 19  1  0
 19 20  1  0
 17 21  1  6
 20 22  2  0
 20 23  1  0
 21 24  1  0
 24 25  2  3
 25 26  1  0
 25 27  1  0
 26 28  1  0
 27 29  1  0
 28 30  1  0
 29 31  1  0
 29 32  1  0
 30 33  1  0
 31 34  1  0
 32 35  1  0
 33 36  2  0
 33 37  1  0
 34 38  1  0
 35 38  1  0
 36 39  1  0
 37 40  2  0
 39 41  2  0
 40 41  1  0
M  END
