x0540-x2705-x1458-x2694
     RDKit          3D

 60 65  0  0  0  0  0  0  0  0999 V2000
    7.0830   -1.5080   21.6670 C   0  0  1  0  0  0  0  0  0  0  0  0
    6.1480   -2.8280   21.2220 C   0  0  0  0  0  0  0  0  0  0  0  0
    4.9260   -3.0260   20.7470 O   0  0  0  0  0  0  0  0  0  0  0  0
    6.7340   -0.0710   21.4340 C   0  0  1  0  0  0  0  0  0  0  0  0
    6.4660   -2.0850   22.8940 C   0  0  0  0  0  0  0  0  0  0  0  0
    8.5360   -1.4940   22.3770 C   0  0  0  0  0  0  0  0  0  0  0  0
    7.8440    1.0760   21.6840 C   0  0  0  0  0  0  0  0  0  0  0  0
    6.0870    0.3400   20.1670 C   0  0  0  0  0  0  0  0  0  0  0  0
    8.5730   -1.3180   23.7290 N   0  0  0  0  0  0  0  0  0  0  0  0
    9.8720   -1.6000   21.9980 C   0  0  0  0  0  0  0  0  0  0  0  0
    6.8170   -4.0970   21.6090 C   0  0  2  0  0  0  0  0  0  0  0  0
    7.3360   -3.3480   22.8070 C   0  0  2  0  0  0  0  0  0  0  0  0
    8.0940   -4.5250   20.8940 C   0  0  0  0  0  0  0  0  0  0  0  0
    7.4670    2.0930   22.6980 N   0  0  0  0  0  0  0  0  0  0  0  0
    8.8920    1.1260   21.0530 O   0  0  0  0  0  0  0  0  0  0  0  0
    4.8400    0.8780   20.1860 C   0  0  0  0  0  0  0  0  0  0  0  0
    6.7800    0.1850   18.9950 C   0  0  0  0  0  0  0  0  0  0  0  0
    9.8640   -1.3180   24.1200 N   0  0  0  0  0  0  0  0  0  0  0  0
   10.7280   -1.4840   23.0970 C   0  0  0  0  0  0  0  0  0  0  0  0
    7.4020   -4.0640   24.0480 C   0  0  0  0  0  0  0  0  0  0  0  0
    5.8650   -5.2600   21.9920 C   0  0  0  0  0  0  0  0  0  0  0  0
   12.2420   -1.5090   23.2640 C   0  0  0  0  0  0  0  0  0  0  0  0
    4.0310    1.0480   21.4500 C   0  0  0  0  0  0  0  0  0  0  0  0
    6.3490    0.5500   17.7950 N   0  0  0  0  0  0  0  0  0  0  0  0
    4.3140    1.2880   18.9950 C   0  0  0  0  0  0  0  0  0  0  0  0
    8.2330    3.2850   22.9330 C   0  0  0  0  0  0  0  0  0  0  0  0
    6.1630   -4.7830   24.4430 C   0  0  2  0  0  0  0  0  0  0  0  0
    5.2830   -5.1050   23.4110 C   0  0  0  0  0  0  0  0  0  0  0  0
   12.6760   -0.2520   23.7010 C   0  0  0  0  0  0  0  0  0  0  0  0
   12.7250   -2.5480   24.2970 C   0  0  0  0  0  0  0  0  0  0  0  0
   12.9060   -1.7710   21.9040 C   0  0  0  0  0  0  0  0  0  0  0  0
    4.7370    1.8010   22.3080 C   0  0  0  0  0  0  0  0  0  0  0  0
    5.6030   -3.9180   25.5810 C   0  0  0  0  0  0  0  0  0  0  0  0
    5.1170    1.1230   17.7430 C   0  0  0  0  0  0  0  0  0  0  0  0
    9.5090    3.2010   23.5230 C   0  0  0  0  0  0  0  0  0  0  0  0
    7.7300    4.5570   22.5810 C   0  0  0  0  0  0  0  0  0  0  0  0
   10.1280    1.8890   23.9280 C   0  0  0  0  0  0  0  0  0  0  0  0
    6.3820    4.7570   21.9360 C   0  0  0  0  0  0  0  0  0  0  0  0
    4.0070    2.8120   22.8780 N   0  0  0  0  0  0  0  0  0  0  0  0
    6.3450   -3.8270   26.6990 N   0  0  0  0  0  0  0  0  0  0  0  0
    4.5290   -3.3200   25.4910 O   0  0  0  0  0  0  0  0  0  0  0  0
   10.2700    4.3520   23.7680 C   0  0  0  0  0  0  0  0  0  0  0  0
    8.5090    5.7140   22.8380 C   0  0  0  0  0  0  0  0  0  0  0  0
    9.2710    1.2960   24.8840 C   0  0  0  0  0  0  0  0  0  0  0  0
    2.8310    2.4330   23.4350 C   0  0  0  0  0  0  0  0  0  0  0  0
    6.4950   -5.0590   27.5010 C   0  0  0  0  0  0  0  0  0  0  0  0
    6.5400   -2.4760   27.2610 C   0  0  0  0  0  0  0  0  0  0  0  0
    9.7870    5.6210   23.4380 C   0  0  0  0  0  0  0  0  0  0  0  0
   10.4840    6.7900   23.6660 O   0  0  0  0  0  0  0  0  0  0  0  0
    2.7740    1.3240   24.3360 O   0  0  0  0  0  0  0  0  0  0  0  0
    1.6310    3.1780   23.0880 N   0  0  0  0  0  0  0  0  0  0  0  0
    7.2160   -4.9290   28.6770 C   0  0  0  0  0  0  0  0  0  0  0  0
    5.1680   -5.6780   27.9260 C   0  0  0  0  0  0  0  0  0  0  0  0
   11.6320    6.7110   24.5620 C   0  0  0  0  0  0  0  0  0  0  0  0
    0.5020    3.2650   23.9850 C   0  0  0  0  0  0  0  0  0  0  0  0
    0.4090    4.6760   24.5880 C   0  0  0  0  0  0  0  0  0  0  0  0
   -0.6640    2.8970   23.3040 C   0  0  0  0  0  0  0  0  0  0  0  0
   -0.8470    4.9720   25.1200 C   0  0  0  0  0  0  0  0  0  0  0  0
   -1.8900    3.3430   23.7990 C   0  0  0  0  0  0  0  0  0  0  0  0
   -1.9580    4.6200   24.3570 C   0  0  0  0  0  0  0  0  0  0  0  0
  1  2  1  0
  2  3  2  0
  1  4  1  0
  1  5  1  0
  1  6  1  1
  4  7  1  6
  4  8  1  0
  6  9  2  0
  6 10  1  0
  2 11  1  0
 12  5  1  1
 11 12  1  0
 11 13  1  6
  7 14  1  0
  7 15  2  0
  8 16  1  0
  8 17  2  0
  9 18  1  0
 10 19  2  0
 18 19  1  0
 12 20  1  0
 11 21  1  0
 19 22  1  0
 16 23  1  0
 17 24  1  0
 16 25  2  0
 14 26  1  0
 20 27  1  0
 21 28  1  0
 27 28  1  0
 22 29  1  0
 22 30  1  0
 22 31  1  0
 23 32  1  0
 27 33  1  1
 24 34  2  0
 25 34  1  0
 26 35  2  0
 26 36  1  0
 35 37  1  0
 36 38  1  0
 32 39  1  0
 33 40  1  0
 33 41  2  0
 35 42  1  0
 36 43  2  0
 37 44  1  0
 39 45  1  0
 40 46  1  0
 40 47  1  0
 42 48  2  0
 43 48  1  0
 48 49  1  0
 45 50  2  0
 45 51  1  0
 46 52  1  0
 46 53  1  0
 49 54  1  0
 51 55  1  0
 55 56  1  0
 55 57  1  0
 56 58  1  0
 57 59  1  0
 58 60  1  0
 59 60  1  0
M  END
