x0540-x3110
     RDKit          3D

 44 46  0  0  0  0  0  0  0  0999 V2000
    8.0920    0.9370   23.2540 N   0  0  0  0  0  0  0  0  0  0  0  0
    8.8450    2.1380   23.6570 C   0  0  0  0  0  0  0  0  0  0  0  0
   10.3570    1.9280   23.5710 C   0  0  0  0  0  0  0  0  0  0  0  0
    7.8520    0.6430   21.9230 C   0  0  0  0  0  0  0  0  0  0  0  0
    8.5570    1.2460   21.0780 O   0  0  0  0  0  0  0  0  0  0  0  0
    6.7290   -0.3270   21.5880 C   0  0  2  0  0  0  0  0  0  0  0  0
    7.0140   -1.8100   21.7950 N   0  0  0  0  0  0  0  0  0  0  0  0
   11.0370    3.2640   23.4330 C   0  0  0  0  0  0  0  0  0  0  0  0
    6.1260    0.1820   20.3100 C   0  0  0  0  0  0  0  0  0  0  0  0
   12.0090    3.2210   22.4930 O   0  0  0  0  0  0  0  0  0  0  0  0
   10.7370    4.2490   24.0900 O   0  0  0  0  0  0  0  0  0  0  0  0
    6.1580   -2.9420   21.3000 C   0  0  0  0  0  0  0  0  0  0  0  0
    4.9060    0.9010   20.2300 C   0  0  0  0  0  0  0  0  0  0  0  0
    6.8280   -0.0380   19.1230 C   0  0  0  0  0  0  0  0  0  0  0  0
    8.4090   -1.8240   22.2460 C   0  0  0  0  0  0  0  0  0  0  0  0
   12.3570    4.5060   21.9610 C   0  0  0  0  0  0  0  0  0  0  0  0
    4.8510   -3.0860   21.3170 O   0  0  0  0  0  0  0  0  0  0  0  0
    6.8400   -4.1170   20.6780 C   0  0  0  0  0  0  0  0  0  0  0  0
    4.1290    1.1660   21.3640 C   0  0  0  0  0  0  0  0  0  0  0  0
    6.3330    0.4780   17.8160 N   0  0  0  0  0  0  0  0  0  0  0  0
    4.4690    1.3650   19.0250 C   0  0  0  0  0  0  0  0  0  0  0  0
    9.5570   -1.3050   21.6480 C   0  0  0  0  0  0  0  0  0  0  0  0
    8.6440   -2.4800   23.6020 C   0  0  0  0  0  0  0  0  0  0  0  0
   13.3780    5.1390   22.8770 C   0  0  0  0  0  0  0  0  0  0  0  0
    8.2410   -3.6450   20.2950 C   0  0  0  0  0  0  0  0  0  0  0  0
    4.9090    1.8120   22.3220 C   0  0  0  0  0  0  0  0  0  0  0  0
    5.2110    1.1620   17.7370 C   0  0  0  0  0  0  0  0  0  0  0  0
   10.8130   -1.3670   22.2680 C   0  0  0  0  0  0  0  0  0  0  0  0
    9.9330   -2.4850   24.1150 C   0  0  0  0  0  0  0  0  0  0  0  0
    4.0420    2.8320   22.9500 N   0  0  0  0  0  0  0  0  0  0  0  0
   11.0200   -1.9380   23.5000 C   0  0  0  0  0  0  0  0  0  0  0  0
   12.4210   -1.9150   24.1160 C   0  0  0  0  0  0  0  0  0  0  0  0
    2.9010    2.4680   23.5380 C   0  0  0  0  0  0  0  0  0  0  0  0
   12.6230   -0.7340   24.8640 C   0  0  0  0  0  0  0  0  0  0  0  0
   13.4220   -1.9410   22.9680 C   0  0  0  0  0  0  0  0  0  0  0  0
   12.7690   -3.0760   25.0400 C   0  0  0  0  0  0  0  0  0  0  0  0
    2.8720    1.5970   24.4120 O   0  0  0  0  0  0  0  0  0  0  0  0
    1.7060    3.1550   23.0820 N   0  0  0  0  0  0  0  0  0  0  0  0
    0.5560    3.2870   23.9510 C   0  0  0  0  0  0  0  0  0  0  0  0
    0.5350    4.6880   24.5680 C   0  0  0  0  0  0  0  0  0  0  0  0
   -0.7290    2.9780   23.1820 C   0  0  0  0  0  0  0  0  0  0  0  0
   -0.8460    4.9670   25.1420 C   0  0  0  0  0  0  0  0  0  0  0  0
   -2.0010    3.3360   23.9270 C   0  0  0  0  0  0  0  0  0  0  0  0
   -1.9910    4.6650   24.3590 C   0  0  0  0  0  0  0  0  0  0  0  0
  1  2  1  0
  2  3  1  0
  1  4  1  0
  4  5  2  0
  6  4  1  6
  6  7  1  0
  3  8  1  0
  6  9  1  0
  8 10  1  0
  8 11  2  0
  7 12  1  0
  9 13  1  0
  9 14  2  0
  7 15  1  0
 10 16  1  0
 12 17  2  0
 12 18  1  0
 13 19  1  0
 14 20  1  0
 13 21  2  0
 15 22  2  0
 15 23  1  0
 16 24  1  0
 18 25  1  0
 19 26  1  0
 20 27  2  0
 21 27  1  0
 22 28  1  0
 23 29  2  0
 26 30  1  0
 28 31  2  0
 29 31  1  0
 31 32  1  0
 30 33  1  0
 32 34  1  0
 32 35  1  0
 32 36  1  0
 33 37  2  0
 33 38  1  0
 38 39  1  0
 39 40  1  0
 39 41  1  0
 40 42  1  0
 41 43  1  0
 42 44  1  0
 43 44  1  0
M  END
