x0540-x1418-x0104
     RDKit          3D

 45 49  0  0  0  0  0  0  0  0999 V2000
    9.0080    6.5260   22.6160 C   0  0  0  0  0  0  0  0  0  0  0  0
   10.2310    6.1880   23.4260 C   0  0  0  0  0  0  0  0  0  0  0  0
   10.2810    6.3090   24.6450 O   0  0  0  0  0  0  0  0  0  0  0  0
   11.2750    5.7310   22.6730 N   0  0  0  0  0  0  0  0  0  0  0  0
   12.4060    5.0400   23.3150 C   0  0  0  0  0  0  0  0  0  0  0  0
   12.7640    3.6920   22.7100 C   0  0  0  0  0  0  0  0  0  0  0  0
   11.8690    2.5050   23.0450 C   0  0  0  0  0  0  0  0  0  0  0  0
   10.6480    2.6720   23.6590 C   0  0  0  0  0  0  0  0  0  0  0  0
   11.8640    1.1450   22.9790 C   0  0  0  0  0  0  0  0  0  0  0  0
    9.8190    1.5100   23.9570 N   0  0  0  0  0  0  0  0  0  0  0  0
   10.5850    0.5860   23.2920 C   0  0  2  0  0  0  0  0  0  0  0  0
   12.8920    0.2180   22.5420 C   0  0  0  0  0  0  0  0  0  0  0  0
   10.4710   -0.8950   23.5700 C   0  0  0  0  0  0  0  0  0  0  0  0
   12.7500   -1.2860   22.6280 C   0  0  0  0  0  0  0  0  0  0  0  0
   13.6550   -2.1190   22.1970 F   0  0  0  0  0  0  0  0  0  0  0  0
    9.2670   -1.6690   24.1620 C   0  0  0  0  0  0  0  0  0  0  0  0
   11.6490   -1.8370   23.1770 C   0  0  0  0  0  0  0  0  0  0  0  0
    8.2170   -1.8710   23.3300 N   0  0  0  0  0  0  0  0  0  0  0  0
    7.6750   -3.2480   23.3340 C   0  0  0  0  0  0  0  0  0  0  0  0
    8.3110   -1.1820   22.0340 C   0  0  0  0  0  0  0  0  0  0  0  0
    6.6330   -3.4510   22.3440 C   0  0  0  0  0  0  0  0  0  0  0  0
    7.2730   -1.5670   21.1660 C   0  0  2  0  0  0  0  0  0  0  0  0
    5.9760   -0.6590   21.3340 C   0  0  1  0  0  0  0  0  0  0  0  0
    6.7790   -2.8220   21.1780 N   0  0  0  0  0  0  0  0  0  0  0  0
    6.4230   -3.3790   19.9460 C   0  0  0  0  0  0  0  0  0  0  0  0
    5.9980    0.2690   22.5760 C   0  0  0  0  0  0  0  0  0  0  0  0
    5.6820    0.0680   20.0580 C   0  0  0  0  0  0  0  0  0  0  0  0
    7.3510   -3.0930   18.7930 C   0  0  0  0  0  0  0  0  0  0  0  0
    5.4460   -4.1210   19.7550 O   0  0  0  0  0  0  0  0  0  0  0  0
    4.9830    1.3590   22.2990 C   0  0  0  0  0  0  0  0  0  0  0  0
    6.5920    0.1250   18.9780 C   0  0  0  0  0  0  0  0  0  0  0  0
    4.4810    0.7340   19.8910 C   0  0  0  0  0  0  0  0  0  0  0  0
    4.4210    2.3070   23.2880 N   0  0  0  0  0  0  0  0  0  0  0  0
    6.3750    0.7800   17.8110 N   0  0  0  0  0  0  0  0  0  0  0  0
    4.2530    1.4680   18.6280 C   0  0  0  0  0  0  0  0  0  0  0  0
    3.0050    2.1080   23.7560 C   0  0  0  0  0  0  0  0  0  0  0  0
    5.2150    1.4460   17.6750 C   0  0  0  0  0  0  0  0  0  0  0  0
    2.6140    1.0000   24.5470 O   0  0  0  0  0  0  0  0  0  0  0  0
    2.1770    3.0650   23.3580 N   0  0  0  0  0  0  0  0  0  0  0  0
    0.8870    3.2510   24.0230 C   0  0  0  0  0  0  0  0  0  0  0  0
    0.7390    4.6750   24.5540 C   0  0  0  0  0  0  0  0  0  0  0  0
   -0.3080    2.9100   23.1270 C   0  0  0  0  0  0  0  0  0  0  0  0
   -0.6950    4.9120   25.0140 C   0  0  0  0  0  0  0  0  0  0  0  0
   -1.6540    3.2250   23.7730 C   0  0  0  0  0  0  0  0  0  0  0  0
   -1.7730    4.5720   24.1440 C   0  0  0  0  0  0  0  0  0  0  0  0
  1  2  1  0
  2  3  2  0
  2  4  1  0
  4  5  1  0
  5  6  1  0
  6  7  1  0
  7  8  1  0
  7  9  2  0
  8 10  2  0
  9 11  1  0
 11 10  1  1
  9 12  1  0
 11 13  1  0
 12 14  2  0
 14 15  1  0
 13 16  1  0
 13 17  2  0
 14 17  1  0
 16 18  1  0
 18 19  1  0
 18 20  1  0
 19 21  1  0
 22 20  1  1
 22 23  1  0
 21 24  1  0
 22 24  1  0
 24 25  1  0
 23 26  1  1
 23 27  1  0
 25 28  1  0
 25 29  2  0
 26 30  1  0
 27 31  2  0
 27 32  1  0
 30 33  1  0
 31 34  1  0
 32 35  2  0
 33 36  1  0
 34 37  2  0
 35 37  1  0
 36 38  2  0
 36 39  1  0
 39 40  1  0
 40 41  1  0
 40 42  1  0
 41 43  1  0
 42 44  1  0
 43 45  1  0
 44 45  1  0
M  END
