x0540-x0946-x3124
     RDKit          3D

 47 50  0  0  0  0  0  0  0  0999 V2000
    6.6350   -1.3680   22.0300 N   0  0  0  0  0  0  0  0  0  0  0  0
    5.9410   -2.6410   21.6670 C   0  0  0  0  0  0  0  0  0  0  0  0
    4.7250   -2.9260   21.2800 O   0  0  0  0  0  0  0  0  0  0  0  0
    6.2360    0.0250   21.8060 C   0  0  2  0  0  0  0  0  0  0  0  0
    8.0310   -1.5060   22.5060 C   0  0  0  0  0  0  0  0  0  0  0  0
    6.7650   -3.9300   21.7370 C   0  0  0  0  0  0  0  0  0  0  0  0
    7.5020    0.9980   21.9810 C   0  0  0  0  0  0  0  0  0  0  0  0
    4.9490    0.4320   22.6210 C   0  0  0  0  0  0  0  0  0  0  0  0
    6.0310    0.3420   20.3080 C   0  0  0  0  0  0  0  0  0  0  0  0
    9.0710   -1.7960   21.6770 C   0  0  0  0  0  0  0  0  0  0  0  0
    8.4420   -1.3440   23.9070 C   0  0  0  0  0  0  0  0  0  0  0  0
    6.6630   -4.7010   20.4110 C   0  0  0  0  0  0  0  0  0  0  0  0
    7.7450    1.3630   23.4270 N   0  0  0  0  0  0  0  0  0  0  0  0
    8.2320    1.4330   21.0510 O   0  0  0  0  0  0  0  0  0  0  0  0
    4.4210    1.6990   22.7000 N   0  0  0  0  0  0  0  0  0  0  0  0
    4.8450    1.2420   20.0750 C   0  0  0  0  0  0  0  0  0  0  0  0
    6.7350   -0.0370   19.1730 C   0  0  0  0  0  0  0  0  0  0  0  0
   10.5110   -1.9280   22.1650 C   0  0  0  0  0  0  0  0  0  0  0  0
    9.7550   -1.4530   24.3940 C   0  0  0  0  0  0  0  0  0  0  0  0
    8.5160    2.6550   23.5630 C   0  0  0  0  0  0  0  0  0  0  0  0
    3.2360    1.8930   23.4680 C   0  0  0  0  0  0  0  0  0  0  0  0
    6.4150    0.3650   17.8940 N   0  0  0  0  0  0  0  0  0  0  0  0
    4.5150    1.6520   18.8050 C   0  0  0  0  0  0  0  0  0  0  0  0
   11.0670   -1.7670   23.6240 C   0  0  0  0  0  0  0  0  0  0  0  0
   12.4540   -1.8700   24.0880 C   0  0  0  0  0  0  0  0  0  0  0  0
    2.9590    1.0590   24.6090 O   0  0  0  0  0  0  0  0  0  0  0  0
    2.3700    2.8950   23.0790 N   0  0  0  0  0  0  0  0  0  0  0  0
    5.3390    1.1820   17.7900 C   0  0  0  0  0  0  0  0  0  0  0  0
   10.0360    2.5600   23.3360 C   0  0  0  0  0  0  0  0  0  0  0  0
   12.7370   -0.6180   24.8840 C   0  0  0  0  0  0  0  0  0  0  0  0
   13.3770   -1.9410   23.0760 C   0  0  0  0  0  0  0  0  0  0  0  0
   12.7570   -3.0360   25.0130 C   0  0  0  0  0  0  0  0  0  0  0  0
    1.0810    3.0880   23.8350 C   0  0  0  0  0  0  0  0  0  0  0  0
   10.8670    3.6470   23.3460 C   0  0  0  0  0  0  0  0  0  0  0  0
   10.5520    1.2750   23.1000 C   0  0  0  0  0  0  0  0  0  0  0  0
   10.3390    5.2730   23.6410 S   0  0  0  0  0  0  0  0  0  0  0  0
    0.8100    4.4750   24.1000 C   0  0  0  0  0  0  0  0  0  0  0  0
    0.0350    2.4820   23.1490 C   0  0  0  0  0  0  0  0  0  0  0  0
   11.8900    0.9750   22.8560 C   0  0  0  0  0  0  0  0  0  0  0  0
   12.3120    3.4210   23.0840 C   0  0  0  0  0  0  0  0  0  0  0  0
    9.0380    5.5170   22.6280 N   0  0  0  0  0  0  0  0  0  0  0  0
    9.8150    5.3990   24.9820 O   0  0  0  0  0  0  0  0  0  0  0  0
   11.3710    6.1710   23.1720 O   0  0  0  0  0  0  0  0  0  0  0  0
   -0.2400    4.6550   25.2070 C   0  0  0  0  0  0  0  0  0  0  0  0
   -1.2690    3.1910   23.5050 C   0  0  0  0  0  0  0  0  0  0  0  0
   12.8640    2.1190   22.8410 C   0  0  0  0  0  0  0  0  0  0  0  0
   -1.0540    4.5260   23.9180 C   0  0  0  0  0  0  0  0  0  0  0  0
  1  2  1  0
  2  3  2  0
  1  4  1  0
  1  5  1  0
  2  6  1  0
  4  7  1  0
  4  8  1  1
  4  9  1  0
  5 10  2  0
  5 11  1  0
  6 12  1  0
  7 13  1  0
  7 14  2  0
  8 15  1  0
  9 16  2  0
  9 17  1  0
 10 18  1  0
 11 19  2  0
 13 20  1  0
 15 21  1  0
 17 22  2  0
 16 23  1  0
 18 24  2  0
 19 24  1  0
 24 25  1  0
 21 26  2  0
 21 27  1  0
 22 28  1  0
 23 28  2  0
 20 29  1  0
 25 30  1  0
 25 31  1  0
 25 32  1  0
 27 33  1  0
 29 34  2  0
 29 35  1  0
 34 36  1  0
 33 37  1  0
 33 38  1  0
 35 39  2  0
 34 40  1  0
 36 41  1  0
 36 42  2  0
 36 43  2  0
 37 44  1  0
 38 45  1  0
 39 46  1  0
 40 46  2  0
 44 47  1  0
 45 47  1  0
M  END
