x0540-x0786-x3110-x0995-x0395-x2694-x0387
     RDKit          3D

 75 82  0  0  0  0  0  0  0  0999 V2000
    7.0440    1.6300   23.5290 N   0  0  0  0  0  0  0  0  0  0  0  0
    8.1940    2.2670   23.1290 C   0  0  0  0  0  0  0  0  0  0  0  0
    9.0700    3.1100   23.9490 C   0  0  0  0  0  0  0  0  0  0  0  0
    6.0580    1.7150   22.5870 C   0  0  0  0  0  0  0  0  0  0  0  0
    5.6640    2.7850   22.1300 O   0  0  0  0  0  0  0  0  0  0  0  0
    5.4680    0.5080   22.0340 C   0  0  2  0  0  0  0  0  0  0  0  0
    6.1770   -0.9370   22.3060 N   0  0  0  0  0  0  0  0  0  0  0  0
   10.3270    3.6860   23.2490 C   0  0  2  0  0  0  0  0  0  0  0  0
    5.0310    0.9640   20.5400 C   0  0  0  0  0  0  0  0  0  0  0  0
   11.7050    2.9670   23.3300 C   0  0  2  0  0  0  0  0  0  0  0  0
    5.2880   -1.9430   21.5950 C   0  0  0  0  0  0  0  0  0  0  0  0
    3.6620    1.7150   20.2340 C   0  0  0  0  0  0  0  0  0  0  0  0
    5.9000    0.7750   19.4210 C   0  0  0  0  0  0  0  0  0  0  0  0
    7.6850   -1.2530   22.5020 C   0  0  1  0  0  0  0  0  0  0  0  0
   10.0090    5.2250   22.9100 C   0  0  0  0  0  0  0  0  0  0  0  0
   12.8880    3.8470   22.6260 C   0  0  0  0  0  0  0  0  0  0  0  0
    2.5630    2.0310   21.2960 C   0  0  0  0  0  0  0  0  0  0  0  0
    5.2990   -3.4550   21.8860 N   0  0  0  0  0  0  0  0  0  0  0  0
    5.6790    1.1430   18.1150 N   0  0  0  0  0  0  0  0  0  0  0  0
    3.3740    2.1330   18.9040 C   0  0  0  0  0  0  0  0  0  0  0  0
    8.4100   -1.0560   21.1200 C   0  0  0  0  0  0  0  0  0  0  0  0
    8.5120   -1.2180   23.8720 C   0  0  1  0  0  0  0  0  0  0  0  0
   10.4190    5.5690   24.3790 C   0  0  0  0  0  0  0  0  0  0  0  0
    9.7170    6.6380   22.5980 C   0  0  0  0  0  0  0  0  0  0  0  0
   11.6390    1.3560   22.8100 C   0  0  2  0  0  0  0  0  0  0  0  0
   13.5710    4.9210   23.4930 C   0  0  0  0  0  0  0  0  0  0  0  0
    2.6300    3.5130   21.7200 C   0  0  0  0  0  0  0  0  0  0  0  0
    2.3170    2.8150   18.3520 N   0  0  0  0  0  0  0  0  0  0  0  0
    5.7110   -4.1990   20.7230 C   0  0  0  0  0  0  0  0  0  0  0  0
    4.5040    1.7970   17.8490 C   0  0  0  0  0  0  0  0  0  0  0  0
   11.0000   -0.3770   23.3420 C   0  0  2  0  0  0  0  0  0  0  0  0
    9.8400   -0.5310   24.2440 C   0  0  0  0  0  0  0  0  0  0  0  0
   10.4720    6.7830   25.1620 C   0  0  0  0  0  0  0  0  0  0  0  0
    9.7410    7.8630   23.2880 C   0  0  0  0  0  0  0  0  0  0  0  0
    7.5690   -0.8910   25.0310 N   0  0  0  0  0  0  0  0  0  0  0  0
    8.8110   -3.0090   24.3600 S   0  0  0  0  0  0  0  0  0  0  0  0
   12.9040    0.8350   22.6910 C   0  0  0  0  0  0  0  0  0  0  0  0
    4.5020   -4.0140   22.9660 C   0  0  0  0  0  0  0  0  0  0  0  0
   12.3570   -1.5910   23.1450 C   0  0  0  0  0  0  0  0  0  0  0  0
   10.9050    6.6290   26.4620 O   0  0  0  0  0  0  0  0  0  0  0  0
    1.3760    3.9920   22.3480 N   0  0  0  0  0  0  0  0  0  0  0  0
    7.1470   -4.7130   20.6640 C   0  0  0  0  0  0  0  0  0  0  0  0
    4.9330   -4.4360   19.8130 O   0  0  0  0  0  0  0  0  0  0  0  0
   10.1210    7.9530   24.5950 C   0  0  0  0  0  0  0  0  0  0  0  0
    7.9460   -3.0440   25.9070 C   0  0  1  0  0  0  0  0  0  0  0  0
    6.9290   -2.0210   25.7260 N   0  0  0  0  0  0  0  0  0  0  0  0
   12.8690   -0.1970   21.7760 C   0  0  0  0  0  0  0  0  0  0  0  0
    4.2020   -5.3960   22.9760 C   0  0  0  0  0  0  0  0  0  0  0  0
    3.9440   -3.2120   24.0390 C   0  0  0  0  0  0  0  0  0  0  0  0
   13.1210   -1.7560   24.5240 C   0  0  0  0  0  0  0  0  0  0  0  0
   13.6700   -1.2630   21.9560 C   0  0  2  0  0  0  0  0  0  0  0  0
   11.8410   -2.9220   22.6570 C   0  0  0  0  0  0  0  0  0  0  0  0
   12.1780    6.9120   26.8220 C   0  0  0  0  0  0  0  0  0  0  0  0
    1.2420    3.4750   23.7300 C   0  0  0  0  0  0  0  0  0  0  0  0
    7.3720   -4.4140   26.2450 C   0  0  0  0  0  0  0  0  0  0  0  0
    3.3450   -6.0190   24.0940 C   0  0  0  0  0  0  0  0  0  0  0  0
    3.1350   -3.7820   25.0670 C   0  0  0  0  0  0  0  0  0  0  0  0
   13.8550   -1.9190   20.7040 C   0  0  0  0  0  0  0  0  0  0  0  0
    1.9860    3.8350   24.6510 O   0  0  0  0  0  0  0  0  0  0  0  0
    0.2380    2.6650   23.8070 N   0  0  0  0  0  0  0  0  0  0  0  0
    3.0480   -7.4870   24.1210 C   0  0  0  0  0  0  0  0  0  0  0  0
    2.8350   -5.1550   25.1030 C   0  0  0  0  0  0  0  0  0  0  0  0
    3.8880   -8.1690   24.7110 O   0  0  0  0  0  0  0  0  0  0  0  0
   -1.1020    2.9460   24.3720 C   0  0  0  0  0  0  0  0  0  0  0  0
    1.8820   -8.0560   23.5150 N   0  0  0  0  0  0  0  0  0  0  0  0
   -1.3450    4.3440   24.7360 C   0  0  0  0  0  0  0  0  0  0  0  0
   -2.0990    2.2680   23.5970 C   0  0  0  0  0  0  0  0  0  0  0  0
    1.3530   -7.5230   22.2300 C   0  0  0  0  0  0  0  0  0  0  0  0
    0.9570   -8.9910   24.2020 C   0  0  0  0  0  0  0  0  0  0  0  0
   -2.6270    4.7480   25.1730 C   0  0  0  0  0  0  0  0  0  0  0  0
   -3.5960    2.6280   23.8790 C   0  0  0  0  0  0  0  0  0  0  0  0
    0.1450   -6.6090   22.4920 C   0  0  0  0  0  0  0  0  0  0  0  0
   -0.4020   -8.3910   24.6320 C   0  0  0  0  0  0  0  0  0  0  0  0
   -3.8710    4.0130   24.5160 C   0  0  0  0  0  0  0  0  0  0  0  0
   -1.2740   -7.4720   23.2950 S   0  0  0  0  0  0  0  0  0  0  0  0
  1  2  1  0
  2  3  2  0
  1  4  1  0
  4  5  2  0
  4  6  1  0
  6  7  1  0
  3  8  1  0
  6  9  1  6
  8 10  1  0
  7 11  1  0
  9 12  1  0
  9 13  2  0
  7 14  1  0
  8 15  1  1
 10 16  1  6
 12 17  1  0
 11 18  1  0
 13 19  1  0
 12 20  2  0
 14 21  1  6
 14 22  1  0
 15 23  2  0
 15 24  1  0
 10 25  1  0
 16 26  1  0
 17 27  1  0
 20 28  1  0
 18 29  1  0
 19 30  2  0
 20 30  1  0
 25 31  1  0
 22 32  1  6
 31 32  1  1
 23 33  1  0
 24 34  2  0
 22 35  1  0
 22 36  1  0
 25 37  1  1
 18 38  1  0
 31 39  1  0
 33 40  1  0
 27 41  1  0
 29 42  1  0
 29 43  2  0
 33 44  2  0
 34 44  1  0
 36 45  1  0
 35 46  1  0
 45 46  1  0
 37 47  2  0
 38 48  2  0
 38 49  1  0
 39 50  1  0
 39 51  1  0
 47 51  1  0
 39 52  1  0
 40 53  1  0
 41 54  1  0
 45 55  1  6
 48 56  1  0
 49 57  2  0
 51 58  1  6
 54 59  2  0
 54 60  1  0
 56 61  1  0
 56 62  2  0
 57 62  1  0
 61 63  2  0
 60 64  1  0
 61 65  1  0
 64 66  1  0
 64 67  1  0
 65 68  1  0
 65 69  1  0
 66 70  1  0
 67 71  1  0
 68 72  1  0
 69 73  1  0
 70 74  1  0
 71 74  1  0
 72 75  1  0
 73 75  1  0
M  END
