x0540-x2754-x2705
     RDKit          3D

 60 65  0  0  0  0  0  0  0  0999 V2000
    7.6500   -1.2860   21.8120 N   0  0  0  0  0  0  0  0  0  0  0  0
    7.0990   -0.0440   21.5950 C   0  0  1  0  0  0  0  0  0  0  0  0
    8.0370    1.1440   21.8020 C   0  0  0  0  0  0  0  0  0  0  0  0
    8.7820   -1.3830   22.5820 C   0  0  0  0  0  0  0  0  0  0  0  0
    6.6340   -2.3550   22.1580 C   0  0  1  0  0  0  0  0  0  0  0  0
    6.3520    0.2160   20.2580 C   0  0  0  0  0  0  0  0  0  0  0  0
    8.7790   -1.4590   23.9370 N   0  0  0  0  0  0  0  0  0  0  0  0
   10.0480   -1.4030   22.1710 C   0  0  0  0  0  0  0  0  0  0  0  0
    6.7310   -3.7190   21.5890 N   0  0  0  0  0  0  0  0  0  0  0  0
    6.4840   -2.5930   23.6650 C   0  0  0  0  0  0  0  0  0  0  0  0
    7.6410    2.1140   22.7180 N   0  0  0  0  0  0  0  0  0  0  0  0
    9.0660    1.2710   21.1570 O   0  0  0  0  0  0  0  0  0  0  0  0
    6.3130   -3.8650   20.2550 C   0  0  0  0  0  0  0  0  0  0  0  0
    4.9840    0.7480   20.2560 C   0  0  0  0  0  0  0  0  0  0  0  0
    6.9610   -0.0220   19.1030 C   0  0  0  0  0  0  0  0  0  0  0  0
   10.0750   -1.5220   24.3220 N   0  0  0  0  0  0  0  0  0  0  0  0
   10.9440   -1.4830   23.1300 C   0  0  0  0  0  0  0  0  0  0  0  0
    5.2300   -3.4050   23.9320 C   0  0  2  0  0  0  0  0  0  0  0  0
    6.6330   -4.8860   22.4920 C   0  0  0  0  0  0  0  0  0  0  0  0
   12.3670   -1.5210   23.1780 C   0  0  0  0  0  0  0  0  0  0  0  0
    4.1610    1.0270   21.4740 C   0  0  0  0  0  0  0  0  0  0  0  0
    4.6020   -3.2380   25.3330 C   0  0  0  0  0  0  0  0  0  0  0  0
    5.3440   -4.5480   19.9140 O   0  0  0  0  0  0  0  0  0  0  0  0
    7.1600   -3.1720   19.2040 C   0  0  0  0  0  0  0  0  0  0  0  0
    6.2820    0.2900   17.8310 N   0  0  0  0  0  0  0  0  0  0  0  0
    4.3540    1.0400   18.9470 C   0  0  0  0  0  0  0  0  0  0  0  0
    8.3160    3.3510   22.8870 C   0  0  0  0  0  0  0  0  0  0  0  0
    5.4770   -4.8480   23.4970 C   0  0  0  0  0  0  0  0  0  0  0  0
   12.8900   -0.1380   23.4700 C   0  0  0  0  0  0  0  0  0  0  0  0
   12.8940   -2.4810   24.2780 C   0  0  0  0  0  0  0  0  0  0  0  0
   12.9480   -2.0080   21.8220 C   0  0  0  0  0  0  0  0  0  0  0  0
    4.7860    1.8190   22.4220 C   0  0  0  0  0  0  0  0  0  0  0  0
    3.1810   -3.1800   25.3920 O   0  0  0  0  0  0  0  0  0  0  0  0
    5.4510   -3.0790   26.5640 N   0  0  0  0  0  0  0  0  0  0  0  0
    5.0470    0.8000   17.8490 C   0  0  0  0  0  0  0  0  0  0  0  0
    9.6060    3.3680   23.4530 C   0  0  0  0  0  0  0  0  0  0  0  0
    7.6780    4.5130   22.4850 C   0  0  0  0  0  0  0  0  0  0  0  0
   10.3180    2.1070   23.8870 C   0  0  0  0  0  0  0  0  0  0  0  0
    6.3170    4.4930   21.8810 C   0  0  0  0  0  0  0  0  0  0  0  0
    3.8230    2.7770   22.9780 N   0  0  0  0  0  0  0  0  0  0  0  0
    5.0230   -2.2550   27.5660 C   0  0  0  0  0  0  0  0  0  0  0  0
   10.2700    4.5750   23.6290 C   0  0  0  0  0  0  0  0  0  0  0  0
    8.3670    5.8500   22.6570 C   0  0  0  0  0  0  0  0  0  0  0  0
    6.7770   -3.6520   26.7420 C   0  0  0  0  0  0  0  0  0  0  0  0
    9.4640    1.2470   24.8070 C   0  0  0  0  0  0  0  0  0  0  0  0
    2.7740    2.2720   23.6900 C   0  0  0  0  0  0  0  0  0  0  0  0
    9.6250    5.8810   23.2140 C   0  0  0  0  0  0  0  0  0  0  0  0
    6.9830   -4.8470   27.4580 C   0  0  0  0  0  0  0  0  0  0  0  0
    7.9160   -3.0440   26.2180 C   0  0  0  0  0  0  0  0  0  0  0  0
    2.8650    1.5560   24.6780 O   0  0  0  0  0  0  0  0  0  0  0  0
    1.6070    2.6270   23.1380 N   0  0  0  0  0  0  0  0  0  0  0  0
    8.2600   -5.3910   27.6330 C   0  0  0  0  0  0  0  0  0  0  0  0
    9.1920   -3.5880   26.3880 C   0  0  0  0  0  0  0  0  0  0  0  0
    0.5020    3.0920   23.9510 C   0  0  0  0  0  0  0  0  0  0  0  0
    9.3690   -4.7580   27.0950 C   0  0  0  0  0  0  0  0  0  0  0  0
    0.6440    4.5780   24.3560 C   0  0  0  0  0  0  0  0  0  0  0  0
   -0.7110    2.9090   23.2830 C   0  0  0  0  0  0  0  0  0  0  0  0
   -0.6510    5.0780   25.0160 C   0  0  0  0  0  0  0  0  0  0  0  0
   -1.7480    3.3620   24.0050 C   0  0  0  0  0  0  0  0  0  0  0  0
   -1.8870    4.8090   24.3530 C   0  0  0  0  0  0  0  0  0  0  0  0
  1  2  1  0
  2  3  1  6
  1  4  1  0
  5  1  1  1
  2  6  1  0
  4  7  2  0
  4  8  1  0
  5  9  1  0
  5 10  1  0
  3 11  1  0
  3 12  2  0
  9 13  1  0
  6 14  1  0
  6 15  2  0
  7 16  1  0
  8 17  2  0
 16 17  1  0
 10 18  1  0
  9 19  1  0
 17 20  1  0
 14 21  1  0
 18 22  1  1
 13 23  2  0
 13 24  1  0
 15 25  1  0
 14 26  2  0
 11 27  1  0
 18 28  1  0
 19 28  1  0
 20 29  1  0
 20 30  1  0
 20 31  1  0
 21 32  1  0
 22 33  2  0
 22 34  1  0
 25 35  2  0
 26 35  1  0
 27 36  2  0
 27 37  1  0
 36 38  1  0
 37 39  1  0
 32 40  1  0
 34 41  1  0
 36 42  1  0
 37 43  2  0
 34 44  1  0
 38 45  1  0
 40 46  1  0
 42 47  2  0
 43 47  1  0
 44 48  2  0
 44 49  1  0
 46 50  2  0
 46 51  1  0
 48 52  1  0
 49 53  2  0
 51 54  1  0
 52 55  2  0
 53 55  1  0
 54 56  1  0
 54 57  1  0
 56 58  1  0
 57 59  1  0
 58 60  1  0
 59 60  1  0
M  END
