x0540-x1386
     RDKit          3D

 35 38  0  0  0  0  0  0  0  0999 V2000
    2.8400    1.4080   24.5660 O   0  0  0  0  0  0  0  0  0  0  0  0
    2.9480    2.3800   23.5190 C   0  0  0  0  0  0  0  0  0  0  0  0
    4.0690    2.5020   22.7070 N   0  0  0  0  0  0  0  0  0  0  0  0
    1.9440    3.2990   23.2120 N   0  0  0  0  0  0  0  0  0  0  0  0
    5.1350    1.6470   22.9300 C   0  0  0  0  0  0  0  0  0  0  0  0
    0.6820    3.3130   23.9030 C   0  0  0  0  0  0  0  0  0  0  0  0
    4.8660    0.1930   22.5430 C   0  0  0  0  0  0  0  0  0  0  0  0
    0.5950    4.5820   24.5020 C   0  0  0  0  0  0  0  0  0  0  0  0
   -0.4460    2.9900   23.1620 C   0  0  0  0  0  0  0  0  0  0  0  0
    5.6440   -0.5790   21.4940 C   0  0  1  0  0  0  0  0  0  0  0  0
   -0.5720    4.7740   25.2080 C   0  0  0  0  0  0  0  0  0  0  0  0
   -1.6260    3.3000   23.8740 C   0  0  0  0  0  0  0  0  0  0  0  0
    5.4930    0.1430   20.1760 C   0  0  0  0  0  0  0  0  0  0  0  0
   -1.6780    4.6630   24.1520 C   0  0  0  0  0  0  0  0  0  0  0  0
    7.1160   -0.6600   21.9030 C   0  0  0  0  0  0  0  0  0  0  0  0
    6.4250   -0.0240   18.9600 C   0  0  0  0  0  0  0  0  0  0  0  0
    4.3470    1.1240   20.0140 C   0  0  0  0  0  0  0  0  0  0  0  0
    7.8300   -1.5820   21.1500 C   0  0  2  0  0  0  0  0  0  0  0  0
    6.2380    0.7150   17.7190 N   0  0  0  0  0  0  0  0  0  0  0  0
    4.2770    1.8260   18.6700 C   0  0  0  0  0  0  0  0  0  0  0  0
    6.9230   -2.6760   21.0430 N   0  0  0  0  0  0  0  0  0  0  0  0
    9.0820   -1.8010   21.6830 C   0  0  0  0  0  0  0  0  0  0  0  0
    5.1400    1.6520   17.6040 C   0  0  0  0  0  0  0  0  0  0  0  0
    6.5010   -3.2660   19.8310 C   0  0  0  0  0  0  0  0  0  0  0  0
    8.9200   -2.2670   23.0490 N   0  0  0  0  0  0  0  0  0  0  0  0
    6.7840   -3.4140   22.1800 C   0  0  0  0  0  0  0  0  0  0  0  0
    7.4470   -3.0460   18.6830 C   0  0  0  0  0  0  0  0  0  0  0  0
    5.4830   -3.9680   19.6920 O   0  0  0  0  0  0  0  0  0  0  0  0
   10.0460   -2.4700   23.7460 C   0  0  0  0  0  0  0  0  0  0  0  0
    7.9740   -3.2260   23.1600 C   0  0  0  0  0  0  0  0  0  0  0  0
   11.0110   -1.5070   23.4580 C   0  0  0  0  0  0  0  0  0  0  0  0
   12.2650   -1.8430   23.0050 C   0  0  0  0  0  0  0  0  0  0  0  0
   10.8260   -0.1550   23.5810 C   0  0  0  0  0  0  0  0  0  0  0  0
   12.1770    0.8190   23.1580 S   0  0  0  0  0  0  0  0  0  0  0  0
   13.0890   -0.5550   22.7730 C   0  0  0  0  0  0  0  0  0  0  0  0
  1  2  2  0
  2  3  1  0
  2  4  1  0
  3  5  1  0
  4  6  1  0
  5  7  1  0
  6  8  1  0
  6  9  1  0
 10  7  1  1
  8 11  1  0
  9 12  1  0
 10 13  1  0
 11 14  1  0
 12 14  1  0
 10 15  1  0
 13 16  2  0
 13 17  1  0
 18 15  1  1
 16 19  1  0
 17 20  2  0
 18 21  1  0
 18 22  1  0
 19 23  2  0
 20 23  1  0
 21 24  1  0
 22 25  1  0
 21 26  1  0
 24 27  1  0
 24 28  2  0
 25 29  1  0
 25 30  1  0
 26 30  1  0
 29 31  1  0
 31 32  1  0
 31 33  2  0
 33 34  1  0
 32 35  2  0
 34 35  1  0
M  END
