x0540-x3110-x3113-x0769
     RDKit          3D

 62 67  0  0  0  0  0  0  0  0999 V2000
    8.0530    1.0550   23.3390 N   0  0  0  0  0  0  0  0  0  0  0  0
    8.8910    2.2170   23.3840 C   0  0  0  0  0  0  0  0  0  0  0  0
   10.3920    1.9950   23.5460 C   0  0  0  0  0  0  0  0  0  0  0  0
    7.8420    0.7640   21.8950 C   0  0  0  0  0  0  0  0  0  0  0  0
    8.5510    1.3040   21.0250 O   0  0  0  0  0  0  0  0  0  0  0  0
    6.6420   -0.2120   21.5630 C   0  0  2  0  0  0  0  0  0  0  0  0
    6.8810   -1.6950   21.9920 C   0  0  2  0  0  0  0  0  0  0  0  0
   11.0540    3.2070   23.3900 C   0  0  0  0  0  0  0  0  0  0  0  0
    6.2020    0.2720   20.1850 C   0  0  0  0  0  0  0  0  0  0  0  0
   12.0360    3.2180   22.4360 O   0  0  0  0  0  0  0  0  0  0  0  0
   10.7850    4.2040   24.0570 O   0  0  0  0  0  0  0  0  0  0  0  0
    6.2220   -2.9310   21.2700 C   0  0  0  0  0  0  0  0  0  0  0  0
    6.0360   -2.0300   23.2330 C   0  0  0  0  0  0  0  0  0  0  0  0
    4.9340    1.0920   20.0910 C   0  0  0  0  0  0  0  0  0  0  0  0
    6.8300    0.0820   18.9380 C   0  0  0  0  0  0  0  0  0  0  0  0
    8.3550   -1.7420   22.4740 C   0  0  0  0  0  0  0  0  0  0  0  0
   12.3780    4.5300   21.9650 C   0  0  0  0  0  0  0  0  0  0  0  0
    5.0100   -3.1490   20.7860 O   0  0  0  0  0  0  0  0  0  0  0  0
    7.2110   -4.0210   21.4300 C   0  0  2  0  0  0  0  0  0  0  0  0
    4.1910    1.3550   21.2400 C   0  0  0  0  0  0  0  0  0  0  0  0
    5.5430   -3.3860   23.2340 C   0  0  0  0  0  0  0  0  0  0  0  0
    6.4370    0.5480   17.7510 N   0  0  0  0  0  0  0  0  0  0  0  0
    4.5030    1.5920   18.8680 C   0  0  0  0  0  0  0  0  0  0  0  0
    9.4850   -1.3730   21.7390 C   0  0  0  0  0  0  0  0  0  0  0  0
    8.5860   -2.1750   23.7720 C   0  0  0  0  0  0  0  0  0  0  0  0
   13.3680    5.1860   22.9190 C   0  0  0  0  0  0  0  0  0  0  0  0
    6.8990   -3.7810   19.9810 C   0  0  0  0  0  0  0  0  0  0  0  0
    4.9200    2.2640   22.0390 C   0  0  0  0  0  0  0  0  0  0  0  0
    5.2160    1.3530   17.7070 C   0  0  0  0  0  0  0  0  0  0  0  0
   10.8050   -1.4020   22.2200 C   0  0  0  0  0  0  0  0  0  0  0  0
   10.0060   -2.1950   24.2720 C   0  0  0  0  0  0  0  0  0  0  0  0
    6.3520   -4.5530   22.5500 C   0  0  0  0  0  0  0  0  0  0  0  0
    4.1410    3.0400   23.0080 N   0  0  0  0  0  0  0  0  0  0  0  0
   11.0680   -1.8170   23.5250 C   0  0  0  0  0  0  0  0  0  0  0  0
    5.5740   -5.8810   22.2650 C   0  0  0  0  0  0  0  0  0  0  0  0
    7.2030   -4.9790   23.3980 C   0  0  0  0  0  0  0  0  0  0  0  0
   12.4870   -1.8200   24.0550 C   0  0  0  0  0  0  0  0  0  0  0  0
    2.8920    2.5230   23.5380 C   0  0  0  0  0  0  0  0  0  0  0  0
    4.7470   -6.2700   23.4870 C   0  0  0  0  0  0  0  0  0  0  0  0
    6.6850   -5.1960   24.7600 C   0  0  0  0  0  0  0  0  0  0  0  0
   12.6740   -0.6260   24.7400 C   0  0  0  0  0  0  0  0  0  0  0  0
   13.4640   -2.0020   22.9270 C   0  0  0  0  0  0  0  0  0  0  0  0
   12.7870   -2.9480   25.0290 C   0  0  0  0  0  0  0  0  0  0  0  0
    2.7610    1.4030   24.4190 O   0  0  0  0  0  0  0  0  0  0  0  0
    1.7740    3.3160   23.0540 N   0  0  0  0  0  0  0  0  0  0  0  0
    5.3060   -5.6510   24.7160 N   0  0  0  0  0  0  0  0  0  0  0  0
    4.4670   -5.6000   26.1160 S   0  0  0  0  0  0  0  0  0  0  0  0
    0.5670    3.3920   23.8580 C   0  0  0  0  0  0  0  0  0  0  0  0
    5.4790   -5.4990   27.1380 O   0  0  0  0  0  0  0  0  0  0  0  0
    3.5050   -6.6770   26.1250 O   0  0  0  0  0  0  0  0  0  0  0  0
    0.5110    4.7660   24.5300 C   0  0  0  0  0  0  0  0  0  0  0  0
   -0.6320    2.9500   23.0400 C   0  0  0  0  0  0  0  0  0  0  0  0
    3.5590   -4.0660   26.1040 C   0  0  0  0  0  0  0  0  0  0  0  0
   -0.8290    4.9290   25.2580 C   0  0  0  0  0  0  0  0  0  0  0  0
   -1.9440    3.2870   23.7550 C   0  0  0  0  0  0  0  0  0  0  0  0
    4.2390   -2.7150   26.2720 C   0  0  0  0  0  0  0  0  0  0  0  0
    2.1890   -4.1420   25.9440 C   0  0  0  0  0  0  0  0  0  0  0  0
    5.5600   -2.5700   26.4280 F   0  0  0  0  0  0  0  0  0  0  0  0
   -2.0120    4.7160   24.2970 C   0  0  0  0  0  0  0  0  0  0  0  0
    1.4330   -2.9590   25.9460 C   0  0  0  0  0  0  0  0  0  0  0  0
    3.4270   -1.5780   26.2640 C   0  0  0  0  0  0  0  0  0  0  0  0
    2.0540   -1.7110   26.1080 C   0  0  0  0  0  0  0  0  0  0  0  0
  1  2  1  0
  2  3  1  0
  1  4  1  0
  4  5  2  0
  6  4  1  6
  6  7  1  0
  3  8  1  0
  6  9  1  0
  8 10  1  0
  8 11  2  0
  7 12  1  0
  7 13  1  0
  9 14  1  0
  9 15  2  0
  7 16  1  1
 10 17  1  0
 12 18  2  0
 12 19  1  0
 14 20  1  0
 13 21  1  0
 15 22  1  0
 14 23  2  0
 16 24  2  0
 16 25  1  0
 17 26  1  0
 19 27  1  6
 20 28  1  0
 22 29  2  0
 23 29  1  0
 24 30  1  0
 25 31  2  0
 19 32  1  0
 32 21  1  0
 28 33  1  0
 30 34  2  0
 31 34  1  0
 32 35  1  0
 32 36  1  0
 34 37  1  0
 33 38  1  0
 35 39  1  0
 36 40  1  0
 37 41  1  0
 37 42  1  0
 37 43  1  0
 38 44  2  0
 38 45  1  0
 39 46  1  0
 40 46  1  0
 46 47  1  0
 45 48  1  0
 47 49  2  0
 47 50  2  0
 48 51  1  0
 48 52  1  0
 47 53  1  0
 51 54  1  0
 52 55  1  0
 53 56  2  0
 53 57  1  0
 56 58  1  0
 54 59  1  0
 55 59  1  0
 57 60  2  0
 56 61  1  0
 60 62  1  0
 61 62  2  0
M  END
