x0540-x0397-x1077-x2540
     RDKit          3D

 54 59  0  0  0  0  0  0  0  0999 V2000
    7.4520   -0.9910   21.9780 N   0  0  0  0  0  0  0  0  0  0  0  0
    7.2740   -1.5780   20.7950 C   0  0  2  0  0  0  0  0  0  0  0  0
    6.0560   -1.8000   20.7690 O   0  0  0  0  0  0  0  0  0  0  0  0
    6.9460    0.3370   21.7670 C   0  0  1  0  0  0  0  0  0  0  0  0
    8.5970   -1.1700   22.7500 C   0  0  0  0  0  0  0  0  0  0  0  0
    8.0130   -2.8930   20.9150 C   0  0  0  0  0  0  0  0  0  0  0  0
    8.0060    1.4030   22.0140 C   0  0  0  0  0  0  0  0  0  0  0  0
    7.2160   -1.4030   19.2470 C   0  0  0  0  0  0  0  0  0  0  0  0
    6.2720    0.5430   20.3400 C   0  0  0  0  0  0  0  0  0  0  0  0
    8.6020   -1.4390   24.0510 N   0  0  0  0  0  0  0  0  0  0  0  0
    9.9580   -1.0940   22.3010 C   0  0  0  0  0  0  0  0  0  0  0  0
    7.4410   -3.7640   19.8590 C   0  0  0  0  0  0  0  0  0  0  0  0
    8.2340    1.9470   23.3210 N   0  0  0  0  0  0  0  0  0  0  0  0
    8.7820    1.8770   20.9220 O   0  0  0  0  0  0  0  0  0  0  0  0
    5.4200    1.5940   20.1920 C   0  0  0  0  0  0  0  0  0  0  0  0
    6.4060   -0.2030   19.2020 C   0  0  0  0  0  0  0  0  0  0  0  0
    9.9220   -1.5250   24.4360 O   0  0  0  0  0  0  0  0  0  0  0  0
   10.7190   -1.3160   23.3710 C   0  0  0  0  0  0  0  0  0  0  0  0
    8.9990    3.1620   23.3010 C   0  0  0  0  0  0  0  0  0  0  0  0
   12.2490   -1.3360   23.4900 C   0  0  0  0  0  0  0  0  0  0  0  0
    6.2830   -4.3580   19.8990 N   0  0  0  0  0  0  0  0  0  0  0  0
    5.0500    2.6060   21.2810 C   0  0  0  0  0  0  0  0  0  0  0  0
    5.8590   -0.0020   18.0020 N   0  0  0  0  0  0  0  0  0  0  0  0
    4.8070    1.8210   18.9850 C   0  0  0  0  0  0  0  0  0  0  0  0
    8.9060    3.6940   24.7150 C   0  0  0  0  0  0  0  0  0  0  0  0
    8.3780    4.2190   22.4010 C   0  0  0  0  0  0  0  0  0  0  0  0
   10.4850    2.8920   22.8030 C   0  0  0  0  0  0  0  0  0  0  0  0
   12.9240   -1.2430   22.2720 C   0  0  0  0  0  0  0  0  0  0  0  0
   12.5970   -0.1180   24.3280 C   0  0  0  0  0  0  0  0  0  0  0  0
   12.5760   -2.4000   24.2630 C   0  0  0  0  0  0  0  0  0  0  0  0
    3.8010    2.9730   18.7580 C   0  0  0  0  0  0  0  0  0  0  0  0
    4.8050    2.0200   22.6320 C   0  0  0  0  0  0  0  0  0  0  0  0
    5.0720    0.9960   17.9010 C   0  0  0  0  0  0  0  0  0  0  0  0
    5.6290   -4.1050   21.2010 C   0  0  0  0  0  0  0  0  0  0  0  0
    4.0000    2.7440   23.4150 N   0  0  0  0  0  0  0  0  0  0  0  0
    5.3480   -5.3380   21.9700 C   0  0  2  0  0  0  0  0  0  0  0  0
    2.7690    2.1250   23.6300 C   0  0  0  0  0  0  0  0  0  0  0  0
    5.7040   -5.6860   23.1380 C   0  0  1  0  0  0  0  0  0  0  0  0
    5.9760   -6.3770   21.6900 C   0  0  0  0  0  0  0  0  0  0  0  0
    2.5770    0.8760   24.1740 O   0  0  0  0  0  0  0  0  0  0  0  0
    1.7330    3.0600   23.1810 N   0  0  0  0  0  0  0  0  0  0  0  0
    6.6970   -5.1450   23.8530 C   0  0  1  0  0  0  0  0  0  0  0  0
    0.5350    3.2670   23.9760 C   0  0  0  0  0  0  0  0  0  0  0  0
    6.4610   -5.7070   25.1400 O   0  0  0  0  0  0  0  0  0  0  0  0
    8.0700   -5.6280   23.3550 C   0  0  0  0  0  0  0  0  0  0  0  0
    0.5410    4.5470   24.5380 C   0  0  0  0  0  0  0  0  0  0  0  0
   -0.5600    2.9360   23.2640 C   0  0  0  0  0  0  0  0  0  0  0  0
    9.1100   -5.0310   24.2760 C   0  0  0  0  0  0  0  0  0  0  0  0
    7.2070   -5.1840   26.2180 C   0  0  0  0  0  0  0  0  0  0  0  0
   -0.7960    5.0220   25.0540 C   0  0  0  0  0  0  0  0  0  0  0  0
   -1.7650    3.2950   23.7630 C   0  0  0  0  0  0  0  0  0  0  0  0
    9.5030   -5.8680   25.4070 N   0  0  0  0  0  0  0  0  0  0  0  0
    8.5250   -5.8970   26.5150 C   0  0  0  0  0  0  0  0  0  0  0  0
   -1.7750    4.5580   24.2450 C   0  0  0  0  0  0  0  0  0  0  0  0
  1  2  1  0
  2  3  1  1
  1  4  1  0
  1  5  1  0
  2  6  1  0
  4  7  1  6
  2  8  1  0
  4  9  1  0
  5 10  2  0
  5 11  1  0
  6 12  1  0
  7 13  1  0
  7 14  2  0
  9 15  2  0
  8 16  1  0
  9 16  1  0
 10 17  1  0
 11 18  2  0
 17 18  1  0
 19 13  1  0
 18 20  1  0
 12 21  2  3
 15 22  1  0
 16 23  2  0
 15 24  1  0
 19 25  1  0
 19 26  1  0
 19 27  1  0
 20 28  1  0
 20 29  1  0
 20 30  1  0
 24 31  1  0
 22 32  1  0
 23 33  1  0
 24 33  2  0
 21 34  1  0
 32 35  1  0
 36 34  1  6
 35 37  1  0
 36 38  1  0
 36 39  1  0
 38 39  1  6
 37 40  2  0
 37 41  1  0
 38 42  1  0
 41 43  1  0
 42 44  1  0
 42 45  1  6
 43 46  1  0
 43 47  1  0
 45 48  1  0
 44 49  1  0
 46 50  1  0
 47 51  1  0
 48 52  1  0
 49 53  1  0
 52 53  1  0
 50 54  1  0
 51 54  1  0
M  END
