x0540-x0354
     RDKit          3D

 39 42  0  0  0  0  0  0  0  0999 V2000
    2.7810    1.4150   24.6060 O   0  0  0  0  0  0  0  0  0  0  0  0
    2.9590    2.3410   23.5300 C   0  0  0  0  0  0  0  0  0  0  0  0
    4.1150    2.3990   22.7500 N   0  0  0  0  0  0  0  0  0  0  0  0
    1.9800    3.2640   23.1750 N   0  0  0  0  0  0  0  0  0  0  0  0
    5.0230    1.3520   22.8580 C   0  0  2  0  0  0  0  0  0  0  0  0
    0.7300    3.3870   23.8430 C   0  0  0  0  0  0  0  0  0  0  0  0
    4.5920    0.2840   21.8510 C   0  0  0  0  0  0  0  0  0  0  0  0
    5.3070    0.8980   24.2490 C   0  0  0  0  0  0  0  0  0  0  0  0
    0.6250    4.6270   24.5140 C   0  0  0  0  0  0  0  0  0  0  0  0
   -0.4070    3.1160   23.0420 C   0  0  0  0  0  0  0  0  0  0  0  0
    6.4860    0.1850   24.5210 C   0  0  0  0  0  0  0  0  0  0  0  0
    5.2090    0.3450   20.4530 C   0  0  0  0  0  0  0  0  0  0  0  0
   -0.6130    4.8880   25.1160 C   0  0  0  0  0  0  0  0  0  0  0  0
   -1.5970    3.2560   23.7640 C   0  0  0  0  0  0  0  0  0  0  0  0
    7.4120    0.8220   25.3520 C   0  0  0  0  0  0  0  0  0  0  0  0
    6.2850   -0.4240   20.1600 C   0  0  0  0  0  0  0  0  0  0  0  0
    4.6430    1.2020   19.4970 C   0  0  0  0  0  0  0  0  0  0  0  0
   -1.6920    4.5340   24.3080 C   0  0  0  0  0  0  0  0  0  0  0  0
    8.1610   -0.0660   26.1790 C   0  0  1  0  0  0  0  0  0  0  0  0
    6.8430   -0.3090   18.7600 C   0  0  0  0  0  0  0  0  0  0  0  0
    5.1810    1.2930   18.2000 C   0  0  0  0  0  0  0  0  0  0  0  0
    7.4280   -0.4580   27.1180 O   0  0  0  0  0  0  0  0  0  0  0  0
    8.5570   -1.2900   25.3270 C   0  0  0  0  0  0  0  0  0  0  0  0
    6.3240    0.5520   17.7190 N   0  0  0  0  0  0  0  0  0  0  0  0
    7.7740   -2.2180   25.1480 O   0  0  0  0  0  0  0  0  0  0  0  0
    9.8530   -1.3200   24.7720 N   0  0  0  0  0  0  0  0  0  0  0  0
    6.9660    0.4430   28.0600 C   0  0  0  0  0  0  0  0  0  0  0  0
   10.3570   -2.4690   24.2390 C   0  0  0  0  0  0  0  0  0  0  0  0
   10.7840   -0.2710   24.9940 C   0  0  0  0  0  0  0  0  0  0  0  0
    7.7200    1.6210   28.2060 C   0  0  0  0  0  0  0  0  0  0  0  0
    5.8180    0.3020   28.8830 C   0  0  0  0  0  0  0  0  0  0  0  0
   11.3960   -2.3940   23.3100 C   0  0  0  0  0  0  0  0  0  0  0  0
   11.6420   -0.0860   23.9360 C   0  0  0  0  0  0  0  0  0  0  0  0
    7.3170    2.7040   29.2060 C   0  0  0  0  0  0  0  0  0  0  0  0
    5.4200    1.2680   29.8050 C   0  0  0  0  0  0  0  0  0  0  0  0
   12.2990   -1.3340   23.5600 N   0  0  0  0  0  0  0  0  0  0  0  0
    6.2020    2.5310   29.9770 C   0  0  0  0  0  0  0  0  0  0  0  0
   13.1480   -1.1450   22.3970 C   0  0  0  0  0  0  0  0  0  0  0  0
    5.7710    3.5720   30.9640 C   0  0  0  0  0  0  0  0  0  0  0  0
  1  2  2  0
  2  3  1  0
  2  4  1  0
  3  5  1  0
  4  6  1  0
  5  7  1  6
  5  8  1  0
  6  9  1  0
  6 10  1  0
  8 11  1  0
  7 12  1  0
  9 13  1  0
 10 14  1  0
 11 15  1  0
 12 16  2  0
 12 17  1  0
 13 18  1  0
 14 18  1  0
 19 15  1  6
 16 20  1  0
 17 21  2  0
 19 22  1  0
 19 23  1  0
 20 24  2  0
 21 24  1  0
 23 25  2  0
 23 26  1  0
 22 27  1  0
 26 28  1  0
 26 29  1  0
 27 30  2  0
 27 31  1  0
 28 32  1  0
 29 33  1  0
 30 34  1  0
 31 35  2  0
 32 36  1  0
 33 36  1  0
 34 37  2  0
 35 37  1  0
 36 38  1  0
 37 39  1  0
M  END
