x0540-x2649
     RDKit          3D

 30 32  0  0  0  0  0  0  0  0999 V2000
    6.9120   -1.0700   21.0240 N   0  0  0  0  0  0  0  0  0  0  0  0
    8.0610   -0.4390   21.6720 C   0  0  0  0  0  0  0  0  0  0  0  0
    8.6670    0.8200   21.3310 O   0  0  0  0  0  0  0  0  0  0  0  0
    6.2850   -0.1870   20.0160 C   0  0  0  0  0  0  0  0  0  0  0  0
    8.5950   -1.2900   22.8370 C   0  0  2  0  0  0  0  0  0  0  0  0
    5.1510    0.6110   20.1630 C   0  0  0  0  0  0  0  0  0  0  0  0
    6.8340   -0.0940   18.7620 C   0  0  0  0  0  0  0  0  0  0  0  0
    7.7480   -1.1630   24.0890 C   0  0  0  0  0  0  0  0  0  0  0  0
    4.4100    0.6360   21.4770 C   0  0  0  0  0  0  0  0  0  0  0  0
    6.3800    0.7180   17.6190 N   0  0  0  0  0  0  0  0  0  0  0  0
    4.6240    1.4770   19.0150 C   0  0  0  0  0  0  0  0  0  0  0  0
   10.0280   -0.8940   22.9940 C   0  0  0  0  0  0  0  0  0  0  0  0
    5.1030    1.5960   22.5090 C   0  0  0  0  0  0  0  0  0  0  0  0
    5.2140    1.5320   17.7870 C   0  0  0  0  0  0  0  0  0  0  0  0
   10.5310    0.0580   23.8800 C   0  0  0  0  0  0  0  0  0  0  0  0
   10.9910   -1.5700   22.1120 C   0  0  0  0  0  0  0  0  0  0  0  0
    4.1930    2.7040   22.9060 N   0  0  0  0  0  0  0  0  0  0  0  0
   12.0160    0.3750   23.9110 C   0  0  0  0  0  0  0  0  0  0  0  0
   12.3060   -1.2440   22.1860 C   0  0  0  0  0  0  0  0  0  0  0  0
   13.2940   -2.0730   21.1170 Cl  0  0  0  0  0  0  0  0  0  0  0  0
    3.0040    2.3800   23.5930 C   0  0  0  0  0  0  0  0  0  0  0  0
   12.8070   -0.2990   23.0580 C   0  0  0  0  0  0  0  0  0  0  0  0
    2.9020    1.4900   24.4340 O   0  0  0  0  0  0  0  0  0  0  0  0
    1.9090    3.2680   23.1670 N   0  0  0  0  0  0  0  0  0  0  0  0
    0.6970    3.3750   23.9160 C   0  0  0  0  0  0  0  0  0  0  0  0
    0.4410    4.6590   24.4380 C   0  0  0  0  0  0  0  0  0  0  0  0
   -0.4420    2.7990   23.3280 C   0  0  0  0  0  0  0  0  0  0  0  0
   -0.7020    4.8920   25.1580 C   0  0  0  0  0  0  0  0  0  0  0  0
   -1.8240    3.3450   23.7280 C   0  0  0  0  0  0  0  0  0  0  0  0
   -1.8030    4.6190   24.3360 C   0  0  0  0  0  0  0  0  0  0  0  0
  1  2  1  0
  2  3  2  0
  1  4  1  0
  2  5  1  0
  4  6  1  0
  4  7  2  0
  5  8  1  1
  6  9  1  0
  7 10  1  0
  6 11  2  0
  5 12  1  0
  9 13  1  0
 10 14  2  0
 11 14  1  0
 12 15  2  0
 12 16  1  0
 13 17  1  0
 15 18  1  0
 16 19  2  0
 19 20  1  0
 17 21  1  0
 18 22  2  0
 19 22  1  0
 21 23  2  0
 21 24  1  0
 24 25  1  0
 25 26  1  0
 25 27  1  0
 26 28  1  0
 27 29  1  0
 28 30  1  0
 29 30  1  0
M  END
