x0540-x0830
     RDKit          3D

 39 43  0  0  0  0  0  0  0  0999 V2000
    2.6890    1.3570   24.7650 O   0  0  0  0  0  0  0  0  0  0  0  0
    2.8400    2.1970   23.6110 C   0  0  0  0  0  0  0  0  0  0  0  0
    4.0000    2.0860   22.7060 N   0  0  0  0  0  0  0  0  0  0  0  0
    1.9190    3.1770   23.2240 N   0  0  0  0  0  0  0  0  0  0  0  0
    5.0080    1.1320   22.9040 C   0  0  0  0  0  0  0  0  0  0  0  0
    0.6760    3.3560   24.0110 C   0  0  0  0  0  0  0  0  0  0  0  0
    4.8150   -0.2070   22.1610 C   0  0  0  0  0  0  0  0  0  0  0  0
    0.6600    4.7200   24.6890 C   0  0  0  0  0  0  0  0  0  0  0  0
   -0.4060    3.0320   23.1880 C   0  0  0  0  0  0  0  0  0  0  0  0
    5.8880   -0.4550   21.0710 C   0  0  2  0  0  0  0  0  0  0  0  0
   -0.7970    5.0170   25.0980 C   0  0  0  0  0  0  0  0  0  0  0  0
   -1.6320    3.3000   23.7960 C   0  0  0  0  0  0  0  0  0  0  0  0
    5.7030    0.0880   20.0170 C   0  0  0  0  0  0  0  0  0  0  0  0
   -1.7240    4.6480   24.1090 C   0  0  0  0  0  0  0  0  0  0  0  0
    6.6740   -1.8420   21.1150 C   0  0  0  0  0  0  0  0  0  0  0  0
    6.4870   -2.8360   19.9050 C   0  0  0  0  0  0  0  0  0  0  0  0
    6.5010   -0.1340   18.8490 C   0  0  0  0  0  0  0  0  0  0  0  0
    4.6660    0.9870   19.9830 C   0  0  0  0  0  0  0  0  0  0  0  0
    6.5390   -2.7080   22.2610 C   0  0  0  0  0  0  0  0  0  0  0  0
    8.1120   -1.2210   21.0110 C   0  0  0  0  0  0  0  0  0  0  0  0
    7.6990   -3.5300   19.4520 C   0  0  0  0  0  0  0  0  0  0  0  0
    5.4700   -3.2130   19.2710 O   0  0  0  0  0  0  0  0  0  0  0  0
    6.2580    0.5510   17.6800 N   0  0  0  0  0  0  0  0  0  0  0  0
    4.3910    1.6860   18.8420 C   0  0  0  0  0  0  0  0  0  0  0  0
    7.7100   -3.2490   22.7760 C   0  0  0  0  0  0  0  0  0  0  0  0
    9.1820   -1.7860   21.6710 C   0  0  0  0  0  0  0  0  0  0  0  0
    5.2360    1.4450   17.6580 C   0  0  0  0  0  0  0  0  0  0  0  0
    8.7470   -2.1890   23.0070 N   0  0  0  0  0  0  0  0  0  0  0  0
    9.8130   -2.5280   23.7520 C   0  0  0  0  0  0  0  0  0  0  0  0
   10.9480   -1.5470   23.4430 C   0  0  0  0  0  0  0  0  0  0  0  0
   12.1410   -2.0300   22.8170 C   0  0  0  0  0  0  0  0  0  0  0  0
   10.7830   -0.1970   23.7500 C   0  0  0  0  0  0  0  0  0  0  0  0
   13.1630   -1.1470   22.5000 C   0  0  0  0  0  0  0  0  0  0  0  0
   11.8750    0.8070   23.4010 C   0  0  0  0  0  0  0  0  0  0  0  0
    9.6300    0.3160   24.3690 C   0  0  0  0  0  0  0  0  0  0  0  0
   13.0050    0.3470   22.8180 C   0  0  0  0  0  0  0  0  0  0  0  0
   11.6970    2.0960   23.6610 C   0  0  0  0  0  0  0  0  0  0  0  0
    9.4870    1.7830   24.6470 C   0  0  0  0  0  0  0  0  0  0  0  0
   10.5290    2.6180   24.2700 C   0  0  0  0  0  0  0  0  0  0  0  0
  1  2  2  0
  2  3  1  0
  2  4  1  0
  3  5  1  0
  4  6  1  0
  5  7  1  0
  6  8  1  0
  6  9  1  0
 10  7  1  6
  8 11  1  0
  9 12  1  0
 10 13  1  0
 11 14  1  0
 12 14  1  0
 10 15  1  0
 15 16  1  0
 13 17  2  0
 13 18  1  0
 15 19  1  0
 15 20  1  0
 16 21  1  0
 16 22  2  0
 17 23  1  0
 18 24  2  0
 19 25  1  0
 20 26  1  0
 23 27  2  0
 24 27  1  0
 25 28  1  0
 26 28  1  0
 28 29  1  0
 29 30  1  0
 30 31  2  0
 30 32  1  0
 31 33  1  0
 32 34  2  0
 32 35  1  0
 33 36  2  0
 34 36  1  0
 34 37  1  0
 35 38  2  0
 37 39  2  0
 38 39  1  0
M  END
