x0540-x0770
     RDKit          3D

 36 39  0  0  0  0  0  0  0  0999 V2000
    2.7750    1.3130   24.7210 O   0  0  0  0  0  0  0  0  0  0  0  0
    2.9380    2.1920   23.5970 C   0  0  0  0  0  0  0  0  0  0  0  0
    4.1410    2.1610   22.7270 N   0  0  0  0  0  0  0  0  0  0  0  0
    1.9850    3.1510   23.2060 N   0  0  0  0  0  0  0  0  0  0  0  0
    5.3270    1.4720   23.0480 C   0  0  0  0  0  0  0  0  0  0  0  0
    0.7340    3.3320   23.9930 C   0  0  0  0  0  0  0  0  0  0  0  0
    5.4960    0.0480   22.4660 C   0  0  0  0  0  0  0  0  0  0  0  0
    0.7320    4.6790   24.7060 C   0  0  0  0  0  0  0  0  0  0  0  0
   -0.3560    3.0540   23.1610 C   0  0  0  0  0  0  0  0  0  0  0  0
    6.5030   -0.0780   21.2840 C   0  0  2  0  0  0  0  0  0  0  0  0
   -0.7210    4.9920   25.1170 C   0  0  0  0  0  0  0  0  0  0  0  0
   -1.5760    3.3110   23.7820 C   0  0  0  0  0  0  0  0  0  0  0  0
    6.0830    0.2990   20.2160 C   0  0  0  0  0  0  0  0  0  0  0  0
   -1.6570    4.6540   24.1250 C   0  0  0  0  0  0  0  0  0  0  0  0
    7.3070   -1.4460   21.2530 C   0  0  2  0  0  0  0  0  0  0  0  0
    6.8230    0.1610   19.0020 C   0  0  0  0  0  0  0  0  0  0  0  0
    4.8450    0.8960   20.1980 C   0  0  0  0  0  0  0  0  0  0  0  0
    6.3950   -2.6080   21.1550 N   0  0  0  0  0  0  0  0  0  0  0  0
    8.3120   -1.6880   22.2250 C   0  0  0  0  0  0  0  0  0  0  0  0
    6.2180   -3.3230   19.9480 C   0  0  0  0  0  0  0  0  0  0  0  0
    6.3520    0.6250   17.8000 N   0  0  0  0  0  0  0  0  0  0  0  0
    4.3310    1.3770   19.0220 C   0  0  0  0  0  0  0  0  0  0  0  0
    8.0510   -2.2700   23.4080 N   0  0  0  0  0  0  0  0  0  0  0  0
    6.2520   -3.3500   22.3370 C   0  0  0  0  0  0  0  0  0  0  0  0
    7.1830   -3.0250   18.8080 C   0  0  0  0  0  0  0  0  0  0  0  0
    5.3540   -4.1940   19.7750 O   0  0  0  0  0  0  0  0  0  0  0  0
    9.2540   -2.4410   24.2700 C   0  0  0  0  0  0  0  0  0  0  0  0
    5.1410    1.2310   17.7940 C   0  0  0  0  0  0  0  0  0  0  0  0
    7.3930   -3.5570   23.1330 C   0  0  0  0  0  0  0  0  0  0  0  0
   10.4190   -1.5550   23.8940 C   0  0  0  0  0  0  0  0  0  0  0  0
   10.6960   -0.3390   24.5340 C   0  0  0  0  0  0  0  0  0  0  0  0
   11.3500   -1.9660   22.7770 C   0  0  0  0  0  0  0  0  0  0  0  0
   11.8140    0.4100   24.0900 C   0  0  0  0  0  0  0  0  0  0  0  0
   12.4090   -1.1950   22.4060 C   0  0  0  0  0  0  0  0  0  0  0  0
   13.3770   -1.7430   21.1460 Cl  0  0  0  0  0  0  0  0  0  0  0  0
   12.6370   -0.0140   23.0620 C   0  0  0  0  0  0  0  0  0  0  0  0
  1  2  2  0
  2  3  1  0
  2  4  1  0
  3  5  1  0
  4  6  1  0
  5  7  1  0
  6  8  1  0
  6  9  1  0
 10  7  1  1
  8 11  1  0
  9 12  1  0
 10 13  1  0
 11 14  1  0
 12 14  1  0
 10 15  1  0
 13 16  2  0
 13 17  1  0
 15 18  1  0
 15 19  1  1
 18 20  1  0
 16 21  1  0
 17 22  2  0
 19 23  1  0
 18 24  1  0
 20 25  1  0
 20 26  2  0
 23 27  1  0
 21 28  2  0
 22 28  1  0
 23 29  1  0
 24 29  1  0
 27 30  1  0
 30 31  2  0
 30 32  1  0
 31 33  1  0
 32 34  2  0
 34 35  1  0
 33 36  2  0
 34 36  1  0
M  END
