x0540-x2052-x2705
     RDKit          3D

 60 65  0  0  0  0  0  0  0  0999 V2000
    7.5680    2.1630   22.8630 N   0  0  0  0  0  0  0  0  0  0  0  0
    7.8790    1.0280   22.1360 C   0  0  0  0  0  0  0  0  0  0  0  0
    8.9140    0.6910   21.5670 O   0  0  0  0  0  0  0  0  0  0  0  0
    8.3010    3.3540   22.9690 C   0  0  0  0  0  0  0  0  0  0  0  0
    6.6750    0.0430   21.9750 C   0  0  1  0  0  0  0  0  0  0  0  0
    9.5870    3.3310   23.5220 C   0  0  0  0  0  0  0  0  0  0  0  0
    7.7200    4.5680   22.5160 C   0  0  0  0  0  0  0  0  0  0  0  0
   10.2260    2.0450   23.9990 C   0  0  0  0  0  0  0  0  0  0  0  0
    6.3410    4.6350   21.9040 C   0  0  0  0  0  0  0  0  0  0  0  0
    6.0850    0.3080   20.5910 C   0  0  0  0  0  0  0  0  0  0  0  0
   10.3620    4.6400   23.6450 C   0  0  0  0  0  0  0  0  0  0  0  0
    8.4060    5.7860   22.6140 C   0  0  0  0  0  0  0  0  0  0  0  0
    6.7330   -1.4840   22.3630 C   0  0  1  0  0  0  0  0  0  0  0  0
    9.4140    1.2960   24.8680 C   0  0  0  0  0  0  0  0  0  0  0  0
    4.8400    0.8090   20.3410 C   0  0  0  0  0  0  0  0  0  0  0  0
    6.8970    0.0370   19.3060 C   0  0  0  0  0  0  0  0  0  0  0  0
    9.7010    5.8940   23.1580 C   0  0  0  0  0  0  0  0  0  0  0  0
    7.7370   -2.1290   21.7400 C   0  0  1  0  0  0  0  0  0  0  0  0
    6.5040   -2.0560   23.6380 C   0  0  1  0  0  0  0  0  0  0  0  0
    4.0590    1.0690   21.4330 C   0  0  0  0  0  0  0  0  0  0  0  0
    5.7700   -1.2860   24.7590 C   0  0  0  0  0  0  0  0  0  0  0  0
    6.5340    0.2450   18.0060 N   0  0  0  0  0  0  0  0  0  0  0  0
    4.4190    1.0410   19.0480 C   0  0  0  0  0  0  0  0  0  0  0  0
    9.0140   -1.9080   22.5130 C   0  0  0  0  0  0  0  0  0  0  0  0
    7.2190   -3.5000   21.5180 N   0  0  0  0  0  0  0  0  0  0  0  0
    5.8970   -3.3090   23.5130 C   0  0  0  0  0  0  0  0  0  0  0  0
    4.6750    1.9500   22.5160 C   0  0  0  0  0  0  0  0  0  0  0  0
    4.3720   -1.1180   24.7210 O   0  0  0  0  0  0  0  0  0  0  0  0
    6.6000   -0.8550   25.7680 N   0  0  0  0  0  0  0  0  0  0  0  0
    6.6390   -3.7940   20.2280 C   0  0  0  0  0  0  0  0  0  0  0  0
    5.3140    0.7470   17.8800 C   0  0  0  0  0  0  0  0  0  0  0  0
    9.0990   -1.6870   23.9340 N   0  0  0  0  0  0  0  0  0  0  0  0
   10.3760   -1.8240   22.1310 C   0  0  0  0  0  0  0  0  0  0  0  0
    6.6110   -4.1960   22.6780 C   0  0  0  0  0  0  0  0  0  0  0  0
    3.8410    3.0110   23.0040 N   0  0  0  0  0  0  0  0  0  0  0  0
    5.6590   -4.5330   19.9990 O   0  0  0  0  0  0  0  0  0  0  0  0
    7.3830   -3.1920   19.0760 C   0  0  0  0  0  0  0  0  0  0  0  0
   10.3650   -1.4680   24.4890 N   0  0  0  0  0  0  0  0  0  0  0  0
   11.0330   -1.5720   23.3070 C   0  0  0  0  0  0  0  0  0  0  0  0
    6.2330   -0.1860   27.0580 C   0  0  0  0  0  0  0  0  0  0  0  0
   12.5090   -1.4120   23.1670 C   0  0  0  0  0  0  0  0  0  0  0  0
    2.6530    2.5490   23.6970 C   0  0  0  0  0  0  0  0  0  0  0  0
    6.5480    1.2340   27.2180 C   0  0  0  0  0  0  0  0  0  0  0  0
    5.6080   -0.8360   28.1310 C   0  0  0  0  0  0  0  0  0  0  0  0
   12.9670   -0.0680   23.3660 C   0  0  0  0  0  0  0  0  0  0  0  0
   13.0900   -2.3920   24.1540 C   0  0  0  0  0  0  0  0  0  0  0  0
   12.9080   -2.0270   21.8640 C   0  0  0  0  0  0  0  0  0  0  0  0
    2.6260    1.5490   24.6220 O   0  0  0  0  0  0  0  0  0  0  0  0
    1.5160    3.3180   23.2330 N   0  0  0  0  0  0  0  0  0  0  0  0
    6.2940    2.0050   28.3260 N   0  0  0  0  0  0  0  0  0  0  0  0
    5.3470   -0.0620   29.2500 C   0  0  0  0  0  0  0  0  0  0  0  0
    0.3500    3.3820   24.0650 C   0  0  0  0  0  0  0  0  0  0  0  0
    5.6910    1.3790   29.3610 C   0  0  0  0  0  0  0  0  0  0  0  0
    5.3830    2.0490   30.5280 O   0  0  0  0  0  0  0  0  0  0  0  0
    0.3000    4.7930   24.6760 C   0  0  0  0  0  0  0  0  0  0  0  0
   -0.7500    2.9310   23.3410 C   0  0  0  0  0  0  0  0  0  0  0  0
    6.1160    3.2650   30.7030 C   0  0  0  0  0  0  0  0  0  0  0  0
   -0.9970    4.9840   25.1340 C   0  0  0  0  0  0  0  0  0  0  0  0
   -2.0110    3.3650   23.7610 C   0  0  0  0  0  0  0  0  0  0  0  0
   -2.0530    4.6640   24.2810 C   0  0  0  0  0  0  0  0  0  0  0  0
  1  2  1  0
  2  3  2  0
  1  4  1  0
  5  2  1  6
  4  6  2  0
  4  7  1  0
  6  8  1  0
  7  9  1  0
  5 10  1  0
  6 11  1  0
  7 12  2  0
 13  5  1  1
  8 14  1  0
 10 15  1  0
 10 16  2  0
 11 17  2  0
 12 17  1  0
 13 18  1  0
 13 19  1  0
 15 20  1  0
 19 21  1  1
 16 22  1  0
 15 23  2  0
 18 24  1  1
 18 25  1  0
 19 26  1  0
 20 27  1  0
 21 28  2  0
 21 29  1  0
 25 30  1  0
 22 31  2  0
 23 31  1  0
 24 32  2  0
 24 33  1  0
 25 34  1  0
 26 34  1  0
 27 35  1  0
 30 36  2  0
 30 37  1  0
 32 38  1  0
 33 39  2  0
 38 39  1  0
 29 40  1  0
 39 41  1  0
 35 42  1  0
 40 43  2  0
 40 44  1  0
 41 45  1  0
 41 46  1  0
 41 47  1  0
 42 48  2  0
 42 49  1  0
 43 50  1  0
 44 51  2  0
 49 52  1  0
 50 53  2  0
 51 53  1  0
 53 54  1  0
 52 55  1  0
 52 56  1  0
 54 57  1  0
 55 58  1  0
 56 59  1  0
 58 60  1  0
 59 60  1  0
M  END
