x0540-x1358-x2703-x2694
     RDKit          3D

 65 70  0  0  0  0  0  0  0  0999 V2000
    7.6880   -0.8440   21.5990 N   0  0  0  0  0  0  0  0  0  0  0  0
    7.1300    0.4860   21.5650 C   0  0  1  0  0  0  0  0  0  0  0  0
    8.1380    1.6630   21.6710 C   0  0  0  0  0  0  0  0  0  0  0  0
    6.7490   -1.8280   21.8240 C   0  0  0  0  0  0  0  0  0  0  0  0
    8.8900   -0.9830   22.3210 C   0  0  0  0  0  0  0  0  0  0  0  0
    6.2520    0.5870   20.3360 C   0  0  0  0  0  0  0  0  0  0  0  0
    8.7030   -1.0150   23.6470 N   0  0  0  0  0  0  0  0  0  0  0  0
   10.1550   -1.0990   21.9200 C   0  0  0  0  0  0  0  0  0  0  0  0
    7.3950   -3.1890   22.1110 C   0  0  2  0  0  0  0  0  0  0  0  0
    7.7820    2.7320   22.4880 N   0  0  0  0  0  0  0  0  0  0  0  0
    9.1830    1.7160   21.0870 O   0  0  0  0  0  0  0  0  0  0  0  0
    4.9000    0.7060   20.2950 C   0  0  0  0  0  0  0  0  0  0  0  0
    6.8930    0.5620   19.1420 C   0  0  0  0  0  0  0  0  0  0  0  0
    9.9980   -1.1810   24.1800 O   0  0  0  0  0  0  0  0  0  0  0  0
   10.9440   -1.2430   23.1670 C   0  0  0  0  0  0  0  0  0  0  0  0
    6.6520   -4.2240   21.3650 N   0  0  0  0  0  0  0  0  0  0  0  0
    7.3340   -3.4800   23.6250 C   0  0  0  0  0  0  0  0  0  0  0  0
   12.3500   -1.4200   23.4840 C   0  0  0  0  0  0  0  0  0  0  0  0
    4.0600    0.7240   21.5170 C   0  0  0  0  0  0  0  0  0  0  0  0
    6.1730   -3.9680   20.0840 C   0  0  0  0  0  0  0  0  0  0  0  0
    6.3960    0.6560   17.9080 N   0  0  0  0  0  0  0  0  0  0  0  0
    4.3000    0.8270   19.0710 C   0  0  0  0  0  0  0  0  0  0  0  0
    8.6420    3.7790   22.8260 C   0  0  0  0  0  0  0  0  0  0  0  0
    5.8830   -3.6800   23.9210 C   0  0  2  0  0  0  0  0  0  0  0  0
    6.1910   -5.4260   22.0920 C   0  0  0  0  0  0  0  0  0  0  0  0
    6.4140    3.0310   22.9080 C   0  0  0  0  0  0  0  0  0  0  0  0
   12.9040   -0.1910   23.8010 C   0  0  0  0  0  0  0  0  0  0  0  0
   13.0660   -2.0570   22.2820 C   0  0  0  0  0  0  0  0  0  0  0  0
   12.3180   -2.3590   24.6930 C   0  0  0  0  0  0  0  0  0  0  0  0
    3.7810    2.0910   21.7970 C   0  0  0  0  0  0  0  0  0  0  0  0
    5.0810   -4.3720   19.7560 O   0  0  0  0  0  0  0  0  0  0  0  0
    5.5250   -3.3320   25.3710 C   0  0  0  0  0  0  0  0  0  0  0  0
    7.0970   -3.2040   19.1360 C   0  0  0  0  0  0  0  0  0  0  0  0
    4.9460    0.8200   17.8650 C   0  0  0  0  0  0  0  0  0  0  0  0
    9.8060    3.4740   23.5410 C   0  0  0  0  0  0  0  0  0  0  0  0
    8.4010    5.1100   22.4880 C   0  0  0  0  0  0  0  0  0  0  0  0
    5.5130   -5.0650   23.4270 C   0  0  0  0  0  0  0  0  0  0  0  0
    5.8250    4.2730   22.2240 C   0  0  0  0  0  0  0  0  0  0  0  0
   10.1560    2.0710   23.9530 C   0  0  0  0  0  0  0  0  0  0  0  0
   13.6310   -2.8010   25.2340 C   0  0  0  0  0  0  0  0  0  0  0  0
    3.8510    2.3490   23.1970 N   0  0  0  0  0  0  0  0  0  0  0  0
    6.6270   -2.7610   26.1790 N   0  0  0  0  0  0  0  0  0  0  0  0
    4.1920   -3.5280   25.8110 O   0  0  0  0  0  0  0  0  0  0  0  0
   10.6880    4.4960   23.9010 C   0  0  0  0  0  0  0  0  0  0  0  0
    9.3830    6.1930   22.9080 C   0  0  0  0  0  0  0  0  0  0  0  0
    9.1590    1.5020   24.8900 C   0  0  0  0  0  0  0  0  0  0  0  0
    2.6560    2.3790   23.8610 C   0  0  0  0  0  0  0  0  0  0  0  0
   10.5100    5.8430   23.6150 C   0  0  0  0  0  0  0  0  0  0  0  0
    6.6080   -1.6530   27.0650 C   0  0  0  0  0  0  0  0  0  0  0  0
   11.3570    6.8480   23.9780 O   0  0  0  0  0  0  0  0  0  0  0  0
    2.5000    1.5090   24.7170 O   0  0  0  0  0  0  0  0  0  0  0  0
    1.7340    3.3390   23.5190 N   0  0  0  0  0  0  0  0  0  0  0  0
    5.9600   -0.3710   26.5900 C   0  0  0  0  0  0  0  0  0  0  0  0
    7.1410   -1.6510   28.3380 C   0  0  0  0  0  0  0  0  0  0  0  0
   11.9100    6.7590   25.2820 C   0  0  0  0  0  0  0  0  0  0  0  0
    5.4070   -0.3110   25.3360 O   0  0  0  0  0  0  0  0  0  0  0  0
    0.4360    3.3860   24.1580 C   0  0  0  0  0  0  0  0  0  0  0  0
    7.1290   -0.5530   29.2080 C   0  0  0  0  0  0  0  0  0  0  0  0
    5.9470    0.7280   27.4630 C   0  0  0  0  0  0  0  0  0  0  0  0
    0.3440    4.8120   24.6970 C   0  0  0  0  0  0  0  0  0  0  0  0
   -0.6690    2.8870   23.2450 C   0  0  0  0  0  0  0  0  0  0  0  0
    6.5190    0.6240   28.7320 C   0  0  0  0  0  0  0  0  0  0  0  0
   -1.0460    5.0370   25.2900 C   0  0  0  0  0  0  0  0  0  0  0  0
   -2.0520    3.2520   23.7930 C   0  0  0  0  0  0  0  0  0  0  0  0
   -2.1050    4.7200   24.2220 C   0  0  0  0  0  0  0  0  0  0  0  0
  1  2  1  0
  2  3  1  6
  1  4  1  0
  1  5  1  0
  2  6  1  0
  5  7  2  0
  5  8  1  0
  9  4  1  1
  3 10  1  0
  3 11  2  0
  6 12  1  0
  6 13  2  0
  7 14  1  0
  8 15  2  0
 14 15  1  0
  9 16  1  0
  9 17  1  0
 15 18  1  0
 12 19  1  0
 16 20  1  0
 13 21  1  0
 12 22  2  0
 10 23  1  0
 17 24  1  0
 16 25  1  0
 10 26  1  0
 18 27  1  0
 18 28  1  0
 18 29  1  0
 19 30  1  0
 20 31  2  0
 24 32  1  1
 20 33  1  0
 21 34  2  0
 22 34  1  0
 23 35  2  0
 23 36  1  0
 24 37  1  0
 25 37  1  0
 26 38  1  0
 35 39  1  0
 29 40  1  0
 30 41  1  0
 32 42  1  0
 32 43  2  0
 35 44  1  0
 36 45  2  0
 39 46  1  0
 41 47  1  0
 44 48  2  0
 45 48  1  0
 42 49  1  0
 48 50  1  0
 47 51  2  0
 47 52  1  0
 49 53  2  0
 49 54  1  0
 50 55  1  0
 53 56  1  0
 52 57  1  0
 54 58  2  0
 53 59  1  0
 57 60  1  0
 57 61  1  0
 58 62  1  0
 59 62  2  0
 60 63  1  0
 61 64  1  0
 63 65  1  0
 64 65  1  0
M  END
