x0540-x3117-x2193-x0820-x3110
     RDKit          3D

 64 72  0  0  0  0  0  0  0  0999 V2000
    7.3170    1.6190   22.9490 N   0  0  0  0  0  0  0  0  0  0  0  0
    7.5730    0.5360   21.9920 C   0  0  0  0  0  0  0  0  0  0  0  0
    8.5790    0.4580   21.2930 O   0  0  0  0  0  0  0  0  0  0  0  0
    8.0880    2.7980   22.8810 C   0  0  2  0  0  0  0  0  0  0  0  0
    6.4710   -0.5800   21.7100 C   0  0  2  0  0  0  0  0  0  0  0  0
    9.2620    2.6790   23.4230 C   0  0  1  0  0  0  0  0  0  0  0  0
    7.3480    3.8730   23.3110 C   0  0  0  0  0  0  0  0  0  0  0  0
    6.9780   -2.0120   21.8510 C   0  0  2  0  0  0  0  0  0  0  0  0
   10.4000    2.2720   22.8760 C   0  0  0  0  0  0  0  0  0  0  0  0
    6.1090   -0.0510   20.3150 C   0  0  0  0  0  0  0  0  0  0  0  0
    9.9500    3.9380   23.3830 C   0  0  2  0  0  0  0  0  0  0  0  0
    8.0830    4.9870   23.8350 C   0  0  0  0  0  0  0  0  0  0  0  0
   11.5910    3.5960   23.3730 C   0  0  1  0  0  0  0  0  0  0  0  0
    6.0780   -3.1550   21.0130 C   0  0  0  0  0  0  0  0  0  0  0  0
    6.3380   -3.2130   22.6730 C   0  0  1  0  0  0  0  0  0  0  0  0
    4.9800    0.7230   20.1720 C   0  0  0  0  0  0  0  0  0  0  0  0
    6.8270   -0.2540   19.1670 C   0  0  0  0  0  0  0  0  0  0  0  0
    8.4110   -1.9250   22.3640 C   0  0  0  0  0  0  0  0  0  0  0  0
    9.3750    4.6490   24.3770 O   0  0  0  0  0  0  0  0  0  0  0  0
   11.0400    2.4490   23.9740 C   0  0  0  0  0  0  0  0  0  0  0  0
   12.1020    3.3980   22.2860 O   0  0  0  0  0  0  0  0  0  0  0  0
    5.0580   -3.3310   20.2690 O   0  0  0  0  0  0  0  0  0  0  0  0
    6.8440   -4.2670   21.5850 C   0  0  2  0  0  0  0  0  0  0  0  0
    4.1760    1.0130   21.1550 C   0  0  0  0  0  0  0  0  0  0  0  0
    6.4600    0.2790   17.9630 N   0  0  0  0  0  0  0  0  0  0  0  0
    4.5290    1.3030   19.0010 C   0  0  0  0  0  0  0  0  0  0  0  0
    9.5660   -1.6070   21.6590 C   0  0  0  0  0  0  0  0  0  0  0  0
    8.6280   -2.1970   23.7940 C   0  0  0  0  0  0  0  0  0  0  0  0
    5.8430   -3.5010   24.2220 C   0  0  0  0  0  0  0  0  0  0  0  0
   12.6610    4.5950   21.7370 C   0  0  0  0  0  0  0  0  0  0  0  0
    8.3030   -4.5130   21.1080 C   0  0  0  0  0  0  0  0  0  0  0  0
    4.6970    1.8480   22.1440 C   0  0  0  0  0  0  0  0  0  0  0  0
    5.2450    1.1180   17.8410 C   0  0  0  0  0  0  0  0  0  0  0  0
   10.9060   -1.5510   22.2010 C   0  0  0  0  0  0  0  0  0  0  0  0
    9.8590   -2.1300   24.2060 C   0  0  0  0  0  0  0  0  0  0  0  0
    6.4160   -3.9020   25.4980 C   0  0  0  0  0  0  0  0  0  0  0  0
    4.4540   -3.3130   24.2760 C   0  0  0  0  0  0  0  0  0  0  0  0
   13.4920    5.3190   22.7870 C   0  0  0  0  0  0  0  0  0  0  0  0
    3.6610    2.7410   22.6140 N   0  0  0  0  0  0  0  0  0  0  0  0
   11.0470   -1.8160   23.4860 C   0  0  0  0  0  0  0  0  0  0  0  0
    7.8270   -4.3390   26.0840 C   0  0  1  0  0  0  0  0  0  0  0  0
    5.6050   -4.0060   26.6800 C   0  0  0  0  0  0  0  0  0  0  0  0
    3.6110   -3.4680   25.4770 C   0  0  0  0  0  0  0  0  0  0  0  0
   12.2870   -1.8220   24.2590 C   0  0  0  0  0  0  0  0  0  0  0  0
    2.8890    2.4050   23.7860 C   0  0  0  0  0  0  0  0  0  0  0  0
    7.8530   -5.8240   25.9840 C   0  0  0  0  0  0  0  0  0  0  0  0
    9.0890   -3.8760   25.4930 N   0  0  0  0  0  0  0  0  0  0  0  0
    4.2240   -3.8030   26.6670 C   0  0  0  0  0  0  0  0  0  0  0  0
    6.3390   -4.3060   27.9110 C   0  0  0  0  0  0  0  0  0  0  0  0
    7.6670   -4.4180   27.5830 C   0  0  0  0  0  0  0  0  0  0  0  0
   12.6670   -0.5920   24.6420 C   0  0  0  0  0  0  0  0  0  0  0  0
   13.4610   -1.4410   23.4890 C   0  0  0  0  0  0  0  0  0  0  0  0
   12.5760   -2.9560   25.0240 C   0  0  0  0  0  0  0  0  0  0  0  0
    3.1760    1.1610   24.3660 O   0  0  0  0  0  0  0  0  0  0  0  0
    1.9250    3.3950   24.2270 N   0  0  0  0  0  0  0  0  0  0  0  0
    9.2480   -6.1580   25.8500 N   0  0  0  0  0  0  0  0  0  0  0  0
    9.4150   -4.5670   24.2370 C   0  0  0  0  0  0  0  0  0  0  0  0
    0.8220    3.7700   23.4800 C   0  0  0  0  0  0  0  0  0  0  0  0
    9.4920   -5.9180   24.4470 C   0  0  0  0  0  0  0  0  0  0  0  0
    0.2580    5.0950   24.0030 C   0  0  0  0  0  0  0  0  0  0  0  0
   -0.3040    2.7150   23.5070 C   0  0  0  0  0  0  0  0  0  0  0  0
   -0.7880    4.8760   25.1250 C   0  0  0  0  0  0  0  0  0  0  0  0
   -1.7440    3.2660   23.5500 C   0  0  0  0  0  0  0  0  0  0  0  0
   -2.1000    4.4470   24.4730 C   0  0  0  0  0  0  0  0  0  0  0  0
  1  2  1  0
  2  3  2  0
  4  1  1  1
  5  2  1  6
  4  6  1  0
  4  7  1  0
  5  8  1  0
  6  9  1  6
  5 10  1  0
  6 11  1  0
  7 12  1  0
 11 13  1  0
  8 14  1  0
  8 15  1  0
 10 16  1  0
 10 17  2  0
  8 18  1  6
 11 19  1  1
 12 19  1  0
  9 20  2  0
 13 20  1  0
 13 21  1  6
 14 22  2  0
 14 23  1  0
 15 23  1  0
 16 24  1  0
 17 25  1  0
 16 26  2  0
 18 27  2  0
 18 28  1  0
 15 29  1  1
 21 30  1  0
 23 31  1  6
 24 32  1  0
 25 33  2  0
 26 33  1  0
 27 34  1  0
 28 35  2  0
 29 36  1  0
 29 37  2  0
 30 38  1  0
 32 39  1  0
 34 40  2  0
 35 40  1  0
 36 41  1  0
 36 42  2  0
 37 43  1  0
 40 44  1  0
 39 45  1  0
 41 46  1  6
 41 47  1  0
 42 48  1  0
 43 48  2  0
 42 49  1  0
 41 50  1  0
 49 50  2  0
 44 51  1  0
 44 52  1  0
 44 53  1  0
 45 54  2  0
 45 55  1  0
 46 56  1  0
 47 57  1  0
 55 58  1  0
 56 59  1  0
 57 59  1  0
 58 60  1  0
 58 61  1  0
 60 62  1  0
 61 63  1  0
 62 64  1  0
 63 64  1  0
M  END
