x0540-x0786-x2193-x0820-x3110
     RDKit          3D

 70 76  0  0  0  0  0  0  0  0999 V2000
    8.0560    1.1570   23.3390 N   0  0  0  0  0  0  0  0  0  0  0  0
    8.8610    2.3780   23.5840 C   0  0  0  0  0  0  0  0  0  0  0  0
   10.1920    2.1500   23.5460 C   0  0  0  0  0  0  0  0  0  0  0  0
    7.8380    0.5300   22.0280 C   0  0  0  0  0  0  0  0  0  0  0  0
    8.4930    1.0050   21.0960 O   0  0  0  0  0  0  0  0  0  0  0  0
    6.8180   -0.6260   21.8850 C   0  0  2  0  0  0  0  0  0  0  0  0
    7.3150   -2.0660   22.0640 N   0  0  0  0  0  0  0  0  0  0  0  0
   11.0930    3.3720   23.4250 C   0  0  0  0  0  0  0  0  0  0  0  0
    6.3260   -0.1950   20.6050 C   0  0  0  0  0  0  0  0  0  0  0  0
   11.9230    3.2500   22.5290 O   0  0  0  0  0  0  0  0  0  0  0  0
   10.9750    4.3540   24.1480 O   0  0  0  0  0  0  0  0  0  0  0  0
    6.9600   -3.4220   22.5500 C   0  0  2  0  0  0  0  0  0  0  0  0
    5.0370    0.5210   20.5300 C   0  0  0  0  0  0  0  0  0  0  0  0
    7.1230   -0.4340   19.3450 C   0  0  0  0  0  0  0  0  0  0  0  0
    8.5650   -1.9290   22.6560 C   0  0  0  0  0  0  0  0  0  0  0  0
   12.2910    4.4310   21.9570 C   0  0  0  0  0  0  0  0  0  0  0  0
    6.8110   -4.3750   21.5940 N   0  0  0  0  0  0  0  0  0  0  0  0
    4.1460    0.8280   21.6810 C   0  0  0  0  0  0  0  0  0  0  0  0
    6.5580    0.0900   18.0580 N   0  0  0  0  0  0  0  0  0  0  0  0
    4.4560    1.0490   19.2610 C   0  0  0  0  0  0  0  0  0  0  0  0
    9.7980   -2.2820   21.9070 C   0  0  0  0  0  0  0  0  0  0  0  0
    8.8100   -1.4820   23.9610 C   0  0  0  0  0  0  0  0  0  0  0  0
    6.0560   -3.9060   23.8060 C   0  0  1  0  0  0  0  0  0  0  0  0
   13.3960    5.1270   22.8220 C   0  0  0  0  0  0  0  0  0  0  0  0
    6.3780   -4.1060   20.3160 C   0  0  0  0  0  0  0  0  0  0  0  0
    4.8940    1.7930   22.5950 C   0  0  0  0  0  0  0  0  0  0  0  0
    5.2670    0.8100   18.0290 C   0  0  0  0  0  0  0  0  0  0  0  0
   11.0070   -2.1920   22.3900 C   0  0  0  0  0  0  0  0  0  0  0  0
   10.0680   -1.3690   24.5330 C   0  0  0  0  0  0  0  0  0  0  0  0
    6.3780   -3.5090   25.1280 C   0  0  1  0  0  0  0  0  0  0  0  0
    4.4960   -3.8290   23.5110 C   0  0  2  0  0  0  0  0  0  0  0  0
    5.3080   -4.5510   19.9050 O   0  0  0  0  0  0  0  0  0  0  0  0
    7.2860   -3.3150   19.3910 C   0  0  0  0  0  0  0  0  0  0  0  0
    4.0690    2.7820   22.8420 N   0  0  0  0  0  0  0  0  0  0  0  0
   11.3260   -1.7660   23.6640 C   0  0  0  0  0  0  0  0  0  0  0  0
    5.7220   -4.1440   26.1370 C   0  0  2  0  0  0  0  0  0  0  0  0
    3.6410   -3.7700   24.7320 C   0  0  0  0  0  0  0  0  0  0  0  0
    7.7250   -4.1500   25.3300 C   0  0  0  0  0  0  0  0  0  0  0  0
    4.2250   -5.1940   22.8210 C   0  0  0  0  0  0  0  0  0  0  0  0
   12.5830   -1.6930   24.0980 C   0  0  0  0  0  0  0  0  0  0  0  0
    2.8430    2.4190   23.5710 C   0  0  0  0  0  0  0  0  0  0  0  0
    4.2420   -3.9220   25.9560 C   0  0  0  0  0  0  0  0  0  0  0  0
    6.2550   -3.6220   27.4820 C   0  0  0  0  0  0  0  0  0  0  0  0
    8.2430   -4.2390   26.6190 C   0  0  1  0  0  0  0  0  0  0  0  0
    4.4810   -6.4400   23.6690 C   0  0  0  0  0  0  0  0  0  0  0  0
   12.6670   -0.4700   24.7360 C   0  0  0  0  0  0  0  0  0  0  0  0
   13.4990   -1.9630   23.0850 C   0  0  0  0  0  0  0  0  0  0  0  0
   12.9160   -2.7350   25.1830 C   0  0  0  0  0  0  0  0  0  0  0  0
    2.7880    1.5640   24.4510 O   0  0  0  0  0  0  0  0  0  0  0  0
    1.8260    3.1460   23.1430 N   0  0  0  0  0  0  0  0  0  0  0  0
    7.5980   -3.6830   27.7160 C   0  0  0  0  0  0  0  0  0  0  0  0
    8.3460   -5.7410   26.9770 C   0  0  0  0  0  0  0  0  0  0  0  0
    9.5780   -3.6550   26.3960 N   0  0  0  0  0  0  0  0  0  0  0  0
    3.2760   -7.2380   24.1670 C   0  0  0  0  0  0  0  0  0  0  0  0
    0.6220    3.3020   23.9540 C   0  0  0  0  0  0  0  0  0  0  0  0
    9.3160   -6.4570   26.1900 N   0  0  0  0  0  0  0  0  0  0  0  0
   10.3140   -4.3830   25.3410 C   0  0  0  0  0  0  0  0  0  0  0  0
    3.4760   -8.2310   24.8530 O   0  0  0  0  0  0  0  0  0  0  0  0
    1.9510   -6.8980   23.8350 N   0  0  0  0  0  0  0  0  0  0  0  0
    0.5910    4.7190   24.5510 C   0  0  0  0  0  0  0  0  0  0  0  0
   -0.5210    2.9900   23.2070 C   0  0  0  0  0  0  0  0  0  0  0  0
    9.6820   -5.7160   24.9990 C   0  0  0  0  0  0  0  0  0  0  0  0
    1.4140   -5.5810   23.4710 C   0  0  0  0  0  0  0  0  0  0  0  0
    0.9720   -7.9850   23.9020 C   0  0  0  0  0  0  0  0  0  0  0  0
   -0.7670    5.0410   25.1950 C   0  0  0  0  0  0  0  0  0  0  0  0
   -1.7680    3.2510   23.7500 C   0  0  0  0  0  0  0  0  0  0  0  0
    0.2950   -5.0560   24.3640 C   0  0  0  0  0  0  0  0  0  0  0  0
   -0.1940   -7.6920   24.8490 C   0  0  0  0  0  0  0  0  0  0  0  0
   -1.8290    4.6400   24.3800 C   0  0  0  0  0  0  0  0  0  0  0  0
   -1.1250   -6.1870   24.4040 S   0  0  0  0  0  0  0  0  0  0  0  0
  1  2  1  0
  2  3  1  0
  1  4  1  0
  4  5  2  0
  6  4  1  6
  6  7  1  0
  3  8  1  0
  6  9  1  0
  8 10  1  0
  8 11  2  0
  7 12  1  0
  9 13  1  0
  9 14  2  0
  7 15  1  0
 10 16  1  0
 12 17  1  6
 13 18  1  0
 14 19  1  0
 13 20  2  0
 15 21  2  0
 15 22  1  0
 23 12  1  6
 16 24  1  0
 17 25  1  0
 18 26  1  0
 19 27  2  0
 20 27  1  0
 21 28  1  0
 22 29  2  0
 23 30  1  0
 23 31  1  0
 25 32  2  0
 25 33  1  0
 26 34  1  0
 28 35  2  0
 29 35  1  0
 30 36  1  0
 31 37  1  0
 30 38  1  1
 31 39  1  1
 35 40  1  0
 34 41  1  0
 36 42  1  6
 37 42  2  0
 36 43  1  0
 44 38  1  6
 39 45  1  0
 40 46  1  0
 40 47  1  0
 40 48  1  0
 41 49  2  0
 41 50  1  0
 43 51  2  0
 44 51  1  0
 44 52  1  0
 44 53  1  0
 45 54  1  0
 50 55  1  0
 52 56  1  0
 53 57  1  0
 54 58  2  0
 54 59  1  0
 55 60  1  0
 55 61  1  0
 56 62  1  0
 57 62  1  0
 59 63  1  0
 59 64  1  0
 60 65  1  0
 61 66  1  0
 63 67  1  0
 64 68  1  0
 65 69  1  0
 66 69  1  0
 67 70  1  0
 68 70  1  0
M  END
