x0540-x0705
     RDKit          3D

 38 41  0  0  0  0  0  0  0  0999 V2000
    0.9680   -2.3000   27.7210 C   0  0  0  0  0  0  0  0  0  0  0  0
    2.5070   -2.4090   27.3890 C   0  0  0  0  0  0  0  0  0  0  0  0
    3.6860   -3.2220   27.9050 C   0  0  0  0  0  0  0  0  0  0  0  0
    2.7660   -1.4040   26.2530 C   0  0  0  0  0  0  0  0  0  0  0  0
    4.1600   -1.5790   26.0320 C   0  0  0  0  0  0  0  0  0  0  0  0
    5.0920   -3.0310   27.2940 C   0  0  0  0  0  0  0  0  0  0  0  0
    5.1970   -2.0850   26.2660 C   0  0  0  0  0  0  0  0  0  0  0  0
    6.5260   -1.8750   25.6440 C   0  0  0  0  0  0  0  0  0  0  0  0
    7.3910   -1.2830   26.2720 O   0  0  0  0  0  0  0  0  0  0  0  0
    6.6700   -2.3820   24.3830 N   0  0  0  0  0  0  0  0  0  0  0  0
    5.5570   -2.9040   23.5780 C   0  0  2  0  0  0  0  0  0  0  0  0
    7.8480   -2.1030   23.6450 C   0  0  0  0  0  0  0  0  0  0  0  0
    5.9440   -3.8570   22.6790 C   0  0  0  0  0  0  0  0  0  0  0  0
    8.0200   -2.6360   22.2180 C   0  0  0  0  0  0  0  0  0  0  0  0
    4.8750   -1.7540   22.8540 C   0  0  0  0  0  0  0  0  0  0  0  0
    6.7310   -3.1560   21.6970 N   0  0  0  0  0  0  0  0  0  0  0  0
    5.6630   -0.4510   22.6950 C   0  0  0  0  0  0  0  0  0  0  0  0
    6.6890   -3.5100   20.3650 C   0  0  0  0  0  0  0  0  0  0  0  0
    4.9420    0.5170   22.0090 C   0  0  1  0  0  0  0  0  0  0  0  0
    5.6580   -3.7910   19.7060 O   0  0  0  0  0  0  0  0  0  0  0  0
    7.9710   -3.6550   19.6830 C   0  0  0  0  0  0  0  0  0  0  0  0
    5.1940    1.7900   22.4950 C   0  0  0  0  0  0  0  0  0  0  0  0
    5.3470    0.5000   20.5260 C   0  0  0  0  0  0  0  0  0  0  0  0
    3.9570    2.6110   22.4030 N   0  0  0  0  0  0  0  0  0  0  0  0
    6.3640   -0.3230   20.0300 C   0  0  0  0  0  0  0  0  0  0  0  0
    4.7220    1.3140   19.5890 C   0  0  0  0  0  0  0  0  0  0  0  0
    2.9190    2.4570   23.2400 C   0  0  0  0  0  0  0  0  0  0  0  0
    6.7230   -0.3160   18.6790 C   0  0  0  0  0  0  0  0  0  0  0  0
    5.0970    1.3060   18.2450 C   0  0  0  0  0  0  0  0  0  0  0  0
    2.9640    1.4720   24.1830 O   0  0  0  0  0  0  0  0  0  0  0  0
    1.7950    3.3710   23.0840 N   0  0  0  0  0  0  0  0  0  0  0  0
    6.1640    0.4470   17.7230 N   0  0  0  0  0  0  0  0  0  0  0  0
    0.6310    3.3390   23.9670 C   0  0  0  0  0  0  0  0  0  0  0  0
    0.4780    4.6830   24.4360 C   0  0  0  0  0  0  0  0  0  0  0  0
   -0.4710    2.8110   23.2800 C   0  0  0  0  0  0  0  0  0  0  0  0
   -0.6760    4.8830   25.2010 C   0  0  0  0  0  0  0  0  0  0  0  0
   -1.8550    3.3380   23.6810 C   0  0  0  0  0  0  0  0  0  0  0  0
   -1.9700    4.5070   24.4140 C   0  0  0  0  0  0  0  0  0  0  0  0
  1  2  1  0
  2  3  2  0
  2  4  1  0
  4  5  2  0
  3  6  1  0
  5  7  1  0
  6  7  2  0
  7  8  1  0
  8  9  2  0
  8 10  1  0
 10 11  1  0
 10 12  1  0
 11 13  1  0
 12 14  1  0
 11 15  1  6
 13 16  1  0
 14 16  1  0
 15 17  1  0
 16 18  1  0
 19 17  1  1
 18 20  2  0
 18 21  1  0
 19 22  1  0
 19 23  1  0
 22 24  1  0
 23 25  2  0
 23 26  1  0
 24 27  1  0
 25 28  1  0
 26 29  2  0
 27 30  2  0
 27 31  1  0
 28 32  2  0
 29 32  1  0
 31 33  1  0
 33 34  1  0
 33 35  1  0
 34 36  1  0
 35 37  1  0
 36 38  1  0
 37 38  1  0
M  END
