x0540-x0104
     RDKit          3D

 38 41  0  0  0  0  0  0  0  0999 V2000
    8.9550    6.3780   22.9220 C   0  0  0  0  0  0  0  0  0  0  0  0
   10.3080    6.1360   23.5270 C   0  0  0  0  0  0  0  0  0  0  0  0
   10.5310    6.3060   24.7200 O   0  0  0  0  0  0  0  0  0  0  0  0
    8.0190    5.2340   23.1920 C   0  0  0  0  0  0  0  0  0  0  0  0
   11.2530    5.7060   22.6340 N   0  0  0  0  0  0  0  0  0  0  0  0
    7.6720    4.4930   22.0560 C   0  0  0  0  0  0  0  0  0  0  0  0
   12.4670    5.0240   23.1140 C   0  0  0  0  0  0  0  0  0  0  0  0
    6.3370    3.7360   22.1930 C   0  0  0  0  0  0  0  0  0  0  0  0
   12.6530    3.6480   22.4890 C   0  0  0  0  0  0  0  0  0  0  0  0
    6.5100    2.3350   22.3360 C   0  0  0  0  0  0  0  0  0  0  0  0
    5.2000    1.6050   22.7420 C   0  0  1  0  0  0  0  0  0  0  0  0
   11.9250    2.4670   23.1210 C   0  0  0  0  0  0  0  0  0  0  0  0
    4.0740    2.5940   22.6590 N   0  0  0  0  0  0  0  0  0  0  0  0
    4.7330    0.4460   21.9560 C   0  0  0  0  0  0  0  0  0  0  0  0
   10.7530    2.6230   23.8030 C   0  0  0  0  0  0  0  0  0  0  0  0
   12.0410    1.1210   23.2310 C   0  0  0  0  0  0  0  0  0  0  0  0
    2.8390    2.4320   23.3940 C   0  0  0  0  0  0  0  0  0  0  0  0
   10.1180    1.4340   24.3600 N   0  0  0  0  0  0  0  0  0  0  0  0
   11.0420    0.4710   24.0110 C   0  0  1  0  0  0  0  0  0  0  0  0
   13.0360    0.2390   22.6810 C   0  0  0  0  0  0  0  0  0  0  0  0
    5.2770    0.4120   20.5590 C   0  0  0  0  0  0  0  0  0  0  0  0
    2.8150    1.6150   24.3210 O   0  0  0  0  0  0  0  0  0  0  0  0
    1.8070    3.1510   23.0460 N   0  0  0  0  0  0  0  0  0  0  0  0
   10.4190   -0.6900   23.2940 C   0  0  0  0  0  0  0  0  0  0  0  0
   12.6460   -1.1580   22.1990 C   0  0  0  0  0  0  0  0  0  0  0  0
    6.3660   -0.4110   20.2360 C   0  0  0  0  0  0  0  0  0  0  0  0
    4.6960    1.2550   19.4280 C   0  0  0  0  0  0  0  0  0  0  0  0
   13.5000   -2.0120   21.6570 F   0  0  0  0  0  0  0  0  0  0  0  0
   11.3330   -1.5550   22.3220 C   0  0  0  0  0  0  0  0  0  0  0  0
    6.8710   -0.4390   18.9570 C   0  0  0  0  0  0  0  0  0  0  0  0
    5.1320    1.2900   18.1320 C   0  0  0  0  0  0  0  0  0  0  0  0
    0.6370    3.3490   23.8270 C   0  0  0  0  0  0  0  0  0  0  0  0
    6.2780    0.3940   17.8940 N   0  0  0  0  0  0  0  0  0  0  0  0
    0.5940    4.5960   24.5030 C   0  0  0  0  0  0  0  0  0  0  0  0
   -0.5570    3.0570   23.1150 C   0  0  0  0  0  0  0  0  0  0  0  0
   -0.7450    4.9430   25.2380 C   0  0  0  0  0  0  0  0  0  0  0  0
   -1.7570    3.2170   23.8050 C   0  0  0  0  0  0  0  0  0  0  0  0
   -1.8970    4.5230   24.5800 C   0  0  0  0  0  0  0  0  0  0  0  0
  1  2  1  0
  2  3  2  0
  1  4  1  0
  2  5  1  0
  4  6  1  0
  5  7  1  0
  6  8  1  0
  7  9  1  0
  8 10  1  0
 11 10  1  6
  9 12  1  0
 11 13  1  0
 11 14  1  0
 12 15  1  0
 12 16  2  0
 13 17  1  0
 15 18  2  0
 16 19  1  0
 18 19  1  0
 16 20  1  0
 14 21  1  0
 17 22  2  0
 17 23  1  0
 19 24  1  6
 20 25  2  0
 21 26  2  0
 21 27  1  0
 25 28  1  0
 24 29  2  0
 25 29  1  0
 26 30  1  0
 27 31  2  0
 23 32  1  0
 30 33  2  0
 31 33  1  0
 32 34  1  0
 32 35  1  0
 34 36  1  0
 35 37  1  0
 36 38  1  0
 37 38  1  0
M  END
