x0540-x2964-x1380
     RDKit          3D

 48 52  0  0  0  0  0  0  0  0999 V2000
    2.6380    1.3850   24.4060 O   0  0  0  0  0  0  0  0  0  0  0  0
    2.8730    2.4870   23.5290 C   0  0  0  0  0  0  0  0  0  0  0  0
    4.1110    2.7270   22.9980 N   0  0  0  0  0  0  0  0  0  0  0  0
    1.8490    3.3490   23.1870 N   0  0  0  0  0  0  0  0  0  0  0  0
    4.9820    1.6000   22.7130 C   0  0  0  0  0  0  0  0  0  0  0  0
    0.6220    3.3430   23.9110 C   0  0  0  0  0  0  0  0  0  0  0  0
    4.2540    0.6350   21.7570 C   0  0  0  0  0  0  0  0  0  0  0  0
    0.4960    4.6110   24.5030 C   0  0  0  0  0  0  0  0  0  0  0  0
   -0.5310    2.8810   23.2550 C   0  0  0  0  0  0  0  0  0  0  0  0
    4.9660    0.5250   20.3850 C   0  0  0  0  0  0  0  0  0  0  0  0
   -0.7370    4.8930   25.1000 C   0  0  0  0  0  0  0  0  0  0  0  0
   -1.7620    3.2740   23.7850 C   0  0  0  0  0  0  0  0  0  0  0  0
    6.2940   -0.2320   20.3000 C   0  0  0  0  0  0  0  0  0  0  0  0
    4.4420    1.0960   19.2750 C   0  0  0  0  0  0  0  0  0  0  0  0
   -1.8220    4.5780   24.2790 C   0  0  0  0  0  0  0  0  0  0  0  0
    3.2030    1.8350   19.2630 N   0  0  0  0  0  0  0  0  0  0  0  0
    7.0190   -0.8780   21.4420 N   0  0  0  0  0  0  0  0  0  0  0  0
    6.9590   -0.3110   18.9310 C   0  0  0  0  0  0  0  0  0  0  0  0
    5.2390    0.9360   17.9760 C   0  0  0  0  0  0  0  0  0  0  0  0
    8.1320   -0.1600   21.8410 C   0  0  0  0  0  0  0  0  0  0  0  0
    6.2830   -1.5860   22.4110 C   0  0  0  0  0  0  0  0  0  0  0  0
    6.4010    0.2830   17.8240 N   0  0  0  0  0  0  0  0  0  0  0  0
    8.4140    0.8700   21.2220 O   0  0  0  0  0  0  0  0  0  0  0  0
    8.9020   -0.5530   22.8690 N   0  0  0  0  0  0  0  0  0  0  0  0
    7.1080   -2.6450   23.2380 C   0  0  1  0  0  0  0  0  0  0  0  0
   10.3310   -0.3000   22.8900 C   0  0  0  0  0  0  0  0  0  0  0  0
    6.5020   -3.6740   24.0060 C   0  0  1  0  0  0  0  0  0  0  0  0
    7.7920   -3.3060   22.2440 C   0  0  0  0  0  0  0  0  0  0  0  0
    5.8230   -3.2250   25.3630 C   0  0  0  0  0  0  0  0  0  0  0  0
   10.8850    0.7910   23.5510 C   0  0  0  0  0  0  0  0  0  0  0  0
   11.0740   -1.2080   22.2000 C   0  0  0  0  0  0  0  0  0  0  0  0
    6.8910   -4.3520   21.5670 N   0  0  0  0  0  0  0  0  0  0  0  0
    5.5160   -4.4020   23.3370 C   0  0  0  0  0  0  0  0  0  0  0  0
    6.3640   -4.1380   20.2900 C   0  0  0  0  0  0  0  0  0  0  0  0
    4.5860   -2.6510   25.4140 O   0  0  0  0  0  0  0  0  0  0  0  0
   12.2640    0.9580   23.4920 C   0  0  0  0  0  0  0  0  0  0  0  0
   12.4230   -1.0390   22.1480 C   0  0  0  0  0  0  0  0  0  0  0  0
    6.1780   -5.2530   22.4540 C   0  0  0  0  0  0  0  0  0  0  0  0
    6.4850   -3.4550   26.5710 N   0  0  0  0  0  0  0  0  0  0  0  0
   13.2630   -2.1970   21.2560 Cl  0  0  0  0  0  0  0  0  0  0  0  0
    7.1370   -3.2930   19.2980 C   0  0  0  0  0  0  0  0  0  0  0  0
    5.3190   -4.6840   19.9430 O   0  0  0  0  0  0  0  0  0  0  0  0
   13.0350    0.0340   22.7830 C   0  0  0  0  0  0  0  0  0  0  0  0
    7.8880   -3.7940   26.7510 C   0  0  0  0  0  0  0  0  0  0  0  0
    5.6710   -3.5220   27.8020 C   0  0  0  0  0  0  0  0  0  0  0  0
    7.9690   -5.0530   27.3570 C   0  0  0  0  0  0  0  0  0  0  0  0
    5.8810   -4.7220   28.4860 C   0  0  0  0  0  0  0  0  0  0  0  0
    7.1850   -5.2420   28.4980 C   0  0  0  0  0  0  0  0  0  0  0  0
  1  2  2  0
  2  3  1  0
  2  4  1  0
  3  5  1  0
  4  6  1  0
  5  7  1  0
  6  8  1  0
  6  9  1  0
  7 10  1  0
  8 11  1  0
  9 12  1  0
 10 13  1  0
 10 14  2  0
 11 15  1  0
 12 15  1  0
 14 16  1  0
 13 17  1  0
 13 18  2  0
 14 19  1  0
 17 20  1  0
 17 21  1  0
 18 22  1  0
 19 22  2  0
 20 23  2  0
 20 24  1  0
 25 21  1  6
 24 26  1  0
 25 27  1  0
 25 28  1  0
 27 29  1  1
 26 30  2  0
 26 31  1  0
 28 32  1  0
 27 33  1  0
 32 34  1  0
 29 35  2  0
 30 36  1  0
 31 37  2  0
 32 38  1  0
 33 38  1  0
 29 39  1  0
 37 40  1  0
 34 41  1  0
 34 42  2  0
 36 43  2  0
 37 43  1  0
 39 44  1  0
 39 45  1  0
 44 46  1  0
 45 47  1  0
 46 48  1  0
 47 48  1  0
M  END
