x0540-x2779
     RDKit          3D

 34 37  0  0  0  0  0  0  0  0999 V2000
    2.9900    1.3520   24.5560 O   0  0  0  0  0  0  0  0  0  0  0  0
    3.0200    2.2300   23.4170 C   0  0  0  0  0  0  0  0  0  0  0  0
    4.1180    2.2370   22.4000 N   0  0  0  0  0  0  0  0  0  0  0  0
    2.0110    3.1770   23.1210 N   0  0  0  0  0  0  0  0  0  0  0  0
    5.4000    1.6480   22.5370 C   0  0  0  0  0  0  0  0  0  0  0  0
    0.7780    3.3100   23.9560 C   0  0  0  0  0  0  0  0  0  0  0  0
    5.4630    0.1060   22.4620 C   0  0  0  0  0  0  0  0  0  0  0  0
    0.7830    4.6290   24.7240 C   0  0  0  0  0  0  0  0  0  0  0  0
   -0.3340    3.0690   23.1350 C   0  0  0  0  0  0  0  0  0  0  0  0
    5.9120   -0.6110   21.1420 C   0  0  1  0  0  0  0  0  0  0  0  0
   -0.6660    4.9550   25.1480 C   0  0  0  0  0  0  0  0  0  0  0  0
   -1.5420    3.3140   23.7860 C   0  0  0  0  0  0  0  0  0  0  0  0
    5.7260   -0.0090   20.1140 C   0  0  0  0  0  0  0  0  0  0  0  0
   -1.6140    4.6460   24.1550 C   0  0  0  0  0  0  0  0  0  0  0  0
    7.2860   -1.4160   21.2250 C   0  0  2  0  0  0  0  0  0  0  0  0
    6.6220    0.0160   18.9810 C   0  0  0  0  0  0  0  0  0  0  0  0
    4.5550    0.6860   20.0720 C   0  0  0  0  0  0  0  0  0  0  0  0
    6.9090   -2.8050   21.0990 N   0  0  0  0  0  0  0  0  0  0  0  0
    8.2390   -1.3010   22.2670 C   0  0  0  0  0  0  0  0  0  0  0  0
    6.4770   -3.3740   19.8950 C   0  0  0  0  0  0  0  0  0  0  0  0
    6.3350    0.7260   17.8390 N   0  0  0  0  0  0  0  0  0  0  0  0
    4.2260    1.4220   18.9560 C   0  0  0  0  0  0  0  0  0  0  0  0
    8.5460   -2.2340   23.2160 N   0  0  0  0  0  0  0  0  0  0  0  0
    6.6560   -3.4420   22.2970 C   0  0  0  0  0  0  0  0  0  0  0  0
    7.3600   -3.0610   18.7180 C   0  0  0  0  0  0  0  0  0  0  0  0
    5.4910   -4.1160   19.7510 O   0  0  0  0  0  0  0  0  0  0  0  0
    9.9750   -2.6260   23.1730 C   0  0  0  0  0  0  0  0  0  0  0  0
    5.1710    1.4290   17.8040 C   0  0  0  0  0  0  0  0  0  0  0  0
    7.7050   -3.4660   23.2270 C   0  0  0  0  0  0  0  0  0  0  0  0
   10.9460   -1.4740   23.1300 C   0  0  0  0  0  0  0  0  0  0  0  0
   12.4550   -1.6200   22.8190 C   0  0  0  0  0  0  0  0  0  0  0  0
   10.4800    0.1560   23.4140 S   0  0  0  0  0  0  0  0  0  0  0  0
   12.0430    0.7390   23.1850 C   0  0  0  0  0  0  0  0  0  0  0  0
   13.0650   -0.3480   22.8530 C   0  0  0  0  0  0  0  0  0  0  0  0
  1  2  2  0
  2  3  1  0
  2  4  1  0
  3  5  1  0
  4  6  1  0
  5  7  1  0
  6  8  1  0
  6  9  1  0
 10  7  1  1
  8 11  1  0
  9 12  1  0
 10 13  1  0
 11 14  1  0
 12 14  1  0
 10 15  1  0
 13 16  2  0
 13 17  1  0
 15 18  1  0
 15 19  1  1
 18 20  1  0
 16 21  1  0
 17 22  2  0
 19 23  1  0
 18 24  1  0
 20 25  1  0
 20 26  2  0
 23 27  1  0
 21 28  2  0
 22 28  1  0
 23 29  1  0
 24 29  1  0
 27 30  1  0
 30 31  2  0
 30 32  1  0
 32 33  1  0
 31 34  1  0
 33 34  2  0
M  END
