x0540-x3113-x0771
     RDKit          3D

 60 65  0  0  0  0  0  0  0  0999 V2000
    6.8630   -1.6800   22.0570 C   0  0  1  0  0  0  0  0  0  0  0  0
    5.9110   -2.6030   21.1320 C   0  0  0  0  0  0  0  0  0  0  0  0
    4.7200   -2.9950   21.4170 O   0  0  0  0  0  0  0  0  0  0  0  0
    6.6470   -0.1420   21.8410 C   0  0  1  0  0  0  0  0  0  0  0  0
    6.4690   -2.6380   23.1770 C   0  0  0  0  0  0  0  0  0  0  0  0
    8.4280   -1.7870   22.4760 C   0  0  0  0  0  0  0  0  0  0  0  0
    6.3220   -3.1910   19.9050 C   0  0  0  0  0  0  0  0  0  0  0  0
    7.8420    0.8390   22.0700 C   0  0  0  0  0  0  0  0  0  0  0  0
    6.2270    0.2440   20.4350 C   0  0  0  0  0  0  0  0  0  0  0  0
    9.4990   -2.1000   21.6850 C   0  0  0  0  0  0  0  0  0  0  0  0
    8.7790   -1.5220   23.8100 C   0  0  0  0  0  0  0  0  0  0  0  0
    7.1790   -4.0330   22.9230 C   0  0  2  0  0  0  0  0  0  0  0  0
    7.5200   -3.9040   20.3250 C   0  0  0  0  0  0  0  0  0  0  0  0
    8.2750    1.2780   23.4050 N   0  0  0  0  0  0  0  0  0  0  0  0
    8.4690    1.3210   20.8740 O   0  0  0  0  0  0  0  0  0  0  0  0
    4.9450    0.9900   20.3050 C   0  0  0  0  0  0  0  0  0  0  0  0
    6.9500   -0.0370   19.2700 C   0  0  0  0  0  0  0  0  0  0  0  0
   10.8210   -2.1450   22.1600 C   0  0  0  0  0  0  0  0  0  0  0  0
   10.0770   -1.5600   24.3150 C   0  0  0  0  0  0  0  0  0  0  0  0
    7.0210   -4.7060   21.5610 N   0  0  0  0  0  0  0  0  0  0  0  0
    6.9770   -4.9290   24.1050 C   0  0  0  0  0  0  0  0  0  0  0  0
    9.1310    2.4690   23.5970 C   0  0  0  0  0  0  0  0  0  0  0  0
    4.1470    1.2840   21.5290 C   0  0  0  0  0  0  0  0  0  0  0  0
    6.6010    0.3290   18.0090 N   0  0  0  0  0  0  0  0  0  0  0  0
    4.5350    1.3900   19.0600 C   0  0  0  0  0  0  0  0  0  0  0  0
   11.1490   -1.8730   23.5000 C   0  0  0  0  0  0  0  0  0  0  0  0
    5.9870   -5.7680   21.5910 C   0  0  0  0  0  0  0  0  0  0  0  0
    5.6830   -5.6000   24.0740 N   0  0  0  0  0  0  0  0  0  0  0  0
   10.6280    2.1220   23.4760 C   0  0  0  0  0  0  0  0  0  0  0  0
   12.5650   -1.9060   23.9870 C   0  0  0  0  0  0  0  0  0  0  0  0
    4.8170    2.2250   22.2980 C   0  0  0  0  0  0  0  0  0  0  0  0
    4.9020   -5.7960   25.5590 S   0  0  0  0  0  0  0  0  0  0  0  0
    5.3820    1.0700   17.8150 C   0  0  0  0  0  0  0  0  0  0  0  0
    4.9870   -5.7250   22.7790 C   0  0  0  0  0  0  0  0  0  0  0  0
   11.1460    3.5720   23.2770 C   0  0  0  0  0  0  0  0  0  0  0  0
   13.4340   -2.1120   22.9400 C   0  0  0  0  0  0  0  0  0  0  0  0
   12.7830   -2.9500   25.0460 C   0  0  0  0  0  0  0  0  0  0  0  0
   12.7590   -0.6070   24.7330 C   0  0  0  0  0  0  0  0  0  0  0  0
    4.0920    3.0040   23.1540 N   0  0  0  0  0  0  0  0  0  0  0  0
    4.2030   -7.0540   25.5060 O   0  0  0  0  0  0  0  0  0  0  0  0
    5.8730   -5.5490   26.5950 O   0  0  0  0  0  0  0  0  0  0  0  0
    3.7090   -4.4760   25.7470 C   0  0  0  0  0  0  0  0  0  0  0  0
   12.3070    3.4860   22.4650 O   0  0  0  0  0  0  0  0  0  0  0  0
    2.8320    2.6090   23.7600 C   0  0  0  0  0  0  0  0  0  0  0  0
    2.2840   -4.8600   25.3560 C   0  0  0  0  0  0  0  0  0  0  0  0
    4.1200   -3.0860   26.2660 C   0  0  0  0  0  0  0  0  0  0  0  0
   12.9770    4.7270   22.7270 C   0  0  0  0  0  0  0  0  0  0  0  0
    2.7050    1.6310   24.7100 O   0  0  0  0  0  0  0  0  0  0  0  0
    1.8600    3.3130   23.2560 N   0  0  0  0  0  0  0  0  0  0  0  0
    1.8620   -6.2100   24.8470 C   0  0  0  0  0  0  0  0  0  0  0  0
    1.2510   -3.7730   25.5070 C   0  0  0  0  0  0  0  0  0  0  0  0
    3.1060   -2.1000   26.3880 C   0  0  0  0  0  0  0  0  0  0  0  0
    0.5770    3.4290   23.9220 C   0  0  0  0  0  0  0  0  0  0  0  0
    1.5780   -2.3710   26.0160 C   0  0  0  0  0  0  0  0  0  0  0  0
    0.5250   -1.3140   26.1540 C   0  0  0  0  0  0  0  0  0  0  0  0
    0.4680    4.7790   24.6390 C   0  0  0  0  0  0  0  0  0  0  0  0
   -0.5800    3.2240   22.9170 C   0  0  0  0  0  0  0  0  0  0  0  0
   -0.8050    4.9590   25.1770 C   0  0  0  0  0  0  0  0  0  0  0  0
   -1.8480    3.3080   23.7580 C   0  0  0  0  0  0  0  0  0  0  0  0
   -1.9160    4.5470   24.4420 C   0  0  0  0  0  0  0  0  0  0  0  0
  1  2  1  0
  2  3  2  0
  1  4  1  0
  1  5  1  0
  1  6  1  6
  2  7  1  0
  4  8  1  6
  4  9  1  0
  6 10  2  0
  6 11  1  0
 12  5  1  1
  7 13  1  0
  8 14  1  0
  8 15  2  0
  9 16  1  0
  9 17  2  0
 10 18  1  0
 11 19  2  0
 12 20  1  0
 13 20  1  0
 12 21  1  0
 14 22  1  0
 16 23  1  0
 17 24  1  0
 16 25  2  0
 18 26  2  0
 19 26  1  0
 20 27  1  0
 21 28  1  0
 22 29  1  0
 26 30  1  0
 23 31  1  0
 28 32  1  0
 24 33  2  0
 25 33  1  0
 27 34  1  0
 28 34  1  0
 29 35  1  0
 30 36  1  0
 30 37  1  0
 30 38  1  0
 31 39  1  0
 32 40  2  0
 32 41  2  0
 32 42  1  0
 35 43  1  0
 39 44  1  0
 42 45  2  0
 42 46  1  0
 43 47  1  0
 44 48  2  0
 44 49  1  0
 45 50  1  0
 45 51  1  0
 46 52  2  0
 49 53  1  0
 51 54  2  0
 52 54  1  0
 54 55  1  0
 53 56  1  0
 53 57  1  0
 56 58  1  0
 57 59  1  0
 58 60  1  0
 59 60  1  0
M  END
