x0540-x0736-x2694
     RDKit          3D

 57 63  0  0  0  0  0  0  0  0999 V2000
    7.8270    2.1820   22.7350 N   0  0  0  0  0  0  0  0  0  0  0  0
    8.1490    1.3330   21.6930 C   0  0  0  0  0  0  0  0  0  0  0  0
    9.1590    1.3940   21.0440 O   0  0  0  0  0  0  0  0  0  0  0  0
    8.5860    3.4050   23.0170 C   0  0  0  0  0  0  0  0  0  0  0  0
    7.1760    0.2000   21.1710 C   0  0  1  0  0  0  0  0  0  0  0  0
    9.7420    3.2610   23.6580 C   0  0  0  0  0  0  0  0  0  0  0  0
    8.0870    4.7960   22.5880 C   0  0  0  0  0  0  0  0  0  0  0  0
   10.1620    1.8710   24.0490 C   0  0  0  0  0  0  0  0  0  0  0  0
    6.3110    0.6140   20.0250 C   0  0  0  0  0  0  0  0  0  0  0  0
   10.5560    4.5020   23.9500 C   0  0  0  0  0  0  0  0  0  0  0  0
    8.9470    5.9990   22.9180 C   0  0  0  0  0  0  0  0  0  0  0  0
    7.9960   -1.0770   20.7320 C   0  0  0  0  0  0  0  0  0  0  0  0
    5.0310    1.0600   20.1490 C   0  0  0  0  0  0  0  0  0  0  0  0
    6.8880    0.5380   18.6600 C   0  0  0  0  0  0  0  0  0  0  0  0
   10.1450    5.7790   23.5890 C   0  0  0  0  0  0  0  0  0  0  0  0
    7.7350   -2.4420   21.4340 C   0  0  2  0  0  0  0  0  0  0  0  0
   11.0010    6.7860   23.9450 O   0  0  0  0  0  0  0  0  0  0  0  0
    4.2350    1.1720   21.4200 C   0  0  0  0  0  0  0  0  0  0  0  0
    6.2780    0.9130   17.4880 N   0  0  0  0  0  0  0  0  0  0  0  0
    4.3950    1.4580   18.9650 C   0  0  0  0  0  0  0  0  0  0  0  0
    6.4830   -3.1190   21.2500 N   0  0  0  0  0  0  0  0  0  0  0  0
    7.7300   -2.0040   22.6280 C   0  0  2  0  0  0  0  0  0  0  0  0
   11.8580    6.5710   25.0650 C   0  0  0  0  0  0  0  0  0  0  0  0
    4.9430    1.9320   22.3500 C   0  0  0  0  0  0  0  0  0  0  0  0
    5.0680    1.3670   17.7360 C   0  0  0  0  0  0  0  0  0  0  0  0
    6.2510   -3.5670   19.9500 C   0  0  0  0  0  0  0  0  0  0  0  0
    9.0310   -1.7440   22.8830 C   0  0  0  0  0  0  0  0  0  0  0  0
    7.4420   -2.7720   23.8710 N   0  0  0  0  0  0  0  0  0  0  0  0
    5.5730   -3.2380   22.3540 C   0  0  0  0  0  0  0  0  0  0  0  0
    4.1280    2.8260   22.9920 N   0  0  0  0  0  0  0  0  0  0  0  0
    7.2190   -3.1460   18.8290 C   0  0  0  0  0  0  0  0  0  0  0  0
    5.3020   -4.3040   19.7490 O   0  0  0  0  0  0  0  0  0  0  0  0
    7.6690   -1.4570   24.6240 C   0  0  1  0  0  0  0  0  0  0  0  0
    9.0190   -1.3910   24.1100 C   0  0  0  0  0  0  0  0  0  0  0  0
   10.2870   -1.7010   22.4460 C   0  0  0  0  0  0  0  0  0  0  0  0
    6.1340   -3.4020   23.6700 C   0  0  0  0  0  0  0  0  0  0  0  0
    2.9200    2.4650   23.5560 C   0  0  0  0  0  0  0  0  0  0  0  0
    6.7820   -0.4510   24.2050 O   0  0  0  0  0  0  0  0  0  0  0  0
   10.2840   -1.0940   24.5550 O   0  0  0  0  0  0  0  0  0  0  0  0
   11.0980   -1.3270   23.4290 C   0  0  0  0  0  0  0  0  0  0  0  0
    7.8510   -1.1390   26.0040 C   0  0  0  0  0  0  0  0  0  0  0  0
    2.9140    1.5470   24.3890 O   0  0  0  0  0  0  0  0  0  0  0  0
    1.7880    3.1500   23.1620 N   0  0  0  0  0  0  0  0  0  0  0  0
   12.5560   -1.1570   23.4840 C   0  0  0  0  0  0  0  0  0  0  0  0
    9.0240   -0.4140   26.0920 O   0  0  0  0  0  0  0  0  0  0  0  0
    7.2920   -1.2850   27.2650 C   0  0  0  0  0  0  0  0  0  0  0  0
    0.6050    3.2160   24.0450 C   0  0  0  0  0  0  0  0  0  0  0  0
   12.8470    0.3310   23.4130 C   0  0  0  0  0  0  0  0  0  0  0  0
   13.1490   -1.8660   22.2550 C   0  0  0  0  0  0  0  0  0  0  0  0
   13.0800   -1.7750   24.6830 C   0  0  0  0  0  0  0  0  0  0  0  0
    8.0950   -0.6770   28.1800 C   0  0  0  0  0  0  0  0  0  0  0  0
    9.2230   -0.1310   27.3640 C   0  0  0  0  0  0  0  0  0  0  0  0
    0.5370    4.6010   24.6940 C   0  0  0  0  0  0  0  0  0  0  0  0
   -0.6270    2.8510   23.2270 C   0  0  0  0  0  0  0  0  0  0  0  0
   -0.8360    5.0260   25.2220 C   0  0  0  0  0  0  0  0  0  0  0  0
   -1.7710    3.2840   23.8990 C   0  0  0  0  0  0  0  0  0  0  0  0
   -1.8400    4.8120   24.0760 C   0  0  0  0  0  0  0  0  0  0  0  0
  1  2  1  0
  2  3  2  0
  1  4  1  0
  2  5  1  0
  4  6  2  0
  4  7  1  0
  6  8  1  0
  5  9  1  0
  6 10  1  0
  7 11  2  0
  5 12  1  6
  9 13  1  0
  9 14  2  0
 10 15  2  0
 11 15  1  0
 16 12  1  6
 15 17  1  0
 13 18  1  0
 14 19  1  0
 13 20  2  0
 16 21  1  0
 16 22  1  0
 17 23  1  0
 18 24  1  0
 19 25  2  0
 20 25  1  0
 21 26  1  0
 22 27  1  1
 22 28  1  0
 21 29  1  0
 24 30  1  0
 26 31  1  0
 26 32  2  0
 28 33  1  0
 27 34  2  0
 33 34  1  0
 27 35  1  0
 28 36  1  0
 29 36  1  0
 30 37  1  0
 33 38  1  6
 34 39  1  0
 35 40  2  0
 39 40  1  0
 33 41  1  0
 37 42  2  0
 37 43  1  0
 40 44  1  0
 41 45  1  0
 41 46  2  0
 43 47  1  0
 44 48  1  0
 44 49  1  0
 44 50  1  0
 46 51  1  0
 45 52  1  0
 51 52  2  0
 47 53  1  0
 47 54  1  0
 53 55  1  0
 54 56  1  0
 55 57  1  0
 56 57  1  0
M  END
