x0540-x3110-x3113-x0689
     RDKit          3D

 60 65  0  0  0  0  0  0  0  0999 V2000
    7.8870    1.0800   23.3330 N   0  0  0  0  0  0  0  0  0  0  0  0
    8.7240    2.2170   23.8110 C   0  0  0  0  0  0  0  0  0  0  0  0
   10.2420    2.0890   23.5820 C   0  0  0  0  0  0  0  0  0  0  0  0
    7.6550    0.7710   21.9110 C   0  0  0  0  0  0  0  0  0  0  0  0
    8.4990    1.3800   20.9110 O   0  0  0  0  0  0  0  0  0  0  0  0
    6.5380   -0.1000   21.6440 C   0  0  2  0  0  0  0  0  0  0  0  0
    6.8180   -1.5720   22.0600 C   0  0  2  0  0  0  0  0  0  0  0  0
   11.0410    3.3520   23.3820 C   0  0  0  0  0  0  0  0  0  0  0  0
    6.1560    0.3400   20.2450 C   0  0  0  0  0  0  0  0  0  0  0  0
   12.0410    3.2590   22.3750 O   0  0  0  0  0  0  0  0  0  0  0  0
   10.7430    4.4380   24.1420 O   0  0  0  0  0  0  0  0  0  0  0  0
    5.9830   -2.7380   21.2420 C   0  0  0  0  0  0  0  0  0  0  0  0
    5.9420   -1.9270   23.3110 C   0  0  0  0  0  0  0  0  0  0  0  0
    4.9260    1.1990   20.1190 C   0  0  0  0  0  0  0  0  0  0  0  0
    6.8780    0.0090   19.1190 C   0  0  0  0  0  0  0  0  0  0  0  0
    8.3140   -1.6800   22.5440 C   0  0  0  0  0  0  0  0  0  0  0  0
   12.4900    4.5260   21.8730 C   0  0  0  0  0  0  0  0  0  0  0  0
    4.8700   -2.9760   20.6330 O   0  0  0  0  0  0  0  0  0  0  0  0
    6.9050   -3.8320   21.4690 C   0  0  2  0  0  0  0  0  0  0  0  0
    4.0450    1.6180   21.2670 C   0  0  0  0  0  0  0  0  0  0  0  0
    5.2770   -3.3430   23.2360 C   0  0  0  0  0  0  0  0  0  0  0  0
    6.5950    0.4040   17.8630 N   0  0  0  0  0  0  0  0  0  0  0  0
    4.6440    1.6030   18.8390 C   0  0  0  0  0  0  0  0  0  0  0  0
    9.3790   -2.0010   21.7480 C   0  0  0  0  0  0  0  0  0  0  0  0
    8.7060   -1.3880   24.0120 C   0  0  0  0  0  0  0  0  0  0  0  0
   13.4000    5.1920   22.9270 C   0  0  0  0  0  0  0  0  0  0  0  0
    6.9420   -4.7620   20.3170 C   0  0  0  0  0  0  0  0  0  0  0  0
    4.8520    2.0570   22.4890 C   0  0  0  0  0  0  0  0  0  0  0  0
    5.5040    1.2030   17.6720 C   0  0  0  0  0  0  0  0  0  0  0  0
   10.7980   -2.0450   22.2450 C   0  0  0  0  0  0  0  0  0  0  0  0
   10.0300   -1.4390   24.4310 C   0  0  0  0  0  0  0  0  0  0  0  0
    6.1890   -4.5140   22.5850 C   0  0  0  0  0  0  0  0  0  0  0  0
    4.1830    3.1190   23.2030 N   0  0  0  0  0  0  0  0  0  0  0  0
   11.0860   -1.7520   23.5870 C   0  0  0  0  0  0  0  0  0  0  0  0
    5.3500   -5.5360   22.2500 C   0  0  0  0  0  0  0  0  0  0  0  0
    7.2470   -5.1450   23.4260 C   0  0  0  0  0  0  0  0  0  0  0  0
   12.5350   -1.7560   24.0940 C   0  0  0  0  0  0  0  0  0  0  0  0
    2.8940    2.6930   23.6740 C   0  0  0  0  0  0  0  0  0  0  0  0
    4.5430   -5.9710   23.2970 C   0  0  0  0  0  0  0  0  0  0  0  0
    6.6540   -5.2590   24.6290 C   0  0  0  0  0  0  0  0  0  0  0  0
   12.6860   -0.5420   24.7050 C   0  0  0  0  0  0  0  0  0  0  0  0
   13.4370   -2.0940   22.9650 C   0  0  0  0  0  0  0  0  0  0  0  0
   12.7980   -2.9340   25.0170 C   0  0  0  0  0  0  0  0  0  0  0  0
    2.8140    1.6920   24.5910 O   0  0  0  0  0  0  0  0  0  0  0  0
    1.7930    3.2810   23.2040 N   0  0  0  0  0  0  0  0  0  0  0  0
    5.2440   -5.6640   24.5670 N   0  0  0  0  0  0  0  0  0  0  0  0
    4.3730   -5.3560   25.9610 S   0  0  0  0  0  0  0  0  0  0  0  0
    0.5690    3.3510   23.9880 C   0  0  0  0  0  0  0  0  0  0  0  0
    3.5620   -6.5040   26.2790 O   0  0  0  0  0  0  0  0  0  0  0  0
    5.4250   -4.9430   27.0830 O   0  0  0  0  0  0  0  0  0  0  0  0
    0.4650    4.6520   24.4760 C   0  0  0  0  0  0  0  0  0  0  0  0
   -0.4990    3.1600   23.0990 C   0  0  0  0  0  0  0  0  0  0  0  0
    3.2780   -4.0310   25.8200 C   0  0  0  0  0  0  0  0  0  0  0  0
   -0.7560    4.9210   25.0890 C   0  0  0  0  0  0  0  0  0  0  0  0
   -1.7500    3.3330   23.6930 C   0  0  0  0  0  0  0  0  0  0  0  0
    3.8830   -2.3380   26.2380 S   0  0  0  0  0  0  0  0  0  0  0  0
    1.9250   -4.0260   25.4280 C   0  0  0  0  0  0  0  0  0  0  0  0
   -1.9150    4.5180   24.4230 C   0  0  0  0  0  0  0  0  0  0  0  0
    1.3640   -2.7700   25.4530 C   0  0  0  0  0  0  0  0  0  0  0  0
    2.2830   -1.7040   25.8750 C   0  0  0  0  0  0  0  0  0  0  0  0
  1  2  1  0
  2  3  1  0
  1  4  1  0
  4  5  2  0
  6  4  1  6
  6  7  1  0
  3  8  1  0
  6  9  1  0
  8 10  1  0
  8 11  2  0
  7 12  1  0
  7 13  1  0
  9 14  1  0
  9 15  2  0
  7 16  1  1
 10 17  1  0
 12 18  2  0
 12 19  1  0
 14 20  1  0
 13 21  1  0
 15 22  1  0
 14 23  2  0
 16 24  2  0
 16 25  1  0
 17 26  1  0
 19 27  1  6
 20 28  1  0
 22 29  2  0
 23 29  1  0
 24 30  1  0
 25 31  2  0
 19 32  1  0
 32 21  1  0
 28 33  1  0
 30 34  2  0
 31 34  1  0
 32 35  1  0
 32 36  1  0
 34 37  1  0
 33 38  1  0
 35 39  1  0
 36 40  1  0
 37 41  1  0
 37 42  1  0
 37 43  1  0
 38 44  2  0
 38 45  1  0
 39 46  1  0
 40 46  1  0
 46 47  1  0
 45 48  1  0
 47 49  2  0
 47 50  2  0
 48 51  1  0
 48 52  1  0
 47 53  1  0
 51 54  1  0
 52 55  1  0
 53 56  1  0
 53 57  2  0
 54 58  1  0
 55 58  1  0
 57 59  1  0
 56 60  1  0
 59 60  2  0
M  END
