x0540-x0978-x2193-x0731-x3110
     RDKit          3D

 75 80  0  0  0  0  0  0  0  0999 V2000
    8.1680    1.5520   23.3780 N   0  0  0  0  0  0  0  0  0  0  0  0
    9.0620    2.6020   23.8400 C   0  0  0  0  0  0  0  0  0  0  0  0
   10.3960    2.2930   23.6800 C   0  0  0  0  0  0  0  0  0  0  0  0
    8.0790    1.2380   21.9720 C   0  0  0  0  0  0  0  0  0  0  0  0
    8.9460    1.7590   21.0610 O   0  0  0  0  0  0  0  0  0  0  0  0
    6.9220    0.3150   21.6420 C   0  0  2  0  0  0  0  0  0  0  0  0
    7.1270   -1.0530   22.0910 N   0  0  0  0  0  0  0  0  0  0  0  0
   11.1780    3.3950   23.4670 C   0  0  0  0  0  0  0  0  0  0  0  0
    6.4080    0.5400   20.2660 C   0  0  0  0  0  0  0  0  0  0  0  0
   12.0490    3.3120   22.3720 O   0  0  0  0  0  0  0  0  0  0  0  0
   11.1230    4.3910   24.1710 O   0  0  0  0  0  0  0  0  0  0  0  0
    6.4690   -2.0090   21.2970 C   0  0  0  0  0  0  0  0  0  0  0  0
    5.4960    1.5790   20.1280 C   0  0  0  0  0  0  0  0  0  0  0  0
    6.8720   -0.3140   19.1050 C   0  0  0  0  0  0  0  0  0  0  0  0
    8.4430   -1.3210   22.5770 C   0  0  0  0  0  0  0  0  0  0  0  0
   12.4410    4.5100   21.9130 C   0  0  0  0  0  0  0  0  0  0  0  0
    5.1220    2.3870   21.3240 C   0  0  0  0  0  0  0  0  0  0  0  0
    5.9320   -3.0980   21.9730 C   0  0  0  0  0  0  0  0  0  0  0  0
    6.2960    0.0130   17.8170 N   0  0  0  0  0  0  0  0  0  0  0  0
    4.9560    1.8590   18.8850 C   0  0  0  0  0  0  0  0  0  0  0  0
    9.4590   -1.7750   21.7560 C   0  0  0  0  0  0  0  0  0  0  0  0
    8.7050   -1.0920   23.9220 C   0  0  0  0  0  0  0  0  0  0  0  0
   13.5220    5.3040   22.5760 C   0  0  0  0  0  0  0  0  0  0  0  0
    4.2740    1.7220   22.1710 C   0  0  0  0  0  0  0  0  0  0  0  0
    5.3190    1.1360   17.7860 C   0  0  0  0  0  0  0  0  0  0  0  0
   10.7410   -1.9830   22.2390 C   0  0  0  0  0  0  0  0  0  0  0  0
    9.9820   -1.2920   24.4350 C   0  0  0  0  0  0  0  0  0  0  0  0
    6.4590   -4.5150   21.5220 C   0  0  1  0  0  0  0  0  0  0  0  0
    4.0680    2.4260   23.4210 N   0  0  0  0  0  0  0  0  0  0  0  0
    6.7980   -4.2050   20.0400 C   0  0  0  0  0  0  0  0  0  0  0  0
   11.0260   -1.7330   23.5920 C   0  0  0  0  0  0  0  0  0  0  0  0
    7.4230   -4.7320   22.4770 C   0  0  0  0  0  0  0  0  0  0  0  0
    5.5410   -5.7840   21.7300 C   0  0  0  0  0  0  0  0  0  0  0  0
   12.4340   -1.8900   24.1860 C   0  0  0  0  0  0  0  0  0  0  0  0
    2.8290    2.3780   23.8920 C   0  0  0  0  0  0  0  0  0  0  0  0
    5.6740   -3.4930   19.2740 C   0  0  0  0  0  0  0  0  0  0  0  0
    6.9040   -4.9770   23.7730 C   0  0  0  0  0  0  0  0  0  0  0  0
    4.6870   -5.6340   22.9960 C   0  0  1  0  0  0  0  0  0  0  0  0
   12.6860   -0.5240   24.8170 C   0  0  0  0  0  0  0  0  0  0  0  0
   13.4470   -2.0670   23.0600 C   0  0  0  0  0  0  0  0  0  0  0  0
   12.7570   -2.9690   25.2270 C   0  0  0  0  0  0  0  0  0  0  0  0
    2.5530    1.6000   24.7910 O   0  0  0  0  0  0  0  0  0  0  0  0
    1.7890    3.2590   23.3230 N   0  0  0  0  0  0  0  0  0  0  0  0
    3.3530   -6.4990   23.1940 C   0  0  2  0  0  0  0  0  0  0  0  0
    5.5100   -5.1240   24.0000 C   0  0  2  0  0  0  0  0  0  0  0  0
    2.1180   -5.6240   23.1910 N   0  0  0  0  0  0  0  0  0  0  0  0
    3.3110   -7.3240   24.3140 C   0  0  1  0  0  0  0  0  0  0  0  0
    4.9960   -3.7740   23.8990 O   0  0  0  0  0  0  0  0  0  0  0  0
    5.2330   -5.3190   25.8580 S   0  0  2  0  0  0  0  0  0  0  0  0
    0.5160    3.3370   23.8950 C   0  0  0  0  0  0  0  0  0  0  0  0
    2.2650   -8.2490   24.4340 C   0  0  0  0  0  0  0  0  0  0  0  0
    4.3580   -7.9380   24.3510 O   0  0  0  0  0  0  0  0  0  0  0  0
    1.0290   -6.2470   22.6200 C   0  0  0  0  0  0  0  0  0  0  0  0
    6.4800   -4.7750   26.8610 N   0  0  0  0  0  0  0  0  0  0  0  0
    4.7530   -6.6140   26.2790 O   0  0  0  0  0  0  0  0  0  0  0  0
    0.4100    4.7560   24.4670 C   0  0  0  0  0  0  0  0  0  0  0  0
   -0.6040    3.1050   23.1150 C   0  0  0  0  0  0  0  0  0  0  0  0
    4.0300   -4.1680   26.0190 C   0  0  0  0  0  0  0  0  0  0  0  0
    1.0700   -7.3150   22.0200 O   0  0  0  0  0  0  0  0  0  0  0  0
   -0.1930   -5.5790   22.7470 C   0  0  0  0  0  0  0  0  0  0  0  0
   -0.8120    4.9530   25.1070 C   0  0  0  0  0  0  0  0  0  0  0  0
   -1.8380    3.3490   23.7050 C   0  0  0  0  0  0  0  0  0  0  0  0
    7.9040   -5.0620   26.8240 C   0  0  1  0  0  0  0  0  0  0  0  0
    2.6810   -4.4320   25.7030 C   0  0  0  0  0  0  0  0  0  0  0  0
    4.3730   -2.7110   26.5140 C   0  0  0  0  0  0  0  0  0  0  0  0
   -1.9570    4.5190   24.4580 C   0  0  0  0  0  0  0  0  0  0  0  0
    8.1990   -6.1340   25.9260 N   0  0  0  0  0  0  0  0  0  0  0  0
    8.7300   -3.8260   26.6150 C   0  0  0  0  0  0  0  0  0  0  0  0
    1.5980   -3.4090   25.8170 C   0  0  0  0  0  0  0  0  0  0  0  0
    3.2320   -1.6950   26.6180 C   0  0  0  0  0  0  0  0  0  0  0  0
    9.1800   -3.5430   25.2920 N   0  0  0  0  0  0  0  0  0  0  0  0
    9.4740   -5.9110   25.2240 C   0  0  0  0  0  0  0  0  0  0  0  0
    1.9200   -2.0150   26.2920 C   0  0  0  0  0  0  0  0  0  0  0  0
    0.8290   -0.9990   26.4120 C   0  0  0  0  0  0  0  0  0  0  0  0
    9.7550   -4.6930   24.6390 C   0  0  0  0  0  0  0  0  0  0  0  0
  1  2  1  0
  2  3  1  0
  1  4  1  0
  4  5  2  0
  6  4  1  6
  6  7  1  0
  3  8  1  0
  6  9  1  0
  8 10  1  0
  8 11  2  0
  7 12  1  0
  9 13  1  0
  9 14  2  0
  7 15  1  0
 10 16  1  0
 13 17  1  0
 12 18  1  0
 14 19  1  0
 13 20  2  0
 15 21  2  0
 15 22  1  0
 16 23  1  0
 17 24  1  0
 19 25  2  0
 20 25  1  0
 21 26  1  0
 22 27  2  0
 28 18  1  1
 24 29  1  0
 28 30  1  0
 26 31  2  0
 27 31  1  0
 28 32  1  0
 28 33  1  0
 31 34  1  0
 29 35  1  0
 30 36  2  3
 32 37  1  0
 38 33  1  6
 34 39  1  0
 34 40  1  0
 34 41  1  0
 35 42  2  0
 35 43  1  0
 38 44  1  0
 37 45  1  0
 38 45  1  0
 44 46  1  1
 44 47  1  0
 45 48  1  1
 45 49  1  0
 43 50  1  0
 47 51  1  6
 47 52  1  0
 46 53  1  0
 49 54  2  0
 49 55  2  0
 50 56  1  0
 50 57  1  0
 49 58  1  1
 53 59  2  0
 53 60  1  0
 56 61  1  0
 57 62  1  0
 63 54  1  6
 58 64  2  0
 58 65  1  0
 61 66  1  0
 62 66  1  0
 63 67  1  0
 63 68  1  0
 64 69  1  0
 65 70  2  0
 68 71  1  0
 67 72  1  0
 69 73  2  0
 70 73  1  0
 73 74  1  0
 71 75  1  0
 72 75  1  0
M  END
