x0540-x1458
     RDKit          3D

 36 38  0  0  0  0  0  0  0  0999 V2000
    7.2170   -3.4740   26.6940 N   0  0  0  0  0  0  0  0  0  0  0  0
    7.7130   -4.6050   27.3670 C   0  0  0  0  0  0  0  0  0  0  0  0
    8.8350   -5.3150   26.6340 C   0  0  0  0  0  0  0  0  0  0  0  0
    7.8140   -2.1090   26.9040 C   0  0  0  0  0  0  0  0  0  0  0  0
    6.2580   -3.6160   25.5970 C   0  0  0  0  0  0  0  0  0  0  0  0
    5.0410   -3.4740   25.7520 O   0  0  0  0  0  0  0  0  0  0  0  0
    6.6200   -5.5970   27.7480 C   0  0  0  0  0  0  0  0  0  0  0  0
    6.8130   -3.9420   24.1930 C   0  0  2  0  0  0  0  0  0  0  0  0
    7.0020   -2.8830   23.2960 C   0  0  2  0  0  0  0  0  0  0  0  0
    6.0200   -5.0230   23.7640 C   0  0  0  0  0  0  0  0  0  0  0  0
    5.7170   -2.0210   23.0510 C   0  0  0  0  0  0  0  0  0  0  0  0
    7.6230   -3.3120   22.1560 C   0  0  0  0  0  0  0  0  0  0  0  0
    6.4600   -5.4910   22.3040 C   0  0  0  0  0  0  0  0  0  0  0  0
    6.1020   -0.6540   22.8960 C   0  0  0  0  0  0  0  0  0  0  0  0
    6.7240   -4.2940   21.4970 N   0  0  0  0  0  0  0  0  0  0  0  0
    6.2370   -4.0900   20.2090 C   0  0  0  0  0  0  0  0  0  0  0  0
    5.1030    0.2030   22.0780 C   0  0  1  0  0  0  0  0  0  0  0  0
    5.1730   -4.5730   19.8720 O   0  0  0  0  0  0  0  0  0  0  0  0
    7.1200   -3.3040   19.2610 C   0  0  0  0  0  0  0  0  0  0  0  0
    5.1340    1.6040   22.6120 C   0  0  0  0  0  0  0  0  0  0  0  0
    5.4310    0.3090   20.6400 C   0  0  0  0  0  0  0  0  0  0  0  0
    3.9550    2.4790   22.5060 N   0  0  0  0  0  0  0  0  0  0  0  0
    6.6780   -0.3750   20.0520 C   0  0  0  0  0  0  0  0  0  0  0  0
    4.6760    1.0160   19.7110 C   0  0  0  0  0  0  0  0  0  0  0  0
    2.8440    2.3770   23.5060 C   0  0  0  0  0  0  0  0  0  0  0  0
    6.9650   -0.2580   18.6790 C   0  0  0  0  0  0  0  0  0  0  0  0
    5.0450    1.0890   18.3230 C   0  0  0  0  0  0  0  0  0  0  0  0
    2.8080    1.4360   24.5780 O   0  0  0  0  0  0  0  0  0  0  0  0
    1.9110    3.2730   23.2510 N   0  0  0  0  0  0  0  0  0  0  0  0
    6.1390    0.4760   17.8390 N   0  0  0  0  0  0  0  0  0  0  0  0
    0.7210    3.3680   24.0990 C   0  0  0  0  0  0  0  0  0  0  0  0
    0.5840    4.6730   24.5810 C   0  0  0  0  0  0  0  0  0  0  0  0
   -0.5020    2.8120   23.3600 C   0  0  0  0  0  0  0  0  0  0  0  0
   -0.7240    4.9300   25.0360 C   0  0  0  0  0  0  0  0  0  0  0  0
   -1.7710    3.3170   23.6130 C   0  0  0  0  0  0  0  0  0  0  0  0
   -1.8300    4.5320   24.2760 C   0  0  0  0  0  0  0  0  0  0  0  0
  1  2  1  0
  2  3  1  0
  1  4  1  0
  1  5  1  0
  5  6  2  0
  2  7  1  0
  8  5  1  1
  8  9  1  0
  8 10  1  0
  9 11  1  6
  9 12  1  0
 10 13  1  0
 11 14  1  0
 12 15  1  0
 13 15  1  0
 15 16  1  0
 17 14  1  1
 16 18  2  0
 16 19  1  0
 17 20  1  0
 17 21  1  0
 20 22  1  0
 21 23  2  0
 21 24  1  0
 22 25  1  0
 23 26  1  0
 24 27  2  0
 25 28  2  0
 25 29  1  0
 26 30  2  0
 27 30  1  0
 29 31  1  0
 31 32  1  0
 31 33  1  0
 32 34  1  0
 33 35  1  0
 34 36  1  0
 35 36  1  0
M  END
