x0540-x3110-x1493-x2929
     RDKit          3D

 81 88  0  0  0  0  0  0  0  0999 V2000
    8.2210    0.8980   23.0780 N   0  0  0  0  0  0  0  0  0  0  0  0
    9.0770    2.0370   23.5710 C   0  0  0  0  0  0  0  0  0  0  0  0
   10.4940    1.9790   23.3780 C   0  0  0  0  0  0  0  0  0  0  0  0
    7.9650    0.7150   21.7060 C   0  0  0  0  0  0  0  0  0  0  0  0
    8.5960    1.7150   20.8850 O   0  0  0  0  0  0  0  0  0  0  0  0
    7.1540   -0.3790   21.1450 C   0  0  1  0  0  0  0  0  0  0  0  0
    7.0570   -1.6980   21.7110 C   0  0  2  0  0  0  0  0  0  0  0  0
   11.3040    3.1510   23.2620 C   0  0  0  0  0  0  0  0  0  0  0  0
    6.3240    0.2100   20.0260 C   0  0  0  0  0  0  0  0  0  0  0  0
   12.3240    3.2020   22.5220 O   0  0  0  0  0  0  0  0  0  0  0  0
   10.8840    4.0650   23.9710 O   0  0  0  0  0  0  0  0  0  0  0  0
    6.1760   -2.8920   21.0740 C   0  0  0  0  0  0  0  0  0  0  0  0
    6.1120   -2.2140   22.8220 C   0  0  0  0  0  0  0  0  0  0  0  0
    5.0740    0.7630   20.1990 C   0  0  0  0  0  0  0  0  0  0  0  0
    6.8520    0.2050   18.7740 C   0  0  0  0  0  0  0  0  0  0  0  0
    8.4530   -1.7890   22.4260 C   0  0  0  0  0  0  0  0  0  0  0  0
   13.2060    4.2820   22.5750 C   0  0  0  0  0  0  0  0  0  0  0  0
    4.9370   -3.0390   20.5970 O   0  0  0  0  0  0  0  0  0  0  0  0
    6.8180   -4.1380   21.3010 C   0  0  2  0  0  0  0  0  0  0  0  0
    4.3590    0.8090   21.5310 C   0  0  0  0  0  0  0  0  0  0  0  0
    6.2760    0.7110   17.6980 N   0  0  0  0  0  0  0  0  0  0  0  0
    4.4510    1.3070   19.0770 C   0  0  0  0  0  0  0  0  0  0  0  0
    9.5980   -1.4350   21.7400 C   0  0  0  0  0  0  0  0  0  0  0  0
    8.6490   -2.1870   23.7640 C   0  0  0  0  0  0  0  0  0  0  0  0
    6.2610   -3.8310   22.7120 C   0  0  1  0  0  0  0  0  0  0  0  0
   14.7200    4.2010   22.2340 C   0  0  0  0  0  0  0  0  0  0  0  0
    8.2960   -4.2900   20.9890 C   0  0  0  0  0  0  0  0  0  0  0  0
    4.9970    1.6990   22.3860 C   0  0  0  0  0  0  0  0  0  0  0  0
    5.0730    1.2820   17.8230 C   0  0  0  0  0  0  0  0  0  0  0  0
   10.9690   -1.4730   22.3800 C   0  0  0  0  0  0  0  0  0  0  0  0
    9.9120   -2.2260   24.3750 C   0  0  0  0  0  0  0  0  0  0  0  0
    7.0040   -4.5060   23.8910 C   0  0  0  0  0  0  0  0  0  0  0  0
    4.9010   -4.3960   22.5730 N   0  0  0  0  0  0  0  0  0  0  0  0
    4.1460    2.7560   22.9280 N   0  0  0  0  0  0  0  0  0  0  0  0
   15.7600    4.9130   23.0850 C   0  0  0  0  0  0  0  0  0  0  0  0
   11.0620   -1.8710   23.6970 C   0  0  0  0  0  0  0  0  0  0  0  0
    6.1740   -5.5620   24.4170 N   0  0  0  0  0  0  0  0  0  0  0  0
    4.8870   -5.8440   22.3600 C   0  0  0  0  0  0  0  0  0  0  0  0
   12.4520   -1.8700   24.3110 C   0  0  0  0  0  0  0  0  0  0  0  0
    2.9210    2.3640   23.6160 C   0  0  0  0  0  0  0  0  0  0  0  0
   17.1690    4.5950   23.3100 C   0  0  0  0  0  0  0  0  0  0  0  0
    6.1330   -5.7180   25.7900 C   0  0  0  0  0  0  0  0  0  0  0  0
    5.7410   -6.5290   23.3930 C   0  0  0  0  0  0  0  0  0  0  0  0
   12.6220   -0.7110   24.9620 C   0  0  0  0  0  0  0  0  0  0  0  0
   13.4850   -1.9700   23.1940 C   0  0  0  0  0  0  0  0  0  0  0  0
   12.7500   -3.0100   25.2360 C   0  0  0  0  0  0  0  0  0  0  0  0
    2.8630    1.4880   24.4760 O   0  0  0  0  0  0  0  0  0  0  0  0
    1.8820    3.1100   23.1610 N   0  0  0  0  0  0  0  0  0  0  0  0
   18.1540    5.6630   23.5810 C   0  0  0  0  0  0  0  0  0  0  0  0
    4.9270   -6.1490   26.3540 C   0  0  0  0  0  0  0  0  0  0  0  0
    7.1150   -5.5120   26.5000 O   0  0  0  0  0  0  0  0  0  0  0  0
   19.3920    5.6500   24.2840 C   0  0  0  0  0  0  0  0  0  0  0  0
    0.6750    3.2690   23.9730 C   0  0  0  0  0  0  0  0  0  0  0  0
   20.4700    6.1810   23.5490 C   0  0  0  0  0  0  0  0  0  0  0  0
    0.6000    4.6910   24.5390 C   0  0  0  0  0  0  0  0  0  0  0  0
   -0.5980    2.9280   23.1710 C   0  0  0  0  0  0  0  0  0  0  0  0
   21.5120    6.5690   24.5590 C   0  0  0  0  0  0  0  0  0  0  0  0
   -0.6280    4.9510   25.1250 C   0  0  0  0  0  0  0  0  0  0  0  0
   -1.7820    3.3030   23.7950 C   0  0  0  0  0  0  0  0  0  0  0  0
   22.0270    5.3420   25.2400 N   0  0  0  0  0  0  0  0  0  0  0  0
   -1.8710    4.5920   24.3100 C   0  0  0  0  0  0  0  0  0  0  0  0
   22.9920    4.5470   24.6930 C   0  0  0  0  0  0  0  0  0  0  0  0
   23.5840    4.7560   23.5070 N   0  0  0  0  0  0  0  0  0  0  0  0
   23.3800    3.3190   25.5560 C   0  0  1  0  0  0  0  0  0  0  0  0
   23.8740    2.1680   24.6650 C   0  0  0  0  0  0  0  0  0  0  0  0
   24.3800    3.3660   26.7350 C   0  0  1  0  0  0  0  0  0  0  0  0
   24.7550    1.3340   25.5000 N   0  0  0  0  0  0  0  0  0  0  0  0
   25.1310    2.0330   26.7310 C   0  0  0  0  0  0  0  0  0  0  0  0
   25.1800    4.5340   27.2580 C   0  0  0  0  0  0  0  0  0  0  0  0
   24.5240   -0.0670   25.6270 C   0  0  0  0  0  0  0  0  0  0  0  0
   25.2230    4.6660   28.6670 C   0  0  0  0  0  0  0  0  0  0  0  0
   25.8730    5.4800   26.4980 C   0  0  0  0  0  0  0  0  0  0  0  0
   23.2320   -0.6240   25.0740 C   0  0  0  0  0  0  0  0  0  0  0  0
   25.9270    5.6940   29.2880 C   0  0  0  0  0  0  0  0  0  0  0  0
   26.5810    6.5140   27.1200 C   0  0  0  0  0  0  0  0  0  0  0  0
   22.1790   -0.9480   25.9220 C   0  0  0  0  0  0  0  0  0  0  0  0
   23.0330   -0.8480   23.7050 C   0  0  0  0  0  0  0  0  0  0  0  0
   26.6090    6.6220   28.5120 C   0  0  0  0  0  0  0  0  0  0  0  0
   20.9950   -1.4530   25.5160 N   0  0  0  0  0  0  0  0  0  0  0  0
   21.8260   -1.3690   23.2550 C   0  0  0  0  0  0  0  0  0  0  0  0
   20.8490   -1.6500   24.1930 C   0  0  0  0  0  0  0  0  0  0  0  0
  1  2  1  0
  2  3  1  0
  1  4  1  0
  4  5  2  0
  6  4  1  1
  6  7  1  0
  3  8  1  0
  6  9  1  0
  8 10  1  0
  8 11  2  0
  7 12  1  0
  7 13  1  0
  9 14  1  0
  9 15  2  0
  7 16  1  1
 10 17  1  0
 12 18  2  0
 12 19  1  0
 14 20  1  0
 15 21  1  0
 14 22  2  0
 16 23  2  0
 16 24  1  0
 25 13  1  1
 19 25  1  0
 17 26  1  0
 19 27  1  1
 20 28  1  0
 21 29  2  0
 22 29  1  0
 23 30  1  0
 24 31  2  0
 25 32  1  0
 25 33  1  0
 28 34  1  0
 26 35  1  0
 30 36  2  0
 31 36  1  0
 32 37  1  0
 33 38  1  0
 36 39  1  0
 34 40  1  0
 35 41  1  0
 37 42  1  0
 37 43  1  0
 38 43  1  0
 39 44  1  0
 39 45  1  0
 39 46  1  0
 40 47  2  0
 40 48  1  0
 41 49  1  0
 42 50  1  0
 42 51  2  0
 49 52  1  0
 48 53  1  0
 52 54  1  0
 53 55  1  0
 53 56  1  0
 54 57  1  0
 55 58  1  0
 56 59  1  0
 57 60  1  0
 58 61  1  0
 59 61  1  0
 60 62  2  3
 62 63  1  0
 64 62  1  6
 64 65  1  0
 64 66  1  0
 65 67  1  0
 66 68  1  0
 67 68  1  0
 66 69  1  6
 67 70  1  0
 69 71  2  0
 69 72  1  0
 70 73  1  0
 71 74  1  0
 72 75  2  0
 73 76  2  0
 73 77  1  0
 74 78  2  0
 75 78  1  0
 76 79  1  0
 77 80  2  0
 79 81  2  0
 80 81  1  0
M  END
