x0540-x2562
     RDKit          3D

 34 37  0  0  0  0  0  0  0  0999 V2000
    8.3010   -0.0850   21.3630 C   0  0  0  0  0  0  0  0  0  0  0  0
    7.0270   -0.8010   21.0600 C   0  0  0  0  0  0  0  0  0  0  0  0
    6.2380    0.0090   20.0050 C   0  0  0  0  0  0  0  0  0  0  0  0
    8.3990    1.2870   20.9230 O   0  0  0  0  0  0  0  0  0  0  0  0
    9.3320   -0.8300   22.0770 N   0  0  0  0  0  0  0  0  0  0  0  0
   10.5830   -0.3270   22.3540 C   0  0  0  0  0  0  0  0  0  0  0  0
    6.8520    0.0900   18.6590 C   0  0  0  0  0  0  0  0  0  0  0  0
    5.0370    0.6500   20.2460 C   0  0  0  0  0  0  0  0  0  0  0  0
   11.7680   -1.2610   22.2320 C   0  0  0  0  0  0  0  0  0  0  0  0
   10.7610    1.0000   22.7280 C   0  0  0  0  0  0  0  0  0  0  0  0
    4.3670    0.6150   21.4990 C   0  0  0  0  0  0  0  0  0  0  0  0
    4.4400    1.3710   19.2300 N   0  0  0  0  0  0  0  0  0  0  0  0
    6.3230    0.7660   17.6420 N   0  0  0  0  0  0  0  0  0  0  0  0
   13.0780   -0.5630   22.5420 C   0  0  0  0  0  0  0  0  0  0  0  0
   11.9880    1.5510   22.9950 C   0  0  0  0  0  0  0  0  0  0  0  0
   12.0380    2.8730   23.3580 O   0  0  0  0  0  0  0  0  0  0  0  0
    4.9700    1.5910   22.5050 C   0  0  0  0  0  0  0  0  0  0  0  0
    5.0520    1.4230   18.0180 C   0  0  0  0  0  0  0  0  0  0  0  0
   13.1360    0.7850   22.8980 C   0  0  0  0  0  0  0  0  0  0  0  0
    4.2670    2.5040   22.6830 N   0  0  0  0  0  0  0  0  0  0  0  0
   12.9550    3.7550   22.6960 C   0  0  1  0  0  0  0  0  0  0  0  0
    3.0050    2.3710   23.4660 C   0  0  0  0  0  0  0  0  0  0  0  0
   12.2930    4.8050   22.0160 N   0  0  0  0  0  0  0  0  0  0  0  0
   13.5020    4.7780   23.3640 C   0  0  0  0  0  0  0  0  0  0  0  0
    2.9250    1.5200   24.3520 O   0  0  0  0  0  0  0  0  0  0  0  0
    1.8470    3.2610   23.1880 N   0  0  0  0  0  0  0  0  0  0  0  0
   13.4130    5.7470   22.2940 C   0  0  2  0  0  0  0  0  0  0  0  0
   13.1380    6.8910   22.5990 O   0  0  0  0  0  0  0  0  0  0  0  0
    0.6760    3.3310   24.0800 C   0  0  0  0  0  0  0  0  0  0  0  0
    0.5330    4.6190   24.5750 C   0  0  0  0  0  0  0  0  0  0  0  0
   -0.5450    2.7190   23.3690 C   0  0  0  0  0  0  0  0  0  0  0  0
   -0.7350    4.8360   25.1590 C   0  0  0  0  0  0  0  0  0  0  0  0
   -1.7140    3.3360   23.8270 C   0  0  0  0  0  0  0  0  0  0  0  0
   -1.5980    4.7190   24.0840 C   0  0  0  0  0  0  0  0  0  0  0  0
  1  2  1  0
  2  3  1  0
  1  4  2  0
  1  5  1  0
  5  6  1  0
  3  7  2  0
  3  8  1  0
  6  9  2  0
  6 10  1  0
  8 11  1  0
  8 12  2  0
  7 13  1  0
  9 14  1  0
 10 15  2  0
 15 16  1  0
 11 17  1  0
 12 18  1  0
 13 18  2  0
 14 19  2  0
 15 19  1  0
 17 20  1  0
 21 16  1  1
 20 22  1  0
 21 23  1  0
 21 24  1  0
 22 25  2  0
 22 26  1  0
 23 27  1  0
 24 27  1  0
 27 28  1  1
 26 29  1  0
 29 30  1  0
 29 31  1  0
 30 32  1  0
 31 33  1  0
 32 34  1  0
 33 34  1  0
M  END
