x0540-x2608
     RDKit          3D

 28 30  0  0  0  0  0  0  0  0999 V2000
    2.8180    1.3930   24.6210 O   0  0  0  0  0  0  0  0  0  0  0  0
    2.9090    2.3570   23.5530 C   0  0  0  0  0  0  0  0  0  0  0  0
    4.1230    2.5520   22.7340 N   0  0  0  0  0  0  0  0  0  0  0  0
    1.8800    3.2180   23.1600 N   0  0  0  0  0  0  0  0  0  0  0  0
    5.1120    1.5790   22.5960 C   0  0  0  0  0  0  0  0  0  0  0  0
    0.6680    3.4170   23.9810 C   0  0  0  0  0  0  0  0  0  0  0  0
    4.6400    0.3830   21.7790 C   0  0  0  0  0  0  0  0  0  0  0  0
    0.5930    4.6360   24.6770 C   0  0  0  0  0  0  0  0  0  0  0  0
   -0.4370    3.0730   23.2230 C   0  0  0  0  0  0  0  0  0  0  0  0
    5.1750    0.4320   20.3570 C   0  0  0  0  0  0  0  0  0  0  0  0
   -0.7200    4.9420   25.1170 C   0  0  0  0  0  0  0  0  0  0  0  0
   -1.6890    3.3110   23.7890 C   0  0  0  0  0  0  0  0  0  0  0  0
    6.3120   -0.3140   20.0180 C   0  0  0  0  0  0  0  0  0  0  0  0
    4.5360    1.2620   19.2840 C   0  0  0  0  0  0  0  0  0  0  0  0
   -1.7550    4.6190   24.2370 C   0  0  0  0  0  0  0  0  0  0  0  0
    7.0020   -1.1380   21.0140 N   0  0  0  0  0  0  0  0  0  0  0  0
    6.7480   -0.2020   18.6470 C   0  0  0  0  0  0  0  0  0  0  0  0
    5.1010    1.2450   18.0340 C   0  0  0  0  0  0  0  0  0  0  0  0
    8.0720   -0.5050   21.5140 C   0  0  0  0  0  0  0  0  0  0  0  0
    6.1830    0.5380   17.6780 N   0  0  0  0  0  0  0  0  0  0  0  0
    8.6770   -1.2440   22.4050 N   0  0  0  0  0  0  0  0  0  0  0  0
    8.4080    0.6270   21.1570 O   0  0  0  0  0  0  0  0  0  0  0  0
    9.9990   -0.9010   22.6520 C   0  0  0  0  0  0  0  0  0  0  0  0
   11.1090   -1.6530   22.9630 C   0  0  0  0  0  0  0  0  0  0  0  0
   10.4450    0.7640   22.5690 S   0  0  0  0  0  0  0  0  0  0  0  0
   12.1200    0.5170   22.9080 C   0  0  0  0  0  0  0  0  0  0  0  0
   12.3340   -0.8220   23.1110 C   0  0  0  0  0  0  0  0  0  0  0  0
   12.9900    1.6600   22.9300 C   0  0  0  0  0  0  0  0  0  0  0  0
  1  2  2  0
  2  3  1  0
  2  4  1  0
  3  5  1  0
  4  6  1  0
  5  7  1  0
  6  8  1  0
  6  9  1  0
  7 10  1  0
  8 11  1  0
  9 12  1  0
 10 13  1  0
 10 14  2  0
 11 15  1  0
 12 15  1  0
 13 16  1  0
 13 17  2  0
 14 18  1  0
 16 19  1  0
 17 20  1  0
 18 20  2  0
 19 21  1  0
 19 22  2  0
 21 23  1  0
 23 24  2  0
 23 25  1  0
 25 26  1  0
 24 27  1  0
 26 27  2  0
 26 28  1  0
M  END
