x0540-x3113-x1402-x1311
     RDKit          3D

 64 69  0  0  0  0  0  0  0  0999 V2000
    6.8350   -1.4470   22.0810 N   0  0  0  0  0  0  0  0  0  0  0  0
    6.1640   -2.6640   21.5700 C   0  0  0  0  0  0  0  0  0  0  0  0
    4.8850   -3.0760   21.2610 O   0  0  0  0  0  0  0  0  0  0  0  0
    6.6620   -0.0570   21.6520 C   0  0  1  0  0  0  0  0  0  0  0  0
    8.1790   -1.5430   22.6300 C   0  0  0  0  0  0  0  0  0  0  0  0
    7.2900   -3.5850   21.4100 C   0  0  2  0  0  0  0  0  0  0  0  0
    7.8650    0.8730   21.9410 C   0  0  0  0  0  0  0  0  0  0  0  0
    6.1860    0.2750   20.2450 C   0  0  0  0  0  0  0  0  0  0  0  0
    9.2800   -1.8980   21.8190 C   0  0  0  0  0  0  0  0  0  0  0  0
    8.4170   -1.2620   23.9660 C   0  0  0  0  0  0  0  0  0  0  0  0
    7.1090   -4.5200   20.3000 C   0  0  0  0  0  0  0  0  0  0  0  0
    8.0930    1.2540   23.2370 N   0  0  0  0  0  0  0  0  0  0  0  0
    8.5980    1.3150   21.0390 O   0  0  0  0  0  0  0  0  0  0  0  0
    4.9830    0.9530   20.1850 C   0  0  0  0  0  0  0  0  0  0  0  0
    6.9260   -0.0590   19.1150 C   0  0  0  0  0  0  0  0  0  0  0  0
   10.7160   -1.9920   22.3400 C   0  0  0  0  0  0  0  0  0  0  0  0
    9.8180   -1.3130   24.5800 C   0  0  0  0  0  0  0  0  0  0  0  0
    7.7090   -4.2110   22.7300 C   0  0  0  0  0  0  0  0  0  0  0  0
    8.9260    2.3320   23.6040 C   0  0  0  0  0  0  0  0  0  0  0  0
    4.1820    1.2900   21.4000 C   0  0  0  0  0  0  0  0  0  0  0  0
    6.3900    0.3690   17.8090 N   0  0  0  0  0  0  0  0  0  0  0  0
    4.4600    1.3580   18.9910 C   0  0  0  0  0  0  0  0  0  0  0  0
   10.9580   -1.7090   23.6630 C   0  0  0  0  0  0  0  0  0  0  0  0
    9.0850   -4.4220   22.9050 C   0  0  0  0  0  0  0  0  0  0  0  0
    6.7960   -4.6300   23.8850 C   0  0  0  0  0  0  0  0  0  0  0  0
   10.2180    2.1660   22.7460 C   0  0  0  0  0  0  0  0  0  0  0  0
   12.2980   -1.7290   24.3430 C   0  0  0  0  0  0  0  0  0  0  0  0
    4.8410    2.1310   22.3180 C   0  0  0  0  0  0  0  0  0  0  0  0
    5.1460    1.0820   17.8430 C   0  0  0  0  0  0  0  0  0  0  0  0
    9.6400   -4.9910   24.0170 C   0  0  0  0  0  0  0  0  0  0  0  0
    7.4910   -5.2660   25.0950 C   0  0  0  0  0  0  0  0  0  0  0  0
    5.2890   -4.4820   23.8760 C   0  0  0  0  0  0  0  0  0  0  0  0
   11.4870    2.7460   23.3580 C   0  0  0  0  0  0  0  0  0  0  0  0
   13.3710   -2.1750   23.5820 C   0  0  0  0  0  0  0  0  0  0  0  0
   12.9200   -2.9660   25.0240 C   0  0  0  0  0  0  0  0  0  0  0  0
   12.6930   -0.4290   24.8940 C   0  0  0  0  0  0  0  0  0  0  0  0
    4.0470    3.0790   22.7020 N   0  0  0  0  0  0  0  0  0  0  0  0
    8.9680   -5.4870   25.2080 C   0  0  0  0  0  0  0  0  0  0  0  0
    4.6820   -5.7170   24.5000 C   0  0  2  0  0  0  0  0  0  0  0  0
   11.6400    4.1030   22.9160 O   0  0  0  0  0  0  0  0  0  0  0  0
    2.8460    2.6400   23.4650 C   0  0  0  0  0  0  0  0  0  0  0  0
    4.6450   -5.5990   26.2990 S   0  0  0  0  0  0  0  0  0  0  0  0
    5.1910   -6.7310   23.7430 C   0  0  0  0  0  0  0  0  0  0  0  0
    2.8880   -6.2680   24.3050 S   0  0  1  0  0  0  0  0  0  0  0  0
   13.0170    4.5010   22.7830 C   0  0  0  0  0  0  0  0  0  0  0  0
    2.8580    1.7990   24.3690 O   0  0  0  0  0  0  0  0  0  0  0  0
    1.7170    3.3230   23.0050 N   0  0  0  0  0  0  0  0  0  0  0  0
    3.6670   -6.5680   26.7200 O   0  0  0  0  0  0  0  0  0  0  0  0
    2.0300   -5.1290   24.2810 O   0  0  0  0  0  0  0  0  0  0  0  0
    5.9130   -5.4520   26.9590 O   0  0  0  0  0  0  0  0  0  0  0  0
    4.3420   -6.6750   22.5070 C   0  0  0  0  0  0  0  0  0  0  0  0
    3.0520   -6.4960   22.7030 C   0  0  0  0  0  0  0  0  0  0  0  0
    3.8660   -4.0150   26.3800 C   0  0  0  0  0  0  0  0  0  0  0  0
    0.5560    3.4690   23.7550 C   0  0  0  0  0  0  0  0  0  0  0  0
    2.1450   -3.7910   26.3150 S   0  0  0  0  0  0  0  0  0  0  0  0
    4.5110   -2.6550   26.4810 C   0  0  0  0  0  0  0  0  0  0  0  0
    0.4820    4.6130   24.5650 C   0  0  0  0  0  0  0  0  0  0  0  0
   -0.6370    3.2640   23.0580 C   0  0  0  0  0  0  0  0  0  0  0  0
    3.5810   -1.6480   26.4830 C   0  0  0  0  0  0  0  0  0  0  0  0
    2.2550   -2.0890   26.3940 C   0  0  0  0  0  0  0  0  0  0  0  0
   -0.7140    4.8840   25.2410 C   0  0  0  0  0  0  0  0  0  0  0  0
   -1.7840    3.3770   23.8230 C   0  0  0  0  0  0  0  0  0  0  0  0
    0.8270   -1.1440   26.3590 Cl  0  0  0  0  0  0  0  0  0  0  0  0
   -1.8550    4.6180   24.4550 C   0  0  0  0  0  0  0  0  0  0  0  0
  1  2  1  0
  2  3  2  0
  1  4  1  0
  1  5  1  0
  2  6  1  0
  4  7  1  6
  4  8  1  0
  5  9  2  0
  5 10  1  0
  6 11  1  6
  7 12  1  0
  7 13  2  0
  8 14  1  0
  8 15  2  0
  9 16  1  0
 10 17  2  0
  6 18  1  0
 12 19  1  0
 14 20  1  0
 15 21  1  0
 14 22  2  0
 16 23  2  0
 17 23  1  0
 18 24  2  0
 18 25  1  0
 19 26  1  0
 23 27  1  0
 20 28  1  0
 21 29  2  0
 22 29  1  0
 24 30  1  0
 25 31  2  0
 25 32  1  0
 26 33  1  0
 27 34  1  0
 27 35  1  0
 27 36  1  0
 28 37  1  0
 30 38  2  0
 31 38  1  0
 39 32  1  6
 33 40  1  0
 37 41  1  0
 39 42  1  0
 39 43  1  0
 39 44  1  0
 40 45  1  0
 41 46  2  0
 41 47  1  0
 42 48  2  0
 44 49  1  6
 42 50  2  0
 43 51  1  0
 44 52  1  0
 51 52  2  0
 42 53  1  0
 47 54  1  0
 53 55  1  0
 53 56  2  0
 54 57  1  0
 54 58  1  0
 56 59  1  0
 55 60  1  0
 59 60  2  0
 57 61  1  0
 58 62  1  0
 60 63  1  0
 61 64  1  0
 62 64  1  0
M  END
