x0540-x2540
     RDKit          3D

 40 42  0  0  0  0  0  0  0  0999 V2000
    6.9420   -1.5070   21.8560 N   0  0  0  0  0  0  0  0  0  0  0  0
    6.1030   -2.7120   21.4410 C   0  0  0  0  0  0  0  0  0  0  0  0
    4.8000   -3.0570   21.4220 O   0  0  0  0  0  0  0  0  0  0  0  0
    6.6550   -0.0690   21.5930 C   0  0  1  0  0  0  0  0  0  0  0  0
    8.2000   -1.6510   22.5780 C   0  0  0  0  0  0  0  0  0  0  0  0
    6.9680   -3.7740   20.8900 C   0  0  0  0  0  0  0  0  0  0  0  0
    7.8240    0.9810   21.7980 C   0  0  0  0  0  0  0  0  0  0  0  0
    6.1270    0.3100   20.2420 C   0  0  0  0  0  0  0  0  0  0  0  0
    8.3420   -2.2170   23.8250 N   0  0  0  0  0  0  0  0  0  0  0  0
    9.5010   -1.2480   22.2100 C   0  0  0  0  0  0  0  0  0  0  0  0
    7.1870   -3.3500   19.4490 C   0  0  0  0  0  0  0  0  0  0  0  0
    7.9520    1.5300   23.1500 N   0  0  0  0  0  0  0  0  0  0  0  0
    8.5530    1.3530   20.8810 O   0  0  0  0  0  0  0  0  0  0  0  0
    4.8990    0.9330   20.2320 C   0  0  0  0  0  0  0  0  0  0  0  0
    6.8120    0.0830   19.0570 C   0  0  0  0  0  0  0  0  0  0  0  0
    9.6820   -2.1810   24.2700 O   0  0  0  0  0  0  0  0  0  0  0  0
   10.5350   -1.5620   23.2930 C   0  0  0  0  0  0  0  0  0  0  0  0
    8.8280    2.7130   23.2700 C   0  0  0  0  0  0  0  0  0  0  0  0
   12.0270   -1.4050   23.5750 C   0  0  0  0  0  0  0  0  0  0  0  0
    4.1420    1.1770   21.3830 C   0  0  0  0  0  0  0  0  0  0  0  0
    6.3500    0.4610   17.8460 N   0  0  0  0  0  0  0  0  0  0  0  0
    4.3370    1.3620   19.0520 C   0  0  0  0  0  0  0  0  0  0  0  0
    8.8510    3.0650   24.7580 C   0  0  0  0  0  0  0  0  0  0  0  0
    8.3260    3.9280   22.4890 C   0  0  0  0  0  0  0  0  0  0  0  0
   10.3110    2.4110   22.9370 C   0  0  0  0  0  0  0  0  0  0  0  0
   12.7420   -1.1830   22.4210 C   0  0  0  0  0  0  0  0  0  0  0  0
   12.2500   -0.1590   24.4570 C   0  0  0  0  0  0  0  0  0  0  0  0
   12.5150   -2.5430   24.2980 C   0  0  0  0  0  0  0  0  0  0  0  0
    4.8400    1.9890   22.2980 C   0  0  0  0  0  0  0  0  0  0  0  0
    5.1630    1.0870   17.8220 C   0  0  0  0  0  0  0  0  0  0  0  0
    3.9850    2.9050   22.8100 N   0  0  0  0  0  0  0  0  0  0  0  0
    2.8760    2.5370   23.4780 C   0  0  0  0  0  0  0  0  0  0  0  0
    2.8830    1.5270   24.4290 O   0  0  0  0  0  0  0  0  0  0  0  0
    1.8110    3.2780   23.0970 N   0  0  0  0  0  0  0  0  0  0  0  0
    0.5470    3.3260   23.8530 C   0  0  0  0  0  0  0  0  0  0  0  0
    0.5540    4.5950   24.4920 C   0  0  0  0  0  0  0  0  0  0  0  0
   -0.5840    3.0290   23.0910 C   0  0  0  0  0  0  0  0  0  0  0  0
   -0.6370    5.0470   25.1080 C   0  0  0  0  0  0  0  0  0  0  0  0
   -1.8670    3.3230   23.7940 C   0  0  0  0  0  0  0  0  0  0  0  0
   -1.9350    4.4510   24.5780 C   0  0  0  0  0  0  0  0  0  0  0  0
  1  2  1  0
  2  3  2  0
  1  4  1  0
  1  5  1  0
  2  6  1  0
  4  7  1  6
  4  8  1  0
  5  9  2  0
  5 10  1  0
  6 11  1  0
  7 12  1  0
  7 13  2  0
  8 14  1  0
  8 15  2  0
  9 16  1  0
 10 17  2  0
 16 17  1  0
 18 12  1  0
 17 19  1  0
 14 20  1  0
 15 21  1  0
 14 22  2  0
 18 23  1  0
 18 24  1  0
 18 25  1  0
 19 26  1  0
 19 27  1  0
 19 28  1  0
 20 29  1  0
 21 30  2  0
 22 30  1  0
 29 31  1  0
 31 32  1  0
 32 33  2  0
 32 34  1  0
 34 35  1  0
 35 36  1  0
 35 37  1  0
 36 38  1  0
 37 39  1  0
 38 40  1  0
 39 40  1  0
M  END
