x0540-x2705-x2776-x0786
     RDKit          3D

 64 69  0  0  0  0  0  0  0  0999 V2000
    6.9900   -1.5100   22.0620 C   0  0  2  0  0  0  0  0  0  0  0  0
    6.2390   -2.8130   21.3390 C   0  0  0  0  0  0  0  0  0  0  0  0
    4.9230   -3.1200   21.2210 O   0  0  0  0  0  0  0  0  0  0  0  0
    6.5960   -0.0690   21.6810 C   0  0  1  0  0  0  0  0  0  0  0  0
    8.4280   -1.5140   22.6710 C   0  0  0  0  0  0  0  0  0  0  0  0
    6.3390   -2.0290   23.3250 C   0  0  0  0  0  0  0  0  0  0  0  0
    7.1140   -3.8290   20.7740 C   0  0  0  0  0  0  0  0  0  0  0  0
    7.6950    1.0750   21.9230 C   0  0  0  0  0  0  0  0  0  0  0  0
    6.1320    0.2910   20.2860 C   0  0  0  0  0  0  0  0  0  0  0  0
    8.5670   -1.3790   24.0120 N   0  0  0  0  0  0  0  0  0  0  0  0
    9.6730   -1.6150   22.0650 C   0  0  0  0  0  0  0  0  0  0  0  0
    6.9090   -3.3980   23.7260 C   0  0  0  0  0  0  0  0  0  0  0  0
    7.4120   -3.3540   19.3890 C   0  0  0  0  0  0  0  0  0  0  0  0
    7.5900    2.0780   22.9220 N   0  0  0  0  0  0  0  0  0  0  0  0
    8.7950    1.1290   21.0340 O   0  0  0  0  0  0  0  0  0  0  0  0
    4.8910    0.8650   20.1780 C   0  0  0  0  0  0  0  0  0  0  0  0
    6.9050    0.0850   19.1980 C   0  0  0  0  0  0  0  0  0  0  0  0
    9.9240   -1.3920   24.2500 N   0  0  0  0  0  0  0  0  0  0  0  0
   10.6910   -1.5380   23.0300 C   0  0  0  0  0  0  0  0  0  0  0  0
    5.7870   -4.0590   24.3390 C   0  0  0  0  0  0  0  0  0  0  0  0
   12.1860   -1.5680   23.0550 C   0  0  0  0  0  0  0  0  0  0  0  0
    4.0380    1.0550   21.3830 C   0  0  0  0  0  0  0  0  0  0  0  0
    6.5000    0.4820   17.8600 N   0  0  0  0  0  0  0  0  0  0  0  0
    4.4120    1.3020   18.8240 C   0  0  0  0  0  0  0  0  0  0  0  0
    8.1520    3.3740   22.9470 C   0  0  0  0  0  0  0  0  0  0  0  0
    5.1120   -5.4040   23.8490 C   0  0  0  0  0  0  0  0  0  0  0  0
    5.3190   -3.3850   25.4320 C   0  0  0  0  0  0  0  0  0  0  0  0
   12.7970   -0.3970   23.5260 C   0  0  0  0  0  0  0  0  0  0  0  0
   12.7050   -2.7390   23.9540 C   0  0  0  0  0  0  0  0  0  0  0  0
   12.7360   -1.9230   21.6530 C   0  0  0  0  0  0  0  0  0  0  0  0
    4.7380    1.8150   22.4890 C   0  0  0  0  0  0  0  0  0  0  0  0
    5.1890    1.1280   17.7210 C   0  0  0  0  0  0  0  0  0  0  0  0
    9.4470    3.5220   23.5090 C   0  0  0  0  0  0  0  0  0  0  0  0
    7.4720    4.5190   22.4430 C   0  0  0  0  0  0  0  0  0  0  0  0
    4.0150   -5.8660   24.5910 C   0  0  0  0  0  0  0  0  0  0  0  0
    4.1520   -3.9200   26.1820 C   0  0  0  0  0  0  0  0  0  0  0  0
   10.1660    2.2960   24.0100 C   0  0  0  0  0  0  0  0  0  0  0  0
    6.1110    4.5410   21.8070 C   0  0  0  0  0  0  0  0  0  0  0  0
   13.3450   -2.4480   25.1570 C   0  0  0  0  0  0  0  0  0  0  0  0
    3.9920    2.8160   23.0300 N   0  0  0  0  0  0  0  0  0  0  0  0
   10.1380    4.9280   23.6150 C   0  0  0  0  0  0  0  0  0  0  0  0
    8.0680    5.7640   22.5180 C   0  0  0  0  0  0  0  0  0  0  0  0
    3.2700   -7.0870   24.2830 C   0  0  0  0  0  0  0  0  0  0  0  0
    3.5300   -5.0760   25.8050 C   0  0  0  0  0  0  0  0  0  0  0  0
    9.3480    1.4830   24.8180 C   0  0  0  0  0  0  0  0  0  0  0  0
   11.3810    5.0630   24.1760 O   0  0  0  0  0  0  0  0  0  0  0  0
    2.7610    2.4060   23.6880 C   0  0  0  0  0  0  0  0  0  0  0  0
    9.4400    5.9970   23.1220 C   0  0  0  0  0  0  0  0  0  0  0  0
    3.8030   -8.1370   24.6070 O   0  0  0  0  0  0  0  0  0  0  0  0
    2.0100   -6.9760   23.6900 N   0  0  0  0  0  0  0  0  0  0  0  0
   11.7260    6.2880   24.8260 C   0  0  0  0  0  0  0  0  0  0  0  0
    2.6960    1.5570   24.5710 O   0  0  0  0  0  0  0  0  0  0  0  0
    1.6440    3.1530   23.1230 N   0  0  0  0  0  0  0  0  0  0  0  0
    1.4300   -5.6710   23.3420 C   0  0  0  0  0  0  0  0  0  0  0  0
    1.0670   -8.0740   23.9300 C   0  0  0  0  0  0  0  0  0  0  0  0
    0.4820    3.4090   23.8960 C   0  0  0  0  0  0  0  0  0  0  0  0
    0.5670   -5.1240   24.3190 C   0  0  0  0  0  0  0  0  0  0  0  0
   -0.0160   -7.7350   24.7460 C   0  0  0  0  0  0  0  0  0  0  0  0
    0.4020    4.7110   24.3940 C   0  0  0  0  0  0  0  0  0  0  0  0
   -0.6840    2.9200   23.2890 C   0  0  0  0  0  0  0  0  0  0  0  0
   -0.8380   -6.1820   24.2560 S   0  0  0  0  0  0  0  0  0  0  0  0
   -0.7450    4.8810   25.1840 C   0  0  0  0  0  0  0  0  0  0  0  0
   -1.8890    3.3870   23.8170 C   0  0  0  0  0  0  0  0  0  0  0  0
   -1.9050    4.6270   24.4500 C   0  0  0  0  0  0  0  0  0  0  0  0
  1  2  1  0
  2  3  2  0
  1  4  1  0
  1  5  1  0
  1  6  1  1
  2  7  1  0
  4  8  1  6
  4  9  1  0
  5 10  2  0
  5 11  1  0
  6 12  1  0
  7 13  1  0
  8 14  1  0
  8 15  2  0
  9 16  1  0
  9 17  2  0
 10 18  1  0
 11 19  2  0
 18 19  1  0
 12 20  1  0
 19 21  1  0
 16 22  1  0
 17 23  1  0
 16 24  2  0
 14 25  1  0
 20 26  2  0
 20 27  1  0
 21 28  1  0
 21 29  1  0
 21 30  1  0
 22 31  1  0
 23 32  2  0
 24 32  1  0
 25 33  2  0
 25 34  1  0
 26 35  1  0
 27 36  2  0
 33 37  1  0
 34 38  1  0
 29 39  1  0
 31 40  1  0
 33 41  1  0
 34 42  2  0
 35 43  1  0
 35 44  2  0
 36 44  1  0
 37 45  1  0
 41 46  1  0
 40 47  1  0
 41 48  2  0
 42 48  1  0
 43 49  2  0
 43 50  1  0
 46 51  1  0
 47 52  2  0
 47 53  1  0
 50 54  1  0
 50 55  1  0
 53 56  1  0
 54 57  1  0
 55 58  1  0
 56 59  1  0
 56 60  1  0
 57 61  1  0
 58 61  1  0
 59 62  1  0
 60 63  1  0
 62 64  1  0
 63 64  1  0
M  END
