x0540-x1385
     RDKit          3D

 35 38  0  0  0  0  0  0  0  0999 V2000
    3.0090    1.4150   24.4910 O   0  0  0  0  0  0  0  0  0  0  0  0
    3.0150    2.3020   23.3630 C   0  0  0  0  0  0  0  0  0  0  0  0
    3.9570    2.2560   22.3350 N   0  0  0  0  0  0  0  0  0  0  0  0
    2.0640    3.3010   23.1690 N   0  0  0  0  0  0  0  0  0  0  0  0
    5.2600    1.8370   22.5740 C   0  0  0  0  0  0  0  0  0  0  0  0
    0.8040    3.4100   23.9400 C   0  0  0  0  0  0  0  0  0  0  0  0
    5.4260    0.3560   22.9180 C   0  0  0  0  0  0  0  0  0  0  0  0
    0.6200    4.6320   24.6110 C   0  0  0  0  0  0  0  0  0  0  0  0
   -0.3750    3.1280   23.0060 C   0  0  0  0  0  0  0  0  0  0  0  0
    5.6510   -0.6330   21.6990 C   0  0  1  0  0  0  0  0  0  0  0  0
   -0.5800    4.7860   25.1870 C   0  0  0  0  0  0  0  0  0  0  0  0
   -1.6480    3.1940   23.8370 C   0  0  0  0  0  0  0  0  0  0  0  0
    5.6510   -0.0060   20.2750 C   0  0  0  0  0  0  0  0  0  0  0  0
   -1.7480    4.5360   24.2360 C   0  0  0  0  0  0  0  0  0  0  0  0
    6.5520   -1.8940   22.0200 C   0  0  1  0  0  0  0  0  0  0  0  0
    6.6030   -0.0950   19.2570 C   0  0  0  0  0  0  0  0  0  0  0  0
    4.4890    0.7910   19.9590 C   0  0  0  0  0  0  0  0  0  0  0  0
    6.4370   -3.1160   21.3250 N   0  0  0  0  0  0  0  0  0  0  0  0
    8.0300   -1.7140   22.4550 C   0  0  0  0  0  0  0  0  0  0  0  0
    6.2440   -3.3880   19.9520 C   0  0  0  0  0  0  0  0  0  0  0  0
    6.4880    0.5430   17.9530 N   0  0  0  0  0  0  0  0  0  0  0  0
    4.4800    1.3690   18.6910 C   0  0  0  0  0  0  0  0  0  0  0  0
    7.0340   -4.2130   22.0620 C   0  0  0  0  0  0  0  0  0  0  0  0
    8.4260   -2.7910   23.2150 N   0  0  0  0  0  0  0  0  0  0  0  0
    7.3150   -2.9830   18.9210 C   0  0  0  0  0  0  0  0  0  0  0  0
    5.2340   -3.9970   19.6240 O   0  0  0  0  0  0  0  0  0  0  0  0
    9.3910   -2.7760   24.1580 C   0  0  0  0  0  0  0  0  0  0  0  0
    5.4290    1.2400   17.7710 C   0  0  0  0  0  0  0  0  0  0  0  0
    8.3200   -3.9390   22.5240 C   0  0  0  0  0  0  0  0  0  0  0  0
    9.1380   -3.8630   25.1790 C   0  0  0  0  0  0  0  0  0  0  0  0
    9.8460   -5.0610   25.3050 C   0  0  0  0  0  0  0  0  0  0  0  0
    7.8650   -3.7260   26.3460 S   0  0  0  0  0  0  0  0  0  0  0  0
    8.1730   -5.2560   27.0900 C   0  0  0  0  0  0  0  0  0  0  0  0
    9.2480   -5.8800   26.4570 C   0  0  0  0  0  0  0  0  0  0  0  0
    7.1370   -5.9090   28.5420 Br  0  0  0  0  0  0  0  0  0  0  0  0
  1  2  2  0
  2  3  1  0
  2  4  1  0
  3  5  1  0
  4  6  1  0
  5  7  1  0
  6  8  1  0
  6  9  1  0
 10  7  1  1
  8 11  1  0
  9 12  1  0
 10 13  1  0
 11 14  1  0
 12 14  1  0
 10 15  1  0
 13 16  2  0
 13 17  1  0
 15 18  1  0
 15 19  1  6
 18 20  1  0
 16 21  1  0
 17 22  2  0
 18 23  1  0
 19 24  1  0
 20 25  1  0
 20 26  2  0
 24 27  1  0
 21 28  2  0
 22 28  1  0
 23 29  1  0
 24 29  1  0
 27 30  1  0
 30 31  2  0
 30 32  1  0
 32 33  1  0
 31 34  1  0
 33 34  2  0
 33 35  1  0
M  END
