x0540-x0689
     RDKit          3D

 38 41  0  0  0  0  0  0  0  0999 V2000
    6.9770   -3.4930   19.9790 C   0  0  0  0  0  0  0  0  0  0  0  0
    6.2770   -4.4990   20.5400 C   0  0  0  0  0  0  0  0  0  0  0  0
    5.2810   -4.8660   19.9490 O   0  0  0  0  0  0  0  0  0  0  0  0
    6.5840   -5.1490   21.7360 N   0  0  0  0  0  0  0  0  0  0  0  0
    5.8360   -6.2330   22.1190 C   0  0  0  0  0  0  0  0  0  0  0  0
    7.0880   -4.4330   22.8050 C   0  0  0  0  0  0  0  0  0  0  0  0
    4.7550   -5.9340   23.1730 C   0  0  0  0  0  0  0  0  0  0  0  0
    6.0450   -3.9930   23.6280 C   0  0  1  0  0  0  0  0  0  0  0  0
    5.1280   -2.9360   22.9360 C   0  0  0  0  0  0  0  0  0  0  0  0
    5.2730   -5.0780   24.0910 N   0  0  0  0  0  0  0  0  0  0  0  0
    4.6800   -5.0630   25.5190 S   0  0  0  0  0  0  0  0  0  0  0  0
    5.6790   -1.5850   22.6830 C   0  0  0  0  0  0  0  0  0  0  0  0
    3.9690   -6.3000   25.7600 O   0  0  0  0  0  0  0  0  0  0  0  0
    5.9680   -4.5840   26.7000 O   0  0  0  0  0  0  0  0  0  0  0  0
    6.3560   -0.5790   22.8480 C   0  0  0  0  0  0  0  0  0  0  0  0
    3.4610   -3.8680   25.5900 C   0  0  0  0  0  0  0  0  0  0  0  0
    5.9210    0.7090   22.0630 C   0  0  2  0  0  0  0  0  0  0  0  0
    3.8880   -2.2390   25.9530 S   0  0  0  0  0  0  0  0  0  0  0  0
    1.9540   -3.9310   25.3920 C   0  0  0  0  0  0  0  0  0  0  0  0
    4.5050    1.0620   22.3960 C   0  0  0  0  0  0  0  0  0  0  0  0
    1.3530   -2.7110   25.5550 C   0  0  0  0  0  0  0  0  0  0  0  0
    2.2550   -1.6860   25.8600 C   0  0  0  0  0  0  0  0  0  0  0  0
    5.9910    0.5300   20.5660 C   0  0  0  0  0  0  0  0  0  0  0  0
    4.2300    2.4670   22.8470 N   0  0  0  0  0  0  0  0  0  0  0  0
    6.8430   -0.3710   19.9710 C   0  0  0  0  0  0  0  0  0  0  0  0
    5.1650    1.3040   19.6610 C   0  0  0  0  0  0  0  0  0  0  0  0
    3.0040    2.5760   23.6380 C   0  0  0  0  0  0  0  0  0  0  0  0
    6.8310   -0.4460   18.5950 C   0  0  0  0  0  0  0  0  0  0  0  0
    5.1850    1.1980   18.2800 C   0  0  0  0  0  0  0  0  0  0  0  0
    2.8650    1.9150   24.6580 O   0  0  0  0  0  0  0  0  0  0  0  0
    2.0230    3.4260   23.1790 N   0  0  0  0  0  0  0  0  0  0  0  0
    6.0680    0.2770   17.7700 N   0  0  0  0  0  0  0  0  0  0  0  0
    0.7420    3.5080   23.8290 C   0  0  0  0  0  0  0  0  0  0  0  0
    0.5290    4.7060   24.5220 C   0  0  0  0  0  0  0  0  0  0  0  0
   -0.3610    3.0920   23.0830 C   0  0  0  0  0  0  0  0  0  0  0  0
   -0.7190    4.8760   25.1490 C   0  0  0  0  0  0  0  0  0  0  0  0
   -1.6090    3.2470   23.6570 C   0  0  0  0  0  0  0  0  0  0  0  0
   -1.7870    4.4620   24.3280 C   0  0  0  0  0  0  0  0  0  0  0  0
  1  2  1  0
  2  3  2  0
  2  4  1  0
  4  5  1  0
  4  6  1  0
  5  7  1  0
  6  8  1  0
  8  9  1  6
  7 10  1  0
  8 10  1  0
 10 11  1  0
  9 12  1  0
 11 13  2  0
 11 14  2  0
 12 15  1  0
 11 16  1  0
 17 15  1  1
 16 18  1  0
 16 19  2  0
 17 20  1  0
 19 21  1  0
 18 22  1  0
 21 22  2  0
 17 23  1  0
 20 24  1  0
 23 25  2  0
 23 26  1  0
 24 27  1  0
 25 28  1  0
 26 29  2  0
 27 30  2  0
 27 31  1  0
 28 32  2  0
 29 32  1  0
 31 33  1  0
 33 34  1  0
 33 35  1  0
 34 36  1  0
 35 37  1  0
 36 38  1  0
 37 38  1  0
M  END
