x0540-x3117
     RDKit          3D

 43 46  0  0  0  0  0  0  0  0999 V2000
    6.9410   -1.6900   21.8380 N   0  0  0  0  0  0  0  0  0  0  0  0
    6.1000   -2.8930   21.6160 C   0  0  0  0  0  0  0  0  0  0  0  0
    4.8330   -3.0410   21.2840 O   0  0  0  0  0  0  0  0  0  0  0  0
    6.5230   -0.2380   21.6290 C   0  0  1  0  0  0  0  0  0  0  0  0
    8.2590   -1.7580   22.4890 C   0  0  0  0  0  0  0  0  0  0  0  0
    6.8400   -4.1790   21.7810 C   0  0  0  0  0  0  0  0  0  0  0  0
    7.8610    0.5630   21.9830 C   0  0  0  0  0  0  0  0  0  0  0  0
    6.0520    0.1950   20.2840 C   0  0  0  0  0  0  0  0  0  0  0  0
    9.3960   -2.0750   21.7530 C   0  0  0  0  0  0  0  0  0  0  0  0
    8.4950   -1.4790   23.9690 C   0  0  0  0  0  0  0  0  0  0  0  0
    6.7510   -4.8970   20.4380 C   0  0  0  0  0  0  0  0  0  0  0  0
    7.8160    1.5570   22.9370 N   0  0  0  0  0  0  0  0  0  0  0  0
    8.9420    0.4120   21.4280 O   0  0  0  0  0  0  0  0  0  0  0  0
    4.9010    0.8670   20.2030 C   0  0  0  0  0  0  0  0  0  0  0  0
    6.8010   -0.0470   18.9300 C   0  0  0  0  0  0  0  0  0  0  0  0
   10.6750   -2.1220   22.3580 C   0  0  0  0  0  0  0  0  0  0  0  0
    9.7750   -1.5500   24.4720 C   0  0  0  0  0  0  0  0  0  0  0  0
    4.0400    1.1790   21.4260 C   0  0  0  0  0  0  0  0  0  0  0  0
    6.3450    0.3940   17.7860 N   0  0  0  0  0  0  0  0  0  0  0  0
    4.4450    1.3190   18.9740 C   0  0  0  0  0  0  0  0  0  0  0  0
    8.6320    2.8760   22.7720 C   0  0  0  0  0  0  0  0  0  0  0  0
   10.8750   -1.8620   23.7110 C   0  0  0  0  0  0  0  0  0  0  0  0
   12.2180   -1.9130   24.3820 C   0  0  0  0  0  0  0  0  0  0  0  0
    4.7400    1.9860   22.3160 C   0  0  0  0  0  0  0  0  0  0  0  0
    5.1970    1.0610   17.8370 C   0  0  0  0  0  0  0  0  0  0  0  0
    9.8290    2.7940   23.4950 C   0  0  0  0  0  0  0  0  0  0  0  0
    7.8840    3.9620   23.2360 C   0  0  0  0  0  0  0  0  0  0  0  0
   12.4860   -0.6500   25.0620 C   0  0  0  0  0  0  0  0  0  0  0  0
   13.3130   -2.1080   23.4100 C   0  0  0  0  0  0  0  0  0  0  0  0
   12.1130   -3.2070   25.2500 C   0  0  0  0  0  0  0  0  0  0  0  0
    4.0100    2.9210   23.0040 N   0  0  0  0  0  0  0  0  0  0  0  0
   10.6200    4.0910   23.6270 C   0  0  0  0  0  0  0  0  0  0  0  0
    8.6190    5.1650   23.1910 C   0  0  0  0  0  0  0  0  0  0  0  0
    2.8660    2.4480   23.6370 C   0  0  0  0  0  0  0  0  0  0  0  0
    9.7290    5.1000   24.0750 O   0  0  0  0  0  0  0  0  0  0  0  0
    2.8200    1.5720   24.5010 O   0  0  0  0  0  0  0  0  0  0  0  0
    1.7950    3.1080   23.1470 N   0  0  0  0  0  0  0  0  0  0  0  0
    0.6090    3.2760   23.9670 C   0  0  0  0  0  0  0  0  0  0  0  0
    0.5760    4.6840   24.5620 C   0  0  0  0  0  0  0  0  0  0  0  0
   -0.6590    2.9790   23.1620 C   0  0  0  0  0  0  0  0  0  0  0  0
   -0.8120    4.9620   25.1230 C   0  0  0  0  0  0  0  0  0  0  0  0
   -1.9460    3.3280   23.8870 C   0  0  0  0  0  0  0  0  0  0  0  0
   -1.9520    4.6520   24.3300 C   0  0  0  0  0  0  0  0  0  0  0  0
  1  2  1  0
  2  3  2  0
  1  4  1  0
  1  5  1  0
  2  6  1  0
  4  7  1  6
  4  8  1  0
  5  9  2  0
  5 10  1  0
  6 11  1  0
  7 12  1  0
  7 13  2  0
  8 14  1  0
  8 15  2  0
  9 16  1  0
 10 17  2  0
 14 18  1  0
 15 19  1  0
 14 20  2  0
 12 21  1  0
 16 22  2  0
 17 22  1  0
 22 23  1  0
 18 24  1  0
 19 25  2  0
 20 25  1  0
 21 26  1  0
 21 27  1  0
 23 28  1  0
 23 29  1  0
 23 30  1  0
 24 31  1  0
 26 32  1  0
 27 33  1  0
 31 34  1  0
 32 35  1  0
 33 35  1  0
 34 36  2  0
 34 37  1  0
 37 38  1  0
 38 39  1  0
 38 40  1  0
 39 41  1  0
 40 42  1  0
 41 43  1  0
 42 43  1  0
M  END
