x0540-x3115
     RDKit          3D

 41 43  0  0  0  0  0  0  0  0999 V2000
    6.9250   -1.7980   21.8230 N   0  0  0  0  0  0  0  0  0  0  0  0
    6.1180   -2.9970   21.6260 C   0  0  0  0  0  0  0  0  0  0  0  0
    4.8630   -3.0990   21.2850 O   0  0  0  0  0  0  0  0  0  0  0  0
    6.4060   -0.3900   21.6280 C   0  0  1  0  0  0  0  0  0  0  0  0
    8.2370   -1.8250   22.4640 C   0  0  0  0  0  0  0  0  0  0  0  0
    6.8420   -4.2870   21.8240 C   0  0  0  0  0  0  0  0  0  0  0  0
    7.7010    0.4720   21.9720 C   0  0  0  0  0  0  0  0  0  0  0  0
    6.0510    0.1120   20.2530 C   0  0  0  0  0  0  0  0  0  0  0  0
    9.3710   -2.1710   21.7540 C   0  0  0  0  0  0  0  0  0  0  0  0
    8.4360   -1.4890   23.7880 C   0  0  0  0  0  0  0  0  0  0  0  0
    6.7600   -5.0550   20.5020 C   0  0  0  0  0  0  0  0  0  0  0  0
    7.6440    1.3550   23.0210 N   0  0  0  0  0  0  0  0  0  0  0  0
    8.7530    0.4520   21.3430 O   0  0  0  0  0  0  0  0  0  0  0  0
    4.8660    1.0010   20.1340 C   0  0  0  0  0  0  0  0  0  0  0  0
    6.7300   -0.1530   19.0610 C   0  0  0  0  0  0  0  0  0  0  0  0
   10.6570   -2.1900   22.2560 C   0  0  0  0  0  0  0  0  0  0  0  0
    9.6850   -1.4630   24.4220 C   0  0  0  0  0  0  0  0  0  0  0  0
    8.5890    2.4760   23.1520 C   0  0  0  0  0  0  0  0  0  0  0  0
    4.0490    1.3650   21.3310 C   0  0  0  0  0  0  0  0  0  0  0  0
    6.3520    0.3620   17.8740 N   0  0  0  0  0  0  0  0  0  0  0  0
    4.5140    1.5060   18.9020 C   0  0  0  0  0  0  0  0  0  0  0  0
   10.9130   -1.8430   23.5800 C   0  0  0  0  0  0  0  0  0  0  0  0
    8.0160    3.6990   22.5340 C   0  0  0  0  0  0  0  0  0  0  0  0
   12.3420   -1.8280   24.1370 C   0  0  0  0  0  0  0  0  0  0  0  0
    4.7860    2.0820   22.2710 C   0  0  0  0  0  0  0  0  0  0  0  0
    5.2920    1.1580   17.8190 C   0  0  0  0  0  0  0  0  0  0  0  0
    8.6300    4.8250   23.0190 O   0  0  0  0  0  0  0  0  0  0  0  0
   13.3630   -1.6930   23.0120 C   0  0  0  0  0  0  0  0  0  0  0  0
   12.7890   -2.9970   25.0030 C   0  0  0  0  0  0  0  0  0  0  0  0
   12.4480   -0.5770   25.0030 C   0  0  0  0  0  0  0  0  0  0  0  0
    3.8720    2.9370   23.0790 N   0  0  0  0  0  0  0  0  0  0  0  0
    8.2710    6.0370   22.3480 C   0  0  0  0  0  0  0  0  0  0  0  0
    2.8330    2.3560   23.6910 C   0  0  0  0  0  0  0  0  0  0  0  0
    2.9740    1.4500   24.7830 O   0  0  0  0  0  0  0  0  0  0  0  0
    1.5460    2.7140   23.0880 N   0  0  0  0  0  0  0  0  0  0  0  0
    0.4690    3.1620   23.9540 C   0  0  0  0  0  0  0  0  0  0  0  0
    0.5630    4.6540   24.3010 C   0  0  0  0  0  0  0  0  0  0  0  0
   -0.7430    2.8310   23.3500 C   0  0  0  0  0  0  0  0  0  0  0  0
   -0.5350    5.0420   25.0580 C   0  0  0  0  0  0  0  0  0  0  0  0
   -1.9190    3.3840   23.8450 C   0  0  0  0  0  0  0  0  0  0  0  0
   -1.8680    4.6910   24.3720 C   0  0  0  0  0  0  0  0  0  0  0  0
  1  2  1  0
  2  3  2  0
  1  4  1  0
  1  5  1  0
  2  6  1  0
  4  7  1  6
  4  8  1  0
  5  9  2  0
  5 10  1  0
  6 11  1  0
  7 12  1  0
  7 13  2  0
  8 14  1  0
  8 15  2  0
  9 16  1  0
 10 17  2  0
 12 18  1  0
 14 19  1  0
 15 20  1  0
 14 21  2  0
 16 22  2  0
 17 22  1  0
 18 23  1  0
 22 24  1  0
 19 25  1  0
 20 26  2  0
 21 26  1  0
 23 27  1  0
 24 28  1  0
 24 29  1  0
 24 30  1  0
 25 31  1  0
 27 32  1  0
 31 33  1  0
 33 34  2  0
 33 35  1  0
 35 36  1  0
 36 37  1  0
 36 38  1  0
 37 39  1  0
 38 40  1  0
 39 41  1  0
 40 41  1  0
M  END
