x0540-x0981
     RDKit          3D

 36 37  0  0  0  0  0  0  0  0999 V2000
    1.2050   -8.7070   21.4020 C   0  0  0  0  0  0  0  0  0  0  0  0
    1.4720   -7.4420   22.1750 C   0  0  0  0  0  0  0  0  0  0  0  0
    2.6910   -7.1970   22.7790 N   0  0  0  0  0  0  0  0  0  0  0  0
    0.3910   -6.5050   22.2050 O   0  0  0  0  0  0  0  0  0  0  0  0
    2.9220   -5.9410   23.5410 C   0  0  1  0  0  0  0  0  0  0  0  0
    2.8710   -6.1760   25.0470 C   0  0  0  0  0  0  0  0  0  0  0  0
    4.2520   -5.2070   23.1600 C   0  0  0  0  0  0  0  0  0  0  0  0
    5.4680   -5.7500   22.4820 N   0  0  0  0  0  0  0  0  0  0  0  0
    4.3320   -3.7710   23.5080 N   0  0  0  0  0  0  0  0  0  0  0  0
    3.1440   -7.6590   25.2850 C   0  0  0  0  0  0  0  0  0  0  0  0
    2.3030   -8.3100   26.3070 N   0  0  0  0  0  0  0  0  0  0  0  0
    4.0160   -8.1850   24.6350 O   0  0  0  0  0  0  0  0  0  0  0  0
    6.6590   -5.1000   21.9010 C   0  0  0  0  0  0  0  0  0  0  0  0
    5.4510   -2.8460   23.2120 C   0  0  0  0  0  0  0  0  0  0  0  0
    6.5760   -5.1060   20.3910 C   0  0  0  0  0  0  0  0  0  0  0  0
    5.2590   -1.6220   23.7100 C   0  0  0  0  0  0  0  0  0  0  0  0
    5.6720   -6.2180   19.8700 C   0  0  0  0  0  0  0  0  0  0  0  0
    6.1110   -0.5360   23.0350 C   0  0  0  0  0  0  0  0  0  0  0  0
    5.2670    0.3920   22.1670 C   0  0  1  0  0  0  0  0  0  0  0  0
    5.2250    1.7310   22.6080 C   0  0  0  0  0  0  0  0  0  0  0  0
    5.5850    0.3480   20.6660 C   0  0  0  0  0  0  0  0  0  0  0  0
    4.1020    2.5070   22.5120 N   0  0  0  0  0  0  0  0  0  0  0  0
    6.5950   -0.4680   20.1420 C   0  0  0  0  0  0  0  0  0  0  0  0
    4.8400    1.1490   19.7810 C   0  0  0  0  0  0  0  0  0  0  0  0
    2.9960    2.4160   23.4780 C   0  0  0  0  0  0  0  0  0  0  0  0
    6.8170   -0.4440   18.7800 C   0  0  0  0  0  0  0  0  0  0  0  0
    5.1720    1.0740   18.4370 C   0  0  0  0  0  0  0  0  0  0  0  0
    2.9610    1.6300   24.4180 O   0  0  0  0  0  0  0  0  0  0  0  0
    2.0080    3.3360   23.1840 N   0  0  0  0  0  0  0  0  0  0  0  0
    6.1320    0.3090   17.8960 N   0  0  0  0  0  0  0  0  0  0  0  0
    0.7940    3.3110   23.7850 C   0  0  0  0  0  0  0  0  0  0  0  0
    0.5620    4.7170   24.3690 C   0  0  0  0  0  0  0  0  0  0  0  0
   -0.3340    2.8950   23.0740 C   0  0  0  0  0  0  0  0  0  0  0  0
   -0.5990    4.7470   25.1250 C   0  0  0  0  0  0  0  0  0  0  0  0
   -1.6730    3.1670   23.7670 C   0  0  0  0  0  0  0  0  0  0  0  0
   -1.7070    4.4490   24.3280 C   0  0  0  0  0  0  0  0  0  0  0  0
  1  2  1  0
  2  3  1  0
  2  4  2  0
  3  5  1  0
  5  6  1  1
  5  7  1  0
  7  8  1  0
  7  9  2  3
  6 10  1  0
 10 11  1  0
 10 12  2  0
  8 13  1  0
  9 14  1  0
 13 15  1  0
 14 16  1  0
 15 17  2  3
 16 18  1  0
 19 18  1  1
 19 20  1  0
 19 21  1  0
 20 22  1  0
 21 23  2  0
 21 24  1  0
 22 25  1  0
 23 26  1  0
 24 27  2  0
 25 28  2  0
 25 29  1  0
 26 30  2  0
 27 30  1  0
 29 31  1  0
 31 32  1  0
 31 33  1  0
 32 34  1  0
 33 35  1  0
 34 36  1  0
 35 36  1  0
M  END
