x0540-x0831
     RDKit          3D

 37 40  0  0  0  0  0  0  0  0999 V2000
    2.6200    1.3930   24.7700 O   0  0  0  0  0  0  0  0  0  0  0  0
    2.8250    2.2790   23.6610 C   0  0  0  0  0  0  0  0  0  0  0  0
    4.0450    2.1960   22.8400 N   0  0  0  0  0  0  0  0  0  0  0  0
    1.9200    3.2680   23.2710 N   0  0  0  0  0  0  0  0  0  0  0  0
    4.9870    1.2420   23.2110 C   0  0  0  0  0  0  0  0  0  0  0  0
    0.7040    3.4150   24.0490 C   0  0  0  0  0  0  0  0  0  0  0  0
    5.9870    0.8460   22.1530 C   0  0  0  0  0  0  0  0  0  0  0  0
    0.5510    4.7330   24.4400 C   0  0  0  0  0  0  0  0  0  0  0  0
   -0.4670    2.8400   23.2550 C   0  0  0  0  0  0  0  0  0  0  0  0
    5.6880   -0.3720   21.2240 C   0  0  1  0  0  0  0  0  0  0  0  0
   -0.6990    4.9130   25.0510 C   0  0  0  0  0  0  0  0  0  0  0  0
   -1.7100    3.3310   23.6690 C   0  0  0  0  0  0  0  0  0  0  0  0
    5.4830    0.2720   20.0410 C   0  0  0  0  0  0  0  0  0  0  0  0
   -1.7380    4.6460   24.1330 C   0  0  0  0  0  0  0  0  0  0  0  0
    6.8540   -1.3490   21.0110 C   0  0  2  0  0  0  0  0  0  0  0  0
    6.4820    0.1720   18.8640 C   0  0  0  0  0  0  0  0  0  0  0  0
    4.2890    1.1080   19.8770 C   0  0  0  0  0  0  0  0  0  0  0  0
    6.6030   -2.7910   21.1720 N   0  0  0  0  0  0  0  0  0  0  0  0
    8.0000   -0.8540   21.5830 C   0  0  0  0  0  0  0  0  0  0  0  0
    6.3600   -3.5030   19.9740 C   0  0  0  0  0  0  0  0  0  0  0  0
    6.2040    0.8910   17.6680 N   0  0  0  0  0  0  0  0  0  0  0  0
    4.1350    1.7600   18.6900 C   0  0  0  0  0  0  0  0  0  0  0  0
    8.9780   -1.7580   21.7510 C   0  0  0  0  0  0  0  0  0  0  0  0
    6.7090   -3.4560   22.5090 C   0  0  0  0  0  0  0  0  0  0  0  0
    5.5030   -4.3920   19.8680 O   0  0  0  0  0  0  0  0  0  0  0  0
    7.2460   -3.0920   18.7890 C   0  0  0  0  0  0  0  0  0  0  0  0
    5.0550    1.6410   17.6660 C   0  0  0  0  0  0  0  0  0  0  0  0
    8.8950   -2.3210   23.0730 N   0  0  0  0  0  0  0  0  0  0  0  0
    7.9390   -3.4340   23.2420 C   0  0  0  0  0  0  0  0  0  0  0  0
   10.2680   -2.5030   23.5550 C   0  0  0  0  0  0  0  0  0  0  0  0
   10.9170   -1.1490   23.5850 C   0  0  0  0  0  0  0  0  0  0  0  0
   12.2020   -0.8910   22.9240 C   0  0  0  0  0  0  0  0  0  0  0  0
   10.3100   -0.0570   24.2340 C   0  0  0  0  0  0  0  0  0  0  0  0
   12.7950   -2.0660   22.2400 C   0  0  0  0  0  0  0  0  0  0  0  0
   10.9360    1.1950   24.2150 C   0  0  0  0  0  0  0  0  0  0  0  0
   12.8190    0.3470   22.9230 C   0  0  0  0  0  0  0  0  0  0  0  0
   12.1560    1.3550   23.5700 C   0  0  0  0  0  0  0  0  0  0  0  0
  1  2  2  0
  2  3  1  0
  2  4  1  0
  3  5  1  0
  4  6  1  0
  5  7  1  0
  6  8  1  0
  6  9  1  0
 10  7  1  1
  8 11  1  0
  9 12  1  0
 10 13  1  0
 11 14  1  0
 12 14  1  0
 10 15  1  0
 13 16  2  0
 13 17  1  0
 15 18  1  0
 15 19  1  1
 18 20  1  0
 16 21  1  0
 17 22  2  0
 19 23  1  0
 18 24  1  0
 20 25  2  0
 20 26  1  0
 21 27  2  0
 22 27  1  0
 23 28  1  0
 24 29  1  0
 28 29  1  0
 28 30  1  0
 30 31  1  0
 31 32  2  0
 31 33  1  0
 32 34  1  0
 33 35  2  0
 32 36  1  0
 35 37  1  0
 36 37  2  0
M  END
