x0540-x1375-x1119-x3110-x3113
     RDKit          3D

 81 87  0  0  0  0  0  0  0  0999 V2000
    8.1520    1.6830   23.2770 N   0  0  0  0  0  0  0  0  0  0  0  0
    9.0740    2.7280   23.7560 C   0  0  0  0  0  0  0  0  0  0  0  0
   10.3690    2.4650   23.4850 C   0  0  0  0  0  0  0  0  0  0  0  0
    7.9690    1.2260   21.8950 C   0  0  0  0  0  0  0  0  0  0  0  0
    8.6830    1.7180   21.0140 O   0  0  0  0  0  0  0  0  0  0  0  0
    6.8910    0.1690   21.6860 C   0  0  2  0  0  0  0  0  0  0  0  0
    7.2430   -1.2050   21.8450 N   0  0  0  0  0  0  0  0  0  0  0  0
   11.2710    3.6730   23.2600 C   0  0  0  0  0  0  0  0  0  0  0  0
    6.2460    0.4220   20.3660 C   0  0  0  0  0  0  0  0  0  0  0  0
   11.7870    3.6560   22.1380 O   0  0  0  0  0  0  0  0  0  0  0  0
   11.4300    4.5400   24.1150 O   0  0  0  0  0  0  0  0  0  0  0  0
    4.8230    1.0290   20.3570 C   0  0  0  0  0  0  0  0  0  0  0  0
    6.8990    0.1320   19.0300 C   0  0  0  0  0  0  0  0  0  0  0  0
    8.4860   -1.2510   22.4340 C   0  0  0  0  0  0  0  0  0  0  0  0
   12.7300    4.6220   21.8950 C   0  0  0  0  0  0  0  0  0  0  0  0
    4.1370    1.2860   21.5740 C   0  0  0  0  0  0  0  0  0  0  0  0
    6.3400    0.3990   17.8510 N   0  0  0  0  0  0  0  0  0  0  0  0
    4.2660    1.3020   19.0100 C   0  0  0  0  0  0  0  0  0  0  0  0
    9.4540   -1.8170   21.6910 C   0  0  0  0  0  0  0  0  0  0  0  0
    8.8060   -0.7710   23.6840 C   0  0  0  0  0  0  0  0  0  0  0  0
   14.0300    4.1900   22.6510 C   0  0  0  0  0  0  0  0  0  0  0  0
    4.8860    2.1000   22.4250 C   0  0  0  0  0  0  0  0  0  0  0  0
    5.1180    0.9540   17.8350 C   0  0  0  0  0  0  0  0  0  0  0  0
   10.8600   -1.9450   22.1450 C   0  0  0  0  0  0  0  0  0  0  0  0
   10.1090   -0.8690   24.1460 C   0  0  0  0  0  0  0  0  0  0  0  0
    4.0410    2.9630   22.9130 N   0  0  0  0  0  0  0  0  0  0  0  0
   15.3840    4.8300   22.3270 C   0  0  0  0  0  0  0  0  0  0  0  0
   11.0840   -1.4310   23.4010 C   0  0  0  0  0  0  0  0  0  0  0  0
   12.4800   -1.5340   23.9170 C   0  0  0  0  0  0  0  0  0  0  0  0
    2.8890    2.5530   23.5440 C   0  0  0  0  0  0  0  0  0  0  0  0
   16.8580    4.2640   22.5650 C   0  0  0  0  0  0  0  0  0  0  0  0
   12.6620   -0.8000   25.0680 C   0  0  0  0  0  0  0  0  0  0  0  0
   13.3840   -1.3230   22.8860 C   0  0  0  0  0  0  0  0  0  0  0  0
   12.5390   -3.0160   24.2230 C   0  0  0  0  0  0  0  0  0  0  0  0
    2.8910    1.4970   24.5160 O   0  0  0  0  0  0  0  0  0  0  0  0
    1.7720    3.2320   23.1700 N   0  0  0  0  0  0  0  0  0  0  0  0
   17.8660    5.0590   23.3720 C   0  0  0  0  0  0  0  0  0  0  0  0
   11.8200   -3.4020   25.4260 C   0  0  0  0  0  0  0  0  0  0  0  0
   19.0700    5.5470   22.9240 C   0  0  0  0  0  0  0  0  0  0  0  0
    0.6140    3.3140   24.0530 C   0  0  0  0  0  0  0  0  0  0  0  0
   10.9610   -4.6010   25.3970 O   0  0  0  0  0  0  0  0  0  0  0  0
   19.4790    7.0310   23.0610 C   0  0  0  0  0  0  0  0  0  0  0  0
    0.4990    4.5990   24.5880 C   0  0  0  0  0  0  0  0  0  0  0  0
   -0.5020    2.7950   23.3950 C   0  0  0  0  0  0  0  0  0  0  0  0
   20.9090    7.2880   22.8590 N   0  0  0  0  0  0  0  0  0  0  0  0
   -0.7900    4.9290   25.1020 C   0  0  0  0  0  0  0  0  0  0  0  0
   -1.7540    3.3300   23.7260 C   0  0  0  0  0  0  0  0  0  0  0  0
    9.8060   -4.5510   24.6560 C   0  0  0  0  0  0  0  0  0  0  0  0
   -1.8070    4.6440   24.2080 C   0  0  0  0  0  0  0  0  0  0  0  0
    8.9950   -3.3030   24.5070 C   0  0  0  0  0  0  0  0  0  0  0  0
    9.3770   -5.7080   24.0200 C   0  0  0  0  0  0  0  0  0  0  0  0
   21.6830    6.2900   23.3730 C   0  0  0  0  0  0  0  0  0  0  0  0
    7.7820   -3.4270   23.6270 C   0  0  0  0  0  0  0  0  0  0  0  0
    8.2370   -5.7430   23.2130 C   0  0  0  0  0  0  0  0  0  0  0  0
   22.8400    5.6280   22.6750 C   0  0  0  0  0  0  0  0  0  0  0  0
   21.3470    5.8490   24.6510 C   0  0  0  0  0  0  0  0  0  0  0  0
    7.4510   -4.6180   23.0030 C   0  0  0  0  0  0  0  0  0  0  0  0
   23.5210    4.6070   23.3030 C   0  0  0  0  0  0  0  0  0  0  0  0
   22.0470    4.8180   25.2510 C   0  0  0  0  0  0  0  0  0  0  0  0
    6.2830   -4.6110   22.1620 N   0  0  0  0  0  0  0  0  0  0  0  0
   23.1020    4.2160   24.5750 C   0  0  0  0  0  0  0  0  0  0  0  0
    6.3300   -4.5100   20.7300 C   0  0  0  0  0  0  0  0  0  0  0  0
   23.9400    2.8890   25.3450 S   0  0  0  0  0  0  0  0  0  0  0  0
    5.0440   -4.9300   22.8330 C   0  0  2  0  0  0  0  0  0  0  0  0
    5.5620   -5.2150   20.0680 O   0  0  0  0  0  0  0  0  0  0  0  0
    7.2260   -3.5170   19.9260 C   0  0  0  0  0  0  0  0  0  0  0  0
   23.0230    1.8010   25.2460 O   0  0  0  0  0  0  0  0  0  0  0  0
   24.1230    3.3540   26.9350 N   0  0  0  0  0  0  0  0  0  0  0  0
   25.2420    2.7900   24.7390 O   0  0  0  0  0  0  0  0  0  0  0  0
    4.7730   -4.4190   24.1160 C   0  0  0  0  0  0  0  0  0  0  0  0
    4.8370   -6.4480   22.8500 C   0  0  0  0  0  0  0  0  0  0  0  0
    3.8370   -6.6800   24.2670 S   0  0  0  0  0  0  0  0  0  0  0  0
    4.1350   -5.2170   24.9980 C   0  0  0  0  0  0  0  0  0  0  0  0
   24.9750    4.4200   27.2480 C   0  0  0  0  0  0  0  0  0  0  0  0
    2.4820   -6.7480   23.7690 O   0  0  0  0  0  0  0  0  0  0  0  0
    4.3490   -7.8010   25.0080 O   0  0  0  0  0  0  0  0  0  0  0  0
   25.0340    4.6740   28.5720 N   0  0  0  0  0  0  0  0  0  0  0  0
   25.6710    5.1160   26.2720 C   0  0  0  0  0  0  0  0  0  0  0  0
   25.8450    5.6940   28.9350 C   0  0  0  0  0  0  0  0  0  0  0  0
   26.4950    6.1560   26.6850 C   0  0  0  0  0  0  0  0  0  0  0  0
   26.5870    6.4540   28.0410 C   0  0  0  0  0  0  0  0  0  0  0  0
  1  2  1  0
  2  3  1  0
  1  4  1  0
  4  5  2  0
  4  6  1  0
  6  7  1  6
  3  8  1  0
  6  9  1  0
  8 10  1  0
  8 11  2  0
  9 12  1  0
  9 13  2  0
  7 14  1  0
 10 15  1  0
 12 16  1  0
 13 17  1  0
 12 18  2  0
 14 19  2  0
 14 20  1  0
 15 21  1  0
 16 22  1  0
 17 23  2  0
 18 23  1  0
 19 24  1  0
 20 25  2  0
 22 26  1  0
 21 27  1  0
 24 28  2  0
 25 28  1  0
 28 29  1  0
 26 30  1  0
 27 31  1  0
 29 32  1  0
 29 33  1  0
 29 34  1  0
 30 35  2  0
 30 36  1  0
 31 37  1  0
 34 38  1  0
 37 39  1  0
 36 40  1  0
 38 41  1  0
 39 42  1  0
 40 43  1  0
 40 44  1  0
 42 45  1  0
 43 46  1  0
 44 47  1  0
 41 48  1  0
 46 49  1  0
 47 49  1  0
 48 50  2  0
 48 51  1  0
 45 52  1  0
 50 53  1  0
 51 54  2  0
 52 55  2  0
 52 56  1  0
 53 57  2  0
 54 57  1  0
 55 58  1  0
 56 59  2  0
 57 60  1  0
 58 61  2  0
 59 61  1  0
 60 62  1  0
 61 63  1  0
 64 60  1  1
 62 65  2  0
 62 66  1  0
 63 67  2  0
 63 68  1  0
 63 69  2  0
 64 70  1  0
 64 71  1  0
 71 72  1  0
 70 73  2  0
 72 73  1  0
 68 74  1  0
 72 75  1  0
 72 76  1  0
 74 77  2  0
 74 78  1  0
 77 79  1  0
 78 80  2  0
 79 81  2  0
 80 81  1  0
M  END
