x0540-x2764
     RDKit          3D

 30 32  0  0  0  0  0  0  0  0999 V2000
    8.5590   -1.2340   21.3030 N   0  0  0  0  0  0  0  0  0  0  0  0
    7.1010   -1.2410   21.0120 C   0  0  0  0  0  0  0  0  0  0  0  0
    6.2850   -2.3120   21.4720 O   0  0  0  0  0  0  0  0  0  0  0  0
    9.0100   -1.9820   22.4080 C   0  0  0  0  0  0  0  0  0  0  0  0
   10.4630   -1.8100   22.7480 C   0  0  0  0  0  0  0  0  0  0  0  0
    6.4440   -0.1530   20.2180 C   0  0  0  0  0  0  0  0  0  0  0  0
   11.5870   -1.7790   21.9650 C   0  0  0  0  0  0  0  0  0  0  0  0
   10.9090   -1.6350   24.1720 C   0  0  0  0  0  0  0  0  0  0  0  0
    6.4980   -0.3610   18.8280 C   0  0  0  0  0  0  0  0  0  0  0  0
    5.7910    0.9880   20.7290 C   0  0  0  0  0  0  0  0  0  0  0  0
    5.6530    1.3040   22.2230 C   0  0  1  0  0  0  0  0  0  0  0  0
   12.8360   -1.6060   22.5180 N   0  0  0  0  0  0  0  0  0  0  0  0
   12.6540   -1.4670   24.2230 S   0  0  0  0  0  0  0  0  0  0  0  0
    5.8780    0.6000   17.9970 C   0  0  0  0  0  0  0  0  0  0  0  0
    5.2040    1.9080   19.8610 C   0  0  0  0  0  0  0  0  0  0  0  0
    6.9850    1.8940   22.7200 C   0  0  0  0  0  0  0  0  0  0  0  0
    4.5190    2.3200   22.4590 N   0  0  0  0  0  0  0  0  0  0  0  0
    5.2080   -0.0060   22.9040 C   0  0  0  0  0  0  0  0  0  0  0  0
    5.2500    1.7060   18.5070 C   0  0  0  0  0  0  0  0  0  0  0  0
    7.3670    3.2350   22.0320 C   0  0  0  0  0  0  0  0  0  0  0  0
    3.4030    2.2490   23.3480 C   0  0  0  0  0  0  0  0  0  0  0  0
    7.8830    4.2430   22.7760 N   0  0  0  0  0  0  0  0  0  0  0  0
    3.3450    1.5120   24.3250 O   0  0  0  0  0  0  0  0  0  0  0  0
    2.2810    3.1870   22.9780 N   0  0  0  0  0  0  0  0  0  0  0  0
    1.0390    3.2210   23.6770 C   0  0  0  0  0  0  0  0  0  0  0  0
    0.8430    4.6170   24.3210 C   0  0  0  0  0  0  0  0  0  0  0  0
   -0.1460    2.8650   22.9870 C   0  0  0  0  0  0  0  0  0  0  0  0
   -0.3720    4.6670   25.0080 C   0  0  0  0  0  0  0  0  0  0  0  0
   -1.4150    3.1050   23.6680 C   0  0  0  0  0  0  0  0  0  0  0  0
   -1.5090    4.3770   24.2430 C   0  0  0  0  0  0  0  0  0  0  0  0
  1  2  1  0
  2  3  2  0
  1  4  1  0
  4  5  1  0
  2  6  1  0
  5  7  1  0
  5  8  2  0
  6  9  2  0
  6 10  1  0
 10 11  1  0
  7 12  2  0
  8 13  1  0
 12 13  1  0
  9 14  1  0
 10 15  2  0
 11 16  1  0
 11 17  1  0
 11 18  1  1
 14 19  2  0
 15 19  1  0
 16 20  1  0
 17 21  1  0
 20 22  3  0
 21 23  2  0
 21 24  1  0
 24 25  1  0
 25 26  1  0
 25 27  1  0
 26 28  1  0
 27 29  1  0
 28 30  1  0
 29 30  1  0
M  END
