x0540-x0749
     RDKit          3D

 39 43  0  0  0  0  0  0  0  0999 V2000
    2.9140    1.8440   24.9650 O   0  0  0  0  0  0  0  0  0  0  0  0
    2.7920    2.4660   23.6820 C   0  0  0  0  0  0  0  0  0  0  0  0
    3.6840    2.1570   22.5740 N   0  0  0  0  0  0  0  0  0  0  0  0
    1.8260    3.3920   23.3220 N   0  0  0  0  0  0  0  0  0  0  0  0
    3.9080    0.8300   22.2850 C   0  0  0  0  0  0  0  0  0  0  0  0
    0.6220    3.4770   24.1060 C   0  0  0  0  0  0  0  0  0  0  0  0
    5.3540    0.5110   22.0860 C   0  0  1  0  0  0  0  0  0  0  0  0
    0.4550    4.7600   24.5890 C   0  0  0  0  0  0  0  0  0  0  0  0
   -0.5500    2.8860   23.3320 C   0  0  0  0  0  0  0  0  0  0  0  0
    5.8000   -0.7960   22.7850 C   0  0  0  0  0  0  0  0  0  0  0  0
    5.6460    0.4980   20.5670 C   0  0  0  0  0  0  0  0  0  0  0  0
   -0.8390    4.8690   25.1230 C   0  0  0  0  0  0  0  0  0  0  0  0
   -1.8280    3.3280   23.6780 C   0  0  0  0  0  0  0  0  0  0  0  0
    5.3980   -2.1690   22.4360 C   0  0  0  0  0  0  0  0  0  0  0  0
    6.7950   -0.3210   20.0260 C   0  0  0  0  0  0  0  0  0  0  0  0
    4.8870    1.2240   19.6310 C   0  0  0  0  0  0  0  0  0  0  0  0
   -1.8270    4.6460   24.1370 C   0  0  0  0  0  0  0  0  0  0  0  0
    5.2780   -3.3780   22.4790 C   0  0  0  0  0  0  0  0  0  0  0  0
    7.0510   -0.3190   18.5430 C   0  0  0  0  0  0  0  0  0  0  0  0
    5.1770    1.1880   18.2760 C   0  0  0  0  0  0  0  0  0  0  0  0
    6.1960    0.4690   17.6860 N   0  0  0  0  0  0  0  0  0  0  0  0
    6.4580   -4.1740   21.8050 C   0  0  1  0  0  0  0  0  0  0  0  0
    6.3160   -3.9170   20.2790 C   0  0  0  0  0  0  0  0  0  0  0  0
    7.6170   -3.6560   22.3380 C   0  0  0  0  0  0  0  0  0  0  0  0
    6.1460   -5.5430   21.9630 C   0  0  0  0  0  0  0  0  0  0  0  0
    7.3830   -3.2200   19.3860 C   0  0  0  0  0  0  0  0  0  0  0  0
    5.2740   -4.3050   19.7810 O   0  0  0  0  0  0  0  0  0  0  0  0
    8.3180   -4.5870   23.0540 C   0  0  2  0  0  0  0  0  0  0  0  0
    6.5870   -6.2040   23.1020 C   0  0  0  0  0  0  0  0  0  0  0  0
    7.4910   -5.2750   23.9280 C   0  0  0  0  0  0  0  0  0  0  0  0
    9.4250   -3.9880   23.6180 C   0  0  0  0  0  0  0  0  0  0  0  0
    9.9350   -2.7320   23.1090 N   0  0  0  0  0  0  0  0  0  0  0  0
   10.2980   -4.6660   24.9160 S   0  0  0  0  0  0  0  0  0  0  0  0
   11.4800   -3.4000   24.8430 C   0  0  0  0  0  0  0  0  0  0  0  0
   11.1280   -2.4900   23.8740 C   0  0  0  0  0  0  0  0  0  0  0  0
   11.9350   -1.2630   23.5650 C   0  0  0  0  0  0  0  0  0  0  0  0
   12.6410   -3.2630   25.6060 C   0  0  0  0  0  0  0  0  0  0  0  0
   13.1520   -1.1730   24.4090 C   0  0  0  0  0  0  0  0  0  0  0  0
   13.4640   -2.1660   25.3880 C   0  0  0  0  0  0  0  0  0  0  0  0
  1  2  2  0
  2  3  1  0
  2  4  1  0
  3  5  1  0
  4  6  1  0
  7  5  1  6
  6  8  1  0
  6  9  1  0
  7 10  1  0
  7 11  1  0
  8 12  1  0
  9 13  1  0
 10 14  1  0
 11 15  2  0
 11 16  1  0
 12 17  1  0
 13 17  1  0
 14 18  1  0
 15 19  1  0
 16 20  2  0
 19 21  2  0
 20 21  1  0
 22 18  1  1
 22 23  1  0
 22 24  1  0
 22 25  1  0
 23 26  1  0
 23 27  2  0
 24 28  1  0
 25 29  1  0
 28 30  1  0
 29 30  1  0
 28 31  1  1
 31 32  2  0
 31 33  1  0
 33 34  1  0
 32 35  1  0
 34 35  2  0
 35 36  1  0
 34 37  1  0
 36 38  2  0
 37 39  2  0
 38 39  1  0
M  END
