x0540-x3113-x2608-x0769
     RDKit          3D

 66 69  0  0  0  0  0  0  0  0999 V2000
    6.2380   -1.7920   22.5450 N   0  0  0  0  0  0  0  0  0  0  0  0
    5.5500   -2.6940   21.7160 C   0  0  0  0  0  0  0  0  0  0  0  0
    4.4510   -3.1780   21.9820 O   0  0  0  0  0  0  0  0  0  0  0  0
    7.6440   -2.0290   22.7040 C   0  0  0  0  0  0  0  0  0  0  0  0
    6.0980   -3.1590   20.4280 C   0  0  0  0  0  0  0  0  0  0  0  0
    8.4610   -1.7850   21.6210 C   0  0  0  0  0  0  0  0  0  0  0  0
    8.2200   -2.4970   23.8800 C   0  0  0  0  0  0  0  0  0  0  0  0
    7.2530   -4.1160   20.6270 C   0  0  0  0  0  0  0  0  0  0  0  0
    9.7930   -2.0020   21.7230 C   0  0  0  0  0  0  0  0  0  0  0  0
    9.5700   -2.7100   23.9040 C   0  0  0  0  0  0  0  0  0  0  0  0
   10.3670   -2.4530   22.7930 C   0  0  0  0  0  0  0  0  0  0  0  0
    6.9700   -5.3060   21.4890 N   0  0  0  0  0  0  0  0  0  0  0  0
   11.7850   -2.5740   22.5010 C   0  0  0  0  0  0  0  0  0  0  0  0
    5.5580   -5.7800   21.5490 C   0  0  0  0  0  0  0  0  0  0  0  0
    7.6180   -5.3220   22.8180 C   0  0  0  0  0  0  0  0  0  0  0  0
    4.8190   -5.8410   22.7570 C   0  0  0  0  0  0  0  0  0  0  0  0
    6.7940   -4.8060   23.8320 C   0  0  0  0  0  0  0  0  0  0  0  0
    5.5620   -5.5880   24.0120 N   0  0  0  0  0  0  0  0  0  0  0  0
    4.7750   -5.6300   25.5370 S   0  0  0  0  0  0  0  0  0  0  0  0
    5.7830   -5.6600   26.5630 O   0  0  0  0  0  0  0  0  0  0  0  0
    3.7820   -6.6790   25.4760 O   0  0  0  0  0  0  0  0  0  0  0  0
    3.8770   -4.1170   25.7480 C   0  0  0  0  0  0  0  0  0  0  0  0
    4.6090   -2.8500   26.1180 C   0  0  0  0  0  0  0  0  0  0  0  0
    2.3190   -4.0490   25.5700 C   0  0  0  0  0  0  0  0  0  0  0  0
    5.9300   -2.8120   26.2930 F   0  0  0  0  0  0  0  0  0  0  0  0
    1.6850   -2.8190   25.7610 C   0  0  0  0  0  0  0  0  0  0  0  0
    3.8860   -1.6750   26.2840 C   0  0  0  0  0  0  0  0  0  0  0  0
    2.5090   -1.5690   26.1370 C   0  0  0  0  0  0  0  0  0  0  0  0
    1.9370   -0.2090   26.3610 C   0  0  0  0  0  0  0  0  0  0  0  0
    2.8540    0.8000   25.6870 C   0  0  0  0  0  0  0  0  0  0  0  0
    2.0760    1.8450   25.0660 N   0  0  0  0  0  0  0  0  0  0  0  0
    2.6510    2.5510   23.9110 C   0  0  0  0  0  0  0  0  0  0  0  0
    3.8920    2.1490   23.5240 N   0  0  0  0  0  0  0  0  0  0  0  0
    2.0120    3.5400   23.2560 N   0  0  0  0  0  0  0  0  0  0  0  0
    3.8010    2.3030   22.2030 C   0  0  0  0  0  0  0  0  0  0  0  0
    0.6430    3.9840   23.4290 C   0  0  0  0  0  0  0  0  0  0  0  0
    4.5990    1.5410   21.3890 C   0  0  0  0  0  0  0  0  0  0  0  0
    0.4940    4.8150   24.5450 C   0  0  0  0  0  0  0  0  0  0  0  0
   -0.3690    3.0040   23.3050 C   0  0  0  0  0  0  0  0  0  0  0  0
    4.3610    1.9520   20.0550 C   0  0  0  0  0  0  0  0  0  0  0  0
   -0.7710    4.9790   25.1130 C   0  0  0  0  0  0  0  0  0  0  0  0
   -1.6980    3.3220   23.6040 C   0  0  0  0  0  0  0  0  0  0  0  0
    4.3010    0.9340   18.9140 C   0  0  0  0  0  0  0  0  0  0  0  0
   -1.9660    4.5200   24.2810 C   0  0  0  0  0  0  0  0  0  0  0  0
    5.2610    0.9730   17.9210 C   0  0  0  0  0  0  0  0  0  0  0  0
    5.9270   -0.2270   17.9620 N   0  0  0  0  0  0  0  0  0  0  0  0
    7.0880   -0.0350   18.8180 C   0  0  0  0  0  0  0  0  0  0  0  0
    6.6580    0.5060   20.0230 C   0  0  0  0  0  0  0  0  0  0  0  0
    7.6400    0.6010   21.1160 C   0  0  0  0  0  0  0  0  0  0  0  0
    8.0170    2.0430   21.5590 C   0  0  0  0  0  0  0  0  0  0  0  0
    8.0410    2.3180   22.9170 N   0  0  0  0  0  0  0  0  0  0  0  0
    9.2340    2.8250   23.6380 C   0  0  0  0  0  0  0  0  0  0  0  0
   10.6390    2.3940   23.1450 C   0  0  1  0  0  0  0  0  0  0  0  0
   11.5540    3.4560   23.2720 C   0  0  2  0  0  0  0  0  0  0  0  0
   10.9940    0.9250   23.7220 C   0  0  2  0  0  0  0  0  0  0  0  0
   11.1330    4.6340   22.6360 O   0  0  0  0  0  0  0  0  0  0  0  0
   12.0020   -0.2360   23.2540 C   0  0  0  0  0  0  0  0  0  0  0  0
    9.6100    0.1950   23.2380 S   0  0  0  0  0  0  0  0  0  0  0  0
   12.9220    3.2390   22.6800 C   0  0  0  0  0  0  0  0  0  0  0  0
    9.8610    0.4690   21.8450 O   0  0  0  0  0  0  0  0  0  0  0  0
   12.2110    5.5770   22.5990 C   0  0  0  0  0  0  0  0  0  0  0  0
   12.5160   -1.3980   24.2590 C   0  0  0  0  0  0  0  0  0  0  0  0
   13.2100    1.9310   22.7860 C   0  0  0  0  0  0  0  0  0  0  0  0
   13.6800   -2.0550   23.9770 C   0  0  0  0  0  0  0  0  0  0  0  0
   11.7740   -2.5100   25.0250 C   0  0  0  0  0  0  0  0  0  0  0  0
   12.6510   -0.5090   25.3900 C   0  0  0  0  0  0  0  0  0  0  0  0
  1  2  1  0
  2  3  2  0
  1  4  1  0
  2  5  1  0
  4  6  2  0
  4  7  1  0
  5  8  1  0
  6  9  1  0
  7 10  2  0
  9 11  2  0
 10 11  1  0
  8 12  1  0
 11 13  1  0
 12 14  1  0
 12 15  1  0
 14 16  1  0
 15 17  1  0
 16 18  1  0
 17 18  1  0
 18 19  1  0
 19 20  2  0
 19 21  2  0
 19 22  1  0
 22 23  2  0
 22 24  1  0
 23 25  1  0
 24 26  2  0
 23 27  1  0
 26 28  1  0
 27 28  2  0
 28 29  1  0
 29 30  1  0
 30 31  1  0
 31 32  2  3
 32 33  1  0
 32 34  1  0
 33 35  1  0
 34 36  1  0
 35 37  1  0
 36 38  1  0
 36 39  1  0
 37 40  1  0
 38 41  1  0
 39 42  1  0
 40 43  1  0
 41 44  1  0
 42 44  1  0
 43 45  1  0
 45 46  1  0
 46 47  1  0
 47 48  1  0
 48 49  1  0
 49 50  1  0
 50 51  1  0
 51 52  1  0
 53 52  1  1
 53 54  1  0
 53 55  1  0
 54 56  1  0
 55 57  1  6
 55 58  1  0
 54 59  1  6
 58 60  1  0
 56 61  1  0
 62 57  1  0
 59 63  1  0
 62 64  1  0
 62 65  1  0
 62 66  1  0
M  END
