x0540-x1336
     RDKit          3D

 40 43  0  0  0  0  0  0  0  0999 V2000
    5.8340   -5.0820   29.1080 C   0  0  0  0  0  0  0  0  0  0  0  0
    7.0540   -4.8890   28.1290 C   0  0  0  0  0  0  0  0  0  0  0  0
    8.3480   -5.5920   27.8430 C   0  0  0  0  0  0  0  0  0  0  0  0
    6.7620   -3.6400   27.2890 C   0  0  0  0  0  0  0  0  0  0  0  0
    7.8840   -3.4690   26.4040 C   0  0  0  0  0  0  0  0  0  0  0  0
    9.3190   -5.0820   26.7750 C   0  0  0  0  0  0  0  0  0  0  0  0
    7.4100   -1.9860   25.5010 S   0  0  0  0  0  0  0  0  0  0  0  0
    8.9490   -3.9160   26.0660 C   0  0  0  0  0  0  0  0  0  0  0  0
    8.5010   -1.0380   25.5390 O   0  0  0  0  0  0  0  0  0  0  0  0
    6.0640   -1.5940   25.8600 O   0  0  0  0  0  0  0  0  0  0  0  0
    9.9280   -3.4420   25.0400 C   0  0  0  0  0  0  0  0  0  0  0  0
    7.3240   -2.5680   23.9020 N   0  0  0  0  0  0  0  0  0  0  0  0
    6.3270   -3.5860   23.5330 C   0  0  0  0  0  0  0  0  0  0  0  0
    7.8470   -1.8030   22.8590 C   0  0  1  0  0  0  0  0  0  0  0  0
    6.6180   -4.2830   22.3590 C   0  0  0  0  0  0  0  0  0  0  0  0
    8.0020   -2.4330   21.4950 C   0  0  0  0  0  0  0  0  0  0  0  0
    7.0070   -0.5040   22.6870 C   0  0  0  0  0  0  0  0  0  0  0  0
    6.8410   -3.3230   21.2790 N   0  0  0  0  0  0  0  0  0  0  0  0
    5.5060   -0.7840   22.3910 C   0  0  0  0  0  0  0  0  0  0  0  0
    6.4270   -3.5520   19.9700 C   0  0  0  0  0  0  0  0  0  0  0  0
    4.8620    0.3620   21.9050 C   0  0  1  0  0  0  0  0  0  0  0  0
    5.3640   -4.1330   19.7320 O   0  0  0  0  0  0  0  0  0  0  0  0
    7.3720   -3.1320   18.8680 C   0  0  0  0  0  0  0  0  0  0  0  0
    5.1940    1.5370   22.5690 C   0  0  0  0  0  0  0  0  0  0  0  0
    5.2660    0.5050   20.4380 C   0  0  0  0  0  0  0  0  0  0  0  0
    4.0130    2.4540   22.5220 N   0  0  0  0  0  0  0  0  0  0  0  0
    6.3250   -0.2080   19.9080 C   0  0  0  0  0  0  0  0  0  0  0  0
    4.6330    1.3410   19.5240 C   0  0  0  0  0  0  0  0  0  0  0  0
    2.9780    2.3720   23.3860 C   0  0  0  0  0  0  0  0  0  0  0  0
    6.6710   -0.0530   18.5740 C   0  0  0  0  0  0  0  0  0  0  0  0
    5.0190    1.4690   18.1810 C   0  0  0  0  0  0  0  0  0  0  0  0
    2.9470    1.5300   24.3000 O   0  0  0  0  0  0  0  0  0  0  0  0
    1.8890    3.3330   23.1880 N   0  0  0  0  0  0  0  0  0  0  0  0
    6.1430    0.7100   17.6160 N   0  0  0  0  0  0  0  0  0  0  0  0
    0.6890    3.3260   24.0310 C   0  0  0  0  0  0  0  0  0  0  0  0
    0.5280    4.6380   24.5600 C   0  0  0  0  0  0  0  0  0  0  0  0
   -0.4310    2.7890   23.3880 C   0  0  0  0  0  0  0  0  0  0  0  0
   -0.6840    4.9490   25.1800 C   0  0  0  0  0  0  0  0  0  0  0  0
   -1.8230    3.3380   23.7380 C   0  0  0  0  0  0  0  0  0  0  0  0
   -1.8720    4.6470   24.2070 C   0  0  0  0  0  0  0  0  0  0  0  0
  1  2  1  0
  2  3  2  0
  2  4  1  0
  4  5  2  0
  3  6  1  0
  7  5  1  0
  5  8  1  0
  6  8  2  0
  7  9  2  0
  7 10  2  0
  8 11  1  0
  7 12  1  0
 12 13  1  0
 12 14  1  0
 13 15  1  0
 14 16  1  0
 14 17  1  6
 15 18  1  0
 16 18  1  0
 17 19  1  0
 18 20  1  0
 21 19  1  1
 20 22  2  0
 20 23  1  0
 21 24  1  0
 21 25  1  0
 24 26  1  0
 25 27  2  0
 25 28  1  0
 26 29  1  0
 27 30  1  0
 28 31  2  0
 29 32  2  0
 29 33  1  0
 30 34  2  0
 31 34  1  0
 33 35  1  0
 35 36  1  0
 35 37  1  0
 36 38  1  0
 37 39  1  0
 38 40  1  0
 39 40  1  0
M  END
