x0540-x2694-x2649
     RDKit          3D

 45 48  0  0  0  0  0  0  0  0999 V2000
    7.1510   -1.3620   21.7170 N   0  0  0  0  0  0  0  0  0  0  0  0
    5.8980   -2.2220   21.4940 C   0  0  0  0  0  0  0  0  0  0  0  0
    4.9760   -3.2210   21.2740 O   0  0  0  0  0  0  0  0  0  0  0  0
    6.8460    0.0200   21.5260 C   0  0  1  0  0  0  0  0  0  0  0  0
    8.3550   -1.5890   22.5940 C   0  0  0  0  0  0  0  0  0  0  0  0
    6.8320   -3.4200   21.3990 C   0  0  0  0  0  0  0  0  0  0  0  0
    7.9860    1.1460   21.7760 C   0  0  0  0  0  0  0  0  0  0  0  0
    6.1750    0.4410   20.2550 C   0  0  0  0  0  0  0  0  0  0  0  0
    8.3760   -1.9860   23.8960 N   0  0  0  0  0  0  0  0  0  0  0  0
    9.6510   -1.3760   22.1450 C   0  0  0  0  0  0  0  0  0  0  0  0
    6.6700   -4.0410   20.0050 C   0  0  0  0  0  0  0  0  0  0  0  0
    7.8000    2.0510   22.8320 N   0  0  0  0  0  0  0  0  0  0  0  0
    8.9670    1.2670   21.0580 O   0  0  0  0  0  0  0  0  0  0  0  0
    4.9390    1.0380   20.2300 C   0  0  0  0  0  0  0  0  0  0  0  0
    6.8490    0.2240   19.0840 C   0  0  0  0  0  0  0  0  0  0  0  0
    9.7560   -2.0140   24.2800 O   0  0  0  0  0  0  0  0  0  0  0  0
   10.5690   -1.6150   23.1340 C   0  0  0  0  0  0  0  0  0  0  0  0
   12.1470   -1.5270   23.2000 C   0  0  0  0  0  0  0  0  0  0  0  0
    4.1830    1.2700   21.3810 C   0  0  0  0  0  0  0  0  0  0  0  0
    6.4420    0.5540   17.8660 N   0  0  0  0  0  0  0  0  0  0  0  0
    4.4170    1.4340   18.9790 C   0  0  0  0  0  0  0  0  0  0  0  0
    8.5340    3.2760   23.0500 C   0  0  0  0  0  0  0  0  0  0  0  0
   12.6080   -0.2280   23.4490 C   0  0  0  0  0  0  0  0  0  0  0  0
   12.7640   -2.0170   21.8710 C   0  0  0  0  0  0  0  0  0  0  0  0
   12.6900   -2.4270   24.3360 C   0  0  0  0  0  0  0  0  0  0  0  0
    4.8890    2.0820   22.4960 C   0  0  0  0  0  0  0  0  0  0  0  0
    5.1700    1.1980   17.8110 C   0  0  0  0  0  0  0  0  0  0  0  0
    9.7900    3.1430   23.6700 C   0  0  0  0  0  0  0  0  0  0  0  0
    8.0550    4.5610   22.6800 C   0  0  0  0  0  0  0  0  0  0  0  0
   10.3270    1.7690   24.0810 C   0  0  0  0  0  0  0  0  0  0  0  0
    4.0340    2.9670   23.0160 N   0  0  0  0  0  0  0  0  0  0  0  0
   10.5160    4.3070   23.8920 C   0  0  0  0  0  0  0  0  0  0  0  0
    8.7810    5.7560   22.9070 C   0  0  0  0  0  0  0  0  0  0  0  0
    2.8300    2.5940   23.4900 C   0  0  0  0  0  0  0  0  0  0  0  0
   10.1140    5.5740   23.5710 C   0  0  0  0  0  0  0  0  0  0  0  0
   10.9200    6.6560   23.8550 O   0  0  0  0  0  0  0  0  0  0  0  0
    2.7780    1.5740   24.4940 O   0  0  0  0  0  0  0  0  0  0  0  0
    1.7060    3.1800   23.0160 N   0  0  0  0  0  0  0  0  0  0  0  0
   11.8600    6.5360   24.9230 C   0  0  0  0  0  0  0  0  0  0  0  0
    0.4610    3.3400   23.7810 C   0  0  0  0  0  0  0  0  0  0  0  0
    0.5440    4.6020   24.3930 C   0  0  0  0  0  0  0  0  0  0  0  0
   -0.5750    3.1400   22.8520 C   0  0  0  0  0  0  0  0  0  0  0  0
   -0.5480    4.9230   25.1900 C   0  0  0  0  0  0  0  0  0  0  0  0
   -1.5980    3.1680   23.9990 C   0  0  0  0  0  0  0  0  0  0  0  0
   -1.8610    4.4300   24.5370 C   0  0  0  0  0  0  0  0  0  0  0  0
  1  2  1  0
  2  3  2  0
  1  4  1  0
  1  5  1  0
  2  6  1  0
  4  7  1  6
  4  8  1  0
  5  9  2  0
  5 10  1  0
  6 11  1  0
  7 12  1  0
  7 13  2  0
  8 14  1  0
  8 15  2  0
  9 16  1  0
 10 17  2  0
 16 17  1  0
 17 18  1  0
 14 19  1  0
 15 20  1  0
 14 21  2  0
 12 22  1  0
 18 23  1  0
 18 24  1  0
 18 25  1  0
 19 26  1  0
 20 27  2  0
 21 27  1  0
 22 28  2  0
 22 29  1  0
 28 30  1  0
 26 31  1  0
 28 32  1  0
 29 33  2  0
 31 34  1  0
 32 35  2  0
 33 35  1  0
 35 36  1  0
 34 37  2  0
 34 38  1  0
 36 39  1  0
 38 40  1  0
 40 41  1  0
 40 42  1  0
 41 43  1  0
 42 44  1  0
 43 45  1  0
 44 45  1  0
M  END
