x0540-x2754-x0107-x0426-x3110
     RDKit          3D

 63 68  0  0  0  0  0  0  0  0999 V2000
    8.1630    1.1970   23.1060 N   0  0  0  0  0  0  0  0  0  0  0  0
    8.9270    2.3770   23.0830 C   0  0  0  0  0  0  0  0  0  0  0  0
   10.3670    2.2380   23.4980 C   0  0  0  0  0  0  0  0  0  0  0  0
    8.3570    0.0670   22.1200 C   0  0  2  0  0  0  0  0  0  0  0  0
    9.1230    0.4120   21.2230 O   0  0  0  0  0  0  0  0  0  0  0  0
    6.9860   -0.3650   21.6100 C   0  0  2  0  0  0  0  0  0  0  0  0
    9.2100   -1.2540   22.8290 C   0  0  0  0  0  0  0  0  0  0  0  0
    7.1070   -1.7760   21.5050 N   0  0  0  0  0  0  0  0  0  0  0  0
   11.2060    3.3570   23.4040 C   0  0  0  0  0  0  0  0  0  0  0  0
    6.4650    0.1080   20.4210 C   0  0  0  0  0  0  0  0  0  0  0  0
    9.4560   -2.1580   21.6870 C   0  0  0  0  0  0  0  0  0  0  0  0
   12.0360    3.2530   22.5130 O   0  0  0  0  0  0  0  0  0  0  0  0
   11.1090    4.3400   24.1340 O   0  0  0  0  0  0  0  0  0  0  0  0
    5.2310    0.7660   20.4250 C   0  0  0  0  0  0  0  0  0  0  0  0
    7.0790   -0.0440   19.1560 C   0  0  0  0  0  0  0  0  0  0  0  0
   10.8980   -2.2130   22.1510 C   0  0  0  0  0  0  0  0  0  0  0  0
    8.3050   -1.6820   22.1170 C   0  0  0  0  0  0  0  0  0  0  0  0
    6.1010   -2.7100   22.0450 C   0  0  1  0  0  0  0  0  0  0  0  0
   12.4050    4.5100   21.9330 C   0  0  0  0  0  0  0  0  0  0  0  0
    4.4280    0.9550   21.7030 C   0  0  0  0  0  0  0  0  0  0  0  0
    6.6210    0.4070   17.9500 N   0  0  0  0  0  0  0  0  0  0  0  0
    4.7170    1.2760   19.0710 C   0  0  0  0  0  0  0  0  0  0  0  0
   11.0240   -1.5490   23.5080 C   0  0  0  0  0  0  0  0  0  0  0  0
    8.5630   -1.0740   23.4120 C   0  0  0  0  0  0  0  0  0  0  0  0
    6.3330   -4.0860   21.6100 N   0  0  0  0  0  0  0  0  0  0  0  0
    5.8960   -2.5710   23.4400 C   0  0  0  0  0  0  0  0  0  0  0  0
   13.4220    5.2120   22.8600 C   0  0  0  0  0  0  0  0  0  0  0  0
   12.3950   -1.5080   24.2030 C   0  0  0  0  0  0  0  0  0  0  0  0
    4.9520    1.9770   22.4500 C   0  0  0  0  0  0  0  0  0  0  0  0
    6.0200   -4.3860   20.2710 C   0  0  0  0  0  0  0  0  0  0  0  0
    5.4620    1.0560   17.9480 C   0  0  0  0  0  0  0  0  0  0  0  0
    9.8390   -0.9960   24.1010 C   0  0  0  0  0  0  0  0  0  0  0  0
    5.8060   -3.6830   24.2180 C   0  0  1  0  0  0  0  0  0  0  0  0
    6.1330   -5.2070   22.5520 C   0  0  0  0  0  0  0  0  0  0  0  0
   12.4130   -0.4310   25.0410 C   0  0  0  0  0  0  0  0  0  0  0  0
   13.3950   -1.4860   23.1080 C   0  0  0  0  0  0  0  0  0  0  0  0
   12.5540   -2.8480   24.8180 C   0  0  0  0  0  0  0  0  0  0  0  0
    4.0230    2.8880   22.8190 N   0  0  0  0  0  0  0  0  0  0  0  0
    5.0490   -3.3510   25.5270 C   0  0  0  0  0  0  0  0  0  0  0  0
    5.5720   -3.5750   19.4960 O   0  0  0  0  0  0  0  0  0  0  0  0
    6.2100   -5.7850   19.8210 C   0  0  0  0  0  0  0  0  0  0  0  0
    5.2930   -4.7950   23.5810 C   0  0  0  0  0  0  0  0  0  0  0  0
    2.6990    2.3420   23.1660 C   0  0  1  0  0  0  0  0  0  0  0  0
    3.7080   -3.4210   25.6510 O   0  0  0  0  0  0  0  0  0  0  0  0
    5.7980   -2.9820   26.5710 N   0  0  0  0  0  0  0  0  0  0  0  0
    2.8810    1.0820   23.8650 N   0  0  0  0  0  0  0  0  0  0  0  0
    2.0970    3.3380   24.0280 N   0  0  0  0  0  0  0  0  0  0  0  0
    5.1630   -2.3090   27.7050 C   0  0  0  0  0  0  0  0  0  0  0  0
    7.0670   -3.5480   26.7610 C   0  0  0  0  0  0  0  0  0  0  0  0
    1.8410    0.4290   23.8540 O   0  0  0  0  0  0  0  0  0  0  0  0
    0.7690    3.8880   23.6910 C   0  0  2  0  0  0  0  0  0  0  0  0
    7.2250   -4.6180   27.6280 C   0  0  0  0  0  0  0  0  0  0  0  0
    8.1380   -3.0220   26.0580 C   0  0  0  0  0  0  0  0  0  0  0  0
    0.3970    5.0040   24.6960 C   0  0  1  0  0  0  0  0  0  0  0  0
   -0.1550    2.8520   23.4930 C   0  0  0  0  0  0  0  0  0  0  0  0
    8.5860   -5.2490   27.8320 C   0  0  0  0  0  0  0  0  0  0  0  0
    9.4370   -3.5060   26.1530 C   0  0  0  0  0  0  0  0  0  0  0  0
   -0.9330    4.8750   25.1060 C   0  0  0  0  0  0  0  0  0  0  0  0
   -1.5080    3.1660   23.6960 C   0  0  0  0  0  0  0  0  0  0  0  0
    9.6240   -4.6860   27.1060 C   0  0  0  0  0  0  0  0  0  0  0  0
    1.2890    5.0360   25.9530 C   0  0  0  0  0  0  0  0  0  0  0  0
   -1.8280    4.4570   24.1240 C   0  0  0  0  0  0  0  0  0  0  0  0
    2.5830    4.9970   25.5990 F   0  0  0  0  0  0  0  0  0  0  0  0
  1  2  1  0
  2  3  1  0
  1  4  1  0
  4  5  1  6
  4  6  1  0
  4  7  1  0
  6  8  1  0
  3  9  1  0
  6 10  1  6
  7 11  1  0
  9 12  1  0
  9 13  2  0
 10 14  1  0
 10 15  2  0
 11 16  2  0
  8 17  1  0
 11 17  1  0
 18  8  1  1
 12 19  1  0
 14 20  1  0
 15 21  1  0
 14 22  2  0
 16 23  1  0
 17 24  2  0
 18 25  1  0
 18 26  1  0
 19 27  1  0
 23 28  1  0
 20 29  1  0
 25 30  1  0
 21 31  2  0
 22 31  1  0
 23 32  2  0
 24 32  1  0
 26 33  1  0
 25 34  1  0
 28 35  1  0
 28 36  1  0
 28 37  1  0
 29 38  1  0
 33 39  1  1
 30 40  2  0
 30 41  1  0
 33 42  1  0
 34 42  1  0
 43 38  1  1
 39 44  2  0
 39 45  1  0
 43 46  1  0
 43 47  1  0
 45 48  1  0
 45 49  1  0
 46 50  2  0
 51 47  1  1
 49 52  2  0
 49 53  1  0
 51 54  1  0
 51 55  1  0
 52 56  1  0
 53 57  2  0
 54 58  1  0
 55 59  1  0
 56 60  2  0
 57 60  1  0
 54 61  1  1
 58 62  1  0
 59 62  1  0
 61 63  1  0
M  END
