x0540-x3113
     RDKit          3D

 42 44  0  0  0  0  0  0  0  0999 V2000
    7.0870   -1.8540   21.8540 N   0  0  0  0  0  0  0  0  0  0  0  0
    6.2030   -3.0400   21.5470 C   0  0  0  0  0  0  0  0  0  0  0  0
    4.9360   -3.1380   21.1830 O   0  0  0  0  0  0  0  0  0  0  0  0
    6.7250   -0.4120   21.7020 C   0  0  1  0  0  0  0  0  0  0  0  0
    8.3890   -1.9300   22.4780 C   0  0  0  0  0  0  0  0  0  0  0  0
    6.8680   -4.4000   21.6950 C   0  0  0  0  0  0  0  0  0  0  0  0
    7.9100    0.5990   21.9710 C   0  0  0  0  0  0  0  0  0  0  0  0
    6.2100    0.0420   20.3470 C   0  0  0  0  0  0  0  0  0  0  0  0
    9.4950   -1.5810   21.6870 C   0  0  0  0  0  0  0  0  0  0  0  0
    8.5980   -2.3110   23.8320 C   0  0  0  0  0  0  0  0  0  0  0  0
    8.2490   -4.5450   21.0080 C   0  0  0  0  0  0  0  0  0  0  0  0
    8.0590    1.1790   23.3230 N   0  0  0  0  0  0  0  0  0  0  0  0
    8.6590    0.9230   21.0670 O   0  0  0  0  0  0  0  0  0  0  0  0
    4.9900    0.6930   20.3290 C   0  0  0  0  0  0  0  0  0  0  0  0
    6.9040   -0.1440   19.1520 C   0  0  0  0  0  0  0  0  0  0  0  0
   10.7760   -1.6090   22.2420 C   0  0  0  0  0  0  0  0  0  0  0  0
    9.8640   -2.3500   24.4400 C   0  0  0  0  0  0  0  0  0  0  0  0
    9.0320    2.2980   23.3410 C   0  0  0  0  0  0  0  0  0  0  0  0
    4.2150    0.9150   21.4700 C   0  0  0  0  0  0  0  0  0  0  0  0
    6.4590    0.2970   17.9450 N   0  0  0  0  0  0  0  0  0  0  0  0
    4.4470    1.1800   19.1530 C   0  0  0  0  0  0  0  0  0  0  0  0
   11.1360   -1.9830   23.6830 C   0  0  0  0  0  0  0  0  0  0  0  0
   10.4890    1.7570   23.2310 C   0  0  0  0  0  0  0  0  0  0  0  0
   12.5030   -1.9860   24.3130 C   0  0  0  0  0  0  0  0  0  0  0  0
    4.8690    1.7650   22.3720 C   0  0  0  0  0  0  0  0  0  0  0  0
    5.2810    0.9430   17.9170 C   0  0  0  0  0  0  0  0  0  0  0  0
   11.5610    2.8870   23.3590 C   0  0  0  0  0  0  0  0  0  0  0  0
   13.4120   -2.1020   23.3050 C   0  0  0  0  0  0  0  0  0  0  0  0
   12.8150   -3.1030   25.3300 C   0  0  0  0  0  0  0  0  0  0  0  0
   12.6120   -0.7360   24.9760 C   0  0  0  0  0  0  0  0  0  0  0  0
    3.9940    2.7340   22.7550 N   0  0  0  0  0  0  0  0  0  0  0  0
   11.6430    3.6440   22.4090 O   0  0  0  0  0  0  0  0  0  0  0  0
    2.9150    2.4550   23.5130 C   0  0  0  0  0  0  0  0  0  0  0  0
   12.8030    4.4780   22.4660 C   0  0  0  0  0  0  0  0  0  0  0  0
    2.8650    1.5590   24.3600 O   0  0  0  0  0  0  0  0  0  0  0  0
    1.8940    3.3000   23.2160 N   0  0  0  0  0  0  0  0  0  0  0  0
    0.6970    3.2870   23.9050 C   0  0  0  0  0  0  0  0  0  0  0  0
    0.6150    4.5340   24.5420 C   0  0  0  0  0  0  0  0  0  0  0  0
   -0.5230    2.8770   23.3310 C   0  0  0  0  0  0  0  0  0  0  0  0
   -0.7590    4.9500   25.0620 C   0  0  0  0  0  0  0  0  0  0  0  0
   -1.7430    3.3110   23.8260 C   0  0  0  0  0  0  0  0  0  0  0  0
   -1.8510    4.6390   24.2950 C   0  0  0  0  0  0  0  0  0  0  0  0
  1  2  1  0
  2  3  2  0
  1  4  1  0
  1  5  1  0
  2  6  1  0
  4  7  1  6
  4  8  1  0
  5  9  2  0
  5 10  1  0
  6 11  1  0
  7 12  1  0
  7 13  2  0
  8 14  1  0
  8 15  2  0
  9 16  1  0
 10 17  2  0
 12 18  1  0
 14 19  1  0
 15 20  1  0
 14 21  2  0
 16 22  2  0
 17 22  1  0
 18 23  1  0
 22 24  1  0
 19 25  1  0
 20 26  2  0
 21 26  1  0
 23 27  1  0
 24 28  1  0
 24 29  1  0
 24 30  1  0
 25 31  1  0
 27 32  1  0
 31 33  1  0
 32 34  1  0
 33 35  2  0
 33 36  1  0
 36 37  1  0
 37 38  1  0
 37 39  1  0
 38 40  1  0
 39 41  1  0
 40 42  1  0
 41 42  1  0
M  END
