x0540-x1418-x2694
     RDKit          3D

 52 58  0  0  0  0  0  0  0  0999 V2000
    7.3800    2.7360   22.0940 N   0  0  0  0  0  0  0  0  0  0  0  0
    7.9440    1.5630   21.5760 C   0  0  0  0  0  0  0  0  0  0  0  0
    9.0560    1.5250   21.0860 O   0  0  0  0  0  0  0  0  0  0  0  0
    8.2020    3.7830   22.6340 C   0  0  0  0  0  0  0  0  0  0  0  0
    7.2320    0.1230   21.4660 C   0  0  1  0  0  0  0  0  0  0  0  0
    9.1140    3.3580   23.5730 C   0  0  0  0  0  0  0  0  0  0  0  0
    8.1070    5.2280   22.2460 C   0  0  0  0  0  0  0  0  0  0  0  0
    8.9660    1.9040   23.7330 C   0  0  0  0  0  0  0  0  0  0  0  0
    6.3990    0.3800   20.2140 C   0  0  0  0  0  0  0  0  0  0  0  0
   10.0580    4.3170   24.2490 C   0  0  0  0  0  0  0  0  0  0  0  0
    9.1150    6.1800   22.9810 C   0  0  0  0  0  0  0  0  0  0  0  0
    8.0230   -1.2840   21.5240 C   0  0  1  0  0  0  0  0  0  0  0  0
    5.1470    0.9030   20.3520 C   0  0  0  0  0  0  0  0  0  0  0  0
    6.9910    0.0730   18.8750 C   0  0  0  0  0  0  0  0  0  0  0  0
    8.9340   -1.7090   22.7710 C   0  0  2  0  0  0  0  0  0  0  0  0
   10.0740    5.6320   23.9890 C   0  0  0  0  0  0  0  0  0  0  0  0
    6.9850   -2.4760   21.1150 N   0  0  0  0  0  0  0  0  0  0  0  0
   10.1700    0.7140   23.2580 S   0  0  0  0  0  0  0  0  0  0  0  0
   10.8670    6.6120   24.5270 O   0  0  0  0  0  0  0  0  0  0  0  0
    4.4760    1.2100   21.6840 C   0  0  0  0  0  0  0  0  0  0  0  0
    6.6860   -3.0630   19.8340 C   0  0  0  0  0  0  0  0  0  0  0  0
    6.3460    0.3270   17.7970 N   0  0  0  0  0  0  0  0  0  0  0  0
    4.4700    1.1670   19.1630 C   0  0  0  0  0  0  0  0  0  0  0  0
    7.9070   -1.8640   23.8170 N   0  0  0  0  0  0  0  0  0  0  0  0
   10.0940   -0.9850   23.2560 C   0  0  1  0  0  0  0  0  0  0  0  0
    6.8830   -3.4600   22.0630 C   0  0  0  0  0  0  0  0  0  0  0  0
    9.2980   -3.1160   22.4940 N   0  0  0  0  0  0  0  0  0  0  0  0
   11.7140    0.9720   22.7130 C   0  0  0  0  0  0  0  0  0  0  0  0
   11.9750    6.2200   25.3060 C   0  0  0  0  0  0  0  0  0  0  0  0
    4.4390    2.5870   21.8670 C   0  0  0  0  0  0  0  0  0  0  0  0
    7.6340   -2.9350   18.6650 C   0  0  0  0  0  0  0  0  0  0  0  0
    5.6650   -3.7870   19.6430 O   0  0  0  0  0  0  0  0  0  0  0  0
    7.8390   -3.0220   24.5760 C   0  0  0  0  0  0  0  0  0  0  0  0
    5.0110    0.9160   17.8890 C   0  0  0  0  0  0  0  0  0  0  0  0
    9.8280   -1.0660   24.6380 O   0  0  0  0  0  0  0  0  0  0  0  0
    8.2150   -4.1070   22.3950 C   0  0  0  0  0  0  0  0  0  0  0  0
   11.4890   -1.2340   23.2420 C   0  0  2  0  0  0  0  0  0  0  0  0
   12.3210   -0.2140   22.7460 C   0  0  0  0  0  0  0  0  0  0  0  0
    8.4380   -0.9230   24.7540 C   0  0  0  0  0  0  0  0  0  0  0  0
   12.2140   -2.4320   22.6850 C   0  0  0  0  0  0  0  0  0  0  0  0
    4.0760    2.8190   23.2570 N   0  0  0  0  0  0  0  0  0  0  0  0
    2.8440    2.3270   23.8580 C   0  0  0  0  0  0  0  0  0  0  0  0
   13.4800   -2.6260   23.5140 C   0  0  0  0  0  0  0  0  0  0  0  0
    2.7670    1.3880   24.6550 O   0  0  0  0  0  0  0  0  0  0  0  0
    1.7710    3.1750   23.3300 N   0  0  0  0  0  0  0  0  0  0  0  0
   13.1420   -2.8340   24.8530 C   0  0  0  0  0  0  0  0  0  0  0  0
    0.5880    3.3410   24.0090 C   0  0  0  0  0  0  0  0  0  0  0  0
    0.5710    4.6470   24.5040 C   0  0  0  0  0  0  0  0  0  0  0  0
   -0.4140    3.0420   23.1550 C   0  0  0  0  0  0  0  0  0  0  0  0
   -0.6180    4.9450   25.1670 C   0  0  0  0  0  0  0  0  0  0  0  0
   -1.7590    3.3260   23.7630 C   0  0  0  0  0  0  0  0  0  0  0  0
   -1.8270    4.6320   24.2570 C   0  0  0  0  0  0  0  0  0  0  0  0
  1  2  1  0
  2  3  2  0
  1  4  1  0
  2  5  1  0
  4  6  2  0
  4  7  1  0
  6  8  1  0
  5  9  1  6
  6 10  1  0
  7 11  2  0
  5 12  1  0
  9 13  1  0
  9 14  2  0
 12 15  1  0
 10 16  2  0
 11 16  1  0
 12 17  1  1
  8 18  2  0
 16 19  1  0
 13 20  1  0
 17 21  1  0
 14 22  1  0
 13 23  2  0
 15 24  1  0
 15 25  1  0
 18 25  1  0
 17 26  1  0
 15 27  1  6
 18 28  1  0
 19 29  1  0
 20 30  1  0
 21 31  1  0
 21 32  2  0
 24 33  1  0
 22 34  2  0
 23 34  1  0
 25 35  1  1
 26 36  1  0
 27 36  1  0
 25 37  1  0
 28 38  2  0
 37 38  1  0
 24 39  1  0
 35 39  1  0
 37 40  1  6
 30 41  1  0
 41 42  1  0
 40 43  1  0
 42 44  2  0
 42 45  1  0
 43 46  1  0
 45 47  1  0
 47 48  1  0
 47 49  1  0
 48 50  1  0
 49 51  1  0
 50 52  1  0
 51 52  1  0
M  END
