x0540-x0734
     RDKit          3D

 38 41  0  0  0  0  0  0  0  0999 V2000
    5.2000   -4.8360   26.2600 N   0  0  0  0  0  0  0  0  0  0  0  0
    6.6670   -4.9390   26.2210 C   0  0  0  0  0  0  0  0  0  0  0  0
    7.2610   -5.3390   27.4180 C   0  0  0  0  0  0  0  0  0  0  0  0
    4.5620   -5.6820   25.6160 O   0  0  0  0  0  0  0  0  0  0  0  0
    4.7070   -3.8270   26.7810 O   0  0  0  0  0  0  0  0  0  0  0  0
    7.4150   -4.6570   25.0710 C   0  0  0  0  0  0  0  0  0  0  0  0
    8.8160   -4.7750   25.0840 C   0  0  0  0  0  0  0  0  0  0  0  0
    8.6320   -5.4590   27.4520 C   0  0  0  0  0  0  0  0  0  0  0  0
    6.7820   -4.2650   23.9230 N   0  0  0  0  0  0  0  0  0  0  0  0
    9.3710   -5.1750   26.2900 C   0  0  0  0  0  0  0  0  0  0  0  0
    6.0890   -5.1740   23.1820 C   0  0  0  0  0  0  0  0  0  0  0  0
    7.1630   -3.0730   23.3010 C   0  0  2  0  0  0  0  0  0  0  0  0
    5.9280   -2.2050   23.1070 C   0  0  0  0  0  0  0  0  0  0  0  0
    6.4940   -5.4520   21.8870 C   0  0  0  0  0  0  0  0  0  0  0  0
    7.6520   -3.5170   22.0840 C   0  0  0  0  0  0  0  0  0  0  0  0
    6.2770   -0.7030   22.8570 C   0  0  0  0  0  0  0  0  0  0  0  0
    6.8620   -4.2880   21.3110 N   0  0  0  0  0  0  0  0  0  0  0  0
    6.3310   -3.9320   20.0640 C   0  0  0  0  0  0  0  0  0  0  0  0
    5.2270    0.1880   22.1080 C   0  0  1  0  0  0  0  0  0  0  0  0
    5.1900   -4.2260   19.7300 O   0  0  0  0  0  0  0  0  0  0  0  0
    7.2780   -3.2010   19.1120 C   0  0  0  0  0  0  0  0  0  0  0  0
    5.1470    1.5310   22.8240 C   0  0  0  0  0  0  0  0  0  0  0  0
    5.4960    0.3390   20.6430 C   0  0  0  0  0  0  0  0  0  0  0  0
    3.9770    2.2940   22.4760 N   0  0  0  0  0  0  0  0  0  0  0  0
    6.6730   -0.3930   20.0370 C   0  0  0  0  0  0  0  0  0  0  0  0
    4.6620    1.2040   19.6700 C   0  0  0  0  0  0  0  0  0  0  0  0
    2.8590    2.3690   23.4190 C   0  0  0  0  0  0  0  0  0  0  0  0
    6.9590   -0.2900   18.7200 C   0  0  0  0  0  0  0  0  0  0  0  0
    4.9840    1.3040   18.2890 C   0  0  0  0  0  0  0  0  0  0  0  0
    2.8030    1.5920   24.3810 O   0  0  0  0  0  0  0  0  0  0  0  0
    1.8810    3.3280   23.2020 N   0  0  0  0  0  0  0  0  0  0  0  0
    6.1390    0.5480   17.8060 N   0  0  0  0  0  0  0  0  0  0  0  0
    0.6270    3.3580   23.9440 C   0  0  0  0  0  0  0  0  0  0  0  0
    0.5680    4.6490   24.5050 C   0  0  0  0  0  0  0  0  0  0  0  0
   -0.4990    3.0250   23.1950 C   0  0  0  0  0  0  0  0  0  0  0  0
   -0.7840    4.9330   25.2100 C   0  0  0  0  0  0  0  0  0  0  0  0
   -1.7330    3.3280   23.8100 C   0  0  0  0  0  0  0  0  0  0  0  0
   -1.8540    4.5680   24.4190 C   0  0  0  0  0  0  0  0  0  0  0  0
  1  2  1  0
  2  3  2  0
  1  4  2  0
  1  5  1  0
  2  6  1  0
  6  7  2  0
  3  8  1  0
  6  9  1  0
  7 10  1  0
  8 10  2  0
  9 11  1  0
  9 12  1  0
 12 13  1  6
 11 14  1  0
 12 15  1  0
 13 16  1  0
 14 17  1  0
 15 17  1  0
 17 18  1  0
 19 16  1  1
 18 20  2  0
 18 21  1  0
 19 22  1  0
 19 23  1  0
 22 24  1  0
 23 25  2  0
 23 26  1  0
 24 27  1  0
 25 28  1  0
 26 29  2  0
 27 30  2  0
 27 31  1  0
 28 32  2  0
 29 32  1  0
 31 33  1  0
 33 34  1  0
 33 35  1  0
 34 36  1  0
 35 37  1  0
 36 38  1  0
 37 38  1  0
M  CHG  2   1   1   5  -1
M  END
