x0540-x3110-x0786-x1478
     RDKit          3D

 59 63  0  0  0  0  0  0  0  0999 V2000
    8.0220    1.1340   23.1710 N   0  0  0  0  0  0  0  0  0  0  0  0
    8.8850    2.2050   23.4920 C   0  0  0  0  0  0  0  0  0  0  0  0
   10.2570    2.0410   23.5170 C   0  0  0  0  0  0  0  0  0  0  0  0
    7.7920    0.7060   21.7680 C   0  0  0  0  0  0  0  0  0  0  0  0
    8.4960    1.2380   20.8970 O   0  0  0  0  0  0  0  0  0  0  0  0
    6.7430   -0.2310   21.4910 C   0  0  2  0  0  0  0  0  0  0  0  0
    7.1250   -1.6660   21.5840 N   0  0  0  0  0  0  0  0  0  0  0  0
   10.9750    3.2380   23.4170 C   0  0  0  0  0  0  0  0  0  0  0  0
    6.1380    0.2410   20.1910 C   0  0  0  0  0  0  0  0  0  0  0  0
   11.8290    3.1420   22.5410 O   0  0  0  0  0  0  0  0  0  0  0  0
   10.7900    4.2590   24.0960 O   0  0  0  0  0  0  0  0  0  0  0  0
    6.2560   -2.8660   21.4710 C   0  0  0  0  0  0  0  0  0  0  0  0
    4.9740    0.9020   20.1600 C   0  0  0  0  0  0  0  0  0  0  0  0
    6.7860    0.0160   19.0620 C   0  0  0  0  0  0  0  0  0  0  0  0
    8.3680   -1.6870   22.3300 C   0  0  0  0  0  0  0  0  0  0  0  0
   12.3070    4.3970   22.0420 C   0  0  0  0  0  0  0  0  0  0  0  0
    4.9930   -3.1460   21.0040 O   0  0  0  0  0  0  0  0  0  0  0  0
    7.0650   -3.9720   22.1070 C   0  0  2  0  0  0  0  0  0  0  0  0
    4.1210    1.2200   21.4020 C   0  0  0  0  0  0  0  0  0  0  0  0
    6.3920    0.4040   17.8900 N   0  0  0  0  0  0  0  0  0  0  0  0
    4.4990    1.3420   18.9480 C   0  0  0  0  0  0  0  0  0  0  0  0
    9.5040   -2.1250   21.6760 C   0  0  0  0  0  0  0  0  0  0  0  0
    8.5380   -1.2860   23.6660 C   0  0  0  0  0  0  0  0  0  0  0  0
   13.4040    5.1960   22.7800 C   0  0  0  0  0  0  0  0  0  0  0  0
    7.7970   -5.0300   21.1770 C   0  0  0  0  0  0  0  0  0  0  0  0
    4.8500    1.8580   22.4230 C   0  0  0  0  0  0  0  0  0  0  0  0
    5.2220    1.0970   17.7860 C   0  0  0  0  0  0  0  0  0  0  0  0
   10.8900   -2.1550   22.3260 C   0  0  0  0  0  0  0  0  0  0  0  0
    9.7950   -1.3060   24.2800 C   0  0  0  0  0  0  0  0  0  0  0  0
    6.1330   -4.3400   23.2740 C   0  0  0  0  0  0  0  0  0  0  0  0
    4.0390    2.9370   22.9480 N   0  0  0  0  0  0  0  0  0  0  0  0
   11.0860   -1.7480   23.6110 C   0  0  0  0  0  0  0  0  0  0  0  0
    5.2220   -5.5250   23.2200 C   0  0  0  0  0  0  0  0  0  0  0  0
    6.1470   -3.5190   24.3900 C   0  0  0  0  0  0  0  0  0  0  0  0
   12.5090   -1.7610   24.2200 C   0  0  0  0  0  0  0  0  0  0  0  0
    2.8160    2.5340   23.6380 C   0  0  0  0  0  0  0  0  0  0  0  0
    5.2980   -6.4400   21.8050 Cl  0  0  0  0  0  0  0  0  0  0  0  0
    4.3890   -5.8000   24.2930 C   0  0  0  0  0  0  0  0  0  0  0  0
    5.3260   -3.7670   25.4770 C   0  0  0  0  0  0  0  0  0  0  0  0
   12.5550   -0.6530   25.0550 C   0  0  0  0  0  0  0  0  0  0  0  0
   13.4160   -1.8010   23.1520 C   0  0  0  0  0  0  0  0  0  0  0  0
   12.9040   -2.9790   25.0540 C   0  0  0  0  0  0  0  0  0  0  0  0
    2.7660    1.4870   24.6010 O   0  0  0  0  0  0  0  0  0  0  0  0
    1.7760    3.2900   23.2310 N   0  0  0  0  0  0  0  0  0  0  0  0
    3.4580   -6.9640   24.3120 C   0  0  0  0  0  0  0  0  0  0  0  0
    4.4490   -4.8560   25.4940 C   0  0  0  0  0  0  0  0  0  0  0  0
    3.9150   -8.0200   24.7270 O   0  0  0  0  0  0  0  0  0  0  0  0
    0.5500    3.3300   24.0250 C   0  0  0  0  0  0  0  0  0  0  0  0
    2.0550   -6.7950   23.8670 N   0  0  0  0  0  0  0  0  0  0  0  0
    0.4020    4.6070   24.5810 C   0  0  0  0  0  0  0  0  0  0  0  0
   -0.6530    2.8750   23.2870 C   0  0  0  0  0  0  0  0  0  0  0  0
    1.5080   -5.5750   23.2960 C   0  0  0  0  0  0  0  0  0  0  0  0
    1.1760   -7.8940   23.9300 C   0  0  0  0  0  0  0  0  0  0  0  0
   -0.8120    4.9040   25.1980 C   0  0  0  0  0  0  0  0  0  0  0  0
   -1.9450    3.3520   23.9610 C   0  0  0  0  0  0  0  0  0  0  0  0
    0.3970   -5.0530   24.2300 C   0  0  0  0  0  0  0  0  0  0  0  0
    0.1960   -7.6910   24.8970 C   0  0  0  0  0  0  0  0  0  0  0  0
   -1.8400    4.7530   24.0640 C   0  0  0  0  0  0  0  0  0  0  0  0
   -0.9020   -6.3030   24.4370 S   0  0  0  0  0  0  0  0  0  0  0  0
  1  2  1  0
  2  3  1  0
  1  4  1  0
  4  5  2  0
  6  4  1  6
  6  7  1  0
  3  8  1  0
  6  9  1  0
  8 10  1  0
  8 11  2  0
  7 12  1  0
  9 13  1  0
  9 14  2  0
  7 15  1  0
 10 16  1  0
 12 17  2  0
 12 18  1  0
 13 19  1  0
 14 20  1  0
 13 21  2  0
 15 22  2  0
 15 23  1  0
 16 24  1  0
 18 25  1  6
 19 26  1  0
 20 27  2  0
 21 27  1  0
 22 28  1  0
 23 29  2  0
 18 30  1  0
 26 31  1  0
 28 32  2  0
 29 32  1  0
 30 33  2  0
 30 34  1  0
 32 35  1  0
 31 36  1  0
 33 37  1  0
 33 38  1  0
 34 39  2  0
 35 40  1  0
 35 41  1  0
 35 42  1  0
 36 43  2  0
 36 44  1  0
 38 45  1  0
 38 46  2  0
 39 46  1  0
 45 47  2  0
 44 48  1  0
 45 49  1  0
 48 50  1  0
 48 51  1  0
 49 52  1  0
 49 53  1  0
 50 54  1  0
 51 55  1  0
 52 56  1  0
 53 57  1  0
 54 58  1  0
 55 58  1  0
 56 59  1  0
 57 59  1  0
M  END
