x0540-x2705-x3115
     RDKit          3D

 46 49  0  0  0  0  0  0  0  0999 V2000
    7.0630   -1.6270   21.7140 N   0  0  0  0  0  0  0  0  0  0  0  0
    6.1880   -2.8590   21.5730 C   0  0  0  0  0  0  0  0  0  0  0  0
    4.8960   -3.0880   21.2290 O   0  0  0  0  0  0  0  0  0  0  0  0
    6.7200   -0.3130   21.4510 C   0  0  1  0  0  0  0  0  0  0  0  0
    8.2570   -1.6640   22.4790 C   0  0  0  0  0  0  0  0  0  0  0  0
    6.9270   -4.1400   21.8520 C   0  0  0  0  0  0  0  0  0  0  0  0
    7.8140    0.7320   21.8010 C   0  0  0  0  0  0  0  0  0  0  0  0
    6.1300    0.1850   20.1840 C   0  0  0  0  0  0  0  0  0  0  0  0
    8.2790   -1.7300   23.8640 N   0  0  0  0  0  0  0  0  0  0  0  0
    9.7350   -1.6000   22.0320 C   0  0  0  0  0  0  0  0  0  0  0  0
    6.8980   -4.9430   20.5760 C   0  0  0  0  0  0  0  0  0  0  0  0
    7.5680    1.8340   22.7860 N   0  0  0  0  0  0  0  0  0  0  0  0
    8.8940    0.6910   21.2440 O   0  0  0  0  0  0  0  0  0  0  0  0
    4.9130    0.8120   20.1500 C   0  0  0  0  0  0  0  0  0  0  0  0
    6.8280    0.0410   18.9930 C   0  0  0  0  0  0  0  0  0  0  0  0
    9.6040   -1.7050   24.2790 N   0  0  0  0  0  0  0  0  0  0  0  0
   10.4930   -1.6250   23.1360 C   0  0  0  0  0  0  0  0  0  0  0  0
   12.1150   -1.5720   23.2100 C   0  0  0  0  0  0  0  0  0  0  0  0
    4.0680    1.0240   21.3360 C   0  0  0  0  0  0  0  0  0  0  0  0
    6.4340    0.4810   17.7730 N   0  0  0  0  0  0  0  0  0  0  0  0
    4.4310    1.3210   18.8250 C   0  0  0  0  0  0  0  0  0  0  0  0
    8.2760    3.1410   22.9260 C   0  0  0  0  0  0  0  0  0  0  0  0
   12.5280   -0.4080   23.8620 C   0  0  0  0  0  0  0  0  0  0  0  0
   12.6290   -2.7860   23.9930 C   0  0  0  0  0  0  0  0  0  0  0  0
   12.6960   -1.6570   21.9550 C   0  0  0  0  0  0  0  0  0  0  0  0
    4.7210    1.6810   22.5360 C   0  0  0  0  0  0  0  0  0  0  0  0
    5.2560    1.1140   17.7220 C   0  0  0  0  0  0  0  0  0  0  0  0
    9.5700    3.1960   23.5160 C   0  0  0  0  0  0  0  0  0  0  0  0
    7.5410    4.4450   22.4040 C   0  0  0  0  0  0  0  0  0  0  0  0
   10.2310    1.8940   23.9950 C   0  0  0  0  0  0  0  0  0  0  0  0
    6.1790    4.4360   21.7690 C   0  0  0  0  0  0  0  0  0  0  0  0
   13.4440   -2.5510   25.2180 C   0  0  0  0  0  0  0  0  0  0  0  0
    3.9220    2.7950   22.9620 N   0  0  0  0  0  0  0  0  0  0  0  0
   10.2920    4.5680   23.6660 C   0  0  0  0  0  0  0  0  0  0  0  0
    8.2730    5.7920   22.5620 C   0  0  0  0  0  0  0  0  0  0  0  0
    9.3620    1.2200   24.8700 C   0  0  0  0  0  0  0  0  0  0  0  0
    2.7130    2.4650   23.6910 C   0  0  0  0  0  0  0  0  0  0  0  0
    9.6420    5.8670   23.1890 C   0  0  0  0  0  0  0  0  0  0  0  0
    2.7120    1.4720   24.6540 O   0  0  0  0  0  0  0  0  0  0  0  0
    1.6700    3.2150   23.3100 N   0  0  0  0  0  0  0  0  0  0  0  0
    0.4460    3.3070   24.0830 C   0  0  0  0  0  0  0  0  0  0  0  0
    0.3460    4.7780   24.4940 C   0  0  0  0  0  0  0  0  0  0  0  0
   -0.7320    2.9620   23.1610 C   0  0  0  0  0  0  0  0  0  0  0  0
   -0.9400    5.0210   25.2770 C   0  0  0  0  0  0  0  0  0  0  0  0
   -2.0550    3.3000   23.8470 C   0  0  0  0  0  0  0  0  0  0  0  0
   -2.1190    4.7390   24.3370 C   0  0  0  0  0  0  0  0  0  0  0  0
  1  2  1  0
  2  3  2  0
  1  4  1  0
  1  5  1  0
  2  6  1  0
  4  7  1  6
  4  8  1  0
  5  9  2  0
  5 10  1  0
  6 11  1  0
  7 12  1  0
  7 13  2  0
  8 14  1  0
  8 15  2  0
  9 16  1  0
 10 17  2  0
 16 17  1  0
 17 18  1  0
 14 19  1  0
 15 20  1  0
 14 21  2  0
 12 22  1  0
 18 23  1  0
 18 24  1  0
 18 25  1  0
 19 26  1  0
 20 27  2  0
 21 27  1  0
 22 28  2  0
 22 29  1  0
 28 30  1  0
 29 31  1  0
 24 32  1  0
 26 33  1  0
 28 34  1  0
 29 35  2  0
 30 36  1  0
 33 37  1  0
 34 38  2  0
 35 38  1  0
 37 39  2  0
 37 40  1  0
 40 41  1  0
 41 42  1  0
 41 43  1  0
 42 44  1  0
 43 45  1  0
 44 46  1  0
 45 46  1  0
M  END
