x0540-x0759
     RDKit          3D

 36 39  0  0  0  0  0  0  0  0999 V2000
    2.7780    1.3770   24.6670 O   0  0  0  0  0  0  0  0  0  0  0  0
    2.9320    2.2500   23.5360 C   0  0  0  0  0  0  0  0  0  0  0  0
    4.1370    2.2350   22.6630 N   0  0  0  0  0  0  0  0  0  0  0  0
    1.9690    3.1930   23.1340 N   0  0  0  0  0  0  0  0  0  0  0  0
    5.0020    1.1280   22.5560 C   0  0  0  0  0  0  0  0  0  0  0  0
    0.7080    3.3790   23.9090 C   0  0  0  0  0  0  0  0  0  0  0  0
    4.5290    0.1030   21.5170 C   0  0  2  0  0  0  0  0  0  0  0  0
    0.7600    4.7390   24.6460 C   0  0  0  0  0  0  0  0  0  0  0  0
   -0.3640    3.0650   23.0280 C   0  0  0  0  0  0  0  0  0  0  0  0
    4.7980   -1.3920   21.8090 C   0  0  0  0  0  0  0  0  0  0  0  0
    5.0960    0.4230   20.1670 C   0  0  0  0  0  0  0  0  0  0  0  0
   -0.6650    5.1350   25.0940 C   0  0  0  0  0  0  0  0  0  0  0  0
   -1.6500    3.2720   23.5620 C   0  0  0  0  0  0  0  0  0  0  0  0
    5.9160   -2.0190   22.4370 C   0  0  0  0  0  0  0  0  0  0  0  0
    6.3020   -0.1990   19.7940 C   0  0  0  0  0  0  0  0  0  0  0  0
    4.5150    1.2830   19.2500 C   0  0  0  0  0  0  0  0  0  0  0  0
   -1.5660    4.3400   24.4130 C   0  0  0  0  0  0  0  0  0  0  0  0
    6.9290   -0.0000   18.5700 C   0  0  0  0  0  0  0  0  0  0  0  0
    5.1630    1.5250   17.9230 C   0  0  0  0  0  0  0  0  0  0  0  0
    6.8040   -3.0840   21.6570 C   0  0  1  0  0  0  0  0  0  0  0  0
    6.4650   -3.4590   20.1290 C   0  0  0  0  0  0  0  0  0  0  0  0
    6.3870    0.8460   17.6320 N   0  0  0  0  0  0  0  0  0  0  0  0
    8.1300   -2.6870   21.6800 C   0  0  0  0  0  0  0  0  0  0  0  0
    6.7050   -4.3860   22.4970 C   0  0  0  0  0  0  0  0  0  0  0  0
    5.4890   -4.1870   19.8430 O   0  0  0  0  0  0  0  0  0  0  0  0
    7.3760   -3.0310   18.9680 C   0  0  0  0  0  0  0  0  0  0  0  0
    8.5520   -2.4870   22.9490 C   0  0  1  0  0  0  0  0  0  0  0  0
    7.4340   -4.4060   23.6940 C   0  0  0  0  0  0  0  0  0  0  0  0
    8.6580   -3.6900   23.5630 O   0  0  0  0  0  0  0  0  0  0  0  0
    9.6740   -1.6850   23.1380 C   0  0  0  0  0  0  0  0  0  0  0  0
    9.6430   -0.6690   24.1470 C   0  0  0  0  0  0  0  0  0  0  0  0
   10.8130   -1.8590   22.3410 C   0  0  0  0  0  0  0  0  0  0  0  0
   10.7560    0.1410   24.3060 C   0  0  0  0  0  0  0  0  0  0  0  0
   12.0330   -0.9790   22.5160 C   0  0  0  0  0  0  0  0  0  0  0  0
   12.0390    0.0070   23.4550 C   0  0  0  0  0  0  0  0  0  0  0  0
   13.0770    0.7910   23.6160 F   0  0  0  0  0  0  0  0  0  0  0  0
  1  2  2  0
  2  3  1  0
  2  4  1  0
  3  5  1  0
  4  6  1  0
  7  5  1  1
  6  8  1  0
  6  9  1  0
  7 10  1  0
  7 11  1  0
  8 12  1  0
  9 13  1  0
 10 14  1  0
 11 15  2  0
 11 16  1  0
 12 17  1  0
 13 17  1  0
 15 18  1  0
 16 19  2  0
 20 14  1  1
 20 21  1  0
 18 22  2  0
 19 22  1  0
 20 23  1  0
 20 24  1  0
 21 25  2  0
 21 26  1  0
 23 27  1  0
 24 28  1  0
 27 29  1  0
 28 29  1  0
 27 30  1  6
 30 31  2  0
 30 32  1  0
 31 33  1  0
 32 34  2  0
 33 35  2  0
 34 35  1  0
 35 36  1  0
M  END
