x0540-x0691
     RDKit          3D

 38 41  0  0  0  0  0  0  0  0999 V2000
    3.9920   -6.6730   25.9340 O   0  0  0  0  0  0  0  0  0  0  0  0
    4.7260   -5.4360   25.7780 S   0  0  0  0  0  0  0  0  0  0  0  0
    5.7920   -5.1040   26.6970 O   0  0  0  0  0  0  0  0  0  0  0  0
    3.5670   -4.1860   25.8000 C   0  0  0  0  0  0  0  0  0  0  0  0
    5.4040   -5.4270   24.2350 N   0  0  0  0  0  0  0  0  0  0  0  0
    4.0560   -2.9150   26.0080 C   0  0  0  0  0  0  0  0  0  0  0  0
    2.0730   -4.4240   25.6180 C   0  0  0  0  0  0  0  0  0  0  0  0
    4.6480   -5.9030   23.1740 C   0  0  0  0  0  0  0  0  0  0  0  0
    6.2140   -4.3920   23.9650 C   0  0  0  0  0  0  0  0  0  0  0  0
    3.0430   -1.7570   26.0600 C   0  0  0  0  0  0  0  0  0  0  0  0
    1.1570   -3.3610   25.6660 C   0  0  0  0  0  0  0  0  0  0  0  0
    5.5350   -6.3420   22.2050 C   0  0  0  0  0  0  0  0  0  0  0  0
    7.1520   -4.8950   23.0510 C   0  0  0  0  0  0  0  0  0  0  0  0
    3.2930   -0.5400   26.2540 O   0  0  0  0  0  0  0  0  0  0  0  0
    1.6610   -2.0410   25.8920 C   0  0  0  0  0  0  0  0  0  0  0  0
    6.4970   -5.2650   21.9610 N   0  0  0  0  0  0  0  0  0  0  0  0
    6.4480   -4.5670   20.7360 C   0  0  0  0  0  0  0  0  0  0  0  0
    3.7560    0.3950   25.2160 C   0  0  0  0  0  0  0  0  0  0  0  0
    5.4730   -4.6770   19.9740 O   0  0  0  0  0  0  0  0  0  0  0  0
    7.6640   -3.6820   20.4640 C   0  0  0  0  0  0  0  0  0  0  0  0
    2.7420    1.2780   24.5560 N   0  0  0  0  0  0  0  0  0  0  0  0
    3.0840    2.3440   23.5720 C   0  0  0  0  0  0  0  0  0  0  0  0
    4.3800    2.6230   23.1660 N   0  0  0  0  0  0  0  0  0  0  0  0
    1.8710    3.0710   23.0910 N   0  0  0  0  0  0  0  0  0  0  0  0
    5.3660    1.6560   22.6210 C   0  0  0  0  0  0  0  0  0  0  0  0
    0.6620    3.2300   23.9200 C   0  0  0  0  0  0  0  0  0  0  0  0
    4.7740    0.4970   21.7870 C   0  0  0  0  0  0  0  0  0  0  0  0
    0.6850    4.5030   24.5100 C   0  0  0  0  0  0  0  0  0  0  0  0
   -0.4360    2.9970   23.0850 C   0  0  0  0  0  0  0  0  0  0  0  0
    5.3240    0.4930   20.3940 C   0  0  0  0  0  0  0  0  0  0  0  0
   -0.5560    4.9350   25.0140 C   0  0  0  0  0  0  0  0  0  0  0  0
   -1.6560    3.1900   23.7180 C   0  0  0  0  0  0  0  0  0  0  0  0
    6.4100   -0.3010   20.0580 C   0  0  0  0  0  0  0  0  0  0  0  0
    4.6940    1.3450   19.3870 C   0  0  0  0  0  0  0  0  0  0  0  0
   -1.6970    4.4290   24.3690 C   0  0  0  0  0  0  0  0  0  0  0  0
    6.8910   -0.2880   18.7840 C   0  0  0  0  0  0  0  0  0  0  0  0
    5.1500    1.3990   18.0630 C   0  0  0  0  0  0  0  0  0  0  0  0
    6.3120    0.5470   17.7110 N   0  0  0  0  0  0  0  0  0  0  0  0
  1  2  2  0
  2  3  2  0
  2  4  1  0
  2  5  1  0
  4  6  2  0
  4  7  1  0
  5  8  1  0
  5  9  1  0
  6 10  1  0
  7 11  2  0
  8 12  1  0
  9 13  1  0
 10 14  1  0
 10 15  2  0
 11 15  1  0
 12 16  1  0
 13 16  1  0
 16 17  1  0
 14 18  1  0
 17 19  2  0
 17 20  1  0
 18 21  1  0
 21 22  2  3
 22 23  1  0
 22 24  1  0
 23 25  1  0
 24 26  1  0
 25 27  1  0
 26 28  1  0
 26 29  1  0
 27 30  1  0
 28 31  1  0
 29 32  1  0
 30 33  2  0
 30 34  1  0
 31 35  1  0
 32 35  1  0
 33 36  1  0
 34 37  2  0
 36 38  2  0
 37 38  1  0
M  END
