x0540-x1412
     RDKit          3D

 35 38  0  0  0  0  0  0  0  0999 V2000
    2.8580    1.3670   24.6160 O   0  0  0  0  0  0  0  0  0  0  0  0
    2.9030    2.2520   23.4830 C   0  0  0  0  0  0  0  0  0  0  0  0
    4.0160    2.2580   22.5020 N   0  0  0  0  0  0  0  0  0  0  0  0
    1.9050    3.1920   23.1760 N   0  0  0  0  0  0  0  0  0  0  0  0
    5.2010    1.5310   22.6650 C   0  0  0  0  0  0  0  0  0  0  0  0
    0.6960    3.3140   24.0310 C   0  0  0  0  0  0  0  0  0  0  0  0
    5.2100    0.1550   21.9850 C   0  0  2  0  0  0  0  0  0  0  0  0
    0.7090    4.7020   24.6660 C   0  0  0  0  0  0  0  0  0  0  0  0
   -0.3790    3.0940   23.1640 C   0  0  0  0  0  0  0  0  0  0  0  0
    6.1700   -0.8870   22.6870 C   0  0  0  0  0  0  0  0  0  0  0  0
    5.4810    0.4060   20.4900 C   0  0  0  0  0  0  0  0  0  0  0  0
   -0.7430    4.9520   25.1220 C   0  0  0  0  0  0  0  0  0  0  0  0
   -1.6180    3.3140   23.7560 C   0  0  0  0  0  0  0  0  0  0  0  0
    6.6120   -0.1400   19.8770 C   0  0  0  0  0  0  0  0  0  0  0  0
    4.6470    1.1750   19.6730 C   0  0  0  0  0  0  0  0  0  0  0  0
   -1.7180    4.6380   24.1600 C   0  0  0  0  0  0  0  0  0  0  0  0
    7.1970   -1.7460   21.8070 C   0  0  2  0  0  0  0  0  0  0  0  0
    6.9550    0.0160   18.5490 C   0  0  0  0  0  0  0  0  0  0  0  0
    4.9810    1.3880   18.2020 C   0  0  0  0  0  0  0  0  0  0  0  0
    6.5540   -2.9960   21.3830 N   0  0  0  0  0  0  0  0  0  0  0  0
    8.4410   -2.0990   22.3950 C   0  0  0  0  0  0  0  0  0  0  0  0
    6.3650   -3.4330   20.0490 C   0  0  0  0  0  0  0  0  0  0  0  0
    6.1720    0.7590   17.7120 N   0  0  0  0  0  0  0  0  0  0  0  0
    8.5600   -3.1060   23.2810 N   0  0  0  0  0  0  0  0  0  0  0  0
    6.5470   -3.9790   22.3620 C   0  0  0  0  0  0  0  0  0  0  0  0
    7.3930   -3.0590   18.9760 C   0  0  0  0  0  0  0  0  0  0  0  0
    5.3980   -4.1470   19.7570 O   0  0  0  0  0  0  0  0  0  0  0  0
    8.3260   -2.7070   24.6830 C   0  0  0  0  0  0  0  0  0  0  0  0
    7.8060   -4.3130   22.8730 C   0  0  0  0  0  0  0  0  0  0  0  0
    8.0170   -1.5720   25.0330 O   0  0  0  0  0  0  0  0  0  0  0  0
    8.5200   -3.8460   25.6500 C   0  0  0  0  0  0  0  0  0  0  0  0
    9.4250   -5.0600   25.3650 C   0  0  0  0  0  0  0  0  0  0  0  0
    7.7580   -3.9320   27.1980 S   0  0  0  0  0  0  0  0  0  0  0  0
    8.4850   -5.4150   27.5730 C   0  0  0  0  0  0  0  0  0  0  0  0
    9.4100   -5.9590   26.4520 C   0  0  0  0  0  0  0  0  0  0  0  0
  1  2  2  0
  2  3  1  0
  2  4  1  0
  3  5  1  0
  4  6  1  0
  7  5  1  1
  6  8  1  0
  6  9  1  0
  7 10  1  0
  7 11  1  0
  8 12  1  0
  9 13  1  0
 11 14  2  0
 11 15  1  0
 12 16  1  0
 13 16  1  0
 17 10  1  1
 14 18  1  0
 15 19  2  0
 17 20  1  0
 17 21  1  0
 20 22  1  0
 18 23  2  0
 19 23  1  0
 21 24  1  0
 20 25  1  0
 22 26  1  0
 22 27  2  0
 24 28  1  0
 24 29  1  0
 25 29  1  0
 28 30  2  0
 28 31  1  0
 31 32  2  0
 31 33  1  0
 33 34  1  0
 32 35  1  0
 34 35  2  0
M  END
