x0540-x2705-x1458
     RDKit          3D

 58 63  0  0  0  0  0  0  0  0999 V2000
    6.9970   -1.6120   21.6810 C   0  0  2  0  0  0  0  0  0  0  0  0
    6.1500   -2.9550   21.2670 C   0  0  0  0  0  0  0  0  0  0  0  0
    4.9630   -3.0930   20.7540 O   0  0  0  0  0  0  0  0  0  0  0  0
    6.4690   -0.2110   21.4640 C   0  0  1  0  0  0  0  0  0  0  0  0
    6.4160   -2.1510   22.9060 C   0  0  0  0  0  0  0  0  0  0  0  0
    8.4470   -1.5320   22.4160 C   0  0  0  0  0  0  0  0  0  0  0  0
    7.3890    0.9520   22.0450 C   0  0  0  0  0  0  0  0  0  0  0  0
    6.1150    0.2370   20.1270 C   0  0  0  0  0  0  0  0  0  0  0  0
    8.5630   -1.2590   23.8800 N   0  0  0  0  0  0  0  0  0  0  0  0
    9.7310   -1.6580   21.9890 C   0  0  0  0  0  0  0  0  0  0  0  0
    6.7950   -4.2190   21.7050 C   0  0  2  0  0  0  0  0  0  0  0  0
    7.2820   -3.4230   22.8940 C   0  0  2  0  0  0  0  0  0  0  0  0
    8.0660   -4.6620   20.9700 C   0  0  0  0  0  0  0  0  0  0  0  0
    7.6520    2.0090   23.0440 N   0  0  0  0  0  0  0  0  0  0  0  0
    8.3490    1.0580   21.2670 O   0  0  0  0  0  0  0  0  0  0  0  0
    4.8320    0.9790   20.0330 C   0  0  0  0  0  0  0  0  0  0  0  0
    6.8550    0.0420   19.0110 C   0  0  0  0  0  0  0  0  0  0  0  0
    9.8790   -1.2530   24.1260 N   0  0  0  0  0  0  0  0  0  0  0  0
   10.6730   -1.4900   23.0030 C   0  0  0  0  0  0  0  0  0  0  0  0
    7.2950   -4.1130   24.0000 C   0  0  0  0  0  0  0  0  0  0  0  0
    5.8400   -5.3510   22.1630 C   0  0  0  0  0  0  0  0  0  0  0  0
   12.1990   -1.5130   23.0850 C   0  0  0  0  0  0  0  0  0  0  0  0
    3.9180    1.2410   21.1800 C   0  0  0  0  0  0  0  0  0  0  0  0
    6.4220    0.5680   17.7240 N   0  0  0  0  0  0  0  0  0  0  0  0
    4.4580    1.4540   18.8360 C   0  0  0  0  0  0  0  0  0  0  0  0
    8.3020    3.2830   22.9970 C   0  0  0  0  0  0  0  0  0  0  0  0
    6.1490   -4.7130   24.3780 C   0  0  2  0  0  0  0  0  0  0  0  0
    5.2140   -4.9740   23.3650 C   0  0  0  0  0  0  0  0  0  0  0  0
   12.7390   -0.5230   23.9260 C   0  0  0  0  0  0  0  0  0  0  0  0
   12.8020   -2.1920   24.2980 C   0  0  0  0  0  0  0  0  0  0  0  0
   12.8960   -1.7670   21.8780 C   0  0  0  0  0  0  0  0  0  0  0  0
    4.6810    1.6850   22.2760 C   0  0  0  0  0  0  0  0  0  0  0  0
    5.6740   -3.8660   25.5730 C   0  0  0  0  0  0  0  0  0  0  0  0
    5.2630    1.2450   17.7160 C   0  0  0  0  0  0  0  0  0  0  0  0
    9.5800    3.2910   23.4740 C   0  0  0  0  0  0  0  0  0  0  0  0
    7.7210    4.5070   22.5210 C   0  0  0  0  0  0  0  0  0  0  0  0
   10.2540    2.0640   23.9700 C   0  0  0  0  0  0  0  0  0  0  0  0
    6.3170    4.4650   21.9890 C   0  0  0  0  0  0  0  0  0  0  0  0
    3.8950    2.8030   22.8470 N   0  0  0  0  0  0  0  0  0  0  0  0
    6.5480   -3.6620   26.6060 N   0  0  0  0  0  0  0  0  0  0  0  0
    4.4300   -3.3120   25.6000 O   0  0  0  0  0  0  0  0  0  0  0  0
   10.3560    4.5840   23.5090 C   0  0  0  0  0  0  0  0  0  0  0  0
    8.3240    5.8200   22.4830 C   0  0  0  0  0  0  0  0  0  0  0  0
    9.2870    1.3830   24.9530 C   0  0  0  0  0  0  0  0  0  0  0  0
    2.7980    2.3420   23.4510 C   0  0  0  0  0  0  0  0  0  0  0  0
    6.4940   -4.6330   27.5670 C   0  0  0  0  0  0  0  0  0  0  0  0
    6.7570   -2.3880   27.0330 C   0  0  0  0  0  0  0  0  0  0  0  0
    9.7720    5.7410   23.0550 C   0  0  0  0  0  0  0  0  0  0  0  0
    2.7120    1.2470   24.2630 O   0  0  0  0  0  0  0  0  0  0  0  0
    1.7860    3.1670   23.1100 N   0  0  0  0  0  0  0  0  0  0  0  0
    7.5020   -4.7470   28.5230 C   0  0  0  0  0  0  0  0  0  0  0  0
    6.4250   -5.9110   27.1020 C   0  0  0  0  0  0  0  0  0  0  0  0
    0.5950    3.2850   23.9210 C   0  0  0  0  0  0  0  0  0  0  0  0
    0.5570    4.7080   24.5520 C   0  0  0  0  0  0  0  0  0  0  0  0
   -0.6560    2.9610   23.0690 C   0  0  0  0  0  0  0  0  0  0  0  0
   -0.8190    4.9890   25.2210 C   0  0  0  0  0  0  0  0  0  0  0  0
   -1.9040    3.1270   23.9220 C   0  0  0  0  0  0  0  0  0  0  0  0
   -1.9780    4.6210   24.3020 C   0  0  0  0  0  0  0  0  0  0  0  0
  1  2  1  0
  2  3  2  0
  1  4  1  0
  1  5  1  0
  1  6  1  1
  4  7  1  6
  4  8  1  0
  6  9  2  0
  6 10  1  0
  2 11  1  0
 12  5  1  1
 11 12  1  0
 11 13  1  6
  7 14  1  0
  7 15  2  0
  8 16  1  0
  8 17  2  0
  9 18  1  0
 10 19  2  0
 18 19  1  0
 12 20  1  0
 11 21  1  0
 19 22  1  0
 16 23  1  0
 17 24  1  0
 16 25  2  0
 14 26  1  0
 20 27  1  0
 21 28  1  0
 27 28  1  0
 22 29  1  0
 22 30  1  0
 22 31  1  0
 23 32  1  0
 27 33  1  1
 24 34  2  0
 25 34  1  0
 26 35  2  0
 26 36  1  0
 35 37  1  0
 36 38  1  0
 32 39  1  0
 33 40  1  0
 33 41  2  0
 35 42  1  0
 36 43  2  0
 37 44  1  0
 39 45  1  0
 40 46  1  0
 40 47  1  0
 42 48  2  0
 43 48  1  0
 45 49  2  0
 45 50  1  0
 46 51  1  0
 46 52  1  0
 50 53  1  0
 53 54  1  0
 53 55  1  0
 54 56  1  0
 55 57  1  0
 56 58  1  0
 57 58  1  0
M  END
