x0678-x1458
     RDKit          3D

 34 36  0  0  0  0  0  0  0  0999 V2000
    6.9790   -3.4600   26.4220 N   0  0  0  0  0  0  0  0  0  0  0  0
    7.5300   -4.2540   27.3060 C   0  0  0  0  0  0  0  0  0  0  0  0
    8.9830   -4.6040   26.9610 C   0  0  0  0  0  0  0  0  0  0  0  0
    6.8090   -2.0270   26.6390 C   0  0  0  0  0  0  0  0  0  0  0  0
    5.9900   -3.9590   25.5030 C   0  0  0  0  0  0  0  0  0  0  0  0
    4.6670   -4.2780   25.9180 O   0  0  0  0  0  0  0  0  0  0  0  0
    6.7600   -5.5580   27.4970 C   0  0  0  0  0  0  0  0  0  0  0  0
    6.2450   -4.0920   24.0360 C   0  0  1  0  0  0  0  0  0  0  0  0
    7.4720   -3.6320   23.6060 C   0  0  0  0  0  0  0  0  0  0  0  0
    6.0490   -5.3610   23.6750 C   0  0  0  0  0  0  0  0  0  0  0  0
    7.4960   -3.4860   22.2280 C   0  0  2  0  0  0  0  0  0  0  0  0
    6.4980   -5.6590   22.3830 C   0  0  0  0  0  0  0  0  0  0  0  0
    6.9060   -2.1140   21.9430 C   0  0  0  0  0  0  0  0  0  0  0  0
    6.7520   -4.4510   21.6120 N   0  0  0  0  0  0  0  0  0  0  0  0
    6.2370   -4.2860   20.3190 C   0  0  0  0  0  0  0  0  0  0  0  0
    7.9850   -1.3600   21.5070 C   0  0  0  0  0  0  0  0  0  0  0  0
    5.2460   -4.8940   19.9640 O   0  0  0  0  0  0  0  0  0  0  0  0
    6.9710   -3.3890   19.3310 C   0  0  0  0  0  0  0  0  0  0  0  0
    7.8540   -0.0570   21.3400 N   0  0  0  0  0  0  0  0  0  0  0  0
    8.8160    0.7350   21.8410 C   0  0  0  0  0  0  0  0  0  0  0  0
    7.0220    0.3350   20.2710 C   0  0  0  0  0  0  0  0  0  0  0  0
    9.1990    1.7440   21.2480 O   0  0  0  0  0  0  0  0  0  0  0  0
    9.4990    0.4870   23.2180 C   0  0  0  0  0  0  0  0  0  0  0  0
    5.9980    1.2750   20.4710 C   0  0  0  0  0  0  0  0  0  0  0  0
    7.2130   -0.2200   18.9900 C   0  0  0  0  0  0  0  0  0  0  0  0
   10.4320   -0.7520   23.3810 C   0  0  0  0  0  0  0  0  0  0  0  0
    5.1830    1.6800   19.4830 C   0  0  0  0  0  0  0  0  0  0  0  0
    6.3520    0.1990   17.8890 N   0  0  0  0  0  0  0  0  0  0  0  0
   11.2710   -0.9090   22.2830 C   0  0  0  0  0  0  0  0  0  0  0  0
   11.1020   -0.6520   24.6000 C   0  0  0  0  0  0  0  0  0  0  0  0
    5.3330    1.1730   18.2020 C   0  0  0  0  0  0  0  0  0  0  0  0
   12.4550   -1.6130   22.5080 C   0  0  0  0  0  0  0  0  0  0  0  0
   12.4780   -0.4220   24.5560 C   0  0  0  0  0  0  0  0  0  0  0  0
   13.1950   -1.0510   23.5480 C   0  0  0  0  0  0  0  0  0  0  0  0
  1  2  1  0
  2  3  1  0
  1  4  1  0
  1  5  1  0
  5  6  2  0
  2  7  1  0
  8  5  1  1
  8  9  1  0
  8 10  1  0
  9 11  1  0
 10 12  1  0
 11 13  1  1
 11 14  1  0
 12 14  1  0
 14 15  1  0
 13 16  1  0
 15 17  2  0
 15 18  1  0
 16 19  1  0
 19 20  1  0
 19 21  1  0
 20 22  2  0
 20 23  1  0
 21 24  2  0
 21 25  1  0
 23 26  1  0
 24 27  1  0
 25 28  2  0
 26 29  1  0
 26 30  1  0
 27 31  2  0
 28 31  1  0
 29 32  1  0
 30 33  1  0
 32 34  1  0
 33 34  1  0
M  END
