x0678-x2754
     RDKit          3D

 36 39  0  0  0  0  0  0  0  0999 V2000
    4.9530   -3.0960   25.1820 C   0  0  0  0  0  0  0  0  0  0  0  0
    5.7200   -2.8180   26.2860 N   0  0  0  0  0  0  0  0  0  0  0  0
    4.9750   -2.1440   27.3670 C   0  0  0  0  0  0  0  0  0  0  0  0
    3.5250   -3.0720   25.3400 O   0  0  0  0  0  0  0  0  0  0  0  0
    5.4930   -3.4210   23.7990 C   0  0  1  0  0  0  0  0  0  0  0  0
    6.7820   -2.9030   23.6360 C   0  0  0  0  0  0  0  0  0  0  0  0
    5.5310   -4.7740   23.4830 C   0  0  0  0  0  0  0  0  0  0  0  0
    7.0060   -3.4710   26.5750 C   0  0  0  0  0  0  0  0  0  0  0  0
    7.1050   -2.7350   22.2670 C   0  0  2  0  0  0  0  0  0  0  0  0
    6.3180   -4.9830   22.3690 C   0  0  0  0  0  0  0  0  0  0  0  0
    7.1090   -4.6230   27.3950 C   0  0  0  0  0  0  0  0  0  0  0  0
    8.2100   -3.0140   26.0740 C   0  0  0  0  0  0  0  0  0  0  0  0
    6.4870   -1.5380   21.8120 C   0  0  0  0  0  0  0  0  0  0  0  0
    6.5750   -3.8640   21.6360 N   0  0  0  0  0  0  0  0  0  0  0  0
    8.3200   -5.2560   27.6850 C   0  0  0  0  0  0  0  0  0  0  0  0
    9.4040   -3.6460   26.3630 C   0  0  0  0  0  0  0  0  0  0  0  0
    6.2320   -3.8840   20.2670 C   0  0  0  0  0  0  0  0  0  0  0  0
    7.3850   -0.6470   21.2380 N   0  0  0  0  0  0  0  0  0  0  0  0
    9.4530   -4.7720   27.1750 C   0  0  0  0  0  0  0  0  0  0  0  0
    5.2550   -4.5210   19.8830 O   0  0  0  0  0  0  0  0  0  0  0  0
    7.1070   -3.1630   19.2510 C   0  0  0  0  0  0  0  0  0  0  0  0
    8.4260   -0.0610   21.9160 C   0  0  0  0  0  0  0  0  0  0  0  0
    6.7210    0.0210   20.1230 C   0  0  0  0  0  0  0  0  0  0  0  0
    8.8450    1.1640   21.2320 O   0  0  0  0  0  0  0  0  0  0  0  0
    9.0990   -0.5190   23.2210 C   0  0  0  0  0  0  0  0  0  0  0  0
    5.6130    0.8550   20.3340 C   0  0  0  0  0  0  0  0  0  0  0  0
    7.1160   -0.1200   18.8210 C   0  0  0  0  0  0  0  0  0  0  0  0
   10.6600   -0.4670   23.1420 C   0  0  0  0  0  0  0  0  0  0  0  0
    4.9590    1.4950   19.2960 C   0  0  0  0  0  0  0  0  0  0  0  0
    6.4760    0.5300   17.6990 N   0  0  0  0  0  0  0  0  0  0  0  0
   11.1310   -1.5000   22.3140 C   0  0  0  0  0  0  0  0  0  0  0  0
   11.1720   -0.5910   24.4060 C   0  0  0  0  0  0  0  0  0  0  0  0
    5.3410    1.3690   18.0100 C   0  0  0  0  0  0  0  0  0  0  0  0
   12.4720   -1.8600   22.5280 C   0  0  0  0  0  0  0  0  0  0  0  0
   12.5260   -0.3410   24.3630 C   0  0  0  0  0  0  0  0  0  0  0  0
   13.2430   -1.0780   23.4070 C   0  0  0  0  0  0  0  0  0  0  0  0
  1  2  1  0
  2  3  1  0
  1  4  2  0
  5  1  1  1
  5  6  1  0
  5  7  1  0
  2  8  1  0
  6  9  1  0
  7 10  1  0
  8 11  2  0
  8 12  1  0
  9 13  1  6
  9 14  1  0
 10 14  1  0
 11 15  1  0
 12 16  2  0
 14 17  1  0
 13 18  1  0
 15 19  2  0
 16 19  1  0
 17 20  2  0
 17 21  1  0
 18 22  1  0
 18 23  1  0
 22 24  2  0
 22 25  1  0
 23 26  2  0
 23 27  1  0
 25 28  1  0
 26 29  1  0
 27 30  2  0
 28 31  1  0
 28 32  1  0
 29 33  2  0
 30 33  1  0
 31 34  1  0
 32 35  1  0
 34 36  1  0
 35 36  1  0
M  END
