x0678-x1478
     RDKit          3D

 28 30  0  0  0  0  0  0  0  0999 V2000
    6.7020   -2.6080   21.3460 N   0  0  0  0  0  0  0  0  0  0  0  0
    6.5410   -3.2270   20.1320 C   0  0  0  0  0  0  0  0  0  0  0  0
    7.7590   -3.7090   19.5000 C   0  0  0  0  0  0  0  0  0  0  0  0
    7.9030   -1.8000   21.4130 C   0  0  0  0  0  0  0  0  0  0  0  0
    5.8830   -2.9700   22.5060 C   0  0  0  0  0  0  0  0  0  0  0  0
    5.5070   -3.5120   19.4860 O   0  0  0  0  0  0  0  0  0  0  0  0
    7.7360   -0.3220   21.3320 N   0  0  0  0  0  0  0  0  0  0  0  0
    5.6470   -4.2990   22.9880 C   0  0  0  0  0  0  0  0  0  0  0  0
    5.2510   -1.8000   23.2320 C   0  0  0  0  0  0  0  0  0  0  0  0
    6.2830   -5.7470   22.3150 Cl  0  0  0  0  0  0  0  0  0  0  0  0
    8.7290    0.4480   21.8140 C   0  0  0  0  0  0  0  0  0  0  0  0
    4.8770   -4.6230   24.0660 N   0  0  0  0  0  0  0  0  0  0  0  0
    4.4100   -2.1770   24.4160 C   0  0  0  0  0  0  0  0  0  0  0  0
    6.9380    0.1740   20.2400 C   0  0  0  0  0  0  0  0  0  0  0  0
    9.1130    1.4960   21.2770 O   0  0  0  0  0  0  0  0  0  0  0  0
    9.4250    0.0070   23.1220 C   0  0  0  0  0  0  0  0  0  0  0  0
    4.2720   -3.6440   24.7700 C   0  0  0  0  0  0  0  0  0  0  0  0
    5.8780    1.0990   20.4410 C   0  0  0  0  0  0  0  0  0  0  0  0
    7.1610   -0.2260   18.9000 C   0  0  0  0  0  0  0  0  0  0  0  0
   10.9480   -0.2510   23.0840 C   0  0  0  0  0  0  0  0  0  0  0  0
    5.0870    1.6080   19.4110 C   0  0  0  0  0  0  0  0  0  0  0  0
    6.3610    0.2870   17.7940 N   0  0  0  0  0  0  0  0  0  0  0  0
   11.2210   -1.4140   22.3320 C   0  0  0  0  0  0  0  0  0  0  0  0
   11.3130   -0.4170   24.4160 C   0  0  0  0  0  0  0  0  0  0  0  0
    5.3460    1.1990   18.1370 C   0  0  0  0  0  0  0  0  0  0  0  0
   12.5750   -1.7870   22.3920 C   0  0  0  0  0  0  0  0  0  0  0  0
   12.6800   -0.6320   24.4980 C   0  0  0  0  0  0  0  0  0  0  0  0
   13.0000   -1.7390   23.7180 C   0  0  0  0  0  0  0  0  0  0  0  0
  1  2  1  0
  2  3  1  0
  1  4  1  0
  1  5  1  0
  2  6  2  0
  4  7  1  0
  5  8  2  0
  5  9  1  0
  8 10  1  0
  7 11  1  0
  8 12  1  0
  9 13  2  0
  7 14  1  0
 11 15  2  0
 11 16  1  0
 12 17  2  0
 13 17  1  0
 14 18  2  0
 14 19  1  0
 16 20  1  0
 18 21  1  0
 19 22  2  0
 20 23  1  0
 20 24  1  0
 21 25  2  0
 22 25  1  0
 23 26  1  0
 24 27  1  0
 26 28  1  0
 27 28  1  0
M  END
