x0678-x0771
     RDKit          3D

 38 41  0  0  0  0  0  0  0  0999 V2000
    0.5860   -1.3950   26.1670 C   0  0  0  0  0  0  0  0  0  0  0  0
    1.7240   -2.4120   26.0610 C   0  0  0  0  0  0  0  0  0  0  0  0
    3.0440   -2.0550   26.3590 C   0  0  0  0  0  0  0  0  0  0  0  0
    1.3920   -3.8450   25.6240 C   0  0  0  0  0  0  0  0  0  0  0  0
    2.4370   -4.7810   25.5400 C   0  0  0  0  0  0  0  0  0  0  0  0
    4.0270   -3.0330   26.2540 C   0  0  0  0  0  0  0  0  0  0  0  0
    2.0530   -6.1740   25.1130 C   0  0  0  0  0  0  0  0  0  0  0  0
    3.7310   -4.3410   25.8650 C   0  0  0  0  0  0  0  0  0  0  0  0
    4.9880   -5.5860   25.7550 S   0  0  0  0  0  0  0  0  0  0  0  0
    4.3460   -6.8780   25.7600 O   0  0  0  0  0  0  0  0  0  0  0  0
    6.0320   -5.3310   26.7060 O   0  0  0  0  0  0  0  0  0  0  0  0
    5.6660   -5.3490   24.2350 N   0  0  0  0  0  0  0  0  0  0  0  0
    4.6850   -5.4430   23.1550 C   0  0  0  0  0  0  0  0  0  0  0  0
    6.4820   -4.2810   24.0920 C   0  0  0  0  0  0  0  0  0  0  0  0
    5.4410   -5.2230   22.0180 C   0  0  0  0  0  0  0  0  0  0  0  0
    7.1930   -4.2670   22.8840 C   0  0  0  0  0  0  0  0  0  0  0  0
    6.1970   -4.0290   21.9430 C   0  0  0  0  0  0  0  0  0  0  0  0
    6.6570   -3.8870   20.5040 C   0  0  0  0  0  0  0  0  0  0  0  0
    5.5070   -2.6150   22.1230 C   0  0  0  0  0  0  0  0  0  0  0  0
    5.7900   -4.1070   19.6740 O   0  0  0  0  0  0  0  0  0  0  0  0
    8.0670   -3.4340   20.1940 C   0  0  0  0  0  0  0  0  0  0  0  0
    6.4790   -1.4460   22.5410 C   0  0  0  0  0  0  0  0  0  0  0  0
    7.2890   -0.7760   21.5800 N   0  0  0  0  0  0  0  0  0  0  0  0
    8.5420   -0.1130   22.0000 C   0  0  0  0  0  0  0  0  0  0  0  0
    6.6350   -0.1430   20.4410 C   0  0  0  0  0  0  0  0  0  0  0  0
    9.0480    0.7990   21.3420 O   0  0  0  0  0  0  0  0  0  0  0  0
    9.2440   -0.5090   23.3180 C   0  0  0  0  0  0  0  0  0  0  0  0
    5.4910    0.6620   20.5390 C   0  0  0  0  0  0  0  0  0  0  0  0
    7.0900   -0.2680   19.1190 C   0  0  0  0  0  0  0  0  0  0  0  0
   10.3880   -1.4150   23.1240 C   0  0  0  0  0  0  0  0  0  0  0  0
    4.9660    1.2120   19.4160 C   0  0  0  0  0  0  0  0  0  0  0  0
    6.5750    0.2790   17.9860 N   0  0  0  0  0  0  0  0  0  0  0  0
   11.2290   -1.0350   22.1130 C   0  0  0  0  0  0  0  0  0  0  0  0
   11.0340   -1.6600   24.4640 C   0  0  0  0  0  0  0  0  0  0  0  0
    5.4810    1.0420   18.1370 C   0  0  0  0  0  0  0  0  0  0  0  0
   12.5250   -1.5120   22.2640 C   0  0  0  0  0  0  0  0  0  0  0  0
   12.4170   -1.6050   24.5210 C   0  0  0  0  0  0  0  0  0  0  0  0
   13.0370   -0.8780   23.5310 C   0  0  0  0  0  0  0  0  0  0  0  0
  1  2  1  0
  2  3  2  0
  2  4  1  0
  4  5  2  0
  3  6  1  0
  5  7  1  0
  5  8  1  0
  6  8  2  0
  9  8  1  0
  9 10  2  0
  9 11  2  0
  9 12  1  0
 12 13  1  0
 12 14  1  0
 13 15  1  0
 14 16  1  0
 15 17  1  0
 16 17  1  0
 17 18  1  0
 17 19  1  0
 18 20  2  0
 18 21  1  0
 19 22  1  0
 22 23  1  0
 23 24  1  0
 23 25  1  0
 24 26  2  0
 24 27  1  0
 25 28  2  0
 25 29  1  0
 27 30  1  0
 28 31  1  0
 29 32  2  0
 30 33  1  0
 30 34  1  0
 31 35  2  0
 32 35  1  0
 33 36  1  0
 34 37  1  0
 36 38  1  0
 37 38  1  0
M  END
