x0678-x1402
     RDKit          3D

 37 40  0  0  0  0  0  0  0  0999 V2000
    7.2650   -3.4360   19.8970 C   0  0  0  0  0  0  0  0  0  0  0  0
    6.4520   -4.3140   20.5470 C   0  0  0  0  0  0  0  0  0  0  0  0
    5.6640   -5.0130   19.9590 O   0  0  0  0  0  0  0  0  0  0  0  0
    6.2690   -4.4990   22.0550 C   0  0  0  0  0  0  0  0  0  0  0  0
    5.8570   -3.1030   22.4810 C   0  0  0  0  0  0  0  0  0  0  0  0
    7.5460   -4.9990   22.7150 C   0  0  0  0  0  0  0  0  0  0  0  0
    5.4230   -5.6780   22.1330 C   0  0  0  0  0  0  0  0  0  0  0  0
    7.0690   -2.2290   22.8720 C   0  0  0  0  0  0  0  0  0  0  0  0
    7.0540   -5.1730   24.1630 C   0  0  0  0  0  0  0  0  0  0  0  0
    5.0100   -5.9620   23.4120 C   0  0  0  0  0  0  0  0  0  0  0  0
    6.7410   -0.7520   22.6150 C   0  0  0  0  0  0  0  0  0  0  0  0
    5.7180   -5.3780   24.3780 N   0  0  0  0  0  0  0  0  0  0  0  0
    4.9880   -5.4160   25.8850 S   0  0  0  0  0  0  0  0  0  0  0  0
    7.5590   -0.2480   21.6010 N   0  0  0  0  0  0  0  0  0  0  0  0
    3.9200   -6.3390   26.1790 O   0  0  0  0  0  0  0  0  0  0  0  0
    5.9980   -5.2480   26.8870 O   0  0  0  0  0  0  0  0  0  0  0  0
    8.7720    0.4830   22.0400 C   0  0  0  0  0  0  0  0  0  0  0  0
    4.1420   -3.8610   25.9730 C   0  0  0  0  0  0  0  0  0  0  0  0
    6.8270    0.1760   20.3770 C   0  0  0  0  0  0  0  0  0  0  0  0
    9.2820    1.4030   21.3760 O   0  0  0  0  0  0  0  0  0  0  0  0
    9.3930    0.1050   23.4280 C   0  0  0  0  0  0  0  0  0  0  0  0
    2.4170   -3.9480   26.0350 S   0  0  0  0  0  0  0  0  0  0  0  0
    4.5560   -2.5290   26.0090 C   0  0  0  0  0  0  0  0  0  0  0  0
    5.7420    1.0780   20.4700 C   0  0  0  0  0  0  0  0  0  0  0  0
    7.1770   -0.2860   19.1080 C   0  0  0  0  0  0  0  0  0  0  0  0
    3.5830   -1.6330   26.0880 C   0  0  0  0  0  0  0  0  0  0  0  0
    2.3070   -2.1730   26.1230 C   0  0  0  0  0  0  0  0  0  0  0  0
   10.4190   -1.0670   23.3180 C   0  0  0  0  0  0  0  0  0  0  0  0
    5.0610    1.4900   19.3780 C   0  0  0  0  0  0  0  0  0  0  0  0
    6.5060    0.1050   17.8650 N   0  0  0  0  0  0  0  0  0  0  0  0
    0.7880   -1.3750   26.2390 Cl  0  0  0  0  0  0  0  0  0  0  0  0
   11.2580   -0.8880   22.2430 C   0  0  0  0  0  0  0  0  0  0  0  0
   11.0760   -1.0310   24.5630 C   0  0  0  0  0  0  0  0  0  0  0  0
    5.4230    1.0310   18.1200 C   0  0  0  0  0  0  0  0  0  0  0  0
   12.4500   -1.5730   22.4480 C   0  0  0  0  0  0  0  0  0  0  0  0
   12.3440   -0.4350   24.4750 C   0  0  0  0  0  0  0  0  0  0  0  0
   13.1580   -1.0850   23.5510 C   0  0  0  0  0  0  0  0  0  0  0  0
  1  2  1  0
  2  3  2  0
  4  2  1  0
  4  5  1  0
  4  6  1  0
  4  7  1  0
  5  8  1  0
  6  9  1  0
  7 10  1  0
  8 11  1  0
  9 12  1  0
 10 12  1  0
 12 13  1  0
 11 14  1  0
 13 15  2  0
 13 16  2  0
 14 17  1  0
 13 18  1  0
 14 19  1  0
 17 20  2  0
 17 21  1  0
 18 22  1  0
 18 23  2  0
 19 24  2  0
 19 25  1  0
 23 26  1  0
 22 27  1  0
 26 27  2  0
 21 28  1  0
 24 29  1  0
 25 30  2  0
 27 31  1  0
 28 32  1  0
 28 33  1  0
 29 34  2  0
 30 34  1  0
 32 35  1  0
 33 36  1  0
 35 37  1  0
 36 37  1  0
M  END
