x0678-x1348
     RDKit          3D

 33 36  0  0  0  0  0  0  0  0999 V2000
    6.9940   -3.6750   21.4860 N   0  0  0  0  0  0  0  0  0  0  0  0
    6.5050   -3.7420   20.1830 C   0  0  0  0  0  0  0  0  0  0  0  0
    5.4450   -4.2890   19.8400 O   0  0  0  0  0  0  0  0  0  0  0  0
    7.9070   -2.6420   21.9600 C   0  0  0  0  0  0  0  0  0  0  0  0
    6.3950   -4.4570   22.4870 C   0  0  0  0  0  0  0  0  0  0  0  0
    7.3650   -3.1330   19.0970 C   0  0  0  0  0  0  0  0  0  0  0  0
    7.3100   -1.2510   22.2020 C   0  0  0  0  0  0  0  0  0  0  0  0
    6.6660   -4.2360   23.8360 N   0  0  0  0  0  0  0  0  0  0  0  0
    5.2450   -5.7620   22.0520 S   0  0  0  0  0  0  0  0  0  0  0  0
    7.7770   -0.2430   21.4070 N   0  0  0  0  0  0  0  0  0  0  0  0
    5.9540   -5.0940   24.5860 C   0  0  0  0  0  0  0  0  0  0  0  0
    5.1080   -6.0090   23.7770 C   0  0  0  0  0  0  0  0  0  0  0  0
    8.8260    0.5500   21.9140 C   0  0  0  0  0  0  0  0  0  0  0  0
    5.9070   -5.2240   25.9790 C   0  0  0  0  0  0  0  0  0  0  0  0
    4.2890   -6.9660   24.3710 C   0  0  0  0  0  0  0  0  0  0  0  0
    6.9470    0.2110   20.3450 C   0  0  0  0  0  0  0  0  0  0  0  0
    6.6690   -4.3950   26.7600 O   0  0  0  0  0  0  0  0  0  0  0  0
    9.1770    1.5800   21.2650 O   0  0  0  0  0  0  0  0  0  0  0  0
    9.5440    0.2550   23.2500 C   0  0  0  0  0  0  0  0  0  0  0  0
    4.2690   -7.0630   25.7640 C   0  0  0  0  0  0  0  0  0  0  0  0
    5.0680   -6.2050   26.5280 C   0  0  0  0  0  0  0  0  0  0  0  0
    5.8150    1.0230   20.5000 C   0  0  0  0  0  0  0  0  0  0  0  0
    7.1230   -0.0810   18.8700 C   0  0  0  0  0  0  0  0  0  0  0  0
    6.7430   -4.7000   27.9580 C   0  0  0  0  0  0  0  0  0  0  0  0
   10.4820   -0.9320   23.3280 C   0  0  0  0  0  0  0  0  0  0  0  0
    4.9020    1.5470   19.4180 C   0  0  0  0  0  0  0  0  0  0  0  0
    6.3820    0.3270   17.8130 N   0  0  0  0  0  0  0  0  0  0  0  0
   11.3670   -1.0550   22.2570 C   0  0  0  0  0  0  0  0  0  0  0  0
   11.1800   -0.9780   24.5310 C   0  0  0  0  0  0  0  0  0  0  0  0
    5.2360    1.1690   18.0920 C   0  0  0  0  0  0  0  0  0  0  0  0
   12.5020   -1.7730   22.6020 C   0  0  0  0  0  0  0  0  0  0  0  0
   12.4510   -0.4260   24.4490 C   0  0  0  0  0  0  0  0  0  0  0  0
   13.2500   -1.1480   23.5710 C   0  0  0  0  0  0  0  0  0  0  0  0
  1  2  1  0
  2  3  2  0
  1  4  1  0
  1  5  1  0
  2  6  1  0
  4  7  1  0
  5  8  2  0
  5  9  1  0
  7 10  1  0
  8 11  1  0
  9 12  1  0
 11 12  2  0
 10 13  1  0
 11 14  1  0
 12 15  1  0
 10 16  1  0
 14 17  1  0
 13 18  2  0
 13 19  1  0
 15 20  2  0
 14 21  2  0
 20 21  1  0
 16 22  2  0
 16 23  1  0
 17 24  1  0
 19 25  1  0
 22 26  1  0
 23 27  2  0
 25 28  1  0
 25 29  1  0
 26 30  2  0
 27 30  1  0
 28 31  1  0
 29 32  1  0
 31 33  1  0
 32 33  1  0
M  END
