x0678-x0540
     RDKit          3D

 28 30  0  0  0  0  0  0  0  0999 V2000
    2.9010    1.5340   24.3220 O   0  0  0  0  0  0  0  0  0  0  0  0
    2.9650    2.3810   23.4240 C   0  0  0  0  0  0  0  0  0  0  0  0
    4.0970    2.5210   22.6660 N   0  0  0  0  0  0  0  0  0  0  0  0
    1.8330    3.2720   23.1350 N   0  0  0  0  0  0  0  0  0  0  0  0
    5.1250    1.7510   22.7770 C   0  0  0  0  0  0  0  0  0  0  0  0
    0.6220    3.3410   23.9690 C   0  0  0  0  0  0  0  0  0  0  0  0
    4.9370    0.4260   22.0530 C   0  0  0  0  0  0  0  0  0  0  0  0
    0.6270    4.5930   24.6190 C   0  0  0  0  0  0  0  0  0  0  0  0
   -0.4950    2.9870   23.1930 C   0  0  0  0  0  0  0  0  0  0  0  0
    5.4610    0.3950   20.6390 C   0  0  0  0  0  0  0  0  0  0  0  0
   -0.6410    4.9070   25.1200 C   0  0  0  0  0  0  0  0  0  0  0  0
   -1.6980    3.2720   23.8460 C   0  0  0  0  0  0  0  0  0  0  0  0
    6.7240   -0.0880   20.2120 C   0  0  0  0  0  0  0  0  0  0  0  0
    4.6720    0.8810   19.5710 C   0  0  0  0  0  0  0  0  0  0  0  0
   -1.7150    4.6000   24.2820 C   0  0  0  0  0  0  0  0  0  0  0  0
    7.6270   -0.5660   21.1160 N   0  0  0  0  0  0  0  0  0  0  0  0
    7.0030   -0.0360   18.7420 C   0  0  0  0  0  0  0  0  0  0  0  0
    5.0190    0.9110   18.2110 C   0  0  0  0  0  0  0  0  0  0  0  0
    8.6730    0.2380   21.7910 C   0  0  0  0  0  0  0  0  0  0  0  0
    6.1790    0.4490   17.7760 N   0  0  0  0  0  0  0  0  0  0  0  0
    9.1770    1.2630   21.2720 O   0  0  0  0  0  0  0  0  0  0  0  0
    9.1360   -0.1650   23.2120 C   0  0  0  0  0  0  0  0  0  0  0  0
   10.4740   -0.8220   23.3850 C   0  0  0  0  0  0  0  0  0  0  0  0
   11.3020   -0.9640   22.2860 C   0  0  0  0  0  0  0  0  0  0  0  0
   11.1960   -0.3390   24.4670 C   0  0  0  0  0  0  0  0  0  0  0  0
   12.4320   -1.7380   22.5380 C   0  0  0  0  0  0  0  0  0  0  0  0
   12.3660   -1.0480   24.7390 C   0  0  0  0  0  0  0  0  0  0  0  0
   13.1740   -1.2410   23.6200 C   0  0  0  0  0  0  0  0  0  0  0  0
  1  2  2  0
  2  3  1  0
  2  4  1  0
  3  5  1  0
  4  6  1  0
  5  7  1  0
  6  8  1  0
  6  9  1  0
  7 10  1  0
  8 11  1  0
  9 12  1  0
 10 13  1  0
 10 14  2  0
 11 15  1  0
 12 15  1  0
 13 16  1  0
 13 17  2  0
 14 18  1  0
 16 19  1  0
 17 20  1  0
 18 20  2  0
 19 21  2  0
 19 22  1  0
 22 23  1  0
 23 24  1  0
 23 25  1  0
 24 26  1  0
 25 27  1  0
 26 28  1  0
 27 28  1  0
M  END
