x0678-x1311
     RDKit          3D

 36 39  0  0  0  0  0  0  0  0999 V2000
    5.8650   -4.6460   20.0210 O   0  0  0  0  0  0  0  0  0  0  0  0
    6.6920   -4.4660   20.9590 C   0  0  0  0  0  0  0  0  0  0  0  0
    8.2270   -4.2780   20.7780 C   0  0  0  0  0  0  0  0  0  0  0  0
    6.2330   -4.3730   22.4830 C   0  0  2  0  0  0  0  0  0  0  0  0
    5.4220   -3.0410   22.6150 C   0  0  0  0  0  0  0  0  0  0  0  0
    7.4910   -4.4550   23.3900 C   0  0  0  0  0  0  0  0  0  0  0  0
    5.4540   -5.6330   23.0080 C   0  0  2  0  0  0  0  0  0  0  0  0
    5.9220   -1.9650   21.6330 C   0  0  0  0  0  0  0  0  0  0  0  0
    8.2940   -5.6060   23.2800 C   0  0  0  0  0  0  0  0  0  0  0  0
    7.8340   -3.4540   24.3200 C   0  0  0  0  0  0  0  0  0  0  0  0
    4.6560   -6.3050   22.1610 C   0  0  0  0  0  0  0  0  0  0  0  0
    4.7480   -5.2770   24.1430 C   0  0  0  0  0  0  0  0  0  0  0  0
    7.1390   -1.2340   22.2340 C   0  0  0  0  0  0  0  0  0  0  0  0
    9.4910   -5.6990   24.1860 C   0  0  0  0  0  0  0  0  0  0  0  0
    8.9630   -3.5850   25.1430 C   0  0  0  0  0  0  0  0  0  0  0  0
    3.5350   -6.6180   24.3530 S   0  0  0  0  0  0  0  0  0  0  0  0
    3.5560   -6.8950   22.7050 C   0  0  0  0  0  0  0  0  0  0  0  0
    4.1350   -7.6960   25.1060 O   0  0  0  0  0  0  0  0  0  0  0  0
    2.3160   -5.9700   24.7660 O   0  0  0  0  0  0  0  0  0  0  0  0
    7.6960   -0.2870   21.3870 N   0  0  0  0  0  0  0  0  0  0  0  0
    9.7800   -4.6960   25.0760 C   0  0  0  0  0  0  0  0  0  0  0  0
    8.8030    0.5470   21.8940 C   0  0  0  0  0  0  0  0  0  0  0  0
    6.8940    0.1600   20.2620 C   0  0  0  0  0  0  0  0  0  0  0  0
    9.2420    1.5200   21.2720 O   0  0  0  0  0  0  0  0  0  0  0  0
    9.3930    0.2170   23.2840 C   0  0  0  0  0  0  0  0  0  0  0  0
    5.8200    1.0500   20.4330 C   0  0  0  0  0  0  0  0  0  0  0  0
    7.1290   -0.2470   18.9550 C   0  0  0  0  0  0  0  0  0  0  0  0
   10.3850   -0.8970   23.4510 C   0  0  0  0  0  0  0  0  0  0  0  0
    5.0760    1.4730   19.3540 C   0  0  0  0  0  0  0  0  0  0  0  0
    6.4200    0.1510   17.8810 N   0  0  0  0  0  0  0  0  0  0  0  0
   11.1850   -0.8560   22.2970 C   0  0  0  0  0  0  0  0  0  0  0  0
   11.1730   -1.0510   24.5830 C   0  0  0  0  0  0  0  0  0  0  0  0
    5.3800    1.0310   18.1260 C   0  0  0  0  0  0  0  0  0  0  0  0
   12.3960   -1.5460   22.4350 C   0  0  0  0  0  0  0  0  0  0  0  0
   12.4480   -0.4800   24.4590 C   0  0  0  0  0  0  0  0  0  0  0  0
   13.2100   -0.9990   23.4110 C   0  0  0  0  0  0  0  0  0  0  0  0
  1  2  2  0
  2  3  1  0
  4  2  1  0
  4  5  1  6
  4  6  1  0
  4  7  1  0
  5  8  1  0
  6  9  2  0
  6 10  1  0
  7 11  1  6
  7 12  1  0
  8 13  1  0
  9 14  1  0
 10 15  2  0
 12 16  1  0
 11 17  2  0
 16 17  1  0
 16 18  1  0
 16 19  1  0
 13 20  1  0
 14 21  2  0
 15 21  1  0
 20 22  1  0
 20 23  1  0
 22 24  2  0
 22 25  1  0
 23 26  2  0
 23 27  1  0
 25 28  1  0
 26 29  1  0
 27 30  2  0
 28 31  1  0
 28 32  1  0
 29 33  2  0
 30 33  1  0
 31 34  1  0
 32 35  1  0
 34 36  1  0
 35 36  1  0
M  END
