x0678-x0978
     RDKit          3D

 33 34  0  0  0  0  0  0  0  0999 V2000
    2.0450   -5.6280   23.2000 N   0  0  0  0  0  0  0  0  0  0  0  0
    3.3180   -6.3690   23.1660 C   0  0  2  0  0  0  0  0  0  0  0  0
    3.4700   -7.2700   24.4010 C   0  0  1  0  0  0  0  0  0  0  0  0
    0.8530   -6.2320   22.5720 C   0  0  0  0  0  0  0  0  0  0  0  0
    0.8750   -7.3180   21.9830 O   0  0  0  0  0  0  0  0  0  0  0  0
   -0.4330   -5.4040   22.6980 C   0  0  0  0  0  0  0  0  0  0  0  0
    4.5100   -5.3810   22.8880 C   0  0  0  0  0  0  0  0  0  0  0  0
    2.1910   -8.0530   24.7050 C   0  0  0  0  0  0  0  0  0  0  0  0
    4.5020   -7.9050   24.3070 O   0  0  0  0  0  0  0  0  0  0  0  0
    5.4460   -5.6120   21.8600 N   0  0  0  0  0  0  0  0  0  0  0  0
    4.6160   -4.3690   23.5830 O   0  0  0  0  0  0  0  0  0  0  0  0
    6.0090   -4.3690   21.5230 C   0  0  2  0  0  0  0  0  0  0  0  0
    6.3390   -4.2280   20.0000 C   0  0  0  0  0  0  0  0  0  0  0  0
    7.0300   -3.8880   22.3790 C   0  0  0  0  0  0  0  0  0  0  0  0
    5.4280   -3.5260   19.3530 C   0  0  0  0  0  0  0  0  0  0  0  0
    7.0440   -2.4860   22.5500 C   0  0  0  0  0  0  0  0  0  0  0  0
    7.6330   -1.7390   21.5190 C   0  0  0  0  0  0  0  0  0  0  0  0
    7.5740   -0.3810   21.5100 N   0  0  0  0  0  0  0  0  0  0  0  0
    8.6540    0.2850   21.9700 C   0  0  0  0  0  0  0  0  0  0  0  0
    6.7760    0.1930   20.4180 C   0  0  0  0  0  0  0  0  0  0  0  0
    9.2300    1.4550   21.3610 O   0  0  0  0  0  0  0  0  0  0  0  0
    9.3420   -0.0720   23.1510 C   0  0  0  0  0  0  0  0  0  0  0  0
    5.6830    1.0800   20.5090 C   0  0  0  0  0  0  0  0  0  0  0  0
    7.1290   -0.1840   18.9970 C   0  0  0  0  0  0  0  0  0  0  0  0
   10.8750   -0.2070   23.0110 C   0  0  0  0  0  0  0  0  0  0  0  0
    4.9350    1.6080   19.2980 C   0  0  0  0  0  0  0  0  0  0  0  0
    6.5290    0.2390   17.8680 N   0  0  0  0  0  0  0  0  0  0  0  0
   11.2520   -1.3890   22.3290 C   0  0  0  0  0  0  0  0  0  0  0  0
   11.4230   -0.0440   24.2750 C   0  0  0  0  0  0  0  0  0  0  0  0
    5.4200    1.1450   18.0490 C   0  0  0  0  0  0  0  0  0  0  0  0
   12.5960   -1.7580   22.4730 C   0  0  0  0  0  0  0  0  0  0  0  0
   12.4780   -0.8660   24.6120 C   0  0  0  0  0  0  0  0  0  0  0  0
   13.2660   -1.1590   23.5170 C   0  0  0  0  0  0  0  0  0  0  0  0
  2  1  1  1
  2  3  1  0
  1  4  1  0
  4  5  2  0
  4  6  1  0
  2  7  1  0
  3  8  1  6
  3  9  1  0
  7 10  1  0
  7 11  2  0
 10 12  1  0
 12 13  1  6
 12 14  1  0
 13 15  2  3
 14 16  1  0
 16 17  1  0
 17 18  1  0
 18 19  1  0
 18 20  1  0
 19 21  2  0
 19 22  1  0
 20 23  2  0
 20 24  1  0
 22 25  1  0
 23 26  1  0
 24 27  2  0
 25 28  1  0
 25 29  1  0
 26 30  2  0
 27 30  1  0
 28 31  1  0
 29 32  1  0
 31 33  1  0
 32 33  1  0
M  END
