x0678-x0397
     RDKit          3D

 24 26  0  0  0  0  0  0  0  0999 V2000
    8.1580   -1.7020   21.2090 C   0  0  0  0  0  0  0  0  0  0  0  0
    7.0410   -1.7500   20.3780 N   0  0  0  0  0  0  0  0  0  0  0  0
    7.1190   -1.4350   19.1130 C   0  0  0  0  0  0  0  0  0  0  0  0
    8.6610   -0.3320   21.6440 C   0  0  0  0  0  0  0  0  0  0  0  0
    6.1850   -2.9010   20.7850 C   0  0  0  0  0  0  0  0  0  0  0  0
    8.5480    0.6940   20.9810 O   0  0  0  0  0  0  0  0  0  0  0  0
    9.2800   -0.3640   23.0490 C   0  0  0  0  0  0  0  0  0  0  0  0
    5.3920   -3.3880   19.9570 O   0  0  0  0  0  0  0  0  0  0  0  0
    6.2540   -3.5010   22.1160 N   0  0  0  0  0  0  0  0  0  0  0  0
    6.2570   -0.1970   18.7820 C   0  0  0  0  0  0  0  0  0  0  0  0
   10.7460   -0.7370   23.0990 C   0  0  0  0  0  0  0  0  0  0  0  0
    5.2440    0.2340   19.5650 C   0  0  0  0  0  0  0  0  0  0  0  0
    6.3420    0.6380   17.7140 N   0  0  0  0  0  0  0  0  0  0  0  0
    5.7360   -4.7110   22.4270 C   0  0  0  0  0  0  0  0  0  0  0  0
   11.1430   -1.5810   22.0680 C   0  0  0  0  0  0  0  0  0  0  0  0
   11.3040   -1.3560   24.1790 C   0  0  0  0  0  0  0  0  0  0  0  0
    5.3340    1.6280   17.8540 O   0  0  0  0  0  0  0  0  0  0  0  0
    4.6010    1.4350   19.0030 C   0  0  0  0  0  0  0  0  0  0  0  0
    6.3360   -5.4820   23.3210 C   0  0  0  0  0  0  0  0  0  0  0  0
    6.0190   -5.7940   21.7460 C   0  0  0  0  0  0  0  0  0  0  0  0
   12.5190   -1.8800   22.0100 C   0  0  0  0  0  0  0  0  0  0  0  0
   12.6480   -1.0790   24.2110 C   0  0  0  0  0  0  0  0  0  0  0  0
    3.4830    2.3610   19.3600 C   0  0  0  0  0  0  0  0  0  0  0  0
   13.2840   -1.3460   22.9960 C   0  0  0  0  0  0  0  0  0  0  0  0
  1  2  1  0
  2  3  1  0
  1  4  1  0
  2  5  1  0
  4  6  2  0
  4  7  1  0
  5  8  2  0
  5  9  1  0
  3 10  1  0
  7 11  1  0
 10 12  1  0
 10 13  2  0
  9 14  1  0
 11 15  1  0
 11 16  1  0
 13 17  1  0
 12 18  2  0
 17 18  1  0
 14 19  1  0
 14 20  1  0
 19 20  1  0
 15 21  1  0
 16 22  1  0
 18 23  1  0
 21 24  1  0
 22 24  1  0
M  END
