x0678-x0708
     RDKit          3D

 26 28  0  0  0  0  0  0  0  0999 V2000
    6.6910   -4.4120   21.3200 N   0  0  0  0  0  0  0  0  0  0  0  0
    6.2770   -3.9080   20.0990 C   0  0  0  0  0  0  0  0  0  0  0  0
    7.2690   -3.1390   19.2280 C   0  0  0  0  0  0  0  0  0  0  0  0
    7.6790   -4.0420   22.0950 N   0  0  0  0  0  0  0  0  0  0  0  0
    5.1490   -4.0760   19.6620 O   0  0  0  0  0  0  0  0  0  0  0  0
    7.6540   -2.8200   22.6500 C   0  0  0  0  0  0  0  0  0  0  0  0
    6.6210   -2.2810   23.0290 O   0  0  0  0  0  0  0  0  0  0  0  0
    8.9920   -2.0570   22.8400 C   0  0  0  0  0  0  0  0  0  0  0  0
   10.2050   -2.3370   21.9710 C   0  0  0  0  0  0  0  0  0  0  0  0
    9.3000   -0.9440   23.8680 C   0  0  2  0  0  0  0  0  0  0  0  0
    8.5950    0.3750   23.5230 C   0  0  0  0  0  0  0  0  0  0  0  0
   11.2840   -1.4730   22.4910 C   0  0  0  0  0  0  0  0  0  0  0  0
   10.6570   -0.6860   23.6070 C   0  0  0  0  0  0  0  0  0  0  0  0
    8.6120    0.7010   21.9830 C   0  0  0  0  0  0  0  0  0  0  0  0
   12.7790   -1.2490   22.2010 C   0  0  0  0  0  0  0  0  0  0  0  0
   11.3950    0.2300   24.3030 C   0  0  0  0  0  0  0  0  0  0  0  0
    9.3080    1.6160   21.4550 O   0  0  0  0  0  0  0  0  0  0  0  0
    7.6810   -0.1490   21.2560 N   0  0  0  0  0  0  0  0  0  0  0  0
   13.2860   -0.1650   22.9300 C   0  0  0  0  0  0  0  0  0  0  0  0
   12.3140    0.7120   23.3900 C   0  0  0  0  0  0  0  0  0  0  0  0
    6.8240    0.3050   20.1870 C   0  0  0  0  0  0  0  0  0  0  0  0
    5.7230    1.1440   20.3930 C   0  0  0  0  0  0  0  0  0  0  0  0
    7.1180   -0.1120   18.8830 C   0  0  0  0  0  0  0  0  0  0  0  0
    4.9410    1.5660   19.3380 C   0  0  0  0  0  0  0  0  0  0  0  0
    6.3830    0.2730   17.7810 N   0  0  0  0  0  0  0  0  0  0  0  0
    5.2590    1.1520   18.0920 C   0  0  0  0  0  0  0  0  0  0  0  0
  1  2  1  0
  2  3  1  0
  1  4  1  0
  2  5  2  0
  4  6  1  0
  6  7  2  0
  6  8  1  0
  8  9  2  0
  8 10  1  0
 10 11  1  6
  9 12  1  0
 10 13  1  0
 12 13  2  0
 11 14  1  0
 12 15  1  0
 13 16  1  0
 14 17  2  0
 14 18  1  0
 15 19  1  0
 16 20  1  0
 19 20  1  0
 18 21  1  0
 21 22  2  0
 21 23  1  0
 22 24  1  0
 23 25  2  0
 24 26  2  0
 25 26  1  0
M  END
