x0678-x0691
     RDKit          3D

 38 41  0  0  0  0  0  0  0  0999 V2000
    4.0500   -6.8290   25.8230 O   0  0  0  0  0  0  0  0  0  0  0  0
    4.7010   -5.5380   25.7820 S   0  0  0  0  0  0  0  0  0  0  0  0
    5.7040   -5.1840   26.7510 O   0  0  0  0  0  0  0  0  0  0  0  0
    3.4960   -4.2310   25.7910 C   0  0  0  0  0  0  0  0  0  0  0  0
    5.3800   -5.3090   24.2650 N   0  0  0  0  0  0  0  0  0  0  0  0
    3.8600   -2.8930   25.8720 C   0  0  0  0  0  0  0  0  0  0  0  0
    2.1360   -4.5920   25.7170 C   0  0  0  0  0  0  0  0  0  0  0  0
    4.9030   -6.1430   23.1590 C   0  0  0  0  0  0  0  0  0  0  0  0
    6.8270   -4.9900   24.2990 C   0  0  0  0  0  0  0  0  0  0  0  0
    2.8770   -1.9050   25.8840 C   0  0  0  0  0  0  0  0  0  0  0  0
    1.1460   -3.6120   25.7290 C   0  0  0  0  0  0  0  0  0  0  0  0
    5.5110   -5.7930   21.9630 C   0  0  0  0  0  0  0  0  0  0  0  0
    7.3290   -4.7480   23.0110 C   0  0  0  0  0  0  0  0  0  0  0  0
    3.2160   -0.6130   25.9640 F   0  0  0  0  0  0  0  0  0  0  0  0
    1.5320   -2.2820   25.8150 C   0  0  0  0  0  0  0  0  0  0  0  0
    6.1270   -4.5510   22.0750 C   0  0  0  0  0  0  0  0  0  0  0  0
    6.5720   -4.1810   20.6570 C   0  0  0  0  0  0  0  0  0  0  0  0
    5.3120   -3.2650   22.4950 C   0  0  0  0  0  0  0  0  0  0  0  0
    5.6950   -4.2510   19.7990 O   0  0  0  0  0  0  0  0  0  0  0  0
    8.0180   -3.7240   20.4110 C   0  0  0  0  0  0  0  0  0  0  0  0
    5.6870   -1.9350   21.7770 C   0  0  0  0  0  0  0  0  0  0  0  0
    7.0050   -1.3480   22.3500 C   0  0  0  0  0  0  0  0  0  0  0  0
    7.5900   -0.4220   21.4630 N   0  0  0  0  0  0  0  0  0  0  0  0
    8.7260    0.4060   21.9350 C   0  0  0  0  0  0  0  0  0  0  0  0
    6.8300    0.0680   20.3240 C   0  0  0  0  0  0  0  0  0  0  0  0
    9.1700    1.3900   21.3090 O   0  0  0  0  0  0  0  0  0  0  0  0
    9.3610    0.0330   23.3080 C   0  0  0  0  0  0  0  0  0  0  0  0
    5.7350    0.9490   20.4870 C   0  0  0  0  0  0  0  0  0  0  0  0
    7.1300   -0.2870   19.0160 C   0  0  0  0  0  0  0  0  0  0  0  0
   10.4240   -1.1000   23.3680 C   0  0  0  0  0  0  0  0  0  0  0  0
    5.0060    1.4360   19.4130 C   0  0  0  0  0  0  0  0  0  0  0  0
    6.4110    0.1910   17.8400 N   0  0  0  0  0  0  0  0  0  0  0  0
   11.2450   -1.0550   22.2420 C   0  0  0  0  0  0  0  0  0  0  0  0
   11.1380   -0.9840   24.5560 C   0  0  0  0  0  0  0  0  0  0  0  0
    5.3230    1.0820   18.1600 C   0  0  0  0  0  0  0  0  0  0  0  0
   12.4920   -1.6350   22.4640 C   0  0  0  0  0  0  0  0  0  0  0  0
   12.3850   -0.3660   24.3870 C   0  0  0  0  0  0  0  0  0  0  0  0
   13.2190   -0.9680   23.4390 C   0  0  0  0  0  0  0  0  0  0  0  0
  1  2  2  0
  2  3  2  0
  2  4  1  0
  2  5  1  0
  4  6  2  0
  4  7  1  0
  5  8  1  0
  5  9  1  0
  6 10  1  0
  7 11  2  0
  8 12  1  0
  9 13  1  0
 10 14  1  0
 10 15  2  0
 11 15  1  0
 12 16  1  0
 13 16  1  0
 16 17  1  0
 16 18  1  0
 17 19  2  0
 17 20  1  0
 18 21  1  0
 21 22  1  0
 22 23  1  0
 23 24  1  0
 23 25  1  0
 24 26  2  0
 24 27  1  0
 25 28  2  0
 25 29  1  0
 27 30  1  0
 28 31  1  0
 29 32  2  0
 30 33  1  0
 30 34  1  0
 31 35  2  0
 32 35  1  0
 33 36  1  0
 34 37  1  0
 36 38  1  0
 37 38  1  0
M  END
