x0678-x1375
     RDKit          3D

 37 40  0  0  0  0  0  0  0  0999 V2000
    5.7520   -4.4040   19.9230 O   0  0  0  0  0  0  0  0  0  0  0  0
    6.5390   -4.1160   20.8500 C   0  0  0  0  0  0  0  0  0  0  0  0
    8.0870   -3.9490   20.6900 C   0  0  0  0  0  0  0  0  0  0  0  0
    5.9650   -3.9220   22.2490 N   0  0  0  0  0  0  0  0  0  0  0  0
    6.6950   -3.1400   23.2600 C   0  0  2  0  0  0  0  0  0  0  0  0
    4.9350   -4.8140   22.8480 C   0  0  2  0  0  0  0  0  0  0  0  0
    7.6260   -1.9830   22.9520 C   0  0  0  0  0  0  0  0  0  0  0  0
    7.6020   -3.9240   23.7840 C   0  0  0  0  0  0  0  0  0  0  0  0
    4.2980   -4.3290   24.0000 C   0  0  0  0  0  0  0  0  0  0  0  0
    5.1120   -6.2310   22.8510 C   0  0  0  0  0  0  0  0  0  0  0  0
    6.8490   -0.9150   22.2480 C   0  0  0  0  0  0  0  0  0  0  0  0
    8.4570   -3.4710   24.9690 C   0  0  0  0  0  0  0  0  0  0  0  0
    7.7850   -5.1860   23.2480 C   0  0  0  0  0  0  0  0  0  0  0  0
    3.8770   -6.8340   24.0020 S   0  0  0  0  0  0  0  0  0  0  0  0
    3.6170   -5.3820   24.7950 C   0  0  0  0  0  0  0  0  0  0  0  0
    2.7540   -7.2630   23.2240 O   0  0  0  0  0  0  0  0  0  0  0  0
    4.4660   -7.7090   24.9700 O   0  0  0  0  0  0  0  0  0  0  0  0
    7.5860   -0.2170   21.3750 N   0  0  0  0  0  0  0  0  0  0  0  0
    9.4500   -4.5040   25.4530 C   0  0  0  0  0  0  0  0  0  0  0  0
    8.7050   -6.0680   23.7450 C   0  0  0  0  0  0  0  0  0  0  0  0
   10.2680   -4.2610   26.4750 F   0  0  0  0  0  0  0  0  0  0  0  0
    8.6980    0.4320   21.8210 C   0  0  0  0  0  0  0  0  0  0  0  0
    9.5080   -5.7290   24.8200 C   0  0  0  0  0  0  0  0  0  0  0  0
    6.8470    0.2560   20.2290 C   0  0  0  0  0  0  0  0  0  0  0  0
    8.6770    1.6340   22.0550 O   0  0  0  0  0  0  0  0  0  0  0  0
   10.1100   -0.1810   21.9730 C   0  0  0  0  0  0  0  0  0  0  0  0
    5.8010    1.1740   20.3820 C   0  0  0  0  0  0  0  0  0  0  0  0
    7.1200   -0.1640   18.9880 C   0  0  0  0  0  0  0  0  0  0  0  0
   10.5280   -1.0150   23.2190 C   0  0  0  0  0  0  0  0  0  0  0  0
    5.0860    1.6220   19.2600 C   0  0  0  0  0  0  0  0  0  0  0  0
    6.4920    0.2170   17.8610 N   0  0  0  0  0  0  0  0  0  0  0  0
   11.4220   -2.1230   22.6050 C   0  0  0  0  0  0  0  0  0  0  0  0
   11.0730   -0.2040   24.2410 C   0  0  0  0  0  0  0  0  0  0  0  0
    5.3900    1.1810   18.0040 C   0  0  0  0  0  0  0  0  0  0  0  0
   12.7450   -1.6910   22.6520 C   0  0  0  0  0  0  0  0  0  0  0  0
   12.4600   -0.2810   24.4470 C   0  0  0  0  0  0  0  0  0  0  0  0
   13.0360   -1.4470   23.9770 C   0  0  0  0  0  0  0  0  0  0  0  0
  1  2  2  0
  2  3  1  0
  2  4  1  0
  4  5  1  0
  6  4  1  1
  5  7  1  6
  5  8  1  0
  6  9  1  0
  6 10  1  0
  7 11  1  0
  8 12  2  0
  8 13  1  0
 10 14  1  0
  9 15  2  0
 14 15  1  0
 14 16  1  0
 14 17  1  0
 11 18  1  0
 12 19  1  0
 13 20  2  0
 19 21  1  0
 18 22  1  0
 19 23  2  0
 20 23  1  0
 18 24  1  0
 22 25  2  0
 22 26  1  0
 24 27  2  0
 24 28  1  0
 26 29  1  0
 27 30  1  0
 28 31  2  0
 29 32  1  0
 29 33  1  0
 30 34  2  0
 31 34  1  0
 32 35  1  0
 33 36  1  0
 35 37  1  0
 36 37  1  0
M  END
