x0678-x1412
     RDKit          3D

 32 36  0  0  0  0  0  0  0  0999 V2000
    7.3850   -2.9910   18.9760 C   0  0  0  0  0  0  0  0  0  0  0  0
    6.5130   -3.2870   19.9460 C   0  0  0  0  0  0  0  0  0  0  0  0
    5.5180   -3.9900   19.6870 O   0  0  0  0  0  0  0  0  0  0  0  0
    6.6770   -2.8800   21.2950 N   0  0  0  0  0  0  0  0  0  0  0  0
    7.3810   -1.7960   21.7220 C   0  0  2  0  0  0  0  0  0  0  0  0
    6.4700   -3.7300   22.3340 C   0  0  0  0  0  0  0  0  0  0  0  0
    7.6160   -0.7190   20.9060 N   0  0  0  0  0  0  0  0  0  0  0  0
    8.6390   -2.1740   22.4310 C   0  0  1  0  0  0  0  0  0  0  0  0
    7.6920   -4.1640   22.9110 C   0  0  0  0  0  0  0  0  0  0  0  0
    8.6620    0.0760   21.5650 C   0  0  0  0  0  0  0  0  0  0  0  0
    9.2330   -0.7700   22.7420 C   0  0  2  0  0  0  0  0  0  0  0  0
    8.4410   -3.1170   23.3740 N   0  0  0  0  0  0  0  0  0  0  0  0
    6.7560   -0.0080   20.0480 C   0  0  0  0  0  0  0  0  0  0  0  0
    8.3500   -2.7740   24.7120 C   0  0  0  0  0  0  0  0  0  0  0  0
    9.0240    1.2570   21.2240 O   0  0  0  0  0  0  0  0  0  0  0  0
   10.6920   -0.7700   22.9720 C   0  0  0  0  0  0  0  0  0  0  0  0
    5.6180    0.6860   20.4630 C   0  0  0  0  0  0  0  0  0  0  0  0
    7.0570    0.0060   18.7180 C   0  0  0  0  0  0  0  0  0  0  0  0
    8.1330   -1.6320   25.1000 O   0  0  0  0  0  0  0  0  0  0  0  0
    8.5490   -3.9490   25.6570 C   0  0  0  0  0  0  0  0  0  0  0  0
   11.5370   -1.6050   22.2090 C   0  0  0  0  0  0  0  0  0  0  0  0
   11.2200    0.4580   23.2360 C   0  0  0  0  0  0  0  0  0  0  0  0
    4.8310    1.3700   19.5300 C   0  0  0  0  0  0  0  0  0  0  0  0
    6.3800    0.6230   17.7380 N   0  0  0  0  0  0  0  0  0  0  0  0
    9.3290   -5.0850   25.4310 C   0  0  0  0  0  0  0  0  0  0  0  0
    7.7860   -4.0270   27.2410 S   0  0  0  0  0  0  0  0  0  0  0  0
   12.8580   -1.3990   22.2170 C   0  0  0  0  0  0  0  0  0  0  0  0
   12.4400    0.3560   23.8320 C   0  0  0  0  0  0  0  0  0  0  0  0
    5.2530    1.3290   18.0790 C   0  0  0  0  0  0  0  0  0  0  0  0
    8.5070   -5.5060   27.5470 C   0  0  0  0  0  0  0  0  0  0  0  0
    9.3060   -5.9390   26.4730 C   0  0  0  0  0  0  0  0  0  0  0  0
   13.2980   -0.5520   23.2410 C   0  0  0  0  0  0  0  0  0  0  0  0
  1  2  1  0
  2  3  2  0
  2  4  1  0
  5  4  1  6
  4  6  1  0
  5  7  1  0
  5  8  1  0
  6  9  1  0
  7 10  1  0
  8 11  1  0
 10 11  1  0
  8 12  1  1
  9 12  1  0
  7 13  1  0
 12 14  1  0
 10 15  2  0
 11 16  1  6
 13 17  2  0
 13 18  1  0
 14 19  2  0
 14 20  1  0
 16 21  1  0
 16 22  1  0
 17 23  1  0
 18 24  2  0
 20 25  2  0
 20 26  1  0
 21 27  1  0
 22 28  1  0
 23 29  2  0
 24 29  1  0
 26 30  1  0
 25 31  1  0
 30 31  2  0
 27 32  1  0
 28 32  1  0
M  END
