x0689-x2581
     RDKit          3D

 41 45  0  0  0  0  0  0  0  0999 V2000
    7.2570   -3.3990   19.7430 C   0  0  0  0  0  0  0  0  0  0  0  0
    6.2630   -4.4050   20.3550 C   0  0  0  0  0  0  0  0  0  0  0  0
    5.1530   -4.4740   19.8590 O   0  0  0  0  0  0  0  0  0  0  0  0
    6.5980   -5.2400   21.4180 N   0  0  0  0  0  0  0  0  0  0  0  0
    5.6910   -6.2230   21.9750 C   0  0  0  0  0  0  0  0  0  0  0  0
    7.4000   -4.6820   22.4980 C   0  0  0  0  0  0  0  0  0  0  0  0
    4.9440   -5.6610   23.0150 C   0  0  0  0  0  0  0  0  0  0  0  0
    6.8710   -4.8780   23.7670 C   0  0  1  0  0  0  0  0  0  0  0  0
    7.5880   -3.8700   24.6530 C   0  0  0  0  0  0  0  0  0  0  0  0
    5.5310   -4.8670   23.9600 N   0  0  0  0  0  0  0  0  0  0  0  0
    4.8250   -4.9570   25.5010 S   0  0  0  0  0  0  0  0  0  0  0  0
    8.1100   -2.5400   24.0930 C   0  0  0  0  0  0  0  0  0  0  0  0
    4.0740   -6.1910   25.6190 O   0  0  0  0  0  0  0  0  0  0  0  0
    5.7810   -4.7530   26.5660 O   0  0  0  0  0  0  0  0  0  0  0  0
    9.5730   -2.6220   23.5440 C   0  0  0  0  0  0  0  0  0  0  0  0
    3.6080   -3.6860   25.6060 C   0  0  0  0  0  0  0  0  0  0  0  0
   10.1610   -1.5230   23.6720 O   0  0  0  0  0  0  0  0  0  0  0  0
    3.9790   -2.0440   26.0640 S   0  0  0  0  0  0  0  0  0  0  0  0
    2.3110   -3.9560   25.3250 C   0  0  0  0  0  0  0  0  0  0  0  0
    1.4750   -2.8760   25.4500 C   0  0  0  0  0  0  0  0  0  0  0  0
    2.2320   -1.6470   25.8720 C   0  0  0  0  0  0  0  0  0  0  0  0
    9.7170   -0.4960   22.8850 C   0  0  0  0  0  0  0  0  0  0  0  0
   10.3210    0.7150   22.9220 C   0  0  0  0  0  0  0  0  0  0  0  0
    8.5530   -0.5580   21.9130 C   0  0  0  0  0  0  0  0  0  0  0  0
    9.8680    1.9370   22.0710 C   0  0  0  0  0  0  0  0  0  0  0  0
    8.2070    0.6510   21.1540 C   0  0  0  0  0  0  0  0  0  0  0  0
   10.5170    3.1900   22.1030 N   0  0  0  0  0  0  0  0  0  0  0  0
    8.8300    1.8130   21.2350 N   0  0  0  0  0  0  0  0  0  0  0  0
   11.1160    3.9220   23.2480 C   0  0  0  0  0  0  0  0  0  0  0  0
   10.9780    3.6910   24.4170 O   0  0  0  0  0  0  0  0  0  0  0  0
   11.8590    5.0130   22.8420 C   0  0  0  0  0  0  0  0  0  0  0  0
   11.1260    6.2580   23.4170 C   0  0  0  0  0  0  0  0  0  0  0  0
    9.7910    6.6910   22.8000 C   0  0  0  0  0  0  0  0  0  0  0  0
   11.6860    7.1000   24.6350 C   0  0  0  0  0  0  0  0  0  0  0  0
    9.0830    7.8620   23.3590 C   0  0  0  0  0  0  0  0  0  0  0  0
   10.8790    8.2770   25.1140 C   0  0  0  0  0  0  0  0  0  0  0  0
    9.5820    8.5460   24.3780 C   0  0  0  0  0  0  0  0  0  0  0  0
   11.3620    9.0420   26.1870 C   0  0  0  0  0  0  0  0  0  0  0  0
    8.8480    9.7770   24.9480 C   0  0  0  0  0  0  0  0  0  0  0  0
   10.7200   10.1110   26.6800 C   0  0  0  0  0  0  0  0  0  0  0  0
    9.4170   10.5800   26.1160 C   0  0  0  0  0  0  0  0  0  0  0  0
  1  2  1  0
  2  3  2  0
  2  4  1  0
  4  5  1  0
  4  6  1  0
  5  7  1  0
  6  8  1  0
  8  9  1  1
  7 10  1  0
  8 10  1  0
 10 11  1  0
  9 12  1  0
 11 13  2  0
 11 14  2  0
 12 15  1  0
 11 16  1  0
 15 17  1  0
 16 18  1  0
 16 19  2  0
 19 20  1  0
 18 21  1  0
 20 21  2  0
 17 22  1  0
 22 23  2  0
 22 24  1  0
 23 25  1  0
 24 26  2  0
 25 27  1  0
 25 28  2  0
 26 28  1  0
 27 29  1  0
 29 30  2  0
 29 31  1  0
 31 32  1  0
 32 33  2  0
 32 34  1  0
 33 35  1  0
 34 36  2  0
 35 37  2  0
 36 37  1  0
 36 38  1  0
 37 39  1  0
 38 40  2  0
 39 41  2  0
 40 41  1  0
M  END
