x0689-x2649
     RDKit          3D

 38 41  0  0  0  0  0  0  0  0999 V2000
    7.1260   -3.4450   20.0500 C   0  0  0  0  0  0  0  0  0  0  0  0
    6.2280   -4.5660   20.5890 C   0  0  0  0  0  0  0  0  0  0  0  0
    5.2360   -4.8420   19.9410 O   0  0  0  0  0  0  0  0  0  0  0  0
    6.4680   -5.2840   21.7600 N   0  0  0  0  0  0  0  0  0  0  0  0
    5.5610   -6.3140   22.2190 C   0  0  0  0  0  0  0  0  0  0  0  0
    7.2530   -4.7580   22.7810 C   0  0  0  0  0  0  0  0  0  0  0  0
    4.6260   -5.7550   23.0910 C   0  0  0  0  0  0  0  0  0  0  0  0
    6.5020   -4.3480   23.8700 C   0  0  1  0  0  0  0  0  0  0  0  0
    6.2280   -2.8240   23.7700 C   0  0  0  0  0  0  0  0  0  0  0  0
    5.2340   -5.1000   24.0710 N   0  0  0  0  0  0  0  0  0  0  0  0
    4.5870   -5.0950   25.6180 S   0  0  0  0  0  0  0  0  0  0  0  0
    7.1470   -2.1860   24.5280 C   0  0  0  0  0  0  0  0  0  0  0  0
    3.8910   -6.3410   25.8520 O   0  0  0  0  0  0  0  0  0  0  0  0
    5.6030   -4.7680   26.5930 O   0  0  0  0  0  0  0  0  0  0  0  0
    7.7830   -0.8940   24.0180 C   0  0  0  0  0  0  0  0  0  0  0  0
    3.4360   -3.7840   25.6740 C   0  0  0  0  0  0  0  0  0  0  0  0
    8.4930   -1.0400   22.6830 C   0  0  1  0  0  0  0  0  0  0  0  0
    3.8040   -2.0510   26.1230 S   0  0  0  0  0  0  0  0  0  0  0  0
    2.1120   -3.9660   25.3720 C   0  0  0  0  0  0  0  0  0  0  0  0
    8.1100   -0.1860   21.6570 C   0  0  0  0  0  0  0  0  0  0  0  0
    1.2710   -2.7420   25.4760 C   0  0  0  0  0  0  0  0  0  0  0  0
    2.1570   -1.5690   25.9060 C   0  0  0  0  0  0  0  0  0  0  0  0
    9.9730   -0.8040   22.8410 C   0  0  0  0  0  0  0  0  0  0  0  0
    6.9390   -0.7730   20.9370 N   0  0  0  0  0  0  0  0  0  0  0  0
    8.6900    0.8760   21.4050 O   0  0  0  0  0  0  0  0  0  0  0  0
   10.5340    0.1430   23.7310 C   0  0  0  0  0  0  0  0  0  0  0  0
   10.7390   -1.5990   22.0210 C   0  0  0  0  0  0  0  0  0  0  0  0
    6.3290    0.0300   19.9740 C   0  0  0  0  0  0  0  0  0  0  0  0
   11.8610    0.3360   23.8330 C   0  0  0  0  0  0  0  0  0  0  0  0
   12.2650   -1.3840   22.1310 C   0  0  0  0  0  0  0  0  0  0  0  0
   13.2350   -2.3220   21.1380 Cl  0  0  0  0  0  0  0  0  0  0  0  0
    5.2250    0.9810   20.2390 C   0  0  0  0  0  0  0  0  0  0  0  0
    6.7530   -0.0500   18.7170 C   0  0  0  0  0  0  0  0  0  0  0  0
   12.7150   -0.3590   23.0990 C   0  0  0  0  0  0  0  0  0  0  0  0
    4.5710    1.2730   21.5540 C   0  0  0  0  0  0  0  0  0  0  0  0
    6.3210    0.6060   17.6590 N   0  0  0  0  0  0  0  0  0  0  0  0
    4.7160    1.7300   19.0440 C   0  0  0  0  0  0  0  0  0  0  0  0
    5.3060    1.4740   17.8730 C   0  0  0  0  0  0  0  0  0  0  0  0
  1  2  1  0
  2  3  2  0
  2  4  1  0
  4  5  1  0
  4  6  1  0
  5  7  1  0
  6  8  1  0
  8  9  1  6
  7 10  1  0
  8 10  1  0
 10 11  1  0
  9 12  1  0
 11 13  2  0
 11 14  2  0
 12 15  1  0
 11 16  1  0
 17 15  1  1
 16 18  1  0
 16 19  2  0
 17 20  1  0
 19 21  1  0
 18 22  1  0
 21 22  2  0
 17 23  1  0
 20 24  1  0
 20 25  2  0
 23 26  2  0
 23 27  1  0
 24 28  1  0
 26 29  1  0
 27 30  2  0
 30 31  1  0
 28 32  2  0
 28 33  1  0
 29 34  2  0
 30 34  1  0
 32 35  1  0
 33 36  2  0
 32 37  1  0
 36 38  1  0
 37 38  2  0
M  END
