x0689-x2563
     RDKit          3D

 39 43  0  0  0  0  0  0  0  0999 V2000
    7.1980   -3.4890   19.5010 C   0  0  0  0  0  0  0  0  0  0  0  0
    6.3580   -4.3420   20.4640 C   0  0  0  0  0  0  0  0  0  0  0  0
    5.5110   -5.1090   20.0240 O   0  0  0  0  0  0  0  0  0  0  0  0
    6.4960   -4.2270   21.9920 C   0  0  0  0  0  0  0  0  0  0  0  0
    7.2140   -2.8730   22.2580 C   0  0  0  0  0  0  0  0  0  0  0  0
    5.2260   -4.1800   22.4250 C   0  0  0  0  0  0  0  0  0  0  0  0
    7.2410   -5.2970   22.8100 C   0  0  0  0  0  0  0  0  0  0  0  0
    6.5030   -1.5940   21.7850 C   0  0  0  0  0  0  0  0  0  0  0  0
    4.7990   -5.3320   23.0870 C   0  0  0  0  0  0  0  0  0  0  0  0
    6.8140   -5.1330   24.1300 C   0  0  0  0  0  0  0  0  0  0  0  0
    7.1190   -0.9880   20.7300 C   0  0  2  0  0  0  0  0  0  0  0  0
    5.5000   -5.4250   24.1980 N   0  0  0  0  0  0  0  0  0  0  0  0
    4.6700   -5.1940   25.7240 S   0  0  0  0  0  0  0  0  0  0  0  0
    8.3010   -0.2960   21.2820 C   0  0  0  0  0  0  0  0  0  0  0  0
    6.3130   -0.0730   19.8430 C   0  0  0  0  0  0  0  0  0  0  0  0
    3.8590   -6.3550   26.0180 O   0  0  0  0  0  0  0  0  0  0  0  0
    5.6720   -4.8930   26.7200 O   0  0  0  0  0  0  0  0  0  0  0  0
    8.4530    0.9210   21.1390 O   0  0  0  0  0  0  0  0  0  0  0  0
    9.1530   -1.1280   21.9220 N   0  0  0  0  0  0  0  0  0  0  0  0
    3.5380   -3.8380   25.6980 C   0  0  0  0  0  0  0  0  0  0  0  0
    5.1910    0.8260   20.2500 C   0  0  0  0  0  0  0  0  0  0  0  0
    6.7240   -0.1050   18.4440 C   0  0  0  0  0  0  0  0  0  0  0  0
    3.9770   -2.1820   26.0780 S   0  0  0  0  0  0  0  0  0  0  0  0
    2.2390   -4.0200   25.3820 C   0  0  0  0  0  0  0  0  0  0  0  0
    6.1760    0.6150   17.4680 N   0  0  0  0  0  0  0  0  0  0  0  0
    4.5770    1.5880   19.3140 C   0  0  0  0  0  0  0  0  0  0  0  0
    4.7770    0.8850   21.6030 C   0  0  0  0  0  0  0  0  0  0  0  0
   10.0520   -0.4900   22.6790 C   0  0  0  0  0  0  0  0  0  0  0  0
    1.4840   -2.8910   25.4190 C   0  0  0  0  0  0  0  0  0  0  0  0
    2.2620   -1.6690   25.8030 C   0  0  0  0  0  0  0  0  0  0  0  0
    5.0930    1.4730   17.9020 C   0  0  0  0  0  0  0  0  0  0  0  0
    3.5140    2.4560   19.5850 C   0  0  0  0  0  0  0  0  0  0  0  0
    3.6700    1.7530   22.0960 C   0  0  0  0  0  0  0  0  0  0  0  0
   11.4000   -0.7470   22.4150 C   0  0  0  0  0  0  0  0  0  0  0  0
    9.5920    0.3570   23.6090 C   0  0  0  0  0  0  0  0  0  0  0  0
    3.0120    2.5800   20.9690 C   0  0  0  0  0  0  0  0  0  0  0  0
   12.3260   -0.0790   23.1430 C   0  0  0  0  0  0  0  0  0  0  0  0
   10.5230    1.1120   24.4300 C   0  0  0  0  0  0  0  0  0  0  0  0
   11.8560    0.8840   24.1790 C   0  0  0  0  0  0  0  0  0  0  0  0
  1  2  1  0
  2  3  2  0
  4  2  1  0
  4  5  1  0
  4  6  1  0
  4  7  1  0
  5  8  1  0
  6  9  1  0
  7 10  1  0
 11  8  1  1
  9 12  1  0
 10 12  1  0
 12 13  1  0
 11 14  1  0
 11 15  1  0
 13 16  2  0
 13 17  2  0
 14 18  2  0
 14 19  1  0
 13 20  1  0
 15 21  1  0
 15 22  2  0
 20 23  1  0
 20 24  2  0
 22 25  1  0
 21 26  2  0
 21 27  1  0
 19 28  1  0
 24 29  1  0
 23 30  1  0
 29 30  2  0
 25 31  2  0
 26 31  1  0
 26 32  1  0
 27 33  2  0
 28 34  2  0
 28 35  1  0
 32 36  2  0
 33 36  1  0
 34 37  1  0
 35 38  2  0
 37 39  2  0
 38 39  1  0
M  END
