x0689-x1249
     RDKit          3D

 38 41  0  0  0  0  0  0  0  0999 V2000
    7.3000   -3.4000   19.7540 C   0  0  0  0  0  0  0  0  0  0  0  0
    6.3480   -4.4000   20.4400 C   0  0  0  0  0  0  0  0  0  0  0  0
    5.2700   -4.6200   19.9120 O   0  0  0  0  0  0  0  0  0  0  0  0
    6.6830   -5.0720   21.6110 N   0  0  0  0  0  0  0  0  0  0  0  0
    5.8890   -6.2740   21.9440 C   0  0  0  0  0  0  0  0  0  0  0  0
    7.1860   -4.4160   22.7620 C   0  0  0  0  0  0  0  0  0  0  0  0
    4.9560   -5.9550   23.1140 C   0  0  0  0  0  0  0  0  0  0  0  0
    6.2160   -3.9810   23.6790 C   0  0  1  0  0  0  0  0  0  0  0  0
    5.0940   -3.1570   22.9930 C   0  0  0  0  0  0  0  0  0  0  0  0
    5.5910   -5.1980   24.2220 N   0  0  0  0  0  0  0  0  0  0  0  0
    4.6460   -5.0300   25.6750 S   0  0  0  0  0  0  0  0  0  0  0  0
    5.0930   -1.6460   23.1560 C   0  0  0  0  0  0  0  0  0  0  0  0
    4.0130   -6.3100   25.9050 O   0  0  0  0  0  0  0  0  0  0  0  0
    5.6230   -4.7330   26.6990 O   0  0  0  0  0  0  0  0  0  0  0  0
    3.3570   -3.8320   25.8440 C   0  0  0  0  0  0  0  0  0  0  0  0
    4.3440   -1.1490   24.3930 C   0  0  0  0  0  0  0  0  0  0  0  0
    3.4870   -2.3900   26.7610 S   0  0  0  0  0  0  0  0  0  0  0  0
    2.1100   -3.9140   25.2600 C   0  0  0  0  0  0  0  0  0  0  0  0
    4.1840    0.3730   24.6120 C   0  0  2  0  0  0  0  0  0  0  0  0
    1.2670   -2.8660   25.5200 C   0  0  0  0  0  0  0  0  0  0  0  0
    1.8790   -1.9210   26.3420 C   0  0  0  0  0  0  0  0  0  0  0  0
    3.6070    1.0720   23.4940 O   0  0  0  0  0  0  0  0  0  0  0  0
    5.5140    0.9830   24.9450 C   0  0  0  0  0  0  0  0  0  0  0  0
    4.5000    1.3620   22.4050 C   0  0  0  0  0  0  0  0  0  0  0  0
    6.3320    1.3040   23.7820 N   0  0  0  0  0  0  0  0  0  0  0  0
    7.6730    1.4310   24.0400 C   0  0  0  0  0  0  0  0  0  0  0  0
    5.7420    2.0580   22.8820 C   0  0  0  0  0  0  0  0  0  0  0  0
    8.1330    0.5540   24.8900 N   0  0  0  0  0  0  0  0  0  0  0  0
    8.3710    2.2970   23.5200 O   0  0  0  0  0  0  0  0  0  0  0  0
    9.4680    0.7260   25.3950 C   0  0  0  0  0  0  0  0  0  0  0  0
   10.4210    0.1600   24.4180 C   0  0  0  0  0  0  0  0  0  0  0  0
   11.6120    0.9870   23.9020 C   0  0  0  0  0  0  0  0  0  0  0  0
   10.1870   -1.2460   23.9360 C   0  0  0  0  0  0  0  0  0  0  0  0
   12.4050    0.4210   23.0290 C   0  0  0  0  0  0  0  0  0  0  0  0
   11.0890   -1.8710   22.9460 C   0  0  0  0  0  0  0  0  0  0  0  0
   12.2360   -0.9410   22.5030 C   0  0  0  0  0  0  0  0  0  0  0  0
   13.1230   -1.4010   21.5650 C   0  0  0  0  0  0  0  0  0  0  0  0
   13.8420   -1.7250   20.5890 N   0  0  0  0  0  0  0  0  0  0  0  0
  1  2  1  0
  2  3  2  0
  2  4  1  0
  4  5  1  0
  4  6  1  0
  5  7  1  0
  6  8  1  0
  8  9  1  6
  7 10  1  0
  8 10  1  0
 10 11  1  0
  9 12  1  0
 11 13  2  0
 11 14  2  0
 11 15  1  0
 12 16  1  0
 15 17  1  0
 15 18  2  0
 19 16  1  6
 18 20  1  0
 17 21  1  0
 20 21  2  0
 19 22  1  0
 19 23  1  0
 22 24  1  0
 23 25  1  0
 25 26  1  0
 24 27  1  0
 25 27  1  0
 26 28  1  0
 26 29  2  0
 28 30  1  0
 30 31  1  0
 31 32  2  0
 31 33  1  0
 32 34  1  0
 33 35  2  0
 34 36  2  0
 35 36  1  0
 36 37  1  0
 37 38  3  0
M  END
