x0689-x2703
     RDKit          3D

 48 52  0  0  0  0  0  0  0  0999 V2000
    6.9890   -1.0740   21.8250 N   0  0  0  0  0  0  0  0  0  0  0  0
    6.6100    0.2050   21.5710 C   0  0  1  0  0  0  0  0  0  0  0  0
    7.7070    1.2220   21.7400 C   0  0  0  0  0  0  0  0  0  0  0  0
    5.8440   -1.9610   22.0520 C   0  0  0  0  0  0  0  0  0  0  0  0
    8.1870   -1.2930   22.5340 C   0  0  0  0  0  0  0  0  0  0  0  0
    6.0950    0.4990   20.2500 C   0  0  0  0  0  0  0  0  0  0  0  0
    8.1900   -1.1400   23.8510 C   0  0  0  0  0  0  0  0  0  0  0  0
    9.5610   -1.6610   21.8970 C   0  0  0  0  0  0  0  0  0  0  0  0
    5.9980   -2.9770   23.1800 C   0  0  0  0  0  0  0  0  0  0  0  0
    7.4760    2.2130   22.6620 N   0  0  0  0  0  0  0  0  0  0  0  0
    8.7310    1.2110   21.0610 O   0  0  0  0  0  0  0  0  0  0  0  0
    4.9310    1.2070   20.1240 C   0  0  0  0  0  0  0  0  0  0  0  0
    6.7010    0.1400   19.0740 C   0  0  0  0  0  0  0  0  0  0  0  0
   10.7490   -1.8140   22.4860 N   0  0  0  0  0  0  0  0  0  0  0  0
    9.4510   -1.2730   24.6270 C   0  0  0  0  0  0  0  0  0  0  0  0
    6.9050   -4.2070   22.9520 C   0  0  2  0  0  0  0  0  0  0  0  0
    6.2700    0.4320   17.8680 N   0  0  0  0  0  0  0  0  0  0  0  0
    4.4460    1.5330   18.9040 C   0  0  0  0  0  0  0  0  0  0  0  0
   10.7420   -1.5930   23.9350 C   0  0  0  0  0  0  0  0  0  0  0  0
    8.1910    3.4000   22.8580 C   0  0  0  0  0  0  0  0  0  0  0  0
    6.5000   -4.9770   21.7330 N   0  0  0  0  0  0  0  0  0  0  0  0
    6.8530   -4.9460   24.0590 C   0  0  0  0  0  0  0  0  0  0  0  0
   12.0630   -1.6620   24.6610 C   0  0  0  0  0  0  0  0  0  0  0  0
    5.1010    1.1630   17.7520 C   0  0  0  0  0  0  0  0  0  0  0  0
    9.5880    3.4310   23.5090 C   0  0  0  0  0  0  0  0  0  0  0  0
    7.4850    4.6570   22.3710 C   0  0  0  0  0  0  0  0  0  0  0  0
    6.2200   -4.4240   20.4820 C   0  0  0  0  0  0  0  0  0  0  0  0
    5.7890   -6.2350   22.0260 C   0  0  0  0  0  0  0  0  0  0  0  0
    5.4450   -5.3950   24.2410 N   0  0  0  0  0  0  0  0  0  0  0  0
   10.2560    2.1800   23.9760 C   0  0  0  0  0  0  0  0  0  0  0  0
    6.1160    4.6370   21.7270 C   0  0  0  0  0  0  0  0  0  0  0  0
   12.6020   -3.0360   24.8260 C   0  0  0  0  0  0  0  0  0  0  0  0
   13.1150   -0.8940   23.8920 C   0  0  0  0  0  0  0  0  0  0  0  0
   10.1250    4.6470   23.6130 C   0  0  0  0  0  0  0  0  0  0  0  0
    8.1290    6.0070   22.5080 C   0  0  0  0  0  0  0  0  0  0  0  0
    7.1050   -3.3890   19.7620 C   0  0  0  0  0  0  0  0  0  0  0  0
    5.2020   -4.7690   19.9230 O   0  0  0  0  0  0  0  0  0  0  0  0
    4.6940   -5.2020   25.7670 S   0  0  0  0  0  0  0  0  0  0  0  0
    4.7100   -5.9110   23.0590 C   0  0  0  0  0  0  0  0  0  0  0  0
    9.3160    1.4050   24.8680 C   0  0  0  0  0  0  0  0  0  0  0  0
    9.5220    5.9190   23.1740 C   0  0  0  0  0  0  0  0  0  0  0  0
    3.9620   -6.4130   26.0550 O   0  0  0  0  0  0  0  0  0  0  0  0
    5.6720   -4.6710   26.6870 O   0  0  0  0  0  0  0  0  0  0  0  0
    3.4650   -3.9160   25.6870 C   0  0  0  0  0  0  0  0  0  0  0  0
    3.9340   -2.2950   26.0400 S   0  0  0  0  0  0  0  0  0  0  0  0
    2.0790   -3.9440   25.3780 C   0  0  0  0  0  0  0  0  0  0  0  0
    1.4290   -2.7510   25.4250 C   0  0  0  0  0  0  0  0  0  0  0  0
    2.3260   -1.7200   25.7810 C   0  0  0  0  0  0  0  0  0  0  0  0
  1  2  1  0
  2  3  1  6
  1  4  1  0
  1  5  1  0
  2  6  1  0
  5  7  2  0
  5  8  1  0
  4  9  1  0
  3 10  1  0
  3 11  2  0
  6 12  2  0
  6 13  1  0
  8 14  2  0
  7 15  1  0
 16  9  1  1
 13 17  2  0
 12 18  1  0
 14 19  1  0
 15 19  2  0
 10 20  1  0
 16 21  1  0
 16 22  1  0
 19 23  1  0
 17 24  1  0
 18 24  2  0
 20 25  2  0
 20 26  1  0
 21 27  1  0
 21 28  1  0
 22 29  1  0
 25 30  1  0
 26 31  1  0
 23 32  1  0
 23 33  1  0
 25 34  1  0
 26 35  2  0
 27 36  1  0
 27 37  2  0
 29 38  1  0
 28 39  1  0
 29 39  1  0
 30 40  1  0
 34 41  2  0
 35 41  1  0
 38 42  2  0
 38 43  2  0
 38 44  1  0
 44 45  1  0
 44 46  2  0
 46 47  1  0
 45 48  1  0
 47 48  2  0
M  END
