x0689-x0434
     RDKit          3D

 35 38  0  0  0  0  0  0  0  0999 V2000
    8.0850   -3.6070   20.2810 C   0  0  0  0  0  0  0  0  0  0  0  0
    6.6810   -4.0740   20.6650 C   0  0  0  0  0  0  0  0  0  0  0  0
    5.8110   -4.3830   19.8460 O   0  0  0  0  0  0  0  0  0  0  0  0
    6.3470   -4.1440   22.1590 C   0  0  0  0  0  0  0  0  0  0  0  0
    6.5150   -2.8590   22.6450 C   0  0  0  0  0  0  0  0  0  0  0  0
    4.9550   -4.7110   22.2380 C   0  0  0  0  0  0  0  0  0  0  0  0
    7.2740   -5.0180   22.9800 C   0  0  0  0  0  0  0  0  0  0  0  0
    6.0070   -1.7880   21.8770 C   0  0  0  0  0  0  0  0  0  0  0  0
    4.7910   -5.6410   23.1720 C   0  0  0  0  0  0  0  0  0  0  0  0
    6.8580   -5.0420   24.2770 C   0  0  0  0  0  0  0  0  0  0  0  0
    6.9230   -1.0180   21.1110 N   0  0  0  0  0  0  0  0  0  0  0  0
    5.5180   -5.2880   24.3720 N   0  0  0  0  0  0  0  0  0  0  0  0
    4.7490   -5.0790   25.8490 S   0  0  0  0  0  0  0  0  0  0  0  0
    8.1080   -0.4150   21.5970 C   0  0  0  0  0  0  0  0  0  0  0  0
    6.2990   -0.2290   20.1230 C   0  0  0  0  0  0  0  0  0  0  0  0
    3.9650   -6.2690   26.0960 O   0  0  0  0  0  0  0  0  0  0  0  0
    5.7370   -4.7890   26.8600 O   0  0  0  0  0  0  0  0  0  0  0  0
    8.3550    0.7600   21.3290 O   0  0  0  0  0  0  0  0  0  0  0  0
    8.9920   -1.1840   22.3340 N   0  0  0  0  0  0  0  0  0  0  0  0
    3.6230   -3.7910   25.7440 C   0  0  0  0  0  0  0  0  0  0  0  0
    5.1170    0.5130   20.2630 C   0  0  0  0  0  0  0  0  0  0  0  0
    6.9250   -0.1360   18.7670 C   0  0  0  0  0  0  0  0  0  0  0  0
    3.9540   -2.1340   26.0570 S   0  0  0  0  0  0  0  0  0  0  0  0
    2.2970   -4.0050   25.3920 C   0  0  0  0  0  0  0  0  0  0  0  0
   10.3320   -0.7790   22.4930 C   0  0  0  0  0  0  0  0  0  0  0  0
    4.6140    1.2940   19.1040 C   0  0  0  0  0  0  0  0  0  0  0  0
    6.4280    0.6010   17.7270 N   0  0  0  0  0  0  0  0  0  0  0  0
    1.5990   -2.8870   25.3870 C   0  0  0  0  0  0  0  0  0  0  0  0
    2.3080   -1.7510   25.7200 C   0  0  0  0  0  0  0  0  0  0  0  0
   10.5610    0.5800   22.8570 C   0  0  0  0  0  0  0  0  0  0  0  0
   11.5550   -1.6260   22.3060 C   0  0  0  0  0  0  0  0  0  0  0  0
    5.2810    1.2850   17.9580 C   0  0  0  0  0  0  0  0  0  0  0  0
   11.9820    1.1630   23.0430 C   0  0  0  0  0  0  0  0  0  0  0  0
   12.9280   -1.0440   22.4970 C   0  0  0  0  0  0  0  0  0  0  0  0
   13.1080    0.2250   22.8300 C   0  0  0  0  0  0  0  0  0  0  0  0
  1  2  1  0
  2  3  2  0
  4  2  1  0
  4  5  1  0
  4  6  1  0
  4  7  1  0
  5  8  1  0
  6  9  1  0
  7 10  1  0
  8 11  1  0
  9 12  1  0
 10 12  1  0
 12 13  1  0
 11 14  1  0
 11 15  1  0
 13 16  2  0
 13 17  2  0
 14 18  2  0
 14 19  1  0
 13 20  1  0
 15 21  2  0
 15 22  1  0
 20 23  1  0
 20 24  2  0
 19 25  1  0
 21 26  1  0
 22 27  2  0
 24 28  1  0
 23 29  1  0
 28 29  2  0
 25 30  2  0
 25 31  1  0
 26 32  2  0
 27 32  1  0
 30 33  1  0
 31 34  2  0
 33 35  2  0
 34 35  1  0
M  END
