x0689-x0426
     RDKit          3D

 39 42  0  0  0  0  0  0  0  0999 V2000
    7.5850   -3.6510   20.4260 C   0  0  0  0  0  0  0  0  0  0  0  0
    6.4120   -4.5850   20.6910 C   0  0  0  0  0  0  0  0  0  0  0  0
    5.4280   -4.5840   19.9380 O   0  0  0  0  0  0  0  0  0  0  0  0
    6.5180   -5.4290   21.8130 N   0  0  0  0  0  0  0  0  0  0  0  0
    5.6590   -6.4350   22.1050 C   0  0  0  0  0  0  0  0  0  0  0  0
    7.1960   -4.9140   23.0010 C   0  0  0  0  0  0  0  0  0  0  0  0
    4.8360   -6.0370   23.1670 C   0  0  0  0  0  0  0  0  0  0  0  0
    6.4400   -4.3670   24.0220 C   0  0  1  0  0  0  0  0  0  0  0  0
    6.3310   -2.8550   23.8360 C   0  0  0  0  0  0  0  0  0  0  0  0
    5.2220   -4.9780   24.1700 N   0  0  0  0  0  0  0  0  0  0  0  0
    4.6670   -5.0790   25.7780 S   0  0  0  0  0  0  0  0  0  0  0  0
    5.1550   -2.3340   23.0290 C   0  0  0  0  0  0  0  0  0  0  0  0
    3.9860   -6.3480   25.9160 O   0  0  0  0  0  0  0  0  0  0  0  0
    5.7400   -4.8580   26.7210 O   0  0  0  0  0  0  0  0  0  0  0  0
    4.3270   -1.5000   23.7060 C   0  0  0  0  0  0  0  0  0  0  0  0
    3.4670   -3.8830   25.9600 C   0  0  0  0  0  0  0  0  0  0  0  0
    3.9420   -0.3090   23.0930 C   0  0  0  0  0  0  0  0  0  0  0  0
    3.9170   -2.2310   26.3560 S   0  0  0  0  0  0  0  0  0  0  0  0
    1.9670   -3.9440   25.8430 C   0  0  0  0  0  0  0  0  0  0  0  0
    2.7770    0.3000   23.7620 N   0  0  0  0  0  0  0  0  0  0  0  0
    1.2750   -2.6290   26.0670 C   0  0  0  0  0  0  0  0  0  0  0  0
    2.2940   -1.5900   26.3620 C   0  0  0  0  0  0  0  0  0  0  0  0
    2.5710    1.7440   23.7990 C   0  0  0  0  0  0  0  0  0  0  0  0
    3.5630    2.5050   23.1570 N   0  0  0  0  0  0  0  0  0  0  0  0
    1.3350    2.4900   24.5140 C   0  0  0  0  0  0  0  0  0  0  0  0
    4.1820    2.3400   21.9100 C   0  0  0  0  0  0  0  0  0  0  0  0
    1.5870    3.8290   25.2330 C   0  0  0  0  0  0  0  0  0  0  0  0
   -0.0750    1.9350   24.5160 C   0  0  0  0  0  0  0  0  0  0  0  0
    3.5400    1.6140   20.9070 C   0  0  0  0  0  0  0  0  0  0  0  0
    2.8360    4.3410   25.2420 F   0  0  0  0  0  0  0  0  0  0  0  0
   -1.0560    2.6060   25.1290 C   0  0  0  0  0  0  0  0  0  0  0  0
    0.5640    4.5380   25.8780 C   0  0  0  0  0  0  0  0  0  0  0  0
   -0.8430    3.8910   25.8250 C   0  0  0  0  0  0  0  0  0  0  0  0
    4.5990    1.1700   19.9210 C   0  0  0  0  0  0  0  0  0  0  0  0
    5.5780    0.2040   20.2650 C   0  0  0  0  0  0  0  0  0  0  0  0
    4.5760    1.7480   18.6600 C   0  0  0  0  0  0  0  0  0  0  0  0
    6.5820   -0.2390   19.3680 C   0  0  0  0  0  0  0  0  0  0  0  0
    5.5020    1.3800   17.7360 C   0  0  0  0  0  0  0  0  0  0  0  0
    6.5520    0.3750   18.0160 N   0  0  0  0  0  0  0  0  0  0  0  0
  1  2  1  0
  2  3  2  0
  2  4  1  0
  4  5  1  0
  4  6  1  0
  5  7  1  0
  6  8  1  0
  8  9  1  6
  7 10  1  0
  8 10  1  0
 10 11  1  0
  9 12  1  0
 11 13  2  0
 11 14  2  0
 12 15  1  0
 11 16  1  0
 15 17  1  0
 16 18  1  0
 16 19  2  0
 17 20  1  0
 19 21  1  0
 18 22  1  0
 21 22  2  0
 20 23  2  3
 23 24  1  0
 23 25  1  0
 24 26  1  0
 25 27  2  0
 25 28  1  0
 26 29  1  0
 27 30  1  0
 28 31  2  0
 27 32  1  0
 31 33  1  0
 32 33  2  0
 29 34  1  0
 34 35  2  0
 34 36  1  0
 35 37  1  0
 36 38  2  0
 37 39  2  0
 38 39  1  0
M  END
