x0689-x2193-x2705
     RDKit          3D

 54 59  0  0  0  0  0  0  0  0999 V2000
    7.6000   -1.1310   21.7340 N   0  0  0  0  0  0  0  0  0  0  0  0
    7.0120    0.1400   21.6950 C   0  0  1  0  0  0  0  0  0  0  0  0
    7.8090    1.2480   21.9100 C   0  0  0  0  0  0  0  0  0  0  0  0
    8.7820   -1.3010   22.4930 C   0  0  0  0  0  0  0  0  0  0  0  0
    6.3530    0.4430   20.3660 C   0  0  0  0  0  0  0  0  0  0  0  0
    8.9970   -1.7980   23.8970 N   0  0  0  0  0  0  0  0  0  0  0  0
   10.0060   -1.0300   22.0260 C   0  0  0  0  0  0  0  0  0  0  0  0
    7.4850    2.2430   22.9090 N   0  0  0  0  0  0  0  0  0  0  0  0
    8.9260    1.3480   21.0370 O   0  0  0  0  0  0  0  0  0  0  0  0
    5.2190    1.2450   20.2800 C   0  0  0  0  0  0  0  0  0  0  0  0
    6.9450   -0.1220   19.0890 C   0  0  0  0  0  0  0  0  0  0  0  0
   10.3100   -1.8190   24.3030 N   0  0  0  0  0  0  0  0  0  0  0  0
   11.0230   -1.3440   23.1430 C   0  0  0  0  0  0  0  0  0  0  0  0
    8.1560   -2.2300   24.8050 C   0  0  0  0  0  0  0  0  0  0  0  0
   12.5070   -1.2270   23.1480 C   0  0  0  0  0  0  0  0  0  0  0  0
    6.3580    0.1760   17.7980 N   0  0  0  0  0  0  0  0  0  0  0  0
    4.6180    1.5520   19.0240 C   0  0  0  0  0  0  0  0  0  0  0  0
    8.1830    3.4860   23.0020 C   0  0  0  0  0  0  0  0  0  0  0  0
    8.5300   -3.6310   25.2390 N   0  0  0  0  0  0  0  0  0  0  0  0
   12.8540    0.0980   23.4160 C   0  0  0  0  0  0  0  0  0  0  0  0
   13.0920   -2.1720   24.2290 C   0  0  0  0  0  0  0  0  0  0  0  0
   13.0500   -1.6570   21.7880 C   0  0  0  0  0  0  0  0  0  0  0  0
    5.1800    1.0350   17.8350 C   0  0  0  0  0  0  0  0  0  0  0  0
    9.4910    3.5370   23.4990 C   0  0  0  0  0  0  0  0  0  0  0  0
    7.5810    4.6560   22.5960 C   0  0  0  0  0  0  0  0  0  0  0  0
    8.6930   -3.8970   26.6530 C   0  0  0  0  0  0  0  0  0  0  0  0
    9.5240   -4.4410   24.5470 C   0  0  0  0  0  0  0  0  0  0  0  0
   10.2080    2.2780   23.9320 C   0  0  0  0  0  0  0  0  0  0  0  0
    6.1790    4.7350   22.0220 C   0  0  0  0  0  0  0  0  0  0  0  0
   10.2150    4.7260   23.6190 C   0  0  0  0  0  0  0  0  0  0  0  0
    8.3820    5.9850   22.7240 C   0  0  0  0  0  0  0  0  0  0  0  0
    7.9260   -5.1520   26.9360 C   0  0  1  0  0  0  0  0  0  0  0  0
    9.4080   -5.8530   25.1390 C   0  0  0  0  0  0  0  0  0  0  0  0
    9.3010    1.3180   24.7400 C   0  0  0  0  0  0  0  0  0  0  0  0
    9.6660    5.9540   23.2350 C   0  0  0  0  0  0  0  0  0  0  0  0
    6.5160   -4.7030   27.2670 C   0  0  0  0  0  0  0  0  0  0  0  0
    8.1320   -6.0330   25.9310 N   0  0  0  0  0  0  0  0  0  0  0  0
    5.4260   -5.5990   26.8810 N   0  0  0  0  0  0  0  0  0  0  0  0
    4.3780   -5.4650   25.5330 S   0  0  2  0  0  0  0  0  0  0  0  0
    3.5230   -6.6200   25.5110 O   0  0  0  0  0  0  0  0  0  0  0  0
    5.2850   -5.4980   24.0820 N   0  0  0  0  0  0  0  0  0  0  0  0
    3.3970   -3.9800   25.6300 C   0  0  0  0  0  0  0  0  0  0  0  0
    4.5860   -5.8950   22.8540 C   0  0  0  0  0  0  0  0  0  0  0  0
    6.1200   -4.3350   23.7660 C   0  0  0  0  0  0  0  0  0  0  0  0
    4.0360   -2.4140   26.0210 S   0  0  0  0  0  0  0  0  0  0  0  0
    2.0240   -3.9220   25.4000 C   0  0  0  0  0  0  0  0  0  0  0  0
    5.6350   -6.2960   21.8130 C   0  0  0  0  0  0  0  0  0  0  0  0
    7.1170   -4.6690   22.8420 C   0  0  0  0  0  0  0  0  0  0  0  0
    1.5550   -2.6590   25.5450 C   0  0  0  0  0  0  0  0  0  0  0  0
    2.4730   -1.7090   25.8750 C   0  0  0  0  0  0  0  0  0  0  0  0
    6.5510   -5.1810   21.6010 N   0  0  0  0  0  0  0  0  0  0  0  0
    6.3240   -4.3990   20.4510 C   0  0  0  0  0  0  0  0  0  0  0  0
    7.3950   -3.4560   19.9150 C   0  0  0  0  0  0  0  0  0  0  0  0
    5.2470   -4.4900   19.8730 O   0  0  0  0  0  0  0  0  0  0  0  0
  2  1  1  6
  2  3  1  0
  1  4  1  0
  2  5  1  0
  4  6  1  0
  4  7  2  0
  3  8  1  0
  3  9  2  0
  5 10  2  0
  5 11  1  0
  6 12  1  0
  7 13  1  0
 12 13  2  0
  6 14  1  0
 13 15  1  0
 11 16  2  0
 10 17  1  0
  8 18  1  0
 14 19  1  0
 15 20  1  0
 15 21  1  0
 15 22  1  0
 16 23  1  0
 17 23  2  0
 18 24  2  0
 18 25  1  0
 19 26  1  0
 19 27  1  0
 24 28  1  0
 25 29  1  0
 24 30  1  0
 25 31  2  0
 26 32  1  0
 27 33  1  0
 28 34  1  0
 30 35  2  0
 31 35  1  0
 32 36  1  6
 32 37  1  0
 33 37  1  0
 36 38  1  0
 38 39  2  0
 39 40  2  0
 39 41  1  0
 39 42  1  1
 41 43  1  0
 41 44  1  0
 42 45  1  0
 42 46  2  0
 43 47  1  0
 44 48  1  0
 46 49  1  0
 45 50  1  0
 49 50  2  0
 47 51  1  0
 48 51  1  0
 51 52  1  0
 52 53  1  0
 52 54  2  0
M  END
