x0689-x2912
     RDKit          3D

 39 42  0  0  0  0  0  0  0  0999 V2000
    6.9160   -0.5490   21.1250 N   0  0  0  0  0  0  0  0  0  0  0  0
    8.1470   -0.2010   21.7740 C   0  0  0  0  0  0  0  0  0  0  0  0
    8.7820    0.8160   21.4890 O   0  0  0  0  0  0  0  0  0  0  0  0
    6.3430    0.1200   20.0410 C   0  0  0  0  0  0  0  0  0  0  0  0
    8.5990   -1.1940   22.8440 C   0  0  2  0  0  0  0  0  0  0  0  0
    5.2770    0.9830   20.2480 C   0  0  0  0  0  0  0  0  0  0  0  0
    6.7430    0.0040   18.7580 C   0  0  0  0  0  0  0  0  0  0  0  0
    7.7180   -1.2470   24.1480 C   0  0  0  0  0  0  0  0  0  0  0  0
    4.7220    1.2230   21.6150 C   0  0  0  0  0  0  0  0  0  0  0  0
    6.2890    0.5760   17.6830 N   0  0  0  0  0  0  0  0  0  0  0  0
    4.7170    1.6420   19.1480 C   0  0  0  0  0  0  0  0  0  0  0  0
    9.9880   -1.0150   23.2800 C   0  0  0  0  0  0  0  0  0  0  0  0
    6.2660   -1.6210   23.9240 C   0  0  0  0  0  0  0  0  0  0  0  0
    5.2290    1.4330   17.8660 C   0  0  0  0  0  0  0  0  0  0  0  0
   10.4180   -0.6420   24.5800 C   0  0  0  0  0  0  0  0  0  0  0  0
   11.0040   -1.2460   22.2550 C   0  0  0  0  0  0  0  0  0  0  0  0
    5.8440   -2.7990   23.2670 C   0  0  0  0  0  0  0  0  0  0  0  0
   11.9370   -0.5030   24.8510 C   0  0  0  0  0  0  0  0  0  0  0  0
   12.4440   -1.0930   22.5510 C   0  0  0  0  0  0  0  0  0  0  0  0
   13.3350   -1.3390   21.4150 C   0  0  0  0  0  0  0  0  0  0  0  0
   12.8810   -0.7550   23.7370 C   0  0  0  0  0  0  0  0  0  0  0  0
    6.4080   -4.1270   23.8190 C   0  0  1  0  0  0  0  0  0  0  0  0
   14.0620   -1.3720   20.3140 N   0  0  0  0  0  0  0  0  0  0  0  0
    5.4040   -5.1500   24.2620 N   0  0  0  0  0  0  0  0  0  0  0  0
    7.2280   -4.6970   22.9160 C   0  0  0  0  0  0  0  0  0  0  0  0
    4.6890   -5.1080   25.7850 S   0  0  0  0  0  0  0  0  0  0  0  0
    6.4970   -5.2320   21.8710 N   0  0  0  0  0  0  0  0  0  0  0  0
    4.6010   -5.6600   23.1620 C   0  0  0  0  0  0  0  0  0  0  0  0
    6.3780   -4.5030   20.6600 C   0  0  0  0  0  0  0  0  0  0  0  0
    4.0250   -6.3700   26.0180 O   0  0  0  0  0  0  0  0  0  0  0  0
    5.6450   -4.5680   26.7250 O   0  0  0  0  0  0  0  0  0  0  0  0
    5.5390   -6.2870   22.1860 C   0  0  0  0  0  0  0  0  0  0  0  0
    3.4060   -3.8770   25.7240 C   0  0  0  0  0  0  0  0  0  0  0  0
    7.4930   -3.5450   20.2380 C   0  0  0  0  0  0  0  0  0  0  0  0
    5.3780   -4.6470   19.9450 O   0  0  0  0  0  0  0  0  0  0  0  0
    3.8440   -2.2350   26.1660 S   0  0  0  0  0  0  0  0  0  0  0  0
    2.0520   -4.0110   25.3710 C   0  0  0  0  0  0  0  0  0  0  0  0
    1.2970   -2.7140   25.4640 C   0  0  0  0  0  0  0  0  0  0  0  0
    2.1970   -1.6030   25.9070 C   0  0  0  0  0  0  0  0  0  0  0  0
  1  2  1  0
  2  3  2  0
  1  4  1  0
  2  5  1  0
  4  6  2  0
  4  7  1  0
  5  8  1  1
  6  9  1  0
  7 10  2  0
  6 11  1  0
  5 12  1  0
  8 13  1  0
 10 14  1  0
 11 14  2  0
 12 15  2  0
 12 16  1  0
 13 17  1  0
 15 18  1  0
 16 19  2  0
 19 20  1  0
 18 21  2  0
 19 21  1  0
 22 17  1  6
 20 23  3  0
 22 24  1  0
 22 25  1  0
 24 26  1  0
 25 27  1  0
 24 28  1  0
 27 29  1  0
 26 30  2  0
 26 31  2  0
 27 32  1  0
 28 32  1  0
 26 33  1  0
 29 34  1  0
 29 35  2  0
 33 36  1  0
 33 37  2  0
 37 38  1  0
 36 39  1  0
 38 39  2  0
M  END
