x0689-x3113-x0540
     RDKit          3D

 57 61  0  0  0  0  0  0  0  0999 V2000
    7.2240   -1.3390   21.8990 N   0  0  0  0  0  0  0  0  0  0  0  0
    7.0330    0.1040   21.6960 C   0  0  1  0  0  0  0  0  0  0  0  0
    8.2140    1.0170   21.9270 C   0  0  0  0  0  0  0  0  0  0  0  0
    6.0830   -2.1800   21.9570 C   0  0  0  0  0  0  0  0  0  0  0  0
    8.4440   -1.6030   22.6280 C   0  0  0  0  0  0  0  0  0  0  0  0
    6.0400   -3.2900   22.7630 C   0  0  0  0  0  0  0  0  0  0  0  0
    6.4230    0.4140   20.3590 C   0  0  0  0  0  0  0  0  0  0  0  0
    9.6390   -1.4160   21.8970 C   0  0  0  0  0  0  0  0  0  0  0  0
    8.5930   -2.0010   23.9730 C   0  0  0  0  0  0  0  0  0  0  0  0
    8.5000    1.3880   23.1340 N   0  0  0  0  0  0  0  0  0  0  0  0
    8.8730    1.4550   20.9920 O   0  0  0  0  0  0  0  0  0  0  0  0
    5.2220    1.0860   20.3320 C   0  0  0  0  0  0  0  0  0  0  0  0
    6.9780    0.0730   19.0140 C   0  0  0  0  0  0  0  0  0  0  0  0
   10.9160   -1.5860   22.4150 C   0  0  0  0  0  0  0  0  0  0  0  0
    9.8790   -2.1760   24.5130 C   0  0  0  0  0  0  0  0  0  0  0  0
    6.3780   -4.6590   22.0720 C   0  0  0  0  0  0  0  0  0  0  0  0
    9.3390    2.4560   23.4100 C   0  0  0  0  0  0  0  0  0  0  0  0
    4.5450    1.4490   21.6040 C   0  0  0  0  0  0  0  0  0  0  0  0
    6.6730   -4.2360   20.6300 C   0  0  0  0  0  0  0  0  0  0  0  0
    6.3980    0.4080   17.7300 N   0  0  0  0  0  0  0  0  0  0  0  0
    4.6500    1.4120   19.1000 C   0  0  0  0  0  0  0  0  0  0  0  0
   11.1640   -1.9580   23.7190 C   0  0  0  0  0  0  0  0  0  0  0  0
    5.2010   -5.6400   22.0930 C   0  0  0  0  0  0  0  0  0  0  0  0
    7.5200   -5.2570   22.9150 C   0  0  0  0  0  0  0  0  0  0  0  0
   10.7900    2.0090   23.3420 C   0  0  0  0  0  0  0  0  0  0  0  0
   12.4970   -2.0920   24.2440 C   0  0  0  0  0  0  0  0  0  0  0  0
    5.1530    2.4830   22.2910 C   0  0  0  0  0  0  0  0  0  0  0  0
    8.0750   -3.6820   20.3550 C   0  0  0  0  0  0  0  0  0  0  0  0
    5.7510   -4.3330   19.8200 O   0  0  0  0  0  0  0  0  0  0  0  0
    5.1880    1.1120   17.8640 C   0  0  0  0  0  0  0  0  0  0  0  0
    4.9890   -6.2460   23.5020 C   0  0  0  0  0  0  0  0  0  0  0  0
    7.0720   -5.2130   24.3950 C   0  0  0  0  0  0  0  0  0  0  0  0
   11.7280    3.1790   23.2720 C   0  0  0  0  0  0  0  0  0  0  0  0
   13.4350   -2.1830   23.0530 C   0  0  0  0  0  0  0  0  0  0  0  0
   12.7430   -3.0760   25.3370 C   0  0  0  0  0  0  0  0  0  0  0  0
   12.7220   -0.7100   24.8810 C   0  0  0  0  0  0  0  0  0  0  0  0
    4.1470    3.2350   23.0090 N   0  0  0  0  0  0  0  0  0  0  0  0
    5.5870   -5.3520   24.5080 N   0  0  0  0  0  0  0  0  0  0  0  0
   11.8010    3.9110   22.3050 O   0  0  0  0  0  0  0  0  0  0  0  0
    2.9590    2.6140   23.5900 C   0  0  0  0  0  0  0  0  0  0  0  0
    4.7650   -5.1990   25.9590 S   0  0  0  0  0  0  0  0  0  0  0  0
   12.9470    4.7580   22.3890 C   0  0  0  0  0  0  0  0  0  0  0  0
    3.0000    1.6950   24.4030 O   0  0  0  0  0  0  0  0  0  0  0  0
    1.7330    3.2340   23.0830 N   0  0  0  0  0  0  0  0  0  0  0  0
    4.0310   -6.4290   26.1370 O   0  0  0  0  0  0  0  0  0  0  0  0
    5.7010   -4.7220   26.9440 O   0  0  0  0  0  0  0  0  0  0  0  0
    3.5690   -3.8690   25.8180 C   0  0  0  0  0  0  0  0  0  0  0  0
    0.5360    3.3360   23.9300 C   0  0  0  0  0  0  0  0  0  0  0  0
    3.9310   -2.2160   26.0930 S   0  0  0  0  0  0  0  0  0  0  0  0
    2.2440   -4.0660   25.4820 C   0  0  0  0  0  0  0  0  0  0  0  0
    0.4930    4.5970   24.5610 C   0  0  0  0  0  0  0  0  0  0  0  0
   -0.6040    2.9930   23.1890 C   0  0  0  0  0  0  0  0  0  0  0  0
    1.4550   -2.7920   25.4500 C   0  0  0  0  0  0  0  0  0  0  0  0
    2.3150   -1.7270   25.7760 C   0  0  0  0  0  0  0  0  0  0  0  0
   -0.7390    4.9310   25.1670 C   0  0  0  0  0  0  0  0  0  0  0  0
   -1.8280    3.4390   23.6630 C   0  0  0  0  0  0  0  0  0  0  0  0
   -1.8560    4.6510   24.3440 C   0  0  0  0  0  0  0  0  0  0  0  0
  1  2  1  0
  2  3  1  6
  1  4  1  0
  1  5  1  0
  4  6  1  0
  2  7  1  0
  5  8  2  0
  5  9  1  0
  3 10  1  0
  3 11  2  0
  7 12  1  0
  7 13  2  0
  8 14  1  0
  9 15  2  0
  6 16  1  0
 10 17  1  0
 12 18  1  0
 16 19  1  0
 13 20  1  0
 12 21  2  0
 14 22  2  0
 15 22  1  0
 16 23  1  0
 16 24  1  0
 17 25  1  0
 22 26  1  0
 18 27  1  0
 19 28  1  0
 19 29  2  0
 20 30  2  0
 21 30  1  0
 23 31  1  0
 24 32  1  0
 25 33  1  0
 26 34  1  0
 26 35  1  0
 26 36  1  0
 27 37  1  0
 31 38  1  0
 32 38  1  0
 33 39  1  0
 37 40  1  0
 38 41  1  0
 39 42  1  0
 40 43  2  0
 40 44  1  0
 41 45  2  0
 41 46  2  0
 41 47  1  0
 44 48  1  0
 47 49  1  0
 47 50  2  0
 48 51  1  0
 48 52  1  0
 50 53  1  0
 49 54  1  0
 53 54  2  0
 51 55  1  0
 52 56  1  0
 55 57  1  0
 56 57  1  0
M  END
