x0689-x1093
     RDKit          3D

 38 42  0  0  0  0  0  0  0  0999 V2000
    7.9290   -3.6140   20.3430 C   0  0  0  0  0  0  0  0  0  0  0  0
    6.5530   -4.1840   20.6850 C   0  0  0  0  0  0  0  0  0  0  0  0
    5.7190   -4.5860   19.8880 O   0  0  0  0  0  0  0  0  0  0  0  0
    6.1990   -4.1700   22.1870 C   0  0  0  0  0  0  0  0  0  0  0  0
    6.1590   -2.6070   22.3710 C   0  0  0  0  0  0  0  0  0  0  0  0
    4.9570   -4.8100   22.2560 C   0  0  0  0  0  0  0  0  0  0  0  0
    7.2290   -4.7310   22.9560 C   0  0  0  0  0  0  0  0  0  0  0  0
    7.4900   -1.8280   22.4910 C   0  0  0  0  0  0  0  0  0  0  0  0
    4.9130   -5.7780   23.2540 C   0  0  0  0  0  0  0  0  0  0  0  0
    6.8820   -4.6110   24.2990 C   0  0  0  0  0  0  0  0  0  0  0  0
    7.6520   -0.4330   21.7540 C   0  0  1  0  0  0  0  0  0  0  0  0
    5.6030   -5.3250   24.4520 N   0  0  0  0  0  0  0  0  0  0  0  0
    4.7200   -5.1490   25.8610 S   0  0  0  0  0  0  0  0  0  0  0  0
    8.8580    0.2040   21.7230 C   0  0  0  0  0  0  0  0  0  0  0  0
    6.9870   -0.2110   20.3890 C   0  0  0  0  0  0  0  0  0  0  0  0
    3.9790   -6.3750   26.0580 O   0  0  0  0  0  0  0  0  0  0  0  0
    5.6040   -4.7890   26.9460 O   0  0  0  0  0  0  0  0  0  0  0  0
    8.9050    1.3260   21.1800 O   0  0  0  0  0  0  0  0  0  0  0  0
    3.5670   -3.8350   25.7520 C   0  0  0  0  0  0  0  0  0  0  0  0
   10.1150   -0.2840   22.3050 N   0  0  0  0  0  0  0  0  0  0  0  0
    7.2300   -0.6310   19.0030 C   0  0  0  0  0  0  0  0  0  0  0  0
    5.9330    0.5140   20.2380 C   0  0  0  0  0  0  0  0  0  0  0  0
    3.9410   -2.0650   26.0830 S   0  0  0  0  0  0  0  0  0  0  0  0
    2.2470   -4.0520   25.4030 C   0  0  0  0  0  0  0  0  0  0  0  0
   10.8290    0.3870   23.2200 C   0  0  0  0  0  0  0  0  0  0  0  0
   10.3510   -1.6050   22.2970 C   0  0  0  0  0  0  0  0  0  0  0  0
    6.3130   -0.1130   18.1950 N   0  0  0  0  0  0  0  0  0  0  0  0
    5.4520    0.6450   18.9870 C   0  0  0  0  0  0  0  0  0  0  0  0
    5.1800    1.2430   21.3920 C   0  0  0  0  0  0  0  0  0  0  0  0
    1.4860   -2.7810   25.4010 C   0  0  0  0  0  0  0  0  0  0  0  0
    2.3160   -1.5650   25.7700 C   0  0  0  0  0  0  0  0  0  0  0  0
   12.1560    0.1170   23.1280 C   0  0  0  0  0  0  0  0  0  0  0  0
   11.7320   -2.1280   22.4930 C   0  0  0  0  0  0  0  0  0  0  0  0
    4.4160    1.3070   18.5000 N   0  0  0  0  0  0  0  0  0  0  0  0
    4.0630    1.9660   20.9720 C   0  0  0  0  0  0  0  0  0  0  0  0
   12.6290   -1.1490   23.1110 N   0  0  0  0  0  0  0  0  0  0  0  0
    3.7260    1.9520   19.4330 C   0  0  0  0  0  0  0  0  0  0  0  0
   13.0750   -1.6120   24.3350 C   0  0  0  0  0  0  0  0  0  0  0  0
  1  2  1  0
  2  3  2  0
  4  2  1  0
  4  5  1  0
  4  6  1  0
  4  7  1  0
  5  8  1  0
  6  9  1  0
  7 10  1  0
 11  8  1  6
  9 12  1  0
 10 12  1  0
 12 13  1  0
 11 14  1  0
 11 15  1  0
 13 16  2  0
 13 17  2  0
 14 18  2  0
 13 19  1  0
 14 20  1  0
 15 21  2  0
 15 22  1  0
 19 23  1  0
 19 24  2  0
 20 25  1  0
 20 26  1  0
 21 27  1  0
 22 28  2  0
 27 28  1  0
 22 29  1  0
 24 30  1  0
 23 31  1  0
 30 31  2  0
 25 32  1  0
 26 33  1  0
 28 34  1  0
 29 35  2  0
 32 36  1  0
 33 36  1  0
 34 37  2  0
 35 37  1  0
 36 38  1  0
M  END
