x0689-x3113
     RDKit          3D

 45 48  0  0  0  0  0  0  0  0999 V2000
    7.0050   -0.9570   22.1710 N   0  0  0  0  0  0  0  0  0  0  0  0
    6.8450    0.3600   21.8420 C   0  0  1  0  0  0  0  0  0  0  0  0
    8.0820    1.1970   22.0320 C   0  0  0  0  0  0  0  0  0  0  0  0
    6.0650   -1.9710   21.8220 C   0  0  0  0  0  0  0  0  0  0  0  0
    8.3890   -1.2670   22.6850 C   0  0  0  0  0  0  0  0  0  0  0  0
    5.7720   -3.0550   22.6410 C   0  0  0  0  0  0  0  0  0  0  0  0
    6.2670    0.6020   20.4720 C   0  0  0  0  0  0  0  0  0  0  0  0
    9.5310   -1.5690   21.7450 C   0  0  0  0  0  0  0  0  0  0  0  0
    8.7000   -1.2530   24.1450 C   0  0  0  0  0  0  0  0  0  0  0  0
    8.3310    1.6170   23.3220 N   0  0  0  0  0  0  0  0  0  0  0  0
    8.8090    1.5240   21.0890 O   0  0  0  0  0  0  0  0  0  0  0  0
    5.1820    1.3800   20.3880 C   0  0  0  0  0  0  0  0  0  0  0  0
    6.8540    0.0190   19.1540 C   0  0  0  0  0  0  0  0  0  0  0  0
   10.7680   -1.7990   22.1740 C   0  0  0  0  0  0  0  0  0  0  0  0
   10.0830   -1.5020   24.6410 C   0  0  0  0  0  0  0  0  0  0  0  0
    6.1700   -4.4750   22.0970 C   0  0  0  0  0  0  0  0  0  0  0  0
    9.3130    2.5320   23.6360 C   0  0  0  0  0  0  0  0  0  0  0  0
    6.6370   -4.2350   20.6740 C   0  0  0  0  0  0  0  0  0  0  0  0
    6.3630    0.2460   17.9550 N   0  0  0  0  0  0  0  0  0  0  0  0
    4.5840    1.6660   19.0360 C   0  0  0  0  0  0  0  0  0  0  0  0
   11.2100   -1.7900   23.6020 C   0  0  0  0  0  0  0  0  0  0  0  0
    5.0550   -5.5160   22.1730 C   0  0  0  0  0  0  0  0  0  0  0  0
    7.3110   -5.0110   22.9930 C   0  0  0  0  0  0  0  0  0  0  0  0
   10.7170    2.0700   23.2990 C   0  0  0  0  0  0  0  0  0  0  0  0
   12.5890   -1.9950   24.1210 C   0  0  0  0  0  0  0  0  0  0  0  0
    8.0540   -3.6950   20.3810 C   0  0  0  0  0  0  0  0  0  0  0  0
    5.7800   -4.4390   19.8330 O   0  0  0  0  0  0  0  0  0  0  0  0
    5.2780    1.0300   17.8550 C   0  0  0  0  0  0  0  0  0  0  0  0
    4.9780   -6.2940   23.4580 C   0  0  0  0  0  0  0  0  0  0  0  0
    6.9620   -5.0000   24.3000 C   0  0  0  0  0  0  0  0  0  0  0  0
   11.6930    3.0500   23.2670 C   0  0  0  0  0  0  0  0  0  0  0  0
   13.4430   -2.0150   23.0970 C   0  0  0  0  0  0  0  0  0  0  0  0
   12.7300   -3.0890   25.1160 C   0  0  0  0  0  0  0  0  0  0  0  0
   12.8720   -0.8490   24.7420 C   0  0  0  0  0  0  0  0  0  0  0  0
    5.5180   -5.3620   24.4420 N   0  0  0  0  0  0  0  0  0  0  0  0
   11.8000    3.8520   22.3530 O   0  0  0  0  0  0  0  0  0  0  0  0
    4.7260   -5.1920   25.9270 S   0  0  0  0  0  0  0  0  0  0  0  0
   12.9540    4.6740   22.4800 C   0  0  0  0  0  0  0  0  0  0  0  0
    3.9550   -6.3890   26.1720 O   0  0  0  0  0  0  0  0  0  0  0  0
    5.6610   -4.7150   26.9110 O   0  0  0  0  0  0  0  0  0  0  0  0
    3.4760   -3.9290   25.7700 C   0  0  0  0  0  0  0  0  0  0  0  0
    3.8950   -2.2950   26.0560 S   0  0  0  0  0  0  0  0  0  0  0  0
    2.0060   -3.9800   25.4210 C   0  0  0  0  0  0  0  0  0  0  0  0
    1.3820   -2.7170   25.4280 C   0  0  0  0  0  0  0  0  0  0  0  0
    2.2960   -1.7170   25.7570 C   0  0  0  0  0  0  0  0  0  0  0  0
  1  2  1  0
  2  3  1  6
  1  4  1  0
  1  5  1  0
  4  6  1  0
  2  7  1  0
  5  8  2  0
  5  9  1  0
  3 10  1  0
  3 11  2  0
  7 12  2  0
  7 13  1  0
  8 14  1  0
  9 15  2  0
  6 16  1  0
 10 17  1  0
 16 18  1  0
 13 19  2  0
 12 20  1  0
 14 21  2  0
 15 21  1  0
 16 22  1  0
 16 23  1  0
 17 24  1  0
 21 25  1  0
 18 26  1  0
 18 27  2  0
 19 28  1  0
 20 28  2  0
 22 29  1  0
 23 30  1  0
 24 31  1  0
 25 32  1  0
 25 33  1  0
 25 34  1  0
 29 35  1  0
 30 35  1  0
 31 36  1  0
 35 37  1  0
 36 38  1  0
 37 39  2  0
 37 40  2  0
 37 41  1  0
 41 42  1  0
 41 43  2  0
 43 44  1  0
 42 45  1  0
 44 45  2  0
M  END
