x0689-x2908
     RDKit          3D

 37 40  0  0  0  0  0  0  0  0999 V2000
    6.9720   -3.4330   19.5520 C   0  0  0  0  0  0  0  0  0  0  0  0
    6.2390   -4.4320   20.4440 C   0  0  0  0  0  0  0  0  0  0  0  0
    5.7440   -5.4410   19.9910 O   0  0  0  0  0  0  0  0  0  0  0  0
    5.9990   -4.1970   21.9130 C   0  0  0  0  0  0  0  0  0  0  0  0
    5.2520   -2.8090   21.8640 C   0  0  0  0  0  0  0  0  0  0  0  0
    5.2280   -5.2590   22.1770 C   0  0  0  0  0  0  0  0  0  0  0  0
    7.0960   -4.3100   22.9850 C   0  0  0  0  0  0  0  0  0  0  0  0
    6.1270   -1.5650   22.1960 C   0  0  0  0  0  0  0  0  0  0  0  0
    4.7360   -5.3590   23.4560 C   0  0  0  0  0  0  0  0  0  0  0  0
    6.4750   -4.2680   24.2370 C   0  0  0  0  0  0  0  0  0  0  0  0
    6.8610   -0.7170   21.2620 N   0  0  0  0  0  0  0  0  0  0  0  0
    5.5410   -5.1870   24.5140 N   0  0  0  0  0  0  0  0  0  0  0  0
    4.7060   -5.0440   25.9530 S   0  0  0  0  0  0  0  0  0  0  0  0
    8.0680   -0.0360   21.8070 C   0  0  0  0  0  0  0  0  0  0  0  0
    6.2550   -0.0560   20.1660 C   0  0  0  0  0  0  0  0  0  0  0  0
    3.9230   -6.2450   26.1350 O   0  0  0  0  0  0  0  0  0  0  0  0
    5.6270   -4.7340   27.0180 O   0  0  0  0  0  0  0  0  0  0  0  0
    8.5100    0.9930   21.2940 O   0  0  0  0  0  0  0  0  0  0  0  0
    8.5660   -0.5180   22.7120 N   0  0  0  0  0  0  0  0  0  0  0  0
    3.5340   -3.7310   25.8310 C   0  0  0  0  0  0  0  0  0  0  0  0
    6.7470   -0.3430   18.7470 C   0  0  0  0  0  0  0  0  0  0  0  0
    5.1460    0.9570   20.4100 C   0  0  0  0  0  0  0  0  0  0  0  0
    4.5740    1.3510   21.7360 C   0  0  0  0  0  0  0  0  0  0  0  0
    3.9300   -2.0670   26.1750 S   0  0  0  0  0  0  0  0  0  0  0  0
    2.2560   -3.9850   25.4610 C   0  0  0  0  0  0  0  0  0  0  0  0
    6.2240    0.2860   17.6940 N   0  0  0  0  0  0  0  0  0  0  0  0
    4.6010    1.6270   19.1570 C   0  0  0  0  0  0  0  0  0  0  0  0
    9.9350   -0.4580   22.8310 C   0  0  0  0  0  0  0  0  0  0  0  0
    1.4560   -2.8720   25.4200 C   0  0  0  0  0  0  0  0  0  0  0  0
    2.2200   -1.6360   25.8010 C   0  0  0  0  0  0  0  0  0  0  0  0
    5.1490    1.2860   17.8300 C   0  0  0  0  0  0  0  0  0  0  0  0
   10.6100    0.5830   23.7220 C   0  0  0  0  0  0  0  0  0  0  0  0
   10.8360   -1.4500   22.0360 C   0  0  0  0  0  0  0  0  0  0  0  0
   12.0900    0.5990   23.7800 C   0  0  0  0  0  0  0  0  0  0  0  0
   12.2930   -1.3100   22.1940 C   0  0  0  0  0  0  0  0  0  0  0  0
   13.2250   -2.3890   21.3060 Cl  0  0  0  0  0  0  0  0  0  0  0  0
   12.8460   -0.2490   23.0930 C   0  0  0  0  0  0  0  0  0  0  0  0
  1  2  1  0
  2  3  2  0
  4  2  1  0
  4  5  1  0
  4  6  1  0
  4  7  1  0
  5  8  1  0
  6  9  1  0
  7 10  1  0
  8 11  1  0
  9 12  1  0
 10 12  1  0
 12 13  1  0
 11 14  1  0
 11 15  1  0
 13 16  2  0
 13 17  2  0
 14 18  2  0
 14 19  1  0
 13 20  1  0
 15 21  2  0
 15 22  1  0
 22 23  1  0
 20 24  1  0
 20 25  2  0
 21 26  1  0
 22 27  2  0
 19 28  1  0
 25 29  1  0
 24 30  1  0
 29 30  2  0
 26 31  2  0
 27 31  1  0
 28 32  2  0
 28 33  1  0
 32 34  1  0
 33 35  2  0
 35 36  1  0
 34 37  2  0
 35 37  1  0
M  END
