x0689-x0978-x3115
     RDKit          3D

 53 56  0  0  0  0  0  0  0  0999 V2000
    7.0450   -1.2280   21.7770 N   0  0  0  0  0  0  0  0  0  0  0  0
    6.6000    0.1510   21.6270 C   0  0  1  0  0  0  0  0  0  0  0  0
    7.7040    1.1950   21.8410 C   0  0  0  0  0  0  0  0  0  0  0  0
    5.9530   -2.2360   21.6760 C   0  0  0  0  0  0  0  0  0  0  0  0
    8.2710   -1.4450   22.4270 C   0  0  0  0  0  0  0  0  0  0  0  0
    6.0700   -3.3360   22.7200 C   0  0  0  0  0  0  0  0  0  0  0  0
    6.0040    0.5590   20.3220 C   0  0  0  0  0  0  0  0  0  0  0  0
    9.4850   -1.3800   21.7500 C   0  0  0  0  0  0  0  0  0  0  0  0
    8.4550   -1.7430   23.9030 C   0  0  0  0  0  0  0  0  0  0  0  0
    7.4340    1.9760   22.9250 N   0  0  0  0  0  0  0  0  0  0  0  0
    8.6900    1.3440   21.1100 O   0  0  0  0  0  0  0  0  0  0  0  0
    4.8770    1.3090   20.0790 C   0  0  0  0  0  0  0  0  0  0  0  0
    6.6870    0.1530   19.2130 C   0  0  0  0  0  0  0  0  0  0  0  0
   10.8140   -1.5500   22.2600 C   0  0  0  0  0  0  0  0  0  0  0  0
    9.6940   -1.8980   24.3830 C   0  0  0  0  0  0  0  0  0  0  0  0
    6.3220   -4.8130   22.2270 C   0  0  2  0  0  0  0  0  0  0  0  0
    8.2790    3.0890   23.2730 C   0  0  0  0  0  0  0  0  0  0  0  0
    6.6990   -4.4620   20.7730 C   0  0  0  0  0  0  0  0  0  0  0  0
    6.3350    0.4530   17.9350 N   0  0  0  0  0  0  0  0  0  0  0  0
    4.4570    1.6540   18.8460 C   0  0  0  0  0  0  0  0  0  0  0  0
   10.9410   -1.8000   23.5610 C   0  0  0  0  0  0  0  0  0  0  0  0
    5.1600   -5.6740   22.1390 C   0  0  0  0  0  0  0  0  0  0  0  0
    7.3130   -5.2180   22.9720 C   0  0  0  0  0  0  0  0  0  0  0  0
    7.8660    4.3990   22.6040 C   0  0  0  0  0  0  0  0  0  0  0  0
   12.2810   -1.9750   24.2370 C   0  0  0  0  0  0  0  0  0  0  0  0
    8.0680   -3.8240   20.4480 C   0  0  0  0  0  0  0  0  0  0  0  0
    5.8280   -4.6480   19.9270 O   0  0  0  0  0  0  0  0  0  0  0  0
    5.1230    1.2830   17.7170 C   0  0  0  0  0  0  0  0  0  0  0  0
    4.4070   -5.4010   23.2120 C   0  0  2  0  0  0  0  0  0  0  0  0
    6.8660   -5.1670   24.2510 C   0  0  0  0  0  0  0  0  0  0  0  0
    8.4550    5.4060   23.0170 O   0  0  0  0  0  0  0  0  0  0  0  0
   13.3650   -2.2210   23.1680 C   0  0  0  0  0  0  0  0  0  0  0  0
   12.1070   -3.1840   25.1300 C   0  0  0  0  0  0  0  0  0  0  0  0
   12.5550   -0.7180   25.1290 C   0  0  0  0  0  0  0  0  0  0  0  0
    3.1610   -6.4240   23.2990 C   0  0  2  0  0  0  0  0  0  0  0  0
    3.8190   -4.2020   22.8880 O   0  0  0  0  0  0  0  0  0  0  0  0
    5.3480   -5.3130   24.4270 N   0  0  0  0  0  0  0  0  0  0  0  0
    8.2840    6.5250   22.1500 C   0  0  0  0  0  0  0  0  0  0  0  0
    2.0830   -5.5970   23.2180 N   0  0  0  0  0  0  0  0  0  0  0  0
    3.1760   -7.3510   24.3120 C   0  0  1  0  0  0  0  0  0  0  0  0
    4.7640   -4.9150   25.9670 S   0  0  0  0  0  0  0  0  0  0  0  0
    2.0170   -8.3350   24.3220 C   0  0  0  0  0  0  0  0  0  0  0  0
    4.4020   -8.0350   24.4360 O   0  0  0  0  0  0  0  0  0  0  0  0
    0.9840   -6.1550   22.6380 C   0  0  0  0  0  0  0  0  0  0  0  0
    4.1240   -6.0750   26.5230 O   0  0  0  0  0  0  0  0  0  0  0  0
    5.7900   -4.2300   26.7090 O   0  0  0  0  0  0  0  0  0  0  0  0
    3.5670   -3.7550   25.8350 C   0  0  0  0  0  0  0  0  0  0  0  0
    1.0150   -7.3770   21.9240 O   0  0  0  0  0  0  0  0  0  0  0  0
   -0.2560   -5.5070   22.7250 C   0  0  0  0  0  0  0  0  0  0  0  0
    3.9110   -2.0670   26.0680 S   0  0  0  0  0  0  0  0  0  0  0  0
    2.0870   -4.0290   25.5150 C   0  0  0  0  0  0  0  0  0  0  0  0
    1.3430   -2.7400   25.4960 C   0  0  0  0  0  0  0  0  0  0  0  0
    2.2640   -1.5710   25.7940 C   0  0  0  0  0  0  0  0  0  0  0  0
  1  2  1  0
  2  3  1  6
  1  4  1  0
  1  5  1  0
  4  6  1  0
  2  7  1  0
  5  8  2  0
  5  9  1  0
  3 10  1  0
  3 11  2  0
  7 12  2  0
  7 13  1  0
  8 14  1  0
  9 15  2  0
 16  6  1  1
 10 17  1  0
 16 18  1  0
 13 19  2  0
 12 20  1  0
 14 21  2  0
 15 21  1  0
 16 22  1  0
 16 23  1  0
 17 24  1  0
 21 25  1  0
 18 26  1  0
 18 27  2  0
 19 28  1  0
 20 28  2  0
 22 29  1  0
 23 30  1  0
 24 31  1  0
 25 32  1  0
 25 33  1  0
 25 34  1  0
 29 35  1  0
 29 36  1  6
 29 37  1  0
 30 37  1  0
 31 38  1  0
 35 39  1  1
 35 40  1  0
 37 41  1  0
 40 42  1  6
 40 43  1  0
 39 44  1  0
 41 45  2  0
 41 46  2  0
 41 47  1  0
 44 48  2  0
 44 49  1  0
 47 50  1  0
 47 51  2  0
 51 52  1  0
 50 53  1  0
 52 53  2  0
M  END
