x0689-x2540
     RDKit          3D

 43 46  0  0  0  0  0  0  0  0999 V2000
    7.2250   -0.8490   21.9670 N   0  0  0  0  0  0  0  0  0  0  0  0
    6.9740    0.4770   21.6960 C   0  0  1  0  0  0  0  0  0  0  0  0
    8.1380    1.4010   21.8760 C   0  0  0  0  0  0  0  0  0  0  0  0
    6.0850   -1.7420   21.8040 C   0  0  0  0  0  0  0  0  0  0  0  0
    8.3800   -1.2420   22.7430 C   0  0  0  0  0  0  0  0  0  0  0  0
    5.7690   -2.8510   22.6020 C   0  0  0  0  0  0  0  0  0  0  0  0
    6.3210    0.7140   20.3650 C   0  0  0  0  0  0  0  0  0  0  0  0
    8.4090   -1.9500   23.8660 N   0  0  0  0  0  0  0  0  0  0  0  0
    9.6040   -0.8840   22.3870 C   0  0  0  0  0  0  0  0  0  0  0  0
    8.3240    1.8610   23.1450 N   0  0  0  0  0  0  0  0  0  0  0  0
    8.8570    1.7610   20.9560 O   0  0  0  0  0  0  0  0  0  0  0  0
    5.2590    1.5300   20.3150 C   0  0  0  0  0  0  0  0  0  0  0  0
    6.8210    0.0690   19.0520 C   0  0  0  0  0  0  0  0  0  0  0  0
    9.7710   -2.0370   24.2580 O   0  0  0  0  0  0  0  0  0  0  0  0
   10.5890   -1.3770   23.3710 C   0  0  0  0  0  0  0  0  0  0  0  0
    6.1330   -4.3000   22.0770 C   0  0  0  0  0  0  0  0  0  0  0  0
    8.9630    3.0370   23.4490 C   0  0  0  0  0  0  0  0  0  0  0  0
   12.0910   -1.3090   23.5980 C   0  0  0  0  0  0  0  0  0  0  0  0
    6.2880   -4.3500   20.5510 C   0  0  0  0  0  0  0  0  0  0  0  0
    6.2870    0.2650   17.8740 N   0  0  0  0  0  0  0  0  0  0  0  0
    4.6060    1.7870   18.9820 C   0  0  0  0  0  0  0  0  0  0  0  0
    5.2100   -5.2610   22.2860 C   0  0  0  0  0  0  0  0  0  0  0  0
    7.2810   -4.8680   22.9260 C   0  0  0  0  0  0  0  0  0  0  0  0
    8.7280    3.2850   24.9070 C   0  0  0  0  0  0  0  0  0  0  0  0
    8.5900    4.2140   22.6700 C   0  0  0  0  0  0  0  0  0  0  0  0
   10.4800    2.8360   23.1830 C   0  0  0  0  0  0  0  0  0  0  0  0
   12.7920   -1.1530   22.4530 C   0  0  0  0  0  0  0  0  0  0  0  0
   12.2820   -0.3240   24.7090 C   0  0  0  0  0  0  0  0  0  0  0  0
   12.5550   -2.4880   24.0280 C   0  0  0  0  0  0  0  0  0  0  0  0
    7.1560   -3.3830   19.7220 C   0  0  0  0  0  0  0  0  0  0  0  0
    5.6380   -5.2050   19.9860 O   0  0  0  0  0  0  0  0  0  0  0  0
    5.2250    1.0830   17.8010 C   0  0  0  0  0  0  0  0  0  0  0  0
    4.3730   -5.3150   23.3660 C   0  0  0  0  0  0  0  0  0  0  0  0
    6.7490   -4.9940   24.2180 C   0  0  0  0  0  0  0  0  0  0  0  0
    5.3150   -5.3890   24.4800 N   0  0  0  0  0  0  0  0  0  0  0  0
    4.6590   -5.1270   26.0010 S   0  0  0  0  0  0  0  0  0  0  0  0
    3.9640   -6.3370   26.3780 O   0  0  0  0  0  0  0  0  0  0  0  0
    5.6710   -4.5380   26.8450 O   0  0  0  0  0  0  0  0  0  0  0  0
    3.4260   -3.8560   25.8020 C   0  0  0  0  0  0  0  0  0  0  0  0
    3.9420   -2.2680   26.1160 S   0  0  0  0  0  0  0  0  0  0  0  0
    1.9870   -4.0190   25.3960 C   0  0  0  0  0  0  0  0  0  0  0  0
    1.5040   -2.7280   25.4150 C   0  0  0  0  0  0  0  0  0  0  0  0
    2.3400   -1.7110   25.7540 C   0  0  0  0  0  0  0  0  0  0  0  0
  1  2  1  0
  2  3  1  6
  1  4  1  0
  1  5  1  0
  4  6  1  0
  2  7  1  0
  5  8  2  0
  5  9  1  0
  3 10  1  0
  3 11  2  0
  7 12  2  0
  7 13  1  0
  8 14  1  0
  9 15  2  0
 14 15  1  0
  6 16  1  0
 17 10  1  0
 15 18  1  0
 16 19  1  0
 13 20  2  0
 12 21  1  0
 16 22  1  0
 16 23  1  0
 17 24  1  0
 17 25  1  0
 17 26  1  0
 18 27  1  0
 18 28  1  0
 18 29  1  0
 19 30  1  0
 19 31  2  0
 20 32  1  0
 21 32  2  0
 22 33  1  0
 23 34  1  0
 33 35  1  0
 34 35  1  0
 35 36  1  0
 36 37  2  0
 36 38  2  0
 36 39  1  0
 39 40  1  0
 39 41  2  0
 41 42  1  0
 40 43  1  0
 42 43  2  0
M  END
