x0689-x3115-x0426
     RDKit          3D

 56 60  0  0  0  0  0  0  0  0999 V2000
    7.2370   -1.0890   22.0250 N   0  0  0  0  0  0  0  0  0  0  0  0
    6.7820    0.2730   21.7850 C   0  0  1  0  0  0  0  0  0  0  0  0
    7.9140    1.3170   21.9560 C   0  0  0  0  0  0  0  0  0  0  0  0
    6.5070   -2.2410   22.3780 C   0  0  0  0  0  0  0  0  0  0  0  0
    8.4880   -1.2580   22.5930 C   0  0  0  0  0  0  0  0  0  0  0  0
    6.1360    0.5180   20.4160 C   0  0  0  0  0  0  0  0  0  0  0  0
    9.6620   -1.6930   21.8030 C   0  0  0  0  0  0  0  0  0  0  0  0
    8.8410   -1.0520   24.0710 C   0  0  0  0  0  0  0  0  0  0  0  0
    7.5640   -3.3220   22.7130 C   0  0  0  0  0  0  0  0  0  0  0  0
    8.0330    1.7770   23.2600 N   0  0  0  0  0  0  0  0  0  0  0  0
    8.6620    1.7470   21.0770 O   0  0  0  0  0  0  0  0  0  0  0  0
    4.9020    1.1960   20.2480 C   0  0  0  0  0  0  0  0  0  0  0  0
    6.8300    0.0540   19.2960 C   0  0  0  0  0  0  0  0  0  0  0  0
   10.9440   -1.9030   22.2390 C   0  0  0  0  0  0  0  0  0  0  0  0
   10.1700   -1.2800   24.4710 C   0  0  0  0  0  0  0  0  0  0  0  0
    7.0540   -4.5400   22.8660 C   0  0  2  0  0  0  0  0  0  0  0  0
    8.6640    3.0470   23.6110 C   0  0  0  0  0  0  0  0  0  0  0  0
    4.0210    1.7420   21.1340 C   0  0  0  0  0  0  0  0  0  0  0  0
    6.3840    0.2330   18.0230 N   0  0  0  0  0  0  0  0  0  0  0  0
    4.4720    1.3650   18.9530 C   0  0  0  0  0  0  0  0  0  0  0  0
   11.1930   -1.6860   23.5980 C   0  0  0  0  0  0  0  0  0  0  0  0
    6.4520   -5.1520   21.6570 N   0  0  0  0  0  0  0  0  0  0  0  0
    6.0900   -4.3540   24.0260 C   0  0  0  0  0  0  0  0  0  0  0  0
    8.1160    4.1980   22.6650 C   0  0  0  0  0  0  0  0  0  0  0  0
   12.5040   -1.8620   24.0890 C   0  0  0  0  0  0  0  0  0  0  0  0
    4.2360    1.9290   22.4540 C   0  0  0  0  0  0  0  0  0  0  0  0
    5.2170    0.8900   17.9030 C   0  0  0  0  0  0  0  0  0  0  0  0
    6.2290   -4.4480   20.4470 C   0  0  0  0  0  0  0  0  0  0  0  0
    5.6430   -6.3270   22.0020 C   0  0  0  0  0  0  0  0  0  0  0  0
    5.3430   -5.5810   24.3070 N   0  0  0  0  0  0  0  0  0  0  0  0
    8.6290    5.2690   23.0100 O   0  0  0  0  0  0  0  0  0  0  0  0
   13.4500   -2.0100   23.0870 C   0  0  0  0  0  0  0  0  0  0  0  0
   12.7180   -2.9760   25.0280 C   0  0  0  0  0  0  0  0  0  0  0  0
   12.7630   -0.5750   24.8520 C   0  0  0  0  0  0  0  0  0  0  0  0
    3.1920    2.6460   22.9930 N   0  0  0  0  0  0  0  0  0  0  0  0
    7.2030   -3.4410   19.7560 C   0  0  0  0  0  0  0  0  0  0  0  0
    5.1710   -4.6480   19.8970 O   0  0  0  0  0  0  0  0  0  0  0  0
    4.5670   -5.4780   25.7700 S   0  0  0  0  0  0  0  0  0  0  0  0
    4.6210   -6.0330   23.1210 C   0  0  0  0  0  0  0  0  0  0  0  0
    8.2260    6.3520   22.1730 C   0  0  0  0  0  0  0  0  0  0  0  0
    2.3650    2.0780   24.1000 C   0  0  0  0  0  0  0  0  0  0  0  0
    3.7980   -6.6900   25.9070 O   0  0  0  0  0  0  0  0  0  0  0  0
    5.5100   -5.0370   26.7720 O   0  0  0  0  0  0  0  0  0  0  0  0
    3.3800   -4.1470   25.7430 C   0  0  0  0  0  0  0  0  0  0  0  0
    2.5530    0.9830   24.6020 O   0  0  0  0  0  0  0  0  0  0  0  0
    1.2190    2.8940   24.6900 C   0  0  0  0  0  0  0  0  0  0  0  0
    3.9000   -2.4130   26.1360 S   0  0  0  0  0  0  0  0  0  0  0  0
    1.9030   -4.0960   25.4510 C   0  0  0  0  0  0  0  0  0  0  0  0
    1.5610    4.0670   25.3950 C   0  0  0  0  0  0  0  0  0  0  0  0
   -0.1400    2.5220   24.5710 C   0  0  0  0  0  0  0  0  0  0  0  0
    1.3790   -2.7000   25.5870 C   0  0  0  0  0  0  0  0  0  0  0  0
    2.3090   -1.7540   25.9340 C   0  0  0  0  0  0  0  0  0  0  0  0
    2.8430    4.4400   25.5170 F   0  0  0  0  0  0  0  0  0  0  0  0
   -1.1710    3.2780   25.1370 C   0  0  0  0  0  0  0  0  0  0  0  0
    0.5910    4.8630   25.9800 C   0  0  0  0  0  0  0  0  0  0  0  0
   -0.8720    4.4330   25.8390 C   0  0  0  0  0  0  0  0  0  0  0  0
  1  2  1  0
  2  3  1  6
  1  4  1  0
  1  5  1  0
  2  6  1  0
  5  7  2  0
  5  8  1  0
  4  9  1  0
  3 10  1  0
  3 11  2  0
  6 12  1  0
  6 13  2  0
  7 14  1  0
  8 15  2  0
 16  9  1  6
 10 17  1  0
 12 18  1  0
 13 19  1  0
 12 20  2  0
 14 21  2  0
 15 21  1  0
 16 22  1  0
 16 23  1  0
 17 24  1  0
 21 25  1  0
 18 26  1  0
 19 27  2  0
 20 27  1  0
 22 28  1  0
 22 29  1  0
 23 30  1  0
 24 31  1  0
 25 32  1  0
 25 33  1  0
 25 34  1  0
 26 35  1  0
 28 36  1  0
 28 37  2  0
 30 38  1  0
 29 39  1  0
 30 39  1  0
 31 40  1  0
 35 41  1  0
 38 42  2  0
 38 43  2  0
 38 44  1  0
 41 45  2  0
 41 46  1  0
 44 47  1  0
 44 48  2  0
 46 49  2  0
 46 50  1  0
 48 51  1  0
 47 52  1  0
 51 52  2  0
 49 53  1  0
 50 54  2  0
 49 55  1  0
 54 56  1  0
 55 56  2  0
M  END
