x0689-x0967
     RDKit          3D

 39 41  0  0  0  0  0  0  0  0999 V2000
    7.6090    4.4390   22.2440 C   0  0  0  0  0  0  0  0  0  0  0  0
    7.0840    3.2960   23.0710 C   0  0  0  0  0  0  0  0  0  0  0  0
    7.9660    2.2440   23.1970 N   0  0  0  0  0  0  0  0  0  0  0  0
    5.9760    3.3280   23.5920 O   0  0  0  0  0  0  0  0  0  0  0  0
    7.5980    0.8270   23.2680 C   0  0  1  0  0  0  0  0  0  0  0  0
    6.2350    0.5290   22.6840 C   0  0  0  0  0  0  0  0  0  0  0  0
    8.6420   -0.0250   22.6960 C   0  0  0  0  0  0  0  0  0  0  0  0
    8.5800   -1.4200   22.8480 N   0  0  0  0  0  0  0  0  0  0  0  0
    9.5390    0.5680   22.0820 O   0  0  0  0  0  0  0  0  0  0  0  0
    6.2000    0.5380   21.1810 C   0  0  0  0  0  0  0  0  0  0  0  0
    9.5900   -2.1910   22.1050 C   0  0  0  0  0  0  0  0  0  0  0  0
    8.0950   -2.0750   24.1360 C   0  0  0  0  0  0  0  0  0  0  0  0
    7.0060   -0.2590   20.3930 C   0  0  0  0  0  0  0  0  0  0  0  0
    5.2550    1.4550   20.6100 C   0  0  0  0  0  0  0  0  0  0  0  0
   10.9760   -1.5800   22.0660 C   0  0  0  0  0  0  0  0  0  0  0  0
    6.7880   -2.5670   24.5190 C   0  0  0  0  0  0  0  0  0  0  0  0
    6.8410   -0.1130   18.9200 C   0  0  0  0  0  0  0  0  0  0  0  0
    5.0570    1.6380   19.2860 C   0  0  0  0  0  0  0  0  0  0  0  0
   11.9530   -1.9060   22.9250 C   0  0  0  0  0  0  0  0  0  0  0  0
    5.8600    0.8470   18.2750 C   0  0  0  0  0  0  0  0  0  0  0  0
    6.1690   -3.7120   23.6200 C   0  0  2  0  0  0  0  0  0  0  0  0
    5.6900    1.0140   16.9710 O   0  0  0  0  0  0  0  0  0  0  0  0
   13.2730   -2.3480   24.2120 Br  0  0  0  0  0  0  0  0  0  0  0  0
    5.6670   -4.8200   24.2210 N   0  0  0  0  0  0  0  0  0  0  0  0
    7.1180   -4.1970   22.5910 C   0  0  0  0  0  0  0  0  0  0  0  0
    4.8960   -4.8220   25.7400 S   0  0  0  0  0  0  0  0  0  0  0  0
    6.6610   -5.0110   21.6230 N   0  0  0  0  0  0  0  0  0  0  0  0
    5.0720   -5.8170   23.2950 C   0  0  0  0  0  0  0  0  0  0  0  0
    6.2520   -4.4300   20.4270 C   0  0  0  0  0  0  0  0  0  0  0  0
    4.2950   -6.1330   25.9000 O   0  0  0  0  0  0  0  0  0  0  0  0
    5.7800   -4.2980   26.7490 O   0  0  0  0  0  0  0  0  0  0  0  0
    5.9810   -6.0500   22.1330 C   0  0  0  0  0  0  0  0  0  0  0  0
    3.5210   -3.6630   25.6830 C   0  0  0  0  0  0  0  0  0  0  0  0
    7.0700   -3.3840   19.6680 C   0  0  0  0  0  0  0  0  0  0  0  0
    5.1970   -4.7630   19.9290 O   0  0  0  0  0  0  0  0  0  0  0  0
    3.7970   -2.0040   26.0820 S   0  0  0  0  0  0  0  0  0  0  0  0
    2.2320   -3.8150   25.3810 C   0  0  0  0  0  0  0  0  0  0  0  0
    1.4310   -2.7100   25.4460 C   0  0  0  0  0  0  0  0  0  0  0  0
    2.1430   -1.5940   25.8260 C   0  0  0  0  0  0  0  0  0  0  0  0
  1  2  1  0
  2  3  1  0
  2  4  2  0
  3  5  1  0
  5  6  1  6
  5  7  1  0
  7  8  1  0
  7  9  2  0
  6 10  1  0
  8 11  1  0
  8 12  1  0
 10 13  2  0
 10 14  1  0
 11 15  1  0
 12 16  1  0
 13 17  1  0
 14 18  2  0
 15 19  3  0
 17 20  2  0
 18 20  1  0
 21 16  1  1
 20 22  1  0
 19 23  1  0
 21 24  1  0
 21 25  1  0
 24 26  1  0
 25 27  1  0
 24 28  1  0
 27 29  1  0
 26 30  2  0
 26 31  2  0
 27 32  1  0
 28 32  1  0
 26 33  1  0
 29 34  1  0
 29 35  2  0
 33 36  1  0
 33 37  2  0
 37 38  1  0
 36 39  1  0
 38 39  2  0
M  END
