x0689-x0708
     RDKit          3D

 29 33  0  0  0  0  0  0  0  0999 V2000
    6.8370   -4.2860   21.2270 N   0  0  0  0  0  0  0  0  0  0  0  0
    6.4230   -3.7960   19.9850 C   0  0  0  0  0  0  0  0  0  0  0  0
    7.4350   -3.1050   19.0700 C   0  0  0  0  0  0  0  0  0  0  0  0
    8.0520   -3.9480   21.7380 N   0  0  0  0  0  0  0  0  0  0  0  0
    5.9280   -4.6960   22.1470 N   0  0  0  0  0  0  0  0  0  0  0  0
    5.2660   -3.9510   19.6020 O   0  0  0  0  0  0  0  0  0  0  0  0
    7.9580   -3.2760   22.9190 C   0  0  0  0  0  0  0  0  0  0  0  0
    5.4040   -6.0460   22.0280 C   0  0  0  0  0  0  0  0  0  0  0  0
    6.3430   -4.6560   23.4060 C   0  0  1  0  0  0  0  0  0  0  0  0
    7.0050   -3.5800   23.8240 N   0  0  0  0  0  0  0  0  0  0  0  0
    9.0400   -2.2540   23.1430 C   0  0  0  0  0  0  0  0  0  0  0  0
    4.4930   -5.9770   23.0400 C   0  0  0  0  0  0  0  0  0  0  0  0
    5.0160   -4.8750   23.9270 N   0  0  0  0  0  0  0  0  0  0  0  0
    4.6840   -4.9250   25.5760 S   0  0  0  0  0  0  0  0  0  0  0  0
   10.2210   -2.3760   22.4660 C   0  0  0  0  0  0  0  0  0  0  0  0
    9.1010   -0.8750   24.1960 S   0  0  0  0  0  0  0  0  0  0  0  0
    4.1520   -6.2270   25.9290 O   0  0  0  0  0  0  0  0  0  0  0  0
    5.7760   -4.4560   26.4010 O   0  0  0  0  0  0  0  0  0  0  0  0
   11.2820   -1.4130   22.7450 C   0  0  0  0  0  0  0  0  0  0  0  0
   10.7200   -0.4850   23.7450 C   0  0  0  0  0  0  0  0  0  0  0  0
    3.3700   -3.7470   25.6690 C   0  0  0  0  0  0  0  0  0  0  0  0
   12.7350   -1.1720   22.2850 C   0  0  0  0  0  0  0  0  0  0  0  0
   11.5840    0.6460   24.2400 C   0  0  0  0  0  0  0  0  0  0  0  0
    3.7910   -2.1080   26.0880 S   0  0  0  0  0  0  0  0  0  0  0  0
    1.8590   -3.9100   25.4230 C   0  0  0  0  0  0  0  0  0  0  0  0
   13.2680   -0.0280   22.9050 C   0  0  0  0  0  0  0  0  0  0  0  0
   12.3560    1.0010   23.1610 C   0  0  0  0  0  0  0  0  0  0  0  0
    1.1900   -2.6090   25.6190 C   0  0  0  0  0  0  0  0  0  0  0  0
    2.1720   -1.5170   25.9960 C   0  0  0  0  0  0  0  0  0  0  0  0
  1  2  1  0
  2  3  1  0
  1  4  1  0
  1  5  1  0
  2  6  2  0
  4  7  1  0
  5  8  1  0
  5  9  1  0
  7 10  2  0
  9 10  1  1
  7 11  1  0
  8 12  1  0
  9 13  1  0
 12 13  1  0
 13 14  1  0
 11 15  2  0
 11 16  1  0
 14 17  2  0
 14 18  2  0
 15 19  1  0
 16 20  1  0
 19 20  2  0
 14 21  1  0
 19 22  1  0
 20 23  1  0
 21 24  1  0
 21 25  2  0
 22 26  1  0
 23 27  1  0
 26 27  1  0
 25 28  1  0
 24 29  1  0
 28 29  2  0
M  END
