x0689-x0104
     RDKit          3D

 38 42  0  0  0  0  0  0  0  0999 V2000
    7.5530   -3.3350   19.6610 C   0  0  0  0  0  0  0  0  0  0  0  0
    6.6080   -4.1970   20.5260 C   0  0  0  0  0  0  0  0  0  0  0  0
    5.6410   -4.7470   19.9850 O   0  0  0  0  0  0  0  0  0  0  0  0
    6.7530   -4.3680   22.0680 C   0  0  0  0  0  0  0  0  0  0  0  0
    7.8340   -3.6920   22.7660 C   0  0  0  0  0  0  0  0  0  0  0  0
    6.5040   -5.6880   22.3110 C   0  0  0  0  0  0  0  0  0  0  0  0
    5.7350   -3.5140   22.4360 C   0  0  0  0  0  0  0  0  0  0  0  0
    9.1140   -3.9470   22.5090 C   0  0  0  0  0  0  0  0  0  0  0  0
    5.4310   -5.9190   23.1880 C   0  0  0  0  0  0  0  0  0  0  0  0
    5.5210   -3.5790   23.9310 C   0  0  0  0  0  0  0  0  0  0  0  0
   10.1370   -3.3830   23.3150 C   0  0  0  0  0  0  0  0  0  0  0  0
    5.5210   -4.9590   24.3270 N   0  0  0  0  0  0  0  0  0  0  0  0
    4.6100   -5.2170   25.7870 S   0  0  0  0  0  0  0  0  0  0  0  0
   11.1980   -2.6940   22.6650 C   0  0  2  0  0  0  0  0  0  0  0  0
    3.9770   -6.5140   25.7880 O   0  0  0  0  0  0  0  0  0  0  0  0
    5.5120   -4.9620   26.8880 O   0  0  0  0  0  0  0  0  0  0  0  0
   12.4640   -2.6590   23.3230 C   0  0  0  0  0  0  0  0  0  0  0  0
    3.3650   -3.9780   25.7590 C   0  0  0  0  0  0  0  0  0  0  0  0
   11.2110   -1.2900   23.0290 C   0  0  0  0  0  0  0  0  0  0  0  0
   13.3530   -1.8910   22.4820 O   0  0  0  0  0  0  0  0  0  0  0  0
    3.7740   -2.3400   26.1970 S   0  0  0  0  0  0  0  0  0  0  0  0
    1.8950   -4.0150   25.4070 C   0  0  0  0  0  0  0  0  0  0  0  0
   10.1980   -0.2820   23.5920 C   0  0  0  0  0  0  0  0  0  0  0  0
   12.6220   -0.8160   22.7710 C   0  0  0  0  0  0  0  0  0  0  0  0
    1.1590   -2.6930   25.5120 C   0  0  0  0  0  0  0  0  0  0  0  0
    2.1780   -1.6950   25.9580 C   0  0  0  0  0  0  0  0  0  0  0  0
   10.7740    1.0440   23.9110 C   0  0  2  0  0  0  0  0  0  0  0  0
   12.9650    0.6490   22.8840 C   0  0  0  0  0  0  0  0  0  0  0  0
    9.8680    2.0340   24.0460 N   0  0  0  0  0  0  0  0  0  0  0  0
   11.9000    1.4850   23.2320 C   0  0  0  0  0  0  0  0  0  0  0  0
   11.8450    2.7890   23.0070 C   0  0  0  0  0  0  0  0  0  0  0  0
   10.5060    3.0200   23.5550 C   0  0  0  0  0  0  0  0  0  0  0  0
   12.7660    3.8090   22.3840 C   0  0  0  0  0  0  0  0  0  0  0  0
   12.6950    5.1900   22.9840 C   0  0  0  0  0  0  0  0  0  0  0  0
   11.4610    5.8790   22.4450 N   0  0  0  0  0  0  0  0  0  0  0  0
   10.3330    6.2460   23.3530 C   0  0  0  0  0  0  0  0  0  0  0  0
    8.9990    6.5510   22.6860 C   0  0  0  0  0  0  0  0  0  0  0  0
   10.3850    6.3270   24.5790 O   0  0  0  0  0  0  0  0  0  0  0  0
  1  2  1  0
  2  3  2  0
  4  2  1  0
  4  5  1  0
  4  6  1  0
  4  7  1  0
  5  8  1  0
  6  9  1  0
  7 10  1  0
  8 11  1  0
  9 12  1  0
 10 12  1  0
 12 13  1  0
 14 11  1  1
 13 15  2  0
 13 16  2  0
 14 17  1  0
 13 18  1  0
 14 19  1  0
 17 20  1  0
 18 21  1  0
 18 22  2  0
 19 23  2  0
 19 24  1  0
 20 24  1  0
 22 25  1  0
 21 26  1  0
 25 26  2  0
 27 23  1  6
 24 28  2  0
 27 29  1  0
 27 30  1  0
 28 30  1  0
 30 31  2  0
 29 32  2  0
 31 32  1  0
 31 33  1  0
 33 34  1  0
 34 35  1  0
 35 36  1  0
 36 37  1  0
 36 38  2  0
M  END
