x0689-x2646
     RDKit          3D

 37 40  0  0  0  0  0  0  0  0999 V2000
    7.1180   -3.4990   20.0390 C   0  0  0  0  0  0  0  0  0  0  0  0
    6.2040   -4.6140   20.5350 C   0  0  0  0  0  0  0  0  0  0  0  0
    5.1650   -4.7650   19.9270 O   0  0  0  0  0  0  0  0  0  0  0  0
    6.5090   -5.4500   21.6100 N   0  0  0  0  0  0  0  0  0  0  0  0
    5.5210   -6.3170   22.1750 C   0  0  0  0  0  0  0  0  0  0  0  0
    7.2770   -4.9340   22.7330 C   0  0  0  0  0  0  0  0  0  0  0  0
    4.7330   -5.5860   23.0650 C   0  0  0  0  0  0  0  0  0  0  0  0
    6.5530   -4.3840   23.7710 C   0  0  1  0  0  0  0  0  0  0  0  0
    6.7110   -2.8610   23.6270 C   0  0  0  0  0  0  0  0  0  0  0  0
    5.2710   -4.7420   23.9910 N   0  0  0  0  0  0  0  0  0  0  0  0
    4.6720   -4.8500   25.5590 S   0  0  0  0  0  0  0  0  0  0  0  0
    8.1300   -2.3760   23.2860 C   0  0  0  0  0  0  0  0  0  0  0  0
    3.9750   -6.1080   25.7370 O   0  0  0  0  0  0  0  0  0  0  0  0
    5.6980   -4.5760   26.5390 O   0  0  0  0  0  0  0  0  0  0  0  0
    8.3730   -0.8460   23.0740 C   0  0  2  0  0  0  0  0  0  0  0  0
    3.4440   -3.6030   25.6730 C   0  0  0  0  0  0  0  0  0  0  0  0
    7.9720   -0.2730   21.9180 C   0  0  0  0  0  0  0  0  0  0  0  0
    3.7970   -1.9690   26.1590 S   0  0  0  0  0  0  0  0  0  0  0  0
    2.1580   -3.8890   25.3720 C   0  0  0  0  0  0  0  0  0  0  0  0
    9.9100   -0.6580   23.0830 C   0  0  0  0  0  0  0  0  0  0  0  0
    8.6570    0.6640   21.5000 O   0  0  0  0  0  0  0  0  0  0  0  0
    6.8550   -0.6800   21.1900 N   0  0  0  0  0  0  0  0  0  0  0  0
    1.3100   -2.8190   25.5030 C   0  0  0  0  0  0  0  0  0  0  0  0
    2.0480   -1.5900   25.9520 C   0  0  0  0  0  0  0  0  0  0  0  0
   10.6080    0.3750   23.9700 C   0  0  0  0  0  0  0  0  0  0  0  0
   10.8130   -1.5370   22.1470 C   0  0  0  0  0  0  0  0  0  0  0  0
    6.3160    0.0390   20.1140 C   0  0  0  0  0  0  0  0  0  0  0  0
   12.0860    0.4900   23.8870 C   0  0  0  0  0  0  0  0  0  0  0  0
   12.2740   -1.3020   22.1810 C   0  0  0  0  0  0  0  0  0  0  0  0
   13.2280   -2.2450   21.1640 Cl  0  0  0  0  0  0  0  0  0  0  0  0
    6.8610   -0.1520   18.7100 C   0  0  0  0  0  0  0  0  0  0  0  0
    5.1890    1.0040   20.3970 C   0  0  0  0  0  0  0  0  0  0  0  0
   12.8330   -0.2560   23.0900 C   0  0  0  0  0  0  0  0  0  0  0  0
    4.6050    1.2490   21.7520 C   0  0  0  0  0  0  0  0  0  0  0  0
    6.3580    0.5330   17.6810 N   0  0  0  0  0  0  0  0  0  0  0  0
    4.6580    1.7480   19.1780 C   0  0  0  0  0  0  0  0  0  0  0  0
    5.2510    1.5020   17.8420 C   0  0  0  0  0  0  0  0  0  0  0  0
  1  2  1  0
  2  3  2  0
  2  4  1  0
  4  5  1  0
  4  6  1  0
  5  7  1  0
  6  8  1  0
  8  9  1  6
  7 10  1  0
  8 10  1  0
 10 11  1  0
  9 12  1  0
 11 13  2  0
 11 14  2  0
 15 12  1  6
 11 16  1  0
 15 17  1  0
 16 18  1  0
 16 19  2  0
 15 20  1  0
 17 21  2  0
 17 22  1  0
 19 23  1  0
 18 24  1  0
 23 24  2  0
 20 25  2  0
 20 26  1  0
 22 27  1  0
 25 28  1  0
 26 29  2  0
 29 30  1  0
 27 31  2  0
 27 32  1  0
 28 33  2  0
 29 33  1  0
 32 34  1  0
 31 35  1  0
 32 36  2  0
 35 37  2  0
 36 37  1  0
M  END
