x0689-x2964
     RDKit          3D

 38 41  0  0  0  0  0  0  0  0999 V2000
    7.1180   -3.3630   19.7030 C   0  0  0  0  0  0  0  0  0  0  0  0
    6.2010   -4.3650   20.4190 C   0  0  0  0  0  0  0  0  0  0  0  0
    5.1640   -4.6770   19.8830 O   0  0  0  0  0  0  0  0  0  0  0  0
    6.4960   -4.9260   21.6410 N   0  0  0  0  0  0  0  0  0  0  0  0
    5.8170   -6.1360   22.0600 C   0  0  0  0  0  0  0  0  0  0  0  0
    6.5410   -3.9280   22.7470 C   0  0  2  0  0  0  0  0  0  0  0  0
    5.3580   -5.7660   23.4210 C   0  0  0  0  0  0  0  0  0  0  0  0
    6.5820   -4.3260   24.2310 C   0  0  0  0  0  0  0  0  0  0  0  0
    5.2750   -3.0310   22.5520 C   0  0  0  0  0  0  0  0  0  0  0  0
    5.4440   -5.1190   24.3520 N   0  0  0  0  0  0  0  0  0  0  0  0
    5.4440   -1.7780   21.6900 C   0  0  0  0  0  0  0  0  0  0  0  0
    4.4260   -5.3410   25.7580 S   0  0  0  0  0  0  0  0  0  0  0  0
    6.1730   -0.8260   22.2590 C   0  0  0  0  0  0  0  0  0  0  0  0
    4.4420   -6.7780   25.8760 O   0  0  0  0  0  0  0  0  0  0  0  0
    5.3070   -4.8690   26.8050 O   0  0  0  0  0  0  0  0  0  0  0  0
    3.4300   -3.9200   25.7020 C   0  0  0  0  0  0  0  0  0  0  0  0
    7.0350   -0.3350   21.3090 N   0  0  0  0  0  0  0  0  0  0  0  0
    3.8200   -2.2550   25.9720 S   0  0  0  0  0  0  0  0  0  0  0  0
    2.1180   -3.8130   25.4390 C   0  0  0  0  0  0  0  0  0  0  0  0
    8.1730    0.3490   21.6860 C   0  0  0  0  0  0  0  0  0  0  0  0
    6.4420    0.1580   20.2280 C   0  0  0  0  0  0  0  0  0  0  0  0
    1.4630   -2.6010   25.4440 C   0  0  0  0  0  0  0  0  0  0  0  0
    2.2880   -1.5310   25.7390 C   0  0  0  0  0  0  0  0  0  0  0  0
    8.5930    1.3800   21.1110 O   0  0  0  0  0  0  0  0  0  0  0  0
    8.8710   -0.2270   22.8150 N   0  0  0  0  0  0  0  0  0  0  0  0
    5.1350    0.9690   20.2090 C   0  0  0  0  0  0  0  0  0  0  0  0
    6.9650    0.0050   18.8500 C   0  0  0  0  0  0  0  0  0  0  0  0
    4.4890    1.5230   19.0900 C   0  0  0  0  0  0  0  0  0  0  0  0
    6.3740    0.5500   17.6530 N   0  0  0  0  0  0  0  0  0  0  0  0
   10.2880   -0.1120   22.8440 C   0  0  0  0  0  0  0  0  0  0  0  0
    3.3670    2.2040   19.1550 N   0  0  0  0  0  0  0  0  0  0  0  0
    5.1410    1.2950   17.8720 C   0  0  0  0  0  0  0  0  0  0  0  0
   10.9870    0.9480   23.4180 C   0  0  0  0  0  0  0  0  0  0  0  0
   10.9800   -1.2350   22.1700 C   0  0  0  0  0  0  0  0  0  0  0  0
   12.4610    1.0220   23.3780 C   0  0  0  0  0  0  0  0  0  0  0  0
   12.5010   -1.1420   22.1380 C   0  0  0  0  0  0  0  0  0  0  0  0
   13.3300   -2.3900   21.3600 Cl  0  0  0  0  0  0  0  0  0  0  0  0
   13.1200    0.0470   22.7800 C   0  0  0  0  0  0  0  0  0  0  0  0
  1  2  1  0
  2  3  2  0
  2  4  1  0
  4  5  1  0
  4  6  1  0
  5  7  1  0
  6  8  1  0
  6  9  1  1
  7 10  1  0
  8 10  1  0
  9 11  1  0
 10 12  1  0
 11 13  1  0
 12 14  2  0
 12 15  2  0
 12 16  1  0
 13 17  1  0
 16 18  1  0
 16 19  2  0
 17 20  1  0
 17 21  1  0
 19 22  1  0
 18 23  1  0
 22 23  2  0
 20 24  2  0
 20 25  1  0
 21 26  2  0
 21 27  1  0
 26 28  1  0
 27 29  2  0
 25 30  1  0
 28 31  1  0
 28 32  2  0
 29 32  1  0
 30 33  2  0
 30 34  1  0
 33 35  1  0
 34 36  2  0
 36 37  1  0
 35 38  2  0
 36 38  1  0
M  END
