x0689-x2694
     RDKit          3D

 48 52  0  0  0  0  0  0  0  0999 V2000
    7.2610   -0.8070   21.9390 N   0  0  0  0  0  0  0  0  0  0  0  0
    6.9200    0.4870   21.6980 C   0  0  1  0  0  0  0  0  0  0  0  0
    8.0240    1.4790   21.8630 C   0  0  0  0  0  0  0  0  0  0  0  0
    6.1480   -1.7970   21.8650 C   0  0  0  0  0  0  0  0  0  0  0  0
    8.4630   -1.0910   22.6580 C   0  0  0  0  0  0  0  0  0  0  0  0
    6.0880   -2.8860   22.7580 C   0  0  0  0  0  0  0  0  0  0  0  0
    6.3100    0.7200   20.3210 C   0  0  0  0  0  0  0  0  0  0  0  0
    8.5880   -1.3870   23.9640 N   0  0  0  0  0  0  0  0  0  0  0  0
    9.8360   -1.0940   22.1480 C   0  0  0  0  0  0  0  0  0  0  0  0
    7.7700    2.4640   22.7810 N   0  0  0  0  0  0  0  0  0  0  0  0
    9.0480    1.4370   21.1940 O   0  0  0  0  0  0  0  0  0  0  0  0
    5.1180    1.6360   20.1150 C   0  0  0  0  0  0  0  0  0  0  0  0
    6.9250    0.0360   19.1340 C   0  0  0  0  0  0  0  0  0  0  0  0
    9.9680   -1.5650   24.3010 O   0  0  0  0  0  0  0  0  0  0  0  0
   10.7880   -1.3910   23.2220 C   0  0  0  0  0  0  0  0  0  0  0  0
    6.3070   -4.3350   22.1770 C   0  0  0  0  0  0  0  0  0  0  0  0
   12.3160   -1.4840   23.2180 C   0  0  0  0  0  0  0  0  0  0  0  0
    6.6440   -4.2060   20.6930 C   0  0  0  0  0  0  0  0  0  0  0  0
    6.3230    0.3250   17.8220 N   0  0  0  0  0  0  0  0  0  0  0  0
    4.6270    1.8390   18.8510 C   0  0  0  0  0  0  0  0  0  0  0  0
    8.5590    3.5870   23.0270 C   0  0  0  0  0  0  0  0  0  0  0  0
    5.0010   -5.1600   22.1740 C   0  0  0  0  0  0  0  0  0  0  0  0
    7.3570   -5.0590   23.0370 C   0  0  0  0  0  0  0  0  0  0  0  0
   12.8650   -0.0980   23.5480 C   0  0  0  0  0  0  0  0  0  0  0  0
   12.8960   -1.9230   21.8680 C   0  0  0  0  0  0  0  0  0  0  0  0
   12.7920   -2.2510   24.2130 C   0  0  0  0  0  0  0  0  0  0  0  0
    7.9960   -3.5740   20.3150 C   0  0  0  0  0  0  0  0  0  0  0  0
    5.7820   -4.5580   19.8960 O   0  0  0  0  0  0  0  0  0  0  0  0
    5.1850    1.2340   17.7530 C   0  0  0  0  0  0  0  0  0  0  0  0
    9.9100    3.3600   23.6850 C   0  0  0  0  0  0  0  0  0  0  0  0
    8.1360    5.0720   22.6610 C   0  0  0  0  0  0  0  0  0  0  0  0
    5.0100   -6.0780   23.3690 C   0  0  0  0  0  0  0  0  0  0  0  0
    7.0400   -4.9930   24.3530 C   0  0  0  0  0  0  0  0  0  0  0  0
   10.4150    1.9990   24.0710 C   0  0  0  0  0  0  0  0  0  0  0  0
   10.7170    4.5820   23.9320 C   0  0  0  0  0  0  0  0  0  0  0  0
    9.0960    6.1850   22.9960 C   0  0  0  0  0  0  0  0  0  0  0  0
    5.5560   -5.1890   24.4030 N   0  0  0  0  0  0  0  0  0  0  0  0
    4.7670   -5.1310   25.8860 S   0  0  0  0  0  0  0  0  0  0  0  0
   10.3950    5.8350   23.6510 C   0  0  0  0  0  0  0  0  0  0  0  0
   11.1880    6.9050   23.9260 O   0  0  0  0  0  0  0  0  0  0  0  0
    4.0260   -6.3570   26.0880 O   0  0  0  0  0  0  0  0  0  0  0  0
    5.6880   -4.6430   26.8840 O   0  0  0  0  0  0  0  0  0  0  0  0
    3.4990   -3.8860   25.7590 C   0  0  0  0  0  0  0  0  0  0  0  0
   11.9030    6.8390   25.1550 C   0  0  0  0  0  0  0  0  0  0  0  0
    3.9310   -2.2700   26.0960 S   0  0  0  0  0  0  0  0  0  0  0  0
    2.1250   -3.9770   25.4150 C   0  0  0  0  0  0  0  0  0  0  0  0
    1.4510   -2.7790   25.4320 C   0  0  0  0  0  0  0  0  0  0  0  0
    2.3270   -1.7160   25.7960 C   0  0  0  0  0  0  0  0  0  0  0  0
  1  2  1  0
  2  3  1  6
  1  4  1  0
  1  5  1  0
  4  6  1  0
  2  7  1  0
  5  8  2  0
  5  9  1  0
  3 10  1  0
  3 11  2  0
  7 12  2  0
  7 13  1  0
  8 14  1  0
  9 15  2  0
 14 15  1  0
  6 16  1  0
 15 17  1  0
 16 18  1  0
 13 19  2  0
 12 20  1  0
 10 21  1  0
 16 22  1  0
 16 23  1  0
 17 24  1  0
 17 25  1  0
 17 26  1  0
 18 27  1  0
 18 28  2  0
 19 29  1  0
 20 29  2  0
 21 30  2  0
 21 31  1  0
 22 32  1  0
 23 33  1  0
 30 34  1  0
 30 35  1  0
 31 36  2  0
 32 37  1  0
 33 37  1  0
 37 38  1  0
 35 39  2  0
 36 39  1  0
 39 40  1  0
 38 41  2  0
 38 42  2  0
 38 43  1  0
 40 44  1  0
 43 45  1  0
 43 46  2  0
 46 47  1  0
 45 48  1  0
 47 48  2  0
M  END
