x0689-x3113-x0978
     RDKit          3D

 54 57  0  0  0  0  0  0  0  0999 V2000
    7.2760   -1.1270   21.8710 N   0  0  0  0  0  0  0  0  0  0  0  0
    6.9750    0.2060   21.7420 C   0  0  1  0  0  0  0  0  0  0  0  0
    8.1310    1.1640   21.9550 C   0  0  0  0  0  0  0  0  0  0  0  0
    6.0780   -1.9870   21.9410 C   0  0  0  0  0  0  0  0  0  0  0  0
    8.4840   -1.4250   22.5780 C   0  0  0  0  0  0  0  0  0  0  0  0
    6.2580   -3.2940   22.7540 C   0  0  0  0  0  0  0  0  0  0  0  0
    6.3840    0.5200   20.3850 C   0  0  0  0  0  0  0  0  0  0  0  0
    9.6310   -1.3750   21.7710 C   0  0  0  0  0  0  0  0  0  0  0  0
    8.6140   -1.7290   23.9560 C   0  0  0  0  0  0  0  0  0  0  0  0
    8.3060    1.5490   23.2690 N   0  0  0  0  0  0  0  0  0  0  0  0
    8.8490    1.6110   21.0670 O   0  0  0  0  0  0  0  0  0  0  0  0
    5.2070    1.4090   20.2340 C   0  0  0  0  0  0  0  0  0  0  0  0
    6.9080    0.0030   19.1930 C   0  0  0  0  0  0  0  0  0  0  0  0
   11.0180   -1.6280   22.3680 C   0  0  0  0  0  0  0  0  0  0  0  0
    9.8660   -1.9610   24.5260 C   0  0  0  0  0  0  0  0  0  0  0  0
    6.3050   -4.5500   22.1240 C   0  0  2  0  0  0  0  0  0  0  0  0
    9.2380    2.5890   23.3030 C   0  0  0  0  0  0  0  0  0  0  0  0
    6.4560   -4.4000   20.5900 C   0  0  0  0  0  0  0  0  0  0  0  0
    6.3940    0.2910   17.9530 N   0  0  0  0  0  0  0  0  0  0  0  0
    4.7300    1.6640   18.9790 C   0  0  0  0  0  0  0  0  0  0  0  0
   11.1550   -1.9030   23.7110 C   0  0  0  0  0  0  0  0  0  0  0  0
    5.1600   -5.3550   22.2550 C   0  0  0  0  0  0  0  0  0  0  0  0
    7.2770   -5.3340   22.9700 C   0  0  0  0  0  0  0  0  0  0  0  0
   10.6780    2.0750   23.4350 C   0  0  0  0  0  0  0  0  0  0  0  0
   12.5300   -2.0930   24.3200 C   0  0  0  0  0  0  0  0  0  0  0  0
    7.3260   -3.4060   19.7870 C   0  0  0  0  0  0  0  0  0  0  0  0
    5.7200   -5.1550   19.9870 O   0  0  0  0  0  0  0  0  0  0  0  0
    5.2970    1.1300   17.8310 C   0  0  0  0  0  0  0  0  0  0  0  0
    4.4350   -5.3120   23.4310 C   0  0  2  0  0  0  0  0  0  0  0  0
    6.8900   -5.2720   24.3280 C   0  0  0  0  0  0  0  0  0  0  0  0
   11.7600    2.8610   23.0600 C   0  0  0  0  0  0  0  0  0  0  0  0
   13.4550   -2.2500   23.2940 C   0  0  0  0  0  0  0  0  0  0  0  0
   12.7940   -3.2080   25.3520 C   0  0  0  0  0  0  0  0  0  0  0  0
   12.8270   -0.7680   25.0160 C   0  0  0  0  0  0  0  0  0  0  0  0
    3.2350   -6.3040   23.3500 C   0  0  2  0  0  0  0  0  0  0  0  0
    3.8100   -4.0270   23.4980 O   0  0  0  0  0  0  0  0  0  0  0  0
    5.4350   -5.4870   24.5440 N   0  0  0  0  0  0  0  0  0  0  0  0
   11.7850    4.0540   23.3450 O   0  0  0  0  0  0  0  0  0  0  0  0
    1.9120   -5.5930   23.3210 N   0  0  0  0  0  0  0  0  0  0  0  0
    3.2290   -7.2900   24.3490 C   0  0  1  0  0  0  0  0  0  0  0  0
    4.8120   -5.0520   26.0840 S   0  0  0  0  0  0  0  0  0  0  0  0
   12.9230    4.6820   22.8880 C   0  0  0  0  0  0  0  0  0  0  0  0
    2.0170   -8.2470   24.4270 C   0  0  0  0  0  0  0  0  0  0  0  0
    4.4400   -7.8870   24.2390 O   0  0  0  0  0  0  0  0  0  0  0  0
    0.8550   -6.2610   22.5300 C   0  0  0  0  0  0  0  0  0  0  0  0
    4.2020   -6.1890   26.7250 O   0  0  0  0  0  0  0  0  0  0  0  0
    5.9990   -4.2430   26.8900 O   0  0  0  0  0  0  0  0  0  0  0  0
    3.5910   -3.9070   25.8950 C   0  0  0  0  0  0  0  0  0  0  0  0
    0.9930   -7.3320   21.9500 O   0  0  0  0  0  0  0  0  0  0  0  0
   -0.4640   -5.4530   22.5060 C   0  0  0  0  0  0  0  0  0  0  0  0
    4.0140   -2.2280   25.9890 S   0  0  0  0  0  0  0  0  0  0  0  0
    2.0970   -4.0350   25.6480 C   0  0  0  0  0  0  0  0  0  0  0  0
    1.3790   -2.7020   25.5510 C   0  0  0  0  0  0  0  0  0  0  0  0
    2.4300   -1.6290   25.7400 C   0  0  0  0  0  0  0  0  0  0  0  0
  1  2  1  0
  2  3  1  6
  1  4  1  0
  1  5  1  0
  4  6  1  0
  2  7  1  0
  5  8  2  0
  5  9  1  0
  3 10  1  0
  3 11  2  0
  7 12  2  0
  7 13  1  0
  8 14  1  0
  9 15  2  0
 16  6  1  1
 10 17  1  0
 16 18  1  0
 13 19  2  0
 12 20  1  0
 14 21  2  0
 15 21  1  0
 16 22  1  0
 16 23  1  0
 17 24  1  0
 21 25  1  0
 18 26  1  0
 18 27  2  0
 19 28  1  0
 20 28  2  0
 22 29  1  0
 23 30  1  0
 24 31  1  0
 25 32  1  0
 25 33  1  0
 25 34  1  0
 29 35  1  0
 29 36  1  1
 29 37  1  0
 30 37  1  0
 31 38  1  0
 35 39  1  1
 35 40  1  0
 37 41  1  0
 38 42  1  0
 40 43  1  6
 40 44  1  0
 39 45  1  0
 41 46  2  0
 41 47  2  0
 41 48  1  0
 45 49  2  0
 45 50  1  0
 48 51  1  0
 48 52  2  0
 52 53  1  0
 51 54  1  0
 53 54  2  0
M  END
