x0691-x2193-x2694-x2705
     RDKit          3D

 59 64  0  0  0  0  0  0  0  0999 V2000
    7.8620   -0.7540   21.7970 N   0  0  0  0  0  0  0  0  0  0  0  0
    7.0400    0.4780   21.6970 C   0  0  1  0  0  0  0  0  0  0  0  0
    7.9470    1.7260   21.8770 C   0  0  0  0  0  0  0  0  0  0  0  0
    9.1200   -0.8290   22.5350 C   0  0  1  0  0  0  0  0  0  0  0  0
    6.3800    0.6040   20.5370 C   0  0  0  0  0  0  0  0  0  0  0  0
    8.8780   -1.1410   23.8350 N   0  0  0  0  0  0  0  0  0  0  0  0
   10.2940   -1.5930   22.0540 C   0  0  0  0  0  0  0  0  0  0  0  0
    7.6130    2.7580   22.6940 N   0  0  0  0  0  0  0  0  0  0  0  0
    9.0010    1.8650   21.2560 O   0  0  0  0  0  0  0  0  0  0  0  0
    5.1040    1.3740   20.3440 C   0  0  0  0  0  0  0  0  0  0  0  0
    6.9700   -0.0550   19.3040 C   0  0  0  0  0  0  0  0  0  0  0  0
   10.1710   -1.2800   24.2810 O   0  0  0  0  0  0  0  0  0  0  0  0
   10.9220   -1.9150   23.2460 C   0  0  2  0  0  0  0  0  0  0  0  0
    8.2620   -2.4560   24.1320 C   0  0  0  0  0  0  0  0  0  0  0  0
   12.3880   -1.3850   23.3150 C   0  0  0  0  0  0  0  0  0  0  0  0
    6.3150    0.0810   17.9840 N   0  0  0  0  0  0  0  0  0  0  0  0
    4.5490    1.4250   18.9440 C   0  0  0  0  0  0  0  0  0  0  0  0
    8.4880    3.7760   22.9780 C   0  0  0  0  0  0  0  0  0  0  0  0
    9.1030   -3.3230   25.0070 N   0  0  0  0  0  0  0  0  0  0  0  0
    6.1870    3.0620   22.9420 C   0  0  0  0  0  0  0  0  0  0  0  0
   12.5640   -0.0040   23.4910 C   0  0  0  0  0  0  0  0  0  0  0  0
   13.0800   -1.7770   22.0060 C   0  0  0  0  0  0  0  0  0  0  0  0
   13.0920   -2.1010   24.4760 C   0  0  0  0  0  0  0  0  0  0  0  0
    5.1630    0.8070   17.8950 C   0  0  0  0  0  0  0  0  0  0  0  0
    9.8150    3.4380   23.6720 C   0  0  0  0  0  0  0  0  0  0  0  0
    8.1960    5.1050   22.6540 C   0  0  0  0  0  0  0  0  0  0  0  0
    8.4160   -3.7170   26.2360 C   0  0  0  0  0  0  0  0  0  0  0  0
    9.7380   -4.4950   24.3510 C   0  0  0  0  0  0  0  0  0  0  0  0
    5.6640    3.9940   21.9520 C   0  0  0  0  0  0  0  0  0  0  0  0
   10.2270    2.0640   24.0540 C   0  0  0  0  0  0  0  0  0  0  0  0
   10.6360    4.5270   23.9350 C   0  0  0  0  0  0  0  0  0  0  0  0
    9.1880    6.1920   23.0050 C   0  0  0  0  0  0  0  0  0  0  0  0
    7.7870   -4.9740   26.1550 C   0  0  2  0  0  0  0  0  0  0  0  0
    9.7120   -5.7830   25.1650 C   0  0  0  0  0  0  0  0  0  0  0  0
    9.2650    1.4270   24.9580 C   0  0  0  0  0  0  0  0  0  0  0  0
   10.3930    6.0000   23.6310 C   0  0  0  0  0  0  0  0  0  0  0  0
    6.7010   -4.9760   27.0530 C   0  0  0  0  0  0  0  0  0  0  0  0
    8.7620   -5.8610   26.2960 N   0  0  0  0  0  0  0  0  0  0  0  0
   11.3860    6.9430   24.0150 O   0  0  0  0  0  0  0  0  0  0  0  0
    5.6810   -5.8320   26.8380 N   0  0  0  0  0  0  0  0  0  0  0  0
   11.9080    6.7740   25.3240 C   0  0  0  0  0  0  0  0  0  0  0  0
    4.5380   -5.6690   25.5900 S   0  0  1  0  0  0  0  0  0  0  0  0
    3.7560   -6.8830   25.5910 O   0  0  0  0  0  0  0  0  0  0  0  0
    3.4940   -4.3650   25.7010 C   0  0  0  0  0  0  0  0  0  0  0  0
    5.3410   -5.6500   24.1080 N   0  0  0  0  0  0  0  0  0  0  0  0
    3.9300   -3.0580   25.8080 C   0  0  0  0  0  0  0  0  0  0  0  0
    2.1080   -4.5960   25.6790 C   0  0  0  0  0  0  0  0  0  0  0  0
    4.6750   -6.0950   22.8820 C   0  0  0  0  0  0  0  0  0  0  0  0
    6.1270   -4.4950   23.6670 C   0  0  0  0  0  0  0  0  0  0  0  0
    2.9690   -1.9010   25.9030 C   0  0  0  0  0  0  0  0  0  0  0  0
    1.1830   -3.5380   25.7660 C   0  0  0  0  0  0  0  0  0  0  0  0
    5.5880   -6.4290   21.8550 C   0  0  0  0  0  0  0  0  0  0  0  0
    7.1110   -4.8780   22.7490 C   0  0  0  0  0  0  0  0  0  0  0  0
    3.3500   -0.6190   26.0090 F   0  0  0  0  0  0  0  0  0  0  0  0
    1.6220   -2.2260   25.8760 C   0  0  0  0  0  0  0  0  0  0  0  0
    6.5060   -5.3330   21.5220 N   0  0  0  0  0  0  0  0  0  0  0  0
    6.2820   -4.4370   20.4420 C   0  0  0  0  0  0  0  0  0  0  0  0
    5.2070   -4.4570   19.8690 O   0  0  0  0  0  0  0  0  0  0  0  0
    7.3930   -3.4820   19.9850 C   0  0  0  0  0  0  0  0  0  0  0  0
  2  1  1  6
  2  3  1  0
  4  1  1  6
  2  5  1  0
  4  6  1  0
  4  7  1  0
  3  8  1  0
  3  9  2  0
  5 10  2  0
  5 11  1  0
  6 12  1  0
  7 13  1  0
 12 13  1  0
  6 14  1  0
 13 15  1  6
 11 16  2  0
 10 17  1  0
  8 18  1  0
 14 19  1  0
  8 20  1  0
 15 21  1  0
 15 22  1  0
 15 23  1  0
 16 24  1  0
 17 24  2  0
 18 25  2  0
 18 26  1  0
 19 27  1  0
 19 28  1  0
 20 29  1  0
 25 30  1  0
 25 31  1  0
 26 32  2  0
 27 33  1  0
 28 34  1  0
 30 35  1  0
 31 36  2  0
 32 36  1  0
 33 37  1  1
 33 38  1  0
 34 38  1  0
 36 39  1  0
 37 40  1  0
 39 41  1  0
 40 42  2  0
 42 43  2  0
 42 44  1  1
 42 45  1  0
 44 46  2  0
 44 47  1  0
 45 48  1  0
 45 49  1  0
 46 50  1  0
 47 51  2  0
 48 52  1  0
 49 53  1  0
 50 54  1  0
 50 55  2  0
 51 55  1  0
 52 56  1  0
 53 56  1  0
 56 57  1  0
 57 58  2  0
 57 59  1  0
M  END
