x0691-x2910
     RDKit          3D

 45 49  0  0  0  0  0  0  0  0999 V2000
    7.1660   -1.3340   21.2960 N   0  0  0  0  0  0  0  0  0  0  0  0
    7.4480   -2.0310   22.5010 C   0  0  2  0  0  0  0  0  0  0  0  0
    8.9850   -2.2640   22.4590 C   0  0  0  0  0  0  0  0  0  0  0  0
    5.8890   -1.5660   20.6510 C   0  0  0  0  0  0  0  0  0  0  0  0
    5.2130   -2.5800   20.6700 O   0  0  0  0  0  0  0  0  0  0  0  0
    6.4210   -3.1850   22.8310 C   0  0  0  0  0  0  0  0  0  0  0  0
    5.4600   -0.3850   19.9010 C   0  0  0  0  0  0  0  0  0  0  0  0
    9.4210   -1.2490   22.9740 O   0  0  0  0  0  0  0  0  0  0  0  0
    4.3420    0.5350   20.4060 C   0  0  0  0  0  0  0  0  0  0  0  0
    6.0540   -0.0600   18.7160 C   0  0  0  0  0  0  0  0  0  0  0  0
    6.5140   -4.6160   22.2210 C   0  0  0  0  0  0  0  0  0  0  0  0
    6.8500   -4.3680   20.7150 C   0  0  0  0  0  0  0  0  0  0  0  0
   10.7180   -0.8680   22.7960 C   0  0  0  0  0  0  0  0  0  0  0  0
    4.0270    1.6270   19.5940 C   0  0  0  0  0  0  0  0  0  0  0  0
    5.6930    1.0450   17.9670 C   0  0  0  0  0  0  0  0  0  0  0  0
    3.6560    0.3080   21.6220 C   0  0  0  0  0  0  0  0  0  0  0  0
    5.2820   -5.2470   22.1190 C   0  0  0  0  0  0  0  0  0  0  0  0
    7.5340   -5.2320   22.8290 C   0  0  0  0  0  0  0  0  0  0  0  0
    6.3100    1.3830   16.7460 O   0  0  0  0  0  0  0  0  0  0  0  0
    5.9300   -4.6090   19.9270 O   0  0  0  0  0  0  0  0  0  0  0  0
    8.2250   -3.7850   20.3380 C   0  0  0  0  0  0  0  0  0  0  0  0
   10.9660    0.4540   23.0960 C   0  0  0  0  0  0  0  0  0  0  0  0
   11.7830   -1.6800   22.3570 C   0  0  0  0  0  0  0  0  0  0  0  0
    4.6270    1.9160   18.4480 N   0  0  0  0  0  0  0  0  0  0  0  0
    2.9250    2.5090   20.0960 C   0  0  0  0  0  0  0  0  0  0  0  0
    2.6640    1.1620   22.0110 C   0  0  0  0  0  0  0  0  0  0  0  0
    4.9900   -5.9570   23.2050 C   0  0  0  0  0  0  0  0  0  0  0  0
    7.0970   -5.1860   24.3020 C   0  0  0  0  0  0  0  0  0  0  0  0
    9.8900    1.2060   23.5200 O   0  0  0  0  0  0  0  0  0  0  0  0
   13.0660   -1.2180   22.2190 C   0  0  0  0  0  0  0  0  0  0  0  0
   12.2240    1.0230   22.9930 C   0  0  0  0  0  0  0  0  0  0  0  0
    2.2600    2.2710   21.2850 C   0  0  0  0  0  0  0  0  0  0  0  0
    5.5950   -5.2830   24.3750 N   0  0  0  0  0  0  0  0  0  0  0  0
   10.0010    2.5660   23.0890 C   0  0  0  0  0  0  0  0  0  0  0  0
    4.8630   -5.5020   25.8780 S   0  0  0  0  0  0  0  0  0  0  0  0
   13.3140    0.1140   22.5290 C   0  0  0  0  0  0  0  0  0  0  0  0
    4.1850   -6.7820   25.8670 O   0  0  0  0  0  0  0  0  0  0  0  0
    5.8460   -5.1870   26.8830 O   0  0  0  0  0  0  0  0  0  0  0  0
    3.6840   -4.2740   25.9650 C   0  0  0  0  0  0  0  0  0  0  0  0
    4.0160   -2.9140   25.8340 C   0  0  0  0  0  0  0  0  0  0  0  0
    2.4110   -4.6960   26.1730 C   0  0  0  0  0  0  0  0  0  0  0  0
    3.0670   -1.8600   25.9040 C   0  0  0  0  0  0  0  0  0  0  0  0
    1.3390   -3.6640   26.2640 C   0  0  0  0  0  0  0  0  0  0  0  0
    3.4000   -0.5700   25.7800 F   0  0  0  0  0  0  0  0  0  0  0  0
    1.6220   -2.3080   26.1380 C   0  0  0  0  0  0  0  0  0  0  0  0
  1  2  1  0
  2  3  1  6
  1  4  1  0
  4  5  2  0
  2  6  1  0
  4  7  1  0
  3  8  1  0
  7  9  1  0
  7 10  2  0
  6 11  1  0
 11 12  1  0
  8 13  1  0
  9 14  2  0
 10 15  1  0
  9 16  1  0
 11 17  1  0
 11 18  1  0
 15 19  1  0
 12 20  2  0
 12 21  1  0
 13 22  2  0
 13 23  1  0
 14 24  1  0
 15 24  2  0
 14 25  1  0
 16 26  2  0
 17 27  1  0
 18 28  1  0
 22 29  1  0
 23 30  2  0
 22 31  1  0
 25 32  2  0
 26 32  1  0
 27 33  1  0
 28 33  1  0
 29 34  1  0
 33 35  1  0
 30 36  1  0
 31 36  2  0
 35 37  2  0
 35 38  2  0
 35 39  1  0
 39 40  2  0
 39 41  1  0
 40 42  1  0
 41 43  2  0
 42 44  1  0
 42 45  2  0
 43 45  1  0
M  END
