x0691-x0426
     RDKit          3D

 38 41  0  0  0  0  0  0  0  0999 V2000
    4.1640   -6.9320   25.9740 O   0  0  0  0  0  0  0  0  0  0  0  0
    4.7420   -5.6060   25.9010 S   0  0  0  0  0  0  0  0  0  0  0  0
    5.7860   -5.2020   26.8150 O   0  0  0  0  0  0  0  0  0  0  0  0
    3.3430   -4.4400   26.0830 C   0  0  0  0  0  0  0  0  0  0  0  0
    5.3950   -5.4250   24.3240 N   0  0  0  0  0  0  0  0  0  0  0  0
    3.9640   -3.1200   25.9420 C   0  0  0  0  0  0  0  0  0  0  0  0
    1.8570   -4.9110   26.3350 C   0  0  0  0  0  0  0  0  0  0  0  0
    4.6680   -5.9630   23.1010 C   0  0  0  0  0  0  0  0  0  0  0  0
    6.2880   -4.2460   24.1160 C   0  0  0  0  0  0  0  0  0  0  0  0
    2.9330   -2.1500   26.0720 C   0  0  0  0  0  0  0  0  0  0  0  0
    1.1870   -3.7620   26.4060 C   0  0  0  0  0  0  0  0  0  0  0  0
    5.6380   -6.3480   22.1430 C   0  0  0  0  0  0  0  0  0  0  0  0
    7.3000   -4.7760   23.1170 C   0  0  0  0  0  0  0  0  0  0  0  0
    3.1270   -0.7380   25.9870 O   0  0  0  0  0  0  0  0  0  0  0  0
    1.6270   -2.4420   26.2920 C   0  0  0  0  0  0  0  0  0  0  0  0
    6.5330   -5.2390   21.9690 N   0  0  0  0  0  0  0  0  0  0  0  0
    6.3730   -4.6030   20.7430 C   0  0  0  0  0  0  0  0  0  0  0  0
    2.2450   -0.0580   25.0910 C   0  0  0  0  0  0  0  0  0  0  0  0
    5.4120   -4.6930   19.9690 O   0  0  0  0  0  0  0  0  0  0  0  0
    7.6300   -3.7420   20.5190 C   0  0  0  0  0  0  0  0  0  0  0  0
    2.8640    0.7020   24.1430 N   0  0  0  0  0  0  0  0  0  0  0  0
    2.4730    1.9980   23.9030 C   0  0  0  0  0  0  0  0  0  0  0  0
    3.2060    2.6550   22.9530 N   0  0  0  0  0  0  0  0  0  0  0  0
    1.3440    2.7160   24.6040 C   0  0  0  0  0  0  0  0  0  0  0  0
    4.1340    1.9940   22.2060 C   0  0  0  0  0  0  0  0  0  0  0  0
    1.4670    3.9610   25.3260 C   0  0  0  0  0  0  0  0  0  0  0  0
   -0.0580    2.2000   24.6250 C   0  0  0  0  0  0  0  0  0  0  0  0
    3.5180    1.2040   21.0570 C   0  0  0  0  0  0  0  0  0  0  0  0
    2.6560    4.5700   25.4100 F   0  0  0  0  0  0  0  0  0  0  0  0
   -1.3410    2.8090   25.2970 C   0  0  0  0  0  0  0  0  0  0  0  0
    0.3590    4.5160   25.9240 C   0  0  0  0  0  0  0  0  0  0  0  0
   -1.0180    4.1640   26.0390 C   0  0  0  0  0  0  0  0  0  0  0  0
    4.5850    0.9250   19.9780 C   0  0  0  0  0  0  0  0  0  0  0  0
    5.7560   -0.1100   20.2380 C   0  0  0  0  0  0  0  0  0  0  0  0
    4.5800    1.5650   18.7240 C   0  0  0  0  0  0  0  0  0  0  0  0
    6.7420   -0.3080   19.1160 C   0  0  0  0  0  0  0  0  0  0  0  0
    5.5410    1.2860   17.7970 C   0  0  0  0  0  0  0  0  0  0  0  0
    6.5770    0.4420   17.8740 N   0  0  0  0  0  0  0  0  0  0  0  0
  1  2  2  0
  2  3  2  0
  2  4  1  0
  2  5  1  0
  4  6  2  0
  4  7  1  0
  5  8  1  0
  5  9  1  0
  6 10  1  0
  7 11  2  0
  8 12  1  0
  9 13  1  0
 10 14  1  0
 10 15  2  0
 11 15  1  0
 12 16  1  0
 13 16  1  0
 16 17  1  0
 14 18  1  0
 17 19  2  0
 17 20  1  0
 18 21  1  0
 21 22  2  3
 22 23  1  0
 22 24  1  0
 23 25  1  0
 24 26  2  0
 24 27  1  0
 25 28  1  0
 26 29  1  0
 27 30  2  0
 26 31  1  0
 30 32  1  0
 31 32  2  0
 28 33  1  0
 33 34  2  0
 33 35  1  0
 34 36  1  0
 35 37  2  0
 36 38  2  0
 37 38  1  0
M  END
