x0691-x2193-x2705
     RDKit          3D

 56 61  0  0  0  0  0  0  0  0999 V2000
    7.5570   -1.1480   21.9450 N   0  0  0  0  0  0  0  0  0  0  0  0
    7.0480    0.2020   21.6640 C   0  0  1  0  0  0  0  0  0  0  0  0
    8.0250    1.3750   21.8020 C   0  0  0  0  0  0  0  0  0  0  0  0
    8.7960   -1.2770   22.5500 C   0  0  0  0  0  0  0  0  0  0  0  0
    6.3750    0.3930   20.2990 C   0  0  0  0  0  0  0  0  0  0  0  0
    8.9690   -1.7430   23.8270 N   0  0  0  0  0  0  0  0  0  0  0  0
   10.0010   -1.0100   22.0760 C   0  0  0  0  0  0  0  0  0  0  0  0
    7.6460    2.3070   22.7420 N   0  0  0  0  0  0  0  0  0  0  0  0
    9.0390    1.5530   21.1470 O   0  0  0  0  0  0  0  0  0  0  0  0
    5.1680    1.2030   20.2400 C   0  0  0  0  0  0  0  0  0  0  0  0
    6.9860   -0.2090   19.1960 C   0  0  0  0  0  0  0  0  0  0  0  0
   10.2620   -1.7750   24.2160 N   0  0  0  0  0  0  0  0  0  0  0  0
   10.9930   -1.2960   23.0630 C   0  0  0  0  0  0  0  0  0  0  0  0
    8.0720   -2.2220   24.8470 C   0  0  0  0  0  0  0  0  0  0  0  0
   12.4800   -1.2130   23.1380 C   0  0  0  0  0  0  0  0  0  0  0  0
    6.3580    0.0160   17.8970 N   0  0  0  0  0  0  0  0  0  0  0  0
    4.5100    1.4750   19.1290 C   0  0  0  0  0  0  0  0  0  0  0  0
    8.2950    3.5350   22.9130 C   0  0  0  0  0  0  0  0  0  0  0  0
    8.5680   -3.5520   25.2920 N   0  0  0  0  0  0  0  0  0  0  0  0
   12.8640    0.0940   23.4410 C   0  0  0  0  0  0  0  0  0  0  0  0
   13.0330   -2.1650   24.1660 C   0  0  0  0  0  0  0  0  0  0  0  0
   13.0210   -1.6180   21.7690 C   0  0  0  0  0  0  0  0  0  0  0  0
    5.1450    0.8490   17.8830 C   0  0  0  0  0  0  0  0  0  0  0  0
    9.5910    3.5330   23.4560 C   0  0  0  0  0  0  0  0  0  0  0  0
    7.6730    4.7450   22.5470 C   0  0  0  0  0  0  0  0  0  0  0  0
    8.5980   -3.8480   26.5900 C   0  0  0  0  0  0  0  0  0  0  0  0
    9.4750   -4.3670   24.4760 C   0  0  0  0  0  0  0  0  0  0  0  0
   10.2780    2.2480   23.8390 C   0  0  0  0  0  0  0  0  0  0  0  0
    6.3120    4.5890   21.9770 C   0  0  0  0  0  0  0  0  0  0  0  0
   10.2520    4.7440   23.6360 C   0  0  0  0  0  0  0  0  0  0  0  0
    8.3590    5.9400   22.7370 C   0  0  0  0  0  0  0  0  0  0  0  0
    8.2280   -5.3070   26.7960 C   0  0  1  0  0  0  0  0  0  0  0  0
    9.4330   -5.7440   24.7480 C   0  0  0  0  0  0  0  0  0  0  0  0
    9.3510    1.3140   24.7210 C   0  0  0  0  0  0  0  0  0  0  0  0
    9.6440    5.9650   23.2800 C   0  0  0  0  0  0  0  0  0  0  0  0
    6.9810   -5.2510   25.9970 C   0  0  0  0  0  0  0  0  0  0  0  0
    9.0840   -6.1700   26.1320 N   0  0  0  0  0  0  0  0  0  0  0  0
    5.9030   -5.6810   26.6570 N   0  0  0  0  0  0  0  0  0  0  0  0
    4.5650   -5.6360   25.6630 S   0  0  1  0  0  0  0  0  0  0  0  0
    3.5250   -6.6370   25.5930 O   0  0  0  0  0  0  0  0  0  0  0  0
    3.4560   -4.4210   25.7330 C   0  0  0  0  0  0  0  0  0  0  0  0
    5.2360   -5.5410   24.0670 N   0  0  0  0  0  0  0  0  0  0  0  0
    3.8140   -3.0550   25.8560 C   0  0  0  0  0  0  0  0  0  0  0  0
    1.9610   -4.7220   25.6620 C   0  0  0  0  0  0  0  0  0  0  0  0
    4.5440   -6.1560   22.9270 C   0  0  0  0  0  0  0  0  0  0  0  0
    5.7980   -4.2630   23.6050 C   0  0  0  0  0  0  0  0  0  0  0  0
    2.8760   -1.9890   25.9160 C   0  0  0  0  0  0  0  0  0  0  0  0
    0.9600   -3.5980   25.7260 C   0  0  0  0  0  0  0  0  0  0  0  0
    5.7070   -6.3430   21.9080 C   0  0  0  0  0  0  0  0  0  0  0  0
    6.9450   -4.5120   22.8830 C   0  0  0  0  0  0  0  0  0  0  0  0
    3.4090   -0.7640   26.0310 F   0  0  0  0  0  0  0  0  0  0  0  0
    1.5380   -2.2090   25.8600 C   0  0  0  0  0  0  0  0  0  0  0  0
    6.5820   -5.1440   21.6240 N   0  0  0  0  0  0  0  0  0  0  0  0
    6.3410   -4.4200   20.4520 C   0  0  0  0  0  0  0  0  0  0  0  0
    5.2670   -4.5660   19.8960 O   0  0  0  0  0  0  0  0  0  0  0  0
    7.4110   -3.4360   19.9110 C   0  0  0  0  0  0  0  0  0  0  0  0
  2  1  1  6
  2  3  1  0
  1  4  1  0
  2  5  1  0
  4  6  1  0
  4  7  2  0
  3  8  1  0
  3  9  2  0
  5 10  2  0
  5 11  1  0
  6 12  1  0
  7 13  1  0
 12 13  2  0
  6 14  1  0
 13 15  1  0
 11 16  2  0
 10 17  1  0
  8 18  1  0
 14 19  1  0
 15 20  1  0
 15 21  1  0
 15 22  1  0
 16 23  1  0
 17 23  2  0
 18 24  2  0
 18 25  1  0
 19 26  1  0
 19 27  1  0
 24 28  1  0
 25 29  1  0
 24 30  1  0
 25 31  2  0
 26 32  1  0
 27 33  1  0
 28 34  1  0
 30 35  2  0
 31 35  1  0
 32 36  1  6
 32 37  1  0
 33 37  1  0
 36 38  1  0
 38 39  2  0
 39 40  2  0
 39 41  1  1
 39 42  1  0
 41 43  2  0
 41 44  1  0
 42 45  1  0
 42 46  1  0
 43 47  1  0
 44 48  2  0
 45 49  1  0
 46 50  1  0
 47 51  1  0
 47 52  2  0
 48 52  1  0
 49 53  1  0
 50 53  1  0
 53 54  1  0
 54 55  2  0
 54 56  1  0
M  END
