x0691-x0426-x2608-x2776
     RDKit          3D

 65 70  0  0  0  0  0  0  0  0999 V2000
    8.0570   -1.1060   21.6150 N   0  0  0  0  0  0  0  0  0  0  0  0
    7.2520    0.0310   21.5950 C   0  0  1  0  0  0  0  0  0  0  0  0
    8.2060    1.2140   21.6330 C   0  0  0  0  0  0  0  0  0  0  0  0
    8.9060   -1.2310   22.8560 C   0  0  2  0  0  0  0  0  0  0  0  0
    6.3900    0.2880   20.3640 C   0  0  0  0  0  0  0  0  0  0  0  0
   10.1530   -1.8380   22.5270 C   0  0  2  0  0  0  0  0  0  0  0  0
    8.2750   -1.9280   23.8800 C   0  0  0  0  0  0  0  0  0  0  0  0
    7.8320    2.3050   22.5320 N   0  0  0  0  0  0  0  0  0  0  0  0
    4.9340    0.8140   20.2840 C   0  0  0  0  0  0  0  0  0  0  0  0
    7.0030    0.0280   19.0080 C   0  0  0  0  0  0  0  0  0  0  0  0
   10.0670   -3.0200   23.1690 C   0  0  0  0  0  0  0  0  0  0  0  0
   11.5170   -1.2110   22.7130 C   0  0  2  0  0  0  0  0  0  0  0  0
    9.0410   -3.1210   23.9320 C   0  0  0  0  0  0  0  0  0  0  0  0
   12.4570   -2.2030   23.4060 C   0  0  0  0  0  0  0  0  0  0  0  0
    4.0650    1.0970   21.5010 C   0  0  0  0  0  0  0  0  0  0  0  0
    6.3860    0.2730   17.8620 N   0  0  0  0  0  0  0  0  0  0  0  0
    4.3860    1.0360   19.0660 C   0  0  0  0  0  0  0  0  0  0  0  0
    8.2710    3.5860   22.0750 C   0  0  0  0  0  0  0  0  0  0  0  0
   11.8060   -0.0670   23.4480 C   0  0  1  0  0  0  0  0  0  0  0  0
   12.1410   -2.4460   24.5950 O   0  0  0  0  0  0  0  0  0  0  0  0
    4.5160    2.3340   22.2930 C   0  0  0  0  0  0  0  0  0  0  0  0
   13.1450    0.3900   22.8500 C   0  0  0  0  0  0  0  0  0  0  0  0
    5.0440    0.8070   17.8400 C   0  0  0  0  0  0  0  0  0  0  0  0
    7.6840    4.8820   22.6050 C   0  0  0  0  0  0  0  0  0  0  0  0
   10.9610    1.1990   23.6330 S   0  0  0  0  0  0  0  0  0  0  0  0
   11.5210    2.0770   22.5270 O   0  0  0  0  0  0  0  0  0  0  0  0
    9.6390    2.0280   24.5910 C   0  0  0  0  0  0  0  0  0  0  0  0
   13.3900   -2.9010   25.1650 C   0  0  0  0  0  0  0  0  0  0  0  0
    3.3140    2.7840   22.8110 N   0  0  0  0  0  0  0  0  0  0  0  0
    8.5430    5.8330   23.1860 C   0  0  0  0  0  0  0  0  0  0  0  0
   10.1580    0.5050   24.7850 C   0  0  0  0  0  0  0  0  0  0  0  0
    2.4300    2.1370   23.7800 C   0  0  0  0  0  0  0  0  0  0  0  0
    9.4990    3.4340   24.1460 C   0  0  0  0  0  0  0  0  0  0  0  0
    9.9210    5.6680   23.3100 C   0  0  1  0  0  0  0  0  0  0  0  0
   10.3290    6.5650   24.3570 O   0  0  0  0  0  0  0  0  0  0  0  0
    2.5170    0.7820   24.1900 N   0  0  0  0  0  0  0  0  0  0  0  0
   10.4100    4.4180   23.6290 C   0  0  0  0  0  0  0  0  0  0  0  0
    1.2850    2.8740   24.4990 C   0  0  0  0  0  0  0  0  0  0  0  0
   11.7250    6.5470   24.6800 C   0  0  0  0  0  0  0  0  0  0  0  0
    2.0380   -0.2620   24.9720 C   0  0  0  0  0  0  0  0  0  0  0  0
    1.4890    4.0600   25.2220 C   0  0  0  0  0  0  0  0  0  0  0  0
   -0.0210    2.3380   24.4460 C   0  0  0  0  0  0  0  0  0  0  0  0
    2.7290    4.5760   25.2790 F   0  0  0  0  0  0  0  0  0  0  0  0
    3.1440   -0.8140   25.7730 O   0  0  0  0  0  0  0  0  0  0  0  0
   -1.0680    2.9840   25.1000 C   0  0  0  0  0  0  0  0  0  0  0  0
    0.4550    4.7090   25.8750 C   0  0  0  0  0  0  0  0  0  0  0  0
   -0.8270    4.1570   25.8070 C   0  0  0  0  0  0  0  0  0  0  0  0
    2.8100   -2.1350   25.9440 C   0  0  0  0  0  0  0  0  0  0  0  0
    3.7870   -3.1180   25.8060 C   0  0  0  0  0  0  0  0  0  0  0  0
    1.4790   -2.4980   26.2440 C   0  0  0  0  0  0  0  0  0  0  0  0
    3.4280   -4.4500   25.9610 C   0  0  0  0  0  0  0  0  0  0  0  0
    1.1290   -3.8380   26.4010 C   0  0  0  0  0  0  0  0  0  0  0  0
    4.7840   -5.6360   25.7420 S   0  0  0  0  0  0  0  0  0  0  0  0
    2.1160   -4.8080   26.2560 C   0  0  0  0  0  0  0  0  0  0  0  0
    4.1440   -6.9330   25.7920 O   0  0  0  0  0  0  0  0  0  0  0  0
    5.7760   -5.2950   26.7310 O   0  0  0  0  0  0  0  0  0  0  0  0
    5.4340   -5.4240   24.1790 N   0  0  0  0  0  0  0  0  0  0  0  0
    4.7540   -6.1490   23.0950 C   0  0  0  0  0  0  0  0  0  0  0  0
    6.7380   -4.9830   24.0770 C   0  0  0  0  0  0  0  0  0  0  0  0
    5.7560   -6.4240   21.9730 C   0  0  0  0  0  0  0  0  0  0  0  0
    7.2980   -4.6920   22.8240 C   0  0  0  0  0  0  0  0  0  0  0  0
    6.5830   -5.2810   21.7570 N   0  0  0  0  0  0  0  0  0  0  0  0
    6.3530   -4.5340   20.5590 C   0  0  0  0  0  0  0  0  0  0  0  0
    5.3090   -4.7000   19.9450 O   0  0  0  0  0  0  0  0  0  0  0  0
    7.3940   -3.5060   20.0400 C   0  0  0  0  0  0  0  0  0  0  0  0
  1  2  1  0
  2  3  1  0
  1  4  1  0
  2  5  1  6
  4  6  1  0
  4  7  1  1
  3  8  1  0
  5  9  1  0
  5 10  2  0
  6 11  1  1
  6 12  1  0
  7 13  1  0
 11 13  2  0
 12 14  1  1
  9 15  1  0
 10 16  1  0
  9 17  2  0
  8 18  1  0
 12 19  1  0
 14 20  1  0
 15 21  1  0
 19 22  1  6
 16 23  2  0
 17 23  1  0
 18 24  1  0
 19 25  1  0
 25 26  1  0
 25 27  2  0
 20 28  1  0
 21 29  1  0
 24 30  2  0
 25 31  1  0
 29 32  1  0
 27 33  1  0
 30 34  1  0
 34 35  1  1
 32 36  2  3
 33 37  2  0
 34 37  1  0
 32 38  1  0
 35 39  1  0
 36 40  1  0
 38 41  2  0
 38 42  1  0
 41 43  1  0
 40 44  1  0
 42 45  2  0
 41 46  1  0
 45 47  1  0
 46 47  2  0
 44 48  1  0
 48 49  2  0
 48 50  1  0
 49 51  1  0
 50 52  2  0
 53 51  1  0
 51 54  2  0
 52 54  1  0
 53 55  2  0
 53 56  2  0
 53 57  1  0
 57 58  1  0
 57 59  1  0
 58 60  1  0
 59 61  1  0
 60 62  1  0
 61 62  1  0
 62 63  1  0
 63 64  2  0
 63 65  1  0
M  END
