x0691-x3117-x2776-x2694
     RDKit          3D

 53 57  0  0  0  0  0  0  0  0999 V2000
    7.1930   -1.0520   21.5970 N   0  0  0  0  0  0  0  0  0  0  0  0
    6.8130    0.2400   21.4250 C   0  0  1  0  0  0  0  0  0  0  0  0
    7.9280    1.2180   21.7360 C   0  0  0  0  0  0  0  0  0  0  0  0
    5.9790   -1.9200   21.8260 C   0  0  0  0  0  0  0  0  0  0  0  0
    8.2190   -1.1830   22.5230 C   0  0  0  0  0  0  0  0  0  0  0  0
    6.0430   -2.9650   22.6900 C   0  0  0  0  0  0  0  0  0  0  0  0
    6.3110    0.5900   20.0750 C   0  0  0  0  0  0  0  0  0  0  0  0
    9.5030   -1.6440   22.1570 C   0  0  0  0  0  0  0  0  0  0  0  0
    7.9800   -0.8350   23.7840 C   0  0  0  0  0  0  0  0  0  0  0  0
    7.8100    1.9870   22.8740 N   0  0  0  0  0  0  0  0  0  0  0  0
    8.8860    1.3510   20.9950 O   0  0  0  0  0  0  0  0  0  0  0  0
    5.1390    1.5080   20.1880 C   0  0  0  0  0  0  0  0  0  0  0  0
    6.8390    0.1540   18.7480 C   0  0  0  0  0  0  0  0  0  0  0  0
   10.5220   -1.7300   23.1010 C   0  0  0  0  0  0  0  0  0  0  0  0
    8.9400   -0.8680   24.8830 C   0  0  0  0  0  0  0  0  0  0  0  0
    6.2970   -4.4090   22.1300 C   0  0  0  0  0  0  0  0  0  0  0  0
   11.9520   -2.1910   22.9070 C   0  0  0  0  0  0  0  0  0  0  0  0
    6.6640   -4.1710   20.6600 C   0  0  0  0  0  0  0  0  0  0  0  0
    6.2960    0.5830   17.6430 N   0  0  0  0  0  0  0  0  0  0  0  0
    4.5740    1.9500   18.8600 C   0  0  0  0  0  0  0  0  0  0  0  0
    8.5350    3.1940   23.1110 C   0  0  0  0  0  0  0  0  0  0  0  0
   10.1670   -1.3060   24.5090 C   0  0  0  0  0  0  0  0  0  0  0  0
    5.0310   -5.3140   22.1800 C   0  0  0  0  0  0  0  0  0  0  0  0
    7.4550   -4.9780   22.9950 C   0  0  0  0  0  0  0  0  0  0  0  0
   12.9810   -1.3970   23.7150 C   0  0  0  0  0  0  0  0  0  0  0  0
    5.7850   -4.3960   19.8360 O   0  0  0  0  0  0  0  0  0  0  0  0
    8.0520   -3.6090   20.3120 C   0  0  0  0  0  0  0  0  0  0  0  0
    5.1450    1.5040   17.6640 C   0  0  0  0  0  0  0  0  0  0  0  0
    9.8640    3.1420   23.5920 C   0  0  0  0  0  0  0  0  0  0  0  0
    7.8990    4.5370   22.8520 C   0  0  0  0  0  0  0  0  0  0  0  0
    5.1300   -6.2660   23.3710 C   0  0  0  0  0  0  0  0  0  0  0  0
    7.0210   -5.0070   24.4550 C   0  0  0  0  0  0  0  0  0  0  0  0
   13.7930   -2.2600   24.0710 O   0  0  0  0  0  0  0  0  0  0  0  0
   10.5560    1.8330   23.8670 C   0  0  0  0  0  0  0  0  0  0  0  0
   13.3150   -0.2710   22.7510 C   0  0  0  0  0  0  0  0  0  0  0  0
   12.5360   -0.8810   24.9490 C   0  0  0  0  0  0  0  0  0  0  0  0
   10.6320    4.4080   23.8480 C   0  0  0  0  0  0  0  0  0  0  0  0
    8.7910    5.7760   23.1600 C   0  0  0  0  0  0  0  0  0  0  0  0
    5.5960   -5.4090   24.4810 N   0  0  0  0  0  0  0  0  0  0  0  0
   13.3910   -3.0150   25.2240 C   0  0  0  0  0  0  0  0  0  0  0  0
    4.8050   -5.5630   25.9660 S   0  0  0  0  0  0  0  0  0  0  0  0
   10.1780    5.6440   23.6700 C   0  0  0  0  0  0  0  0  0  0  0  0
   10.8550    6.8100   23.9080 O   0  0  0  0  0  0  0  0  0  0  0  0
    4.2010   -6.8760   26.0360 O   0  0  0  0  0  0  0  0  0  0  0  0
    5.7200   -5.1320   26.9980 O   0  0  0  0  0  0  0  0  0  0  0  0
    3.4790   -4.3750   25.8710 C   0  0  0  0  0  0  0  0  0  0  0  0
   11.8480    6.7560   24.9300 C   0  0  0  0  0  0  0  0  0  0  0  0
    3.8080   -3.0280   25.9490 C   0  0  0  0  0  0  0  0  0  0  0  0
    2.1160   -4.6060   25.7290 C   0  0  0  0  0  0  0  0  0  0  0  0
    2.9130   -1.9660   25.9040 C   0  0  0  0  0  0  0  0  0  0  0  0
    1.1690   -3.5270   25.6800 C   0  0  0  0  0  0  0  0  0  0  0  0
    3.3340   -0.6820   25.9900 F   0  0  0  0  0  0  0  0  0  0  0  0
    1.5540   -2.2020   25.7690 C   0  0  0  0  0  0  0  0  0  0  0  0
  1  2  1  0
  2  3  1  6
  1  4  1  0
  1  5  1  0
  4  6  1  0
  2  7  1  0
  5  8  2  0
  5  9  1  0
  3 10  1  0
  3 11  2  0
  7 12  2  0
  7 13  1  0
  8 14  1  0
  9 15  2  0
  6 16  1  0
 14 17  1  0
 16 18  1  0
 13 19  2  0
 12 20  1  0
 10 21  1  0
 14 22  2  0
 15 22  1  0
 16 23  1  0
 16 24  1  0
 17 25  1  0
 18 26  2  0
 18 27  1  0
 19 28  1  0
 20 28  2  0
 21 29  2  0
 21 30  1  0
 23 31  1  0
 24 32  1  0
 25 33  1  0
 29 34  1  0
 25 35  1  0
 25 36  1  0
 29 37  1  0
 30 38  2  0
 31 39  1  0
 32 39  1  0
 33 40  1  0
 39 41  1  0
 37 42  2  0
 38 42  1  0
 42 43  1  0
 41 44  2  0
 41 45  2  0
 41 46  1  0
 43 47  1  0
 46 48  2  0
 46 49  1  0
 48 50  1  0
 49 51  2  0
 50 52  1  0
 50 53  2  0
 51 53  1  0
M  END
