x0691-x2193-x2705-x2643
     RDKit          3D

 56 61  0  0  0  0  0  0  0  0999 V2000
    7.5030   -1.1940   21.8130 N   0  0  0  0  0  0  0  0  0  0  0  0
    6.9200    0.1610   21.6860 C   0  0  1  0  0  0  0  0  0  0  0  0
    7.9600    1.2910   21.8320 C   0  0  0  0  0  0  0  0  0  0  0  0
    8.7400   -1.3830   22.6040 C   0  0  0  0  0  0  0  0  0  0  0  0
    6.3140    0.4100   20.3280 C   0  0  0  0  0  0  0  0  0  0  0  0
    9.0290   -1.9170   23.9610 N   0  0  0  0  0  0  0  0  0  0  0  0
   10.0740   -1.0220   22.0670 C   0  0  0  0  0  0  0  0  0  0  0  0
    7.6380    2.2040   22.7960 N   0  0  0  0  0  0  0  0  0  0  0  0
    8.9610    1.4010   21.1340 O   0  0  0  0  0  0  0  0  0  0  0  0
    5.1630    1.1680   20.2430 C   0  0  0  0  0  0  0  0  0  0  0  0
    6.9070   -0.0950   19.1690 C   0  0  0  0  0  0  0  0  0  0  0  0
   10.3500   -1.8820   24.2550 N   0  0  0  0  0  0  0  0  0  0  0  0
   10.9730   -1.3330   23.0630 C   0  0  0  0  0  0  0  0  0  0  0  0
    8.2110   -2.4700   25.0010 C   0  0  0  0  0  0  0  0  0  0  0  0
   12.4600   -1.1990   23.1040 C   0  0  0  0  0  0  0  0  0  0  0  0
    6.2990    0.2070   17.8870 N   0  0  0  0  0  0  0  0  0  0  0  0
    4.5420    1.4830   19.0820 C   0  0  0  0  0  0  0  0  0  0  0  0
    8.2310    3.4550   22.9400 C   0  0  0  0  0  0  0  0  0  0  0  0
    8.8850   -3.6980   25.5170 N   0  0  0  0  0  0  0  0  0  0  0  0
   12.7810    0.2750   23.4400 C   0  0  0  0  0  0  0  0  0  0  0  0
   13.0450   -2.1230   24.1810 C   0  0  0  0  0  0  0  0  0  0  0  0
   13.0420   -1.7010   21.7330 C   0  0  0  0  0  0  0  0  0  0  0  0
    5.1650    0.9670   17.8200 C   0  0  0  0  0  0  0  0  0  0  0  0
    9.5050    3.5520   23.5020 C   0  0  0  0  0  0  0  0  0  0  0  0
    7.5990    4.7830   22.5180 C   0  0  0  0  0  0  0  0  0  0  0  0
    8.6420   -4.0930   26.7860 C   0  0  0  0  0  0  0  0  0  0  0  0
    9.5470   -4.5540   24.7130 C   0  0  0  0  0  0  0  0  0  0  0  0
   10.1950    2.2850   23.9270 C   0  0  0  0  0  0  0  0  0  0  0  0
    6.2940    4.7770   21.9210 C   0  0  0  0  0  0  0  0  0  0  0  0
   10.1740    4.7600   23.6860 C   0  0  0  0  0  0  0  0  0  0  0  0
    8.3410    5.9510   22.7370 C   0  0  0  0  0  0  0  0  0  0  0  0
    8.0840   -5.3050   26.7470 C   0  0  1  0  0  0  0  0  0  0  0  0
    9.3000   -5.8600   24.8750 C   0  0  0  0  0  0  0  0  0  0  0  0
    9.3640    1.2560   24.7140 C   0  0  0  0  0  0  0  0  0  0  0  0
    9.6050    5.9870   23.3080 C   0  0  0  0  0  0  0  0  0  0  0  0
    6.8660   -5.2350   25.9110 C   0  0  0  0  0  0  0  0  0  0  0  0
    9.0440   -6.1490   26.3580 N   0  0  0  0  0  0  0  0  0  0  0  0
    5.6550   -5.4460   26.6650 N   0  0  0  0  0  0  0  0  0  0  0  0
    4.3620   -5.5730   25.5690 S   0  0  1  0  0  0  0  0  0  0  0  0
    3.7150   -6.8670   25.6400 O   0  0  0  0  0  0  0  0  0  0  0  0
    3.2070   -4.2360   25.7240 C   0  0  0  0  0  0  0  0  0  0  0  0
    5.0680   -5.4190   24.0640 N   0  0  0  0  0  0  0  0  0  0  0  0
    3.7170   -2.9720   25.8570 C   0  0  0  0  0  0  0  0  0  0  0  0
    1.8500   -4.5270   25.6980 C   0  0  0  0  0  0  0  0  0  0  0  0
    4.7060   -6.2700   22.9390 C   0  0  0  0  0  0  0  0  0  0  0  0
    5.4860   -4.1210   23.5500 C   0  0  0  0  0  0  0  0  0  0  0  0
    2.8360   -1.9300   25.9690 C   0  0  0  0  0  0  0  0  0  0  0  0
    0.9740   -3.5410   25.8050 C   0  0  0  0  0  0  0  0  0  0  0  0
    5.8500   -6.4190   21.9090 C   0  0  0  0  0  0  0  0  0  0  0  0
    6.7930   -4.3700   22.8010 C   0  0  0  0  0  0  0  0  0  0  0  0
    3.2910   -0.6750   26.0970 F   0  0  0  0  0  0  0  0  0  0  0  0
    1.4480   -2.0900   25.9590 C   0  0  0  0  0  0  0  0  0  0  0  0
    6.5460   -5.1520   21.6150 N   0  0  0  0  0  0  0  0  0  0  0  0
    6.3500   -4.4060   20.4600 C   0  0  0  0  0  0  0  0  0  0  0  0
    5.2740   -4.5310   19.8890 O   0  0  0  0  0  0  0  0  0  0  0  0
    7.4250   -3.4300   19.9190 C   0  0  0  0  0  0  0  0  0  0  0  0
  2  1  1  6
  2  3  1  0
  1  4  1  0
  2  5  1  0
  4  6  1  0
  4  7  2  0
  3  8  1  0
  3  9  2  0
  5 10  2  0
  5 11  1  0
  6 12  1  0
  7 13  1  0
 12 13  2  0
  6 14  1  0
 13 15  1  0
 11 16  2  0
 10 17  1  0
  8 18  1  0
 14 19  1  0
 15 20  1  0
 15 21  1  0
 15 22  1  0
 16 23  1  0
 17 23  2  0
 18 24  2  0
 18 25  1  0
 19 26  1  0
 19 27  1  0
 24 28  1  0
 25 29  1  0
 24 30  1  0
 25 31  2  0
 26 32  1  0
 27 33  1  0
 28 34  1  0
 30 35  2  0
 31 35  1  0
 32 36  1  6
 32 37  1  0
 33 37  1  0
 36 38  1  0
 38 39  2  0
 39 40  2  0
 39 41  1  1
 39 42  1  0
 41 43  2  0
 41 44  1  0
 42 45  1  0
 42 46  1  0
 43 47  1  0
 44 48  2  0
 45 49  1  0
 46 50  1  0
 47 51  1  0
 47 52  2  0
 48 52  1  0
 49 53  1  0
 50 53  1  0
 53 54  1  0
 54 55  2  0
 54 56  1  0
M  END
