x0692-x0104
     RDKit          3D

 26 28  0  0  0  0  0  0  0  0999 V2000
    9.0320    6.5280   22.6040 C   0  0  0  0  0  0  0  0  0  0  0  0
   10.2460    6.1600   23.4210 C   0  0  0  0  0  0  0  0  0  0  0  0
   10.3100    6.2460   24.6450 O   0  0  0  0  0  0  0  0  0  0  0  0
   11.3210    5.7000   22.7060 N   0  0  0  0  0  0  0  0  0  0  0  0
   12.4560    5.0390   23.3820 C   0  0  0  0  0  0  0  0  0  0  0  0
   12.7500    3.7030   22.7130 C   0  0  0  0  0  0  0  0  0  0  0  0
   11.8430    2.5330   23.0950 C   0  0  0  0  0  0  0  0  0  0  0  0
   10.4910    2.7690   23.8230 C   0  0  0  0  0  0  0  0  0  0  0  0
   11.8890    0.9870   23.0050 C   0  0  0  0  0  0  0  0  0  0  0  0
    9.6360    1.5820   24.1320 N   0  0  0  0  0  0  0  0  0  0  0  0
   10.4230    0.7050   23.4290 C   0  0  2  0  0  0  0  0  0  0  0  0
   12.9830    0.1060   22.4980 C   0  0  0  0  0  0  0  0  0  0  0  0
   10.4290   -0.8920   23.5480 C   0  0  0  0  0  0  0  0  0  0  0  0
   12.7790   -1.3720   22.5240 C   0  0  0  0  0  0  0  0  0  0  0  0
   13.6240   -2.2520   22.0700 F   0  0  0  0  0  0  0  0  0  0  0  0
    9.1530   -1.5380   24.0900 C   0  0  0  0  0  0  0  0  0  0  0  0
   11.5240   -1.8640   23.1150 C   0  0  0  0  0  0  0  0  0  0  0  0
    8.2160   -1.8260   23.0790 N   0  0  0  0  0  0  0  0  0  0  0  0
    8.3990   -1.4160   21.6870 C   0  0  0  0  0  0  0  0  0  0  0  0
    7.4240   -3.0710   23.1670 C   0  0  0  0  0  0  0  0  0  0  0  0
    7.1690   -1.2420   21.0640 C   0  0  0  0  0  0  0  0  0  0  0  0
    6.2200   -3.0520   22.4250 C   0  0  0  0  0  0  0  0  0  0  0  0
    6.3100   -2.4510   21.0630 N   0  0  0  0  0  0  0  0  0  0  0  0
    6.2270   -3.2450   19.9040 C   0  0  0  0  0  0  0  0  0  0  0  0
    5.3790   -4.1340   19.7410 O   0  0  0  0  0  0  0  0  0  0  0  0
    7.2650   -3.0090   18.8180 C   0  0  0  0  0  0  0  0  0  0  0  0
  1  2  1  0
  2  3  2  0
  2  4  1  0
  4  5  1  0
  5  6  1  0
  6  7  1  0
  7  8  1  0
  7  9  2  0
  8 10  2  0
  9 11  1  0
 11 10  1  1
  9 12  1  0
 11 13  1  0
 12 14  2  0
 14 15  1  0
 13 16  1  0
 13 17  2  0
 14 17  1  0
 16 18  1  0
 18 19  1  0
 18 20  1  0
 19 21  1  0
 20 22  1  0
 21 23  1  0
 22 23  1  0
 23 24  1  0
 24 25  2  0
 24 26  1  0
M  END
