x0691-x0978-x2649-x2694
     RDKit          3D

 60 64  0  0  0  0  0  0  0  0999 V2000
    7.4560   -0.9890   21.8090 N   0  0  0  0  0  0  0  0  0  0  0  0
    7.0130    0.4110   21.6700 C   0  0  1  0  0  0  0  0  0  0  0  0
    8.0960    1.5040   21.7930 C   0  0  0  0  0  0  0  0  0  0  0  0
    6.2860   -1.9140   21.6750 C   0  0  0  0  0  0  0  0  0  0  0  0
    8.6610   -1.2270   22.6850 C   0  0  0  0  0  0  0  0  0  0  0  0
    6.1670   -3.0730   22.6760 C   0  0  0  0  0  0  0  0  0  0  0  0
    6.2560    0.6920   20.3950 C   0  0  0  0  0  0  0  0  0  0  0  0
    8.6290   -1.5050   24.0090 N   0  0  0  0  0  0  0  0  0  0  0  0
    9.9210   -1.1730   22.2550 C   0  0  0  0  0  0  0  0  0  0  0  0
    7.7840    2.4890   22.7090 N   0  0  0  0  0  0  0  0  0  0  0  0
    9.1150    1.5270   21.1320 O   0  0  0  0  0  0  0  0  0  0  0  0
    5.0420    1.3450   20.2150 C   0  0  0  0  0  0  0  0  0  0  0  0
    6.8640    0.2510   19.2710 C   0  0  0  0  0  0  0  0  0  0  0  0
    9.9810   -1.6140   24.3730 O   0  0  0  0  0  0  0  0  0  0  0  0
   10.7630   -1.4000   23.2650 C   0  0  0  0  0  0  0  0  0  0  0  0
    6.3440   -4.5570   22.1370 C   0  0  2  0  0  0  0  0  0  0  0  0
   12.2780   -1.4190   23.2770 C   0  0  0  0  0  0  0  0  0  0  0  0
    4.3120    1.8410   21.4230 C   0  0  0  0  0  0  0  0  0  0  0  0
    6.7850   -4.2900   20.7010 C   0  0  0  0  0  0  0  0  0  0  0  0
    6.4740    0.3680   17.9990 N   0  0  0  0  0  0  0  0  0  0  0  0
    4.5280    1.5330   18.9440 C   0  0  0  0  0  0  0  0  0  0  0  0
    8.6160    3.6590   23.0170 C   0  0  0  0  0  0  0  0  0  0  0  0
    5.1960   -5.5610   22.1340 C   0  0  0  0  0  0  0  0  0  0  0  0
    7.3860   -5.1450   23.0750 C   0  0  0  0  0  0  0  0  0  0  0  0
   12.7630    0.0090   23.5570 C   0  0  0  0  0  0  0  0  0  0  0  0
   12.8500   -1.8140   21.9100 C   0  0  0  0  0  0  0  0  0  0  0  0
   12.8400   -2.3560   24.3690 C   0  0  0  0  0  0  0  0  0  0  0  0
    5.8960   -4.4680   19.8690 O   0  0  0  0  0  0  0  0  0  0  0  0
    8.1980   -3.7720   20.4110 C   0  0  0  0  0  0  0  0  0  0  0  0
    5.2000    1.0760   17.8260 C   0  0  0  0  0  0  0  0  0  0  0  0
    9.8370    3.4340   23.6360 C   0  0  0  0  0  0  0  0  0  0  0  0
    8.2540    4.9300   22.7280 C   0  0  0  0  0  0  0  0  0  0  0  0
    4.4130   -5.5150   23.2830 C   0  0  2  0  0  0  0  0  0  0  0  0
    6.8390   -5.1930   24.3010 C   0  0  0  0  0  0  0  0  0  0  0  0
   10.3130    2.0490   23.9960 C   0  0  0  0  0  0  0  0  0  0  0  0
    3.0750   -6.4330   23.3100 C   0  0  2  0  0  0  0  0  0  0  0  0
    3.8920   -4.2160   23.3610 O   0  0  0  0  0  0  0  0  0  0  0  0
   10.7370    4.5850   23.9740 C   0  0  0  0  0  0  0  0  0  0  0  0
    9.0640    5.9650   23.0440 C   0  0  0  0  0  0  0  0  0  0  0  0
    5.3690   -5.6000   24.4570 N   0  0  0  0  0  0  0  0  0  0  0  0
    2.0350   -5.5700   23.1650 N   0  0  0  0  0  0  0  0  0  0  0  0
    3.1130   -7.3620   24.3200 C   0  0  1  0  0  0  0  0  0  0  0  0
    4.8030   -5.3440   26.0580 S   0  0  0  0  0  0  0  0  0  0  0  0
   10.2530    5.7870   23.6440 C   0  0  0  0  0  0  0  0  0  0  0  0
   10.9360    6.9390   23.8980 O   0  0  0  0  0  0  0  0  0  0  0  0
    1.9600   -8.3500   24.3310 C   0  0  0  0  0  0  0  0  0  0  0  0
    4.3480   -8.0440   24.3760 O   0  0  0  0  0  0  0  0  0  0  0  0
    0.9240   -6.1330   22.6220 C   0  0  0  0  0  0  0  0  0  0  0  0
    4.3430   -6.7540   26.6550 O   0  0  0  0  0  0  0  0  0  0  0  0
    5.8240   -4.7160   26.8450 O   0  0  0  0  0  0  0  0  0  0  0  0
    3.5440   -4.2370   25.9660 C   0  0  0  0  0  0  0  0  0  0  0  0
   11.8830    6.8820   24.9810 C   0  0  0  0  0  0  0  0  0  0  0  0
    0.9410   -7.3670   21.9240 O   0  0  0  0  0  0  0  0  0  0  0  0
   -0.3110   -5.4790   22.7260 C   0  0  0  0  0  0  0  0  0  0  0  0
    3.8800   -2.7530   25.9440 C   0  0  0  0  0  0  0  0  0  0  0  0
    2.0700   -4.6920   25.9060 C   0  0  0  0  0  0  0  0  0  0  0  0
    2.9050   -1.8150   25.8740 C   0  0  0  0  0  0  0  0  0  0  0  0
    1.0110   -3.6010   25.8250 C   0  0  0  0  0  0  0  0  0  0  0  0
    3.2680   -0.5190   25.8630 F   0  0  0  0  0  0  0  0  0  0  0  0
    1.5170   -2.1520   25.8150 C   0  0  0  0  0  0  0  0  0  0  0  0
  1  2  1  0
  2  3  1  6
  1  4  1  0
  1  5  1  0
  4  6  1  0
  2  7  1  0
  5  8  2  0
  5  9  1  0
  3 10  1  0
  3 11  2  0
  7 12  2  0
  7 13  1  0
  8 14  1  0
  9 15  2  0
 14 15  1  0
 16  6  1  1
 15 17  1  0
 12 18  1  0
 16 19  1  0
 13 20  2  0
 12 21  1  0
 10 22  1  0
 16 23  1  0
 16 24  1  0
 17 25  1  0
 17 26  1  0
 17 27  1  0
 19 28  2  0
 19 29  1  0
 20 30  1  0
 21 30  2  0
 22 31  2  0
 22 32  1  0
 23 33  1  0
 24 34  1  0
 31 35  1  0
 33 36  1  0
 33 37  1  1
 31 38  1  0
 32 39  2  0
 33 40  1  0
 34 40  1  0
 36 41  1  1
 36 42  1  0
 40 43  1  0
 38 44  2  0
 39 44  1  0
 44 45  1  0
 42 46  1  6
 42 47  1  0
 41 48  1  0
 43 49  2  0
 43 50  2  0
 43 51  1  0
 45 52  1  0
 48 53  2  0
 48 54  1  0
 51 55  2  0
 51 56  1  0
 55 57  1  0
 56 58  2  0
 57 59  1  0
 57 60  2  0
 58 60  1  0
M  END
