x0691-x3117
     RDKit          3D

 48 52  0  0  0  0  0  0  0  0999 V2000
    7.0600   -1.2100   22.1340 N   0  0  0  0  0  0  0  0  0  0  0  0
    6.8640    0.2350   21.7130 C   0  0  1  0  0  0  0  0  0  0  0  0
    8.0200    1.2380   21.9610 C   0  0  0  0  0  0  0  0  0  0  0  0
    6.1090   -1.9610   22.9100 C   0  0  0  0  0  0  0  0  0  0  0  0
    8.4220   -1.3650   22.6930 C   0  0  0  0  0  0  0  0  0  0  0  0
    5.4010   -3.1290   22.5000 C   0  0  0  0  0  0  0  0  0  0  0  0
    6.2280    0.4830   20.3590 C   0  0  0  0  0  0  0  0  0  0  0  0
    9.4460   -1.7150   21.8470 C   0  0  0  0  0  0  0  0  0  0  0  0
    8.6830   -1.1610   24.0510 C   0  0  0  0  0  0  0  0  0  0  0  0
    7.8790    1.9420   23.1560 N   0  0  0  0  0  0  0  0  0  0  0  0
    8.9490    1.4390   21.1770 O   0  0  0  0  0  0  0  0  0  0  0  0
    5.0500    1.3060   20.4070 C   0  0  0  0  0  0  0  0  0  0  0  0
    6.8550   -0.0910   19.2380 C   0  0  0  0  0  0  0  0  0  0  0  0
   10.7190   -1.8610   22.3390 C   0  0  0  0  0  0  0  0  0  0  0  0
    9.9600   -1.3030   24.5340 C   0  0  0  0  0  0  0  0  0  0  0  0
    6.1940   -4.4210   22.0750 C   0  0  0  0  0  0  0  0  0  0  0  0
    6.6030   -4.1980   20.6290 C   0  0  0  0  0  0  0  0  0  0  0  0
    6.3240    0.1300   17.9080 N   0  0  0  0  0  0  0  0  0  0  0  0
    4.5500    1.4940   18.9710 C   0  0  0  0  0  0  0  0  0  0  0  0
    8.6890    3.0520   23.5370 C   0  0  0  0  0  0  0  0  0  0  0  0
   11.0020   -1.6550   23.6880 C   0  0  0  0  0  0  0  0  0  0  0  0
    5.4490   -5.5510   22.0440 C   0  0  0  0  0  0  0  0  0  0  0  0
    7.3940   -4.6580   22.9990 C   0  0  0  0  0  0  0  0  0  0  0  0
   12.3970   -1.7910   24.2070 C   0  0  0  0  0  0  0  0  0  0  0  0
    5.7190   -4.4030   19.8250 O   0  0  0  0  0  0  0  0  0  0  0  0
    8.0270   -3.6860   20.3680 C   0  0  0  0  0  0  0  0  0  0  0  0
    5.1580    0.9490   17.8760 C   0  0  0  0  0  0  0  0  0  0  0  0
   10.0720    2.9400   23.6410 C   0  0  0  0  0  0  0  0  0  0  0  0
    8.1810    4.1550   22.8300 C   0  0  0  0  0  0  0  0  0  0  0  0
    5.0320   -6.1740   23.1770 C   0  0  0  0  0  0  0  0  0  0  0  0
    6.8950   -4.8980   24.4000 C   0  0  0  0  0  0  0  0  0  0  0  0
   12.6370   -0.5850   25.0710 C   0  0  0  0  0  0  0  0  0  0  0  0
   13.3900   -1.7590   23.0460 C   0  0  0  0  0  0  0  0  0  0  0  0
   12.7670   -3.0240   25.0210 C   0  0  0  0  0  0  0  0  0  0  0  0
   10.7080    4.1830   23.6540 C   0  0  0  0  0  0  0  0  0  0  0  0
    8.7100    5.3930   23.2220 C   0  0  0  0  0  0  0  0  0  0  0  0
    5.4820   -5.3380   24.3350 N   0  0  0  0  0  0  0  0  0  0  0  0
    4.6700   -5.5470   25.8140 S   0  0  0  0  0  0  0  0  0  0  0  0
    9.8420    5.2350   24.0780 O   0  0  0  0  0  0  0  0  0  0  0  0
    4.0320   -6.8370   25.6980 O   0  0  0  0  0  0  0  0  0  0  0  0
    5.5830   -5.2300   26.8840 O   0  0  0  0  0  0  0  0  0  0  0  0
    3.4330   -4.2730   25.7940 C   0  0  0  0  0  0  0  0  0  0  0  0
    3.7930   -2.9590   25.8990 C   0  0  0  0  0  0  0  0  0  0  0  0
    2.0780   -4.5620   25.6760 C   0  0  0  0  0  0  0  0  0  0  0  0
    2.8750   -1.9260   25.8950 C   0  0  0  0  0  0  0  0  0  0  0  0
    1.1080   -3.6200   25.6630 C   0  0  0  0  0  0  0  0  0  0  0  0
    3.2610   -0.6440   26.0020 F   0  0  0  0  0  0  0  0  0  0  0  0
    1.5380   -2.2760   25.7790 C   0  0  0  0  0  0  0  0  0  0  0  0
  1  2  1  0
  2  3  1  6
  1  4  1  0
  1  5  1  0
  4  6  1  0
  2  7  1  0
  5  8  2  0
  5  9  1  0
  3 10  1  0
  3 11  2  0
  7 12  2  0
  7 13  1  0
  8 14  1  0
  9 15  2  0
  6 16  1  0
 16 17  1  0
 13 18  2  0
 12 19  1  0
 10 20  1  0
 14 21  2  0
 15 21  1  0
 16 22  1  0
 16 23  1  0
 21 24  1  0
 17 25  2  0
 17 26  1  0
 18 27  1  0
 19 27  2  0
 20 28  1  0
 20 29  1  0
 22 30  1  0
 23 31  1  0
 24 32  1  0
 24 33  1  0
 24 34  1  0
 28 35  1  0
 29 36  1  0
 30 37  1  0
 31 37  1  0
 37 38  1  0
 35 39  1  0
 36 39  1  0
 38 40  2  0
 38 41  2  0
 38 42  1  0
 42 43  2  0
 42 44  1  0
 43 45  1  0
 44 46  2  0
 45 47  1  0
 45 48  2  0
 46 48  1  0
M  END
