x0691-x2649
     RDKit          3D

 40 43  0  0  0  0  0  0  0  0999 V2000
    4.0040   -6.8070   25.8150 O   0  0  0  0  0  0  0  0  0  0  0  0
    4.6350   -5.5100   25.7380 S   0  0  0  0  0  0  0  0  0  0  0  0
    5.6440   -5.0970   26.6910 O   0  0  0  0  0  0  0  0  0  0  0  0
    3.3570   -4.2690   25.7670 C   0  0  0  0  0  0  0  0  0  0  0  0
    5.2520   -5.3070   24.1760 N   0  0  0  0  0  0  0  0  0  0  0  0
    3.8530   -2.8590   25.9790 C   0  0  0  0  0  0  0  0  0  0  0  0
    1.9980   -4.7550   25.5800 C   0  0  0  0  0  0  0  0  0  0  0  0
    4.6210   -5.8690   23.1240 C   0  0  0  0  0  0  0  0  0  0  0  0
    6.4880   -4.6520   23.9660 C   0  0  2  0  0  0  0  0  0  0  0  0
    6.2900   -3.2330   23.9400 C   0  0  0  0  0  0  0  0  0  0  0  0
    2.7930   -1.8730   25.9920 C   0  0  0  0  0  0  0  0  0  0  0  0
    1.2080   -3.5550   25.6460 C   0  0  0  0  0  0  0  0  0  0  0  0
    5.4840   -6.4400   22.0320 C   0  0  0  0  0  0  0  0  0  0  0  0
    7.1700   -5.1780   22.8860 C   0  0  0  0  0  0  0  0  0  0  0  0
    3.1520   -0.5980   26.1700 F   0  0  0  0  0  0  0  0  0  0  0  0
    7.5140   -2.6390   24.6360 C   0  0  0  0  0  0  0  0  0  0  0  0
    1.3730   -2.1510   25.8260 C   0  0  0  0  0  0  0  0  0  0  0  0
    6.3480   -5.3380   21.8510 N   0  0  0  0  0  0  0  0  0  0  0  0
    6.3520   -4.5650   20.7070 C   0  0  0  0  0  0  0  0  0  0  0  0
    7.9730   -1.3440   24.1180 C   0  0  0  0  0  0  0  0  0  0  0  0
    5.3790   -4.6010   19.9470 O   0  0  0  0  0  0  0  0  0  0  0  0
    7.5910   -3.7100   20.4400 C   0  0  0  0  0  0  0  0  0  0  0  0
    8.6140   -1.2270   22.8280 C   0  0  1  0  0  0  0  0  0  0  0  0
    8.0060   -0.3860   21.7240 C   0  0  0  0  0  0  0  0  0  0  0  0
   10.0750   -0.8980   22.8870 C   0  0  0  0  0  0  0  0  0  0  0  0
    6.8240   -0.6560   21.0890 N   0  0  0  0  0  0  0  0  0  0  0  0
    8.6580    0.6100   21.4200 O   0  0  0  0  0  0  0  0  0  0  0  0
   10.6110    0.1380   23.6930 C   0  0  0  0  0  0  0  0  0  0  0  0
   10.8540   -1.6440   22.1070 C   0  0  0  0  0  0  0  0  0  0  0  0
    6.2550    0.1180   19.9940 C   0  0  0  0  0  0  0  0  0  0  0  0
   12.0650    0.6200   23.8560 C   0  0  0  0  0  0  0  0  0  0  0  0
   12.2800   -1.3460   22.1160 C   0  0  0  0  0  0  0  0  0  0  0  0
   13.2540   -2.2820   21.1190 Cl  0  0  0  0  0  0  0  0  0  0  0  0
    5.2360    1.0080   20.3220 C   0  0  0  0  0  0  0  0  0  0  0  0
    6.7530   -0.0450   18.6120 C   0  0  0  0  0  0  0  0  0  0  0  0
   12.7970   -0.3280   22.9080 C   0  0  0  0  0  0  0  0  0  0  0  0
    4.7220    1.1900   21.7250 C   0  0  0  0  0  0  0  0  0  0  0  0
    6.2320    0.7020   17.4660 N   0  0  0  0  0  0  0  0  0  0  0  0
    4.6680    1.7970   19.1700 C   0  0  0  0  0  0  0  0  0  0  0  0
    5.1550    1.6530   17.7550 C   0  0  0  0  0  0  0  0  0  0  0  0
  1  2  2  0
  2  3  2  0
  2  4  1  0
  2  5  1  0
  4  6  2  0
  4  7  1  0
  5  8  1  0
  5  9  1  0
  9 10  1  6
  6 11  1  0
  7 12  2  0
  8 13  1  0
  9 14  1  0
 11 15  1  0
 10 16  1  0
 11 17  2  0
 12 17  1  0
 13 18  1  0
 14 18  1  0
 18 19  1  0
 16 20  1  0
 19 21  2  0
 19 22  1  0
 23 20  1  1
 23 24  1  0
 23 25  1  0
 24 26  1  0
 24 27  2  0
 25 28  2  0
 25 29  1  0
 26 30  1  0
 28 31  1  0
 29 32  2  0
 32 33  1  0
 30 34  2  0
 30 35  1  0
 31 36  2  0
 32 36  1  0
 34 37  1  0
 35 38  2  0
 34 39  1  0
 38 40  1  0
 39 40  2  0
M  END
