x0691-x1093-x0354
     RDKit          3D

 56 62  0  0  0  0  0  0  0  0999 V2000
    4.1270   -6.5790   26.0320 O   0  0  0  0  0  0  0  0  0  0  0  0
    4.5910   -5.2510   25.6920 S   0  0  2  0  0  0  0  0  0  0  0  0
    5.7840   -4.6970   26.7320 N   0  0  0  0  0  0  0  0  0  0  0  0
    3.2620   -4.1580   25.7050 C   0  0  0  0  0  0  0  0  0  0  0  0
    5.2570   -5.3770   24.1400 N   0  0  0  0  0  0  0  0  0  0  0  0
    5.9540   -3.2930   26.9720 C   0  0  0  0  0  0  0  0  0  0  0  0
    3.3960   -2.7840   25.8580 C   0  0  0  0  0  0  0  0  0  0  0  0
    1.9960   -4.7290   25.5580 C   0  0  0  0  0  0  0  0  0  0  0  0
    4.5680   -5.7580   23.0390 C   0  0  0  0  0  0  0  0  0  0  0  0
    6.3200   -4.6140   23.8590 C   0  0  0  0  0  0  0  0  0  0  0  0
    6.3320   -2.4140   25.9080 C   0  0  0  0  0  0  0  0  0  0  0  0
    2.3910   -1.8730   25.8890 C   0  0  0  0  0  0  0  0  0  0  0  0
    0.7690   -3.7880   25.5780 C   0  0  0  0  0  0  0  0  0  0  0  0
    5.5510   -6.3290   22.1560 C   0  0  0  0  0  0  0  0  0  0  0  0
    7.1860   -5.0630   22.8920 C   0  0  0  0  0  0  0  0  0  0  0  0
    2.6850   -0.5760   26.0470 F   0  0  0  0  0  0  0  0  0  0  0  0
    7.5570   -2.3730   25.3110 N   0  0  0  0  0  0  0  0  0  0  0  0
    1.0690   -2.3000   25.7600 C   0  0  0  0  0  0  0  0  0  0  0  0
    6.4610   -5.3950   21.8020 N   0  0  0  0  0  0  0  0  0  0  0  0
    6.2550   -4.6280   20.6250 C   0  0  0  0  0  0  0  0  0  0  0  0
    8.4620   -1.3070   25.4900 C   0  0  0  0  0  0  0  0  0  0  0  0
    5.2510   -4.7850   19.9490 O   0  0  0  0  0  0  0  0  0  0  0  0
    7.3200   -3.5810   20.2450 C   0  0  0  0  0  0  0  0  0  0  0  0
    8.0240   -0.1330   26.4380 C   0  0  0  0  0  0  0  0  0  0  0  0
    9.6810   -1.2590   24.9010 N   0  0  0  0  0  0  0  0  0  0  0  0
    7.5050   -0.5290   27.4950 O   0  0  0  0  0  0  0  0  0  0  0  0
   10.1890   -2.2970   24.2400 C   0  0  0  0  0  0  0  0  0  0  0  0
   10.6220   -0.5210   25.4590 C   0  0  0  0  0  0  0  0  0  0  0  0
   11.0730   -2.0200   23.2790 C   0  0  2  0  0  0  0  0  0  0  0  0
   11.9000   -0.9220   25.1060 C   0  0  0  0  0  0  0  0  0  0  0  0
    7.0550    0.4950   28.3040 C   0  0  0  0  0  0  0  0  0  0  0  0
   12.0020   -1.0670   23.7370 C   0  0  1  0  0  0  0  0  0  0  0  0
    7.6770    1.7430   28.3430 C   0  0  0  0  0  0  0  0  0  0  0  0
    5.9350    0.2980   29.1280 C   0  0  0  0  0  0  0  0  0  0  0  0
   10.3320   -1.4850   22.0970 C   0  0  0  0  0  0  0  0  0  0  0  0
   13.3570   -1.4680   23.4230 C   0  0  0  0  0  0  0  0  0  0  0  0
    7.1660    2.7190   29.1870 C   0  0  0  0  0  0  0  0  0  0  0  0
    5.4310    1.2940   29.9720 C   0  0  0  0  0  0  0  0  0  0  0  0
   11.9410    0.3380   23.0750 C   0  0  0  0  0  0  0  0  0  0  0  0
    9.7680   -0.1420   22.3560 N   0  0  0  0  0  0  0  0  0  0  0  0
   13.7550   -2.6720   24.0920 C   0  0  0  0  0  0  0  0  0  0  0  0
    8.7990    0.4640   21.5090 C   0  0  0  0  0  0  0  0  0  0  0  0
    6.0590    2.5310   30.0040 C   0  0  0  0  0  0  0  0  0  0  0  0
   10.6490    0.8340   22.9820 C   0  0  0  0  0  0  0  0  0  0  0  0
    5.6440    3.7170   30.8590 C   0  0  0  0  0  0  0  0  0  0  0  0
    8.6810    1.7800   21.1420 O   0  0  0  0  0  0  0  0  0  0  0  0
    8.0490   -0.6510   21.1560 C   0  0  0  0  0  0  0  0  0  0  0  0
    7.1560   -0.2420   20.0860 C   0  0  0  0  0  0  0  0  0  0  0  0
    7.2320   -0.4830   18.6370 C   0  0  0  0  0  0  0  0  0  0  0  0
    5.9230    0.5600   20.2000 C   0  0  0  0  0  0  0  0  0  0  0  0
    6.2220    0.0930   18.0020 N   0  0  0  0  0  0  0  0  0  0  0  0
    5.3830    0.7490   18.8890 C   0  0  0  0  0  0  0  0  0  0  0  0
    5.1110    1.2200   21.3420 C   0  0  0  0  0  0  0  0  0  0  0  0
    4.2880    1.4080   18.4610 N   0  0  0  0  0  0  0  0  0  0  0  0
    3.9780    1.9040   20.9770 C   0  0  0  0  0  0  0  0  0  0  0  0
    3.5140    2.0340   19.5350 C   0  0  0  0  0  0  0  0  0  0  0  0
  1  2  2  0
  2  3  2  0
  2  4  1  6
  2  5  1  0
  3  6  1  0
  4  7  2  0
  4  8  1  0
  5  9  1  0
  5 10  1  0
  6 11  1  0
  7 12  1  0
  8 13  2  0
  9 14  1  0
 10 15  1  0
 12 16  1  0
 11 17  1  0
 12 18  2  0
 13 18  1  0
 14 19  1  0
 15 19  1  0
 19 20  1  0
 17 21  2  3
 20 22  2  0
 20 23  1  0
 21 24  1  0
 21 25  1  0
 24 26  1  0
 25 27  1  0
 25 28  1  0
 29 27  1  1
 28 30  1  0
 26 31  1  0
 29 32  1  0
 30 32  1  0
 31 33  2  0
 31 34  1  0
 29 35  1  0
 32 36  1  1
 33 37  1  0
 34 38  2  0
 32 39  1  0
 35 40  1  0
 36 41  1  0
 40 42  1  0
 37 43  2  0
 38 43  1  0
 39 44  1  0
 40 44  1  0
 43 45  1  0
 42 46  2  0
 42 47  1  0
 47 48  1  0
 48 49  2  0
 48 50  1  0
 49 51  1  0
 50 52  2  0
 51 52  1  0
 50 53  1  0
 52 54  1  0
 53 55  2  0
 54 56  2  0
 55 56  1  0
M  END
