x0692-x3108
     RDKit          3D

 37 42  0  0  0  0  0  0  0  0999 V2000
    5.6830    1.4460   22.1010 C   0  0  0  0  0  0  0  0  0  0  0  0
    5.9350    1.0810   20.6420 C   0  0  0  0  0  0  0  0  0  0  0  0
    7.0150    0.1090   20.4270 C   0  0  0  0  0  0  0  0  0  0  0  0
    5.1420    1.6770   19.6560 C   0  0  0  0  0  0  0  0  0  0  0  0
    7.7020   -0.4120   21.4280 N   0  0  0  0  0  0  0  0  0  0  0  0
    7.1440   -0.1330   19.0480 C   0  0  0  0  0  0  0  0  0  0  0  0
    5.3450    1.3680   18.3290 C   0  0  0  0  0  0  0  0  0  0  0  0
    8.8060    0.3340   21.8600 C   0  0  0  0  0  0  0  0  0  0  0  0
    6.3700    0.4380   17.9330 N   0  0  0  0  0  0  0  0  0  0  0  0
    7.5670   -1.8390   21.5200 C   0  0  2  0  0  0  0  0  0  0  0  0
    9.1430    1.4610   21.4320 O   0  0  0  0  0  0  0  0  0  0  0  0
    9.5990   -0.4370   22.9220 C   0  0  2  0  0  0  0  0  0  0  0  0
    6.3910   -2.3820   20.9840 N   0  0  0  0  0  0  0  0  0  0  0  0
    7.4520   -2.3640   22.8070 N   0  0  0  0  0  0  0  0  0  0  0  0
    8.9730   -0.9530   24.2000 C   0  0  2  0  0  0  0  0  0  0  0  0
    7.9840   -2.0580   24.0510 C   0  0  2  0  0  0  0  0  0  0  0  0
    6.3970   -3.2250   19.8530 C   0  0  0  0  0  0  0  0  0  0  0  0
   10.6480    0.3630   23.6190 C   0  0  2  0  0  0  0  0  0  0  0  0
    6.4100   -3.2650   22.7910 C   0  0  0  0  0  0  0  0  0  0  0  0
    5.5250   -2.6420   21.9740 C   0  0  0  0  0  0  0  0  0  0  0  0
    8.5760    0.0290   24.8740 O   0  0  0  0  0  0  0  0  0  0  0  0
    5.5440   -4.1230   19.7420 O   0  0  0  0  0  0  0  0  0  0  0  0
    7.4610   -3.0370   18.7910 C   0  0  0  0  0  0  0  0  0  0  0  0
    8.4160   -3.3800   24.6680 C   0  0  0  0  0  0  0  0  0  0  0  0
   10.1890   -1.4990   24.8500 C   0  0  2  0  0  0  0  0  0  0  0  0
   11.8400    0.4070   22.9460 C   0  0  2  0  0  0  0  0  0  0  0  0
   10.8630   -0.3030   24.9920 C   0  0  0  0  0  0  0  0  0  0  0  0
    9.0060   -4.5170   23.8310 C   0  0  0  0  0  0  0  0  0  0  0  0
    8.3150   -3.7080   26.1540 C   0  0  0  0  0  0  0  0  0  0  0  0
   10.9700   -2.3450   24.0520 C   0  0  0  0  0  0  0  0  0  0  0  0
   12.7660   -0.5970   23.1890 C   0  0  0  0  0  0  0  0  0  0  0  0
   12.4930    1.5600   23.2720 C   0  0  0  0  0  0  0  0  0  0  0  0
    9.4040   -5.7260   24.5480 N   0  0  0  0  0  0  0  0  0  0  0  0
    8.7140   -4.8790   26.7710 C   0  0  0  0  0  0  0  0  0  0  0  0
   12.1160   -2.0170   23.2910 C   0  0  0  0  0  0  0  0  0  0  0  0
   11.8170    2.7250   22.9120 C   0  0  0  0  0  0  0  0  0  0  0  0
    9.2640   -5.8990   26.0180 C   0  0  0  0  0  0  0  0  0  0  0  0
  1  2  1  0
  2  3  2  0
  2  4  1  0
  3  5  1  0
  3  6  1  0
  4  7  2  0
  5  8  1  0
  6  9  2  0
  7  9  1  0
 10  5  1  1
  8 11  2  0
 12  8  1  1
 10 13  1  0
 10 14  1  0
 12 15  1  0
 14 16  1  0
 15 16  1  0
 13 17  1  0
 12 18  1  0
 14 19  1  0
 13 20  1  0
 19 20  1  0
 15 21  1  1
 17 22  2  0
 17 23  1  0
 16 24  1  6
 15 25  1  0
 18 26  1  0
 18 27  1  1
 25 27  1  0
 24 28  2  0
 24 29  1  0
 25 30  1  6
 26 31  1  0
 26 32  1  1
 28 33  1  0
 29 34  2  0
 30 35  2  0
 31 35  1  0
 32 36  1  0
 33 37  2  0
 34 37  1  0
M  END
