x0691-x2540
     RDKit          3D

 45 48  0  0  0  0  0  0  0  0999 V2000
    7.3390   -0.9350   22.2910 N   0  0  0  0  0  0  0  0  0  0  0  0
    6.9940    0.3580   21.8210 C   0  0  1  0  0  0  0  0  0  0  0  0
    8.1310    1.4010   21.9860 C   0  0  0  0  0  0  0  0  0  0  0  0
    6.3060   -1.8360   22.9770 C   0  0  0  0  0  0  0  0  0  0  0  0
    8.6520   -1.1200   22.8300 C   0  0  0  0  0  0  0  0  0  0  0  0
    5.5810   -2.8130   22.2490 C   0  0  0  0  0  0  0  0  0  0  0  0
    6.4210    0.4880   20.3640 C   0  0  0  0  0  0  0  0  0  0  0  0
    8.7540   -1.4130   24.1180 N   0  0  0  0  0  0  0  0  0  0  0  0
    9.9120   -0.9840   21.9910 C   0  0  0  0  0  0  0  0  0  0  0  0
    8.2180    1.9210   23.2880 N   0  0  0  0  0  0  0  0  0  0  0  0
    8.8590    1.7860   21.0750 O   0  0  0  0  0  0  0  0  0  0  0  0
    5.2240    1.4360   20.3160 C   0  0  0  0  0  0  0  0  0  0  0  0
    6.9170   -0.1760   19.0810 C   0  0  0  0  0  0  0  0  0  0  0  0
   10.0750   -1.4890   24.3040 O   0  0  0  0  0  0  0  0  0  0  0  0
   10.7350   -1.2570   23.1440 C   0  0  0  0  0  0  0  0  0  0  0  0
    6.1530   -4.1720   22.0520 C   0  0  0  0  0  0  0  0  0  0  0  0
    8.9880    3.0810   23.4930 C   0  0  0  0  0  0  0  0  0  0  0  0
   12.2330   -1.3270   23.3130 C   0  0  0  0  0  0  0  0  0  0  0  0
    6.6570   -4.0730   20.6220 C   0  0  0  0  0  0  0  0  0  0  0  0
    6.2920    0.1000   17.9320 N   0  0  0  0  0  0  0  0  0  0  0  0
    4.6530    1.6460   19.0810 C   0  0  0  0  0  0  0  0  0  0  0  0
    5.1100   -5.2490   22.0970 C   0  0  0  0  0  0  0  0  0  0  0  0
    7.3490   -4.5850   22.9800 C   0  0  0  0  0  0  0  0  0  0  0  0
    9.0640    3.5200   24.8730 C   0  0  0  0  0  0  0  0  0  0  0  0
    8.3870    4.2270   22.6510 C   0  0  0  0  0  0  0  0  0  0  0  0
   10.3630    2.7680   22.9480 C   0  0  0  0  0  0  0  0  0  0  0  0
   12.9060   -1.6390   21.9790 C   0  0  0  0  0  0  0  0  0  0  0  0
   12.7660   -0.1240   23.6760 C   0  0  0  0  0  0  0  0  0  0  0  0
   12.6600   -2.3660   24.3790 C   0  0  0  0  0  0  0  0  0  0  0  0
    5.7970   -4.2710   19.7810 O   0  0  0  0  0  0  0  0  0  0  0  0
    8.1320   -3.6990   20.3890 C   0  0  0  0  0  0  0  0  0  0  0  0
    5.2180    0.9560   17.8920 C   0  0  0  0  0  0  0  0  0  0  0  0
    5.1710   -6.1940   23.2690 C   0  0  0  0  0  0  0  0  0  0  0  0
    6.9710   -4.8570   24.4090 C   0  0  0  0  0  0  0  0  0  0  0  0
    5.5540   -5.3690   24.4290 N   0  0  0  0  0  0  0  0  0  0  0  0
    4.8280   -5.6500   25.9130 S   0  0  0  0  0  0  0  0  0  0  0  0
    4.1430   -6.9220   25.8620 O   0  0  0  0  0  0  0  0  0  0  0  0
    5.8030   -5.3160   26.9340 O   0  0  0  0  0  0  0  0  0  0  0  0
    3.5870   -4.3940   25.8750 C   0  0  0  0  0  0  0  0  0  0  0  0
    3.7480   -2.8460   25.9480 C   0  0  0  0  0  0  0  0  0  0  0  0
    2.0650   -4.4880   25.7610 C   0  0  0  0  0  0  0  0  0  0  0  0
    2.7760   -1.9010   25.9190 C   0  0  0  0  0  0  0  0  0  0  0  0
    1.0470   -3.4370   25.7320 C   0  0  0  0  0  0  0  0  0  0  0  0
    3.1230   -0.5990   25.9980 F   0  0  0  0  0  0  0  0  0  0  0  0
    1.4390   -2.1590   25.8160 C   0  0  0  0  0  0  0  0  0  0  0  0
  1  2  1  0
  2  3  1  6
  1  4  1  0
  1  5  1  0
  4  6  1  0
  2  7  1  0
  5  8  2  0
  5  9  1  0
  3 10  1  0
  3 11  2  0
  7 12  2  0
  7 13  1  0
  8 14  1  0
  9 15  2  0
 14 15  1  0
  6 16  1  0
 17 10  1  0
 15 18  1  0
 16 19  1  0
 13 20  2  0
 12 21  1  0
 16 22  1  0
 16 23  1  0
 17 24  1  0
 17 25  1  0
 17 26  1  0
 18 27  1  0
 18 28  1  0
 18 29  1  0
 19 30  2  0
 19 31  1  0
 20 32  1  0
 21 32  2  0
 22 33  1  0
 23 34  1  0
 33 35  1  0
 34 35  1  0
 35 36  1  0
 36 37  2  0
 36 38  2  0
 36 39  1  0
 39 40  2  0
 39 41  1  0
 40 42  1  0
 41 43  2  0
 42 44  1  0
 42 45  2  0
 43 45  1  0
M  END
