x0691-x2912
     RDKit          3D

 42 45  0  0  0  0  0  0  0  0999 V2000
    4.0170   -6.7660   25.9180 O   0  0  0  0  0  0  0  0  0  0  0  0
    4.8000   -5.5490   25.8390 S   0  0  0  0  0  0  0  0  0  0  0  0
    5.8370   -5.2650   26.7990 O   0  0  0  0  0  0  0  0  0  0  0  0
    3.7160   -4.2180   25.9560 C   0  0  0  0  0  0  0  0  0  0  0  0
    5.4840   -5.4370   24.2660 N   0  0  0  0  0  0  0  0  0  0  0  0
    4.1000   -2.7660   25.7410 C   0  0  0  0  0  0  0  0  0  0  0  0
    2.2520   -4.5150   26.3020 C   0  0  0  0  0  0  0  0  0  0  0  0
    4.7610   -6.0680   23.1440 C   0  0  0  0  0  0  0  0  0  0  0  0
    6.2320   -4.3650   23.9330 C   0  0  0  0  0  0  0  0  0  0  0  0
    3.1180   -1.7700   25.8550 C   0  0  0  0  0  0  0  0  0  0  0  0
    1.3520   -3.4370   26.3980 C   0  0  0  0  0  0  0  0  0  0  0  0
    5.6870   -6.3770   22.1450 C   0  0  0  0  0  0  0  0  0  0  0  0
    7.1770   -4.7650   22.9840 C   0  0  0  0  0  0  0  0  0  0  0  0
    3.3200   -0.5570   25.6840 O   0  0  0  0  0  0  0  0  0  0  0  0
    1.7850   -2.1380   26.1790 C   0  0  0  0  0  0  0  0  0  0  0  0
    6.4830   -5.3350   21.8230 N   0  0  0  0  0  0  0  0  0  0  0  0
    6.3130   -4.6010   20.6510 C   0  0  0  0  0  0  0  0  0  0  0  0
    4.1360   -0.2020   24.5310 C   0  0  0  0  0  0  0  0  0  0  0  0
    5.3280   -4.8280   19.9690 O   0  0  0  0  0  0  0  0  0  0  0  0
    7.3260   -3.5170   20.2620 C   0  0  0  0  0  0  0  0  0  0  0  0
    3.3540    0.4000   23.6140 C   0  0  0  0  0  0  0  0  0  0  0  0
    3.8070    0.0520   22.3140 C   0  0  0  0  0  0  0  0  0  0  0  0
    4.8710    1.0620   21.8160 C   0  0  0  0  0  0  0  0  0  0  0  0
    5.3120    0.9120   20.3680 C   0  0  0  0  0  0  0  0  0  0  0  0
    4.7310    1.5790   19.2790 C   0  0  0  0  0  0  0  0  0  0  0  0
    6.3810    0.0430   20.1230 C   0  0  0  0  0  0  0  0  0  0  0  0
    7.0120   -0.6650   21.1570 N   0  0  0  0  0  0  0  0  0  0  0  0
    5.2080    1.3790   18.0160 C   0  0  0  0  0  0  0  0  0  0  0  0
    6.8690   -0.1640   18.8260 C   0  0  0  0  0  0  0  0  0  0  0  0
    8.2220   -0.1970   21.8200 C   0  0  0  0  0  0  0  0  0  0  0  0
    6.2160    0.5720   17.7010 N   0  0  0  0  0  0  0  0  0  0  0  0
    8.8030    0.8250   21.4410 O   0  0  0  0  0  0  0  0  0  0  0  0
    8.6330   -1.0870   22.9960 C   0  0  2  0  0  0  0  0  0  0  0  0
    7.7180   -0.9250   24.1790 C   0  0  0  0  0  0  0  0  0  0  0  0
   10.0990   -0.9150   23.3340 C   0  0  0  0  0  0  0  0  0  0  0  0
   10.5680   -0.5130   24.5780 C   0  0  0  0  0  0  0  0  0  0  0  0
   11.0350   -1.1760   22.3500 C   0  0  0  0  0  0  0  0  0  0  0  0
   12.0460   -0.4020   24.7570 C   0  0  0  0  0  0  0  0  0  0  0  0
   12.3950   -1.0680   22.5060 C   0  0  0  0  0  0  0  0  0  0  0  0
   13.2440   -1.3290   21.4710 C   0  0  0  0  0  0  0  0  0  0  0  0
   12.8520   -0.6870   23.6950 C   0  0  0  0  0  0  0  0  0  0  0  0
   14.0590   -1.3720   20.3100 N   0  0  0  0  0  0  0  0  0  0  0  0
  1  2  2  0
  2  3  2  0
  2  4  1  0
  2  5  1  0
  4  6  2  0
  4  7  1  0
  5  8  1  0
  5  9  1  0
  6 10  1  0
  7 11  2  0
  8 12  1  0
  9 13  1  0
 10 14  1  0
 10 15  2  0
 11 15  1  0
 12 16  1  0
 13 16  1  0
 16 17  1  0
 14 18  1  0
 17 19  2  0
 17 20  1  0
 18 21  1  0
 21 22  1  0
 22 23  1  0
 23 24  1  0
 24 25  2  0
 24 26  1  0
 26 27  1  0
 25 28  1  0
 26 29  2  0
 27 30  1  0
 28 31  2  0
 29 31  1  0
 30 32  2  0
 30 33  1  0
 33 34  1  1
 33 35  1  0
 35 36  2  0
 35 37  1  0
 36 38  1  0
 37 39  2  0
 39 40  1  0
 38 41  2  0
 39 41  1  0
 40 42  3  0
M  END
