x0691-x2694-x3115
     RDKit          3D

 52 56  0  0  0  0  0  0  0  0999 V2000
    7.4470   -1.0720   22.1780 N   0  0  0  0  0  0  0  0  0  0  0  0
    6.9320    0.2780   21.8300 C   0  0  1  0  0  0  0  0  0  0  0  0
    7.9360    1.4060   21.9910 C   0  0  0  0  0  0  0  0  0  0  0  0
    6.5700   -2.0080   22.8700 C   0  0  0  0  0  0  0  0  0  0  0  0
    8.7170   -1.2150   22.7990 C   0  0  0  0  0  0  0  0  0  0  0  0
    5.6360   -2.7480   22.2350 C   0  0  0  0  0  0  0  0  0  0  0  0
    6.3270    0.5950   20.3380 C   0  0  0  0  0  0  0  0  0  0  0  0
    8.9690   -1.4030   24.1850 N   0  0  0  0  0  0  0  0  0  0  0  0
   10.0760   -1.1890   22.1580 C   0  0  0  0  0  0  0  0  0  0  0  0
    7.7520    2.1920   22.8170 N   0  0  0  0  0  0  0  0  0  0  0  0
    9.0060    1.3910   21.0610 O   0  0  0  0  0  0  0  0  0  0  0  0
    5.1320    1.5330   20.3030 C   0  0  0  0  0  0  0  0  0  0  0  0
    6.8900    0.0440   19.2300 C   0  0  0  0  0  0  0  0  0  0  0  0
   10.3710   -1.4760   24.3450 O   0  0  0  0  0  0  0  0  0  0  0  0
   11.0370   -1.3460   23.1470 C   0  0  0  0  0  0  0  0  0  0  0  0
    5.9100   -4.2950   22.0500 C   0  0  0  0  0  0  0  0  0  0  0  0
   12.4640   -1.3520   22.9930 C   0  0  0  0  0  0  0  0  0  0  0  0
    6.1310   -4.4910   20.5270 C   0  0  0  0  0  0  0  0  0  0  0  0
    6.3870    0.3210   17.8730 N   0  0  0  0  0  0  0  0  0  0  0  0
    4.6080    1.8240   18.9120 C   0  0  0  0  0  0  0  0  0  0  0  0
    8.5370    3.3450   23.0310 C   0  0  0  0  0  0  0  0  0  0  0  0
    4.8050   -5.0090   22.3540 C   0  0  0  0  0  0  0  0  0  0  0  0
    7.1820   -4.7500   22.8270 C   0  0  0  0  0  0  0  0  0  0  0  0
   12.9600    0.0960   23.1520 C   0  0  0  0  0  0  0  0  0  0  0  0
   12.8600   -1.8810   21.6070 C   0  0  0  0  0  0  0  0  0  0  0  0
   13.2130   -2.2110   24.0220 C   0  0  0  0  0  0  0  0  0  0  0  0
    5.6670   -5.4680   19.9920 O   0  0  0  0  0  0  0  0  0  0  0  0
    6.8540   -3.4280   19.6750 C   0  0  0  0  0  0  0  0  0  0  0  0
    5.2450    1.2260   17.8320 C   0  0  0  0  0  0  0  0  0  0  0  0
    9.7640    3.2100   23.6710 C   0  0  0  0  0  0  0  0  0  0  0  0
    8.1660    4.6240   22.6380 C   0  0  0  0  0  0  0  0  0  0  0  0
    4.9530   -6.0840   23.1950 C   0  0  0  0  0  0  0  0  0  0  0  0
    6.9370   -4.9990   24.1920 C   0  0  0  0  0  0  0  0  0  0  0  0
   10.2720    1.8740   24.1330 C   0  0  0  0  0  0  0  0  0  0  0  0
   12.3750   -2.9870   24.9500 C   0  0  0  0  0  0  0  0  0  0  0  0
   10.6310    4.4570   23.9110 C   0  0  0  0  0  0  0  0  0  0  0  0
    8.9640    5.7770   22.8610 C   0  0  0  0  0  0  0  0  0  0  0  0
    5.5360   -5.4300   24.3430 N   0  0  0  0  0  0  0  0  0  0  0  0
    8.4430    7.1060   22.3760 C   0  0  0  0  0  0  0  0  0  0  0  0
    4.7590   -5.5060   25.8290 S   0  0  0  0  0  0  0  0  0  0  0  0
   10.2030    5.6950   23.5080 C   0  0  0  0  0  0  0  0  0  0  0  0
   11.0590    6.7330   23.7900 O   0  0  0  0  0  0  0  0  0  0  0  0
    4.1250   -6.7980   26.0140 O   0  0  0  0  0  0  0  0  0  0  0  0
    5.7230   -5.2560   26.8660 O   0  0  0  0  0  0  0  0  0  0  0  0
    3.5860   -4.2810   25.8110 C   0  0  0  0  0  0  0  0  0  0  0  0
   11.8300    6.6550   24.9890 C   0  0  0  0  0  0  0  0  0  0  0  0
    3.9050   -2.8950   25.8930 C   0  0  0  0  0  0  0  0  0  0  0  0
    2.2480   -4.6700   25.7130 C   0  0  0  0  0  0  0  0  0  0  0  0
    2.9430   -1.9120   25.8860 C   0  0  0  0  0  0  0  0  0  0  0  0
    1.2270   -3.6790   25.7030 C   0  0  0  0  0  0  0  0  0  0  0  0
    3.2400   -0.6050   25.9670 F   0  0  0  0  0  0  0  0  0  0  0  0
    1.4830   -2.3520   25.7850 C   0  0  0  0  0  0  0  0  0  0  0  0
  1  2  1  0
  2  3  1  6
  1  4  1  0
  1  5  1  0
  4  6  1  0
  2  7  1  0
  5  8  2  0
  5  9  1  0
  3 10  1  0
  3 11  2  0
  7 12  2  0
  7 13  1  0
  8 14  1  0
  9 15  2  0
 14 15  1  0
  6 16  1  0
 15 17  1  0
 16 18  1  0
 13 19  2  0
 12 20  1  0
 10 21  1  0
 16 22  1  0
 16 23  1  0
 17 24  1  0
 17 25  1  0
 17 26  1  0
 18 27  2  0
 18 28  1  0
 19 29  1  0
 20 29  2  0
 21 30  2  0
 21 31  1  0
 22 32  1  0
 23 33  1  0
 30 34  1  0
 26 35  1  0
 30 36  1  0
 31 37  2  0
 32 38  1  0
 33 38  1  0
 37 39  1  0
 38 40  1  0
 36 41  2  0
 37 41  1  0
 41 42  1  0
 40 43  2  0
 40 44  2  0
 40 45  1  0
 42 46  1  0
 45 47  2  0
 45 48  1  0
 47 49  1  0
 48 50  2  0
 49 51  1  0
 49 52  2  0
 50 52  1  0
M  END
