x0691-x2193-x0072-x2694
     RDKit          3D

 62 69  0  0  0  0  0  0  0  0999 V2000
    7.7640   -0.6410   21.7580 N   0  0  0  0  0  0  0  0  0  0  0  0
    7.0730    0.5360   21.6750 C   0  0  1  0  0  0  0  0  0  0  0  0
    8.0300    1.6930   21.7850 C   0  0  0  0  0  0  0  0  0  0  0  0
    8.8400   -0.5220   22.7270 C   0  0  1  0  0  0  0  0  0  0  0  0
    6.4210    0.6820   20.3330 C   0  0  0  0  0  0  0  0  0  0  0  0
    8.6500   -1.2400   23.8560 N   0  0  0  0  0  0  0  0  0  0  0  0
   10.1390   -0.8530   22.2780 C   0  0  0  0  0  0  0  0  0  0  0  0
    7.6900    2.7130   22.7560 N   0  0  0  0  0  0  0  0  0  0  0  0
    9.0280    1.7670   21.0880 O   0  0  0  0  0  0  0  0  0  0  0  0
    5.1960    1.5830   20.2610 C   0  0  0  0  0  0  0  0  0  0  0  0
    6.8700    0.0430   19.0320 C   0  0  0  0  0  0  0  0  0  0  0  0
    9.9060   -1.8930   24.1050 C   0  0  2  0  0  0  0  0  0  0  0  0
   10.8660   -1.3530   23.3380 C   0  0  1  0  0  0  0  0  0  0  0  0
    6.2950    0.2050   17.8170 N   0  0  0  0  0  0  0  0  0  0  0  0
    4.4830    1.8250   18.9500 C   0  0  0  0  0  0  0  0  0  0  0  0
    8.5330    3.8720   23.0330 C   0  0  0  0  0  0  0  0  0  0  0  0
   12.0280   -2.0530   22.9230 C   0  0  1  0  0  0  0  0  0  0  0  0
   11.2700   -0.1470   24.1130 C   0  0  0  0  0  0  0  0  0  0  0  0
    9.5630   -3.3470   23.9240 C   0  0  0  0  0  0  0  0  0  0  0  0
    5.1350    1.0800   17.7920 C   0  0  0  0  0  0  0  0  0  0  0  0
    9.7860    3.6200   23.6270 C   0  0  0  0  0  0  0  0  0  0  0  0
    8.1190    5.1440   22.7230 C   0  0  0  0  0  0  0  0  0  0  0  0
   13.0480   -1.1990   22.2060 C   0  0  0  0  0  0  0  0  0  0  0  0
   12.4830    0.5700   23.7370 C   0  0  0  0  0  0  0  0  0  0  0  0
   12.5940   -2.8410   23.9490 C   0  0  0  0  0  0  0  0  0  0  0  0
    9.4040   -3.9890   25.2120 N   0  0  0  0  0  0  0  0  0  0  0  0
   10.1200    2.2040   23.9120 C   0  0  0  0  0  0  0  0  0  0  0  0
   10.6910    4.6340   23.9440 C   0  0  0  0  0  0  0  0  0  0  0  0
    8.9390    6.2070   23.0030 C   0  0  0  0  0  0  0  0  0  0  0  0
   13.2580    0.1450   22.6900 C   0  0  0  0  0  0  0  0  0  0  0  0
   13.1660   -2.2280   25.0400 C   0  0  0  0  0  0  0  0  0  0  0  0
    8.0700   -3.9810   25.8180 C   0  0  1  0  0  0  0  0  0  0  0  0
    9.6810   -5.3830   24.9670 C   0  0  0  0  0  0  0  0  0  0  0  0
   10.3090    6.0630   23.6480 C   0  0  0  0  0  0  0  0  0  0  0  0
    7.0670   -3.8420   24.7590 N   0  0  0  0  0  0  0  0  0  0  0  0
    7.8210   -5.0620   26.6700 C   0  0  1  0  0  0  0  0  0  0  0  0
    9.9410   -5.8750   26.2160 C   0  0  0  0  0  0  0  0  0  0  0  0
   11.1300    7.1860   23.9400 O   0  0  0  0  0  0  0  0  0  0  0  0
    6.5020   -5.0720   27.5060 C   0  0  2  0  0  0  0  0  0  0  0  0
    7.7290   -6.1980   25.9340 O   0  0  0  0  0  0  0  0  0  0  0  0
    9.0440   -5.4390   27.2970 N   0  0  0  0  0  0  0  0  0  0  0  0
    6.6900   -4.9730   23.9460 C   0  0  1  0  0  0  0  0  0  0  0  0
   11.9080    7.0300   25.1200 C   0  0  0  0  0  0  0  0  0  0  0  0
    5.4920   -4.4660   26.6290 N   0  0  0  0  0  0  0  0  0  0  0  0
    6.7970   -4.4630   28.6820 C   0  0  0  0  0  0  0  0  0  0  0  0
    5.2420   -5.1340   24.0130 N   0  0  0  0  0  0  0  0  0  0  0  0
    7.2140   -4.5260   22.5840 C   0  0  0  0  0  0  0  0  0  0  0  0
    4.5150   -5.3420   25.5640 S   0  0  1  0  0  0  0  0  0  0  0  0
    6.4620   -5.0660   21.4990 N   0  0  0  0  0  0  0  0  0  0  0  0
    4.7360   -5.9840   22.8980 C   0  0  0  0  0  0  0  0  0  0  0  0
    4.0590   -6.7130   25.6700 O   0  0  0  0  0  0  0  0  0  0  0  0
    6.2030   -4.3280   20.3450 C   0  0  0  0  0  0  0  0  0  0  0  0
    3.1770   -4.2230   25.6530 C   0  0  0  0  0  0  0  0  0  0  0  0
    5.6540   -6.2590   21.8600 C   0  0  0  0  0  0  0  0  0  0  0  0
    5.1170   -4.4510   19.8260 O   0  0  0  0  0  0  0  0  0  0  0  0
    7.2910   -3.3740   19.7680 C   0  0  0  0  0  0  0  0  0  0  0  0
    3.5460   -2.7330   25.8120 C   0  0  0  0  0  0  0  0  0  0  0  0
    1.8450   -4.5890   25.5990 C   0  0  0  0  0  0  0  0  0  0  0  0
    2.5370   -1.7980   25.9040 C   0  0  0  0  0  0  0  0  0  0  0  0
    0.8970   -3.5690   25.7010 C   0  0  0  0  0  0  0  0  0  0  0  0
    2.8130   -0.4900   26.0450 F   0  0  0  0  0  0  0  0  0  0  0  0
    1.2020   -2.2100   25.8510 C   0  0  0  0  0  0  0  0  0  0  0  0
  2  1  1  6
  2  3  1  0
  4  1  1  6
  2  5  1  0
  4  6  1  0
  4  7  1  0
  3  8  1  0
  3  9  2  0
  5 10  2  0
  5 11  1  0
  6 12  1  0
 13  7  1  6
 12 13  1  0
 11 14  2  0
 10 15  1  0
  8 16  1  0
 13 17  1  0
 13 18  1  0
 12 19  1  6
 14 20  1  0
 15 20  2  0
 16 21  2  0
 16 22  1  0
 17 23  1  0
 18 24  2  0
 17 25  1  1
 19 26  1  0
 21 27  1  0
 21 28  1  0
 22 29  2  0
 23 30  2  0
 24 30  1  0
 25 31  1  0
 26 32  1  0
 26 33  1  0
 28 34  2  0
 29 34  1  0
 32 35  1  6
 32 36  1  0
 33 37  1  0
 34 38  1  0
 36 39  1  0
 36 40  1  6
 36 41  1  0
 37 41  1  0
 35 42  1  0
 38 43  1  0
 39 44  1  0
 39 45  1  1
 42 46  1  0
 42 47  1  6
 44 48  2  0
 46 48  1  0
 47 49  1  0
 46 50  1  0
 48 51  2  0
 49 52  1  0
 48 53  1  6
 49 54  1  0
 50 54  1  0
 52 55  2  0
 52 56  1  0
 53 57  2  0
 53 58  1  0
 57 59  1  0
 58 60  2  0
 59 61  1  0
 59 62  2  0
 60 62  1  0
M  END
