x0691-x0978-x2764-x2694
     RDKit          3D

 61 65  0  0  0  0  0  0  0  0999 V2000
    7.4220   -1.0030   21.6620 C   0  0  0  0  0  0  0  0  0  0  0  0
    6.9910    0.4900   21.4700 C   0  0  1  0  0  0  0  0  0  0  0  0
    7.9710    1.6360   21.4700 C   0  0  0  0  0  0  0  0  0  0  0  0
    8.7890   -1.5590   21.4700 N   0  0  0  0  0  0  0  0  0  0  0  0
    6.1810   -1.7340   22.0660 N   0  0  0  0  0  0  0  0  0  0  0  0
    5.5860   -3.0110   22.4580 C   0  0  0  0  0  0  0  0  0  0  0  0
    6.2920    0.7190   20.1940 C   0  0  0  0  0  0  0  0  0  0  0  0
    9.9220   -1.5040   22.3370 C   0  0  0  0  0  0  0  0  0  0  0  0
    7.5340    2.7390   21.2940 N   0  0  0  0  0  0  0  0  0  0  0  0
    9.1570    1.3290   21.5620 O   0  0  0  0  0  0  0  0  0  0  0  0
    5.1420    1.4900   20.2060 C   0  0  0  0  0  0  0  0  0  0  0  0
    6.8120    0.1850   19.0200 C   0  0  0  0  0  0  0  0  0  0  0  0
   10.9210   -1.4300   23.3610 C   0  0  0  0  0  0  0  0  0  0  0  0
    8.9090   -1.3720   23.3190 C   0  0  0  0  0  0  0  0  0  0  0  0
    6.1530   -4.4270   22.0520 C   0  0  2  0  0  0  0  0  0  0  0  0
   12.4240   -1.4810   23.3120 C   0  0  0  0  0  0  0  0  0  0  0  0
    7.1430    3.7150   22.2770 C   0  0  0  0  0  0  0  0  0  0  0  0
    6.4690   -4.1810   20.5860 C   0  0  0  0  0  0  0  0  0  0  0  0
    6.2540    0.3860   17.7970 N   0  0  0  0  0  0  0  0  0  0  0  0
    4.5080    1.7450   19.0320 C   0  0  0  0  0  0  0  0  0  0  0  0
    9.1630   -1.2410   24.6220 N   0  0  0  0  0  0  0  0  0  0  0  0
   10.4780   -1.2850   24.6320 O   0  0  0  0  0  0  0  0  0  0  0  0
    5.2010   -5.4000   22.1600 C   0  0  0  0  0  0  0  0  0  0  0  0
    7.3010   -4.8960   22.9270 C   0  0  0  0  0  0  0  0  0  0  0  0
   12.9320   -0.0550   23.3950 C   0  0  0  0  0  0  0  0  0  0  0  0
   12.8930   -2.0180   21.9470 C   0  0  0  0  0  0  0  0  0  0  0  0
   12.9250   -2.2850   24.3220 C   0  0  0  0  0  0  0  0  0  0  0  0
    5.5690   -4.4240   19.8130 O   0  0  0  0  0  0  0  0  0  0  0  0
    7.8380   -3.5700   20.2610 C   0  0  0  0  0  0  0  0  0  0  0  0
    5.1030    1.1630   17.7340 C   0  0  0  0  0  0  0  0  0  0  0  0
    8.4070    4.1790   22.8630 C   0  0  0  0  0  0  0  0  0  0  0  0
    4.4380   -5.4560   23.3590 C   0  0  2  0  0  0  0  0  0  0  0  0
    6.8010   -5.1350   24.3460 C   0  0  0  0  0  0  0  0  0  0  0  0
    3.1390   -6.4240   23.3170 C   0  0  2  0  0  0  0  0  0  0  0  0
    3.9330   -4.1460   23.4640 O   0  0  0  0  0  0  0  0  0  0  0  0
    8.9150    5.4950   23.0410 C   0  0  0  0  0  0  0  0  0  0  0  0
    9.1230    3.1090   23.2470 C   0  0  0  0  0  0  0  0  0  0  0  0
    5.3860   -5.6320   24.5110 N   0  0  0  0  0  0  0  0  0  0  0  0
    2.2000   -5.7010   23.2560 N   0  0  0  0  0  0  0  0  0  0  0  0
    3.1500   -7.4400   24.2820 C   0  0  1  0  0  0  0  0  0  0  0  0
    4.8280   -5.4300   26.0740 S   0  0  0  0  0  0  0  0  0  0  0  0
   10.3250    3.2020   23.7720 C   0  0  0  0  0  0  0  0  0  0  0  0
   10.1990    5.6200   23.6220 C   0  0  0  0  0  0  0  0  0  0  0  0
   10.7040    6.8770   23.8130 O   0  0  0  0  0  0  0  0  0  0  0  0
   10.8960    1.8690   24.0720 C   0  0  0  0  0  0  0  0  0  0  0  0
    1.9530   -8.3880   24.3160 C   0  0  0  0  0  0  0  0  0  0  0  0
    4.2720   -7.9230   24.2640 O   0  0  0  0  0  0  0  0  0  0  0  0
    1.0920   -6.2270   22.6510 C   0  0  0  0  0  0  0  0  0  0  0  0
    4.3150   -6.6800   26.5730 O   0  0  0  0  0  0  0  0  0  0  0  0
    5.8620   -4.7580   26.8120 O   0  0  0  0  0  0  0  0  0  0  0  0
   10.8910    4.4540   23.9680 C   0  0  0  0  0  0  0  0  0  0  0  0
    3.4820   -4.2650   25.9670 C   0  0  0  0  0  0  0  0  0  0  0  0
   11.8340    6.9480   24.6990 C   0  0  0  0  0  0  0  0  0  0  0  0
    1.1330   -7.2770   22.0210 O   0  0  0  0  0  0  0  0  0  0  0  0
   -0.1340   -5.5600   22.7330 C   0  0  0  0  0  0  0  0  0  0  0  0
    3.7590   -2.8860   25.9810 C   0  0  0  0  0  0  0  0  0  0  0  0
    2.1610   -4.6710   25.8680 C   0  0  0  0  0  0  0  0  0  0  0  0
    2.7950   -1.8560   25.9070 C   0  0  0  0  0  0  0  0  0  0  0  0
    1.1130   -3.5640   25.7870 C   0  0  0  0  0  0  0  0  0  0  0  0
    3.1630   -0.5680   25.9320 F   0  0  0  0  0  0  0  0  0  0  0  0
    1.4440   -2.2110   25.8090 C   0  0  0  0  0  0  0  0  0  0  0  0
  2  1  1  6
  2  3  1  0
  1  4  1  0
  1  5  2  3
  5  6  1  0
  2  7  1  0
  4  8  1  0
  3  9  1  0
  3 10  2  0
  7 11  2  0
  7 12  1  0
  8 13  2  0
  8 14  1  0
 15  6  1  1
 13 16  1  0
  9 17  1  0
 15 18  1  0
 12 19  2  0
 11 20  1  0
 14 21  2  0
 13 22  1  0
 21 22  1  0
 15 23  1  0
 15 24  1  0
 16 25  1  0
 16 26  1  0
 16 27  1  0
 18 28  2  0
 18 29  1  0
 19 30  1  0
 20 30  2  0
 17 31  1  0
 23 32  1  0
 24 33  1  0
 32 34  1  0
 32 35  1  1
 31 36  2  0
 31 37  1  0
 32 38  1  0
 33 38  1  0
 34 39  1  1
 34 40  1  0
 38 41  1  0
 37 42  2  0
 36 43  1  0
 43 44  1  0
 42 45  1  0
 40 46  1  6
 40 47  1  0
 39 48  1  0
 41 49  2  0
 41 50  2  0
 42 51  1  0
 43 51  2  0
 41 52  1  0
 44 53  1  0
 48 54  2  0
 48 55  1  0
 52 56  2  0
 52 57  1  0
 56 58  1  0
 57 59  2  0
 58 60  1  0
 58 61  2  0
 59 61  1  0
M  END
