x0691-x3108
     RDKit          3D

 41 44  0  0  0  0  0  0  0  0999 V2000
    6.0200    1.6940   21.9870 C   0  0  0  0  0  0  0  0  0  0  0  0
    6.1490    1.1380   20.6020 C   0  0  0  0  0  0  0  0  0  0  0  0
    7.1280    0.2070   20.2400 C   0  0  0  0  0  0  0  0  0  0  0  0
    5.2520    1.5550   19.6030 C   0  0  0  0  0  0  0  0  0  0  0  0
    8.0820   -0.2670   21.1890 N   0  0  0  0  0  0  0  0  0  0  0  0
    7.1650   -0.2570   18.9300 C   0  0  0  0  0  0  0  0  0  0  0  0
    5.3890    1.0250   18.3190 C   0  0  0  0  0  0  0  0  0  0  0  0
    9.0700    0.5520   21.7190 C   0  0  0  0  0  0  0  0  0  0  0  0
    6.3190    0.1350   17.9590 N   0  0  0  0  0  0  0  0  0  0  0  0
    9.2760    1.7220   21.3790 O   0  0  0  0  0  0  0  0  0  0  0  0
    9.9050   -0.1800   22.7920 C   0  0  0  0  0  0  0  0  0  0  0  0
    9.2060   -1.3210   23.3580 N   0  0  0  0  0  0  0  0  0  0  0  0
    8.2540   -1.1810   24.2500 C   0  0  0  0  0  0  0  0  0  0  0  0
    8.0170   -0.0880   24.7690 O   0  0  0  0  0  0  0  0  0  0  0  0
    7.4130   -2.4240   24.6240 C   0  0  1  0  0  0  0  0  0  0  0  0
    6.5120   -3.0820   23.8730 C   0  0  0  0  0  0  0  0  0  0  0  0
    8.1790   -3.5590   25.2540 C   0  0  0  0  0  0  0  0  0  0  0  0
    9.1940   -4.1300   24.5030 C   0  0  0  0  0  0  0  0  0  0  0  0
    7.8960   -4.0740   26.4950 C   0  0  0  0  0  0  0  0  0  0  0  0
    6.5770   -4.6630   23.9030 C   0  0  1  0  0  0  0  0  0  0  0  0
    9.9100   -5.1730   24.9030 N   0  0  0  0  0  0  0  0  0  0  0  0
    8.6010   -5.1700   26.9780 C   0  0  0  0  0  0  0  0  0  0  0  0
    5.1950   -5.2580   24.0310 N   0  0  0  0  0  0  0  0  0  0  0  0
    7.2790   -5.2270   22.8330 C   0  0  0  0  0  0  0  0  0  0  0  0
    4.5370   -5.5530   25.5840 S   0  0  0  0  0  0  0  0  0  0  0  0
    9.6060   -5.7570   26.2140 C   0  0  0  0  0  0  0  0  0  0  0  0
    6.4160   -5.4300   21.6960 N   0  0  0  0  0  0  0  0  0  0  0  0
    4.5050   -5.6930   22.8120 C   0  0  0  0  0  0  0  0  0  0  0  0
    3.8270   -6.8110   25.5770 O   0  0  0  0  0  0  0  0  0  0  0  0
    5.5430   -5.2530   26.5740 O   0  0  0  0  0  0  0  0  0  0  0  0
    6.4440   -4.5270   20.6320 C   0  0  0  0  0  0  0  0  0  0  0  0
    3.3230   -4.2640   25.6910 C   0  0  0  0  0  0  0  0  0  0  0  0
    5.4560   -6.3120   21.9750 C   0  0  0  0  0  0  0  0  0  0  0  0
    5.4550   -4.4310   19.9030 O   0  0  0  0  0  0  0  0  0  0  0  0
    7.7240   -3.7010   20.4150 C   0  0  0  0  0  0  0  0  0  0  0  0
    3.7490   -2.9450   25.8410 C   0  0  0  0  0  0  0  0  0  0  0  0
    1.9790   -4.5890   25.6170 C   0  0  0  0  0  0  0  0  0  0  0  0
    2.8200   -1.9200   25.9210 C   0  0  0  0  0  0  0  0  0  0  0  0
    1.0450   -3.5380   25.7010 C   0  0  0  0  0  0  0  0  0  0  0  0
    3.2180   -0.6510   26.0650 F   0  0  0  0  0  0  0  0  0  0  0  0
    1.4710   -2.2210   25.8520 C   0  0  0  0  0  0  0  0  0  0  0  0
  1  2  1  0
  2  3  2  0
  2  4  1  0
  3  5  1  0
  3  6  1  0
  4  7  2  0
  5  8  1  0
  6  9  2  0
  7  9  1  0
  8 10  2  0
  8 11  1  0
 11 12  1  0
 12 13  1  0
 13 14  2  0
 13 15  1  0
 15 16  1  6
 15 17  1  0
 17 18  2  0
 17 19  1  0
 20 16  1  6
 18 21  1  0
 19 22  2  0
 20 23  1  0
 20 24  1  0
 23 25  1  0
 21 26  2  0
 22 26  1  0
 24 27  1  0
 23 28  1  0
 25 29  2  0
 25 30  2  0
 27 31  1  0
 25 32  1  0
 27 33  1  0
 28 33  1  0
 31 34  2  0
 31 35  1  0
 32 36  2  0
 32 37  1  0
 36 38  1  0
 37 39  2  0
 38 40  1  0
 38 41  2  0
 39 41  1  0
M  END
