x0691-x3124
     RDKit          3D

 43 46  0  0  0  0  0  0  0  0999 V2000
    7.0780   -1.3490   22.1750 N   0  0  0  0  0  0  0  0  0  0  0  0
    6.7630    0.0780   21.7600 C   0  0  1  0  0  0  0  0  0  0  0  0
    7.8950    1.0950   22.0450 C   0  0  0  0  0  0  0  0  0  0  0  0
    6.0910   -2.0150   23.0950 C   0  0  0  0  0  0  0  0  0  0  0  0
    8.3900   -1.4700   22.6650 C   0  0  0  0  0  0  0  0  0  0  0  0
    5.3360   -3.0550   22.5290 C   0  0  0  0  0  0  0  0  0  0  0  0
    6.2380    0.3330   20.3610 C   0  0  0  0  0  0  0  0  0  0  0  0
    9.3790   -1.6840   21.7570 C   0  0  0  0  0  0  0  0  0  0  0  0
    8.7370   -1.3730   23.9900 C   0  0  0  0  0  0  0  0  0  0  0  0
    7.9580    1.5070   23.3660 N   0  0  0  0  0  0  0  0  0  0  0  0
    8.6700    1.5570   21.1880 O   0  0  0  0  0  0  0  0  0  0  0  0
    5.0960    1.1190   20.2780 C   0  0  0  0  0  0  0  0  0  0  0  0
    6.8220   -0.1310   19.2370 C   0  0  0  0  0  0  0  0  0  0  0  0
   10.6880   -1.7820   22.2120 C   0  0  0  0  0  0  0  0  0  0  0  0
   10.0480   -1.4700   24.4360 C   0  0  0  0  0  0  0  0  0  0  0  0
    6.0040   -4.4500   22.2140 C   0  0  0  0  0  0  0  0  0  0  0  0
    8.8610    2.5680   23.7850 C   0  0  0  0  0  0  0  0  0  0  0  0
    6.4210   -4.3150   20.7370 C   0  0  0  0  0  0  0  0  0  0  0  0
    6.3420    0.1520   18.0180 N   0  0  0  0  0  0  0  0  0  0  0  0
    4.4260    1.5320   19.1220 C   0  0  0  0  0  0  0  0  0  0  0  0
   11.0850   -1.6780   23.5400 C   0  0  0  0  0  0  0  0  0  0  0  0
    5.0480   -5.4560   22.1960 C   0  0  0  0  0  0  0  0  0  0  0  0
    7.1610   -4.5950   22.8850 C   0  0  0  0  0  0  0  0  0  0  0  0
   12.5070   -1.7550   24.0070 C   0  0  0  0  0  0  0  0  0  0  0  0
    5.6070   -4.7260   19.9360 O   0  0  0  0  0  0  0  0  0  0  0  0
    7.7520   -3.6180   20.4330 C   0  0  0  0  0  0  0  0  0  0  0  0
    5.1450    0.9860   17.8880 C   0  0  0  0  0  0  0  0  0  0  0  0
    4.9320   -6.2200   23.2610 C   0  0  0  0  0  0  0  0  0  0  0  0
    6.7920   -4.8860   24.3270 C   0  0  0  0  0  0  0  0  0  0  0  0
   12.6250   -0.5090   24.8600 C   0  0  0  0  0  0  0  0  0  0  0  0
   13.3910   -2.2070   22.8380 C   0  0  0  0  0  0  0  0  0  0  0  0
   12.7300   -2.9430   25.0010 C   0  0  0  0  0  0  0  0  0  0  0  0
    5.4130   -5.4120   24.3920 N   0  0  0  0  0  0  0  0  0  0  0  0
    4.6590   -5.5380   25.9070 S   0  0  0  0  0  0  0  0  0  0  0  0
    3.9850   -6.8140   25.8640 O   0  0  0  0  0  0  0  0  0  0  0  0
    5.6170   -5.1950   26.9270 O   0  0  0  0  0  0  0  0  0  0  0  0
    3.4980   -4.3060   25.8570 C   0  0  0  0  0  0  0  0  0  0  0  0
    3.8510   -2.9580   25.9490 C   0  0  0  0  0  0  0  0  0  0  0  0
    2.2150   -4.6970   25.7240 C   0  0  0  0  0  0  0  0  0  0  0  0
    2.9170   -1.8970   25.9200 C   0  0  0  0  0  0  0  0  0  0  0  0
    1.1350   -3.6760   25.6800 C   0  0  0  0  0  0  0  0  0  0  0  0
    3.2800   -0.6120   26.0120 F   0  0  0  0  0  0  0  0  0  0  0  0
    1.4470   -2.3190   25.7750 C   0  0  0  0  0  0  0  0  0  0  0  0
  1  2  1  0
  2  3  1  6
  1  4  1  0
  1  5  1  0
  4  6  1  0
  2  7  1  0
  5  8  2  0
  5  9  1  0
  3 10  1  0
  3 11  2  0
  7 12  2  0
  7 13  1  0
  8 14  1  0
  9 15  2  0
  6 16  1  0
 10 17  1  0
 16 18  1  0
 13 19  2  0
 12 20  1  0
 14 21  2  0
 15 21  1  0
 16 22  1  0
 16 23  1  0
 21 24  1  0
 18 25  2  0
 18 26  1  0
 19 27  1  0
 20 27  2  0
 22 28  1  0
 23 29  1  0
 24 30  1  0
 24 31  1  0
 24 32  1  0
 28 33  1  0
 29 33  1  0
 33 34  1  0
 34 35  2  0
 34 36  2  0
 34 37  1  0
 37 38  2  0
 37 39  1  0
 38 40  1  0
 39 41  2  0
 40 42  1  0
 40 43  2  0
 41 43  1  0
M  END
