x0691-x2705-x2703
     RDKit          3D

 51 55  0  0  0  0  0  0  0  0999 V2000
    7.3070   -1.1800   21.8160 N   0  0  0  0  0  0  0  0  0  0  0  0
    6.9720    0.2420   21.5500 C   0  0  1  0  0  0  0  0  0  0  0  0
    8.0260    1.3230   21.8220 C   0  0  0  0  0  0  0  0  0  0  0  0
    6.0620   -1.9790   22.0020 C   0  0  0  0  0  0  0  0  0  0  0  0
    8.5120   -1.3190   22.5990 C   0  0  0  0  0  0  0  0  0  0  0  0
    6.0560   -3.1220   22.8190 C   0  0  0  0  0  0  0  0  0  0  0  0
    6.3300    0.4670   20.2320 C   0  0  0  0  0  0  0  0  0  0  0  0
    8.6060   -1.4910   23.9290 N   0  0  0  0  0  0  0  0  0  0  0  0
    9.8030   -1.2900   22.1150 C   0  0  0  0  0  0  0  0  0  0  0  0
    7.6140    2.1980   22.7960 N   0  0  0  0  0  0  0  0  0  0  0  0
    9.0800    1.4450   21.2110 O   0  0  0  0  0  0  0  0  0  0  0  0
    5.0770    1.2740   20.1690 C   0  0  0  0  0  0  0  0  0  0  0  0
    6.8460   -0.0210   19.0490 C   0  0  0  0  0  0  0  0  0  0  0  0
    9.9400   -1.5540   24.1840 N   0  0  0  0  0  0  0  0  0  0  0  0
   10.7350   -1.4310   23.0630 C   0  0  0  0  0  0  0  0  0  0  0  0
    6.3400   -4.4860   22.1010 C   0  0  0  0  0  0  0  0  0  0  0  0
   12.2670   -1.4600   23.0790 C   0  0  0  0  0  0  0  0  0  0  0  0
    6.7210   -4.1820   20.6540 C   0  0  0  0  0  0  0  0  0  0  0  0
    6.2740    0.2140   17.8570 N   0  0  0  0  0  0  0  0  0  0  0  0
    4.5140    1.4950   18.9320 C   0  0  0  0  0  0  0  0  0  0  0  0
    8.2690    3.4170   22.9510 C   0  0  0  0  0  0  0  0  0  0  0  0
    5.0890   -5.4060   22.1030 C   0  0  0  0  0  0  0  0  0  0  0  0
    7.4420   -5.2150   22.8870 C   0  0  0  0  0  0  0  0  0  0  0  0
   12.7840   -0.1740   23.7860 C   0  0  0  0  0  0  0  0  0  0  0  0
   12.7990   -2.7140   23.7490 C   0  0  0  0  0  0  0  0  0  0  0  0
   12.8230   -1.6360   21.6100 C   0  0  0  0  0  0  0  0  0  0  0  0
    5.8130   -4.3480   19.8320 O   0  0  0  0  0  0  0  0  0  0  0  0
    8.1340   -3.6630   20.3540 C   0  0  0  0  0  0  0  0  0  0  0  0
    5.1470    0.9550   17.8340 C   0  0  0  0  0  0  0  0  0  0  0  0
    9.5560    3.5200   23.4940 C   0  0  0  0  0  0  0  0  0  0  0  0
    7.7120    4.5850   22.5820 C   0  0  0  0  0  0  0  0  0  0  0  0
    4.9950   -6.2810   23.3320 C   0  0  0  0  0  0  0  0  0  0  0  0
    7.0070   -5.2650   24.3610 C   0  0  0  0  0  0  0  0  0  0  0  0
   10.2780    2.2580   23.9260 C   0  0  0  0  0  0  0  0  0  0  0  0
    6.3300    4.5950   21.9740 C   0  0  0  0  0  0  0  0  0  0  0  0
   12.9130   -2.5840   25.2420 C   0  0  0  0  0  0  0  0  0  0  0  0
   10.2840    4.8250   23.6740 C   0  0  0  0  0  0  0  0  0  0  0  0
    8.3640    5.9370   22.7210 C   0  0  0  0  0  0  0  0  0  0  0  0
    5.5220   -5.4450   24.4100 N   0  0  0  0  0  0  0  0  0  0  0  0
    9.3930    1.3490   24.8010 C   0  0  0  0  0  0  0  0  0  0  0  0
    4.7190   -5.5770   25.9140 S   0  0  0  0  0  0  0  0  0  0  0  0
    9.6090    6.0350   23.2540 C   0  0  0  0  0  0  0  0  0  0  0  0
    4.0130   -6.8420   25.9500 O   0  0  0  0  0  0  0  0  0  0  0  0
    5.6590   -5.2300   26.9470 O   0  0  0  0  0  0  0  0  0  0  0  0
    3.5050   -4.2810   25.8510 C   0  0  0  0  0  0  0  0  0  0  0  0
    3.8830   -2.9620   25.9260 C   0  0  0  0  0  0  0  0  0  0  0  0
    2.1790   -4.5530   25.7310 C   0  0  0  0  0  0  0  0  0  0  0  0
    2.9400   -1.9810   25.8860 C   0  0  0  0  0  0  0  0  0  0  0  0
    1.1710   -3.6730   25.6820 C   0  0  0  0  0  0  0  0  0  0  0  0
    3.2640   -0.6810   25.9590 F   0  0  0  0  0  0  0  0  0  0  0  0
    1.4240   -2.3290   25.7540 C   0  0  0  0  0  0  0  0  0  0  0  0
  1  2  1  0
  2  3  1  6
  1  4  1  0
  1  5  1  0
  4  6  1  0
  2  7  1  0
  5  8  2  0
  5  9  1  0
  3 10  1  0
  3 11  2  0
  7 12  2  0
  7 13  1  0
  8 14  1  0
  9 15  2  0
 14 15  1  0
  6 16  1  0
 15 17  1  0
 16 18  1  0
 13 19  2  0
 12 20  1  0
 10 21  1  0
 16 22  1  0
 16 23  1  0
 17 24  1  0
 17 25  1  0
 17 26  1  0
 18 27  2  0
 18 28  1  0
 19 29  1  0
 20 29  2  0
 21 30  2  0
 21 31  1  0
 22 32  1  0
 23 33  1  0
 30 34  1  0
 31 35  1  0
 25 36  1  0
 30 37  1  0
 31 38  2  0
 32 39  1  0
 33 39  1  0
 34 40  1  0
 39 41  1  0
 37 42  2  0
 38 42  1  0
 41 43  2  0
 41 44  2  0
 41 45  1  0
 45 46  2  0
 45 47  1  0
 46 48  1  0
 47 49  2  0
 48 50  1  0
 48 51  2  0
 49 51  1  0
M  END
