x0691-x0434
     RDKit          3D

 37 40  0  0  0  0  0  0  0  0999 V2000
    4.2740   -6.7930   25.9600 O   0  0  0  0  0  0  0  0  0  0  0  0
    4.8660   -5.4710   25.9190 S   0  0  0  0  0  0  0  0  0  0  0  0
    5.7530   -4.9950   26.9480 O   0  0  0  0  0  0  0  0  0  0  0  0
    3.5090   -4.3160   25.8790 C   0  0  0  0  0  0  0  0  0  0  0  0
    5.6440   -5.2980   24.4390 N   0  0  0  0  0  0  0  0  0  0  0  0
    3.8540   -2.9730   25.9270 C   0  0  0  0  0  0  0  0  0  0  0  0
    2.1760   -4.6110   25.8030 C   0  0  0  0  0  0  0  0  0  0  0  0
    5.1930   -5.9780   23.2480 C   0  0  0  0  0  0  0  0  0  0  0  0
    7.0650   -5.0900   24.1820 C   0  0  0  0  0  0  0  0  0  0  0  0
    2.9460   -1.9580   25.9080 C   0  0  0  0  0  0  0  0  0  0  0  0
    1.1530   -3.6210   25.7780 C   0  0  0  0  0  0  0  0  0  0  0  0
    4.8180   -4.9930   22.3450 C   0  0  0  0  0  0  0  0  0  0  0  0
    7.2820   -4.8870   22.8410 C   0  0  0  0  0  0  0  0  0  0  0  0
    3.3070   -0.6660   25.9610 F   0  0  0  0  0  0  0  0  0  0  0  0
    1.5040   -2.3020   25.8310 C   0  0  0  0  0  0  0  0  0  0  0  0
    6.2060   -4.2970   22.1450 C   0  0  0  0  0  0  0  0  0  0  0  0
    6.3730   -4.3100   20.5880 C   0  0  0  0  0  0  0  0  0  0  0  0
    6.2180   -2.8300   22.7330 C   0  0  0  0  0  0  0  0  0  0  0  0
    5.6730   -5.1320   20.0190 O   0  0  0  0  0  0  0  0  0  0  0  0
    7.2460   -3.3130   19.8150 C   0  0  0  0  0  0  0  0  0  0  0  0
    5.8580   -1.6080   21.8620 C   0  0  0  0  0  0  0  0  0  0  0  0
    6.9230   -0.8950   21.0600 N   0  0  0  0  0  0  0  0  0  0  0  0
    8.1510   -0.3120   21.6440 C   0  0  0  0  0  0  0  0  0  0  0  0
    6.4020   -0.1750   19.9940 C   0  0  0  0  0  0  0  0  0  0  0  0
    8.4070    0.8740   21.4490 O   0  0  0  0  0  0  0  0  0  0  0  0
    9.0220   -1.1080   22.3590 N   0  0  0  0  0  0  0  0  0  0  0  0
    5.2260    0.5920   20.1100 C   0  0  0  0  0  0  0  0  0  0  0  0
    6.9790   -0.1290   18.7260 C   0  0  0  0  0  0  0  0  0  0  0  0
   10.3720   -0.7480   22.5400 C   0  0  0  0  0  0  0  0  0  0  0  0
    4.6300    1.3520   19.1230 C   0  0  0  0  0  0  0  0  0  0  0  0
    6.3680    0.6750   17.6630 N   0  0  0  0  0  0  0  0  0  0  0  0
   10.6380    0.5330   23.0260 C   0  0  0  0  0  0  0  0  0  0  0  0
   11.4560   -1.5600   22.2640 C   0  0  0  0  0  0  0  0  0  0  0  0
    5.2000    1.4110   17.8660 C   0  0  0  0  0  0  0  0  0  0  0  0
   11.9560    0.9820   23.2200 C   0  0  0  0  0  0  0  0  0  0  0  0
   12.7610   -1.1300   22.4570 C   0  0  0  0  0  0  0  0  0  0  0  0
   12.9930    0.1370   22.9310 C   0  0  0  0  0  0  0  0  0  0  0  0
  1  2  2  0
  2  3  2  0
  2  4  1  0
  2  5  1  0
  4  6  2  0
  4  7  1  0
  5  8  1  0
  5  9  1  0
  6 10  1  0
  7 11  2  0
  8 12  1  0
  9 13  1  0
 10 14  1  0
 10 15  2  0
 11 15  1  0
 12 16  1  0
 13 16  1  0
 16 17  1  0
 16 18  1  0
 17 19  2  0
 17 20  1  0
 18 21  1  0
 21 22  1  0
 22 23  1  0
 22 24  1  0
 23 25  2  0
 23 26  1  0
 24 27  2  0
 24 28  1  0
 26 29  1  0
 27 30  1  0
 28 31  2  0
 29 32  2  0
 29 33  1  0
 30 34  2  0
 31 34  1  0
 32 35  1  0
 33 36  2  0
 35 37  2  0
 36 37  1  0
M  END
