x0691-x1093
     RDKit          3D

 40 44  0  0  0  0  0  0  0  0999 V2000
    4.1470   -6.8960   25.8070 O   0  0  0  0  0  0  0  0  0  0  0  0
    4.8050   -5.6190   25.6400 S   0  0  0  0  0  0  0  0  0  0  0  0
    5.7980   -5.1620   26.5870 O   0  0  0  0  0  0  0  0  0  0  0  0
    3.5740   -4.4520   25.6760 C   0  0  0  0  0  0  0  0  0  0  0  0
    5.4950   -5.6570   24.0990 N   0  0  0  0  0  0  0  0  0  0  0  0
    3.8720   -2.9840   25.8160 C   0  0  0  0  0  0  0  0  0  0  0  0
    2.1850   -4.3750   25.6130 C   0  0  0  0  0  0  0  0  0  0  0  0
    4.7320   -5.2080   23.0210 C   0  0  0  0  0  0  0  0  0  0  0  0
    6.8940   -5.3170   23.9370 C   0  0  0  0  0  0  0  0  0  0  0  0
    2.8980   -2.0230   25.8530 C   0  0  0  0  0  0  0  0  0  0  0  0
    0.9830   -3.5020   25.6290 C   0  0  0  0  0  0  0  0  0  0  0  0
    5.3360   -3.9300   22.4610 C   0  0  0  0  0  0  0  0  0  0  0  0
    7.2720   -5.3500   22.5940 C   0  0  0  0  0  0  0  0  0  0  0  0
    3.2800   -0.7430   25.9860 F   0  0  0  0  0  0  0  0  0  0  0  0
    1.5760   -2.2670   25.7690 C   0  0  0  0  0  0  0  0  0  0  0  0
    6.6430   -4.0720   21.9770 C   0  0  0  0  0  0  0  0  0  0  0  0
    6.4290   -4.2140   20.4420 C   0  0  0  0  0  0  0  0  0  0  0  0
    7.7660   -3.0050   22.1740 C   0  0  0  0  0  0  0  0  0  0  0  0
    5.5840   -5.0060   20.0350 O   0  0  0  0  0  0  0  0  0  0  0  0
    7.2480   -3.3630   19.4540 C   0  0  0  0  0  0  0  0  0  0  0  0
    7.3490   -1.6160   22.6790 C   0  0  0  0  0  0  0  0  0  0  0  0
    7.5550   -0.3150   21.7990 C   0  0  1  0  0  0  0  0  0  0  0  0
    8.9920    0.2470   21.8770 C   0  0  0  0  0  0  0  0  0  0  0  0
    6.9260   -0.1250   20.4060 C   0  0  0  0  0  0  0  0  0  0  0  0
    9.1840    1.2980   21.2470 O   0  0  0  0  0  0  0  0  0  0  0  0
    9.9970   -0.2560   22.5960 N   0  0  0  0  0  0  0  0  0  0  0  0
    7.1560   -0.5030   19.0840 C   0  0  0  0  0  0  0  0  0  0  0  0
    5.6560    0.7320   20.2510 C   0  0  0  0  0  0  0  0  0  0  0  0
   10.9820    0.5350   23.2690 C   0  0  0  0  0  0  0  0  0  0  0  0
   10.2650   -1.6740   22.5610 C   0  0  0  0  0  0  0  0  0  0  0  0
    6.2220   -0.0090   18.1000 N   0  0  0  0  0  0  0  0  0  0  0  0
    5.4290    0.6690   18.8390 C   0  0  0  0  0  0  0  0  0  0  0  0
    4.9460    1.4050   21.3900 C   0  0  0  0  0  0  0  0  0  0  0  0
   12.3850   -0.0100   23.4610 C   0  0  0  0  0  0  0  0  0  0  0  0
   11.6240   -1.9180   22.6520 C   0  0  0  0  0  0  0  0  0  0  0  0
    4.2590    1.4230   18.3830 N   0  0  0  0  0  0  0  0  0  0  0  0
    3.8750    2.0690   20.8540 C   0  0  0  0  0  0  0  0  0  0  0  0
   12.2070   -1.3220   23.6550 N   0  0  0  0  0  0  0  0  0  0  0  0
    3.5590    2.0590   19.3350 C   0  0  0  0  0  0  0  0  0  0  0  0
   13.3420   -2.0230   24.0360 C   0  0  0  0  0  0  0  0  0  0  0  0
  1  2  2  0
  2  3  2  0
  2  4  1  0
  2  5  1  0
  4  6  2  0
  4  7  1  0
  5  8  1  0
  5  9  1  0
  6 10  1  0
  7 11  2  0
  8 12  1  0
  9 13  1  0
 10 14  1  0
 10 15  2  0
 11 15  1  0
 12 16  1  0
 13 16  1  0
 16 17  1  0
 16 18  1  0
 17 19  2  0
 17 20  1  0
 18 21  1  0
 22 21  1  6
 22 23  1  0
 22 24  1  0
 23 25  2  0
 23 26  1  0
 24 27  2  0
 24 28  1  0
 26 29  1  0
 26 30  1  0
 27 31  1  0
 28 32  2  0
 31 32  1  0
 28 33  1  0
 29 34  1  0
 30 35  1  0
 32 36  1  0
 33 37  2  0
 34 38  1  0
 35 38  1  0
 36 39  2  0
 37 39  1  0
 38 40  1  0
M  END
