x0691-x2776-x0426-x0978-x2694-x0387
     RDKit          3D

 81 88  0  0  0  0  0  0  0  0999 V2000
    7.0950   -0.9280   21.5770 N   0  0  0  0  0  0  0  0  0  0  0  0
    6.6700    0.4610   21.6550 C   0  0  1  0  0  0  0  0  0  0  0  0
    7.7510    1.4880   21.9310 C   0  0  0  0  0  0  0  0  0  0  0  0
    6.1830   -1.9610   21.2500 C   0  0  0  0  0  0  0  0  0  0  0  0
    8.3210   -1.1380   22.2490 C   0  0  0  0  0  0  0  0  0  0  0  0
    5.7180   -2.8980   22.2440 C   0  0  0  0  0  0  0  0  0  0  0  0
    6.1230    0.7740   20.3060 C   0  0  0  0  0  0  0  0  0  0  0  0
    9.5040   -0.5440   21.8640 C   0  0  0  0  0  0  0  0  0  0  0  0
    8.3300   -1.9480   23.3290 C   0  0  0  0  0  0  0  0  0  0  0  0
    7.7150    2.0320   22.9440 N   0  0  0  0  0  0  0  0  0  0  0  0
    8.6740    1.6990   20.8680 O   0  0  0  0  0  0  0  0  0  0  0  0
    4.8090    1.5030   20.0580 C   0  0  0  0  0  0  0  0  0  0  0  0
    6.8200    0.4080   19.1630 C   0  0  0  0  0  0  0  0  0  0  0  0
   10.7730   -0.7810   22.6430 C   0  0  0  0  0  0  0  0  0  0  0  0
    9.5730   -2.2070   24.0940 C   0  0  0  0  0  0  0  0  0  0  0  0
    6.1670   -4.4090   22.0030 C   0  0  2  0  0  0  0  0  0  0  0  0
    3.8890    1.9570   21.2010 C   0  0  0  0  0  0  0  0  0  0  0  0
    6.7560   -4.2270   20.6400 C   0  0  0  0  0  0  0  0  0  0  0  0
    6.4670    0.6450   17.8960 N   0  0  0  0  0  0  0  0  0  0  0  0
    4.4420    1.7580   18.7520 C   0  0  0  0  0  0  0  0  0  0  0  0
    8.5400    3.1610   23.1630 C   0  0  0  0  0  0  0  0  0  0  0  0
   10.7760   -1.5760   23.6930 C   0  0  0  0  0  0  0  0  0  0  0  0
    5.1580   -5.3620   22.0440 C   0  0  0  0  0  0  0  0  0  0  0  0
    7.2280   -4.8910   23.0030 C   0  0  0  0  0  0  0  0  0  0  0  0
    9.5280   -3.0550   25.1720 N   0  0  0  0  0  0  0  0  0  0  0  0
   12.4010   -0.0420   22.2950 S   0  0  0  0  0  0  0  0  0  0  0  0
    4.4610    2.6540   22.4520 C   0  0  0  0  0  0  0  0  0  0  0  0
    5.9130   -4.3230   19.7710 O   0  0  0  0  0  0  0  0  0  0  0  0
    8.2310   -3.8760   20.4340 C   0  0  0  0  0  0  0  0  0  0  0  0
    5.2140    1.3710   17.6790 C   0  0  0  0  0  0  0  0  0  0  0  0
    9.8510    3.1400   23.5930 C   0  0  0  0  0  0  0  0  0  0  0  0
    8.0260    4.5310   22.9340 C   0  0  0  0  0  0  0  0  0  0  0  0
    4.2670   -5.3480   23.2710 C   0  0  2  0  0  0  0  0  0  0  0  0
    6.5650   -5.7820   24.0260 C   0  0  0  0  0  0  0  0  0  0  0  0
    8.1590   -3.3360   25.6910 C   0  0  0  0  0  0  0  0  0  0  0  0
   10.3360   -4.2130   24.8610 C   0  0  0  0  0  0  0  0  0  0  0  0
   12.1250   -1.5790   24.1770 C   0  0  0  0  0  0  0  0  0  0  0  0
   13.0390   -0.8220   23.5400 C   0  0  0  0  0  0  0  0  0  0  0  0
   10.6740    1.9370   23.9030 C   0  0  0  0  0  0  0  0  0  0  0  0
   12.5830   -2.3090   25.2610 C   0  0  0  0  0  0  0  0  0  0  0  0
    3.5490    2.5070   23.5920 N   0  0  0  0  0  0  0  0  0  0  0  0
    3.0800   -6.4240   23.3090 C   0  0  2  0  0  0  0  0  0  0  0  0
    3.7010   -4.0660   23.2580 O   0  0  0  0  0  0  0  0  0  0  0  0
   10.6140    4.2730   23.8040 C   0  0  0  0  0  0  0  0  0  0  0  0
    8.7650    5.6850   23.1380 C   0  0  0  0  0  0  0  0  0  0  0  0
    5.1740   -5.4150   24.4050 N   0  0  0  0  0  0  0  0  0  0  0  0
    8.2600   -4.6700   26.1010 C   0  0  0  0  0  0  0  0  0  0  0  0
   10.5630   -4.9560   26.0090 C   0  0  0  0  0  0  0  0  0  0  0  0
   13.3530   -3.3510   24.8630 O   0  0  0  0  0  0  0  0  0  0  0  0
    2.1130    2.3810   23.3920 C   0  0  0  0  0  0  0  0  0  0  0  0
    1.7940   -5.7020   23.2980 N   0  0  0  0  0  0  0  0  0  0  0  0
    3.0260   -7.3240   24.3960 C   0  0  1  0  0  0  0  0  0  0  0  0
    4.6880   -5.3550   25.8610 S   0  0  0  0  0  0  0  0  0  0  0  0
   10.1100    5.5920   23.5950 C   0  0  0  0  0  0  0  0  0  0  0  0
    9.3090   -5.1330   26.8140 C   0  0  0  0  0  0  0  0  0  0  0  0
   10.8960    6.6890   23.8310 O   0  0  0  0  0  0  0  0  0  0  0  0
   13.7320   -3.9190   26.0640 C   0  0  0  0  0  0  0  0  0  0  0  0
    1.5570    1.7180   22.2640 O   0  0  0  0  0  0  0  0  0  0  0  0
    2.1540   -8.3440   24.3050 C   0  0  0  0  0  0  0  0  0  0  0  0
    4.3190   -7.8800   24.5200 O   0  0  0  0  0  0  0  0  0  0  0  0
    0.7060   -6.2820   22.4890 C   0  0  0  0  0  0  0  0  0  0  0  0
    5.7380   -4.8410   26.8820 O   0  0  0  0  0  0  0  0  0  0  0  0
    4.4070   -6.7190   26.4270 O   0  0  0  0  0  0  0  0  0  0  0  0
    9.3780   -4.4790   28.0650 O   0  0  0  0  0  0  0  0  0  0  0  0
    1.1770    2.9770   24.3770 C   0  0  0  0  0  0  0  0  0  0  0  0
    3.3550   -4.2120   25.9300 C   0  0  0  0  0  0  0  0  0  0  0  0
   11.8760    6.5600   24.8550 C   0  0  0  0  0  0  0  0  0  0  0  0
    0.8020   -7.3170   21.8480 O   0  0  0  0  0  0  0  0  0  0  0  0
   -0.4380   -5.5860   22.4960 C   0  0  0  0  0  0  0  0  0  0  0  0
    1.5460    3.9420   25.2700 C   0  0  0  0  0  0  0  0  0  0  0  0
   -0.2730    2.4720   24.3630 C   0  0  0  0  0  0  0  0  0  0  0  0
    3.6630   -2.8610   26.0460 C   0  0  0  0  0  0  0  0  0  0  0  0
    2.0210   -4.6050   25.8710 C   0  0  0  0  0  0  0  0  0  0  0  0
    2.8090    4.3980   25.2960 F   0  0  0  0  0  0  0  0  0  0  0  0
   -1.3150    3.0130   25.3140 C   0  0  0  0  0  0  0  0  0  0  0  0
    0.6220    4.5110   26.2050 C   0  0  0  0  0  0  0  0  0  0  0  0
    2.7500   -1.8340   26.1170 C   0  0  0  0  0  0  0  0  0  0  0  0
    0.9870   -3.6690   25.9300 C   0  0  0  0  0  0  0  0  0  0  0  0
    3.1680   -0.5680   26.2330 F   0  0  0  0  0  0  0  0  0  0  0  0
   -0.8500    4.0800   26.2780 C   0  0  0  0  0  0  0  0  0  0  0  0
    1.3970   -2.1370   26.0700 C   0  0  0  0  0  0  0  0  0  0  0  0
  1  2  1  0
  2  3  1  6
  1  4  1  0
  1  5  1  0
  4  6  1  0
  2  7  1  0
  5  8  2  0
  5  9  1  0
  3 10  1  0
  3 11  2  0
  7 12  1  0
  7 13  2  0
  8 14  1  0
  9 15  2  0
 16  6  1  1
 12 17  1  0
 16 18  1  0
 13 19  1  0
 12 20  2  0
 10 21  1  0
 14 22  2  0
 15 22  1  0
 16 23  1  0
 16 24  1  0
 15 25  1  0
 14 26  1  0
 17 27  1  0
 18 28  2  0
 18 29  1  0
 19 30  2  0
 20 30  1  0
 21 31  2  0
 21 32  1  0
 23 33  1  0
 24 34  1  0
 25 35  1  0
 25 36  1  0
 22 37  1  0
 26 38  1  0
 37 38  2  0
 31 39  1  0
 37 40  1  0
 27 41  1  0
 33 42  1  0
 33 43  1  1
 31 44  1  0
 32 45  2  0
 33 46  1  0
 34 46  1  0
 35 47  1  0
 36 48  1  0
 40 49  1  0
 41 50  1  0
 42 51  1  1
 42 52  1  0
 46 53  1  0
 44 54  2  0
 45 54  1  0
 47 55  1  0
 48 55  1  0
 54 56  1  0
 49 57  1  0
 50 58  2  0
 52 59  1  6
 52 60  1  0
 51 61  1  0
 53 62  2  0
 53 63  2  0
 55 64  1  0
 50 65  1  0
 53 66  1  0
 56 67  1  0
 61 68  2  0
 61 69  1  0
 65 70  2  0
 65 71  1  0
 66 72  2  0
 66 73  1  0
 70 74  1  0
 71 75  2  0
 70 76  1  0
 72 77  1  0
 73 78  2  0
 77 79  1  0
 75 80  1  0
 76 80  2  0
 77 81  2  0
 78 81  1  0
M  END
