x0691-x0540-x2581
     RDKit          3D

 62 68  0  0  0  0  0  0  0  0999 V2000
    4.1620   -6.6560   25.7490 O   0  0  0  0  0  0  0  0  0  0  0  0
    4.8820   -5.4030   25.6420 S   0  0  0  0  0  0  0  0  0  0  0  0
    5.8970   -5.1050   26.6320 O   0  0  0  0  0  0  0  0  0  0  0  0
    3.7710   -4.1790   25.7190 C   0  0  0  0  0  0  0  0  0  0  0  0
    5.5230   -5.3240   24.0820 N   0  0  0  0  0  0  0  0  0  0  0  0
    4.0640   -2.7870   25.9440 C   0  0  0  0  0  0  0  0  0  0  0  0
    2.4490   -4.4500   25.5810 C   0  0  0  0  0  0  0  0  0  0  0  0
    4.8240   -5.8540   23.1150 C   0  0  0  0  0  0  0  0  0  0  0  0
    6.5160   -4.3100   23.5750 C   0  0  1  0  0  0  0  0  0  0  0  0
    7.4370   -3.7650   24.6640 C   0  0  0  0  0  0  0  0  0  0  0  0
    3.0700   -1.7690   26.0270 C   0  0  0  0  0  0  0  0  0  0  0  0
    1.3470   -3.4240   25.6560 C   0  0  0  0  0  0  0  0  0  0  0  0
    5.6690   -6.2480   22.0470 C   0  0  0  0  0  0  0  0  0  0  0  0
    7.2730   -4.8850   22.5900 C   0  0  0  0  0  0  0  0  0  0  0  0
    3.4870   -0.5920   26.2390 O   0  0  0  0  0  0  0  0  0  0  0  0
    8.1000   -2.4490   24.1360 C   0  0  0  0  0  0  0  0  0  0  0  0
    1.6950   -2.1030   25.8830 C   0  0  0  0  0  0  0  0  0  0  0  0
    6.5590   -5.3730   21.5650 N   0  0  0  0  0  0  0  0  0  0  0  0
    6.3050   -4.5200   20.5010 C   0  0  0  0  0  0  0  0  0  0  0  0
    9.4500   -2.7800   23.5560 C   0  0  0  0  0  0  0  0  0  0  0  0
    3.9080    0.3330   25.1840 C   0  0  0  0  0  0  0  0  0  0  0  0
    5.2360   -4.5760   19.9060 O   0  0  0  0  0  0  0  0  0  0  0  0
    7.3650   -3.4870   20.0460 C   0  0  0  0  0  0  0  0  0  0  0  0
   10.3540   -1.6590   23.6120 O   0  0  0  0  0  0  0  0  0  0  0  0
    2.8630    1.2090   24.5970 N   0  0  0  0  0  0  0  0  0  0  0  0
    3.0080    2.3280   23.6850 C   0  0  0  0  0  0  0  0  0  0  0  0
    9.9740   -0.4660   22.9020 C   0  0  0  0  0  0  0  0  0  0  0  0
    4.2040    2.7550   23.2030 N   0  0  0  0  0  0  0  0  0  0  0  0
    1.9540    3.0760   23.2310 N   0  0  0  0  0  0  0  0  0  0  0  0
   10.7820    0.7960   23.0360 C   0  0  0  0  0  0  0  0  0  0  0  0
    8.8010   -0.4400   22.0340 C   0  0  0  0  0  0  0  0  0  0  0  0
    5.0970    1.7340   22.6450 C   0  0  0  0  0  0  0  0  0  0  0  0
   10.2620    1.9460   22.2610 C   0  0  0  0  0  0  0  0  0  0  0  0
    8.4440    0.7140   21.3680 C   0  0  0  0  0  0  0  0  0  0  0  0
    0.6700    3.2700   23.9100 C   0  0  0  0  0  0  0  0  0  0  0  0
   10.9740    3.1100   22.3380 N   0  0  0  0  0  0  0  0  0  0  0  0
    4.5600    0.5980   21.8200 C   0  0  0  0  0  0  0  0  0  0  0  0
    9.1770    1.9000   21.4870 N   0  0  0  0  0  0  0  0  0  0  0  0
    0.6750    4.6230   24.6270 C   0  0  0  0  0  0  0  0  0  0  0  0
   -0.3950    3.0270   23.0320 C   0  0  0  0  0  0  0  0  0  0  0  0
   11.1800    4.0240   23.4340 C   0  0  0  0  0  0  0  0  0  0  0  0
    5.1230    0.5230   20.3960 C   0  0  0  0  0  0  0  0  0  0  0  0
   -0.6280    4.9810   25.0330 C   0  0  0  0  0  0  0  0  0  0  0  0
   -1.6670    3.3750   23.5130 C   0  0  0  0  0  0  0  0  0  0  0  0
   10.7970    3.8410   24.5640 O   0  0  0  0  0  0  0  0  0  0  0  0
   11.9070    5.2990   23.0320 C   0  0  0  0  0  0  0  0  0  0  0  0
    6.0760   -0.4030   20.0410 C   0  0  0  0  0  0  0  0  0  0  0  0
    4.6400    1.4720   19.3280 C   0  0  0  0  0  0  0  0  0  0  0  0
   -1.7460    4.5560   24.2820 C   0  0  0  0  0  0  0  0  0  0  0  0
   11.0260    6.4330   23.4570 C   0  0  0  0  0  0  0  0  0  0  0  0
    6.6110   -0.4460   18.6340 C   0  0  0  0  0  0  0  0  0  0  0  0
    5.1990    1.4030   17.9090 C   0  0  0  0  0  0  0  0  0  0  0  0
    9.8150    6.7380   22.8600 C   0  0  0  0  0  0  0  0  0  0  0  0
   11.5300    7.1150   24.4880 C   0  0  0  0  0  0  0  0  0  0  0  0
    6.1440    0.4780   17.5950 N   0  0  0  0  0  0  0  0  0  0  0  0
    9.0010    7.8810   23.3720 C   0  0  0  0  0  0  0  0  0  0  0  0
   10.8590    8.1710   25.0120 C   0  0  0  0  0  0  0  0  0  0  0  0
    9.6380    8.4680   24.4050 C   0  0  0  0  0  0  0  0  0  0  0  0
   11.4090    8.8830   26.0900 C   0  0  0  0  0  0  0  0  0  0  0  0
    8.9510    9.7010   25.0700 C   0  0  0  0  0  0  0  0  0  0  0  0
   10.8080    9.9320   26.6420 C   0  0  0  0  0  0  0  0  0  0  0  0
    9.4790   10.4160   26.1290 C   0  0  0  0  0  0  0  0  0  0  0  0
  1  2  2  0
  2  3  2  0
  2  4  1  0
  2  5  1  0
  4  6  2  0
  4  7  1  0
  5  8  1  0
  5  9  1  0
  9 10  1  1
  6 11  1  0
  7 12  2  0
  8 13  1  0
  9 14  1  0
 11 15  1  0
 10 16  1  0
 11 17  2  0
 12 17  1  0
 13 18  1  0
 14 18  1  0
 18 19  1  0
 16 20  1  0
 15 21  1  0
 19 22  2  0
 19 23  1  0
 20 24  1  0
 21 25  1  0
 25 26  2  3
 24 27  1  0
 26 28  1  0
 26 29  1  0
 27 30  2  0
 27 31  1  0
 28 32  1  0
 30 33  1  0
 31 34  2  0
 29 35  1  0
 33 36  1  0
 32 37  1  0
 33 38  2  0
 34 38  1  0
 35 39  1  0
 35 40  1  0
 36 41  1  0
 37 42  1  0
 39 43  1  0
 40 44  1  0
 41 45  2  0
 41 46  1  0
 42 47  2  0
 42 48  1  0
 43 49  1  0
 44 49  1  0
 46 50  1  0
 47 51  1  0
 48 52  2  0
 50 53  2  0
 50 54  1  0
 51 55  2  0
 52 55  1  0
 53 56  1  0
 54 57  2  0
 56 58  2  0
 57 58  1  0
 57 59  1  0
 58 60  1  0
 59 61  2  0
 60 62  2  0
 61 62  1  0
M  END
