x0691-x0104
     RDKit          3D

 40 44  0  0  0  0  0  0  0  0999 V2000
    3.8850   -6.8300   25.6850 O   0  0  0  0  0  0  0  0  0  0  0  0
    4.6230   -5.5910   25.8060 S   0  0  0  0  0  0  0  0  0  0  0  0
    5.5100   -5.3260   26.9160 O   0  0  0  0  0  0  0  0  0  0  0  0
    3.5300   -4.2680   25.8150 C   0  0  0  0  0  0  0  0  0  0  0  0
    5.5880   -5.4170   24.4390 N   0  0  0  0  0  0  0  0  0  0  0  0
    4.0200   -2.9350   26.0670 C   0  0  0  0  0  0  0  0  0  0  0  0
    2.2060   -4.6690   25.5620 C   0  0  0  0  0  0  0  0  0  0  0  0
    5.2580   -6.0590   23.2180 C   0  0  0  0  0  0  0  0  0  0  0  0
    6.1180   -4.0880   24.1760 C   0  0  0  0  0  0  0  0  0  0  0  0
    2.7940   -1.9890   26.0060 C   0  0  0  0  0  0  0  0  0  0  0  0
    1.2360   -3.7420   25.5430 C   0  0  0  0  0  0  0  0  0  0  0  0
    6.2090   -5.9300   22.1750 C   0  0  0  0  0  0  0  0  0  0  0  0
    5.9510   -3.6610   22.8870 C   0  0  0  0  0  0  0  0  0  0  0  0
    3.0000   -0.6800   26.2050 F   0  0  0  0  0  0  0  0  0  0  0  0
    1.5110   -2.4290   25.7590 C   0  0  0  0  0  0  0  0  0  0  0  0
    6.7410   -4.6200   21.9960 C   0  0  0  0  0  0  0  0  0  0  0  0
    6.5660   -4.1850   20.4870 C   0  0  0  0  0  0  0  0  0  0  0  0
    8.2210   -4.4470   22.4090 C   0  0  0  0  0  0  0  0  0  0  0  0
    5.5230   -4.5340   19.9410 O   0  0  0  0  0  0  0  0  0  0  0  0
    7.6380   -3.3470   19.7320 C   0  0  0  0  0  0  0  0  0  0  0  0
    8.7390   -3.0470   22.8350 C   0  0  0  0  0  0  0  0  0  0  0  0
   10.0730   -2.9890   22.9940 C   0  0  0  0  0  0  0  0  0  0  0  0
   10.7760   -2.0940   22.1420 C   0  0  2  0  0  0  0  0  0  0  0  0
   12.0500   -2.4640   21.8580 C   0  0  0  0  0  0  0  0  0  0  0  0
   11.1100   -0.8640   22.7570 C   0  0  0  0  0  0  0  0  0  0  0  0
   13.1340   -1.5710   22.0680 O   0  0  0  0  0  0  0  0  0  0  0  0
   10.2820   -0.0890   23.4540 C   0  0  0  0  0  0  0  0  0  0  0  0
   12.4500   -0.5570   22.5550 C   0  0  0  0  0  0  0  0  0  0  0  0
   10.8900    1.0830   24.0100 C   0  0  2  0  0  0  0  0  0  0  0  0
   12.9310    0.6730   22.8360 C   0  0  0  0  0  0  0  0  0  0  0  0
    9.9350    2.1420   24.3490 N   0  0  0  0  0  0  0  0  0  0  0  0
   11.9400    1.5770   23.2990 C   0  0  0  0  0  0  0  0  0  0  0  0
   11.8810    2.8850   23.1360 C   0  0  0  0  0  0  0  0  0  0  0  0
   10.6890    3.1930   23.7610 C   0  0  0  0  0  0  0  0  0  0  0  0
   12.7540    3.9040   22.4750 C   0  0  0  0  0  0  0  0  0  0  0  0
   12.5150    5.3940   22.9050 C   0  0  0  0  0  0  0  0  0  0  0  0
   11.3690    5.9830   22.4550 N   0  0  0  0  0  0  0  0  0  0  0  0
   10.2770    6.3320   23.3630 C   0  0  0  0  0  0  0  0  0  0  0  0
    8.9760    6.6210   22.6620 C   0  0  0  0  0  0  0  0  0  0  0  0
   10.3820    6.3850   24.5860 O   0  0  0  0  0  0  0  0  0  0  0  0
  1  2  2  0
  2  3  2  0
  2  4  1  0
  2  5  1  0
  4  6  2  0
  4  7  1  0
  5  8  1  0
  5  9  1  0
  6 10  1  0
  7 11  2  0
  8 12  1  0
  9 13  1  0
 10 14  1  0
 10 15  2  0
 11 15  1  0
 12 16  1  0
 13 16  1  0
 16 17  1  0
 16 18  1  0
 17 19  2  0
 17 20  1  0
 18 21  1  0
 21 22  1  0
 23 22  1  1
 23 24  1  0
 23 25  1  0
 24 26  1  0
 25 27  2  0
 25 28  1  0
 26 28  1  0
 29 27  1  6
 28 30  2  0
 29 31  1  0
 29 32  1  0
 30 32  1  0
 32 33  2  0
 31 34  2  0
 33 34  1  0
 33 35  1  0
 35 36  1  0
 36 37  1  0
 37 38  1  0
 38 39  1  0
 38 40  2  0
M  END
