x0691-x0195
     RDKit          3D

 37 40  0  0  0  0  0  0  0  0999 V2000
    4.1250   -6.7850   25.8940 O   0  0  0  0  0  0  0  0  0  0  0  0
    4.6800   -5.4530   25.7470 S   0  0  0  0  0  0  0  0  0  0  0  0
    5.6620   -4.9240   26.6630 O   0  0  0  0  0  0  0  0  0  0  0  0
    3.3800   -4.3450   25.7630 C   0  0  0  0  0  0  0  0  0  0  0  0
    5.2440   -5.2850   24.1630 N   0  0  0  0  0  0  0  0  0  0  0  0
    3.7640   -3.0290   25.8670 C   0  0  0  0  0  0  0  0  0  0  0  0
    1.9830   -4.5840   25.6820 C   0  0  0  0  0  0  0  0  0  0  0  0
    5.0330   -6.3970   23.1950 C   0  0  0  0  0  0  0  0  0  0  0  0
    6.5540   -4.6230   23.8950 C   0  0  2  0  0  0  0  0  0  0  0  0
    6.2730   -3.1840   23.6000 C   0  0  0  0  0  0  0  0  0  0  0  0
    2.9180   -1.9650   25.9000 C   0  0  0  0  0  0  0  0  0  0  0  0
    1.0770   -3.5230   25.7120 C   0  0  0  0  0  0  0  0  0  0  0  0
    5.3030   -5.9660   21.9060 C   0  0  0  0  0  0  0  0  0  0  0  0
    7.2570   -5.2700   22.9170 C   0  0  0  0  0  0  0  0  0  0  0  0
    3.3820   -0.7120   26.0030 F   0  0  0  0  0  0  0  0  0  0  0  0
    7.2390   -2.1990   24.2860 C   0  0  0  0  0  0  0  0  0  0  0  0
    1.5490   -2.2050   25.8230 C   0  0  0  0  0  0  0  0  0  0  0  0
    6.4630   -5.3590   21.6750 N   0  0  0  0  0  0  0  0  0  0  0  0
    6.4980   -4.4600   20.6100 C   0  0  0  0  0  0  0  0  0  0  0  0
    8.6310   -2.1230   23.6280 C   0  0  0  0  0  0  0  0  0  0  0  0
    5.5020   -4.3600   19.8820 O   0  0  0  0  0  0  0  0  0  0  0  0
    7.7760   -3.6590   20.3840 C   0  0  0  0  0  0  0  0  0  0  0  0
    9.4090   -0.8950   24.0330 C   0  0  0  0  0  0  0  0  0  0  0  0
   10.4960   -0.6600   23.1940 N   0  0  0  0  0  0  0  0  0  0  0  0
   11.0620    0.5690   23.0940 C   0  0  0  0  0  0  0  0  0  0  0  0
   11.3610   -1.6970   23.1420 C   0  0  0  0  0  0  0  0  0  0  0  0
   12.4020    0.6840   22.8790 C   0  0  0  0  0  0  0  0  0  0  0  0
   12.5600   -1.6070   22.4330 C   0  0  0  0  0  0  0  0  0  0  0  0
   10.3290    1.9400   23.2220 C   0  0  0  0  0  0  0  0  0  0  0  0
   13.2130   -0.4300   22.7520 C   0  0  0  0  0  0  0  0  0  0  0  0
   13.1080    2.0280   22.7680 C   0  0  0  0  0  0  0  0  0  0  0  0
   11.0350    3.1660   23.1440 C   0  0  0  0  0  0  0  0  0  0  0  0
   10.1760    4.6410   23.3820 S   0  0  0  0  0  0  0  0  0  0  0  0
   12.4110    3.2200   22.9060 C   0  0  0  0  0  0  0  0  0  0  0  0
   10.2280    4.9500   24.8110 O   0  0  0  0  0  0  0  0  0  0  0  0
    8.9050    4.5760   22.7070 O   0  0  0  0  0  0  0  0  0  0  0  0
   11.0480    5.6890   22.7020 N   0  0  0  0  0  0  0  0  0  0  0  0
  1  2  2  0
  2  3  2  0
  2  4  1  0
  2  5  1  0
  4  6  2  0
  4  7  1  0
  5  8  1  0
  5  9  1  0
  9 10  1  6
  6 11  1  0
  7 12  2  0
  8 13  1  0
  9 14  1  0
 11 15  1  0
 10 16  1  0
 11 17  2  0
 12 17  1  0
 13 18  1  0
 14 18  1  0
 18 19  1  0
 16 20  1  0
 19 21  2  0
 19 22  1  0
 20 23  1  0
 23 24  1  0
 24 25  1  0
 24 26  1  0
 25 27  2  0
 26 28  1  0
 25 29  1  0
 27 30  1  0
 28 30  1  0
 27 31  1  0
 29 32  2  0
 32 33  1  0
 31 34  2  0
 32 34  1  0
 33 35  2  0
 33 36  2  0
 33 37  1  0
M  END
