x0691-x0426-x0967
     RDKit          3D

 52 55  0  0  0  0  0  0  0  0999 V2000
    7.8480    4.8070   22.4360 C   0  0  0  0  0  0  0  0  0  0  0  0
    7.2480    3.4970   23.0490 C   0  0  0  0  0  0  0  0  0  0  0  0
    7.6700    2.3660   22.3960 N   0  0  0  0  0  0  0  0  0  0  0  0
    6.4860    3.5150   24.0110 O   0  0  0  0  0  0  0  0  0  0  0  0
    7.6350    1.0450   23.0440 C   0  0  1  0  0  0  0  0  0  0  0  0
    6.3980    0.2230   22.6030 C   0  0  0  0  0  0  0  0  0  0  0  0
    8.9310    0.2820   22.7030 C   0  0  0  0  0  0  0  0  0  0  0  0
    9.1080   -1.1350   23.1000 N   0  0  0  0  0  0  0  0  0  0  0  0
    9.9990    0.9350   22.0160 O   0  0  0  0  0  0  0  0  0  0  0  0
    6.1580    0.3620   21.1950 C   0  0  0  0  0  0  0  0  0  0  0  0
    9.8520   -1.8950   22.1010 C   0  0  0  0  0  0  0  0  0  0  0  0
    7.2620   -0.1500   20.2580 C   0  0  0  0  0  0  0  0  0  0  0  0
    4.9290    0.9660   20.5360 C   0  0  0  0  0  0  0  0  0  0  0  0
   11.1710   -1.4450   22.0310 C   0  0  0  0  0  0  0  0  0  0  0  0
    3.7450    1.4840   21.2800 C   0  0  0  0  0  0  0  0  0  0  0  0
    7.0530    0.0020   18.8230 C   0  0  0  0  0  0  0  0  0  0  0  0
    4.8220    1.0760   19.2040 C   0  0  0  0  0  0  0  0  0  0  0  0
   12.0960   -1.8090   23.0200 C   0  0  0  0  0  0  0  0  0  0  0  0
    4.2280    2.5340   22.2890 C   0  0  0  0  0  0  0  0  0  0  0  0
    5.9320    0.5770   18.3440 C   0  0  0  0  0  0  0  0  0  0  0  0
    5.7180    0.7540   16.9940 O   0  0  0  0  0  0  0  0  0  0  0  0
   13.3020   -2.3220   24.3880 Br  0  0  0  0  0  0  0  0  0  0  0  0
    2.9590    2.8650   22.9980 N   0  0  0  0  0  0  0  0  0  0  0  0
    2.3590    2.1080   23.9060 C   0  0  0  0  0  0  0  0  0  0  0  0
    2.7500    0.9060   24.1870 N   0  0  0  0  0  0  0  0  0  0  0  0
    1.2020    2.6880   24.6370 C   0  0  0  0  0  0  0  0  0  0  0  0
    2.1790    0.1170   25.1510 C   0  0  0  0  0  0  0  0  0  0  0  0
    1.4060    3.8570   25.3430 C   0  0  0  0  0  0  0  0  0  0  0  0
   -0.0450    2.0740   24.5960 C   0  0  0  0  0  0  0  0  0  0  0  0
    2.6260    4.4120   25.3490 F   0  0  0  0  0  0  0  0  0  0  0  0
    3.1180   -0.7100   25.8580 O   0  0  0  0  0  0  0  0  0  0  0  0
   -1.2480    2.6680   25.3360 C   0  0  0  0  0  0  0  0  0  0  0  0
    0.3240    4.5490   26.1130 C   0  0  0  0  0  0  0  0  0  0  0  0
   -0.9680    4.0000   26.1280 C   0  0  0  0  0  0  0  0  0  0  0  0
    2.7300   -2.0050   25.9920 C   0  0  0  0  0  0  0  0  0  0  0  0
    3.7290   -3.0080   25.9090 C   0  0  0  0  0  0  0  0  0  0  0  0
    1.4060   -2.4140   26.2040 C   0  0  0  0  0  0  0  0  0  0  0  0
    3.3860   -4.3640   26.0350 C   0  0  0  0  0  0  0  0  0  0  0  0
    1.0950   -3.8760   26.3340 C   0  0  0  0  0  0  0  0  0  0  0  0
    4.7910   -5.5490   25.9020 S   0  0  0  0  0  0  0  0  0  0  0  0
    2.0870   -4.8400   26.2460 C   0  0  0  0  0  0  0  0  0  0  0  0
    4.1980   -6.8680   25.9970 O   0  0  0  0  0  0  0  0  0  0  0  0
    5.8680   -5.1910   26.7940 O   0  0  0  0  0  0  0  0  0  0  0  0
    5.3760   -5.4060   24.3220 N   0  0  0  0  0  0  0  0  0  0  0  0
    4.7380   -6.0270   23.2730 C   0  0  0  0  0  0  0  0  0  0  0  0
    6.1590   -4.2220   23.9640 C   0  0  0  0  0  0  0  0  0  0  0  0
    5.7180   -6.3760   22.1430 C   0  0  0  0  0  0  0  0  0  0  0  0
    7.2370   -4.5840   22.9150 C   0  0  0  0  0  0  0  0  0  0  0  0
    6.5780   -5.2520   21.7960 N   0  0  0  0  0  0  0  0  0  0  0  0
    6.2740   -4.5760   20.5980 C   0  0  0  0  0  0  0  0  0  0  0  0
    5.2620   -4.8490   19.9690 O   0  0  0  0  0  0  0  0  0  0  0  0
    7.1860   -3.4840   20.0430 C   0  0  0  0  0  0  0  0  0  0  0  0
  1  2  1  0
  2  3  1  0
  2  4  2  0
  3  5  1  0
  5  6  1  6
  5  7  1  0
  7  8  1  0
  7  9  2  0
  6 10  1  0
  8 11  1  0
 10 12  2  0
 10 13  1  0
 11 14  1  0
 13 15  1  0
 12 16  1  0
 13 17  2  0
 14 18  3  0
 15 19  1  0
 16 20  2  0
 17 20  1  0
 20 21  1  0
 18 22  1  0
 19 23  1  0
 23 24  1  0
 24 25  2  3
 24 26  1  0
 25 27  1  0
 26 28  2  0
 26 29  1  0
 28 30  1  0
 27 31  1  0
 29 32  2  0
 28 33  1  0
 32 34  1  0
 33 34  2  0
 31 35  1  0
 35 36  2  0
 35 37  1  0
 36 38  1  0
 37 39  2  0
 40 38  1  0
 38 41  2  0
 39 41  1  0
 40 42  2  0
 40 43  2  0
 40 44  1  0
 44 45  1  0
 44 46  1  0
 45 47  1  0
 46 48  1  0
 47 49  1  0
 48 49  1  0
 49 50  1  0
 50 51  2  0
 50 52  1  0
M  END
