x0691-x2193-x2649-x2694
     RDKit          3D

 57 62  0  0  0  0  0  0  0  0999 V2000
    7.9700   -0.9220   22.0040 N   0  0  0  0  0  0  0  0  0  0  0  0
    7.1720    0.3500   21.7710 C   0  0  1  0  0  0  0  0  0  0  0  0
    8.1190    1.5840   21.8270 C   0  0  0  0  0  0  0  0  0  0  0  0
    9.1370   -0.8700   22.7200 C   0  0  1  0  0  0  0  0  0  0  0  0
    6.4650    0.4960   20.4530 C   0  0  0  0  0  0  0  0  0  0  0  0
    8.9920   -1.3900   23.9660 N   0  0  0  0  0  0  0  0  0  0  0  0
   10.1830   -1.4470   22.0340 C   0  0  0  0  0  0  0  0  0  0  0  0
    7.7790    2.5700   22.7240 N   0  0  0  0  0  0  0  0  0  0  0  0
    9.1030    1.7120   21.1190 O   0  0  0  0  0  0  0  0  0  0  0  0
    5.1460    1.2580   20.4410 C   0  0  0  0  0  0  0  0  0  0  0  0
    6.9680   -0.0390   19.1040 C   0  0  0  0  0  0  0  0  0  0  0  0
   10.1760   -1.6900   24.2890 O   0  0  0  0  0  0  0  0  0  0  0  0
   10.8740   -1.9750   23.0940 C   0  0  2  0  0  0  0  0  0  0  0  0
    8.4380   -2.6530   24.0080 C   0  0  0  0  0  0  0  0  0  0  0  0
   12.3240   -1.4470   23.2940 C   0  0  0  0  0  0  0  0  0  0  0  0
    4.4110    1.8740   21.5840 C   0  0  0  0  0  0  0  0  0  0  0  0
    6.3400    0.1320   17.8930 N   0  0  0  0  0  0  0  0  0  0  0  0
    4.4990    1.4170   19.0950 C   0  0  0  0  0  0  0  0  0  0  0  0
    8.5620    3.6700   23.0390 C   0  0  0  0  0  0  0  0  0  0  0  0
    9.1940   -3.5140   24.9420 N   0  0  0  0  0  0  0  0  0  0  0  0
   12.4320   -0.0840   23.5760 C   0  0  0  0  0  0  0  0  0  0  0  0
   13.0560   -1.7170   21.9880 C   0  0  0  0  0  0  0  0  0  0  0  0
   12.9580   -2.1720   24.3270 C   0  0  0  0  0  0  0  0  0  0  0  0
    5.1820    0.8190   17.8720 C   0  0  0  0  0  0  0  0  0  0  0  0
    9.8070    3.4500   23.6570 C   0  0  0  0  0  0  0  0  0  0  0  0
    8.1880    4.9850   22.7760 C   0  0  0  0  0  0  0  0  0  0  0  0
    8.7040   -3.7350   26.2130 C   0  0  0  0  0  0  0  0  0  0  0  0
    9.7750   -4.7130   24.3200 C   0  0  0  0  0  0  0  0  0  0  0  0
   10.3130    2.0850   23.9790 C   0  0  0  0  0  0  0  0  0  0  0  0
   10.6100    4.5450   23.9840 C   0  0  0  0  0  0  0  0  0  0  0  0
    9.0210    6.0470   23.1240 C   0  0  0  0  0  0  0  0  0  0  0  0
    8.0920   -4.8800   26.7110 C   0  0  1  0  0  0  0  0  0  0  0  0
    9.5880   -5.8350   25.1320 C   0  0  0  0  0  0  0  0  0  0  0  0
   10.2510    5.8550   23.7390 C   0  0  0  0  0  0  0  0  0  0  0  0
    6.7580   -4.6240   27.0490 C   0  0  0  0  0  0  0  0  0  0  0  0
    8.3150   -5.9080   25.8800 N   0  0  0  0  0  0  0  0  0  0  0  0
   10.9870    6.9610   24.0470 O   0  0  0  0  0  0  0  0  0  0  0  0
    5.6760   -5.6310   26.8720 N   0  0  0  0  0  0  0  0  0  0  0  0
   11.8790    6.8060   25.1460 C   0  0  0  0  0  0  0  0  0  0  0  0
    4.5030   -5.7010   25.6000 S   0  0  1  0  0  0  0  0  0  0  0  0
    3.6670   -6.8640   25.4090 O   0  0  0  0  0  0  0  0  0  0  0  0
    3.4580   -4.4090   25.7120 C   0  0  0  0  0  0  0  0  0  0  0  0
    5.2450   -5.5150   24.0830 N   0  0  0  0  0  0  0  0  0  0  0  0
    3.9060   -3.0880   25.8120 C   0  0  0  0  0  0  0  0  0  0  0  0
    1.9420   -4.6460   25.6980 C   0  0  0  0  0  0  0  0  0  0  0  0
    4.5800   -5.9880   22.8760 C   0  0  0  0  0  0  0  0  0  0  0  0
    6.6720   -5.2320   23.8820 C   0  0  0  0  0  0  0  0  0  0  0  0
    2.9210   -1.9290   25.9050 C   0  0  0  0  0  0  0  0  0  0  0  0
    0.9090   -3.5030   25.7910 C   0  0  0  0  0  0  0  0  0  0  0  0
    5.6100   -6.3660   21.8160 C   0  0  0  0  0  0  0  0  0  0  0  0
    6.9910   -4.5760   22.6910 C   0  0  0  0  0  0  0  0  0  0  0  0
    3.3690   -0.6650   26.0000 F   0  0  0  0  0  0  0  0  0  0  0  0
    1.5340   -2.0960   25.8990 C   0  0  0  0  0  0  0  0  0  0  0  0
    6.4150   -5.1870   21.5250 N   0  0  0  0  0  0  0  0  0  0  0  0
    6.2370   -4.3590   20.3960 C   0  0  0  0  0  0  0  0  0  0  0  0
    5.1590   -4.4110   19.8290 O   0  0  0  0  0  0  0  0  0  0  0  0
    7.3080   -3.3900   19.8360 C   0  0  0  0  0  0  0  0  0  0  0  0
  2  1  1  6
  2  3  1  0
  4  1  1  6
  2  5  1  0
  4  6  1  0
  4  7  1  0
  3  8  1  0
  3  9  2  0
  5 10  2  0
  5 11  1  0
  6 12  1  0
  7 13  1  0
 12 13  1  0
  6 14  1  0
 13 15  1  1
 10 16  1  0
 11 17  2  0
 10 18  1  0
  8 19  1  0
 14 20  1  0
 15 21  1  0
 15 22  1  0
 15 23  1  0
 17 24  1  0
 18 24  2  0
 19 25  2  0
 19 26  1  0
 20 27  1  0
 20 28  1  0
 25 29  1  0
 25 30  1  0
 26 31  2  0
 27 32  1  0
 28 33  1  0
 30 34  2  0
 31 34  1  0
 32 35  1  6
 32 36  1  0
 33 36  1  0
 34 37  1  0
 35 38  1  0
 37 39  1  0
 38 40  2  0
 40 41  2  0
 40 42  1  1
 40 43  1  0
 42 44  2  0
 42 45  1  0
 43 46  1  0
 43 47  1  0
 44 48  1  0
 45 49  2  0
 46 50  1  0
 47 51  1  0
 48 52  1  0
 48 53  2  0
 49 53  1  0
 50 54  1  0
 51 54  1  0
 54 55  1  0
 55 56  2  0
 55 57  1  0
M  END
