x0691-x2608
     RDKit          3D

 37 40  0  0  0  0  0  0  0  0999 V2000
    4.1680   -6.8200   25.9250 O   0  0  0  0  0  0  0  0  0  0  0  0
    4.7540   -5.4960   25.8630 S   0  0  0  0  0  0  0  0  0  0  0  0
    5.6450   -5.0010   26.8830 O   0  0  0  0  0  0  0  0  0  0  0  0
    3.4630   -4.3700   25.7930 C   0  0  0  0  0  0  0  0  0  0  0  0
    5.5400   -5.3440   24.3770 N   0  0  0  0  0  0  0  0  0  0  0  0
    3.8530   -3.0480   25.9000 C   0  0  0  0  0  0  0  0  0  0  0  0
    2.0750   -4.6010   25.6480 C   0  0  0  0  0  0  0  0  0  0  0  0
    4.7920   -5.7510   23.1740 C   0  0  0  0  0  0  0  0  0  0  0  0
    6.6120   -4.4360   24.2520 C   0  0  0  0  0  0  0  0  0  0  0  0
    2.9650   -2.0020   25.8750 C   0  0  0  0  0  0  0  0  0  0  0  0
    1.1470   -3.5680   25.6190 C   0  0  0  0  0  0  0  0  0  0  0  0
    5.4570   -5.5720   21.9780 C   0  0  0  0  0  0  0  0  0  0  0  0
    7.2780   -4.3920   23.0150 C   0  0  0  0  0  0  0  0  0  0  0  0
    3.4000   -0.7390   25.9840 F   0  0  0  0  0  0  0  0  0  0  0  0
    1.6000   -2.2510   25.7370 C   0  0  0  0  0  0  0  0  0  0  0  0
    6.1010   -4.3290   22.0320 C   0  0  0  0  0  0  0  0  0  0  0  0
    6.6880   -4.1310   20.6440 C   0  0  0  0  0  0  0  0  0  0  0  0
    5.3880   -2.9830   22.1800 C   0  0  0  0  0  0  0  0  0  0  0  0
    5.8430   -4.1890   19.7620 O   0  0  0  0  0  0  0  0  0  0  0  0
    8.1890   -3.8640   20.5040 C   0  0  0  0  0  0  0  0  0  0  0  0
    6.2300   -1.6550   22.2420 C   0  0  0  0  0  0  0  0  0  0  0  0
    6.8270   -1.0430   21.2120 N   0  0  0  0  0  0  0  0  0  0  0  0
    8.0150   -0.5520   21.5300 C   0  0  0  0  0  0  0  0  0  0  0  0
    6.2010   -0.3390   20.2330 C   0  0  0  0  0  0  0  0  0  0  0  0
    8.8520   -1.3060   22.3310 N   0  0  0  0  0  0  0  0  0  0  0  0
    8.1710    0.5680   21.0300 O   0  0  0  0  0  0  0  0  0  0  0  0
    6.6990   -0.3000   18.9250 C   0  0  0  0  0  0  0  0  0  0  0  0
    5.0430    0.3970   20.4820 C   0  0  0  0  0  0  0  0  0  0  0  0
   10.1550   -0.8550   22.5590 C   0  0  0  0  0  0  0  0  0  0  0  0
    6.0790    0.4640   17.8450 N   0  0  0  0  0  0  0  0  0  0  0  0
    4.4370    1.1380   19.4400 C   0  0  0  0  0  0  0  0  0  0  0  0
   11.3310   -1.5440   22.7880 C   0  0  0  0  0  0  0  0  0  0  0  0
   10.3670    0.8230   22.5520 S   0  0  0  0  0  0  0  0  0  0  0  0
    4.9710    1.1450   18.1920 C   0  0  0  0  0  0  0  0  0  0  0  0
   12.0480    0.6470   22.8230 C   0  0  0  0  0  0  0  0  0  0  0  0
   12.4000   -0.6920   22.9400 C   0  0  0  0  0  0  0  0  0  0  0  0
   12.8580    1.8690   22.8850 C   0  0  0  0  0  0  0  0  0  0  0  0
  1  2  2  0
  2  3  2  0
  2  4  1  0
  2  5  1  0
  4  6  2  0
  4  7  1  0
  5  8  1  0
  5  9  1  0
  6 10  1  0
  7 11  2  0
  8 12  1  0
  9 13  1  0
 10 14  1  0
 10 15  2  0
 11 15  1  0
 12 16  1  0
 13 16  1  0
 16 17  1  0
 16 18  1  0
 17 19  2  0
 17 20  1  0
 18 21  1  0
 21 22  1  0
 22 23  1  0
 22 24  1  0
 23 25  1  0
 23 26  2  0
 24 27  2  0
 24 28  1  0
 25 29  1  0
 27 30  1  0
 28 31  2  0
 29 32  2  0
 29 33  1  0
 30 34  2  0
 31 34  1  0
 33 35  1  0
 32 36  1  0
 35 36  2  0
 35 37  1  0
M  END
