x0691-x0978-x2694-x0354
     RDKit          3D

 70 75  0  0  0  0  0  0  0  0999 V2000
    7.3940   -0.9430   21.9410 N   0  0  0  0  0  0  0  0  0  0  0  0
    6.9990    0.3770   21.7490 C   0  0  1  0  0  0  0  0  0  0  0  0
    8.1220    1.4280   21.8330 C   0  0  0  0  0  0  0  0  0  0  0  0
    6.2550   -1.9050   21.9110 C   0  0  0  0  0  0  0  0  0  0  0  0
    8.6070   -1.0670   22.7130 C   0  0  1  0  0  0  0  0  0  0  0  0
    6.1270   -3.0440   22.7410 C   0  0  0  0  0  0  0  0  0  0  0  0
    6.4000    0.6800   20.4180 C   0  0  0  0  0  0  0  0  0  0  0  0
    8.7040   -1.9900   23.8510 N   0  0  0  0  0  0  0  0  0  0  0  0
    9.9890   -1.2900   22.1340 C   0  0  0  0  0  0  0  0  0  0  0  0
    7.8180    2.4370   22.7510 N   0  0  0  0  0  0  0  0  0  0  0  0
    9.1360    1.4280   21.1640 O   0  0  0  0  0  0  0  0  0  0  0  0
    8.1050   -1.5310   24.9770 N   0  0  0  0  0  0  0  0  0  0  0  0
    5.3220    1.4770   20.1710 C   0  0  0  0  0  0  0  0  0  0  0  0
    6.8310    0.2090   19.0170 C   0  0  0  0  0  0  0  0  0  0  0  0
   10.1390   -2.2150   24.0580 O   0  0  0  0  0  0  0  0  0  0  0  0
   10.8530   -1.2770   23.2260 C   0  0  1  0  0  0  0  0  0  0  0  0
    6.3980   -4.4600   22.0610 C   0  0  2  0  0  0  0  0  0  0  0  0
   12.3480   -1.4570   23.2010 C   0  0  0  0  0  0  0  0  0  0  0  0
    8.9540   -0.6960   25.6310 C   0  0  0  0  0  0  0  0  0  0  0  0
    6.7330   -4.1640   20.6040 C   0  0  0  0  0  0  0  0  0  0  0  0
    6.2820    0.5240   17.8210 N   0  0  0  0  0  0  0  0  0  0  0  0
    4.6990    1.8390   18.8770 C   0  0  0  0  0  0  0  0  0  0  0  0
    8.5770    3.5820   23.0370 C   0  0  0  0  0  0  0  0  0  0  0  0
    5.3240   -5.5590   22.0570 C   0  0  0  0  0  0  0  0  0  0  0  0
    7.4530   -5.0940   22.9260 C   0  0  0  0  0  0  0  0  0  0  0  0
   12.9000   -0.1580   23.4150 C   0  0  0  0  0  0  0  0  0  0  0  0
   12.8590   -1.8850   21.9990 C   0  0  0  0  0  0  0  0  0  0  0  0
   12.8480   -2.4150   24.3190 C   0  0  0  0  0  0  0  0  0  0  0  0
    8.4570   -0.0740   26.9160 C   0  0  0  0  0  0  0  0  0  0  0  0
    5.8200   -4.3530   19.8150 O   0  0  0  0  0  0  0  0  0  0  0  0
    8.1090   -3.5980   20.2590 C   0  0  0  0  0  0  0  0  0  0  0  0
    5.1580    1.3910   17.7100 C   0  0  0  0  0  0  0  0  0  0  0  0
    9.8160    3.3750   23.6570 C   0  0  0  0  0  0  0  0  0  0  0  0
    8.1680    4.8260   22.7430 C   0  0  0  0  0  0  0  0  0  0  0  0
    4.4130   -5.4760   23.2720 C   0  0  2  0  0  0  0  0  0  0  0  0
    6.8320   -5.2140   24.3230 C   0  0  0  0  0  0  0  0  0  0  0  0
   10.3170    2.0050   24.0010 C   0  0  0  0  0  0  0  0  0  0  0  0
    7.1650   -0.4140   27.4050 O   0  0  0  0  0  0  0  0  0  0  0  0
    3.1400   -6.4520   23.2260 C   0  0  2  0  0  0  0  0  0  0  0  0
    3.7760   -4.2340   22.9970 O   0  0  0  0  0  0  0  0  0  0  0  0
   10.6820    4.5240   23.9980 C   0  0  0  0  0  0  0  0  0  0  0  0
    8.9180    6.0960   23.0240 C   0  0  0  0  0  0  0  0  0  0  0  0
    5.3380   -5.4720   24.4570 N   0  0  0  0  0  0  0  0  0  0  0  0
    2.0640   -5.6820   23.1660 N   0  0  0  0  0  0  0  0  0  0  0  0
    3.0750   -7.3250   24.3090 C   0  0  1  0  0  0  0  0  0  0  0  0
    4.7890   -5.3830   26.0550 S   0  0  0  0  0  0  0  0  0  0  0  0
   10.2030    5.9140   23.6730 C   0  0  0  0  0  0  0  0  0  0  0  0
    6.6590    0.4360   28.3310 C   0  0  0  0  0  0  0  0  0  0  0  0
   10.9860    7.0500   23.9940 O   0  0  0  0  0  0  0  0  0  0  0  0
    2.1460   -8.2860   24.3470 C   0  0  0  0  0  0  0  0  0  0  0  0
    4.3250   -7.9980   24.4090 O   0  0  0  0  0  0  0  0  0  0  0  0
    0.8260   -6.2670   22.5260 C   0  0  0  0  0  0  0  0  0  0  0  0
    4.2610   -6.6660   26.4660 O   0  0  0  0  0  0  0  0  0  0  0  0
    5.8090   -4.7740   26.8660 O   0  0  0  0  0  0  0  0  0  0  0  0
    6.7250    1.7850   27.9370 C   0  0  0  0  0  0  0  0  0  0  0  0
    6.1110    0.0870   29.5760 C   0  0  0  0  0  0  0  0  0  0  0  0
    3.4830   -4.1840   25.9770 C   0  0  0  0  0  0  0  0  0  0  0  0
   11.8830    6.8740   25.0820 C   0  0  0  0  0  0  0  0  0  0  0  0
    0.8310   -7.3330   21.9150 O   0  0  0  0  0  0  0  0  0  0  0  0
   -0.4290   -5.4040   22.7040 C   0  0  0  0  0  0  0  0  0  0  0  0
    6.2320    2.9460   28.8000 C   0  0  0  0  0  0  0  0  0  0  0  0
    5.5930    1.1550   30.5150 C   0  0  0  0  0  0  0  0  0  0  0  0
    3.7800   -2.8140   25.9560 C   0  0  0  0  0  0  0  0  0  0  0  0
    2.1150   -4.5490   25.9320 C   0  0  0  0  0  0  0  0  0  0  0  0
    5.6430    2.6180   30.1560 C   0  0  0  0  0  0  0  0  0  0  0  0
    2.7710   -1.8470   25.8980 C   0  0  0  0  0  0  0  0  0  0  0  0
    1.1090   -3.5840   25.8720 C   0  0  0  0  0  0  0  0  0  0  0  0
    5.1500    3.6930   31.0680 C   0  0  0  0  0  0  0  0  0  0  0  0
    3.0910   -0.5430   25.8840 F   0  0  0  0  0  0  0  0  0  0  0  0
    1.4360   -2.2310   25.8570 C   0  0  0  0  0  0  0  0  0  0  0  0
  1  2  1  0
  2  3  1  6
  1  4  1  0
  5  1  1  6
  4  6  1  0
  2  7  1  0
  5  8  1  0
  5  9  1  0
  3 10  1  0
  3 11  2  0
  8 12  1  0
  7 13  2  0
  7 14  1  0
  8 15  1  0
  9 16  1  0
 15 16  1  0
 17  6  1  1
 16 18  1  6
 12 19  2  3
 17 20  1  0
 14 21  2  0
 13 22  1  0
 10 23  1  0
 17 24  1  0
 17 25  1  0
 18 26  1  0
 18 27  1  0
 18 28  1  0
 19 29  1  0
 20 30  2  0
 20 31  1  0
 21 32  1  0
 22 32  2  0
 23 33  2  0
 23 34  1  0
 24 35  1  0
 25 36  1  0
 33 37  1  0
 29 38  1  0
 35 39  1  0
 35 40  1  6
 33 41  1  0
 34 42  2  0
 35 43  1  0
 36 43  1  0
 39 44  1  1
 39 45  1  0
 43 46  1  0
 41 47  2  0
 42 47  1  0
 38 48  1  0
 47 49  1  0
 45 50  1  6
 45 51  1  0
 44 52  1  0
 46 53  2  0
 46 54  2  0
 48 55  2  0
 48 56  1  0
 46 57  1  0
 49 58  1  0
 52 59  2  0
 52 60  1  0
 55 61  1  0
 56 62  2  0
 57 63  2  0
 57 64  1  0
 61 65  2  0
 62 65  1  0
 63 66  1  0
 64 67  2  0
 65 68  1  0
 66 69  1  0
 66 70  2  0
 67 70  1  0
M  END
