x0691-x0426-x2649-x0978-x2694-x0387
     RDKit          3D

 80 87  0  0  0  0  0  0  0  0999 V2000
    7.3510   -0.9070   21.7260 N   0  0  0  0  0  0  0  0  0  0  0  0
    6.9030    0.3980   21.7100 C   0  0  1  0  0  0  0  0  0  0  0  0
    7.9580    1.5470   21.8060 C   0  0  0  0  0  0  0  0  0  0  0  0
    6.1740   -1.8690   21.7270 C   0  0  0  0  0  0  0  0  0  0  0  0
    8.5880   -1.2720   22.2190 C   0  0  2  0  0  0  0  0  0  0  0  0
    6.2230   -2.9840   22.5970 C   0  0  0  0  0  0  0  0  0  0  0  0
    6.0990    0.7270   20.4580 C   0  0  0  0  0  0  0  0  0  0  0  0
    8.5200   -1.2850   23.6810 N   0  0  0  0  0  0  0  0  0  0  0  0
    9.8880   -0.7580   22.0420 C   0  0  0  0  0  0  0  0  0  0  0  0
    7.7350    2.5750   22.7810 N   0  0  0  0  0  0  0  0  0  0  0  0
    8.8640    1.4770   20.9940 O   0  0  0  0  0  0  0  0  0  0  0  0
    4.8830    1.4460   20.4750 C   0  0  0  0  0  0  0  0  0  0  0  0
    6.7310    0.2330   19.2860 C   0  0  0  0  0  0  0  0  0  0  0  0
    9.7500   -1.6610   24.0610 C   0  0  2  0  0  0  0  0  0  0  0  0
   10.6660   -1.2840   23.0600 C   0  0  2  0  0  0  0  0  0  0  0  0
    6.2810   -4.4710   22.0350 C   0  0  2  0  0  0  0  0  0  0  0  0
    4.3130    1.9400   21.8260 C   0  0  2  0  0  0  0  0  0  0  0  0
    6.4380   -4.4170   20.5220 C   0  0  0  0  0  0  0  0  0  0  0  0
    6.2430    0.4080   18.0080 N   0  0  0  0  0  0  0  0  0  0  0  0
    4.3600    1.6390   19.2160 C   0  0  0  0  0  0  0  0  0  0  0  0
    8.5390    3.6970   23.0290 C   0  0  0  0  0  0  0  0  0  0  0  0
    9.5550   -3.0180   24.5810 N   0  0  0  0  0  0  0  0  0  0  0  0
   11.8520   -0.3970   23.5190 C   0  0  1  0  0  0  0  0  0  0  0  0
   11.3740   -2.3130   22.2310 C   0  0  0  0  0  0  0  0  0  0  0  0
    5.1540   -5.3240   22.1910 C   0  0  0  0  0  0  0  0  0  0  0  0
    7.2910   -5.2390   22.8820 C   0  0  0  0  0  0  0  0  0  0  0  0
   12.4680   -0.8430   24.8200 C   0  0  0  0  0  0  0  0  0  0  0  0
    2.8410    2.1580   22.0980 N   0  0  0  0  0  0  0  0  0  0  0  0
    4.9490    3.3030   21.9860 C   0  0  0  0  0  0  0  0  0  0  0  0
    5.7260   -5.2210   19.9810 O   0  0  0  0  0  0  0  0  0  0  0  0
    7.3240   -3.4170   19.7300 C   0  0  0  0  0  0  0  0  0  0  0  0
    5.0510    1.1160   17.9210 C   0  0  0  0  0  0  0  0  0  0  0  0
    9.7070    3.4660   23.7030 C   0  0  0  0  0  0  0  0  0  0  0  0
    8.2110    4.9930   22.6320 C   0  0  0  0  0  0  0  0  0  0  0  0
    8.4080   -3.0480   25.4960 C   0  0  0  0  0  0  0  0  0  0  0  0
   10.7680   -3.5030   25.1660 C   0  0  0  0  0  0  0  0  0  0  0  0
   12.9630   -1.8770   21.6480 S   0  0  0  0  0  0  0  0  0  0  0  0
   12.9930   -0.4570   22.5890 C   0  0  0  0  0  0  0  0  0  0  0  0
    4.3900   -5.3960   23.3330 C   0  0  2  0  0  0  0  0  0  0  0  0
    6.7780   -5.2780   24.2120 C   0  0  0  0  0  0  0  0  0  0  0  0
   10.1460    2.1230   24.1750 C   0  0  0  0  0  0  0  0  0  0  0  0
   13.1600   -2.0540   24.7710 C   0  0  0  0  0  0  0  0  0  0  0  0
    2.4960    2.0540   23.4390 C   0  0  0  0  0  0  0  0  0  0  0  0
    3.0970   -6.3490   23.2890 C   0  0  2  0  0  0  0  0  0  0  0  0
    3.8760   -4.0950   23.5150 O   0  0  0  0  0  0  0  0  0  0  0  0
   10.6950    4.5960   24.0470 C   0  0  0  0  0  0  0  0  0  0  0  0
    9.0230    6.1050   22.8960 C   0  0  0  0  0  0  0  0  0  0  0  0
    8.2550   -4.0530   26.3840 C   0  0  0  0  0  0  0  0  0  0  0  0
   10.5990   -4.7600   25.9880 C   0  0  0  0  0  0  0  0  0  0  0  0
    5.3430   -5.7430   24.4340 N   0  0  0  0  0  0  0  0  0  0  0  0
    3.2150    1.1860   24.2990 O   0  0  0  0  0  0  0  0  0  0  0  0
    2.0060   -5.5630   23.1610 N   0  0  0  0  0  0  0  0  0  0  0  0
    3.0950   -7.4340   24.3580 C   0  0  1  0  0  0  0  0  0  0  0  0
    4.8090   -5.5640   26.0690 S   0  0  0  0  0  0  0  0  0  0  0  0
   10.2510    5.9990   23.5860 C   0  0  0  0  0  0  0  0  0  0  0  0
    1.3710    2.8010   24.1380 C   0  0  0  0  0  0  0  0  0  0  0  0
    9.3380   -4.8870   26.8130 C   0  0  0  0  0  0  0  0  0  0  0  0
   10.9640    7.1340   23.8000 O   0  0  0  0  0  0  0  0  0  0  0  0
    9.6150   -4.5990   28.1740 O   0  0  0  0  0  0  0  0  0  0  0  0
    2.1140   -8.4150   24.2190 C   0  0  0  0  0  0  0  0  0  0  0  0
    4.1930   -7.9800   24.3820 O   0  0  0  0  0  0  0  0  0  0  0  0
    0.9020   -6.1410   22.6170 C   0  0  0  0  0  0  0  0  0  0  0  0
    4.2580   -6.8100   26.5250 O   0  0  0  0  0  0  0  0  0  0  0  0
    5.8430   -4.9750   26.8730 O   0  0  0  0  0  0  0  0  0  0  0  0
    1.6470    3.8350   25.0650 C   0  0  0  0  0  0  0  0  0  0  0  0
    0.0390    2.4650   23.8960 C   0  0  0  0  0  0  0  0  0  0  0  0
    3.4870   -4.3660   26.0200 C   0  0  0  0  0  0  0  0  0  0  0  0
   11.9080    7.0550   24.8630 C   0  0  0  0  0  0  0  0  0  0  0  0
    2.9130    4.1940   25.3300 F   0  0  0  0  0  0  0  0  0  0  0  0
    1.0320   -7.2200   22.0310 O   0  0  0  0  0  0  0  0  0  0  0  0
   -0.3550   -5.5360   22.6940 C   0  0  0  0  0  0  0  0  0  0  0  0
   -1.0550    3.2240   24.6550 C   0  0  0  0  0  0  0  0  0  0  0  0
    0.6450    4.5330   25.7580 C   0  0  0  0  0  0  0  0  0  0  0  0
    3.9640   -3.0630   26.1090 C   0  0  0  0  0  0  0  0  0  0  0  0
    2.1280   -4.6930   25.9120 C   0  0  0  0  0  0  0  0  0  0  0  0
   -0.7070    4.2250   25.5540 C   0  0  0  0  0  0  0  0  0  0  0  0
    2.8700   -2.0130   26.0880 C   0  0  0  0  0  0  0  0  0  0  0  0
    1.1630   -3.6830   25.8940 C   0  0  0  0  0  0  0  0  0  0  0  0
    3.2200   -0.7260   26.1730 F   0  0  0  0  0  0  0  0  0  0  0  0
    1.5220   -2.3410   25.9860 C   0  0  0  0  0  0  0  0  0  0  0  0
  1  2  1  0
  2  3  1  6
  1  4  1  0
  5  1  1  6
  4  6  1  0
  2  7  1  0
  5  8  1  0
  5  9  1  0
  3 10  1  0
  3 11  2  0
  7 12  1  0
  7 13  2  0
  8 14  1  0
 15  9  1  6
 14 15  1  0
 16  6  1  1
 12 17  1  0
 16 18  1  0
 13 19  1  0
 12 20  2  0
 10 21  1  0
 14 22  1  6
 15 23  1  0
 15 24  1  0
 16 25  1  0
 16 26  1  0
 23 27  1  1
 17 28  1  0
 17 29  1  6
 18 30  2  0
 18 31  1  0
 19 32  2  0
 20 32  1  0
 21 33  2  0
 21 34  1  0
 22 35  1  0
 22 36  1  0
 24 37  2  0
 23 38  1  0
 37 38  2  0
 25 39  1  0
 26 40  1  0
 33 41  1  0
 27 42  1  0
 28 43  1  0
 39 44  1  0
 39 45  1  1
 33 46  1  0
 34 47  2  0
 35 48  1  0
 36 49  1  0
 39 50  1  0
 40 50  1  0
 43 51  2  0
 44 52  1  1
 44 53  1  0
 50 54  1  0
 46 55  2  0
 47 55  1  0
 43 56  1  0
 48 57  1  0
 49 57  1  0
 55 58  1  0
 57 59  1  0
 53 60  1  6
 53 61  1  0
 52 62  1  0
 54 63  2  0
 54 64  2  0
 56 65  2  0
 56 66  1  0
 54 67  1  0
 58 68  1  0
 65 69  1  0
 62 70  2  0
 62 71  1  0
 66 72  2  0
 65 73  1  0
 67 74  2  0
 67 75  1  0
 72 76  1  0
 73 76  2  0
 74 77  1  0
 75 78  2  0
 77 79  1  0
 77 80  2  0
 78 80  1  0
M  END
