x0691-x2705-x2643-x2694
     RDKit          3D

 52 56  0  0  0  0  0  0  0  0999 V2000
    7.3780   -1.0370   21.8240 N   0  0  0  0  0  0  0  0  0  0  0  0
    6.9230    0.3450   21.5630 C   0  0  1  0  0  0  0  0  0  0  0  0
    7.9500    1.4460   21.7930 C   0  0  0  0  0  0  0  0  0  0  0  0
    6.2620   -2.0220   21.6740 C   0  0  0  0  0  0  0  0  0  0  0  0
    8.5490   -1.2240   22.6200 C   0  0  0  0  0  0  0  0  0  0  0  0
    6.0860   -3.1510   22.7240 C   0  0  0  0  0  0  0  0  0  0  0  0
    6.2990    0.5610   20.2350 C   0  0  0  0  0  0  0  0  0  0  0  0
    8.5780   -1.3860   23.9920 N   0  0  0  0  0  0  0  0  0  0  0  0
    9.8180   -1.2400   22.1480 C   0  0  0  0  0  0  0  0  0  0  0  0
    7.5540    2.3220   22.7710 N   0  0  0  0  0  0  0  0  0  0  0  0
    8.9970    1.5750   21.1700 O   0  0  0  0  0  0  0  0  0  0  0  0
    5.1420    1.3260   20.2090 C   0  0  0  0  0  0  0  0  0  0  0  0
    6.8160    0.0600   19.0460 C   0  0  0  0  0  0  0  0  0  0  0  0
    9.9100   -1.4780   24.2850 N   0  0  0  0  0  0  0  0  0  0  0  0
   10.6630   -1.3920   23.1850 C   0  0  0  0  0  0  0  0  0  0  0  0
    6.2870   -4.5280   22.1770 C   0  0  0  0  0  0  0  0  0  0  0  0
   12.2070   -1.4560   23.2110 C   0  0  0  0  0  0  0  0  0  0  0  0
    6.6990   -4.2840   20.7140 C   0  0  0  0  0  0  0  0  0  0  0  0
    6.3460    0.2240   17.8250 N   0  0  0  0  0  0  0  0  0  0  0  0
    4.4900    1.6180   19.0390 C   0  0  0  0  0  0  0  0  0  0  0  0
    8.3310    3.5430   22.9990 C   0  0  0  0  0  0  0  0  0  0  0  0
    5.2180   -5.4110   22.1090 C   0  0  0  0  0  0  0  0  0  0  0  0
    7.4680   -5.1230   22.9970 C   0  0  0  0  0  0  0  0  0  0  0  0
   12.7280   -0.0630   23.6390 C   0  0  0  0  0  0  0  0  0  0  0  0
   12.7770   -2.4680   24.2380 C   0  0  0  0  0  0  0  0  0  0  0  0
   12.8080   -1.7920   21.8370 C   0  0  0  0  0  0  0  0  0  0  0  0
    5.8170   -4.4910   19.8890 O   0  0  0  0  0  0  0  0  0  0  0  0
    8.1150   -3.7480   20.4280 C   0  0  0  0  0  0  0  0  0  0  0  0
    5.1380    1.0370   17.7890 C   0  0  0  0  0  0  0  0  0  0  0  0
    9.5920    3.4180   23.5880 C   0  0  0  0  0  0  0  0  0  0  0  0
    7.8340    4.8000   22.6400 C   0  0  0  0  0  0  0  0  0  0  0  0
    5.1140   -6.1020   23.2850 C   0  0  0  0  0  0  0  0  0  0  0  0
    7.0870   -5.1280   24.4770 C   0  0  0  0  0  0  0  0  0  0  0  0
   10.1610    2.0780   23.9760 C   0  0  0  0  0  0  0  0  0  0  0  0
    6.4780    4.9310   21.9860 C   0  0  0  0  0  0  0  0  0  0  0  0
   10.3410    4.5480   23.8250 C   0  0  0  0  0  0  0  0  0  0  0  0
    8.6240    5.9440   22.8990 C   0  0  0  0  0  0  0  0  0  0  0  0
    5.6270   -5.3440   24.4620 N   0  0  0  0  0  0  0  0  0  0  0  0
    9.2210    1.3440   24.9390 C   0  0  0  0  0  0  0  0  0  0  0  0
    4.8170   -5.5730   25.9420 S   0  0  0  0  0  0  0  0  0  0  0  0
    9.8970    5.8270   23.5040 C   0  0  0  0  0  0  0  0  0  0  0  0
   10.6170    6.9770   23.7430 O   0  0  0  0  0  0  0  0  0  0  0  0
    4.1900   -6.8760   25.9460 O   0  0  0  0  0  0  0  0  0  0  0  0
    5.6850   -5.1110   26.9930 O   0  0  0  0  0  0  0  0  0  0  0  0
    3.5110   -4.3660   25.8560 C   0  0  0  0  0  0  0  0  0  0  0  0
   11.7560    6.8430   24.6370 C   0  0  0  0  0  0  0  0  0  0  0  0
    3.8470   -2.9960   25.9360 C   0  0  0  0  0  0  0  0  0  0  0  0
    2.1130   -4.5850   25.7170 C   0  0  0  0  0  0  0  0  0  0  0  0
    2.9020   -1.9610   25.8900 C   0  0  0  0  0  0  0  0  0  0  0  0
    1.1630   -3.5270   25.6710 C   0  0  0  0  0  0  0  0  0  0  0  0
    3.2940   -0.6810   25.9730 F   0  0  0  0  0  0  0  0  0  0  0  0
    1.5630   -2.2600   25.7590 C   0  0  0  0  0  0  0  0  0  0  0  0
  1  2  1  0
  2  3  1  6
  1  4  1  0
  1  5  1  0
  4  6  1  0
  2  7  1  0
  5  8  2  0
  5  9  1  0
  3 10  1  0
  3 11  2  0
  7 12  2  0
  7 13  1  0
  8 14  1  0
  9 15  2  0
 14 15  1  0
  6 16  1  0
 15 17  1  0
 16 18  1  0
 13 19  2  0
 12 20  1  0
 10 21  1  0
 16 22  1  0
 16 23  1  0
 17 24  1  0
 17 25  1  0
 17 26  1  0
 18 27  2  0
 18 28  1  0
 19 29  1  0
 20 29  2  0
 21 30  2  0
 21 31  1  0
 22 32  1  0
 23 33  1  0
 30 34  1  0
 31 35  1  0
 30 36  1  0
 31 37  2  0
 32 38  1  0
 33 38  1  0
 34 39  1  0
 38 40  1  0
 36 41  2  0
 37 41  1  0
 41 42  1  0
 40 43  2  0
 40 44  2  0
 40 45  1  0
 42 46  1  0
 45 47  2  0
 45 48  1  0
 47 49  1  0
 48 50  2  0
 49 51  1  0
 49 52  2  0
 50 52  1  0
M  END
