x0691-x0978-x0305-x2694
     RDKit          3D

 67 72  0  0  0  0  0  0  0  0999 V2000
    7.1290   -0.9100   21.9710 N   0  0  0  0  0  0  0  0  0  0  0  0
    6.7560    0.5360   21.7060 C   0  0  1  0  0  0  0  0  0  0  0  0
    7.8540    1.5990   21.8180 C   0  0  0  0  0  0  0  0  0  0  0  0
    6.0500   -1.8370   21.8850 C   0  0  0  0  0  0  0  0  0  0  0  0
    8.4100   -1.0840   22.5030 C   0  0  1  0  0  0  0  0  0  0  0  0
    5.9570   -3.0660   22.8180 C   0  0  0  0  0  0  0  0  0  0  0  0
    6.2360    0.7610   20.3330 C   0  0  0  0  0  0  0  0  0  0  0  0
    8.5740   -1.6600   23.7360 N   0  0  0  0  0  0  0  0  0  0  0  0
    9.6450   -1.1320   21.6520 C   0  0  0  0  0  0  0  0  0  0  0  0
    7.6590    2.6110   22.6280 N   0  0  0  0  0  0  0  0  0  0  0  0
    8.8650    1.5250   21.1250 O   0  0  0  0  0  0  0  0  0  0  0  0
    5.1360    1.6040   20.1590 C   0  0  0  0  0  0  0  0  0  0  0  0
    6.8310    0.1450   19.0890 C   0  0  0  0  0  0  0  0  0  0  0  0
   10.0020   -1.3160   23.9310 N   0  0  0  0  0  0  0  0  0  0  0  0
   10.3360   -0.5350   22.7700 C   0  0  1  0  0  0  0  0  0  0  0  0
    6.1670   -4.4970   22.1410 C   0  0  2  0  0  0  0  0  0  0  0  0
    6.5380   -4.2090   20.6950 C   0  0  0  0  0  0  0  0  0  0  0  0
    6.3300    0.3940   17.7530 N   0  0  0  0  0  0  0  0  0  0  0  0
    4.6740    1.8280   18.8740 C   0  0  0  0  0  0  0  0  0  0  0  0
    8.5490    3.6840   22.9390 C   0  0  0  0  0  0  0  0  0  0  0  0
   10.6690   -0.8430   25.1300 C   0  0  2  0  0  0  0  0  0  0  0  0
   11.6650    0.1300   22.7540 C   0  0  0  0  0  0  0  0  0  0  0  0
    5.1810   -5.6310   22.2560 C   0  0  0  0  0  0  0  0  0  0  0  0
    7.2890   -5.1240   22.9250 C   0  0  0  0  0  0  0  0  0  0  0  0
    9.8510    0.1420   25.8530 N   0  0  0  0  0  0  0  0  0  0  0  0
    5.6710   -4.4440   19.8610 O   0  0  0  0  0  0  0  0  0  0  0  0
    7.8860   -3.5890   20.3820 C   0  0  0  0  0  0  0  0  0  0  0  0
    5.2290    1.2700   17.7460 C   0  0  0  0  0  0  0  0  0  0  0  0
    9.7390    3.5440   23.6480 C   0  0  0  0  0  0  0  0  0  0  0  0
    8.2250    4.9820   22.5200 C   0  0  0  0  0  0  0  0  0  0  0  0
   12.1360   -0.6810   24.8790 N   0  0  0  0  0  0  0  0  0  0  0  0
   12.4740    0.0600   23.8100 C   0  0  0  0  0  0  0  0  0  0  0  0
    4.4250   -5.3980   23.3690 C   0  0  2  0  0  0  0  0  0  0  0  0
    6.7810   -5.1360   24.3620 C   0  0  0  0  0  0  0  0  0  0  0  0
   10.1480    2.2200   24.1260 C   0  0  0  0  0  0  0  0  0  0  0  0
   12.7410   -1.9990   24.7320 C   0  0  1  0  0  0  0  0  0  0  0  0
    8.4410   -0.2230   26.1030 C   0  0  0  0  0  0  0  0  0  0  0  0
    3.1750   -6.3860   23.3350 C   0  0  2  0  0  0  0  0  0  0  0  0
    3.9050   -4.3450   23.0230 O   0  0  0  0  0  0  0  0  0  0  0  0
   10.5570    4.6270   23.9260 C   0  0  0  0  0  0  0  0  0  0  0  0
    9.0560    6.0880   22.8080 C   0  0  0  0  0  0  0  0  0  0  0  0
    5.3310   -5.5310   24.4900 N   0  0  0  0  0  0  0  0  0  0  0  0
   11.7420   -3.1210   24.6560 C   0  0  0  0  0  0  0  0  0  0  0  0
    8.1830   -0.1050   27.5370 C   0  0  0  0  0  0  0  0  0  0  0  0
    1.9500   -5.5750   23.2810 N   0  0  0  0  0  0  0  0  0  0  0  0
    3.1650   -7.4850   24.3710 C   0  0  1  0  0  0  0  0  0  0  0  0
    4.7690   -5.4740   26.0800 S   0  0  0  0  0  0  0  0  0  0  0  0
   10.2440    5.9160   23.5270 C   0  0  0  0  0  0  0  0  0  0  0  0
   13.5710   -2.0880   23.4490 C   0  0  0  0  0  0  0  0  0  0  0  0
   11.0950    6.9420   23.8540 O   0  0  0  0  0  0  0  0  0  0  0  0
    2.0250   -8.3540   24.1290 C   0  0  0  0  0  0  0  0  0  0  0  0
    4.2250   -8.0470   24.5420 O   0  0  0  0  0  0  0  0  0  0  0  0
    0.8070   -6.1640   22.5640 C   0  0  0  0  0  0  0  0  0  0  0  0
    4.2550   -6.7420   26.5180 O   0  0  0  0  0  0  0  0  0  0  0  0
    5.7800   -4.8250   26.8600 O   0  0  0  0  0  0  0  0  0  0  0  0
    3.4710   -4.2490   26.0130 C   0  0  0  0  0  0  0  0  0  0  0  0
   13.0260   -2.3310   22.1960 C   0  0  0  0  0  0  0  0  0  0  0  0
   11.8730    6.7740   25.0390 C   0  0  0  0  0  0  0  0  0  0  0  0
    0.7570   -7.4000   21.8140 O   0  0  0  0  0  0  0  0  0  0  0  0
   -0.5400   -5.3930   22.5830 C   0  0  0  0  0  0  0  0  0  0  0  0
    3.8180   -2.7560   26.0060 C   0  0  0  0  0  0  0  0  0  0  0  0
    1.9970   -4.6270   25.9630 C   0  0  0  0  0  0  0  0  0  0  0  0
   13.4350   -1.5120   21.0660 N   0  0  0  0  0  0  0  0  0  0  0  0
    2.6900   -1.7470   25.9550 C   0  0  0  0  0  0  0  0  0  0  0  0
    0.9660   -3.5030   25.9120 C   0  0  0  0  0  0  0  0  0  0  0  0
    2.9590   -0.4330   25.9510 F   0  0  0  0  0  0  0  0  0  0  0  0
    1.3470   -2.1460   25.9130 C   0  0  0  0  0  0  0  0  0  0  0  0
  1  2  1  0
  2  3  1  6
  1  4  1  0
  5  1  1  6
  4  6  1  0
  2  7  1  0
  5  8  1  0
  5  9  1  0
  3 10  1  0
  3 11  2  0
  7 12  2  0
  7 13  1  0
  8 14  1  0
 15  9  1  6
 14 15  1  0
 16  6  1  1
 16 17  1  0
 13 18  2  0
 12 19  1  0
 10 20  1  0
 14 21  1  0
 15 22  1  0
 16 23  1  0
 16 24  1  0
 21 25  1  6
 17 26  2  0
 17 27  1  0
 18 28  1  0
 19 28  2  0
 20 29  2  0
 20 30  1  0
 21 31  1  0
 22 32  2  0
 31 32  1  0
 23 33  1  0
 24 34  1  0
 29 35  1  0
 31 36  1  0
 25 37  1  0
 33 38  1  0
 33 39  1  6
 29 40  1  0
 30 41  2  0
 33 42  1  0
 34 42  1  0
 36 43  1  6
 37 44  1  0
 38 45  1  1
 38 46  1  0
 42 47  1  0
 40 48  2  0
 41 48  1  0
 36 49  1  0
 48 50  1  0
 46 51  1  6
 46 52  1  0
 45 53  1  0
 47 54  2  0
 47 55  2  0
 47 56  1  0
 49 57  1  0
 50 58  1  0
 53 59  2  0
 53 60  1  0
 56 61  2  0
 56 62  1  0
 57 63  1  0
 61 64  1  0
 62 65  2  0
 64 66  1  0
 64 67  2  0
 65 67  1  0
M  END
