x0691-x0426-x0387-x2694
     RDKit          3D

 70 77  0  0  0  0  0  0  0  0999 V2000
    7.6320   -0.5350   21.9810 N   0  0  0  0  0  0  0  0  0  0  0  0
    6.8310    0.6320   21.6900 C   0  0  1  0  0  0  0  0  0  0  0  0
    7.7690    1.8230   21.8670 C   0  0  0  0  0  0  0  0  0  0  0  0
    8.7710   -0.4170   22.8600 C   0  0  1  0  0  0  0  0  0  0  0  0
    6.1900    0.7280   20.3320 C   0  0  0  0  0  0  0  0  0  0  0  0
    8.6140   -1.3300   23.8190 N   0  0  0  0  0  0  0  0  0  0  0  0
    9.9630   -0.6620   22.1710 C   0  0  0  0  0  0  0  0  0  0  0  0
    7.5160    2.6120   22.6830 N   0  0  0  0  0  0  0  0  0  0  0  0
    8.8910    1.7890   20.9900 O   0  0  0  0  0  0  0  0  0  0  0  0
    4.9010    1.1860   20.0960 C   0  0  0  0  0  0  0  0  0  0  0  0
    6.9000    0.3490   19.2210 C   0  0  0  0  0  0  0  0  0  0  0  0
    9.8710   -1.6960   24.0840 C   0  0  2  0  0  0  0  0  0  0  0  0
   10.7520   -1.2810   23.0930 C   0  0  2  0  0  0  0  0  0  0  0  0
    4.0130    1.5840   21.2410 C   0  0  0  0  0  0  0  0  0  0  0  0
    6.4110    0.4430   17.9810 N   0  0  0  0  0  0  0  0  0  0  0  0
    4.3760    1.2940   18.8540 C   0  0  0  0  0  0  0  0  0  0  0  0
    8.3980    3.7050   22.9600 C   0  0  0  0  0  0  0  0  0  0  0  0
    9.6360   -3.0840   24.4770 N   0  0  0  0  0  0  0  0  0  0  0  0
   11.9320   -0.4350   23.6370 C   0  0  1  0  0  0  0  0  0  0  0  0
   11.4180   -2.2830   22.1950 C   0  0  0  0  0  0  0  0  0  0  0  0
   12.5070   -0.9600   24.9240 C   0  0  0  0  0  0  0  0  0  0  0  0
    4.3670    2.4230   22.4620 C   0  0  0  0  0  0  0  0  0  0  0  0
    5.1750    0.9150   17.7850 C   0  0  0  0  0  0  0  0  0  0  0  0
    9.6480    3.4590   23.6120 C   0  0  0  0  0  0  0  0  0  0  0  0
    8.0260    5.0270   22.5930 C   0  0  0  0  0  0  0  0  0  0  0  0
    8.3670   -3.1050   25.2540 C   0  0  0  0  0  0  0  0  0  0  0  0
   10.7950   -3.6070   25.1340 C   0  0  0  0  0  0  0  0  0  0  0  0
   13.0180   -1.8310   21.6510 S   0  0  0  0  0  0  0  0  0  0  0  0
   13.0770   -0.4720   22.6980 C   0  0  0  0  0  0  0  0  0  0  0  0
   10.0870    2.0850   24.0160 C   0  0  0  0  0  0  0  0  0  0  0  0
   13.2770   -2.3070   24.8290 C   0  0  0  0  0  0  0  0  0  0  0  0
    3.0780    2.9510   22.9590 N   0  0  0  0  0  0  0  0  0  0  0  0
   10.5260    4.5120   23.8990 C   0  0  0  0  0  0  0  0  0  0  0  0
    8.8370    6.1250   22.8480 C   0  0  0  0  0  0  0  0  0  0  0  0
    8.2520   -4.2360   26.0490 C   0  0  0  0  0  0  0  0  0  0  0  0
   10.5920   -4.7020   25.9720 C   0  0  0  0  0  0  0  0  0  0  0  0
    2.3350    2.1450   23.8930 C   0  0  0  0  0  0  0  0  0  0  0  0
   10.1740    5.9580   23.5370 C   0  0  0  0  0  0  0  0  0  0  0  0
    9.3540   -4.5330   26.8160 C   0  0  0  0  0  0  0  0  0  0  0  0
   11.0890    6.9170   23.8700 O   0  0  0  0  0  0  0  0  0  0  0  0
    2.7570    0.7710   24.0450 N   0  0  0  0  0  0  0  0  0  0  0  0
    9.1640   -5.4980   27.5230 O   0  0  0  0  0  0  0  0  0  0  0  0
    1.2060    2.8340   24.6360 C   0  0  0  0  0  0  0  0  0  0  0  0
   11.8560    6.6980   25.0480 C   0  0  0  0  0  0  0  0  0  0  0  0
    2.0810   -0.0770   25.0040 C   0  0  0  0  0  0  0  0  0  0  0  0
    1.3770    4.0750   25.4120 C   0  0  0  0  0  0  0  0  0  0  0  0
   -0.0120    2.2050   24.5310 C   0  0  0  0  0  0  0  0  0  0  0  0
    2.5890    4.6570   25.4900 F   0  0  0  0  0  0  0  0  0  0  0  0
    2.9800   -0.7800   25.8640 O   0  0  0  0  0  0  0  0  0  0  0  0
   -1.1560    2.8890   25.2780 C   0  0  0  0  0  0  0  0  0  0  0  0
    0.3060    4.6540   26.0700 C   0  0  0  0  0  0  0  0  0  0  0  0
   -0.9570    4.0470   25.9930 C   0  0  0  0  0  0  0  0  0  0  0  0
    2.7330   -2.1030   25.9690 C   0  0  0  0  0  0  0  0  0  0  0  0
    3.7180   -3.2460   25.8380 C   0  0  0  0  0  0  0  0  0  0  0  0
    1.4180   -2.3630   26.2150 C   0  0  0  0  0  0  0  0  0  0  0  0
    3.3430   -4.5180   25.9500 C   0  0  0  0  0  0  0  0  0  0  0  0
    1.0690   -3.7260   26.3300 C   0  0  0  0  0  0  0  0  0  0  0  0
    4.6990   -5.7070   25.7460 S   0  0  0  0  0  0  0  0  0  0  0  0
    2.0010   -4.7770   26.2010 C   0  0  0  0  0  0  0  0  0  0  0  0
    4.1680   -7.0400   25.9390 O   0  0  0  0  0  0  0  0  0  0  0  0
    5.7230   -5.4330   26.7200 O   0  0  0  0  0  0  0  0  0  0  0  0
    5.2990   -5.5370   24.1740 N   0  0  0  0  0  0  0  0  0  0  0  0
    4.7210   -6.2640   23.0350 C   0  0  0  0  0  0  0  0  0  0  0  0
    6.0190   -4.3110   23.7960 C   0  0  0  0  0  0  0  0  0  0  0  0
    5.7870   -6.4590   21.9560 C   0  0  0  0  0  0  0  0  0  0  0  0
    7.0500   -4.5870   22.8720 C   0  0  0  0  0  0  0  0  0  0  0  0
    6.5330   -5.2220   21.6780 N   0  0  0  0  0  0  0  0  0  0  0  0
    6.3070   -4.4560   20.5160 C   0  0  0  0  0  0  0  0  0  0  0  0
    5.2560   -4.5890   19.9110 O   0  0  0  0  0  0  0  0  0  0  0  0
    7.3430   -3.4340   19.9750 C   0  0  0  0  0  0  0  0  0  0  0  0
  2  1  1  6
  2  3  1  0
  4  1  1  6
  2  5  1  0
  4  6  1  0
  4  7  1  0
  3  8  1  0
  3  9  2  0
  5 10  1  0
  5 11  2  0
  6 12  1  0
 13  7  1  6
 12 13  1  0
 10 14  1  0
 11 15  1  0
 10 16  2  0
  8 17  1  0
 12 18  1  6
 13 19  1  0
 13 20  1  0
 19 21  1  1
 14 22  1  0
 15 23  2  0
 16 23  1  0
 17 24  2  0
 17 25  1  0
 18 26  1  0
 18 27  1  0
 20 28  2  0
 19 29  1  0
 28 29  2  0
 24 30  1  0
 21 31  1  0
 22 32  1  0
 24 33  1  0
 25 34  2  0
 26 35  1  0
 27 36  1  0
 32 37  1  0
 33 38  2  0
 34 38  1  0
 35 39  1  0
 36 39  1  0
 38 40  1  0
 37 41  2  3
 39 42  1  0
 37 43  1  0
 40 44  1  0
 41 45  1  0
 43 46  2  0
 43 47  1  0
 46 48  1  0
 45 49  1  0
 47 50  2  0
 46 51  1  0
 50 52  1  0
 51 52  2  0
 49 53  1  0
 53 54  2  0
 53 55  1  0
 54 56  1  0
 55 57  2  0
 58 56  1  0
 56 59  2  0
 57 59  1  0
 58 60  2  0
 58 61  2  0
 58 62  1  0
 62 63  1  0
 62 64  1  0
 63 65  1  0
 64 66  1  0
 65 67  1  0
 66 67  1  0
 67 68  1  0
 68 69  2  0
 68 70  1  0
M  END
