x0691-x2694-x2193
     RDKit          3D

 56 61  0  0  0  0  0  0  0  0999 V2000
    7.9100   -0.8980   21.8780 N   0  0  0  0  0  0  0  0  0  0  0  0
    7.1310    0.3390   21.6560 C   0  0  1  0  0  0  0  0  0  0  0  0
    8.0130    1.5980   21.8470 C   0  0  0  0  0  0  0  0  0  0  0  0
    9.1640   -0.9240   22.6090 C   0  0  1  0  0  0  0  0  0  0  0  0
    6.4100    0.5800   20.3490 C   0  0  0  0  0  0  0  0  0  0  0  0
    9.0230   -1.3540   23.8920 N   0  0  0  0  0  0  0  0  0  0  0  0
   10.2520   -1.5080   22.0310 C   0  0  0  0  0  0  0  0  0  0  0  0
    7.6750    2.6010   22.6870 N   0  0  0  0  0  0  0  0  0  0  0  0
    9.0530    1.7750   21.2180 O   0  0  0  0  0  0  0  0  0  0  0  0
    5.1600    1.4440   20.1840 C   0  0  0  0  0  0  0  0  0  0  0  0
    6.8520    0.0310   19.1590 C   0  0  0  0  0  0  0  0  0  0  0  0
   10.2100   -1.9360   24.2710 O   0  0  0  0  0  0  0  0  0  0  0  0
   11.0470   -2.1760   23.1380 C   0  0  2  0  0  0  0  0  0  0  0  0
    7.9950   -2.3820   24.1660 C   0  0  0  0  0  0  0  0  0  0  0  0
   12.3330   -1.4560   23.2940 C   0  0  0  0  0  0  0  0  0  0  0  0
    6.2830    0.2060   17.9170 N   0  0  0  0  0  0  0  0  0  0  0  0
    4.6120    1.6060   18.9480 C   0  0  0  0  0  0  0  0  0  0  0  0
    8.5760    3.6590   23.0150 C   0  0  0  0  0  0  0  0  0  0  0  0
    8.4820   -3.6770   24.8260 N   0  0  0  0  0  0  0  0  0  0  0  0
   12.5140   -0.0920   23.5630 C   0  0  0  0  0  0  0  0  0  0  0  0
   13.0420   -1.7040   21.9570 C   0  0  0  0  0  0  0  0  0  0  0  0
   13.1090   -2.1870   24.3960 C   0  0  0  0  0  0  0  0  0  0  0  0
    5.1950    0.9870   17.8810 C   0  0  0  0  0  0  0  0  0  0  0  0
    9.9610    3.4410   23.6710 C   0  0  0  0  0  0  0  0  0  0  0  0
    8.1750    5.0940   22.7130 C   0  0  0  0  0  0  0  0  0  0  0  0
    8.4930   -3.7770   26.2890 C   0  0  0  0  0  0  0  0  0  0  0  0
    9.6050   -4.4180   24.2860 C   0  0  0  0  0  0  0  0  0  0  0  0
   10.4360    2.0760   23.9980 C   0  0  0  0  0  0  0  0  0  0  0  0
   10.7130    4.6140   23.9260 C   0  0  0  0  0  0  0  0  0  0  0  0
    9.0110    6.1450   23.0210 C   0  0  0  0  0  0  0  0  0  0  0  0
    8.2710   -5.0760   26.7700 C   0  0  1  0  0  0  0  0  0  0  0  0
    9.4670   -5.7240   24.7380 C   0  0  0  0  0  0  0  0  0  0  0  0
   10.2300    5.8740   23.6110 C   0  0  0  0  0  0  0  0  0  0  0  0
    7.1090   -5.7190   26.3810 C   0  0  0  0  0  0  0  0  0  0  0  0
    9.3180   -5.9160   26.1880 N   0  0  0  0  0  0  0  0  0  0  0  0
   11.0870    6.9700   23.9380 O   0  0  0  0  0  0  0  0  0  0  0  0
    5.9430   -5.1080   26.6340 N   0  0  0  0  0  0  0  0  0  0  0  0
   11.8530    6.7540   25.1220 C   0  0  0  0  0  0  0  0  0  0  0  0
    4.6580   -5.4980   25.5980 S   0  0  1  0  0  0  0  0  0  0  0  0
    4.1170   -6.8070   25.8940 O   0  0  0  0  0  0  0  0  0  0  0  0
    3.4290   -4.2350   25.7250 C   0  0  0  0  0  0  0  0  0  0  0  0
    5.3680   -5.5300   24.0700 N   0  0  0  0  0  0  0  0  0  0  0  0
    3.8600   -2.7990   25.8340 C   0  0  0  0  0  0  0  0  0  0  0  0
    2.0790   -4.5270   25.7280 C   0  0  0  0  0  0  0  0  0  0  0  0
    4.6730   -6.1080   22.9080 C   0  0  0  0  0  0  0  0  0  0  0  0
    6.1590   -4.4020   23.6140 C   0  0  0  0  0  0  0  0  0  0  0  0
    2.7050   -1.7890   25.9480 C   0  0  0  0  0  0  0  0  0  0  0  0
    1.0650   -3.5780   25.8340 C   0  0  0  0  0  0  0  0  0  0  0  0
    5.5900   -6.4630   21.8950 C   0  0  0  0  0  0  0  0  0  0  0  0
    7.1220   -4.8780   22.7550 C   0  0  0  0  0  0  0  0  0  0  0  0
    2.9580   -0.4780   26.0540 F   0  0  0  0  0  0  0  0  0  0  0  0
    1.3710   -2.2180   25.9470 C   0  0  0  0  0  0  0  0  0  0  0  0
    6.5150   -5.3740   21.5520 N   0  0  0  0  0  0  0  0  0  0  0  0
    6.2980   -4.4750   20.4670 C   0  0  0  0  0  0  0  0  0  0  0  0
    5.2280   -4.4930   19.8840 O   0  0  0  0  0  0  0  0  0  0  0  0
    7.4150   -3.5090   20.0350 C   0  0  0  0  0  0  0  0  0  0  0  0
  2  1  1  6
  2  3  1  0
  4  1  1  6
  2  5  1  0
  4  6  1  0
  4  7  1  0
  3  8  1  0
  3  9  2  0
  5 10  2  0
  5 11  1  0
  6 12  1  0
  7 13  1  0
 12 13  1  0
  6 14  1  0
 13 15  1  1
 11 16  2  0
 10 17  1  0
  8 18  1  0
 14 19  1  0
 15 20  1  0
 15 21  1  0
 15 22  1  0
 16 23  1  0
 17 23  2  0
 18 24  2  0
 18 25  1  0
 19 26  1  0
 19 27  1  0
 24 28  1  0
 24 29  1  0
 25 30  2  0
 26 31  1  0
 27 32  1  0
 29 33  2  0
 30 33  1  0
 31 34  1  6
 31 35  1  0
 32 35  1  0
 33 36  1  0
 34 37  1  0
 36 38  1  0
 37 39  2  0
 39 40  2  0
 39 41  1  6
 39 42  1  0
 41 43  2  0
 41 44  1  0
 42 45  1  0
 42 46  1  0
 43 47  1  0
 44 48  2  0
 45 49  1  0
 46 50  1  0
 47 51  1  0
 47 52  2  0
 48 52  1  0
 49 53  1  0
 50 53  1  0
 53 54  1  0
 54 55  2  0
 54 56  1  0
M  END
