x0705-x2643
     RDKit          3D

 34 37  0  0  0  0  0  0  0  0999 V2000
    1.2160   -2.5760   27.8410 C   0  0  0  0  0  0  0  0  0  0  0  0
    2.5780   -2.3950   27.2730 C   0  0  0  0  0  0  0  0  0  0  0  0
    3.6460   -3.1650   27.7460 C   0  0  0  0  0  0  0  0  0  0  0  0
    2.7470   -1.3490   26.1690 C   0  0  0  0  0  0  0  0  0  0  0  0
    4.1360   -1.1400   25.5590 C   0  0  0  0  0  0  0  0  0  0  0  0
    5.0970   -3.0530   27.2180 C   0  0  0  0  0  0  0  0  0  0  0  0
    5.2620   -2.0190   26.1250 C   0  0  0  0  0  0  0  0  0  0  0  0
    6.6230   -1.8320   25.5280 C   0  0  0  0  0  0  0  0  0  0  0  0
    7.4380   -1.1300   26.1030 O   0  0  0  0  0  0  0  0  0  0  0  0
    6.8640   -2.4910   24.3650 N   0  0  0  0  0  0  0  0  0  0  0  0
    5.8590   -3.4100   24.0590 C   0  0  0  0  0  0  0  0  0  0  0  0
    7.1660   -1.7880   23.2330 C   0  0  1  0  0  0  0  0  0  0  0  0
    7.9480   -0.5970   23.1380 C   0  0  2  0  0  0  0  0  0  0  0  0
    5.8400   -3.9530   22.7650 C   0  0  0  0  0  0  0  0  0  0  0  0
    7.5750   -2.6830   22.2930 C   0  0  0  0  0  0  0  0  0  0  0  0
    7.9010    0.0160   21.7150 C   0  0  0  0  0  0  0  0  0  0  0  0
    6.4960   -3.2900   21.7850 N   0  0  0  0  0  0  0  0  0  0  0  0
    9.4000   -0.5490   23.4410 C   0  0  0  0  0  0  0  0  0  0  0  0
    6.5750   -3.8050   20.5250 C   0  0  0  0  0  0  0  0  0  0  0  0
    6.8980   -0.5590   20.8270 N   0  0  0  0  0  0  0  0  0  0  0  0
    8.6480    0.9220   21.3320 O   0  0  0  0  0  0  0  0  0  0  0  0
    9.8680   -0.4200   24.7460 C   0  0  0  0  0  0  0  0  0  0  0  0
   10.5920   -0.6160   22.2210 S   0  0  0  0  0  0  0  0  0  0  0  0
    5.7270   -3.6990   19.6160 O   0  0  0  0  0  0  0  0  0  0  0  0
    7.8240   -4.5720   20.4060 C   0  0  0  0  0  0  0  0  0  0  0  0
   11.8240   -0.4400   23.3680 C   0  0  0  0  0  0  0  0  0  0  0  0
   11.2280   -0.3610   24.7310 C   0  0  0  0  0  0  0  0  0  0  0  0
    6.2530    0.1280   19.8770 C   0  0  0  0  0  0  0  0  0  0  0  0
   13.4350   -0.3700   22.9530 Cl  0  0  0  0  0  0  0  0  0  0  0  0
    6.8250    0.2060   18.6400 C   0  0  0  0  0  0  0  0  0  0  0  0
    5.0510    0.7820   20.0250 C   0  0  0  0  0  0  0  0  0  0  0  0
    6.3390    0.8460   17.6160 N   0  0  0  0  0  0  0  0  0  0  0  0
    4.5140    1.4680   18.9500 C   0  0  0  0  0  0  0  0  0  0  0  0
    5.1580    1.5200   17.7060 C   0  0  0  0  0  0  0  0  0  0  0  0
  1  2  1  0
  2  3  2  0
  2  4  1  0
  4  5  2  0
  3  6  1  0
  5  7  1  0
  6  7  2  0
  7  8  1  0
  8  9  2  0
  8 10  1  0
 10 11  1  0
 10 12  1  0
 12 13  1  0
 11 14  1  0
 12 15  1  6
 13 16  1  6
 14 17  1  0
 15 17  1  0
 13 18  1  0
 17 19  1  0
 16 20  1  0
 16 21  2  0
 18 22  2  0
 18 23  1  0
 19 24  2  0
 19 25  1  0
 23 26  1  0
 22 27  1  0
 26 27  2  0
 20 28  1  0
 26 29  1  0
 28 30  2  0
 28 31  1  0
 30 32  1  0
 31 33  2  0
 32 34  2  0
 33 34  1  0
M  END
