x0708-x1308
     RDKit          3D

 32 36  0  0  0  0  0  0  0  0999 V2000
    6.9980   -4.3620   20.9730 N   0  0  0  0  0  0  0  0  0  0  0  0
    6.4230   -3.8330   19.8530 C   0  0  0  0  0  0  0  0  0  0  0  0
    7.4430   -3.1450   18.9510 C   0  0  0  0  0  0  0  0  0  0  0  0
    7.9960   -3.6130   21.4630 N   0  0  0  0  0  0  0  0  0  0  0  0
    6.3020   -4.7030   22.1020 N   0  0  0  0  0  0  0  0  0  0  0  0
    5.2380   -3.9420   19.5820 O   0  0  0  0  0  0  0  0  0  0  0  0
    7.7660   -2.9320   22.5760 C   0  0  2  0  0  0  0  0  0  0  0  0
    7.1560   -4.2020   23.2270 C   0  0  1  0  0  0  0  0  0  0  0  0
    5.9610   -6.1160   22.2780 C   0  0  0  0  0  0  0  0  0  0  0  0
    6.8660   -2.0930   22.5610 O   0  0  0  0  0  0  0  0  0  0  0  0
    8.9110   -2.2260   22.9400 C   0  0  0  0  0  0  0  0  0  0  0  0
    6.3610   -4.1160   24.3320 C   0  0  0  0  0  0  0  0  0  0  0  0
    5.1410   -6.1130   23.5640 C   0  0  0  0  0  0  0  0  0  0  0  0
   10.1070   -2.4000   22.2370 C   0  0  0  0  0  0  0  0  0  0  0  0
    9.0680   -1.0590   24.1930 S   0  0  0  0  0  0  0  0  0  0  0  0
    5.8600   -5.3540   24.6400 N   0  0  0  0  0  0  0  0  0  0  0  0
    5.2910   -5.5300   26.1990 S   0  0  0  0  0  0  0  0  0  0  0  0
   11.1210   -1.6190   22.6960 C   0  0  0  0  0  0  0  0  0  0  0  0
   10.7040   -0.8010   23.7710 C   0  0  0  0  0  0  0  0  0  0  0  0
    6.3470   -5.0950   27.0950 O   0  0  0  0  0  0  0  0  0  0  0  0
    4.6690   -6.8300   26.3220 O   0  0  0  0  0  0  0  0  0  0  0  0
   12.5290   -1.5670   22.1750 C   0  0  0  0  0  0  0  0  0  0  0  0
   11.5960    0.1590   24.4100 C   0  0  0  0  0  0  0  0  0  0  0  0
    3.9870   -4.3350   26.2370 C   0  0  0  0  0  0  0  0  0  0  0  0
   13.2100   -0.4750   22.7070 C   0  0  0  0  0  0  0  0  0  0  0  0
   12.4030    0.6170   23.3890 C   0  0  0  0  0  0  0  0  0  0  0  0
    4.2850   -3.0190   26.6020 C   0  0  0  0  0  0  0  0  0  0  0  0
    2.6700   -4.6860   25.9110 C   0  0  0  0  0  0  0  0  0  0  0  0
    3.2620   -2.0760   26.6430 C   0  0  0  0  0  0  0  0  0  0  0  0
    1.6580   -3.7290   25.9580 C   0  0  0  0  0  0  0  0  0  0  0  0
    1.9430   -2.4100   26.3310 C   0  0  0  0  0  0  0  0  0  0  0  0
    0.7010   -1.2240   26.4160 Cl  0  0  0  0  0  0  0  0  0  0  0  0
  1  2  1  0
  2  3  1  0
  1  4  1  0
  1  5  1  0
  2  6  2  0
  4  7  1  0
  5  8  1  0
  7  8  1  0
  5  9  1  0
  7 10  1  6
  7 11  1  0
  8 12  1  1
  9 13  1  0
 11 14  2  0
 11 15  1  0
 12 16  1  0
 13 16  1  0
 16 17  1  0
 14 18  1  0
 15 19  1  0
 18 19  2  0
 17 20  2  0
 17 21  2  0
 18 22  1  0
 19 23  1  0
 17 24  1  0
 22 25  1  0
 23 26  1  0
 25 26  1  0
 24 27  2  0
 24 28  1  0
 27 29  1  0
 28 30  2  0
 29 31  2  0
 30 31  1  0
 31 32  1  0
M  END
