x0708-x0426
     RDKit          3D

 37 40  0  0  0  0  0  0  0  0999 V2000
    6.5590   -4.5900   21.2090 N   0  0  0  0  0  0  0  0  0  0  0  0
    6.2400   -3.9120   20.0450 C   0  0  0  0  0  0  0  0  0  0  0  0
    7.3540   -3.1570   19.3340 C   0  0  0  0  0  0  0  0  0  0  0  0
    7.6010   -4.1260   22.0050 N   0  0  0  0  0  0  0  0  0  0  0  0
    5.1170   -3.9530   19.5770 O   0  0  0  0  0  0  0  0  0  0  0  0
    7.5950   -2.8660   22.5580 C   0  0  0  0  0  0  0  0  0  0  0  0
    6.4680   -2.2780   22.8780 N   0  0  0  0  0  0  0  0  0  0  0  0
    8.8940   -2.2480   22.7660 C   0  0  0  0  0  0  0  0  0  0  0  0
    6.3930   -0.9450   23.4690 C   0  0  0  0  0  0  0  0  0  0  0  0
   10.2130   -2.3700   22.0340 C   0  0  0  0  0  0  0  0  0  0  0  0
    9.1270   -1.1490   24.0660 S   0  0  0  0  0  0  0  0  0  0  0  0
    5.1070   -0.4210   23.2970 C   0  0  0  0  0  0  0  0  0  0  0  0
   11.3100   -1.5490   22.6320 C   0  0  0  0  0  0  0  0  0  0  0  0
   10.7720   -0.8820   23.6940 C   0  0  0  0  0  0  0  0  0  0  0  0
    5.1190    0.9860   23.3990 C   0  0  0  0  0  0  0  0  0  0  0  0
   12.7470   -1.4210   22.2240 C   0  0  0  0  0  0  0  0  0  0  0  0
   11.6650    0.0500   24.4480 C   0  0  0  0  0  0  0  0  0  0  0  0
    4.3530    1.8430   22.3450 C   0  0  2  0  0  0  0  0  0  0  0  0
   13.3120   -0.3490   22.9190 C   0  0  0  0  0  0  0  0  0  0  0  0
   12.4450    0.6410   23.3300 C   0  0  0  0  0  0  0  0  0  0  0  0
    3.2520    2.4920   23.0810 N   0  0  0  0  0  0  0  0  0  0  0  0
    3.7850    1.1230   21.2700 C   0  0  0  0  0  0  0  0  0  0  0  0
    2.2770    1.8000   23.7790 C   0  0  0  0  0  0  0  0  0  0  0  0
    4.7250    0.9310   20.0880 C   0  0  0  0  0  0  0  0  0  0  0  0
    2.2230    0.4380   23.8190 O   0  0  0  0  0  0  0  0  0  0  0  0
    1.2410    2.5910   24.5130 C   0  0  0  0  0  0  0  0  0  0  0  0
    5.8460    0.0910   20.1710 C   0  0  0  0  0  0  0  0  0  0  0  0
    4.5020    1.5950   18.8650 C   0  0  0  0  0  0  0  0  0  0  0  0
    1.5480    3.7770   25.1790 C   0  0  0  0  0  0  0  0  0  0  0  0
   -0.1730    2.0100   24.4880 C   0  0  0  0  0  0  0  0  0  0  0  0
    6.6720   -0.0520   19.0630 C   0  0  0  0  0  0  0  0  0  0  0  0
    5.3950    1.3820   17.8120 C   0  0  0  0  0  0  0  0  0  0  0  0
    2.8000    4.2670   25.1890 F   0  0  0  0  0  0  0  0  0  0  0  0
   -1.2500    2.8040   25.2400 C   0  0  0  0  0  0  0  0  0  0  0  0
    0.5750    4.5030   25.8620 C   0  0  0  0  0  0  0  0  0  0  0  0
    6.4650    0.5740   17.8920 N   0  0  0  0  0  0  0  0  0  0  0  0
   -0.7580    4.0820   25.9190 C   0  0  0  0  0  0  0  0  0  0  0  0
  1  2  1  0
  2  3  1  0
  1  4  1  0
  2  5  2  0
  4  6  1  0
  6  7  2  3
  6  8  1  0
  7  9  1  0
  8 10  2  0
  8 11  1  0
  9 12  1  0
 10 13  1  0
 11 14  1  0
 13 14  2  0
 12 15  1  0
 13 16  1  0
 14 17  1  0
 18 15  1  1
 16 19  1  0
 17 20  1  0
 19 20  1  0
 18 21  1  0
 18 22  1  0
 21 23  1  0
 22 24  1  0
 23 25  2  0
 23 26  1  0
 24 27  2  0
 24 28  1  0
 26 29  2  0
 26 30  1  0
 27 31  1  0
 28 32  2  0
 29 33  1  0
 30 34  2  0
 29 35  1  0
 31 36  2  0
 32 36  1  0
 34 37  1  0
 35 37  2  0
M  END
