x0708-x0540
     RDKit          3D

 36 39  0  0  0  0  0  0  0  0999 V2000
    6.6690   -4.7280   21.2140 N   0  0  0  0  0  0  0  0  0  0  0  0
    6.2790   -4.0140   20.0860 C   0  0  0  0  0  0  0  0  0  0  0  0
    7.3200   -3.1710   19.3540 C   0  0  0  0  0  0  0  0  0  0  0  0
    7.6880   -4.2480   22.0310 N   0  0  0  0  0  0  0  0  0  0  0  0
    5.1390   -4.0910   19.6670 O   0  0  0  0  0  0  0  0  0  0  0  0
    7.6600   -2.9540   22.4730 C   0  0  0  0  0  0  0  0  0  0  0  0
    6.5110   -2.3830   22.6490 N   0  0  0  0  0  0  0  0  0  0  0  0
    8.9260   -2.2880   22.7100 C   0  0  0  0  0  0  0  0  0  0  0  0
    6.2940   -1.0220   23.0790 C   0  0  0  0  0  0  0  0  0  0  0  0
   10.2420   -2.3950   21.9310 C   0  0  0  0  0  0  0  0  0  0  0  0
    9.0680   -1.2000   24.0470 S   0  0  0  0  0  0  0  0  0  0  0  0
    5.0250   -0.7040   22.6160 C   0  0  0  0  0  0  0  0  0  0  0  0
   11.3340   -1.5560   22.5100 C   0  0  0  0  0  0  0  0  0  0  0  0
   10.7230   -0.8710   23.6720 C   0  0  0  0  0  0  0  0  0  0  0  0
    4.6970    0.5480   21.8420 C   0  0  1  0  0  0  0  0  0  0  0  0
   12.7590   -1.3250   22.1570 C   0  0  0  0  0  0  0  0  0  0  0  0
   11.5810    0.0790   24.4450 C   0  0  0  0  0  0  0  0  0  0  0  0
    5.1740    1.8040   22.5770 C   0  0  0  0  0  0  0  0  0  0  0  0
   13.3070   -0.1040   22.8930 C   0  0  0  0  0  0  0  0  0  0  0  0
   12.2970    0.6970   23.4340 C   0  0  0  0  0  0  0  0  0  0  0  0
    5.2320    0.5300   20.4120 C   0  0  0  0  0  0  0  0  0  0  0  0
    4.0850    2.7540   22.7950 N   0  0  0  0  0  0  0  0  0  0  0  0
    6.3470   -0.2320   20.0550 C   0  0  0  0  0  0  0  0  0  0  0  0
    4.6330    1.2810   19.3910 C   0  0  0  0  0  0  0  0  0  0  0  0
    2.9500    2.4240   23.5070 C   0  0  0  0  0  0  0  0  0  0  0  0
    6.8270   -0.2330   18.7490 C   0  0  0  0  0  0  0  0  0  0  0  0
    5.1890    1.2150   18.1250 C   0  0  0  0  0  0  0  0  0  0  0  0
    2.9140    1.4570   24.4790 O   0  0  0  0  0  0  0  0  0  0  0  0
    1.8820    3.1930   23.1150 N   0  0  0  0  0  0  0  0  0  0  0  0
    6.2610    0.4880   17.7620 N   0  0  0  0  0  0  0  0  0  0  0  0
    0.6610    3.2890   23.9100 C   0  0  0  0  0  0  0  0  0  0  0  0
    0.5880    4.6630   24.5950 C   0  0  0  0  0  0  0  0  0  0  0  0
   -0.4860    3.0370   23.1270 C   0  0  0  0  0  0  0  0  0  0  0  0
   -0.7810    5.0120   25.1320 C   0  0  0  0  0  0  0  0  0  0  0  0
   -1.7050    3.2610   23.7610 C   0  0  0  0  0  0  0  0  0  0  0  0
   -1.8480    4.5340   24.3450 C   0  0  0  0  0  0  0  0  0  0  0  0
  1  2  1  0
  2  3  1  0
  1  4  1  0
  2  5  2  0
  4  6  1  0
  6  7  2  3
  6  8  1  0
  7  9  1  0
  8 10  2  0
  8 11  1  0
  9 12  1  0
 10 13  1  0
 11 14  1  0
 13 14  2  0
 15 12  1  1
 13 16  1  0
 14 17  1  0
 15 18  1  0
 16 19  1  0
 17 20  1  0
 19 20  1  0
 15 21  1  0
 18 22  1  0
 21 23  2  0
 21 24  1  0
 22 25  1  0
 23 26  1  0
 24 27  2  0
 25 28  2  0
 25 29  1  0
 26 30  2  0
 27 30  1  0
 29 31  1  0
 31 32  1  0
 31 33  1  0
 32 34  1  0
 33 35  1  0
 34 36  1  0
 35 36  1  0
M  END
