x0705-x2649
     RDKit          3D

 36 39  0  0  0  0  0  0  0  0999 V2000
    1.1860   -2.6260   27.9570 C   0  0  0  0  0  0  0  0  0  0  0  0
    2.5710   -2.4230   27.3240 C   0  0  0  0  0  0  0  0  0  0  0  0
    3.6770   -3.1890   27.6940 C   0  0  0  0  0  0  0  0  0  0  0  0
    2.7090   -1.3350   26.2540 C   0  0  0  0  0  0  0  0  0  0  0  0
    4.0770   -1.1280   25.6230 C   0  0  0  0  0  0  0  0  0  0  0  0
    4.8980   -3.0050   27.1310 C   0  0  0  0  0  0  0  0  0  0  0  0
    5.1400   -1.9290   26.0380 C   0  0  0  0  0  0  0  0  0  0  0  0
    6.5180   -1.8430   25.5020 C   0  0  0  0  0  0  0  0  0  0  0  0
    7.3860   -1.4790   26.2790 O   0  0  0  0  0  0  0  0  0  0  0  0
    6.7490   -2.1550   24.2000 N   0  0  0  0  0  0  0  0  0  0  0  0
    5.5680   -2.6040   23.6030 C   0  0  0  0  0  0  0  0  0  0  0  0
    7.9230   -2.0500   23.4460 C   0  0  2  0  0  0  0  0  0  0  0  0
    8.5120   -0.7730   23.1200 C   0  0  2  0  0  0  0  0  0  0  0  0
    5.6860   -3.3150   22.4480 C   0  0  0  0  0  0  0  0  0  0  0  0
    7.8670   -2.8190   22.2920 C   0  0  0  0  0  0  0  0  0  0  0  0
    8.1200   -0.0440   21.8190 C   0  0  0  0  0  0  0  0  0  0  0  0
    6.6730   -2.9770   21.6560 N   0  0  0  0  0  0  0  0  0  0  0  0
   10.0140   -0.7350   23.1300 C   0  0  0  0  0  0  0  0  0  0  0  0
    6.7040   -3.6960   20.4850 C   0  0  0  0  0  0  0  0  0  0  0  0
    6.9260   -0.5060   21.1420 N   0  0  0  0  0  0  0  0  0  0  0  0
    8.7820    0.8970   21.3680 O   0  0  0  0  0  0  0  0  0  0  0  0
   10.7040   -0.0090   24.1150 C   0  0  0  0  0  0  0  0  0  0  0  0
   10.7550   -1.4070   22.1560 C   0  0  0  0  0  0  0  0  0  0  0  0
    5.8470   -3.6310   19.5770 O   0  0  0  0  0  0  0  0  0  0  0  0
    7.8790   -4.5940   20.4420 C   0  0  0  0  0  0  0  0  0  0  0  0
    6.3690    0.1410   20.0400 C   0  0  0  0  0  0  0  0  0  0  0  0
   12.0840    0.0630   24.1320 C   0  0  0  0  0  0  0  0  0  0  0  0
   12.1370   -1.3200   22.1960 C   0  0  0  0  0  0  0  0  0  0  0  0
   13.2620   -2.0180   21.1500 Cl  0  0  0  0  0  0  0  0  0  0  0  0
    5.3190    1.0240   20.2610 C   0  0  0  0  0  0  0  0  0  0  0  0
    6.8420   -0.0740   18.7540 C   0  0  0  0  0  0  0  0  0  0  0  0
   12.7950   -0.5980   23.1620 C   0  0  0  0  0  0  0  0  0  0  0  0
    4.7770    1.2910   21.6310 C   0  0  0  0  0  0  0  0  0  0  0  0
    6.2420    0.6300   17.6290 N   0  0  0  0  0  0  0  0  0  0  0  0
    4.7330    1.7020   19.1980 C   0  0  0  0  0  0  0  0  0  0  0  0
    5.1400    1.5580   17.8730 C   0  0  0  0  0  0  0  0  0  0  0  0
  1  2  1  0
  2  3  2  0
  2  4  1  0
  4  5  2  0
  3  6  1  0
  5  7  1  0
  6  7  2  0
  7  8  1  0
  8  9  2  0
  8 10  1  0
 10 11  1  0
 10 12  1  0
 12 13  1  0
 11 14  1  0
 12 15  1  6
 13 16  1  6
 14 17  1  0
 15 17  1  0
 13 18  1  0
 17 19  1  0
 16 20  1  0
 16 21  2  0
 18 22  2  0
 18 23  1  0
 19 24  2  0
 19 25  1  0
 20 26  1  0
 22 27  1  0
 23 28  2  0
 28 29  1  0
 26 30  2  0
 26 31  1  0
 27 32  2  0
 28 32  1  0
 30 33  1  0
 31 34  2  0
 30 35  1  0
 34 36  1  0
 35 36  2  0
M  END
