x0708-x3108
     RDKit          3D

 36 39  0  0  0  0  0  0  0  0999 V2000
    5.8600    1.8190   21.9190 C   0  0  0  0  0  0  0  0  0  0  0  0
    6.0380    1.2170   20.5570 C   0  0  0  0  0  0  0  0  0  0  0  0
    7.1140    0.3880   20.2150 C   0  0  0  0  0  0  0  0  0  0  0  0
    4.9980    1.5300   19.5060 C   0  0  0  0  0  0  0  0  0  0  0  0
    8.0790    0.1190   21.1880 N   0  0  0  0  0  0  0  0  0  0  0  0
    7.1360   -0.1080   18.8870 C   0  0  0  0  0  0  0  0  0  0  0  0
    5.2150    0.9110   18.1570 C   0  0  0  0  0  0  0  0  0  0  0  0
    8.7030    1.1150   21.8940 C   0  0  0  0  0  0  0  0  0  0  0  0
    6.2480    0.1270   17.8830 N   0  0  0  0  0  0  0  0  0  0  0  0
    9.3190    2.0530   21.4020 O   0  0  0  0  0  0  0  0  0  0  0  0
    8.5210    0.9610   23.4330 C   0  0  0  0  0  0  0  0  0  0  0  0
    9.2560   -0.4760   23.9420 S   0  0  1  0  0  0  0  0  0  0  0  0
    9.1380   -0.6140   25.3760 O   0  0  0  0  0  0  0  0  0  0  0  0
    8.9340   -1.9220   22.9680 C   0  0  0  0  0  0  0  0  0  0  0  0
   10.9480   -0.3140   23.5830 C   0  0  0  0  0  0  0  0  0  0  0  0
    7.7180   -2.7450   22.8040 C   0  0  0  0  0  0  0  0  0  0  0  0
   10.0590   -2.3000   22.2640 C   0  0  0  0  0  0  0  0  0  0  0  0
   11.1700   -1.4040   22.6040 C   0  0  0  0  0  0  0  0  0  0  0  0
   11.8950    0.5770   24.0030 C   0  0  0  0  0  0  0  0  0  0  0  0
    7.9780   -3.5450   21.7390 N   0  0  0  0  0  0  0  0  0  0  0  0
    6.6680   -3.1640   23.0180 N   0  0  0  0  0  0  0  0  0  0  0  0
   12.4800   -1.5970   22.0090 C   0  0  0  0  0  0  0  0  0  0  0  0
   12.7890    0.7290   22.9640 C   0  0  0  0  0  0  0  0  0  0  0  0
    6.8810   -4.2190   21.2120 N   0  0  0  0  0  0  0  0  0  0  0  0
   13.3660   -0.6110   22.4090 C   0  0  0  0  0  0  0  0  0  0  0  0
    5.9480   -2.6650   24.1700 C   0  0  0  0  0  0  0  0  0  0  0  0
    6.4320   -3.7790   19.9680 C   0  0  0  0  0  0  0  0  0  0  0  0
    6.9980   -2.4630   25.2770 C   0  0  0  0  0  0  0  0  0  0  0  0
    7.5360   -3.1230   19.1270 C   0  0  0  0  0  0  0  0  0  0  0  0
    5.2820   -3.9200   19.5780 O   0  0  0  0  0  0  0  0  0  0  0  0
    7.8780   -3.6720   25.5610 C   0  0  0  0  0  0  0  0  0  0  0  0
    8.9110   -4.2860   24.5950 C   0  0  0  0  0  0  0  0  0  0  0  0
    7.7870   -4.3840   26.8740 C   0  0  0  0  0  0  0  0  0  0  0  0
    9.6710   -5.3610   24.8670 N   0  0  0  0  0  0  0  0  0  0  0  0
    8.6210   -5.4900   27.0570 C   0  0  0  0  0  0  0  0  0  0  0  0
    9.5050   -5.9330   26.0840 C   0  0  0  0  0  0  0  0  0  0  0  0
  1  2  1  0
  2  3  2  0
  2  4  1  0
  3  5  1  0
  3  6  1  0
  4  7  2  0
  5  8  1  0
  6  9  2  0
  7  9  1  0
  8 10  2  0
  8 11  1  0
 11 12  1  0
 12 13  1  1
 12 14  1  0
 12 15  1  0
 14 16  1  0
 14 17  2  0
 15 18  2  0
 17 18  1  0
 15 19  1  0
 16 20  1  0
 16 21  2  3
 18 22  1  0
 19 23  1  0
 20 24  1  0
 22 25  1  0
 23 25  1  0
 21 26  1  0
 24 27  1  0
 26 28  1  0
 27 29  1  0
 27 30  2  0
 28 31  1  0
 31 32  2  0
 31 33  1  0
 32 34  1  0
 33 35  2  0
 34 36  2  0
 35 36  1  0
M  END
