x0705-x0540
     RDKit          3D

 38 41  0  0  0  0  0  0  0  0999 V2000
    1.1420   -2.5470   27.9860 C   0  0  0  0  0  0  0  0  0  0  0  0
    2.4590   -2.3780   27.3830 C   0  0  0  0  0  0  0  0  0  0  0  0
    3.6290   -3.1510   27.7850 C   0  0  0  0  0  0  0  0  0  0  0  0
    2.7150   -1.3540   26.2620 C   0  0  0  0  0  0  0  0  0  0  0  0
    4.0520   -1.4400   25.9130 C   0  0  0  0  0  0  0  0  0  0  0  0
    4.9970   -3.0450   27.2330 C   0  0  0  0  0  0  0  0  0  0  0  0
    5.3040   -2.1370   26.2120 C   0  0  0  0  0  0  0  0  0  0  0  0
    6.6050   -1.8970   25.5270 C   0  0  0  0  0  0  0  0  0  0  0  0
    7.5400   -1.3650   26.1020 O   0  0  0  0  0  0  0  0  0  0  0  0
    6.6470   -2.2990   24.2170 N   0  0  0  0  0  0  0  0  0  0  0  0
    5.3690   -2.6140   23.4980 C   0  0  2  0  0  0  0  0  0  0  0  0
    7.8090   -2.1190   23.5250 C   0  0  0  0  0  0  0  0  0  0  0  0
    5.8650   -3.7170   22.5950 C   0  0  0  0  0  0  0  0  0  0  0  0
    7.9040   -2.7110   22.1120 C   0  0  0  0  0  0  0  0  0  0  0  0
    4.8560   -1.4670   22.7060 C   0  0  0  0  0  0  0  0  0  0  0  0
    6.6040   -3.0110   21.5980 N   0  0  0  0  0  0  0  0  0  0  0  0
    5.7440   -0.2040   22.6820 C   0  0  0  0  0  0  0  0  0  0  0  0
    6.5120   -3.4160   20.2760 C   0  0  0  0  0  0  0  0  0  0  0  0
    5.2460    0.7740   21.8330 C   0  0  2  0  0  0  0  0  0  0  0  0
    5.4880   -3.5380   19.5590 O   0  0  0  0  0  0  0  0  0  0  0  0
    7.7120   -3.8940   19.6720 C   0  0  0  0  0  0  0  0  0  0  0  0
    3.9770    1.1700   22.1330 C   0  0  0  0  0  0  0  0  0  0  0  0
    5.6480    0.5310   20.4180 C   0  0  0  0  0  0  0  0  0  0  0  0
    3.7090    2.4980   22.6270 N   0  0  0  0  0  0  0  0  0  0  0  0
    6.5970   -0.3760   19.9560 C   0  0  0  0  0  0  0  0  0  0  0  0
    4.9350    1.3590   19.5610 C   0  0  0  0  0  0  0  0  0  0  0  0
    2.7860    2.5630   23.6260 C   0  0  0  0  0  0  0  0  0  0  0  0
    6.8490   -0.4650   18.5980 C   0  0  0  0  0  0  0  0  0  0  0  0
    5.2030    1.2570   18.2120 C   0  0  0  0  0  0  0  0  0  0  0  0
    2.8690    1.9360   24.6740 O   0  0  0  0  0  0  0  0  0  0  0  0
    1.7840    3.3830   23.2950 N   0  0  0  0  0  0  0  0  0  0  0  0
    6.1440    0.3670   17.7000 N   0  0  0  0  0  0  0  0  0  0  0  0
    0.5480    3.3860   24.0840 C   0  0  0  0  0  0  0  0  0  0  0  0
    0.4160    4.6690   24.6300 C   0  0  0  0  0  0  0  0  0  0  0  0
   -0.4920    3.0000   23.2490 C   0  0  0  0  0  0  0  0  0  0  0  0
   -0.8600    4.9610   25.1110 C   0  0  0  0  0  0  0  0  0  0  0  0
   -1.7600    3.2820   23.7810 C   0  0  0  0  0  0  0  0  0  0  0  0
   -1.8720    4.6160   24.2050 C   0  0  0  0  0  0  0  0  0  0  0  0
  1  2  1  0
  2  3  2  0
  2  4  1  0
  4  5  2  0
  3  6  1  0
  5  7  1  0
  6  7  2  0
  7  8  1  0
  8  9  2  0
  8 10  1  0
 10 11  1  0
 10 12  1  0
 11 13  1  0
 12 14  1  0
 11 15  1  6
 13 16  1  0
 14 16  1  0
 15 17  1  0
 16 18  1  0
 19 17  1  1
 18 20  2  0
 18 21  1  0
 19 22  1  0
 19 23  1  0
 22 24  1  0
 23 25  2  0
 23 26  1  0
 24 27  1  0
 25 28  1  0
 26 29  2  0
 27 30  2  0
 27 31  1  0
 28 32  2  0
 29 32  1  0
 31 33  1  0
 33 34  1  0
 33 35  1  0
 34 36  1  0
 35 37  1  0
 36 38  1  0
 37 38  1  0
M  END
