x0705-x2600
     RDKit          3D

 36 39  0  0  0  0  0  0  0  0999 V2000
    1.2290   -2.6810   28.0210 C   0  0  0  0  0  0  0  0  0  0  0  0
    2.5860   -2.4460   27.3410 C   0  0  0  0  0  0  0  0  0  0  0  0
    3.7110   -3.2190   27.6670 C   0  0  0  0  0  0  0  0  0  0  0  0
    2.6340   -1.3240   26.2900 C   0  0  0  0  0  0  0  0  0  0  0  0
    4.0060   -1.1550   25.6560 C   0  0  0  0  0  0  0  0  0  0  0  0
    4.9150   -3.0300   27.0720 C   0  0  0  0  0  0  0  0  0  0  0  0
    5.0990   -1.9380   25.9940 C   0  0  0  0  0  0  0  0  0  0  0  0
    6.4340   -1.8030   25.3850 C   0  0  0  0  0  0  0  0  0  0  0  0
    7.3760   -1.6000   26.1310 O   0  0  0  0  0  0  0  0  0  0  0  0
    6.5120   -1.9080   24.0040 N   0  0  0  0  0  0  0  0  0  0  0  0
    5.4120   -2.2380   23.2880 C   0  0  0  0  0  0  0  0  0  0  0  0
    7.8330   -1.9340   23.3050 C   0  0  2  0  0  0  0  0  0  0  0  0
    8.5940   -0.5180   23.1510 C   0  0  2  0  0  0  0  0  0  0  0  0
    5.8270   -3.2700   22.4940 C   0  0  0  0  0  0  0  0  0  0  0  0
    7.8840   -2.6010   22.0690 C   0  0  0  0  0  0  0  0  0  0  0  0
    8.2440    0.2130   21.8080 C   0  0  0  0  0  0  0  0  0  0  0  0
    6.6720   -2.8590   21.5640 N   0  0  0  0  0  0  0  0  0  0  0  0
   10.0850   -0.5900   23.3890 C   0  0  0  0  0  0  0  0  0  0  0  0
    6.5680   -3.3640   20.2590 C   0  0  0  0  0  0  0  0  0  0  0  0
    8.8970    1.1810   21.3330 O   0  0  0  0  0  0  0  0  0  0  0  0
    7.0610   -0.3540   21.1870 N   0  0  0  0  0  0  0  0  0  0  0  0
   10.6420   -0.3170   24.6590 C   0  0  0  0  0  0  0  0  0  0  0  0
   10.9120   -0.9320   22.3390 C   0  0  0  0  0  0  0  0  0  0  0  0
    5.5230   -3.5650   19.5800 O   0  0  0  0  0  0  0  0  0  0  0  0
    7.7920   -3.8230   19.6520 C   0  0  0  0  0  0  0  0  0  0  0  0
    6.4260    0.2630   20.0960 C   0  0  0  0  0  0  0  0  0  0  0  0
   12.0200   -0.4000   24.8400 C   0  0  0  0  0  0  0  0  0  0  0  0
   12.2750   -0.9950   22.5660 C   0  0  0  0  0  0  0  0  0  0  0  0
   13.2010   -1.3330   21.5010 C   0  0  0  0  0  0  0  0  0  0  0  0
    6.8670    0.1130   18.8140 C   0  0  0  0  0  0  0  0  0  0  0  0
    5.3070    1.0630   20.2510 C   0  0  0  0  0  0  0  0  0  0  0  0
   12.8130   -0.7360   23.7850 C   0  0  0  0  0  0  0  0  0  0  0  0
   14.0190   -1.4510   20.3760 N   0  0  0  0  0  0  0  0  0  0  0  0
    6.3010    0.7030   17.6400 N   0  0  0  0  0  0  0  0  0  0  0  0
    4.7110    1.6600   19.1310 C   0  0  0  0  0  0  0  0  0  0  0  0
    5.2110    1.4840   17.8150 C   0  0  0  0  0  0  0  0  0  0  0  0
  1  2  1  0
  2  3  2  0
  2  4  1  0
  4  5  2  0
  3  6  1  0
  5  7  1  0
  6  7  2  0
  7  8  1  0
  8  9  2  0
  8 10  1  0
 10 11  1  0
 10 12  1  0
 12 13  1  0
 11 14  1  0
 12 15  1  6
 13 16  1  6
 14 17  1  0
 15 17  1  0
 13 18  1  0
 17 19  1  0
 16 20  2  0
 16 21  1  0
 18 22  2  0
 18 23  1  0
 19 24  2  0
 19 25  1  0
 21 26  1  0
 22 27  1  0
 23 28  2  0
 28 29  1  0
 26 30  2  0
 26 31  1  0
 27 32  2  0
 28 32  1  0
 29 33  3  0
 30 34  1  0
 31 35  2  0
 34 36  2  0
 35 36  1  0
M  END
