x0708-x2581
     RDKit          3D

 37 41  0  0  0  0  0  0  0  0999 V2000
    6.6580   -4.5080   21.1880 N   0  0  0  0  0  0  0  0  0  0  0  0
    6.3180   -3.8630   20.0100 C   0  0  0  0  0  0  0  0  0  0  0  0
    7.4310   -3.1550   19.2500 C   0  0  0  0  0  0  0  0  0  0  0  0
    7.8040   -4.1000   21.8760 N   0  0  0  0  0  0  0  0  0  0  0  0
    5.1830   -3.9020   19.5660 O   0  0  0  0  0  0  0  0  0  0  0  0
    7.9150   -2.8910   22.4960 C   0  0  0  0  0  0  0  0  0  0  0  0
    6.8710   -2.3540   22.8740 O   0  0  0  0  0  0  0  0  0  0  0  0
    9.2220   -2.2720   22.7270 C   0  0  0  0  0  0  0  0  0  0  0  0
   10.5380   -2.2510   22.2320 C   0  0  0  0  0  0  0  0  0  0  0  0
    9.3120   -1.2010   23.7610 C   0  0  1  0  0  0  0  0  0  0  0  0
   11.4150   -2.7750   21.2090 C   0  0  0  0  0  0  0  0  0  0  0  0
   11.3700   -1.5010   22.9620 C   0  0  0  0  0  0  0  0  0  0  0  0
   10.6430   -0.9410   23.9170 C   0  0  0  0  0  0  0  0  0  0  0  0
    9.0710   -0.0330   22.8650 C   0  0  0  0  0  0  0  0  0  0  0  0
   12.8600   -1.3260   22.7730 C   0  0  0  0  0  0  0  0  0  0  0  0
   11.2380   -0.1090   24.8720 C   0  0  0  0  0  0  0  0  0  0  0  0
    9.8600    1.2730   23.0520 C   0  0  0  0  0  0  0  0  0  0  0  0
    8.2010   -0.0510   21.8310 C   0  0  0  0  0  0  0  0  0  0  0  0
   12.9770    0.1500   22.9070 C   0  0  0  0  0  0  0  0  0  0  0  0
   12.4830    0.4980   24.2970 C   0  0  0  0  0  0  0  0  0  0  0  0
    9.5740    2.3580   22.0600 C   0  0  0  0  0  0  0  0  0  0  0  0
    8.0070    1.1130   20.9180 C   0  0  0  0  0  0  0  0  0  0  0  0
   10.2020    3.5270   22.1010 N   0  0  0  0  0  0  0  0  0  0  0  0
    8.6820    2.2580   21.0470 N   0  0  0  0  0  0  0  0  0  0  0  0
   11.1470    3.9310   23.0350 C   0  0  0  0  0  0  0  0  0  0  0  0
   11.3500    3.2840   24.0240 O   0  0  0  0  0  0  0  0  0  0  0  0
   11.8360    5.1210   22.8010 C   0  0  0  0  0  0  0  0  0  0  0  0
   11.0850    6.2980   23.3700 C   0  0  0  0  0  0  0  0  0  0  0  0
    9.8570    6.6620   22.8060 C   0  0  0  0  0  0  0  0  0  0  0  0
   11.5980    7.0240   24.4540 C   0  0  0  0  0  0  0  0  0  0  0  0
    9.0550    7.8200   23.3250 C   0  0  0  0  0  0  0  0  0  0  0  0
   10.9260    8.1370   25.0220 C   0  0  0  0  0  0  0  0  0  0  0  0
    9.5850    8.6070   24.4750 C   0  0  0  0  0  0  0  0  0  0  0  0
   11.4580    8.8530   26.0980 C   0  0  0  0  0  0  0  0  0  0  0  0
    8.9430    9.7070   25.0390 C   0  0  0  0  0  0  0  0  0  0  0  0
   10.7710    9.9560   26.6310 C   0  0  0  0  0  0  0  0  0  0  0  0
    9.5380   10.3750   26.1090 C   0  0  0  0  0  0  0  0  0  0  0  0
  1  2  1  0
  2  3  1  0
  1  4  1  0
  2  5  2  0
  4  6  1  0
  6  7  2  0
  6  8  1  0
  8  9  2  0
  8 10  1  0
  9 11  1  0
  9 12  1  0
 10 13  1  0
 12 13  2  0
 10 14  1  6
 12 15  1  0
 13 16  1  0
 14 17  2  0
 14 18  1  0
 15 19  1  0
 16 20  1  0
 19 20  1  0
 17 21  1  0
 18 22  2  0
 21 23  1  0
 21 24  2  0
 22 24  1  0
 23 25  1  0
 25 26  2  0
 25 27  1  0
 27 28  1  0
 28 29  2  0
 28 30  1  0
 29 31  1  0
 30 32  2  0
 31 33  2  0
 32 33  1  0
 32 34  1  0
 33 35  1  0
 34 36  2  0
 35 37  2  0
 36 37  1  0
M  END
