x0705-x0104
     RDKit          3D

 37 40  0  0  0  0  0  0  0  0999 V2000
    1.0320   -3.0790   27.8380 C   0  0  0  0  0  0  0  0  0  0  0  0
    2.3640   -2.7490   27.2670 C   0  0  0  0  0  0  0  0  0  0  0  0
    3.5440   -3.4350   27.6290 C   0  0  0  0  0  0  0  0  0  0  0  0
    2.4530   -1.6300   26.2620 C   0  0  0  0  0  0  0  0  0  0  0  0
    3.7720   -1.2450   25.6560 C   0  0  0  0  0  0  0  0  0  0  0  0
    4.8080   -3.1290   27.1030 C   0  0  0  0  0  0  0  0  0  0  0  0
    4.8870   -1.9780   26.0780 C   0  0  0  0  0  0  0  0  0  0  0  0
    6.2130   -1.6210   25.5320 C   0  0  0  0  0  0  0  0  0  0  0  0
    6.9110   -0.8500   26.4540 N   0  0  0  0  0  0  0  0  0  0  0  0
    6.4860   -2.0400   24.2090 N   0  0  0  0  0  0  0  0  0  0  0  0
    8.1800   -0.0940   26.6060 C   0  0  0  0  0  0  0  0  0  0  0  0
    5.3600   -2.1740   23.2840 C   0  0  0  0  0  0  0  0  0  0  0  0
    7.7180   -2.0430   23.6300 C   0  0  0  0  0  0  0  0  0  0  0  0
    9.0430    0.2150   25.4030 C   0  0  0  0  0  0  0  0  0  0  0  0
    5.6230   -3.3340   22.5870 C   0  0  0  0  0  0  0  0  0  0  0  0
    7.8520   -3.0370   22.6310 C   0  0  0  0  0  0  0  0  0  0  0  0
    8.9540    1.4410   24.7550 C   0  0  0  0  0  0  0  0  0  0  0  0
    6.6230   -3.0440   21.7740 N   0  0  0  0  0  0  0  0  0  0  0  0
    6.7250   -3.6910   20.5480 C   0  0  0  0  0  0  0  0  0  0  0  0
   10.1410    1.6160   24.1000 N   0  0  0  0  0  0  0  0  0  0  0  0
    5.9150   -3.5740   19.5890 O   0  0  0  0  0  0  0  0  0  0  0  0
    7.8910   -4.6060   20.4700 C   0  0  0  0  0  0  0  0  0  0  0  0
   10.7190    2.8020   23.8020 C   0  0  0  0  0  0  0  0  0  0  0  0
   10.9590    0.5420   23.6160 C   0  0  0  0  0  0  0  0  0  0  0  0
   11.9180    2.4960   23.1250 C   0  0  0  0  0  0  0  0  0  0  0  0
   12.0790    1.0500   23.0130 C   0  0  0  0  0  0  0  0  0  0  0  0
   10.7490   -0.8550   23.6860 C   0  0  0  0  0  0  0  0  0  0  0  0
   12.7750    3.6960   22.6410 C   0  0  0  0  0  0  0  0  0  0  0  0
   11.6600   -1.7060   23.1400 C   0  0  0  0  0  0  0  0  0  0  0  0
   13.0170    0.1590   22.4770 C   0  0  0  0  0  0  0  0  0  0  0  0
   12.5430    4.9680   23.2400 C   0  0  0  0  0  0  0  0  0  0  0  0
   12.7790   -1.1950   22.5400 C   0  0  0  0  0  0  0  0  0  0  0  0
   11.3420    5.5420   22.6000 N   0  0  0  0  0  0  0  0  0  0  0  0
   13.6140   -2.0590   22.0220 F   0  0  0  0  0  0  0  0  0  0  0  0
   10.2980    6.1240   23.4050 C   0  0  0  0  0  0  0  0  0  0  0  0
    9.0380    6.5340   22.5990 C   0  0  0  0  0  0  0  0  0  0  0  0
   10.3650    6.2980   24.6210 O   0  0  0  0  0  0  0  0  0  0  0  0
  1  2  1  0
  2  3  2  0
  2  4  1  0
  4  5  2  0
  3  6  1  0
  5  7  1  0
  6  7  2  0
  7  8  1  0
  8  9  2  3
  8 10  1  0
  9 11  1  0
 10 12  1  0
 10 13  1  0
 11 14  1  0
 12 15  1  0
 13 16  1  0
 14 17  1  0
 15 18  1  0
 16 18  1  0
 18 19  1  0
 17 20  1  0
 19 21  2  0
 19 22  1  0
 20 23  1  0
 20 24  1  0
 23 25  2  0
 24 26  2  0
 25 26  1  0
 24 27  1  0
 25 28  1  0
 27 29  2  0
 26 30  1  0
 28 31  1  0
 29 32  1  0
 30 32  2  0
 31 33  1  0
 32 34  1  0
 33 35  1  0
 35 36  1  0
 35 37  2  0
M  END
