x0705-x0967
     RDKit          3D

 38 40  0  0  0  0  0  0  0  0999 V2000
    7.7050    4.9400   22.4060 C   0  0  0  0  0  0  0  0  0  0  0  0
    7.2060    3.6840   23.0690 C   0  0  0  0  0  0  0  0  0  0  0  0
    7.9730    2.5740   22.8220 N   0  0  0  0  0  0  0  0  0  0  0  0
    6.2010    3.6700   23.7720 O   0  0  0  0  0  0  0  0  0  0  0  0
    7.5220    1.2480   23.2700 C   0  0  1  0  0  0  0  0  0  0  0  0
    6.1390    0.9750   22.7030 C   0  0  0  0  0  0  0  0  0  0  0  0
    8.6380    0.3560   22.7140 C   0  0  0  0  0  0  0  0  0  0  0  0
    8.5720   -1.0980   22.5310 N   0  0  0  0  0  0  0  0  0  0  0  0
    9.7040    0.8790   22.3560 O   0  0  0  0  0  0  0  0  0  0  0  0
    6.1510    0.7300   21.1650 C   0  0  0  0  0  0  0  0  0  0  0  0
    9.5750   -1.6090   21.6360 C   0  0  0  0  0  0  0  0  0  0  0  0
    6.8650   -0.2990   20.2880 C   0  0  0  0  0  0  0  0  0  0  0  0
    5.3530    1.6340   20.4640 C   0  0  0  0  0  0  0  0  0  0  0  0
    7.9310   -2.0190   23.3950 C   0  0  1  0  0  0  0  0  0  0  0  0
   10.7860   -1.8600   22.3820 C   0  0  0  0  0  0  0  0  0  0  0  0
    6.6880   -0.2680   18.9240 C   0  0  0  0  0  0  0  0  0  0  0  0
    5.2060    1.6230   19.0830 C   0  0  0  0  0  0  0  0  0  0  0  0
    6.6640   -1.7390   23.9040 N   0  0  0  0  0  0  0  0  0  0  0  0
    7.8080   -3.2720   22.7750 C   0  0  0  0  0  0  0  0  0  0  0  0
   12.0010   -2.0930   23.2520 C   0  0  0  0  0  0  0  0  0  0  0  0
    6.5000   -1.7830   25.2700 C   0  0  0  0  0  0  0  0  0  0  0  0
    5.8730    0.6790   18.3230 C   0  0  0  0  0  0  0  0  0  0  0  0
    6.7600   -3.3800   21.9200 N   0  0  0  0  0  0  0  0  0  0  0  0
    5.5760   -1.9880   23.0880 C   0  0  0  0  0  0  0  0  0  0  0  0
    5.7010    0.7400   17.1370 O   0  0  0  0  0  0  0  0  0  0  0  0
   13.4200   -2.4000   24.4480 Br  0  0  0  0  0  0  0  0  0  0  0  0
    7.4060   -1.6530   26.0720 O   0  0  0  0  0  0  0  0  0  0  0  0
    6.7850   -3.9370   20.6460 C   0  0  0  0  0  0  0  0  0  0  0  0
    5.1330   -1.9940   25.9010 C   0  0  0  0  0  0  0  0  0  0  0  0
    5.5080   -3.2750   22.6480 C   0  0  0  0  0  0  0  0  0  0  0  0
    5.8990   -3.8210   19.7470 O   0  0  0  0  0  0  0  0  0  0  0  0
    7.9900   -4.7600   20.4370 C   0  0  0  0  0  0  0  0  0  0  0  0
    4.0580   -1.1700   25.5880 C   0  0  0  0  0  0  0  0  0  0  0  0
    4.9640   -3.0390   26.8210 C   0  0  0  0  0  0  0  0  0  0  0  0
    2.8160   -1.3780   26.1790 C   0  0  0  0  0  0  0  0  0  0  0  0
    3.7160   -3.2500   27.4170 C   0  0  0  0  0  0  0  0  0  0  0  0
    2.6420   -2.4170   27.0940 C   0  0  0  0  0  0  0  0  0  0  0  0
    1.2920   -2.6220   27.7210 C   0  0  0  0  0  0  0  0  0  0  0  0
  1  2  1  0
  2  3  1  0
  2  4  2  0
  3  5  1  0
  5  6  1  6
  5  7  1  0
  7  8  1  0
  7  9  2  0
  6 10  1  0
  8 11  1  0
 10 12  2  0
 10 13  1  0
 14  8  1  6
 11 15  1  0
 12 16  1  0
 13 17  2  0
 14 18  1  0
 14 19  1  0
 15 20  3  0
 18 21  1  0
 16 22  2  0
 17 22  1  0
 19 23  1  0
 18 24  1  0
 22 25  1  0
 20 26  1  0
 21 27  2  0
 23 28  1  0
 21 29  1  0
 23 30  1  0
 24 30  1  0
 28 31  2  0
 28 32  1  0
 29 33  2  0
 29 34  1  0
 33 35  1  0
 34 36  2  0
 35 37  2  0
 36 37  1  0
 37 38  1  0
M  END
