x0705-x1093
     RDKit          3D

 38 42  0  0  0  0  0  0  0  0999 V2000
    1.0700   -2.5300   27.9320 C   0  0  0  0  0  0  0  0  0  0  0  0
    2.4320   -2.4010   27.3740 C   0  0  0  0  0  0  0  0  0  0  0  0
    3.4820   -3.1810   27.7970 C   0  0  0  0  0  0  0  0  0  0  0  0
    2.7090   -1.3830   26.2980 C   0  0  0  0  0  0  0  0  0  0  0  0
    3.9980   -1.3090   25.8130 C   0  0  0  0  0  0  0  0  0  0  0  0
    4.7560   -3.0250   27.2350 C   0  0  0  0  0  0  0  0  0  0  0  0
    5.0700   -2.1230   26.2560 C   0  0  0  0  0  0  0  0  0  0  0  0
    6.4300   -2.0070   25.6870 C   0  0  0  0  0  0  0  0  0  0  0  0
    7.3150   -1.5330   26.3710 O   0  0  0  0  0  0  0  0  0  0  0  0
    6.5520   -2.4500   24.4120 N   0  0  0  0  0  0  0  0  0  0  0  0
    5.4110   -2.6020   23.5930 C   0  0  0  0  0  0  0  0  0  0  0  0
    7.7910   -2.8250   23.8360 C   0  0  0  0  0  0  0  0  0  0  0  0
    5.5000   -3.3640   22.4550 C   0  0  0  0  0  0  0  0  0  0  0  0
    7.7940   -3.5210   22.4950 C   0  0  0  0  0  0  0  0  0  0  0  0
    6.7660   -2.8990   21.7980 C   0  0  0  0  0  0  0  0  0  0  0  0
    6.6260   -3.3700   20.3100 C   0  0  0  0  0  0  0  0  0  0  0  0
    6.9330   -1.3370   21.8860 C   0  0  0  0  0  0  0  0  0  0  0  0
    5.5830   -3.5380   19.6120 O   0  0  0  0  0  0  0  0  0  0  0  0
    7.8060   -3.8240   19.6520 C   0  0  0  0  0  0  0  0  0  0  0  0
    7.7590   -0.6850   20.9660 C   0  0  2  0  0  0  0  0  0  0  0  0
    8.7560    0.2110   21.4540 C   0  0  0  0  0  0  0  0  0  0  0  0
    7.0250   -0.1440   19.8920 C   0  0  0  0  0  0  0  0  0  0  0  0
    8.6120    1.3830   21.0500 O   0  0  0  0  0  0  0  0  0  0  0  0
    9.7750   -0.2190   22.2840 N   0  0  0  0  0  0  0  0  0  0  0  0
    7.2700   -0.3570   18.5750 C   0  0  0  0  0  0  0  0  0  0  0  0
    5.9350    0.6610   20.0930 C   0  0  0  0  0  0  0  0  0  0  0  0
   10.6490    0.6090   22.9290 C   0  0  0  0  0  0  0  0  0  0  0  0
   10.3600   -1.5480   22.1230 C   0  0  0  0  0  0  0  0  0  0  0  0
    6.2460    0.3900   17.8130 N   0  0  0  0  0  0  0  0  0  0  0  0
    5.4730    0.9790   18.8320 C   0  0  0  0  0  0  0  0  0  0  0  0
    5.2460    1.1790   21.2060 C   0  0  0  0  0  0  0  0  0  0  0  0
   11.9630    0.1600   23.1270 C   0  0  0  0  0  0  0  0  0  0  0  0
   11.0370   -2.0160   23.2430 C   0  0  0  0  0  0  0  0  0  0  0  0
    4.4090    1.7540   18.5950 N   0  0  0  0  0  0  0  0  0  0  0  0
    4.1330    1.9830   20.9740 C   0  0  0  0  0  0  0  0  0  0  0  0
   12.0070   -1.0370   23.7820 N   0  0  0  0  0  0  0  0  0  0  0  0
    3.7660    2.2340   19.6670 C   0  0  0  0  0  0  0  0  0  0  0  0
   13.2730   -1.5490   23.7920 C   0  0  0  0  0  0  0  0  0  0  0  0
  1  2  1  0
  2  3  2  0
  2  4  1  0
  4  5  2  0
  3  6  1  0
  5  7  1  0
  6  7  2  0
  7  8  1  0
  8  9  2  0
  8 10  1  0
 10 11  1  0
 10 12  1  0
 11 13  1  0
 12 14  1  0
 13 15  1  0
 14 15  1  0
 15 16  1  0
 15 17  1  0
 16 18  2  0
 16 19  1  0
 20 17  1  1
 20 21  1  0
 20 22  1  0
 21 23  2  0
 21 24  1  0
 22 25  2  0
 22 26  1  0
 24 27  1  0
 24 28  1  0
 25 29  1  0
 26 30  2  0
 29 30  1  0
 26 31  1  0
 27 32  1  0
 28 33  1  0
 30 34  1  0
 31 35  2  0
 32 36  1  0
 33 36  1  0
 34 37  2  0
 35 37  1  0
 36 38  1  0
M  END
