x0705-x0434
     RDKit          3D

 34 37  0  0  0  0  0  0  0  0999 V2000
    1.2730   -2.5450   27.8120 C   0  0  0  0  0  0  0  0  0  0  0  0
    2.6540   -2.3930   27.3190 C   0  0  0  0  0  0  0  0  0  0  0  0
    3.8140   -3.0710   27.7220 C   0  0  0  0  0  0  0  0  0  0  0  0
    3.0710   -1.5050   26.3130 C   0  0  0  0  0  0  0  0  0  0  0  0
    4.1890   -0.9790   25.5010 C   0  0  0  0  0  0  0  0  0  0  0  0
    5.1720   -2.7280   27.0360 C   0  0  0  0  0  0  0  0  0  0  0  0
    5.4470   -1.7520   25.9720 C   0  0  0  0  0  0  0  0  0  0  0  0
    6.8380   -1.5590   25.3990 C   0  0  0  0  0  0  0  0  0  0  0  0
    7.7240   -1.0180   26.0400 O   0  0  0  0  0  0  0  0  0  0  0  0
    6.9640   -2.0710   24.1100 N   0  0  0  0  0  0  0  0  0  0  0  0
    5.7580   -2.8620   23.7240 C   0  0  0  0  0  0  0  0  0  0  0  0
    7.5750   -1.5630   22.9810 C   0  0  1  0  0  0  0  0  0  0  0  0
    8.5550   -0.4830   22.9120 N   0  0  0  0  0  0  0  0  0  0  0  0
    6.0770   -3.7440   22.7790 C   0  0  0  0  0  0  0  0  0  0  0  0
    7.9870   -2.5810   22.1800 C   0  0  0  0  0  0  0  0  0  0  0  0
    8.4550    0.2030   21.8020 C   0  0  0  0  0  0  0  0  0  0  0  0
    6.7950   -3.2010   21.6760 N   0  0  0  0  0  0  0  0  0  0  0  0
    9.9800   -0.4980   23.0210 C   0  0  0  0  0  0  0  0  0  0  0  0
    6.7790   -3.8320   20.4890 C   0  0  0  0  0  0  0  0  0  0  0  0
    8.7890    1.3320   21.3610 O   0  0  0  0  0  0  0  0  0  0  0  0
    7.8020   -0.5020   20.7120 N   0  0  0  0  0  0  0  0  0  0  0  0
   10.5800    0.4350   23.8680 C   0  0  0  0  0  0  0  0  0  0  0  0
   10.8420   -1.3550   22.3200 C   0  0  0  0  0  0  0  0  0  0  0  0
    5.8780   -3.7340   19.6320 O   0  0  0  0  0  0  0  0  0  0  0  0
    7.9890   -4.6700   20.3930 C   0  0  0  0  0  0  0  0  0  0  0  0
   11.9490    0.5560   24.0390 C   0  0  0  0  0  0  0  0  0  0  0  0
   12.2250   -1.2930   22.4440 C   0  0  0  0  0  0  0  0  0  0  0  0
    6.7840    0.1520   19.9120 C   0  0  0  0  0  0  0  0  0  0  0  0
   12.8730   -0.3800   23.2680 C   0  0  0  0  0  0  0  0  0  0  0  0
    5.6640    0.8200   20.4430 C   0  0  0  0  0  0  0  0  0  0  0  0
    6.9990    0.0810   18.5690 C   0  0  0  0  0  0  0  0  0  0  0  0
    4.7770    1.4230   19.5440 C   0  0  0  0  0  0  0  0  0  0  0  0
    6.2000    0.6290   17.6480 N   0  0  0  0  0  0  0  0  0  0  0  0
    5.0600    1.3200   18.1980 C   0  0  0  0  0  0  0  0  0  0  0  0
  1  2  1  0
  2  3  2  0
  2  4  1  0
  4  5  2  0
  3  6  1  0
  5  7  1  0
  6  7  2  0
  7  8  1  0
  8  9  2  0
  8 10  1  0
 10 11  1  0
 10 12  1  0
 12 13  1  1
 11 14  1  0
 12 15  1  0
 13 16  1  0
 14 17  1  0
 15 17  1  0
 13 18  1  0
 17 19  1  0
 16 20  2  0
 16 21  1  0
 18 22  2  0
 18 23  1  0
 19 24  2  0
 19 25  1  0
 22 26  1  0
 23 27  2  0
 21 28  1  0
 26 29  2  0
 27 29  1  0
 28 30  2  0
 28 31  1  0
 30 32  1  0
 31 33  2  0
 32 34  2  0
 33 34  1  0
M  END
