x0734-x3110-x3117-x1249
     RDKit          3D

 61 67  0  0  0  0  0  0  0  0999 V2000
    7.6860    1.7630   23.2170 C   0  0  1  0  0  0  0  0  0  0  0  0
    7.7540    3.3240   23.2960 C   0  0  1  0  0  0  0  0  0  0  0  0
    8.4700    3.9530   24.4920 C   0  0  0  0  0  0  0  0  0  0  0  0
    7.7450    0.9910   21.8870 C   0  0  0  0  0  0  0  0  0  0  0  0
    8.9300    1.4340   23.9260 N   0  0  0  0  0  0  0  0  0  0  0  0
    6.4490    1.3880   23.7890 N   0  0  0  0  0  0  0  0  0  0  0  0
    8.4780    1.4060   20.9870 O   0  0  0  0  0  0  0  0  0  0  0  0
   10.1740    1.8490   23.2230 C   0  0  1  0  0  0  0  0  0  0  0  0
    6.9590   -0.2010   21.6010 C   0  0  2  0  0  0  0  0  0  0  0  0
    8.3690    4.1760   22.3080 C   0  0  0  0  0  0  0  0  0  0  0  0
    5.2910    2.0480   23.1820 C   0  0  0  0  0  0  0  0  0  0  0  0
    6.1970    0.9060   25.1340 C   0  0  0  0  0  0  0  0  0  0  0  0
    7.6960   -1.5130   21.8410 N   0  0  0  0  0  0  0  0  0  0  0  0
   10.9970    2.7900   23.7660 C   0  0  0  0  0  0  0  0  0  0  0  0
    6.4250    0.2350   20.1810 C   0  0  0  0  0  0  0  0  0  0  0  0
    9.1310    5.1950   24.1570 O   0  0  0  0  0  0  0  0  0  0  0  0
    8.9850    5.3580   22.7470 C   0  0  0  0  0  0  0  0  0  0  0  0
    4.2090    1.1750   23.1380 C   0  0  0  0  0  0  0  0  0  0  0  0
    4.9510    0.2170   25.1400 C   0  0  0  0  0  0  0  0  0  0  0  0
   11.0670    0.5960   22.9540 C   0  0  2  0  0  0  0  0  0  0  0  0
   11.1930    3.9860   23.1180 O   0  0  0  0  0  0  0  0  0  0  0  0
    5.2300    0.9920   20.2260 C   0  0  0  0  0  0  0  0  0  0  0  0
    7.0000   -0.0320   18.9580 C   0  0  0  0  0  0  0  0  0  0  0  0
   10.8430   -0.6540   24.0900 C   0  0  2  0  0  0  0  0  0  0  0  0
    9.0850   -1.3920   21.7620 C   0  0  2  0  0  0  0  0  0  0  0  0
    3.8520    0.8790   24.4820 O   0  0  0  0  0  0  0  0  0  0  0  0
   12.5680    0.7650   22.8690 C   0  0  0  0  0  0  0  0  0  0  0  0
    7.2180   -2.8730   22.3690 C   0  0  2  0  0  0  0  0  0  0  0  0
   12.3830    4.1190   22.3530 C   0  0  0  0  0  0  0  0  0  0  0  0
   12.1580   -1.6380   24.3910 C   0  0  0  0  0  0  0  0  0  0  0  0
    6.4170    0.4640   17.7260 N   0  0  0  0  0  0  0  0  0  0  0  0
    4.6280    1.4880   19.0610 C   0  0  0  0  0  0  0  0  0  0  0  0
    9.7640   -2.5490   21.5950 C   0  0  0  0  0  0  0  0  0  0  0  0
    9.8270   -1.4580   23.8970 C   0  0  0  0  0  0  0  0  0  0  0  0
    9.8750   -0.8920   22.7000 C   0  0  0  0  0  0  0  0  0  0  0  0
   12.5300   -0.6120   23.0920 C   0  0  0  0  0  0  0  0  0  0  0  0
    6.5030   -3.7540   21.4080 N   0  0  0  0  0  0  0  0  0  0  0  0
    6.4410   -2.8080   23.5080 C   0  0  0  0  0  0  0  0  0  0  0  0
   13.4610    5.1280   22.7330 C   0  0  0  0  0  0  0  0  0  0  0  0
   12.8660   -1.0060   25.3310 C   0  0  0  0  0  0  0  0  0  0  0  0
   13.2210   -1.7160   23.3310 C   0  0  2  0  0  0  0  0  0  0  0  0
   11.9520   -2.9940   24.7050 C   0  0  0  0  0  0  0  0  0  0  0  0
    6.2150   -3.6970   20.0480 C   0  0  0  0  0  0  0  0  0  0  0  0
    5.1940    1.2470   17.8280 C   0  0  0  0  0  0  0  0  0  0  0  0
    6.3830   -5.1160   21.9230 C   0  0  0  0  0  0  0  0  0  0  0  0
    6.0620   -4.1900   23.9700 N   0  0  0  0  0  0  0  0  0  0  0  0
    5.1530   -4.1880   19.6840 O   0  0  0  0  0  0  0  0  0  0  0  0
    7.2010   -3.0990   19.0360 C   0  0  0  0  0  0  0  0  0  0  0  0
    6.7990   -4.8200   24.9810 C   0  0  0  0  0  0  0  0  0  0  0  0
    5.5700   -5.0410   23.0320 C   0  0  0  0  0  0  0  0  0  0  0  0
   13.0630   -2.6060   22.1420 C   0  0  0  0  0  0  0  0  0  0  0  0
    6.1380   -5.2010   26.2920 C   0  0  0  0  0  0  0  0  0  0  0  0
    8.2500   -5.1440   24.7830 C   0  0  0  0  0  0  0  0  0  0  0  0
   13.4300   -1.8160   21.1300 C   0  0  0  0  0  0  0  0  0  0  0  0
    4.7510   -4.8940   26.4670 N   0  0  0  0  0  0  0  0  0  0  0  0
    8.9080   -5.7920   25.8120 C   0  0  0  0  0  0  0  0  0  0  0  0
    6.8490   -5.8410   27.3130 C   0  0  0  0  0  0  0  0  0  0  0  0
   13.8840   -1.1390   20.3680 N   0  0  0  0  0  0  0  0  0  0  0  0
    3.9720   -5.5600   25.7710 O   0  0  0  0  0  0  0  0  0  0  0  0
    4.4840   -3.7870   26.9540 O   0  0  0  0  0  0  0  0  0  0  0  0
    8.1890   -6.1350   27.0980 C   0  0  0  0  0  0  0  0  0  0  0  0
  1  2  1  0
  2  3  1  1
  1  4  1  0
  1  5  1  0
  1  6  1  1
  4  7  2  0
  5  8  1  0
  4  9  1  0
  2 10  1  0
  6 11  1  0
  6 12  1  0
  9 13  1  0
  8 14  1  1
  9 15  1  6
  3 16  1  0
 10 17  1  0
 16 17  1  0
 11 18  1  0
 12 19  1  0
  8 20  1  0
 14 21  1  0
 15 22  2  0
 15 23  1  0
 20 24  1  0
 13 25  1  0
 18 26  1  0
 19 26  1  0
 20 27  1  1
 28 13  1  6
 21 29  1  0
 24 30  1  0
 23 31  2  0
 22 32  1  0
 25 33  1  1
 24 34  1  6
 25 35  1  0
 34 35  2  0
 27 36  2  0
 28 37  1  0
 28 38  1  0
 29 39  1  0
 30 40  1  0
 30 41  1  0
 36 41  1  0
 30 42  1  0
 37 43  1  0
 31 44  1  0
 32 44  2  0
 37 45  1  0
 38 46  1  0
 43 47  2  0
 43 48  1  0
 46 49  1  0
 45 50  1  0
 46 50  1  0
 41 51  1  6
 49 52  2  0
 49 53  1  0
 51 54  1  0
 52 55  1  0
 53 56  2  0
 52 57  1  0
 54 58  3  0
 55 59  2  0
 55 60  1  0
 56 61  1  0
 57 61  2  0
M  CHG  2  55   1  60  -1
M  END
