x0734-x0874
     RDKit          3D

 31 34  0  0  0  0  0  0  0  0999 V2000
    5.1110   -4.7370   26.3090 N   0  0  0  0  0  0  0  0  0  0  0  0
    6.5650   -4.9290   26.2480 C   0  0  0  0  0  0  0  0  0  0  0  0
    7.2810   -5.4540   27.3330 C   0  0  0  0  0  0  0  0  0  0  0  0
    4.4130   -5.5790   25.7200 O   0  0  0  0  0  0  0  0  0  0  0  0
    4.6850   -3.6860   26.8070 O   0  0  0  0  0  0  0  0  0  0  0  0
    7.1920   -4.5670   25.0550 C   0  0  0  0  0  0  0  0  0  0  0  0
    8.5640   -4.7290   24.9150 C   0  0  0  0  0  0  0  0  0  0  0  0
    8.6600   -5.6230   27.1940 C   0  0  0  0  0  0  0  0  0  0  0  0
    6.2860   -4.0400   23.9940 N   0  0  0  0  0  0  0  0  0  0  0  0
    9.2920   -5.2660   25.9920 C   0  0  0  0  0  0  0  0  0  0  0  0
    5.6670   -5.0230   23.2900 C   0  0  0  0  0  0  0  0  0  0  0  0
    6.6050   -2.8720   23.1080 C   0  0  1  0  0  0  0  0  0  0  0  0
    7.0170   -1.4560   23.6350 C   0  0  0  0  0  0  0  0  0  0  0  0
    6.2310   -5.4930   21.9180 C   0  0  0  0  0  0  0  0  0  0  0  0
    7.4580   -3.3510   21.9660 C   0  0  0  0  0  0  0  0  0  0  0  0
    6.6640   -4.2960   21.2150 N   0  0  0  0  0  0  0  0  0  0  0  0
    8.4390   -0.9790   23.7840 C   0  0  2  0  0  0  0  0  0  0  0  0
    6.1770   -3.8820   19.9930 C   0  0  0  0  0  0  0  0  0  0  0  0
    8.9090    0.3910   23.6140 C   0  0  1  0  0  0  0  0  0  0  0  0
    9.3750   -1.6260   22.8260 C   0  0  0  0  0  0  0  0  0  0  0  0
    5.0370   -4.1180   19.6390 O   0  0  0  0  0  0  0  0  0  0  0  0
    7.1490   -3.1880   19.0650 C   0  0  0  0  0  0  0  0  0  0  0  0
   10.1180    0.2390   22.8290 C   0  0  2  0  0  0  0  0  0  0  0  0
   10.5450   -1.0230   23.0450 C   0  0  2  0  0  0  0  0  0  0  0  0
    8.1700    1.4170   23.1140 C   0  0  0  0  0  0  0  0  0  0  0  0
   11.7070   -1.4840   22.4130 C   0  0  0  0  0  0  0  0  0  0  0  0
   11.4310    0.8330   23.0000 C   0  0  0  0  0  0  0  0  0  0  0  0
    8.8950    2.0520   22.1000 C   0  0  0  0  0  0  0  0  0  0  0  0
   12.8270   -0.2060   22.5530 S   0  0  0  0  0  0  0  0  0  0  0  0
    9.7610    3.0230   22.4800 N   0  0  0  0  0  0  0  0  0  0  0  0
    8.7580    1.7680   20.9250 O   0  0  0  0  0  0  0  0  0  0  0  0
  1  2  1  0
  2  3  2  0
  1  4  2  0
  1  5  1  0
  2  6  1  0
  6  7  2  0
  3  8  1  0
  6  9  1  0
  7 10  1  0
  8 10  2  0
  9 11  1  0
  9 12  1  0
 12 13  1  1
 11 14  1  0
 12 15  1  0
 14 16  1  0
 15 16  1  0
 17 13  1  6
 16 18  1  0
 17 19  1  0
 17 20  1  0
 18 21  2  0
 18 22  1  0
 19 23  1  0
 24 20  1  6
 23 24  1  0
 19 25  1  6
 24 26  1  0
 23 27  1  1
 25 28  1  0
 26 29  2  0
 27 29  2  0
 28 30  1  0
 28 31  2  0
M  CHG  2   1   1   5  -1
M  END
