x0736-x3110-x0995
     RDKit          3D

 43 46  0  0  0  0  0  0  0  0999 V2000
    7.8620    1.6040   22.9650 N   0  0  0  0  0  0  0  0  0  0  0  0
    8.7800    2.6850   23.3240 C   0  0  0  0  0  0  0  0  0  0  0  0
   10.2140    2.2070   23.5480 C   0  0  0  0  0  0  0  0  0  0  0  0
    7.9720    0.8820   21.7830 C   0  0  0  0  0  0  0  0  0  0  0  0
    8.9000    1.1720   21.0340 O   0  0  0  0  0  0  0  0  0  0  0  0
    6.8890   -0.1260   21.4970 C   0  0  1  0  0  0  0  0  0  0  0  0
   11.1060    3.4070   23.4650 C   0  0  0  0  0  0  0  0  0  0  0  0
    6.2380    0.3680   20.2090 C   0  0  0  0  0  0  0  0  0  0  0  0
    7.1180   -1.6050   21.9780 C   0  0  2  0  0  0  0  0  0  0  0  0
   12.0060    3.2790   22.4650 O   0  0  0  0  0  0  0  0  0  0  0  0
   11.0120    4.3680   24.2110 O   0  0  0  0  0  0  0  0  0  0  0  0
    5.0750    1.0920   20.1590 C   0  0  0  0  0  0  0  0  0  0  0  0
    6.8200    0.1260   18.9700 C   0  0  0  0  0  0  0  0  0  0  0  0
    8.2970   -1.9370   22.6370 C   0  0  1  0  0  0  0  0  0  0  0  0
    6.5030   -2.8130   21.2970 N   0  0  0  0  0  0  0  0  0  0  0  0
   12.4180    4.5350   21.9150 C   0  0  0  0  0  0  0  0  0  0  0  0
    6.3390   -3.2470   19.9520 C   0  0  0  0  0  0  0  0  0  0  0  0
    6.3650    0.5300   17.7620 N   0  0  0  0  0  0  0  0  0  0  0  0
    4.5470    1.5380   18.9930 C   0  0  0  0  0  0  0  0  0  0  0  0
    9.3850   -1.9520   21.8140 C   0  0  0  0  0  0  0  0  0  0  0  0
    8.4700   -1.1990   23.7510 C   0  0  1  0  0  0  0  0  0  0  0  0
    8.3590   -3.3110   23.1420 N   0  0  0  0  0  0  0  0  0  0  0  0
    6.0360   -3.7120   22.3670 C   0  0  0  0  0  0  0  0  0  0  0  0
   13.3900    5.1730   22.8760 C   0  0  0  0  0  0  0  0  0  0  0  0
    3.3210    2.3190   18.8680 N   0  0  0  0  0  0  0  0  0  0  0  0
    7.3410   -2.9300   18.8560 C   0  0  0  0  0  0  0  0  0  0  0  0
    5.3790   -3.9750   19.6640 O   0  0  0  0  0  0  0  0  0  0  0  0
    7.5000   -1.3880   24.8840 C   0  0  0  0  0  0  0  0  0  0  0  0
    5.2240    1.2360   17.8380 C   0  0  0  0  0  0  0  0  0  0  0  0
   10.6830   -2.0130   22.2600 C   0  0  0  0  0  0  0  0  0  0  0  0
    9.9720   -1.1270   24.1990 C   0  0  0  0  0  0  0  0  0  0  0  0
    7.2140   -4.0080   23.2870 C   0  0  0  0  0  0  0  0  0  0  0  0
    6.3870   -1.9020   24.7730 O   0  0  0  0  0  0  0  0  0  0  0  0
   10.8300   -2.0690   23.6410 C   0  0  2  0  0  0  0  0  0  0  0  0
    8.0060   -0.9060   26.1970 C   0  0  0  0  0  0  0  0  0  0  0  0
   12.3110   -1.8140   24.0970 C   0  0  0  0  0  0  0  0  0  0  0  0
    9.1690   -0.1630   26.3500 O   0  0  0  0  0  0  0  0  0  0  0  0
    7.3860   -1.1730   27.5250 C   0  0  0  0  0  0  0  0  0  0  0  0
   12.5510   -0.5950   24.7420 C   0  0  0  0  0  0  0  0  0  0  0  0
   13.3370   -2.0260   22.9320 C   0  0  0  0  0  0  0  0  0  0  0  0
   12.8610   -2.9490   25.0280 C   0  0  0  0  0  0  0  0  0  0  0  0
    8.1870   -0.6170   28.4740 C   0  0  0  0  0  0  0  0  0  0  0  0
    9.3130   -0.0010   27.6950 C   0  0  0  0  0  0  0  0  0  0  0  0
  1  2  1  0
  2  3  1  0
  1  4  1  0
  4  5  2  0
  6  4  1  6
  3  7  1  0
  6  8  1  0
  6  9  1  0
  7 10  1  0
  7 11  2  0
  8 12  2  0
  8 13  1  0
  9 14  1  0
  9 15  1  6
 10 16  1  0
 15 17  1  0
 13 18  2  0
 12 19  1  0
 14 20  1  6
 14 21  1  0
 14 22  1  0
 15 23  1  0
 16 24  1  0
 19 25  1  0
 17 26  1  0
 17 27  2  0
 21 28  1  1
 18 29  1  0
 19 29  2  0
 20 30  2  0
 21 31  1  0
 22 32  1  0
 23 32  1  0
 28 33  2  0
 30 34  1  0
 31 34  1  0
 28 35  1  0
 34 36  1  6
 35 37  1  0
 35 38  2  0
 36 39  1  0
 36 40  1  0
 36 41  1  0
 38 42  1  0
 37 43  1  0
 42 43  2  0
M  END
