x0734-x3110-x3115-x0946
     RDKit          3D

 54 58  0  0  0  0  0  0  0  0999 V2000
    8.0040    1.2890   23.3890 N   0  0  0  0  0  0  0  0  0  0  0  0
    8.5750    2.5410   23.6070 C   0  0  2  0  0  0  0  0  0  0  0  0
    7.8900    3.6440   22.7250 C   0  0  0  0  0  0  0  0  0  0  0  0
    7.9150    0.7950   22.0060 C   0  0  0  0  0  0  0  0  0  0  0  0
    8.5990    1.2990   21.0910 O   0  0  0  0  0  0  0  0  0  0  0  0
    6.9650   -0.2680   21.7640 C   0  0  2  0  0  0  0  0  0  0  0  0
   10.0810    2.4350   23.3630 C   0  0  0  0  0  0  0  0  0  0  0  0
    7.5780   -1.5770   21.7790 N   0  0  0  0  0  0  0  0  0  0  0  0
    8.2180    4.9170   23.1540 O   0  0  0  0  0  0  0  0  0  0  0  0
    6.3760    0.1730   20.3920 C   0  0  0  0  0  0  0  0  0  0  0  0
   10.9910    3.7040   23.4340 C   0  0  0  0  0  0  0  0  0  0  0  0
   10.7430    1.0920   23.0250 C   0  0  0  0  0  0  0  0  0  0  0  0
   10.5200    5.0490   23.7980 C   0  0  0  0  0  0  0  0  0  0  0  0
    7.9330    5.9320   22.1840 C   0  0  0  0  0  0  0  0  0  0  0  0
    5.1430    0.9400   20.4520 C   0  0  0  0  0  0  0  0  0  0  0  0
    6.9870   -0.1140   19.1520 C   0  0  0  0  0  0  0  0  0  0  0  0
    8.7940   -1.6560   22.5000 C   0  0  0  0  0  0  0  0  0  0  0  0
   12.1040    0.9630   22.7670 C   0  0  0  0  0  0  0  0  0  0  0  0
   12.4480    3.5740   23.1200 C   0  0  0  0  0  0  0  0  0  0  0  0
    6.9810   -2.9080   22.2120 C   0  0  2  0  0  0  0  0  0  0  0  0
   13.3170    4.7900   23.1380 C   0  0  0  0  0  0  0  0  0  0  0  0
    9.7050    5.4970   24.8570 O   0  0  0  0  0  0  0  0  0  0  0  0
   10.9630    6.1670   23.0330 O   0  0  0  0  0  0  0  0  0  0  0  0
    6.4080    0.3630   17.8570 N   0  0  0  0  0  0  0  0  0  0  0  0
    4.4940    1.4570   19.1890 C   0  0  0  0  0  0  0  0  0  0  0  0
    9.8590   -2.1190   21.8260 C   0  0  0  0  0  0  0  0  0  0  0  0
    8.9680   -1.2850   23.9630 C   0  0  0  0  0  0  0  0  0  0  0  0
   12.9790    2.2010   22.8010 C   0  0  0  0  0  0  0  0  0  0  0  0
    6.4680   -3.9070   21.2440 N   0  0  0  0  0  0  0  0  0  0  0  0
    6.4550   -2.9740   23.4960 C   0  0  0  0  0  0  0  0  0  0  0  0
   13.2490    5.3960   21.9000 C   0  0  0  0  0  0  0  0  0  0  0  0
    6.1750   -3.6510   19.9170 C   0  0  0  0  0  0  0  0  0  0  0  0
    5.1890    1.1310   17.9190 C   0  0  0  0  0  0  0  0  0  0  0  0
   11.0400   -2.2240   22.4260 C   0  0  0  0  0  0  0  0  0  0  0  0
   10.2710   -1.4390   24.5300 C   0  0  0  0  0  0  0  0  0  0  0  0
    6.4210   -5.1820   21.6770 C   0  0  0  0  0  0  0  0  0  0  0  0
    6.4540   -4.3760   24.0180 N   0  0  0  0  0  0  0  0  0  0  0  0
    5.0590   -3.9460   19.5140 O   0  0  0  0  0  0  0  0  0  0  0  0
    7.2550   -3.0750   19.0340 C   0  0  0  0  0  0  0  0  0  0  0  0
   11.3160   -1.9080   23.7400 C   0  0  0  0  0  0  0  0  0  0  0  0
    7.2040   -4.8110   25.0600 C   0  0  0  0  0  0  0  0  0  0  0  0
    5.9520   -5.4260   23.0960 C   0  0  0  0  0  0  0  0  0  0  0  0
   12.5680   -1.9910   24.3700 C   0  0  0  0  0  0  0  0  0  0  0  0
    6.5860   -5.1050   26.2770 C   0  0  0  0  0  0  0  0  0  0  0  0
    8.6060   -5.0020   24.9980 C   0  0  0  0  0  0  0  0  0  0  0  0
   12.7780   -0.6440   25.0150 C   0  0  0  0  0  0  0  0  0  0  0  0
   13.5730   -2.1760   23.2500 C   0  0  0  0  0  0  0  0  0  0  0  0
   12.8510   -3.1120   25.3720 C   0  0  0  0  0  0  0  0  0  0  0  0
    5.1240   -4.9270   26.3970 N   0  0  0  0  0  0  0  0  0  0  0  0
    9.3650   -5.4610   26.0780 C   0  0  0  0  0  0  0  0  0  0  0  0
    7.2670   -5.5650   27.4000 C   0  0  0  0  0  0  0  0  0  0  0  0
    4.4280   -5.6810   25.7010 O   0  0  0  0  0  0  0  0  0  0  0  0
    4.7350   -3.8480   26.8610 O   0  0  0  0  0  0  0  0  0  0  0  0
    8.7630   -5.7580   27.2930 C   0  0  0  0  0  0  0  0  0  0  0  0
  1  2  1  0
  2  3  1  6
  1  4  1  0
  4  5  2  0
  6  4  1  6
  2  7  1  0
  6  8  1  0
  3  9  1  0
  6 10  1  0
  7 11  2  0
  7 12  1  0
 11 13  1  0
  9 14  1  0
 10 15  2  0
 10 16  1  0
  8 17  1  0
 12 18  2  0
 11 19  1  0
 20  8  1  6
 19 21  1  0
 13 22  2  0
 13 23  1  0
 16 24  2  0
 15 25  1  0
 17 26  2  0
 17 27  1  0
 18 28  1  0
 19 28  2  0
 20 29  1  0
 20 30  1  0
 21 31  1  0
 29 32  1  0
 24 33  1  0
 25 33  2  0
 26 34  1  0
 27 35  2  0
 29 36  1  0
 30 37  1  0
 32 38  2  0
 32 39  1  0
 34 40  2  0
 35 40  1  0
 37 41  1  0
 36 42  1  0
 37 42  1  0
 40 43  1  0
 41 44  2  0
 41 45  1  0
 43 46  1  0
 43 47  1  0
 43 48  1  0
 44 49  1  0
 45 50  2  0
 44 51  1  0
 49 52  2  0
 49 53  1  0
 50 54  1  0
 51 54  2  0
M  CHG  2  49   1  53  -1
M  END
