x0731-x0874
     RDKit          3D

 33 36  0  0  0  0  0  0  0  0999 V2000
    0.9060   -1.0140   26.0700 C   0  0  0  0  0  0  0  0  0  0  0  0
    2.0240   -2.0110   26.0260 C   0  0  0  0  0  0  0  0  0  0  0  0
    3.2640   -1.6610   26.5620 C   0  0  0  0  0  0  0  0  0  0  0  0
    1.8120   -3.2750   25.4560 C   0  0  0  0  0  0  0  0  0  0  0  0
    2.8330   -4.2590   25.4010 C   0  0  0  0  0  0  0  0  0  0  0  0
    4.4350   -2.6660   26.5470 C   0  0  0  0  0  0  0  0  0  0  0  0
    4.1060   -4.0040   25.9200 C   0  0  0  0  0  0  0  0  0  0  0  0
    5.3670   -5.2470   25.8580 S   0  0  0  0  0  0  0  0  0  0  0  0
    6.4470   -4.8490   26.7280 O   0  0  0  0  0  0  0  0  0  0  0  0
    4.7150   -6.5310   25.9910 O   0  0  0  0  0  0  0  0  0  0  0  0
    5.8940   -5.0810   24.2800 N   0  0  0  0  0  0  0  0  0  0  0  0
    7.1300   -4.2780   23.9880 C   0  0  0  0  0  0  0  0  0  0  0  0
    5.4210   -6.0330   23.2540 C   0  0  0  0  0  0  0  0  0  0  0  0
    7.1030   -3.6460   22.5780 C   0  0  2  0  0  0  0  0  0  0  0  0
    6.3810   -6.0410   22.0720 C   0  0  0  0  0  0  0  0  0  0  0  0
    6.3520   -2.2580   22.5520 C   0  0  0  0  0  0  0  0  0  0  0  0
    6.6750   -4.6780   21.5960 N   0  0  0  0  0  0  0  0  0  0  0  0
    6.2020   -4.3210   20.3620 C   0  0  0  0  0  0  0  0  0  0  0  0
    7.1600   -1.0770   22.4650 C   0  0  0  0  0  0  0  0  0  0  0  0
    5.1800   -4.8120   19.9340 O   0  0  0  0  0  0  0  0  0  0  0  0
    6.9770   -3.3500   19.4920 C   0  0  0  0  0  0  0  0  0  0  0  0
    8.2580   -0.9410   23.5440 C   0  0  2  0  0  0  0  0  0  0  0  0
    8.8710    0.4400   23.9920 C   0  0  1  0  0  0  0  0  0  0  0  0
    9.2710   -1.7910   23.1930 C   0  0  0  0  0  0  0  0  0  0  0  0
   10.2880    0.1030   24.0740 C   0  0  1  0  0  0  0  0  0  0  0  0
   10.4770   -1.3740   23.6700 C   0  0  2  0  0  0  0  0  0  0  0  0
    8.4020    1.7580   23.3320 C   0  0  0  0  0  0  0  0  0  0  0  0
   11.7010   -1.5570   22.8330 C   0  0  0  0  0  0  0  0  0  0  0  0
   11.4640    0.8590   23.4610 C   0  0  0  0  0  0  0  0  0  0  0  0
    9.0860    2.1520   22.0490 C   0  0  0  0  0  0  0  0  0  0  0  0
   12.6120   -0.1200   22.5730 S   0  0  0  0  0  0  0  0  0  0  0  0
   10.0240    3.1340   22.1700 N   0  0  0  0  0  0  0  0  0  0  0  0
    8.8210    1.6670   20.9650 O   0  0  0  0  0  0  0  0  0  0  0  0
  1  2  1  0
  2  3  2  0
  2  4  1  0
  4  5  2  0
  3  6  1  0
  5  7  1  0
  6  7  2  0
  8  7  1  0
  8  9  2  0
  8 10  2  0
  8 11  1  0
 11 12  1  0
 11 13  1  0
 12 14  1  0
 13 15  1  0
 14 16  1  1
 14 17  1  0
 15 17  1  0
 17 18  1  0
 16 19  1  0
 18 20  2  0
 18 21  1  0
 22 19  1  6
 22 23  1  0
 22 24  1  0
 23 25  1  0
 26 24  1  6
 25 26  1  0
 23 27  1  6
 26 28  1  0
 25 29  1  6
 27 30  1  0
 28 31  2  0
 29 31  2  0
 30 32  1  0
 30 33  2  0
M  END
