x0731-x3080
     RDKit          3D

 46 50  0  0  0  0  0  0  0  0999 V2000
    9.8950   -0.5940   23.3620 N   0  0  0  0  0  0  0  0  0  0  0  0
   10.5740    0.7150   23.5050 C   0  0  0  0  0  0  0  0  0  0  0  0
    9.7050   -0.9230   22.0460 C   0  0  0  0  0  0  0  0  0  0  0  0
    8.6430   -1.0420   24.4800 S   0  0  2  0  0  0  0  0  0  0  0  0
    7.4040   -1.5130   23.6820 N   0  0  0  0  0  0  0  0  0  0  0  0
    8.7600    0.0530   21.3940 C   0  0  0  0  0  0  0  0  0  0  0  0
    8.6610    0.0500   25.4390 O   0  0  0  0  0  0  0  0  0  0  0  0
    9.3560   -2.4530   25.2260 C   0  0  0  0  0  0  0  0  0  0  0  0
    9.0890    1.2410   21.2190 O   0  0  0  0  0  0  0  0  0  0  0  0
    7.5600   -0.4930   21.0260 N   0  0  0  0  0  0  0  0  0  0  0  0
    6.3840   -2.3670   24.2870 C   0  0  0  0  0  0  0  0  0  0  0  0
   10.8880   -2.4850   25.2540 C   0  0  0  0  0  0  0  0  0  0  0  0
    8.5600   -3.4560   25.7540 C   0  0  0  0  0  0  0  0  0  0  0  0
    6.6760    0.1420   20.0140 C   0  0  0  0  0  0  0  0  0  0  0  0
   11.6770   -1.5080   24.7420 N   0  0  0  0  0  0  0  0  0  0  0  0
   11.3580   -3.5750   25.8480 C   0  0  0  0  0  0  0  0  0  0  0  0
    9.1220   -4.5790   26.3560 C   0  0  0  0  0  0  0  0  0  0  0  0
    6.1670   -3.6920   23.4680 C   0  0  1  0  0  0  0  0  0  0  0  0
    5.5710    0.8210   20.4830 C   0  0  0  0  0  0  0  0  0  0  0  0
    6.9770    0.0620   18.5740 C   0  0  0  0  0  0  0  0  0  0  0  0
   12.8730   -3.7480   25.9930 C   0  0  0  0  0  0  0  0  0  0  0  0
   12.9760   -1.5860   24.8230 C   0  0  0  0  0  0  0  0  0  0  0  0
   10.4870   -4.5650   26.3660 C   0  0  0  0  0  0  0  0  0  0  0  0
    7.2080   -3.9110   22.6670 C   0  0  0  0  0  0  0  0  0  0  0  0
    6.0250   -5.0330   24.2080 N   0  0  0  0  0  0  0  0  0  0  0  0
    5.2490    0.8980   21.9980 C   0  0  0  0  0  0  0  0  0  0  0  0
    5.3780   -5.1280   25.7880 S   0  0  0  0  0  0  0  0  0  0  0  0
    6.2820    0.6090   17.5800 N   0  0  0  0  0  0  0  0  0  0  0  0
    4.6800    1.5030   19.4450 C   0  0  0  0  0  0  0  0  0  0  0  0
   13.6730   -2.7340   25.4740 C   0  0  0  0  0  0  0  0  0  0  0  0
    6.7930   -4.9240   21.6990 N   0  0  0  0  0  0  0  0  0  0  0  0
    5.4330   -6.0410   23.2720 C   0  0  0  0  0  0  0  0  0  0  0  0
    6.4070   -4.7820   26.7540 O   0  0  0  0  0  0  0  0  0  0  0  0
    4.7950   -6.4490   26.0090 O   0  0  0  0  0  0  0  0  0  0  0  0
    6.2470   -4.6160   20.4800 C   0  0  0  0  0  0  0  0  0  0  0  0
    5.1210    1.3480   18.0040 C   0  0  0  0  0  0  0  0  0  0  0  0
    4.0980   -3.9220   25.8920 C   0  0  0  0  0  0  0  0  0  0  0  0
    6.3200   -6.2340   22.2800 C   0  0  0  0  0  0  0  0  0  0  0  0
    5.2920   -5.2000   20.0030 O   0  0  0  0  0  0  0  0  0  0  0  0
    6.9450   -3.5060   19.7210 C   0  0  0  0  0  0  0  0  0  0  0  0
    2.8670   -4.1610   25.3840 C   0  0  0  0  0  0  0  0  0  0  0  0
    4.3420   -2.6080   26.5560 C   0  0  0  0  0  0  0  0  0  0  0  0
    1.7960   -3.3340   25.4130 C   0  0  0  0  0  0  0  0  0  0  0  0
    3.1950   -1.6560   26.6170 C   0  0  0  0  0  0  0  0  0  0  0  0
    1.9310   -1.9630   26.0810 C   0  0  0  0  0  0  0  0  0  0  0  0
    0.8030   -0.9890   26.1790 C   0  0  0  0  0  0  0  0  0  0  0  0
  1  2  1  0
  1  3  1  0
  4  1  1  6
  4  5  2  0
  3  6  1  0
  4  7  2  0
  4  8  1  0
  6  9  2  0
  6 10  1  0
  5 11  1  0
  8 12  1  0
  8 13  2  0
 10 14  1  0
 12 15  2  0
 12 16  1  0
 13 17  1  0
 18 11  1  1
 14 19  2  0
 14 20  1  0
 16 21  2  0
 15 22  1  0
 16 23  1  0
 17 23  2  0
 18 24  1  0
 18 25  1  0
 19 26  1  0
 25 27  1  0
 20 28  2  0
 19 29  1  0
 21 30  1  0
 22 30  2  0
 24 31  1  0
 25 32  1  0
 27 33  2  0
 27 34  2  0
 31 35  1  0
 28 36  1  0
 29 36  2  0
 27 37  1  0
 31 38  1  0
 32 38  1  0
 35 39  2  0
 35 40  1  0
 37 41  2  0
 37 42  1  0
 41 43  1  0
 42 44  2  0
 43 45  2  0
 44 45  1  0
 45 46  1  0
M  END
