x0731-x0107
     RDKit          3D

 32 34  0  0  0  0  0  0  0  0999 V2000
    0.9680   -1.0750   26.0360 C   0  0  0  0  0  0  0  0  0  0  0  0
    2.1070   -2.0570   25.9910 C   0  0  0  0  0  0  0  0  0  0  0  0
    3.3690   -1.7220   26.5020 C   0  0  0  0  0  0  0  0  0  0  0  0
    1.9210   -3.4240   25.4020 C   0  0  0  0  0  0  0  0  0  0  0  0
    2.9580   -4.3420   25.3670 C   0  0  0  0  0  0  0  0  0  0  0  0
    4.3440   -2.7440   26.4100 C   0  0  0  0  0  0  0  0  0  0  0  0
    4.1670   -4.0240   25.8680 C   0  0  0  0  0  0  0  0  0  0  0  0
    5.3570   -5.3290   25.7560 S   0  0  0  0  0  0  0  0  0  0  0  0
    6.4570   -4.9850   26.6290 O   0  0  0  0  0  0  0  0  0  0  0  0
    4.7120   -6.6170   25.9120 O   0  0  0  0  0  0  0  0  0  0  0  0
    5.8850   -5.2490   24.3170 N   0  0  0  0  0  0  0  0  0  0  0  0
    6.4120   -3.9860   23.8950 C   0  0  0  0  0  0  0  0  0  0  0  0
    5.3200   -6.0670   23.3180 C   0  0  0  0  0  0  0  0  0  0  0  0
    7.1040   -3.8680   22.6960 C   0  0  2  0  0  0  0  0  0  0  0  0
    6.2210   -6.1840   22.2750 C   0  0  0  0  0  0  0  0  0  0  0  0
    6.7710   -2.4370   22.1780 C   0  0  0  0  0  0  0  0  0  0  0  0
    6.6310   -4.8930   21.7310 N   0  0  0  0  0  0  0  0  0  0  0  0
    6.2090   -4.5290   20.4480 C   0  0  0  0  0  0  0  0  0  0  0  0
    8.0880   -1.7590   21.7930 C   0  0  0  0  0  0  0  0  0  0  0  0
    5.2490   -5.1140   19.9890 O   0  0  0  0  0  0  0  0  0  0  0  0
    6.9130   -3.5050   19.5610 C   0  0  0  0  0  0  0  0  0  0  0  0
    7.9300   -0.4530   21.3160 N   0  0  0  0  0  0  0  0  0  0  0  0
    9.0000    0.5010   21.6120 C   0  0  0  0  0  0  0  0  0  0  0  0
    6.9950   -0.0810   20.3510 C   0  0  0  0  0  0  0  0  0  0  0  0
   10.1520   -0.1160   22.4540 C   0  0  0  0  0  0  0  0  0  0  0  0
    9.0300    1.6800   21.2420 O   0  0  0  0  0  0  0  0  0  0  0  0
    5.8200    0.6110   20.7160 C   0  0  0  0  0  0  0  0  0  0  0  0
    7.2090   -0.3660   19.0810 C   0  0  0  0  0  0  0  0  0  0  0  0
    5.4340    0.9950   22.1490 C   0  0  0  0  0  0  0  0  0  0  0  0
    4.9660    0.9570   19.6560 C   0  0  0  0  0  0  0  0  0  0  0  0
    6.4090   -0.0400   18.0710 N   0  0  0  0  0  0  0  0  0  0  0  0
    5.2610    0.6410   18.3650 C   0  0  0  0  0  0  0  0  0  0  0  0
  1  2  1  0
  2  3  2  0
  2  4  1  0
  4  5  2  0
  3  6  1  0
  5  7  1  0
  6  7  2  0
  8  7  1  0
  8  9  2  0
  8 10  2  0
  8 11  1  0
 11 12  1  0
 11 13  1  0
 12 14  1  0
 13 15  1  0
 14 16  1  6
 14 17  1  0
 15 17  1  0
 17 18  1  0
 16 19  1  0
 18 20  2  0
 18 21  1  0
 19 22  1  0
 22 23  1  0
 22 24  1  0
 23 25  1  0
 23 26  2  0
 24 27  2  0
 24 28  1  0
 27 29  1  0
 27 30  1  0
 28 31  2  0
 30 32  2  0
 31 32  1  0
M  END
