x0731-x2703
     RDKit          3D

 49 53  0  0  0  0  0  0  0  0999 V2000
    7.2970   -1.3980   21.9540 N   0  0  0  0  0  0  0  0  0  0  0  0
    6.7130   -0.0360   21.7240 C   0  0  1  0  0  0  0  0  0  0  0  0
    7.7260    1.1510   21.8220 C   0  0  0  0  0  0  0  0  0  0  0  0
    6.3490   -2.4310   22.4670 C   0  0  0  0  0  0  0  0  0  0  0  0
    8.5380   -1.5100   22.5710 C   0  0  0  0  0  0  0  0  0  0  0  0
    6.1190    0.2740   20.3600 C   0  0  0  0  0  0  0  0  0  0  0  0
    8.7840   -1.3080   23.9200 C   0  0  0  0  0  0  0  0  0  0  0  0
    9.5690   -1.8370   21.7830 C   0  0  0  0  0  0  0  0  0  0  0  0
    7.0520   -3.8320   22.5980 C   0  0  2  0  0  0  0  0  0  0  0  0
    7.3890    2.0810   22.7810 N   0  0  0  0  0  0  0  0  0  0  0  0
    8.7170    1.2790   21.0960 O   0  0  0  0  0  0  0  0  0  0  0  0
    4.9020    0.9440   20.2580 C   0  0  0  0  0  0  0  0  0  0  0  0
    6.7930   -0.0830   19.1750 C   0  0  0  0  0  0  0  0  0  0  0  0
   10.8440   -1.9480   22.2830 N   0  0  0  0  0  0  0  0  0  0  0  0
   10.0610   -1.4180   24.4120 C   0  0  0  0  0  0  0  0  0  0  0  0
    6.7450   -4.8770   21.5930 N   0  0  0  0  0  0  0  0  0  0  0  0
    6.9750   -4.3880   24.0230 C   0  0  0  0  0  0  0  0  0  0  0  0
    6.1920   -4.5520   20.4040 C   0  0  0  0  0  0  0  0  0  0  0  0
    6.3290    0.1990   17.9350 N   0  0  0  0  0  0  0  0  0  0  0  0
    4.4130    1.2400   19.0080 C   0  0  0  0  0  0  0  0  0  0  0  0
   11.0850   -1.7340   23.5720 C   0  0  0  0  0  0  0  0  0  0  0  0
    8.1080    3.2810   22.9070 C   0  0  0  0  0  0  0  0  0  0  0  0
    5.6650   -5.0170   24.2520 N   0  0  0  0  0  0  0  0  0  0  0  0
    6.3000   -6.1770   22.1210 C   0  0  0  0  0  0  0  0  0  0  0  0
   12.5130   -1.8340   24.0090 C   0  0  0  0  0  0  0  0  0  0  0  0
    5.2090   -5.1000   19.9730 O   0  0  0  0  0  0  0  0  0  0  0  0
    6.8990   -3.4750   19.5980 C   0  0  0  0  0  0  0  0  0  0  0  0
    5.1270   -5.2660   25.8450 S   0  0  0  0  0  0  0  0  0  0  0  0
    5.1630    0.8510   17.9110 C   0  0  0  0  0  0  0  0  0  0  0  0
    9.3990    3.3690   23.4740 C   0  0  0  0  0  0  0  0  0  0  0  0
    7.5980    4.4520   22.4820 C   0  0  0  0  0  0  0  0  0  0  0  0
    5.2790   -6.0710   23.2560 C   0  0  0  0  0  0  0  0  0  0  0  0
   10.0670    2.1100   23.9800 C   0  0  0  0  0  0  0  0  0  0  0  0
    6.2310    4.4930   21.8510 C   0  0  0  0  0  0  0  0  0  0  0  0
   12.8930   -2.9610   24.9860 C   0  0  0  0  0  0  0  0  0  0  0  0
   12.8050   -0.4990   24.6270 C   0  0  0  0  0  0  0  0  0  0  0  0
    6.1410   -4.8690   26.7910 O   0  0  0  0  0  0  0  0  0  0  0  0
    4.5120   -6.5690   25.9170 O   0  0  0  0  0  0  0  0  0  0  0  0
   10.1960    4.6490   23.6270 C   0  0  0  0  0  0  0  0  0  0  0  0
    8.3020    5.7770   22.5850 C   0  0  0  0  0  0  0  0  0  0  0  0
    3.8870   -4.0150   25.9120 C   0  0  0  0  0  0  0  0  0  0  0  0
    9.1360    1.3780   24.9560 C   0  0  0  0  0  0  0  0  0  0  0  0
    9.5340    5.8390   23.1330 C   0  0  0  0  0  0  0  0  0  0  0  0
    2.6620   -4.2360   25.4030 C   0  0  0  0  0  0  0  0  0  0  0  0
    4.1990   -2.8500   26.4810 C   0  0  0  0  0  0  0  0  0  0  0  0
    1.7120   -3.2640   25.4720 C   0  0  0  0  0  0  0  0  0  0  0  0
    3.2820   -1.8300   26.5800 C   0  0  0  0  0  0  0  0  0  0  0  0
    2.0060   -2.0690   26.0570 C   0  0  0  0  0  0  0  0  0  0  0  0
    0.9680   -0.9950   26.1540 C   0  0  0  0  0  0  0  0  0  0  0  0
  1  2  1  0
  2  3  1  6
  1  4  1  0
  1  5  1  0
  2  6  1  0
  5  7  2  0
  5  8  1  0
  9  4  1  1
  3 10  1  0
  3 11  2  0
  6 12  2  0
  6 13  1  0
  8 14  2  0
  7 15  1  0
  9 16  1  0
  9 17  1  0
 16 18  1  0
 13 19  2  0
 12 20  1  0
 14 21  1  0
 15 21  2  0
 10 22  1  0
 17 23  1  0
 16 24  1  0
 21 25  1  0
 18 26  2  0
 18 27  1  0
 23 28  1  0
 19 29  1  0
 20 29  2  0
 22 30  2  0
 22 31  1  0
 23 32  1  0
 24 32  1  0
 30 33  1  0
 31 34  1  0
 25 35  1  0
 25 36  1  0
 28 37  2  0
 28 38  2  0
 30 39  1  0
 31 40  2  0
 28 41  1  0
 33 42  1  0
 39 43  2  0
 40 43  1  0
 41 44  2  0
 41 45  1  0
 44 46  1  0
 45 47  2  0
 46 48  2  0
 47 48  1  0
 48 49  1  0
M  END
