x0731-x3113-x0978
     RDKit          3D

 56 59  0  0  0  0  0  0  0  0999 V2000
    7.1310   -1.2740   22.1090 N   0  0  0  0  0  0  0  0  0  0  0  0
    6.8710    0.1540   21.8090 C   0  0  1  0  0  0  0  0  0  0  0  0
    8.0880    1.1120   22.0050 C   0  0  0  0  0  0  0  0  0  0  0  0
    6.0770   -2.0690   22.7180 C   0  0  0  0  0  0  0  0  0  0  0  0
    8.4440   -1.4510   22.6240 C   0  0  0  0  0  0  0  0  0  0  0  0
    5.4870   -3.0820   21.9280 C   0  0  0  0  0  0  0  0  0  0  0  0
    6.2940    0.4660   20.4400 C   0  0  0  0  0  0  0  0  0  0  0  0
    9.4480   -1.7680   21.7480 C   0  0  0  0  0  0  0  0  0  0  0  0
    8.8660   -1.3120   24.0930 C   0  0  0  0  0  0  0  0  0  0  0  0
    8.4170    1.6270   23.2120 N   0  0  0  0  0  0  0  0  0  0  0  0
    8.8110    1.5150   21.0880 O   0  0  0  0  0  0  0  0  0  0  0  0
    5.0590    1.3360   20.2980 C   0  0  0  0  0  0  0  0  0  0  0  0
    6.9100   -0.0420   19.3060 C   0  0  0  0  0  0  0  0  0  0  0  0
   10.8740   -1.9460   22.2080 C   0  0  0  0  0  0  0  0  0  0  0  0
   10.1960   -1.4810   24.4860 C   0  0  0  0  0  0  0  0  0  0  0  0
    6.1300   -4.5350   21.9070 C   0  0  1  0  0  0  0  0  0  0  0  0
    9.4660    2.4050   23.6470 C   0  0  0  0  0  0  0  0  0  0  0  0
    6.3350   -4.6630   20.4250 C   0  0  0  0  0  0  0  0  0  0  0  0
    6.4800    0.2000   18.0440 N   0  0  0  0  0  0  0  0  0  0  0  0
    4.6090    1.5890   19.0190 C   0  0  0  0  0  0  0  0  0  0  0  0
   11.1980   -1.7890   23.5620 C   0  0  0  0  0  0  0  0  0  0  0  0
    7.2150   -4.5410   22.7350 C   0  0  0  0  0  0  0  0  0  0  0  0
    5.3760   -5.6980   22.0590 C   0  0  0  0  0  0  0  0  0  0  0  0
   10.7780    2.0580   23.3070 C   0  0  0  0  0  0  0  0  0  0  0  0
   12.5620   -1.9200   24.0180 C   0  0  0  0  0  0  0  0  0  0  0  0
    5.8010   -5.6090   19.9070 O   0  0  0  0  0  0  0  0  0  0  0  0
    7.1340   -3.5510   19.7450 C   0  0  0  0  0  0  0  0  0  0  0  0
    5.3710    0.9870   17.8520 C   0  0  0  0  0  0  0  0  0  0  0  0
    6.8070   -4.8140   24.0590 C   0  0  0  0  0  0  0  0  0  0  0  0
    4.9320   -6.0590   23.3520 C   0  0  2  0  0  0  0  0  0  0  0  0
   11.6940    3.1120   23.2930 C   0  0  0  0  0  0  0  0  0  0  0  0
   13.3990   -2.1010   22.9370 C   0  0  0  0  0  0  0  0  0  0  0  0
   12.6960   -3.0160   25.0260 C   0  0  0  0  0  0  0  0  0  0  0  0
   12.7460   -0.6480   24.8410 C   0  0  0  0  0  0  0  0  0  0  0  0
    3.3860   -6.5180   23.3010 C   0  0  2  0  0  0  0  0  0  0  0  0
    5.4340   -5.1090   24.2190 C   0  0  2  0  0  0  0  0  0  0  0  0
   11.7930    3.8600   22.3310 O   0  0  0  0  0  0  0  0  0  0  0  0
    2.3900   -5.5520   23.2060 N   0  0  0  0  0  0  0  0  0  0  0  0
    3.0750   -7.3640   24.4980 C   0  0  1  0  0  0  0  0  0  0  0  0
    4.7630   -3.8990   23.8760 O   0  0  0  0  0  0  0  0  0  0  0  0
    5.0800   -5.1990   25.8850 S   0  0  0  0  0  0  0  0  0  0  0  0
   12.9680    4.6660   22.4560 C   0  0  0  0  0  0  0  0  0  0  0  0
    1.8630   -8.2880   24.3710 C   0  0  0  0  0  0  0  0  0  0  0  0
    4.2200   -8.1450   24.7240 O   0  0  0  0  0  0  0  0  0  0  0  0
    1.1480   -6.0930   22.7420 C   0  0  0  0  0  0  0  0  0  0  0  0
    6.1620   -4.6770   26.6620 O   0  0  0  0  0  0  0  0  0  0  0  0
    4.5630   -6.6190   26.3700 O   0  0  0  0  0  0  0  0  0  0  0  0
    3.8500   -3.9580   26.0050 C   0  0  0  0  0  0  0  0  0  0  0  0
    1.0950   -7.3030   21.9860 O   0  0  0  0  0  0  0  0  0  0  0  0
   -0.0380   -5.4140   23.0390 C   0  0  0  0  0  0  0  0  0  0  0  0
    2.5070   -4.1670   25.6640 C   0  0  0  0  0  0  0  0  0  0  0  0
    4.1690   -2.6950   26.4340 C   0  0  0  0  0  0  0  0  0  0  0  0
    1.5210   -3.1790   25.7360 C   0  0  0  0  0  0  0  0  0  0  0  0
    3.1920   -1.7020   26.5120 C   0  0  0  0  0  0  0  0  0  0  0  0
    1.8640   -1.8990   26.1750 C   0  0  0  0  0  0  0  0  0  0  0  0
    0.8540   -0.8030   26.2800 C   0  0  0  0  0  0  0  0  0  0  0  0
  1  2  1  0
  2  3  1  6
  1  4  1  0
  1  5  1  0
  4  6  1  0
  2  7  1  0
  5  8  2  0
  5  9  1  0
  3 10  1  0
  3 11  2  0
  7 12  2  0
  7 13  1  0
  8 14  1  0
  9 15  2  0
 16  6  1  6
 10 17  1  0
 16 18  1  0
 13 19  2  0
 12 20  1  0
 14 21  2  0
 15 21  1  0
 16 22  1  0
 16 23  1  0
 17 24  1  0
 21 25  1  0
 18 26  2  0
 18 27  1  0
 19 28  1  0
 20 28  2  0
 22 29  1  0
 30 23  1  6
 24 31  1  0
 25 32  1  0
 25 33  1  0
 25 34  1  0
 30 35  1  0
 29 36  1  0
 30 36  1  0
 31 37  1  0
 35 38  1  1
 35 39  1  0
 36 40  1  6
 36 41  1  0
 37 42  1  0
 39 43  1  6
 39 44  1  0
 38 45  1  0
 41 46  2  0
 41 47  2  0
 41 48  1  0
 45 49  2  0
 45 50  1  0
 48 51  2  0
 48 52  1  0
 51 53  1  0
 52 54  2  0
 53 55  2  0
 54 55  1  0
 55 56  1  0
M  END
