x0734-x3298
     RDKit          3D

 47 51  0  0  0  0  0  0  0  0999 V2000
    6.9740    1.9680   22.5190 N   0  0  0  0  0  0  0  0  0  0  0  0
    7.7590    1.0560   21.6750 C   0  0  0  0  0  0  0  0  0  0  0  0
    7.1310   -0.3200   21.4910 C   0  0  1  0  0  0  0  0  0  0  0  0
    7.7370    3.1510   22.8570 C   0  0  0  0  0  0  0  0  0  0  0  0
    8.9830    1.4560   21.0470 O   0  0  0  0  0  0  0  0  0  0  0  0
    7.4460    4.4990   22.5660 C   0  0  0  0  0  0  0  0  0  0  0  0
    8.8660    2.7200   23.5140 C   0  0  0  0  0  0  0  0  0  0  0  0
    6.5280   -0.5900   22.5500 O   0  0  0  0  0  0  0  0  0  0  0  0
    8.9820    1.3760   23.7420 N   0  0  0  0  0  0  0  0  0  0  0  0
    6.4150    0.0990   20.2630 C   0  0  0  0  0  0  0  0  0  0  0  0
    8.4760    5.5620   23.0080 C   0  0  0  0  0  0  0  0  0  0  0  0
    9.8710    3.5850   23.9390 C   0  0  0  0  0  0  0  0  0  0  0  0
   10.2730    0.7050   24.5820 S   0  0  0  0  0  0  0  0  0  0  0  0
    7.1520   -1.5670   23.4430 C   0  0  0  0  0  0  0  0  0  0  0  0
    6.9360   -0.0880   18.8610 C   0  0  0  0  0  0  0  0  0  0  0  0
    5.1900    0.7440   20.3040 C   0  0  0  0  0  0  0  0  0  0  0  0
    9.7140    5.0780   23.7050 C   0  0  0  0  0  0  0  0  0  0  0  0
   11.1200    1.8170   24.6700 O   0  0  0  0  0  0  0  0  0  0  0  0
    9.8330   -0.1550   25.6700 O   0  0  0  0  0  0  0  0  0  0  0  0
    6.3190    0.3300   17.7590 N   0  0  0  0  0  0  0  0  0  0  0  0
    4.5560    1.1710   19.1440 C   0  0  0  0  0  0  0  0  0  0  0  0
   11.2110   -0.1660   23.4490 C   0  0  0  0  0  0  0  0  0  0  0  0
    6.7520   -2.9900   22.9850 C   0  0  2  0  0  0  0  0  0  0  0  0
    5.1270    0.9680   17.8710 C   0  0  0  0  0  0  0  0  0  0  0  0
   12.4630    0.3680   23.2640 C   0  0  0  0  0  0  0  0  0  0  0  0
   10.7790   -1.2840   22.7710 C   0  0  0  0  0  0  0  0  0  0  0  0
    6.4400   -4.1100   23.9360 N   0  0  0  0  0  0  0  0  0  0  0  0
    7.7240   -3.5650   22.0120 C   0  0  0  0  0  0  0  0  0  0  0  0
   13.2900   -0.2250   22.3780 C   0  0  0  0  0  0  0  0  0  0  0  0
   11.6510   -1.8500   21.8880 C   0  0  0  0  0  0  0  0  0  0  0  0
    7.3320   -4.5880   24.8780 C   0  0  0  0  0  0  0  0  0  0  0  0
    6.9190   -4.4660   21.2140 N   0  0  0  0  0  0  0  0  0  0  0  0
    5.7570   -5.2260   23.2040 C   0  0  0  0  0  0  0  0  0  0  0  0
    6.3040   -4.0090   20.0450 C   0  0  0  0  0  0  0  0  0  0  0  0
   12.8680   -1.3570   21.6790 C   0  0  0  0  0  0  0  0  0  0  0  0
    6.5320   -4.9000   26.1240 C   0  0  0  0  0  0  0  0  0  0  0  0
    8.8590   -4.8660   24.9190 C   0  0  0  0  0  0  0  0  0  0  0  0
    6.3450   -5.5890   21.9700 C   0  0  0  0  0  0  0  0  0  0  0  0
   13.6620   -1.9300   20.8010 F   0  0  0  0  0  0  0  0  0  0  0  0
    5.1820   -4.6770   26.1190 N   0  0  0  0  0  0  0  0  0  0  0  0
    5.1440   -4.2630   19.7500 O   0  0  0  0  0  0  0  0  0  0  0  0
    7.2170   -3.2310   19.1190 C   0  0  0  0  0  0  0  0  0  0  0  0
    9.3330   -5.3870   26.1240 C   0  0  0  0  0  0  0  0  0  0  0  0
    7.1430   -5.4140   27.2720 C   0  0  0  0  0  0  0  0  0  0  0  0
    4.4670   -5.5360   25.5830 O   0  0  0  0  0  0  0  0  0  0  0  0
    4.7590   -3.7500   26.8200 O   0  0  0  0  0  0  0  0  0  0  0  0
    8.5300   -5.6490   27.2510 C   0  0  0  0  0  0  0  0  0  0  0  0
  1  2  1  0
  2  3  1  0
  1  4  1  0
  2  5  2  0
  4  6  2  0
  4  7  1  0
  3  8  1  1
  7  9  1  0
  3 10  1  0
  6 11  1  0
  7 12  2  0
 13  9  1  0
  8 14  1  0
 10 15  2  0
 10 16  1  0
 11 17  2  0
 12 17  1  0
 13 18  2  0
 13 19  2  0
 15 20  1  0
 16 21  2  0
 13 22  1  0
 23 14  1  1
 20 24  2  0
 21 24  1  0
 22 25  2  0
 22 26  1  0
 23 27  1  0
 23 28  1  0
 25 29  1  0
 26 30  2  0
 27 31  1  0
 28 32  1  0
 27 33  1  0
 32 34  1  0
 29 35  2  0
 30 35  1  0
 31 36  2  0
 31 37  1  0
 32 38  1  0
 33 38  1  0
 35 39  1  0
 36 40  1  0
 34 41  2  0
 34 42  1  0
 37 43  2  0
 36 44  1  0
 40 45  2  0
 40 46  1  0
 43 47  1  0
 44 47  2  0
M  CHG  2  40   1  46  -1
M  END
