x0731-x0107-x0426-x3110-x1119
     RDKit          3D

 83 90  0  0  0  0  0  0  0  0999 V2000
    8.2770    1.6510   23.3620 N   0  0  0  0  0  0  0  0  0  0  0  0
    9.1450    2.8140   23.7400 C   0  0  0  0  0  0  0  0  0  0  0  0
   10.4460    2.7070   22.9480 C   0  0  0  0  0  0  0  0  0  0  0  0
    7.9960    1.2480   21.9800 C   0  0  2  0  0  0  0  0  0  0  0  0
    8.0990    2.1750   21.1700 O   0  0  0  0  0  0  0  0  0  0  0  0
    6.8870    0.2080   21.8960 C   0  0  2  0  0  0  0  0  0  0  0  0
    9.1140    0.3370   21.5080 C   0  0  0  0  0  0  0  0  0  0  0  0
    7.0590   -1.1310   22.2670 N   0  0  0  0  0  0  0  0  0  0  0  0
   11.3440    3.9180   23.1190 C   0  0  0  0  0  0  0  0  0  0  0  0
    6.3250    0.4680   20.4770 C   0  0  0  0  0  0  0  0  0  0  0  0
    9.4480   -0.7010   22.3760 C   0  0  0  0  0  0  0  0  0  0  0  0
   11.8950    4.1830   22.0320 O   0  0  0  0  0  0  0  0  0  0  0  0
   11.4690    4.6080   24.3580 O   0  0  0  0  0  0  0  0  0  0  0  0
    5.3930    1.5140   20.3190 C   0  0  0  0  0  0  0  0  0  0  0  0
    6.7150   -0.2660   19.3580 C   0  0  0  0  0  0  0  0  0  0  0  0
   10.8940   -0.8790   22.7670 C   0  0  0  0  0  0  0  0  0  0  0  0
    8.4170   -1.4540   22.7890 C   0  0  0  0  0  0  0  0  0  0  0  0
   12.9460    4.8530   22.0060 C   0  0  0  0  0  0  0  0  0  0  0  0
    4.8700    2.4430   21.4190 C   0  0  0  0  0  0  0  0  0  0  0  0
    6.2560   -0.0490   18.1020 N   0  0  0  0  0  0  0  0  0  0  0  0
    4.8630    1.7990   19.0630 C   0  0  0  0  0  0  0  0  0  0  0  0
   11.1590   -1.8830   23.6200 C   0  0  0  0  0  0  0  0  0  0  0  0
    8.7720   -2.4730   23.6810 C   0  0  0  0  0  0  0  0  0  0  0  0
   14.1310    4.2930   22.7670 C   0  0  0  0  0  0  0  0  0  0  0  0
   12.6070   -2.0120   23.9880 C   0  0  0  0  0  0  0  0  0  0  0  0
    3.8390    1.8590   22.1340 C   0  0  0  0  0  0  0  0  0  0  0  0
    5.3670    0.9340   17.9490 C   0  0  0  0  0  0  0  0  0  0  0  0
   10.1070   -2.6410   24.0440 C   0  0  0  0  0  0  0  0  0  0  0  0
   13.0690   -0.7880   24.3420 C   0  0  0  0  0  0  0  0  0  0  0  0
   13.3530   -2.4390   22.7440 C   0  0  0  0  0  0  0  0  0  0  0  0
   12.9190   -3.0050   25.0990 C   0  0  0  0  0  0  0  0  0  0  0  0
    3.0920    2.6390   22.9800 N   0  0  0  0  0  0  0  0  0  0  0  0
   15.5790    4.8490   22.5460 C   0  0  0  0  0  0  0  0  0  0  0  0
    2.4140    2.1080   24.1460 C   0  0  0  0  0  0  0  0  0  0  0  0
   16.8120    4.4640   23.2080 C   0  0  0  0  0  0  0  0  0  0  0  0
    2.7260    0.8640   24.8780 N   0  0  0  0  0  0  0  0  0  0  0  0
   18.1880    4.8740   23.0560 C   0  0  0  0  0  0  0  0  0  0  0  0
    1.3060    2.9380   24.6820 C   0  0  0  0  0  0  0  0  0  0  0  0
    1.9050    0.6100   26.0850 C   0  0  0  0  0  0  0  0  0  0  0  0
   18.7840    6.0740   23.5580 C   0  0  0  0  0  0  0  0  0  0  0  0
    1.5700    4.2060   25.4750 C   0  0  0  0  0  0  0  0  0  0  0  0
   -0.1670    2.5720   24.4930 C   0  0  0  0  0  0  0  0  0  0  0  0
    2.8330    4.6040   25.6830 F   0  0  0  0  0  0  0  0  0  0  0  0
    1.4510   -0.7190   26.3150 C   0  0  0  0  0  0  0  0  0  0  0  0
   19.5200    6.8240   22.5820 C   0  0  0  0  0  0  0  0  0  0  0  0
   -1.1880    3.3500   25.0250 C   0  0  0  0  0  0  0  0  0  0  0  0
    0.5330    4.9820   26.0020 C   0  0  0  0  0  0  0  0  0  0  0  0
   20.9730    7.0620   22.6200 N   0  0  0  0  0  0  0  0  0  0  0  0
   -0.9240    4.5060   25.7530 C   0  0  0  0  0  0  0  0  0  0  0  0
    2.3520   -1.9200   26.1380 C   0  0  0  0  0  0  0  0  0  0  0  0
    1.8820   -3.0430   25.5410 C   0  0  0  0  0  0  0  0  0  0  0  0
    3.6480   -1.8500   26.6090 C   0  0  0  0  0  0  0  0  0  0  0  0
   21.7480    6.0790   23.1940 C   0  0  0  0  0  0  0  0  0  0  0  0
    2.7260   -4.1440   25.4220 C   0  0  0  0  0  0  0  0  0  0  0  0
    4.5270   -2.9200   26.5120 C   0  0  0  0  0  0  0  0  0  0  0  0
   23.1360    6.0630   23.0960 C   0  0  0  0  0  0  0  0  0  0  0  0
   21.1580    5.0670   23.8930 C   0  0  0  0  0  0  0  0  0  0  0  0
    4.0360   -4.0720   25.9160 C   0  0  0  0  0  0  0  0  0  0  0  0
   23.8770    5.0430   23.7140 C   0  0  0  0  0  0  0  0  0  0  0  0
   21.8570    4.0820   24.4810 C   0  0  0  0  0  0  0  0  0  0  0  0
    5.1280   -5.4550   25.8210 S   0  0  0  0  0  0  0  0  0  0  0  0
   23.2190    4.0480   24.4200 C   0  0  0  0  0  0  0  0  0  0  0  0
    6.1450   -5.1990   26.8050 O   0  0  0  0  0  0  0  0  0  0  0  0
    4.3590   -6.6770   25.8950 O   0  0  0  0  0  0  0  0  0  0  0  0
   23.9650    2.6870   25.2690 S   0  0  0  0  0  0  0  0  0  0  0  0
    5.8050   -5.3920   24.2760 N   0  0  0  0  0  0  0  0  0  0  0  0
   22.8890    1.7300   25.4410 O   0  0  0  0  0  0  0  0  0  0  0  0
   24.3040    3.1930   26.8400 N   0  0  0  0  0  0  0  0  0  0  0  0
   25.1740    2.3270   24.5800 O   0  0  0  0  0  0  0  0  0  0  0  0
    6.2250   -4.0770   23.7790 C   0  0  0  0  0  0  0  0  0  0  0  0
    5.2230   -6.3110   23.2580 C   0  0  0  0  0  0  0  0  0  0  0  0
    7.2200   -4.3790   22.6680 C   0  0  0  0  0  0  0  0  0  0  0  0
    6.0940   -6.5030   22.1870 C   0  0  0  0  0  0  0  0  0  0  0  0
   25.0970    4.3160   27.1120 C   0  0  0  0  0  0  0  0  0  0  0  0
    6.6640   -5.2620   21.6580 N   0  0  0  0  0  0  0  0  0  0  0  0
   25.0730    4.6200   28.4320 N   0  0  0  0  0  0  0  0  0  0  0  0
   25.8210    5.0330   26.1650 C   0  0  0  0  0  0  0  0  0  0  0  0
    6.1980   -4.6650   20.4880 C   0  0  0  0  0  0  0  0  0  0  0  0
   25.8070    5.6920   28.8080 C   0  0  0  0  0  0  0  0  0  0  0  0
   26.5560    6.1210   26.5940 C   0  0  0  0  0  0  0  0  0  0  0  0
    5.2020   -5.1010   19.9750 O   0  0  0  0  0  0  0  0  0  0  0  0
    6.9630   -3.5130   19.8290 C   0  0  0  0  0  0  0  0  0  0  0  0
   26.5260    6.4280   27.9500 C   0  0  0  0  0  0  0  0  0  0  0  0
  1  2  1  0
  2  3  1  0
  1  4  1  0
  4  5  1  6
  4  6  1  0
  4  7  1  0
  6  8  1  0
  3  9  1  0
  6 10  1  6
  7 11  1  0
  9 12  1  0
  9 13  2  0
 10 14  1  0
 10 15  2  0
 11 16  2  0
  8 17  1  0
 11 17  1  0
 12 18  1  0
 14 19  1  0
 15 20  1  0
 14 21  2  0
 16 22  1  0
 17 23  2  0
 18 24  1  0
 22 25  1  0
 19 26  1  0
 20 27  2  0
 21 27  1  0
 22 28  2  0
 23 28  1  0
 25 29  1  0
 25 30  1  0
 25 31  1  0
 26 32  1  0
 24 33  1  0
 32 34  1  0
 33 35  1  0
 34 36  2  3
 35 37  1  0
 34 38  1  0
 36 39  1  0
 37 40  1  0
 38 41  2  0
 38 42  1  0
 41 43  1  0
 39 44  1  0
 40 45  1  0
 42 46  2  0
 41 47  1  0
 45 48  1  0
 46 49  1  0
 47 49  2  0
 44 50  1  0
 50 51  2  0
 50 52  1  0
 48 53  1  0
 51 54  1  0
 52 55  2  0
 53 56  2  0
 53 57  1  0
 54 58  2  0
 55 58  1  0
 56 59  1  0
 57 60  2  0
 61 58  1  0
 59 62  2  0
 60 62  1  0
 61 63  2  0
 61 64  2  0
 62 65  1  0
 61 66  1  0
 65 67  2  0
 65 68  1  0
 65 69  2  0
 66 70  1  0
 66 71  1  0
 70 72  1  0
 71 73  1  0
 68 74  1  0
 72 75  1  0
 73 75  1  0
 74 76  2  0
 74 77  1  0
 75 78  1  0
 76 79  1  0
 77 80  2  0
 78 81  2  0
 78 82  1  0
 79 83  2  0
 80 83  1  0
M  END
