x0734-x2646
     RDKit          3D

 37 40  0  0  0  0  0  0  0  0999 V2000
    5.0600   -4.6470   26.1300 N   0  0  0  0  0  0  0  0  0  0  0  0
    6.5020   -4.9040   26.1990 C   0  0  0  0  0  0  0  0  0  0  0  0
    7.0090   -5.4830   27.3620 C   0  0  0  0  0  0  0  0  0  0  0  0
    4.3530   -5.5010   25.5750 O   0  0  0  0  0  0  0  0  0  0  0  0
    4.6310   -3.6910   26.7900 O   0  0  0  0  0  0  0  0  0  0  0  0
    7.3840   -4.5830   25.1240 C   0  0  0  0  0  0  0  0  0  0  0  0
    8.7650   -4.8160   25.1390 C   0  0  0  0  0  0  0  0  0  0  0  0
    8.4950   -5.7720   27.4550 C   0  0  0  0  0  0  0  0  0  0  0  0
    6.7430   -4.0240   24.0470 N   0  0  0  0  0  0  0  0  0  0  0  0
    9.3660   -5.4060   26.2500 C   0  0  0  0  0  0  0  0  0  0  0  0
    5.8620   -5.0100   23.3190 C   0  0  0  0  0  0  0  0  0  0  0  0
    7.2670   -2.8680   23.2080 C   0  0  1  0  0  0  0  0  0  0  0  0
    7.9690   -1.8280   24.0370 C   0  0  0  0  0  0  0  0  0  0  0  0
    6.2950   -5.2870   21.8900 C   0  0  0  0  0  0  0  0  0  0  0  0
    7.8100   -3.4550   21.9260 C   0  0  0  0  0  0  0  0  0  0  0  0
    8.5070   -0.5960   23.2190 C   0  0  2  0  0  0  0  0  0  0  0  0
    6.8220   -4.2790   21.1820 N   0  0  0  0  0  0  0  0  0  0  0  0
    6.2370   -3.9160   19.9900 C   0  0  0  0  0  0  0  0  0  0  0  0
    8.0110   -0.1940   21.8110 C   0  0  0  0  0  0  0  0  0  0  0  0
   10.0210   -0.5110   23.1170 C   0  0  0  0  0  0  0  0  0  0  0  0
    5.0910   -4.2250   19.7000 O   0  0  0  0  0  0  0  0  0  0  0  0
    7.1340   -3.1580   19.0280 C   0  0  0  0  0  0  0  0  0  0  0  0
    8.7340    0.6680   21.2770 O   0  0  0  0  0  0  0  0  0  0  0  0
    7.0570   -0.6020   21.3020 N   0  0  0  0  0  0  0  0  0  0  0  0
   10.7160    0.5320   23.9460 C   0  0  0  0  0  0  0  0  0  0  0  0
   10.8000   -1.3280   22.2880 C   0  0  0  0  0  0  0  0  0  0  0  0
    6.4350    0.0820   20.1610 C   0  0  0  0  0  0  0  0  0  0  0  0
   12.0730    0.6720   23.8720 C   0  0  0  0  0  0  0  0  0  0  0  0
   12.1980   -1.1420   22.2530 C   0  0  0  0  0  0  0  0  0  0  0  0
   13.1040   -2.1400   21.2280 Cl  0  0  0  0  0  0  0  0  0  0  0  0
    6.9920   -0.1570   18.7520 C   0  0  0  0  0  0  0  0  0  0  0  0
    5.3650    0.9320   20.4150 C   0  0  0  0  0  0  0  0  0  0  0  0
   12.9250   -0.1920   22.9840 C   0  0  0  0  0  0  0  0  0  0  0  0
    4.8370    1.1600   21.7930 C   0  0  0  0  0  0  0  0  0  0  0  0
    6.3250    0.5730   17.6610 N   0  0  0  0  0  0  0  0  0  0  0  0
    4.7580    1.6040   19.3560 C   0  0  0  0  0  0  0  0  0  0  0  0
    5.2010    1.4640   17.9420 C   0  0  0  0  0  0  0  0  0  0  0  0
  1  2  1  0
  2  3  2  0
  1  4  2  0
  1  5  1  0
  2  6  1  0
  6  7  2  0
  3  8  1  0
  6  9  1  0
  7 10  1  0
  8 10  2  0
  9 11  1  0
  9 12  1  0
 12 13  1  1
 11 14  1  0
 12 15  1  0
 16 13  1  6
 14 17  1  0
 15 17  1  0
 17 18  1  0
 16 19  1  0
 16 20  1  0
 18 21  2  0
 18 22  1  0
 19 23  2  0
 19 24  1  0
 20 25  2  0
 20 26  1  0
 24 27  1  0
 25 28  1  0
 26 29  2  0
 29 30  1  0
 27 31  2  0
 27 32  1  0
 28 33  2  0
 29 33  1  0
 32 34  1  0
 31 35  1  0
 32 36  2  0
 35 37  2  0
 36 37  1  0
M  CHG  2   1   1   5  -1
M  END
