x0734-x3117
     RDKit          3D

 46 50  0  0  0  0  0  0  0  0999 V2000
    7.1200   -1.1830   21.9720 N   0  0  0  0  0  0  0  0  0  0  0  0
    6.7960    0.2760   21.7190 C   0  0  1  0  0  0  0  0  0  0  0  0
    8.0120    1.2450   21.8600 C   0  0  0  0  0  0  0  0  0  0  0  0
    6.1650   -2.1700   22.1380 C   0  0  0  0  0  0  0  0  0  0  0  0
    8.3630   -1.3570   22.6010 C   0  0  0  0  0  0  0  0  0  0  0  0
    6.1820    0.5530   20.3830 C   0  0  0  0  0  0  0  0  0  0  0  0
    9.4740   -1.3890   21.7940 C   0  0  0  0  0  0  0  0  0  0  0  0
    8.5740   -1.5060   23.9790 C   0  0  0  0  0  0  0  0  0  0  0  0
    6.5080   -3.5660   21.5050 C   0  0  0  0  0  0  0  0  0  0  0  0
    7.9420    2.1220   22.9190 N   0  0  0  0  0  0  0  0  0  0  0  0
    8.9600    1.2960   21.0880 O   0  0  0  0  0  0  0  0  0  0  0  0
    6.3410   -3.5950   19.9830 C   0  0  0  0  0  0  0  0  0  0  0  0
    4.8650    1.3250   20.3610 C   0  0  0  0  0  0  0  0  0  0  0  0
    6.8390    0.1080   19.0650 C   0  0  0  0  0  0  0  0  0  0  0  0
   10.8320   -1.5790   22.3290 C   0  0  0  0  0  0  0  0  0  0  0  0
    9.9410   -1.7060   24.6230 C   0  0  0  0  0  0  0  0  0  0  0  0
    5.5920   -4.6770   22.0940 C   0  0  0  0  0  0  0  0  0  0  0  0
    7.9350   -4.0130   21.8390 C   0  0  0  0  0  0  0  0  0  0  0  0
    5.2800   -4.0730   19.6060 O   0  0  0  0  0  0  0  0  0  0  0  0
    7.3950   -3.0760   18.9660 C   0  0  0  0  0  0  0  0  0  0  0  0
    6.3040    0.3820   17.8870 N   0  0  0  0  0  0  0  0  0  0  0  0
    4.3150    1.6000   18.9880 C   0  0  0  0  0  0  0  0  0  0  0  0
    8.7390    3.3120   22.8780 C   0  0  0  0  0  0  0  0  0  0  0  0
   11.0600   -1.7430   23.8160 C   0  0  0  0  0  0  0  0  0  0  0  0
    6.1560   -5.3630   23.3380 C   0  0  0  0  0  0  0  0  0  0  0  0
    8.2530   -4.2750   23.2720 C   0  0  0  0  0  0  0  0  0  0  0  0
   12.4680   -1.9130   24.3570 C   0  0  0  0  0  0  0  0  0  0  0  0
    5.1520    1.0670   17.8250 C   0  0  0  0  0  0  0  0  0  0  0  0
    9.8740    3.2310   23.6880 C   0  0  0  0  0  0  0  0  0  0  0  0
    8.0360    4.4930   23.1390 C   0  0  0  0  0  0  0  0  0  0  0  0
    7.0590   -4.4300   24.0770 N   0  0  0  0  0  0  0  0  0  0  0  0
   12.6830   -0.6200   25.1110 C   0  0  0  0  0  0  0  0  0  0  0  0
   13.4290   -2.0380   23.1790 C   0  0  0  0  0  0  0  0  0  0  0  0
   12.8160   -3.0690   25.3080 C   0  0  0  0  0  0  0  0  0  0  0  0
   10.6550    4.3850   23.7190 C   0  0  0  0  0  0  0  0  0  0  0  0
    8.8300    5.6350   23.3460 C   0  0  0  0  0  0  0  0  0  0  0  0
    7.4680   -4.9260   25.3800 C   0  0  0  0  0  0  0  0  0  0  0  0
    9.9300    5.3580   24.2110 O   0  0  0  0  0  0  0  0  0  0  0  0
    6.5310   -5.0930   26.4040 C   0  0  0  0  0  0  0  0  0  0  0  0
    8.8380   -5.2200   25.5320 C   0  0  0  0  0  0  0  0  0  0  0  0
    5.1240   -4.7780   26.2070 N   0  0  0  0  0  0  0  0  0  0  0  0
    9.2130   -5.6920   26.7640 C   0  0  0  0  0  0  0  0  0  0  0  0
    6.9380   -5.5730   27.6520 C   0  0  0  0  0  0  0  0  0  0  0  0
    4.4020   -5.6640   25.7340 O   0  0  0  0  0  0  0  0  0  0  0  0
    4.7080   -3.7390   26.7400 O   0  0  0  0  0  0  0  0  0  0  0  0
    8.2890   -5.8570   27.7800 C   0  0  0  0  0  0  0  0  0  0  0  0
  1  2  1  0
  2  3  1  6
  1  4  1  0
  1  5  1  0
  2  6  1  0
  5  7  2  0
  5  8  1  0
  4  9  1  0
  3 10  1  0
  3 11  2  0
  9 12  1  0
  6 13  2  0
  6 14  1  0
  7 15  1  0
  8 16  2  0
  9 17  1  0
  9 18  1  0
 12 19  2  0
 12 20  1  0
 14 21  2  0
 13 22  1  0
 10 23  1  0
 15 24  2  0
 16 24  1  0
 17 25  1  0
 18 26  1  0
 24 27  1  0
 21 28  1  0
 22 28  2  0
 23 29  1  0
 23 30  1  0
 25 31  1  0
 26 31  1  0
 27 32  1  0
 27 33  1  0
 27 34  1  0
 29 35  1  0
 30 36  1  0
 31 37  1  0
 35 38  1  0
 36 38  1  0
 37 39  2  0
 37 40  1  0
 39 41  1  0
 40 42  2  0
 39 43  1  0
 41 44  2  0
 41 45  1  0
 42 46  1  0
 43 46  2  0
M  CHG  2  41   1  45  -1
M  END
