x0734-x3110-x0995-x3113
     RDKit          3D

 47 50  0  0  0  0  0  0  0  0999 V2000
    7.9700    1.2150   23.3350 N   0  0  0  0  0  0  0  0  0  0  0  0
    8.8390    2.3700   23.6880 C   0  0  0  0  0  0  0  0  0  0  0  0
   10.3530    2.0670   23.5540 C   0  0  0  0  0  0  0  0  0  0  0  0
    7.9030    0.7540   21.9570 C   0  0  0  0  0  0  0  0  0  0  0  0
    8.6010    1.2820   21.0710 O   0  0  0  0  0  0  0  0  0  0  0  0
    6.8770   -0.3890   21.6390 C   0  0  2  0  0  0  0  0  0  0  0  0
    7.5170   -1.6300   21.6790 N   0  0  0  0  0  0  0  0  0  0  0  0
   11.1430    3.2370   23.3580 C   0  0  0  0  0  0  0  0  0  0  0  0
    6.2970    0.0850   20.3460 C   0  0  0  0  0  0  0  0  0  0  0  0
   11.9930    3.1960   22.4800 O   0  0  0  0  0  0  0  0  0  0  0  0
   10.8560    4.1680   24.1160 O   0  0  0  0  0  0  0  0  0  0  0  0
    5.0970    0.7790   20.3530 C   0  0  0  0  0  0  0  0  0  0  0  0
    6.9620   -0.1380   19.1370 C   0  0  0  0  0  0  0  0  0  0  0  0
    8.6600   -1.6380   22.4620 C   0  0  0  0  0  0  0  0  0  0  0  0
    7.0570   -2.9240   22.1700 C   0  0  2  0  0  0  0  0  0  0  0  0
   12.3150    4.4900   21.9520 C   0  0  0  0  0  0  0  0  0  0  0  0
    6.4470    0.3250   17.9770 N   0  0  0  0  0  0  0  0  0  0  0  0
    4.4970    1.3090   19.0880 C   0  0  0  0  0  0  0  0  0  0  0  0
    9.7150   -2.0520   21.8210 C   0  0  0  0  0  0  0  0  0  0  0  0
    8.7300   -1.3100   23.6870 C   0  0  0  0  0  0  0  0  0  0  0  0
    6.3650   -3.8480   21.2250 N   0  0  0  0  0  0  0  0  0  0  0  0
    6.5170   -3.1390   23.3850 C   0  0  0  0  0  0  0  0  0  0  0  0
   13.3900    5.1790   22.8790 C   0  0  0  0  0  0  0  0  0  0  0  0
    3.3360    1.9890   19.0870 N   0  0  0  0  0  0  0  0  0  0  0  0
    6.1580   -3.5890   19.8870 C   0  0  0  0  0  0  0  0  0  0  0  0
    5.1910    1.0710   17.9310 C   0  0  0  0  0  0  0  0  0  0  0  0
   11.1520   -2.2550   22.1960 C   0  0  0  0  0  0  0  0  0  0  0  0
   10.1000   -1.4730   24.1950 C   0  0  0  0  0  0  0  0  0  0  0  0
    6.3040   -5.1810   21.6480 C   0  0  0  0  0  0  0  0  0  0  0  0
    6.5170   -4.4060   23.9030 N   0  0  0  0  0  0  0  0  0  0  0  0
    5.0570   -3.8510   19.4410 O   0  0  0  0  0  0  0  0  0  0  0  0
    7.3040   -3.0500   19.0240 C   0  0  0  0  0  0  0  0  0  0  0  0
   11.3580   -1.8930   23.6850 C   0  0  0  0  0  0  0  0  0  0  0  0
    7.2360   -4.8220   25.0290 C   0  0  0  0  0  0  0  0  0  0  0  0
    5.8250   -5.3840   23.0770 C   0  0  0  0  0  0  0  0  0  0  0  0
   12.6450   -1.9530   24.4130 C   0  0  0  0  0  0  0  0  0  0  0  0
    6.5920   -5.0880   26.2360 C   0  0  0  0  0  0  0  0  0  0  0  0
    8.7270   -4.9980   24.9080 C   0  0  0  0  0  0  0  0  0  0  0  0
   12.7420   -0.6440   25.1590 C   0  0  0  0  0  0  0  0  0  0  0  0
   13.6090   -2.1900   23.3190 C   0  0  0  0  0  0  0  0  0  0  0  0
   12.8610   -3.1100   25.4010 C   0  0  0  0  0  0  0  0  0  0  0  0
    5.1330   -4.9240   26.3700 N   0  0  0  0  0  0  0  0  0  0  0  0
    9.3960   -5.4400   26.0610 C   0  0  0  0  0  0  0  0  0  0  0  0
    7.2800   -5.5290   27.3810 C   0  0  0  0  0  0  0  0  0  0  0  0
    4.3410   -5.7460   25.5910 O   0  0  0  0  0  0  0  0  0  0  0  0
    4.7000   -3.7230   26.8930 O   0  0  0  0  0  0  0  0  0  0  0  0
    8.6590   -5.7150   27.3320 C   0  0  0  0  0  0  0  0  0  0  0  0
  1  2  1  0
  2  3  1  0
  1  4  1  0
  4  5  2  0
  6  4  1  6
  6  7  1  0
  3  8  1  0
  6  9  1  0
  8 10  1  0
  8 11  2  0
  9 12  2  0
  9 13  1  0
  7 14  1  0
 15  7  1  6
 10 16  1  0
 13 17  2  0
 12 18  1  0
 14 19  2  0
 14 20  1  0
 15 21  1  0
 15 22  1  0
 16 23  1  0
 18 24  1  0
 21 25  1  0
 17 26  1  0
 18 26  2  0
 19 27  1  0
 20 28  2  0
 21 29  1  0
 22 30  1  0
 25 31  2  0
 25 32  1  0
 27 33  2  0
 28 33  1  0
 30 34  1  0
 29 35  1  0
 30 35  1  0
 33 36  1  0
 34 37  2  0
 34 38  1  0
 36 39  1  0
 36 40  1  0
 36 41  1  0
 37 42  1  0
 38 43  2  0
 37 44  1  0
 42 45  2  0
 42 46  1  0
 43 47  1  0
 44 47  2  0
M  CHG  2  42   1  46  -1
M  END
