x0736-x0967
     RDKit          3D

 36 38  0  0  0  0  0  0  0  0999 V2000
    7.4410    4.6090   22.3400 C   0  0  0  0  0  0  0  0  0  0  0  0
    6.9490    3.3850   23.0700 C   0  0  0  0  0  0  0  0  0  0  0  0
    7.7800    2.3040   22.9440 N   0  0  0  0  0  0  0  0  0  0  0  0
    5.9100    3.3900   23.7190 O   0  0  0  0  0  0  0  0  0  0  0  0
    7.3630    0.8800   22.9950 C   0  0  1  0  0  0  0  0  0  0  0  0
    5.9550    0.6010   22.5080 C   0  0  0  0  0  0  0  0  0  0  0  0
    8.4280    0.2060   22.1120 C   0  0  0  0  0  0  0  0  0  0  0  0
    8.8120   -1.0990   22.2220 N   0  0  0  0  0  0  0  0  0  0  0  0
    9.0030    0.9500   21.3160 O   0  0  0  0  0  0  0  0  0  0  0  0
    5.9010    0.7190   21.0070 C   0  0  0  0  0  0  0  0  0  0  0  0
   10.0400   -1.1400   21.7970 C   0  0  0  0  0  0  0  0  0  0  0  0
    6.6920   -0.0990   20.1890 C   0  0  0  0  0  0  0  0  0  0  0  0
    5.0520    1.6650   20.4330 C   0  0  0  0  0  0  0  0  0  0  0  0
    8.1830   -2.4370   21.9500 C   0  0  2  0  0  0  0  0  0  0  0  0
   10.8880   -2.1630   22.0170 C   0  0  0  0  0  0  0  0  0  0  0  0
    6.6410    0.0290   18.8200 C   0  0  0  0  0  0  0  0  0  0  0  0
    5.0080    1.7830   19.0410 C   0  0  0  0  0  0  0  0  0  0  0  0
    6.7890   -2.6910   21.3590 N   0  0  0  0  0  0  0  0  0  0  0  0
    8.5540   -3.1140   23.0980 C   0  0  0  0  0  0  0  0  0  0  0  0
   12.0020   -1.5340   22.4190 C   0  0  0  0  0  0  0  0  0  0  0  0
    6.5530   -3.2920   20.0600 C   0  0  0  0  0  0  0  0  0  0  0  0
    5.8030    0.9670   18.2630 C   0  0  0  0  0  0  0  0  0  0  0  0
    7.4340   -3.2960   23.9810 N   0  0  0  0  0  0  0  0  0  0  0  0
    5.8060   -3.1740   22.3490 C   0  0  0  0  0  0  0  0  0  0  0  0
    5.7310    1.1260   16.9470 O   0  0  0  0  0  0  0  0  0  0  0  0
   13.3060   -0.3770   23.0260 Br  0  0  0  0  0  0  0  0  0  0  0  0
    7.4470   -2.9620   18.8680 C   0  0  0  0  0  0  0  0  0  0  0  0
    5.6300   -4.1170   19.8200 O   0  0  0  0  0  0  0  0  0  0  0  0
    7.0740   -2.4140   24.9460 C   0  0  0  0  0  0  0  0  0  0  0  0
    6.3920   -4.0240   23.2860 C   0  0  0  0  0  0  0  0  0  0  0  0
    5.9150   -2.4040   25.3470 O   0  0  0  0  0  0  0  0  0  0  0  0
    8.0500   -1.4900   25.5030 C   0  0  0  0  0  0  0  0  0  0  0  0
    8.7490   -0.5090   24.8270 O   0  0  0  0  0  0  0  0  0  0  0  0
    8.3060   -1.5780   26.8270 C   0  0  0  0  0  0  0  0  0  0  0  0
    9.2580   -0.5600   27.0740 C   0  0  0  0  0  0  0  0  0  0  0  0
    9.5270    0.1240   25.7360 C   0  0  0  0  0  0  0  0  0  0  0  0
  1  2  1  0
  2  3  1  0
  2  4  2  0
  3  5  1  0
  5  6  1  6
  5  7  1  0
  7  8  1  0
  7  9  2  0
  6 10  1  0
  8 11  1  0
 10 12  2  0
 10 13  1  0
 14  8  1  1
 11 15  1  0
 12 16  1  0
 13 17  2  0
 14 18  1  0
 14 19  1  0
 15 20  3  0
 18 21  1  0
 16 22  2  0
 17 22  1  0
 19 23  1  0
 18 24  1  0
 22 25  1  0
 20 26  1  0
 21 27  1  0
 21 28  2  0
 23 29  1  0
 23 30  1  0
 24 30  1  0
 29 31  2  0
 29 32  1  0
 32 33  1  0
 32 34  2  0
 34 35  1  0
 33 36  1  0
 35 36  2  0
M  END
