x0736-x2563
     RDKit          3D

 35 40  0  0  0  0  0  0  0  0999 V2000
    7.4380   -3.0990   18.8640 C   0  0  0  0  0  0  0  0  0  0  0  0
    6.5240   -3.4650   20.0380 C   0  0  0  0  0  0  0  0  0  0  0  0
    5.4710   -4.0650   19.7450 O   0  0  0  0  0  0  0  0  0  0  0  0
    6.9110   -3.2570   21.3930 N   0  0  0  0  0  0  0  0  0  0  0  0
    7.1640   -2.1010   22.1800 C   0  0  2  0  0  0  0  0  0  0  0  0
    6.7170   -4.2910   22.1990 C   0  0  0  0  0  0  0  0  0  0  0  0
    7.8550   -0.8160   21.5950 C   0  0  2  0  0  0  0  0  0  0  0  0
    7.5780   -2.5970   23.4070 N   0  0  0  0  0  0  0  0  0  0  0  0
    7.3000   -4.0030   23.3820 C   0  0  0  0  0  0  0  0  0  0  0  0
    7.0280   -2.0420   24.6240 C   0  0  0  0  0  0  0  0  0  0  0  0
    7.4370    0.2350   22.0510 O   0  0  0  0  0  0  0  0  0  0  0  0
    7.4430   -0.7220   20.3020 C   0  0  0  0  0  0  0  0  0  0  0  0
    9.3260   -0.6210   21.7330 N   0  0  0  0  0  0  0  0  0  0  0  0
    5.8670   -2.3540   24.9420 O   0  0  0  0  0  0  0  0  0  0  0  0
    7.7260   -1.1550   25.5080 C   0  0  2  0  0  0  0  0  0  0  0  0
    6.4820    0.1940   19.6480 C   0  0  0  0  0  0  0  0  0  0  0  0
   10.0970   -0.8470   22.9780 C   0  0  1  0  0  0  0  0  0  0  0  0
    8.4560   -0.1060   24.9160 C   0  0  2  0  0  0  0  0  0  0  0  0
    8.4480   -1.5970   26.5790 C   0  0  0  0  0  0  0  0  0  0  0  0
    5.3440    0.8360   20.1560 C   0  0  0  0  0  0  0  0  0  0  0  0
    6.7180    0.4520   18.3330 C   0  0  0  0  0  0  0  0  0  0  0  0
   11.6010   -0.8210   22.7730 C   0  0  0  0  0  0  0  0  0  0  0  0
    9.8400   -0.1620   24.2020 C   0  0  2  0  0  0  0  0  0  0  0  0
    9.0490   -0.4490   27.0270 C   0  0  0  0  0  0  0  0  0  0  0  0
    8.7090    0.6510   26.2470 C   0  0  0  0  0  0  0  0  0  0  0  0
    6.0500    1.2070   17.4540 N   0  0  0  0  0  0  0  0  0  0  0  0
    4.6100    1.6400   19.2630 C   0  0  0  0  0  0  0  0  0  0  0  0
    4.9300    0.6970   21.5040 C   0  0  0  0  0  0  0  0  0  0  0  0
   12.3890    0.3420   23.1110 C   0  0  0  0  0  0  0  0  0  0  0  0
   10.3540    1.2700   24.1820 C   0  0  0  0  0  0  0  0  0  0  0  0
    4.9890    1.7950   17.9560 C   0  0  0  0  0  0  0  0  0  0  0  0
    3.3980    2.3000   19.8660 C   0  0  0  0  0  0  0  0  0  0  0  0
    3.8170    1.3270   22.0090 C   0  0  0  0  0  0  0  0  0  0  0  0
   11.6060    1.5510   23.6620 C   0  0  0  0  0  0  0  0  0  0  0  0
    3.0570    2.1210   21.1900 C   0  0  0  0  0  0  0  0  0  0  0  0
  1  2  1  0
  2  3  2  0
  2  4  1  0
  5  4  1  6
  4  6  1  0
  5  7  1  0
  5  8  1  0
  6  9  1  0
  8  9  1  0
  8 10  1  0
  7 11  1  1
  7 12  1  0
  7 13  1  0
 10 14  2  0
 10 15  1  0
 12 16  1  0
 13 17  1  0
 15 18  1  0
 15 19  1  6
 16 20  1  0
 16 21  2  0
 17 22  1  6
 17 23  1  0
 18 23  1  0
 19 24  2  0
 18 25  1  1
 24 25  1  0
 21 26  1  0
 20 27  2  0
 20 28  1  0
 22 29  2  0
 23 30  1  6
 26 31  2  0
 27 31  1  0
 27 32  1  0
 28 33  2  0
 29 34  1  0
 30 34  2  0
 32 35  2  0
 33 35  1  0
M  END
