x0734-x3110
     RDKit          3D

 46 49  0  0  0  0  0  0  0  0999 V2000
    8.0410    1.1070   23.2570 N   0  0  0  0  0  0  0  0  0  0  0  0
    8.8350    2.2790   23.6940 C   0  0  0  0  0  0  0  0  0  0  0  0
   10.3410    2.0410   23.5550 C   0  0  0  0  0  0  0  0  0  0  0  0
    7.9390    0.7990   21.9520 C   0  0  0  0  0  0  0  0  0  0  0  0
    8.6010    1.4480   21.1160 O   0  0  0  0  0  0  0  0  0  0  0  0
    7.0450   -0.2710   21.6330 C   0  0  2  0  0  0  0  0  0  0  0  0
    7.6830   -1.6400   21.7330 N   0  0  0  0  0  0  0  0  0  0  0  0
   11.1440    3.3410   23.3910 C   0  0  0  0  0  0  0  0  0  0  0  0
    6.4310    0.1640   20.2920 C   0  0  0  0  0  0  0  0  0  0  0  0
   11.9540    3.2470   22.4790 O   0  0  0  0  0  0  0  0  0  0  0  0
   10.9690    4.5010   24.1890 O   0  0  0  0  0  0  0  0  0  0  0  0
    5.2450    0.9170   20.3050 C   0  0  0  0  0  0  0  0  0  0  0  0
    6.9880   -0.1160   19.0490 C   0  0  0  0  0  0  0  0  0  0  0  0
    8.8980   -1.6710   22.3610 C   0  0  0  0  0  0  0  0  0  0  0  0
    7.0780   -2.9760   22.1330 C   0  0  2  0  0  0  0  0  0  0  0  0
   12.3700    4.5100   21.9420 C   0  0  0  0  0  0  0  0  0  0  0  0
    6.4510    0.3050   17.8760 N   0  0  0  0  0  0  0  0  0  0  0  0
    4.6410    1.3810   19.1430 C   0  0  0  0  0  0  0  0  0  0  0  0
   10.0410   -1.2310   21.7590 C   0  0  0  0  0  0  0  0  0  0  0  0
    9.0030   -2.2320   23.7730 C   0  0  0  0  0  0  0  0  0  0  0  0
    6.3220   -3.8900   21.2200 N   0  0  0  0  0  0  0  0  0  0  0  0
    6.3770   -2.9790   23.4730 C   0  0  0  0  0  0  0  0  0  0  0  0
   13.3850    5.1890   22.8670 C   0  0  0  0  0  0  0  0  0  0  0  0
    6.1140   -3.6100   19.8900 C   0  0  0  0  0  0  0  0  0  0  0  0
    5.2050    1.1070   17.9170 C   0  0  0  0  0  0  0  0  0  0  0  0
   11.2480   -1.3140   22.4140 C   0  0  0  0  0  0  0  0  0  0  0  0
   10.1970   -2.3090   24.4130 C   0  0  0  0  0  0  0  0  0  0  0  0
    6.3540   -5.3000   21.6790 C   0  0  0  0  0  0  0  0  0  0  0  0
    6.3520   -4.3710   24.0020 N   0  0  0  0  0  0  0  0  0  0  0  0
    5.0130   -3.8370   19.4180 O   0  0  0  0  0  0  0  0  0  0  0  0
    7.2630   -3.0760   19.0530 C   0  0  0  0  0  0  0  0  0  0  0  0
   11.3350   -1.8790   23.7930 C   0  0  0  0  0  0  0  0  0  0  0  0
    7.1750   -4.8130   25.0680 C   0  0  0  0  0  0  0  0  0  0  0  0
    5.8240   -5.4220   23.1150 C   0  0  0  0  0  0  0  0  0  0  0  0
   12.6850   -1.9330   24.4280 C   0  0  0  0  0  0  0  0  0  0  0  0
    6.5660   -5.0960   26.2910 C   0  0  0  0  0  0  0  0  0  0  0  0
    8.5650   -4.9930   24.9590 C   0  0  0  0  0  0  0  0  0  0  0  0
   12.7980   -0.6900   25.0100 C   0  0  0  0  0  0  0  0  0  0  0  0
   13.5250   -2.1070   23.3670 C   0  0  0  0  0  0  0  0  0  0  0  0
   12.9460   -2.9720   25.2900 C   0  0  0  0  0  0  0  0  0  0  0  0
    5.1350   -4.9190   26.4040 N   0  0  0  0  0  0  0  0  0  0  0  0
    9.2860   -5.4470   26.0740 C   0  0  0  0  0  0  0  0  0  0  0  0
    7.2760   -5.5500   27.4150 C   0  0  0  0  0  0  0  0  0  0  0  0
    4.4330   -5.6750   25.7180 O   0  0  0  0  0  0  0  0  0  0  0  0
    4.7400   -3.8430   26.8760 O   0  0  0  0  0  0  0  0  0  0  0  0
    8.6540   -5.7240   27.2880 C   0  0  0  0  0  0  0  0  0  0  0  0
  1  2  1  0
  2  3  1  0
  1  4  1  0
  4  5  2  0
  6  4  1  6
  6  7  1  0
  3  8  1  0
  6  9  1  0
  8 10  1  0
  8 11  2  0
  9 12  2  0
  9 13  1  0
  7 14  1  0
 15  7  1  6
 10 16  1  0
 13 17  2  0
 12 18  1  0
 14 19  2  0
 14 20  1  0
 15 21  1  0
 15 22  1  0
 16 23  1  0
 21 24  1  0
 17 25  1  0
 18 25  2  0
 19 26  1  0
 20 27  2  0
 21 28  1  0
 22 29  1  0
 24 30  2  0
 24 31  1  0
 26 32  2  0
 27 32  1  0
 29 33  1  0
 28 34  1  0
 29 34  1  0
 32 35  1  0
 33 36  2  0
 33 37  1  0
 35 38  1  0
 35 39  1  0
 35 40  1  0
 36 41  1  0
 37 42  2  0
 36 43  1  0
 41 44  2  0
 41 45  1  0
 42 46  1  0
 43 46  2  0
M  CHG  2  41   1  45  -1
M  END
