x0734-x2572
     RDKit          3D

 38 41  0  0  0  0  0  0  0  0999 V2000
    5.0510   -4.6490   26.1050 N   0  0  0  0  0  0  0  0  0  0  0  0
    6.5220   -4.9160   26.1970 C   0  0  0  0  0  0  0  0  0  0  0  0
    7.0550   -5.4860   27.3620 C   0  0  0  0  0  0  0  0  0  0  0  0
    4.3580   -5.5270   25.5690 O   0  0  0  0  0  0  0  0  0  0  0  0
    4.6020   -3.7050   26.7740 O   0  0  0  0  0  0  0  0  0  0  0  0
    7.3420   -4.5850   25.0970 C   0  0  0  0  0  0  0  0  0  0  0  0
    8.7120   -4.8160   25.1170 C   0  0  0  0  0  0  0  0  0  0  0  0
    8.5500   -5.7610   27.4260 C   0  0  0  0  0  0  0  0  0  0  0  0
    6.6250   -4.0360   24.0550 N   0  0  0  0  0  0  0  0  0  0  0  0
    9.3740   -5.3890   26.1990 C   0  0  0  0  0  0  0  0  0  0  0  0
    5.9620   -5.0070   23.3240 C   0  0  0  0  0  0  0  0  0  0  0  0
    6.9560   -2.8480   23.3250 C   0  0  1  0  0  0  0  0  0  0  0  0
    8.0940   -1.8830   23.7940 C   0  0  0  0  0  0  0  0  0  0  0  0
    6.4700   -5.3610   22.0540 C   0  0  0  0  0  0  0  0  0  0  0  0
    7.3690   -3.3500   22.0070 C   0  0  0  0  0  0  0  0  0  0  0  0
    8.8010   -1.1320   22.6200 C   0  0  1  0  0  0  0  0  0  0  0  0
    6.6660   -4.2520   21.3760 N   0  0  0  0  0  0  0  0  0  0  0  0
    6.1340   -4.0210   20.1140 C   0  0  0  0  0  0  0  0  0  0  0  0
    8.0370   -0.0550   21.8460 C   0  0  0  0  0  0  0  0  0  0  0  0
   10.2150   -0.6410   22.8610 C   0  0  0  0  0  0  0  0  0  0  0  0
    5.0550   -4.4610   19.7880 O   0  0  0  0  0  0  0  0  0  0  0  0
    6.9890   -3.2130   19.1470 C   0  0  0  0  0  0  0  0  0  0  0  0
    8.6080    1.0460   21.7020 O   0  0  0  0  0  0  0  0  0  0  0  0
    6.9950   -0.3200   21.4200 N   0  0  0  0  0  0  0  0  0  0  0  0
   10.6010    0.4300   23.6530 C   0  0  0  0  0  0  0  0  0  0  0  0
   11.1370   -1.3650   22.1830 C   0  0  0  0  0  0  0  0  0  0  0  0
    6.4050    0.2370   20.2600 C   0  0  0  0  0  0  0  0  0  0  0  0
   12.0640    0.8200   23.7680 C   0  0  0  0  0  0  0  0  0  0  0  0
   12.4630   -1.1080   22.2170 C   0  0  0  0  0  0  0  0  0  0  0  0
   13.1550   -2.0170   21.4260 C   0  0  0  0  0  0  0  0  0  0  0  0
    6.9380   -0.0010   18.8550 C   0  0  0  0  0  0  0  0  0  0  0  0
    5.2890    1.0440   20.3900 C   0  0  0  0  0  0  0  0  0  0  0  0
   13.0360   -0.0730   22.9440 C   0  0  0  0  0  0  0  0  0  0  0  0
    4.8760    1.1900   21.8200 C   0  0  0  0  0  0  0  0  0  0  0  0
   13.6430   -3.0070   20.6500 N   0  0  0  0  0  0  0  0  0  0  0  0
    6.4220    0.5150   17.7370 N   0  0  0  0  0  0  0  0  0  0  0  0
    4.6270    1.6640   19.2180 C   0  0  0  0  0  0  0  0  0  0  0  0
    5.2490    1.3660   17.8720 C   0  0  0  0  0  0  0  0  0  0  0  0
  1  2  1  0
  2  3  2  0
  1  4  2  0
  1  5  1  0
  2  6  1  0
  6  7  2  0
  3  8  1  0
  6  9  1  0
  7 10  1  0
  8 10  2  0
  9 11  1  0
  9 12  1  0
 12 13  1  1
 11 14  1  0
 12 15  1  0
 16 13  1  1
 14 17  1  0
 15 17  1  0
 17 18  1  0
 16 19  1  0
 16 20  1  0
 18 21  2  0
 18 22  1  0
 19 23  2  0
 19 24  1  0
 20 25  2  0
 20 26  1  0
 24 27  1  0
 25 28  1  0
 26 29  2  0
 29 30  1  0
 27 31  2  0
 27 32  1  0
 28 33  2  0
 29 33  1  0
 32 34  1  0
 30 35  3  0
 31 36  1  0
 32 37  2  0
 36 38  2  0
 37 38  1  0
M  CHG  2   1   1   5  -1
M  END
