x0731-x2776-x2705
     RDKit          3D

 54 58  0  0  0  0  0  0  0  0999 V2000
    7.0560   -1.0340   21.6260 N   0  0  0  0  0  0  0  0  0  0  0  0
    6.8580    0.3270   21.5200 C   0  0  1  0  0  0  0  0  0  0  0  0
    8.0690    1.2540   21.7400 C   0  0  0  0  0  0  0  0  0  0  0  0
    5.8830   -1.8650   21.6890 C   0  0  0  0  0  0  0  0  0  0  0  0
    8.1070   -1.3020   22.5100 C   0  0  0  0  0  0  0  0  0  0  0  0
    5.8590   -3.0420   22.4650 C   0  0  0  0  0  0  0  0  0  0  0  0
    6.2650    0.7000   20.2250 C   0  0  0  0  0  0  0  0  0  0  0  0
    9.4020   -1.5760   22.0120 C   0  0  0  0  0  0  0  0  0  0  0  0
    7.8540   -1.2760   23.9290 C   0  0  0  0  0  0  0  0  0  0  0  0
    7.8270    2.1710   22.7610 N   0  0  0  0  0  0  0  0  0  0  0  0
    9.0980    1.2590   21.1030 O   0  0  0  0  0  0  0  0  0  0  0  0
    5.0740    1.6160   20.1020 C   0  0  0  0  0  0  0  0  0  0  0  0
    6.8560    0.1680   18.9090 C   0  0  0  0  0  0  0  0  0  0  0  0
   10.4180   -1.8140   22.9360 C   0  0  0  0  0  0  0  0  0  0  0  0
    8.7890   -1.4950   24.7970 C   0  0  0  0  0  0  0  0  0  0  0  0
    6.4090   -4.3760   21.8330 C   0  0  0  0  0  0  0  0  0  0  0  0
   11.8340   -2.1020   22.6020 C   0  0  0  0  0  0  0  0  0  0  0  0
    6.2430   -4.1310   20.3230 C   0  0  0  0  0  0  0  0  0  0  0  0
    6.2110    0.6220   17.6800 N   0  0  0  0  0  0  0  0  0  0  0  0
    4.5180    1.9920   18.7690 C   0  0  0  0  0  0  0  0  0  0  0  0
    8.5560    3.3530   23.0100 C   0  0  0  0  0  0  0  0  0  0  0  0
   10.0600   -1.7640   24.3530 C   0  0  0  0  0  0  0  0  0  0  0  0
    7.5790   -4.6430   22.5070 C   0  0  0  0  0  0  0  0  0  0  0  0
    5.5230   -5.6570   22.0310 C   0  0  0  0  0  0  0  0  0  0  0  0
   12.6820   -1.4510   23.6700 C   0  0  1  0  0  0  0  0  0  0  0  0
    5.2420   -4.6330   19.8610 O   0  0  0  0  0  0  0  0  0  0  0  0
    7.2340   -3.2790   19.4940 C   0  0  0  0  0  0  0  0  0  0  0  0
    5.1600    1.4510   17.6930 C   0  0  0  0  0  0  0  0  0  0  0  0
    9.8180    3.2390   23.5690 C   0  0  0  0  0  0  0  0  0  0  0  0
    8.0910    4.6250   22.7300 C   0  0  0  0  0  0  0  0  0  0  0  0
    7.3710   -4.7600   24.0160 C   0  0  0  0  0  0  0  0  0  0  0  0
    5.7640   -6.3350   23.2010 C   0  0  0  0  0  0  0  0  0  0  0  0
   13.5880   -2.2250   23.9810 O   0  0  0  0  0  0  0  0  0  0  0  0
   10.4000    1.8890   23.9030 C   0  0  0  0  0  0  0  0  0  0  0  0
   13.1680   -0.2780   23.0590 C   0  0  0  0  0  0  0  0  0  0  0  0
    6.7330    4.7040   22.1140 C   0  0  0  0  0  0  0  0  0  0  0  0
   10.5660    4.3920   23.8360 C   0  0  0  0  0  0  0  0  0  0  0  0
    8.8320    5.9090   22.9910 C   0  0  0  0  0  0  0  0  0  0  0  0
    6.0140   -5.2990   24.2010 N   0  0  0  0  0  0  0  0  0  0  0  0
   13.3390   -2.8560   25.2350 C   0  0  0  0  0  0  0  0  0  0  0  0
    9.5380    1.1550   24.8610 C   0  0  0  0  0  0  0  0  0  0  0  0
    5.2250   -5.4260   25.6630 S   0  0  0  0  0  0  0  0  0  0  0  0
   10.0560    5.7810   23.5440 C   0  0  0  0  0  0  0  0  0  0  0  0
   10.7440    6.7690   23.8040 O   0  0  0  0  0  0  0  0  0  0  0  0
    6.0720   -5.1540   26.7820 O   0  0  0  0  0  0  0  0  0  0  0  0
    4.4200   -6.6180   25.6410 O   0  0  0  0  0  0  0  0  0  0  0  0
    3.9880   -4.1720   25.7590 C   0  0  0  0  0  0  0  0  0  0  0  0
   11.7700    6.6260   24.7840 C   0  0  0  0  0  0  0  0  0  0  0  0
    2.6880   -4.3040   25.2940 C   0  0  0  0  0  0  0  0  0  0  0  0
    4.2580   -2.8080   26.3920 C   0  0  0  0  0  0  0  0  0  0  0  0
    1.7680   -3.1740   25.4770 C   0  0  0  0  0  0  0  0  0  0  0  0
    3.2960   -1.8020   26.5080 C   0  0  0  0  0  0  0  0  0  0  0  0
    1.9910   -1.9850   26.0400 C   0  0  0  0  0  0  0  0  0  0  0  0
    0.9640   -0.9330   26.1780 C   0  0  0  0  0  0  0  0  0  0  0  0
  1  2  1  0
  2  3  1  6
  1  4  1  0
  1  5  1  0
  4  6  1  0
  2  7  1  0
  5  8  2  0
  5  9  1  0
  3 10  1  0
  3 11  2  0
  7 12  2  0
  7 13  1  0
  8 14  1  0
  9 15  2  0
  6 16  1  0
 14 17  1  0
 16 18  1  0
 13 19  2  0
 12 20  1  0
 10 21  1  0
 14 22  2  0
 15 22  1  0
 16 23  1  0
 16 24  1  0
 17 25  1  0
 18 26  2  0
 18 27  1  0
 19 28  1  0
 20 28  2  0
 21 29  2  0
 21 30  1  0
 23 31  1  0
 24 32  1  0
 25 33  1  0
 29 34  1  0
 25 35  1  6
 30 36  1  0
 29 37  1  0
 30 38  2  0
 31 39  1  0
 32 39  1  0
 33 40  1  0
 34 41  1  0
 39 42  1  0
 37 43  2  0
 38 43  1  0
 43 44  1  0
 42 45  2  0
 42 46  2  0
 42 47  1  0
 44 48  1  0
 47 49  2  0
 47 50  1  0
 49 51  1  0
 50 52  2  0
 51 53  2  0
 52 53  1  0
 53 54  1  0
M  END
