x0731-x2776-x0426
     RDKit          3D

 62 67  0  0  0  0  0  0  0  0999 V2000
    7.2180   -0.9880   21.8170 N   0  0  0  0  0  0  0  0  0  0  0  0
    6.8010    0.3110   21.6960 C   0  0  1  0  0  0  0  0  0  0  0  0
    7.9140    1.3400   21.8050 C   0  0  0  0  0  0  0  0  0  0  0  0
    8.4270   -1.2130   22.4580 C   0  0  0  0  0  0  0  0  0  0  0  0
    6.1470    0.6070   20.3480 C   0  0  0  0  0  0  0  0  0  0  0  0
    9.4220   -1.8060   21.7250 C   0  0  0  0  0  0  0  0  0  0  0  0
    8.7210   -0.8310   23.9250 C   0  0  0  0  0  0  0  0  0  0  0  0
    7.8730    2.1530   22.9310 N   0  0  0  0  0  0  0  0  0  0  0  0
    8.7950    1.4790   20.9670 O   0  0  0  0  0  0  0  0  0  0  0  0
    4.9060    1.2960   20.1660 C   0  0  0  0  0  0  0  0  0  0  0  0
    6.8350    0.1710   19.2070 C   0  0  0  0  0  0  0  0  0  0  0  0
   10.6320   -2.0220   22.3080 C   0  0  0  0  0  0  0  0  0  0  0  0
   10.0110   -1.1000   24.4200 C   0  0  0  0  0  0  0  0  0  0  0  0
    3.9890    1.8390   21.1430 C   0  0  0  0  0  0  0  0  0  0  0  0
    6.4000    0.3770   17.9300 N   0  0  0  0  0  0  0  0  0  0  0  0
    4.4920    1.4920   18.8570 C   0  0  0  0  0  0  0  0  0  0  0  0
    8.6700    3.2730   23.1640 C   0  0  0  0  0  0  0  0  0  0  0  0
   10.9620   -1.6970   23.5870 C   0  0  0  0  0  0  0  0  0  0  0  0
   12.3440   -1.9790   24.0550 C   0  0  2  0  0  0  0  0  0  0  0  0
    4.1580    1.6070   22.5040 C   0  0  0  0  0  0  0  0  0  0  0  0
    5.2480    1.0350   17.8180 C   0  0  0  0  0  0  0  0  0  0  0  0
    9.9810    3.2010   23.6230 C   0  0  0  0  0  0  0  0  0  0  0  0
    8.0500    4.4860   22.9020 C   0  0  0  0  0  0  0  0  0  0  0  0
   12.3190   -2.6710   25.0580 O   0  0  0  0  0  0  0  0  0  0  0  0
   10.5760    1.8480   23.8790 C   0  0  0  0  0  0  0  0  0  0  0  0
   12.9580   -0.6400   24.3670 C   0  0  0  0  0  0  0  0  0  0  0  0
    3.1290    2.3380   23.2700 N   0  0  0  0  0  0  0  0  0  0  0  0
   10.6230    4.4280   23.8020 C   0  0  0  0  0  0  0  0  0  0  0  0
    8.7450    5.6740   23.1040 C   0  0  0  0  0  0  0  0  0  0  0  0
   13.6120   -3.0360   25.4760 C   0  0  0  0  0  0  0  0  0  0  0  0
    2.1370    1.7310   23.9730 C   0  0  0  0  0  0  0  0  0  0  0  0
   10.0690    5.5750   23.5730 C   0  0  0  0  0  0  0  0  0  0  0  0
   10.8860    6.6550   23.8260 O   0  0  0  0  0  0  0  0  0  0  0  0
    2.0460    0.3840   24.1220 N   0  0  0  0  0  0  0  0  0  0  0  0
    1.1450    2.6430   24.5890 C   0  0  0  0  0  0  0  0  0  0  0  0
   11.7710    6.5860   24.9460 C   0  0  0  0  0  0  0  0  0  0  0  0
    0.9210   -0.2340   24.9100 C   0  0  0  0  0  0  0  0  0  0  0  0
    1.5380    3.7910   25.2950 C   0  0  0  0  0  0  0  0  0  0  0  0
   -0.3600    2.3450   24.4710 C   0  0  0  0  0  0  0  0  0  0  0  0
    2.8320    4.1040   25.4240 F   0  0  0  0  0  0  0  0  0  0  0  0
    1.3850   -0.8040   26.2430 C   0  0  0  0  0  0  0  0  0  0  0  0
   -1.3070    3.1810   25.0550 C   0  0  0  0  0  0  0  0  0  0  0  0
    0.6030    4.6330   25.8820 C   0  0  0  0  0  0  0  0  0  0  0  0
   -0.8930    4.2950   25.7480 C   0  0  0  0  0  0  0  0  0  0  0  0
    2.4040   -1.9060   26.1600 C   0  0  0  0  0  0  0  0  0  0  0  0
    1.9490   -3.3630   26.1200 C   0  0  0  0  0  0  0  0  0  0  0  0
    3.7630   -1.5700   26.1230 C   0  0  0  0  0  0  0  0  0  0  0  0
    2.9080   -4.3730   26.0420 C   0  0  0  0  0  0  0  0  0  0  0  0
    4.6760   -2.6810   26.0470 C   0  0  0  0  0  0  0  0  0  0  0  0
    4.2580   -4.0520   26.0070 C   0  0  0  0  0  0  0  0  0  0  0  0
    5.4570   -5.3530   25.9220 S   0  0  0  0  0  0  0  0  0  0  0  0
    6.5720   -4.9890   26.7580 O   0  0  0  0  0  0  0  0  0  0  0  0
    4.7550   -6.6060   26.0890 O   0  0  0  0  0  0  0  0  0  0  0  0
    6.0430   -5.3110   24.3140 N   0  0  0  0  0  0  0  0  0  0  0  0
    6.8260   -4.1280   23.8410 C   0  0  0  0  0  0  0  0  0  0  0  0
    5.2560   -6.0530   23.2860 C   0  0  0  0  0  0  0  0  0  0  0  0
    7.5610   -4.4160   22.7110 C   0  0  0  0  0  0  0  0  0  0  0  0
    6.0510   -6.2890   22.1630 C   0  0  0  0  0  0  0  0  0  0  0  0
    6.7440   -5.0900   21.7000 N   0  0  0  0  0  0  0  0  0  0  0  0
    6.3140   -4.5580   20.4870 C   0  0  0  0  0  0  0  0  0  0  0  0
    5.2810   -4.9690   19.9950 O   0  0  0  0  0  0  0  0  0  0  0  0
    7.1610   -3.5180   19.7450 C   0  0  0  0  0  0  0  0  0  0  0  0
  2  1  1  6
  2  3  1  0
  1  4  1  0
  2  5  1  0
  4  6  2  0
  4  7  1  0
  3  8  1  0
  3  9  2  0
  5 10  1  0
  5 11  2  0
  6 12  1  0
  7 13  2  0
 10 14  1  0
 11 15  1  0
 10 16  2  0
  8 17  1  0
 12 18  2  0
 13 18  1  0
 18 19  1  0
 14 20  1  0
 15 21  2  0
 16 21  1  0
 17 22  2  0
 17 23  1  0
 19 24  1  0
 22 25  1  0
 19 26  1  1
 20 27  1  0
 22 28  1  0
 23 29  2  0
 24 30  1  0
 27 31  1  0
 28 32  2  0
 29 32  1  0
 32 33  1  0
 31 34  2  3
 31 35  1  0
 33 36  1  0
 34 37  1  0
 35 38  2  0
 35 39  1  0
 38 40  1  0
 37 41  1  0
 39 42  2  0
 38 43  1  0
 42 44  1  0
 43 44  2  0
 41 45  1  0
 45 46  2  0
 45 47  1  0
 46 48  1  0
 47 49  2  0
 48 50  2  0
 49 50  1  0
 51 50  1  0
 51 52  2  0
 51 53  2  0
 51 54  1  0
 54 55  1  0
 54 56  1  0
 55 57  1  0
 56 58  1  0
 57 59  1  0
 58 59  1  0
 59 60  1  0
 60 61  2  0
 60 62  1  0
M  END
