x0734-x0107-x2694
     RDKit          3D

 48 52  0  0  0  0  0  0  0  0999 V2000
    7.5010   -0.8870   22.2500 N   0  0  0  0  0  0  0  0  0  0  0  0
    7.0120    0.5010   21.8750 C   0  0  1  0  0  0  0  0  0  0  0  0
    8.1040    1.5860   21.9230 C   0  0  0  0  0  0  0  0  0  0  0  0
    6.5210   -1.5580   23.1460 C   0  0  0  0  0  0  0  0  0  0  0  0
    8.8000   -1.0500   22.8870 C   0  0  0  0  0  0  0  0  0  0  0  0
    6.3370    0.6410   20.5030 C   0  0  0  0  0  0  0  0  0  0  0  0
    8.9710   -1.1540   24.2180 N   0  0  0  0  0  0  0  0  0  0  0  0
   10.0920   -1.1280   22.1780 C   0  0  0  0  0  0  0  0  0  0  0  0
    6.6000   -3.0900   22.9440 C   0  0  2  0  0  0  0  0  0  0  0  0
    7.8140    2.5800   22.8150 N   0  0  0  0  0  0  0  0  0  0  0  0
    9.1110    1.6070   21.2230 O   0  0  0  0  0  0  0  0  0  0  0  0
    5.1630    1.3840   20.3710 C   0  0  0  0  0  0  0  0  0  0  0  0
    6.9100    0.0170   19.2000 C   0  0  0  0  0  0  0  0  0  0  0  0
   10.3560   -1.3000   24.4730 O   0  0  0  0  0  0  0  0  0  0  0  0
   11.0870   -1.2900   23.3060 C   0  0  0  0  0  0  0  0  0  0  0  0
    6.3370   -4.1790   23.9600 N   0  0  0  0  0  0  0  0  0  0  0  0
    7.6550   -3.6080   22.0050 C   0  0  0  0  0  0  0  0  0  0  0  0
   12.5000   -1.4040   23.2420 C   0  0  0  0  0  0  0  0  0  0  0  0
    6.3600    0.1570   17.9770 N   0  0  0  0  0  0  0  0  0  0  0  0
    4.5000    1.5740   19.0280 C   0  0  0  0  0  0  0  0  0  0  0  0
    8.6360    3.6740   23.0800 C   0  0  0  0  0  0  0  0  0  0  0  0
    7.1750   -4.5780   25.0580 C   0  0  0  0  0  0  0  0  0  0  0  0
    6.8980   -4.5920   21.2450 N   0  0  0  0  0  0  0  0  0  0  0  0
    5.7750   -5.3660   23.2500 C   0  0  0  0  0  0  0  0  0  0  0  0
   12.9750   -0.1090   23.4140 C   0  0  0  0  0  0  0  0  0  0  0  0
   12.9540   -1.9300   21.8770 C   0  0  0  0  0  0  0  0  0  0  0  0
   12.9890   -2.2510   24.2590 C   0  0  0  0  0  0  0  0  0  0  0  0
    6.2780   -4.1020   20.1040 C   0  0  0  0  0  0  0  0  0  0  0  0
    5.1510    0.9330   17.8300 C   0  0  0  0  0  0  0  0  0  0  0  0
    9.8730    3.4400   23.6720 C   0  0  0  0  0  0  0  0  0  0  0  0
    8.2820    4.9850   22.7790 C   0  0  0  0  0  0  0  0  0  0  0  0
    6.5470   -4.9630   26.2480 C   0  0  0  0  0  0  0  0  0  0  0  0
    8.5820   -4.6200   25.0240 C   0  0  0  0  0  0  0  0  0  0  0  0
    6.4380   -5.7460   22.0540 C   0  0  0  0  0  0  0  0  0  0  0  0
   10.3260    2.0450   24.0230 C   0  0  0  0  0  0  0  0  0  0  0  0
    5.1010   -4.9240   26.3250 N   0  0  0  0  0  0  0  0  0  0  0  0
    5.1260   -4.3800   19.7980 O   0  0  0  0  0  0  0  0  0  0  0  0
    7.1140   -3.2410   19.1740 C   0  0  0  0  0  0  0  0  0  0  0  0
   10.7750    4.6020   23.9690 C   0  0  0  0  0  0  0  0  0  0  0  0
    9.1190    6.2050   23.0450 C   0  0  0  0  0  0  0  0  0  0  0  0
    9.3070   -5.0470   26.1560 C   0  0  0  0  0  0  0  0  0  0  0  0
    7.2580   -5.3910   27.3860 C   0  0  0  0  0  0  0  0  0  0  0  0
    4.4800   -5.7540   25.6430 O   0  0  0  0  0  0  0  0  0  0  0  0
    4.5920   -3.9040   26.8100 O   0  0  0  0  0  0  0  0  0  0  0  0
   10.3550    6.0380   23.6390 C   0  0  0  0  0  0  0  0  0  0  0  0
    8.6480   -5.4330   27.3300 C   0  0  0  0  0  0  0  0  0  0  0  0
   11.1210    6.9520   23.9140 O   0  0  0  0  0  0  0  0  0  0  0  0
   11.8650    6.8070   25.1200 C   0  0  0  0  0  0  0  0  0  0  0  0
  1  2  1  0
  2  3  1  6
  1  4  1  0
  1  5  1  0
  2  6  1  0
  5  7  2  0
  5  8  1  0
  9  4  1  1
  3 10  1  0
  3 11  2  0
  6 12  2  0
  6 13  1  0
  7 14  1  0
  8 15  2  0
 14 15  1  0
  9 16  1  0
  9 17  1  0
 15 18  1  0
 13 19  2  0
 12 20  1  0
 10 21  1  0
 16 22  1  0
 17 23  1  0
 16 24  1  0
 18 25  1  0
 18 26  1  0
 18 27  1  0
 23 28  1  0
 19 29  1  0
 20 29  2  0
 21 30  2  0
 21 31  1  0
 22 32  2  0
 22 33  1  0
 23 34  1  0
 24 34  1  0
 30 35  1  0
 32 36  1  0
 28 37  2  0
 28 38  1  0
 30 39  1  0
 31 40  2  0
 33 41  2  0
 32 42  1  0
 36 43  2  0
 36 44  1  0
 39 45  2  0
 40 45  1  0
 41 46  1  0
 42 46  2  0
 45 47  1  0
 47 48  1  0
M  CHG  2  36   1  44  -1
M  END
