x0736-x0678
     RDKit          3D

 32 36  0  0  0  0  0  0  0  0999 V2000
    7.4040   -2.9940   18.9110 C   0  0  0  0  0  0  0  0  0  0  0  0
    6.3710   -3.3110   19.9740 C   0  0  0  0  0  0  0  0  0  0  0  0
    5.3770   -3.9800   19.6620 O   0  0  0  0  0  0  0  0  0  0  0  0
    6.5610   -2.9290   21.3000 N   0  0  0  0  0  0  0  0  0  0  0  0
    7.1800   -1.8230   21.7990 C   0  0  2  0  0  0  0  0  0  0  0  0
    6.4100   -3.9090   22.2180 C   0  0  0  0  0  0  0  0  0  0  0  0
    7.5250   -0.6880   20.9500 N   0  0  0  0  0  0  0  0  0  0  0  0
    8.3310   -2.0440   22.4890 C   0  0  1  0  0  0  0  0  0  0  0  0
    7.3480   -3.9220   23.2580 C   0  0  0  0  0  0  0  0  0  0  0  0
    8.5980    0.0510   21.6420 C   0  0  0  0  0  0  0  0  0  0  0  0
    9.0730   -0.6380   22.7750 C   0  0  2  0  0  0  0  0  0  0  0  0
    7.9520   -2.7590   23.6230 N   0  0  0  0  0  0  0  0  0  0  0  0
    6.7130   -0.0310   20.0040 C   0  0  0  0  0  0  0  0  0  0  0  0
    7.3020   -2.0710   24.7340 C   0  0  0  0  0  0  0  0  0  0  0  0
    9.0430    1.1660   21.2900 O   0  0  0  0  0  0  0  0  0  0  0  0
   10.6320   -0.4980   22.7370 C   0  0  0  0  0  0  0  0  0  0  0  0
    5.5400    0.6650   20.3120 C   0  0  0  0  0  0  0  0  0  0  0  0
    7.0450   -0.0280   18.6880 C   0  0  0  0  0  0  0  0  0  0  0  0
    6.0780   -2.1920   24.9190 O   0  0  0  0  0  0  0  0  0  0  0  0
    8.0650   -1.2720   25.6260 C   0  0  0  0  0  0  0  0  0  0  0  0
   11.2620   -1.6430   22.1890 C   0  0  0  0  0  0  0  0  0  0  0  0
   11.1100    0.0060   23.8590 C   0  0  0  0  0  0  0  0  0  0  0  0
    4.8130    1.3000   19.2940 C   0  0  0  0  0  0  0  0  0  0  0  0
    6.3060    0.6170   17.6550 N   0  0  0  0  0  0  0  0  0  0  0  0
    8.4870   -0.0440   25.1870 O   0  0  0  0  0  0  0  0  0  0  0  0
    8.4970   -1.4870   26.9310 C   0  0  0  0  0  0  0  0  0  0  0  0
   12.6620   -1.5780   22.1490 C   0  0  0  0  0  0  0  0  0  0  0  0
   12.4930    0.1300   23.9480 C   0  0  0  0  0  0  0  0  0  0  0  0
    5.2090    1.2530   18.0680 C   0  0  0  0  0  0  0  0  0  0  0  0
    9.1960   -0.3550   27.2420 C   0  0  0  0  0  0  0  0  0  0  0  0
    9.1780    0.4980   26.1770 C   0  0  0  0  0  0  0  0  0  0  0  0
   13.2450   -0.7670   23.1890 C   0  0  0  0  0  0  0  0  0  0  0  0
  1  2  1  0
  2  3  2  0
  2  4  1  0
  5  4  1  6
  4  6  1  0
  5  7  1  0
  5  8  1  0
  6  9  1  0
  7 10  1  0
  8 11  1  0
 10 11  1  0
  8 12  1  1
  9 12  1  0
  7 13  1  0
 12 14  1  0
 10 15  2  0
 11 16  1  6
 13 17  2  0
 13 18  1  0
 14 19  2  0
 14 20  1  0
 16 21  1  0
 16 22  1  0
 17 23  1  0
 18 24  2  0
 20 25  1  0
 20 26  2  0
 21 27  1  0
 22 28  1  0
 23 29  2  0
 24 29  1  0
 26 30  1  0
 25 31  1  0
 30 31  2  0
 27 32  1  0
 28 32  1  0
M  END
