x0731-x0354
     RDKit          3D

 39 42  0  0  0  0  0  0  0  0999 V2000
    0.3240   -1.2110   26.0580 C   0  0  0  0  0  0  0  0  0  0  0  0
    1.4420   -2.1890   25.9310 C   0  0  0  0  0  0  0  0  0  0  0  0
    2.6510   -1.9170   26.5320 C   0  0  0  0  0  0  0  0  0  0  0  0
    1.3130   -3.3940   25.2220 C   0  0  0  0  0  0  0  0  0  0  0  0
    2.2960   -4.3040   25.0950 C   0  0  0  0  0  0  0  0  0  0  0  0
    3.6910   -2.7790   26.4580 C   0  0  0  0  0  0  0  0  0  0  0  0
    3.5980   -3.9890   25.7650 C   0  0  0  0  0  0  0  0  0  0  0  0
    4.9970   -5.0690   25.7320 S   0  0  1  0  0  0  0  0  0  0  0  0
    6.0540   -4.2750   26.8290 N   0  0  0  0  0  0  0  0  0  0  0  0
    4.5030   -6.4170   25.9090 O   0  0  0  0  0  0  0  0  0  0  0  0
    5.6470   -4.9880   24.1170 N   0  0  0  0  0  0  0  0  0  0  0  0
    6.1390   -2.7980   27.0560 C   0  0  0  0  0  0  0  0  0  0  0  0
    6.8660   -4.2000   23.8520 C   0  0  0  0  0  0  0  0  0  0  0  0
    5.2960   -6.0180   23.2940 C   0  0  0  0  0  0  0  0  0  0  0  0
    6.2680   -1.8830   25.8240 C   0  0  0  0  0  0  0  0  0  0  0  0
    7.5180   -4.6380   22.6810 C   0  0  0  0  0  0  0  0  0  0  0  0
    6.0630   -6.2530   22.1600 C   0  0  0  0  0  0  0  0  0  0  0  0
    7.5430   -2.0480   25.1380 N   0  0  0  0  0  0  0  0  0  0  0  0
    6.8350   -5.2540   21.6830 N   0  0  0  0  0  0  0  0  0  0  0  0
    6.3710   -4.6490   20.5110 C   0  0  0  0  0  0  0  0  0  0  0  0
    8.7160   -1.1880   25.3830 C   0  0  0  0  0  0  0  0  0  0  0  0
    5.3300   -5.0440   20.0070 O   0  0  0  0  0  0  0  0  0  0  0  0
    7.1610   -3.5270   19.8190 C   0  0  0  0  0  0  0  0  0  0  0  0
    8.5230   -0.0660   26.4370 C   0  0  0  0  0  0  0  0  0  0  0  0
    9.9590   -1.2940   24.7790 N   0  0  0  0  0  0  0  0  0  0  0  0
    7.6470   -0.5170   27.4920 O   0  0  0  0  0  0  0  0  0  0  0  0
   10.4530   -2.5820   24.2440 C   0  0  0  0  0  0  0  0  0  0  0  0
   10.9370   -0.2350   24.8990 C   0  0  0  0  0  0  0  0  0  0  0  0
   11.4430   -2.3790   23.3000 C   0  0  0  0  0  0  0  0  0  0  0  0
   11.7160   -0.1240   23.8210 C   0  0  0  0  0  0  0  0  0  0  0  0
    7.0670    0.4050   28.3160 C   0  0  0  0  0  0  0  0  0  0  0  0
   12.3310   -1.4010   23.4490 N   0  0  0  0  0  0  0  0  0  0  0  0
    7.7110    1.6440   28.4530 C   0  0  0  0  0  0  0  0  0  0  0  0
    5.7980    0.2940   29.1320 C   0  0  0  0  0  0  0  0  0  0  0  0
   13.1420   -1.2430   22.2680 C   0  0  0  0  0  0  0  0  0  0  0  0
    7.2940    2.7670   29.2640 C   0  0  0  0  0  0  0  0  0  0  0  0
    5.4130    1.3390   29.8840 C   0  0  0  0  0  0  0  0  0  0  0  0
    6.1620    2.6370   29.9780 C   0  0  0  0  0  0  0  0  0  0  0  0
    5.6530    3.7510   30.8470 C   0  0  0  0  0  0  0  0  0  0  0  0
  1  2  1  0
  2  3  2  0
  2  4  1  0
  4  5  2  0
  3  6  1  0
  5  7  1  0
  6  7  2  0
  8  7  1  6
  8  9  2  0
  8 10  2  0
  8 11  1  0
  9 12  1  0
 11 13  1  0
 11 14  1  0
 12 15  1  0
 13 16  1  0
 14 17  1  0
 15 18  1  0
 16 19  1  0
 17 19  1  0
 19 20  1  0
 18 21  2  3
 20 22  2  0
 20 23  1  0
 21 24  1  0
 21 25  1  0
 24 26  1  0
 25 27  1  0
 25 28  1  0
 27 29  1  0
 28 30  1  0
 26 31  1  0
 29 32  1  0
 30 32  1  0
 31 33  2  0
 31 34  1  0
 32 35  1  0
 33 36  1  0
 34 37  2  0
 36 38  2  0
 37 38  1  0
 38 39  1  0
M  END
