x0731-x2705-x3117
     RDKit          3D

 51 55  0  0  0  0  0  0  0  0999 V2000
    7.2610   -1.1020   21.8110 N   0  0  0  0  0  0  0  0  0  0  0  0
    6.9090    0.2950   21.5640 C   0  0  1  0  0  0  0  0  0  0  0  0
    7.9990    1.3440   21.7890 C   0  0  0  0  0  0  0  0  0  0  0  0
    5.9410   -1.8630   21.7890 C   0  0  0  0  0  0  0  0  0  0  0  0
    8.4000   -1.2710   22.6550 C   0  0  0  0  0  0  0  0  0  0  0  0
    5.8610   -2.9400   22.5840 C   0  0  0  0  0  0  0  0  0  0  0  0
    6.2840    0.5580   20.2430 C   0  0  0  0  0  0  0  0  0  0  0  0
    8.3700   -1.3890   24.0190 N   0  0  0  0  0  0  0  0  0  0  0  0
    9.6620   -1.3050   22.1650 C   0  0  0  0  0  0  0  0  0  0  0  0
    7.6750    2.2150   22.7850 N   0  0  0  0  0  0  0  0  0  0  0  0
    9.0270    1.4410   21.1320 O   0  0  0  0  0  0  0  0  0  0  0  0
    5.1330    1.3220   20.2030 C   0  0  0  0  0  0  0  0  0  0  0  0
    6.8120    0.0870   19.0350 C   0  0  0  0  0  0  0  0  0  0  0  0
    9.6980   -1.4870   24.2840 N   0  0  0  0  0  0  0  0  0  0  0  0
   10.4930   -1.4400   23.2100 C   0  0  0  0  0  0  0  0  0  0  0  0
    6.1950   -4.3480   21.9670 C   0  0  0  0  0  0  0  0  0  0  0  0
   11.9340   -1.5320   23.3570 C   0  0  0  0  0  0  0  0  0  0  0  0
    6.1580   -4.1950   20.4250 C   0  0  0  0  0  0  0  0  0  0  0  0
    6.3090    0.3180   17.8120 N   0  0  0  0  0  0  0  0  0  0  0  0
    4.5100    1.6270   18.8970 C   0  0  0  0  0  0  0  0  0  0  0  0
    8.3410    3.4870   22.9740 C   0  0  0  0  0  0  0  0  0  0  0  0
    7.5080   -4.8730   22.4790 C   0  0  0  0  0  0  0  0  0  0  0  0
    5.1310   -5.4640   22.1990 C   0  0  0  0  0  0  0  0  0  0  0  0
   12.4840   -0.2400   24.0300 C   0  0  0  0  0  0  0  0  0  0  0  0
   12.1210   -2.7180   24.3040 C   0  0  0  0  0  0  0  0  0  0  0  0
   12.6790   -1.8840   21.9950 C   0  0  0  0  0  0  0  0  0  0  0  0
    5.2870   -4.8830   19.9300 O   0  0  0  0  0  0  0  0  0  0  0  0
    7.0370   -3.2890   19.5480 C   0  0  0  0  0  0  0  0  0  0  0  0
    5.1230    1.1220   17.7680 C   0  0  0  0  0  0  0  0  0  0  0  0
    9.6240    3.6280   23.5360 C   0  0  0  0  0  0  0  0  0  0  0  0
    7.6430    4.7570   22.5440 C   0  0  0  0  0  0  0  0  0  0  0  0
    7.3610   -4.9530   23.9890 C   0  0  0  0  0  0  0  0  0  0  0  0
    5.4750   -6.3570   23.3530 C   0  0  0  0  0  0  0  0  0  0  0  0
   10.2620    2.3110   23.9240 C   0  0  0  0  0  0  0  0  0  0  0  0
    6.2720    4.7900   21.9160 C   0  0  0  0  0  0  0  0  0  0  0  0
   13.4520   -2.7010   25.0640 C   0  0  0  0  0  0  0  0  0  0  0  0
   10.3140    4.8930   23.7360 C   0  0  0  0  0  0  0  0  0  0  0  0
    8.3250    5.8810   22.7510 C   0  0  0  0  0  0  0  0  0  0  0  0
    5.9700   -5.3620   24.3110 N   0  0  0  0  0  0  0  0  0  0  0  0
    9.3300    1.4680   24.8150 C   0  0  0  0  0  0  0  0  0  0  0  0
    5.2510   -5.3290   25.8700 S   0  0  0  0  0  0  0  0  0  0  0  0
    9.6830    6.0230   23.3520 C   0  0  0  0  0  0  0  0  0  0  0  0
    6.1730   -4.8870   26.8790 O   0  0  0  0  0  0  0  0  0  0  0  0
    4.5830   -6.5990   26.0310 O   0  0  0  0  0  0  0  0  0  0  0  0
    4.0000   -4.0710   25.9060 C   0  0  0  0  0  0  0  0  0  0  0  0
    2.7870   -4.3340   25.3590 C   0  0  0  0  0  0  0  0  0  0  0  0
    4.2970   -2.8580   26.5090 C   0  0  0  0  0  0  0  0  0  0  0  0
    1.8760   -3.3270   25.4600 C   0  0  0  0  0  0  0  0  0  0  0  0
    3.3850   -1.8880   26.5910 C   0  0  0  0  0  0  0  0  0  0  0  0
    2.1200   -2.1330   26.0530 C   0  0  0  0  0  0  0  0  0  0  0  0
    1.0710   -1.0730   26.1580 C   0  0  0  0  0  0  0  0  0  0  0  0
  1  2  1  0
  2  3  1  6
  1  4  1  0
  1  5  1  0
  4  6  1  0
  2  7  1  0
  5  8  2  0
  5  9  1  0
  3 10  1  0
  3 11  2  0
  7 12  2  0
  7 13  1  0
  8 14  1  0
  9 15  2  0
 14 15  1  0
  6 16  1  0
 15 17  1  0
 16 18  1  0
 13 19  2  0
 12 20  1  0
 10 21  1  0
 16 22  1  0
 16 23  1  0
 17 24  1  0
 17 25  1  0
 17 26  1  0
 18 27  2  0
 18 28  1  0
 19 29  1  0
 20 29  2  0
 21 30  2  0
 21 31  1  0
 22 32  1  0
 23 33  1  0
 30 34  1  0
 31 35  1  0
 25 36  1  0
 30 37  1  0
 31 38  2  0
 32 39  1  0
 33 39  1  0
 34 40  1  0
 39 41  1  0
 37 42  2  0
 38 42  1  0
 41 43  2  0
 41 44  2  0
 41 45  1  0
 45 46  2  0
 45 47  1  0
 46 48  1  0
 47 49  2  0
 48 50  2  0
 49 50  1  0
 50 51  1  0
M  END
