x0731-x3303
     RDKit          3D

 45 50  0  0  0  0  0  0  0  0999 V2000
    0.7970   -1.0030   26.0690 C   0  0  0  0  0  0  0  0  0  0  0  0
    1.9600   -1.9910   26.0670 C   0  0  0  0  0  0  0  0  0  0  0  0
    3.2300   -1.7140   26.5770 C   0  0  0  0  0  0  0  0  0  0  0  0
    1.6520   -3.3650   25.4440 C   0  0  0  0  0  0  0  0  0  0  0  0
    2.7290   -4.4460   25.3780 C   0  0  0  0  0  0  0  0  0  0  0  0
    4.3460   -2.7610   26.5380 C   0  0  0  0  0  0  0  0  0  0  0  0
    4.1320   -4.1620   25.9400 C   0  0  0  0  0  0  0  0  0  0  0  0
    5.4500   -5.3460   25.9250 S   0  0  0  0  0  0  0  0  0  0  0  0
    6.5230   -4.8050   26.7290 O   0  0  0  0  0  0  0  0  0  0  0  0
    4.8520   -6.6340   26.2170 O   0  0  0  0  0  0  0  0  0  0  0  0
    5.9110   -5.3920   24.3160 N   0  0  0  0  0  0  0  0  0  0  0  0
    7.2760   -5.0010   23.9390 C   0  0  0  0  0  0  0  0  0  0  0  0
    5.4040   -6.4260   23.4320 C   0  0  0  0  0  0  0  0  0  0  0  0
    7.3620   -4.9460   22.5430 C   0  0  0  0  0  0  0  0  0  0  0  0
    5.1170   -5.6310   22.2020 C   0  0  0  0  0  0  0  0  0  0  0  0
    6.1270   -4.6990   21.9820 C   0  0  0  0  0  0  0  0  0  0  0  0
    6.0400   -4.5610   20.4520 C   0  0  0  0  0  0  0  0  0  0  0  0
    5.5950   -3.3390   22.5500 C   0  0  0  0  0  0  0  0  0  0  0  0
    5.3010   -5.3630   19.9350 O   0  0  0  0  0  0  0  0  0  0  0  0
    6.7630   -3.4830   19.6060 C   0  0  0  0  0  0  0  0  0  0  0  0
    5.2450   -2.3910   21.5830 N   0  0  0  0  0  0  0  0  0  0  0  0
    6.1500   -1.2940   21.1990 C   0  0  0  0  0  0  0  0  0  0  0  0
    7.4910   -1.1630   21.7660 N   0  0  0  0  0  0  0  0  0  0  0  0
    5.7460   -0.2330   20.2240 C   0  0  0  0  0  0  0  0  0  0  0  0
    8.2520    0.0800   21.7300 C   0  0  0  0  0  0  0  0  0  0  0  0
    8.2180   -2.2080   22.1080 C   0  0  0  0  0  0  0  0  0  0  0  0
    4.7260    0.8170   20.6160 C   0  0  0  0  0  0  0  0  0  0  0  0
    6.3270   -0.1490   18.8420 C   0  0  0  0  0  0  0  0  0  0  0  0
    9.5540   -0.2250   22.1130 C   0  0  0  0  0  0  0  0  0  0  0  0
    8.6200   -1.9890   23.4140 C   0  0  0  0  0  0  0  0  0  0  0  0
    4.3950    1.7810   19.6550 C   0  0  0  0  0  0  0  0  0  0  0  0
    5.8140    0.9500   18.0740 C   0  0  0  0  0  0  0  0  0  0  0  0
    4.1390    0.8280   21.8960 C   0  0  0  0  0  0  0  0  0  0  0  0
    6.2360    1.1740   16.8470 O   0  0  0  0  0  0  0  0  0  0  0  0
    9.5930   -1.0610   23.3520 N   0  0  0  0  0  0  0  0  0  0  0  0
    4.9170    1.8460   18.4400 N   0  0  0  0  0  0  0  0  0  0  0  0
    3.2340    1.7730   22.2050 C   0  0  0  0  0  0  0  0  0  0  0  0
    3.4630    2.7500   19.9680 C   0  0  0  0  0  0  0  0  0  0  0  0
   10.9290   -1.5470   23.6520 C   0  0  0  0  0  0  0  0  0  0  0  0
    2.8240    2.7620   21.3360 C   0  0  0  0  0  0  0  0  0  0  0  0
   11.9400   -1.1820   22.7750 C   0  0  0  0  0  0  0  0  0  0  0  0
   11.1400   -2.3270   24.7440 C   0  0  0  0  0  0  0  0  0  0  0  0
   13.3010   -1.6430   23.0030 C   0  0  0  0  0  0  0  0  0  0  0  0
   12.3650   -2.8040   25.0430 C   0  0  0  0  0  0  0  0  0  0  0  0
   13.5530   -2.4980   24.1900 C   0  0  0  0  0  0  0  0  0  0  0  0
  1  2  1  0
  2  3  2  0
  2  4  1  0
  4  5  2  0
  3  6  1  0
  5  7  1  0
  6  7  2  0
  8  7  1  0
  8  9  2  0
  8 10  2  0
  8 11  1  0
 11 12  1  0
 11 13  1  0
 12 14  1  0
 13 15  1  0
 14 16  1  0
 15 16  1  0
 16 17  1  0
 16 18  1  0
 17 19  2  0
 17 20  1  0
 18 21  1  0
 21 22  2  3
 22 23  1  0
 22 24  1  0
 23 25  1  0
 23 26  1  0
 24 27  1  0
 24 28  2  0
 25 29  1  0
 26 30  1  0
 27 31  2  0
 28 32  1  0
 27 33  1  0
 32 34  1  0
 29 35  1  0
 30 35  1  0
 31 36  1  0
 32 36  2  0
 33 37  2  0
 31 38  1  0
 35 39  1  0
 37 40  1  0
 38 40  2  0
 39 41  2  0
 39 42  1  0
 41 43  1  0
 42 44  2  0
 43 45  2  0
 44 45  1  0
M  END
