x0736-x3124
     RDKit          3D

 36 39  0  0  0  0  0  0  0  0999 V2000
    7.7140    1.6830   23.0050 N   0  0  0  0  0  0  0  0  0  0  0  0
    7.9500    0.9810   21.8470 C   0  0  0  0  0  0  0  0  0  0  0  0
    8.8200    1.2880   21.0360 O   0  0  0  0  0  0  0  0  0  0  0  0
    8.0110    3.1160   23.0240 C   0  0  0  0  0  0  0  0  0  0  0  0
    6.9570   -0.2100   21.6380 C   0  0  1  0  0  0  0  0  0  0  0  0
    6.2220    0.3010   20.3810 C   0  0  0  0  0  0  0  0  0  0  0  0
    7.6250   -1.6950   21.5870 C   0  0  1  0  0  0  0  0  0  0  0  0
    4.9960    0.9730   20.4450 C   0  0  0  0  0  0  0  0  0  0  0  0
    6.8330    0.0830   19.1540 C   0  0  0  0  0  0  0  0  0  0  0  0
    8.6060   -2.1980   22.5040 C   0  0  1  0  0  0  0  0  0  0  0  0
    6.5960   -2.7870   21.2400 N   0  0  0  0  0  0  0  0  0  0  0  0
    6.4000   -3.3520   19.9640 C   0  0  0  0  0  0  0  0  0  0  0  0
    6.3450    0.4880   17.8770 N   0  0  0  0  0  0  0  0  0  0  0  0
    4.4150    1.4380   19.1160 C   0  0  0  0  0  0  0  0  0  0  0  0
    9.7110   -2.4070   21.7090 C   0  0  0  0  0  0  0  0  0  0  0  0
    8.9550   -1.6360   23.6940 C   0  0  2  0  0  0  0  0  0  0  0  0
    8.3250   -3.6180   22.9660 N   0  0  0  0  0  0  0  0  0  0  0  0
    5.9950   -3.4650   22.3990 C   0  0  0  0  0  0  0  0  0  0  0  0
    7.3590   -3.0480   18.8120 C   0  0  0  0  0  0  0  0  0  0  0  0
    5.4580   -4.1340   19.7470 O   0  0  0  0  0  0  0  0  0  0  0  0
    7.8160   -1.3670   24.6680 C   0  0  0  0  0  0  0  0  0  0  0  0
    5.1850    1.1390   17.8990 C   0  0  0  0  0  0  0  0  0  0  0  0
   11.0380   -1.8350   21.9430 C   0  0  0  0  0  0  0  0  0  0  0  0
    9.9710   -0.6880   23.6800 C   0  0  0  0  0  0  0  0  0  0  0  0
    6.9460   -4.0990   23.1590 C   0  0  0  0  0  0  0  0  0  0  0  0
    6.6850   -1.8740   24.5320 O   0  0  0  0  0  0  0  0  0  0  0  0
   11.1050   -1.0460   23.0690 C   0  0  1  0  0  0  0  0  0  0  0  0
    8.1330   -0.5290   25.7720 C   0  0  0  0  0  0  0  0  0  0  0  0
   12.2630   -1.5850   23.9830 C   0  0  0  0  0  0  0  0  0  0  0  0
    7.2460    0.3300   26.3670 O   0  0  0  0  0  0  0  0  0  0  0  0
    9.2890   -0.3790   26.4540 C   0  0  0  0  0  0  0  0  0  0  0  0
   12.6280   -0.6460   24.9320 C   0  0  0  0  0  0  0  0  0  0  0  0
   13.4620   -2.0080   23.1570 C   0  0  0  0  0  0  0  0  0  0  0  0
   11.8810   -2.8270   24.7370 C   0  0  0  0  0  0  0  0  0  0  0  0
    9.2060    0.4940   27.4590 C   0  0  0  0  0  0  0  0  0  0  0  0
    7.9140    0.9520   27.3990 C   0  0  0  0  0  0  0  0  0  0  0  0
  1  2  1  0
  2  3  2  0
  1  4  1  0
  5  2  1  6
  5  6  1  0
  5  7  1  0
  6  8  2  0
  6  9  1  0
  7 10  1  0
  7 11  1  1
 11 12  1  0
  9 13  2  0
  8 14  1  0
 10 15  1  6
 10 16  1  0
 10 17  1  0
 11 18  1  0
 12 19  1  0
 12 20  2  0
 16 21  1  6
 13 22  1  0
 14 22  2  0
 15 23  2  0
 16 24  1  0
 17 25  1  0
 18 25  1  0
 21 26  2  0
 23 27  1  0
 24 27  1  0
 21 28  1  0
 27 29  1  1
 28 30  1  0
 28 31  2  0
 29 32  1  0
 29 33  1  0
 29 34  1  0
 31 35  1  0
 30 36  1  0
 35 36  2  0
M  END
