x0734-x3124
     RDKit          3D

 40 43  0  0  0  0  0  0  0  0999 V2000
    7.1660   -1.6730   22.2720 N   0  0  0  0  0  0  0  0  0  0  0  0
    6.6990   -0.2340   21.9300 C   0  0  1  0  0  0  0  0  0  0  0  0
    7.8760    0.7770   22.1680 C   0  0  0  0  0  0  0  0  0  0  0  0
    8.4220   -1.7660   22.7590 C   0  0  0  0  0  0  0  0  0  0  0  0
    6.3810   -2.6950   23.0920 C   0  0  2  0  0  0  0  0  0  0  0  0
    6.1640    0.1530   20.5390 C   0  0  0  0  0  0  0  0  0  0  0  0
    9.4630   -1.9100   21.8470 C   0  0  0  0  0  0  0  0  0  0  0  0
    8.6690   -1.7270   24.0760 C   0  0  0  0  0  0  0  0  0  0  0  0
    7.0590   -3.9830   23.6520 N   0  0  0  0  0  0  0  0  0  0  0  0
    5.4620   -3.1850   22.2260 C   0  0  0  0  0  0  0  0  0  0  0  0
    7.6660    1.6970   23.1750 N   0  0  0  0  0  0  0  0  0  0  0  0
    8.9100    0.8090   21.5010 O   0  0  0  0  0  0  0  0  0  0  0  0
    4.8190    0.8870   20.4730 C   0  0  0  0  0  0  0  0  0  0  0  0
    6.9030   -0.1140   19.1920 C   0  0  0  0  0  0  0  0  0  0  0  0
   10.9340   -2.0430   22.2030 C   0  0  0  0  0  0  0  0  0  0  0  0
   10.0530   -1.8440   24.6100 C   0  0  0  0  0  0  0  0  0  0  0  0
    7.3500   -4.3650   25.0640 C   0  0  0  0  0  0  0  0  0  0  0  0
    6.1840   -3.9680   21.2100 N   0  0  0  0  0  0  0  0  0  0  0  0
    6.5960   -5.2630   23.0820 C   0  0  0  0  0  0  0  0  0  0  0  0
    8.0100    3.1190   23.0370 C   0  0  0  0  0  0  0  0  0  0  0  0
    5.9470   -3.7450   19.8860 C   0  0  0  0  0  0  0  0  0  0  0  0
    6.3850    0.2890   18.0130 N   0  0  0  0  0  0  0  0  0  0  0  0
    4.3170    1.3010   19.1140 C   0  0  0  0  0  0  0  0  0  0  0  0
   11.2220   -2.0100   23.6590 C   0  0  0  0  0  0  0  0  0  0  0  0
    6.5790   -4.6930   26.1670 C   0  0  0  0  0  0  0  0  0  0  0  0
    8.7280   -4.3610   25.0790 C   0  0  0  0  0  0  0  0  0  0  0  0
    6.4600   -5.3080   21.7030 C   0  0  0  0  0  0  0  0  0  0  0  0
   12.6230   -2.1390   24.0850 C   0  0  0  0  0  0  0  0  0  0  0  0
    5.1070   -4.6940   26.1250 N   0  0  0  0  0  0  0  0  0  0  0  0
    4.8740   -4.0560   19.4530 O   0  0  0  0  0  0  0  0  0  0  0  0
    7.0110   -3.1020   19.0120 C   0  0  0  0  0  0  0  0  0  0  0  0
    5.2090    0.9420   17.9330 C   0  0  0  0  0  0  0  0  0  0  0  0
    9.5250   -4.7300   26.3310 C   0  0  0  0  0  0  0  0  0  0  0  0
    7.2270   -5.0780   27.4790 C   0  0  0  0  0  0  0  0  0  0  0  0
   12.9730   -1.2070   25.0530 C   0  0  0  0  0  0  0  0  0  0  0  0
   13.5960   -2.3580   22.9750 C   0  0  0  0  0  0  0  0  0  0  0  0
   13.0760   -2.8510   25.4320 C   0  0  0  0  0  0  0  0  0  0  0  0
    4.5560   -5.6390   25.5430 O   0  0  0  0  0  0  0  0  0  0  0  0
    4.5140   -3.8050   26.7550 O   0  0  0  0  0  0  0  0  0  0  0  0
    8.6400   -5.1050   27.5830 C   0  0  0  0  0  0  0  0  0  0  0  0
  1  2  1  0
  2  3  1  6
  1  4  1  0
  5  1  1  6
  2  6  1  0
  4  7  2  0
  4  8  1  0
  5  9  1  0
  5 10  1  0
  3 11  1  0
  3 12  2  0
  6 13  2  0
  6 14  1  0
  7 15  1  0
  8 16  2  0
  9 17  1  0
 10 18  1  0
  9 19  1  0
 11 20  1  0
 18 21  1  0
 14 22  2  0
 13 23  1  0
 15 24  2  0
 16 24  1  0
 17 25  2  0
 17 26  1  0
 18 27  1  0
 19 27  1  0
 24 28  1  0
 25 29  1  0
 21 30  2  0
 21 31  1  0
 22 32  1  0
 23 32  2  0
 26 33  2  0
 25 34  1  0
 28 35  1  0
 28 36  1  0
 28 37  1  0
 29 38  2  0
 29 39  1  0
 33 40  1  0
 34 40  2  0
M  CHG  2  29   1  39  -1
M  END
