x0731-x2694-x0978
     RDKit          3D

 59 63  0  0  0  0  0  0  0  0999 V2000
    7.2620   -1.1010   22.0010 N   0  0  0  0  0  0  0  0  0  0  0  0
    6.9100    0.3590   21.7700 C   0  0  1  0  0  0  0  0  0  0  0  0
    8.0010    1.4020   21.8930 C   0  0  0  0  0  0  0  0  0  0  0  0
    6.1830   -1.8030   22.6190 C   0  0  0  0  0  0  0  0  0  0  0  0
    8.4990   -1.2450   22.7010 C   0  0  0  0  0  0  0  0  0  0  0  0
    5.3950   -2.9290   21.8910 C   0  0  0  0  0  0  0  0  0  0  0  0
    6.3370    0.6040   20.3870 C   0  0  0  0  0  0  0  0  0  0  0  0
    8.6060   -1.4550   24.0290 N   0  0  0  0  0  0  0  0  0  0  0  0
    9.8460   -1.1830   22.0500 C   0  0  0  0  0  0  0  0  0  0  0  0
    7.8610    2.3330   22.7950 N   0  0  0  0  0  0  0  0  0  0  0  0
    8.9660    1.3980   21.1360 O   0  0  0  0  0  0  0  0  0  0  0  0
    5.1060    1.5380   20.2500 C   0  0  0  0  0  0  0  0  0  0  0  0
    6.9170   -0.0050   19.1270 C   0  0  0  0  0  0  0  0  0  0  0  0
    9.9930   -1.5370   24.3260 O   0  0  0  0  0  0  0  0  0  0  0  0
   10.7770   -1.3810   23.2020 C   0  0  0  0  0  0  0  0  0  0  0  0
    5.9780   -4.4000   21.8440 C   0  0  1  0  0  0  0  0  0  0  0  0
   12.2680   -1.3990   23.2060 C   0  0  0  0  0  0  0  0  0  0  0  0
    6.2410   -4.5170   20.3720 C   0  0  0  0  0  0  0  0  0  0  0  0
    6.3950    0.2590   17.9090 N   0  0  0  0  0  0  0  0  0  0  0  0
    4.6590    1.7320   18.9540 C   0  0  0  0  0  0  0  0  0  0  0  0
    8.6280    3.4850   23.0410 C   0  0  0  0  0  0  0  0  0  0  0  0
    7.1330   -4.5800   22.5550 C   0  0  0  0  0  0  0  0  0  0  0  0
    5.0740   -5.6110   22.1270 C   0  0  0  0  0  0  0  0  0  0  0  0
   13.0430   -0.1240   23.3890 C   0  0  0  0  0  0  0  0  0  0  0  0
   12.7750   -2.0210   21.8860 C   0  0  0  0  0  0  0  0  0  0  0  0
   12.7260   -2.3250   24.3560 C   0  0  0  0  0  0  0  0  0  0  0  0
    5.8090   -5.5480   19.9260 O   0  0  0  0  0  0  0  0  0  0  0  0
    6.9200   -3.4570   19.5250 C   0  0  0  0  0  0  0  0  0  0  0  0
    5.2250    1.1640   17.8260 C   0  0  0  0  0  0  0  0  0  0  0  0
    9.8690    3.3540   23.6210 C   0  0  0  0  0  0  0  0  0  0  0  0
    8.2030    4.7570   22.7320 C   0  0  0  0  0  0  0  0  0  0  0  0
    6.9230   -4.7280   23.9190 C   0  0  0  0  0  0  0  0  0  0  0  0
    4.9430   -6.1250   23.5030 C   0  0  2  0  0  0  0  0  0  0  0  0
   10.3900    1.9890   23.9830 C   0  0  0  0  0  0  0  0  0  0  0  0
    3.3820   -6.5190   23.5850 C   0  0  2  0  0  0  0  0  0  0  0  0
   10.7060    4.4760   23.9040 C   0  0  0  0  0  0  0  0  0  0  0  0
    8.9560    5.8820   22.9860 C   0  0  0  0  0  0  0  0  0  0  0  0
    5.4730   -5.0950   24.2970 C   0  0  2  0  0  0  0  0  0  0  0  0
    2.4000   -5.4660   23.1920 N   0  0  0  0  0  0  0  0  0  0  0  0
    3.1300   -7.5010   24.6980 C   0  0  1  0  0  0  0  0  0  0  0  0
    4.7030   -3.9380   23.9080 O   0  0  0  0  0  0  0  0  0  0  0  0
    5.2140   -5.2910   26.0750 S   0  0  0  0  0  0  0  0  0  0  0  0
   10.2130    5.7540   23.5770 C   0  0  0  0  0  0  0  0  0  0  0  0
   11.0310    6.8330   23.8740 O   0  0  0  0  0  0  0  0  0  0  0  0
    1.9820   -8.3350   24.3750 C   0  0  0  0  0  0  0  0  0  0  0  0
    4.0950   -8.0770   25.1140 O   0  0  0  0  0  0  0  0  0  0  0  0
    1.1650   -6.1330   22.6900 C   0  0  0  0  0  0  0  0  0  0  0  0
    6.3060   -4.7500   26.8300 O   0  0  0  0  0  0  0  0  0  0  0  0
    4.6190   -6.5610   26.3730 O   0  0  0  0  0  0  0  0  0  0  0  0
    3.9620   -4.0510   26.1200 C   0  0  0  0  0  0  0  0  0  0  0  0
   11.8510    6.6670   25.0330 C   0  0  0  0  0  0  0  0  0  0  0  0
    1.0010   -7.3680   21.9500 O   0  0  0  0  0  0  0  0  0  0  0  0
   -0.1720   -5.3930   22.9800 C   0  0  0  0  0  0  0  0  0  0  0  0
    2.5150   -4.2690   25.7010 C   0  0  0  0  0  0  0  0  0  0  0  0
    4.2290   -2.5950   26.5810 C   0  0  0  0  0  0  0  0  0  0  0  0
    1.5960   -3.1910   25.7680 C   0  0  0  0  0  0  0  0  0  0  0  0
    3.1540   -1.5260   26.6090 C   0  0  0  0  0  0  0  0  0  0  0  0
    1.8670   -1.8800   26.1970 C   0  0  0  0  0  0  0  0  0  0  0  0
    0.7910   -0.8460   26.2260 C   0  0  0  0  0  0  0  0  0  0  0  0
  1  2  1  0
  2  3  1  6
  1  4  1  0
  1  5  1  0
  4  6  1  0
  2  7  1  0
  5  8  2  0
  5  9  1  0
  3 10  1  0
  3 11  2  0
  7 12  2  0
  7 13  1  0
  8 14  1  0
  9 15  2  0
 14 15  1  0
 16  6  1  6
 15 17  1  0
 16 18  1  0
 13 19  2  0
 12 20  1  0
 10 21  1  0
 16 22  1  0
 16 23  1  0
 17 24  1  0
 17 25  1  0
 17 26  1  0
 18 27  2  0
 18 28  1  0
 19 29  1  0
 20 29  2  0
 21 30  2  0
 21 31  1  0
 22 32  1  0
 33 23  1  6
 30 34  1  0
 33 35  1  0
 30 36  1  0
 31 37  2  0
 32 38  1  0
 33 38  1  0
 35 39  1  1
 35 40  1  0
 38 41  1  6
 38 42  1  0
 36 43  2  0
 37 43  1  0
 43 44  1  0
 40 45  1  6
 40 46  1  0
 39 47  1  0
 42 48  2  0
 42 49  2  0
 42 50  1  0
 44 51  1  0
 47 52  2  0
 47 53  1  0
 50 54  2  0
 50 55  1  0
 54 56  1  0
 55 57  2  0
 56 58  2  0
 57 58  1  0
 58 59  1  0
M  END
