x0731-x3115
     RDKit          3D

 45 48  0  0  0  0  0  0  0  0999 V2000
    7.0890   -1.3700   22.1010 N   0  0  0  0  0  0  0  0  0  0  0  0
    6.6820    0.0410   21.7860 C   0  0  1  0  0  0  0  0  0  0  0  0
    7.8140    1.1090   21.9910 C   0  0  0  0  0  0  0  0  0  0  0  0
    6.1930   -2.3850   22.6800 C   0  0  0  0  0  0  0  0  0  0  0  0
    8.3750   -1.5140   22.5560 C   0  0  0  0  0  0  0  0  0  0  0  0
    6.1820    0.3050   20.3830 C   0  0  0  0  0  0  0  0  0  0  0  0
    9.4070   -1.6670   21.6990 C   0  0  0  0  0  0  0  0  0  0  0  0
    8.7210   -1.5140   23.9970 C   0  0  0  0  0  0  0  0  0  0  0  0
    6.9480   -3.7720   22.7620 C   0  0  2  0  0  0  0  0  0  0  0  0
    7.7990    1.7490   23.2150 N   0  0  0  0  0  0  0  0  0  0  0  0
    8.6400    1.3960   21.1110 O   0  0  0  0  0  0  0  0  0  0  0  0
    5.0220    1.0810   20.2450 C   0  0  0  0  0  0  0  0  0  0  0  0
    6.8370   -0.1650   19.2410 C   0  0  0  0  0  0  0  0  0  0  0  0
   10.7650   -1.8200   22.0490 C   0  0  0  0  0  0  0  0  0  0  0  0
   10.1470   -1.6690   24.3670 C   0  0  0  0  0  0  0  0  0  0  0  0
    6.5740   -4.7580   21.7260 N   0  0  0  0  0  0  0  0  0  0  0  0
    6.9480   -4.3170   23.9920 C   0  0  0  0  0  0  0  0  0  0  0  0
    8.6240    2.9420   23.4850 C   0  0  0  0  0  0  0  0  0  0  0  0
    6.1660   -4.5150   20.4340 C   0  0  0  0  0  0  0  0  0  0  0  0
    6.2710    0.1980   17.9300 N   0  0  0  0  0  0  0  0  0  0  0  0
    4.5140    1.4020   19.0060 C   0  0  0  0  0  0  0  0  0  0  0  0
   11.1240   -1.8170   23.3950 C   0  0  0  0  0  0  0  0  0  0  0  0
    5.7310   -5.1560   24.2370 N   0  0  0  0  0  0  0  0  0  0  0  0
    6.2490   -6.1250   22.1910 C   0  0  0  0  0  0  0  0  0  0  0  0
    8.1260    4.1450   22.6650 C   0  0  0  0  0  0  0  0  0  0  0  0
   12.5880   -1.9540   23.8010 C   0  0  0  0  0  0  0  0  0  0  0  0
    5.2500   -5.1660   19.9850 O   0  0  0  0  0  0  0  0  0  0  0  0
    6.8930   -3.4810   19.5970 C   0  0  0  0  0  0  0  0  0  0  0  0
    5.1390   -5.3320   25.8010 S   0  0  0  0  0  0  0  0  0  0  0  0
    5.1660    0.9480   17.8950 C   0  0  0  0  0  0  0  0  0  0  0  0
    5.3620   -6.1470   23.1830 C   0  0  0  0  0  0  0  0  0  0  0  0
    8.5750    5.2480   22.9910 O   0  0  0  0  0  0  0  0  0  0  0  0
   13.3660   -2.5250   22.6280 C   0  0  0  0  0  0  0  0  0  0  0  0
   12.8150   -2.8310   25.0120 C   0  0  0  0  0  0  0  0  0  0  0  0
   13.0410   -0.5280   24.1630 C   0  0  0  0  0  0  0  0  0  0  0  0
    6.1210   -4.9570   26.7790 O   0  0  0  0  0  0  0  0  0  0  0  0
    4.4730   -6.6110   25.8910 O   0  0  0  0  0  0  0  0  0  0  0  0
    3.9080   -4.0700   25.8750 C   0  0  0  0  0  0  0  0  0  0  0  0
    8.1300    6.2980   22.1320 C   0  0  0  0  0  0  0  0  0  0  0  0
    2.6640   -4.2280   25.3890 C   0  0  0  0  0  0  0  0  0  0  0  0
    4.1500   -2.8680   26.4350 C   0  0  0  0  0  0  0  0  0  0  0  0
    1.5920   -3.1790   25.4530 C   0  0  0  0  0  0  0  0  0  0  0  0
    3.2560   -1.8710   26.5350 C   0  0  0  0  0  0  0  0  0  0  0  0
    1.9570   -2.0250   26.0450 C   0  0  0  0  0  0  0  0  0  0  0  0
    0.9790   -0.9030   26.1880 C   0  0  0  0  0  0  0  0  0  0  0  0
  1  2  1  0
  2  3  1  6
  1  4  1  0
  1  5  1  0
  2  6  1  0
  5  7  2  0
  5  8  1  0
  9  4  1  1
  3 10  1  0
  3 11  2  0
  6 12  2  0
  6 13  1  0
  7 14  1  0
  8 15  2  0
  9 16  1  0
  9 17  1  0
 10 18  1  0
 16 19  1  0
 13 20  2  0
 12 21  1  0
 14 22  2  0
 15 22  1  0
 17 23  1  0
 16 24  1  0
 18 25  1  0
 22 26  1  0
 19 27  2  0
 19 28  1  0
 23 29  1  0
 20 30  1  0
 21 30  2  0
 23 31  1  0
 24 31  1  0
 25 32  1  0
 26 33  1  0
 26 34  1  0
 26 35  1  0
 29 36  2  0
 29 37  2  0
 29 38  1  0
 32 39  1  0
 38 40  2  0
 38 41  1  0
 40 42  1  0
 41 43  2  0
 42 44  2  0
 43 44  1  0
 44 45  1  0
M  END
