x0736-x2646
     RDKit          3D

 34 38  0  0  0  0  0  0  0  0999 V2000
    7.1900   -2.9840   18.9720 C   0  0  0  0  0  0  0  0  0  0  0  0
    6.1450   -3.3900   20.0220 C   0  0  0  0  0  0  0  0  0  0  0  0
    5.2350   -4.1420   19.6940 O   0  0  0  0  0  0  0  0  0  0  0  0
    6.1840   -2.9900   21.3540 N   0  0  0  0  0  0  0  0  0  0  0  0
    6.7970   -1.7570   21.8400 C   0  0  2  0  0  0  0  0  0  0  0  0
    5.9960   -3.9670   22.4460 C   0  0  0  0  0  0  0  0  0  0  0  0
    7.0590   -0.5980   20.9620 N   0  0  0  0  0  0  0  0  0  0  0  0
    8.0230   -2.2070   22.3420 C   0  0  1  0  0  0  0  0  0  0  0  0
    7.1180   -3.9690   23.3120 C   0  0  0  0  0  0  0  0  0  0  0  0
    8.0810    0.1000   21.5340 C   0  0  0  0  0  0  0  0  0  0  0  0
    8.9060   -0.9700   22.1000 C   0  0  1  0  0  0  0  0  0  0  0  0
    7.7930   -2.8080   23.5340 N   0  0  0  0  0  0  0  0  0  0  0  0
    6.2840    0.0740   20.0090 C   0  0  0  0  0  0  0  0  0  0  0  0
    7.2170   -2.1510   24.7060 C   0  0  0  0  0  0  0  0  0  0  0  0
    8.3460    1.3030   21.5760 O   0  0  0  0  0  0  0  0  0  0  0  0
    6.8090    0.1140   18.7460 C   0  0  0  0  0  0  0  0  0  0  0  0
    5.0050    0.7450   20.2600 C   0  0  0  0  0  0  0  0  0  0  0  0
   10.2500   -0.6580   22.6040 C   0  0  0  0  0  0  0  0  0  0  0  0
    6.0090   -2.3030   24.9600 O   0  0  0  0  0  0  0  0  0  0  0  0
    4.2600    0.8280   21.5560 C   0  0  0  0  0  0  0  0  0  0  0  0
    8.0420   -1.3520   25.5470 C   0  0  0  0  0  0  0  0  0  0  0  0
    6.3180    0.7010   17.6650 N   0  0  0  0  0  0  0  0  0  0  0  0
    4.4860    1.3680   19.1110 C   0  0  0  0  0  0  0  0  0  0  0  0
   10.6590    0.2830   23.5280 C   0  0  0  0  0  0  0  0  0  0  0  0
   11.1460   -1.4040   22.0100 C   0  0  0  0  0  0  0  0  0  0  0  0
    8.5180   -0.1640   25.0260 O   0  0  0  0  0  0  0  0  0  0  0  0
    8.5260   -1.4510   26.8470 C   0  0  0  0  0  0  0  0  0  0  0  0
    5.1570    1.3240   17.8780 C   0  0  0  0  0  0  0  0  0  0  0  0
   12.0370    0.3500   23.7380 C   0  0  0  0  0  0  0  0  0  0  0  0
   12.4440   -1.4080   22.1390 C   0  0  0  0  0  0  0  0  0  0  0  0
   13.3050   -2.4830   21.2120 Cl  0  0  0  0  0  0  0  0  0  0  0  0
    9.2800   -0.3640   27.1210 C   0  0  0  0  0  0  0  0  0  0  0  0
    9.2680    0.4170   25.9980 C   0  0  0  0  0  0  0  0  0  0  0  0
   12.8640   -0.4350   23.0890 C   0  0  0  0  0  0  0  0  0  0  0  0
  1  2  1  0
  2  3  2  0
  2  4  1  0
  5  4  1  6
  4  6  1  0
  5  7  1  0
  5  8  1  0
  6  9  1  0
  7 10  1  0
  8 11  1  0
 10 11  1  0
  8 12  1  1
  9 12  1  0
  7 13  1  0
 12 14  1  0
 10 15  2  0
 13 16  2  0
 13 17  1  0
 11 18  1  1
 14 19  2  0
 17 20  1  0
 14 21  1  0
 16 22  1  0
 17 23  2  0
 18 24  2  0
 18 25  1  0
 21 26  1  0
 21 27  2  0
 22 28  2  0
 23 28  1  0
 24 29  1  0
 25 30  2  0
 30 31  1  0
 27 32  1  0
 26 33  1  0
 32 33  2  0
 29 34  2  0
 30 34  1  0
M  END
