x0736-x3115
     RDKit          3D

 39 42  0  0  0  0  0  0  0  0999 V2000
    7.9350    1.5320   23.1190 N   0  0  0  0  0  0  0  0  0  0  0  0
    8.0550    0.9020   21.8930 C   0  0  0  0  0  0  0  0  0  0  0  0
    8.8980    1.2120   21.0580 O   0  0  0  0  0  0  0  0  0  0  0  0
    8.6660    2.7810   23.4070 C   0  0  0  0  0  0  0  0  0  0  0  0
    6.9560   -0.1970   21.6430 C   0  0  1  0  0  0  0  0  0  0  0  0
    8.1000    3.9630   22.6070 C   0  0  0  0  0  0  0  0  0  0  0  0
    8.5640    5.0330   23.0260 O   0  0  0  0  0  0  0  0  0  0  0  0
    6.3250    0.2140   20.3120 C   0  0  0  0  0  0  0  0  0  0  0  0
    7.1750   -1.7660   22.0970 C   0  0  2  0  0  0  0  0  0  0  0  0
    8.1940    6.1640   22.2320 C   0  0  0  0  0  0  0  0  0  0  0  0
    5.1080    0.8980   20.3290 C   0  0  0  0  0  0  0  0  0  0  0  0
    6.9400   -0.0480   19.0090 C   0  0  0  0  0  0  0  0  0  0  0  0
    8.3870   -2.4160   22.4950 C   0  0  1  0  0  0  0  0  0  0  0  0
    6.3300   -2.8660   21.4070 N   0  0  0  0  0  0  0  0  0  0  0  0
    6.3340   -3.3260   20.0480 C   0  0  0  0  0  0  0  0  0  0  0  0
    6.3260    0.3890   17.8010 N   0  0  0  0  0  0  0  0  0  0  0  0
    4.5440    1.3030   19.1220 C   0  0  0  0  0  0  0  0  0  0  0  0
    9.4680   -2.2780   21.6800 C   0  0  0  0  0  0  0  0  0  0  0  0
    8.6360   -2.1910   23.8480 C   0  0  2  0  0  0  0  0  0  0  0  0
    8.3740   -3.8590   22.5530 N   0  0  0  0  0  0  0  0  0  0  0  0
    5.9470   -3.8340   22.4250 C   0  0  0  0  0  0  0  0  0  0  0  0
    7.3590   -2.9710   18.9520 C   0  0  0  0  0  0  0  0  0  0  0  0
    5.4300   -4.1130   19.7290 O   0  0  0  0  0  0  0  0  0  0  0  0
    7.4950   -1.9840   24.8430 C   0  0  0  0  0  0  0  0  0  0  0  0
    5.1650    1.0420   17.9160 C   0  0  0  0  0  0  0  0  0  0  0  0
   10.6750   -1.7620   22.0830 C   0  0  0  0  0  0  0  0  0  0  0  0
    9.7350   -1.3700   24.2350 C   0  0  0  0  0  0  0  0  0  0  0  0
    7.0880   -4.4090   22.9590 C   0  0  0  0  0  0  0  0  0  0  0  0
    6.4870   -2.6740   24.8430 O   0  0  0  0  0  0  0  0  0  0  0  0
   10.8280   -1.3230   23.3640 C   0  0  1  0  0  0  0  0  0  0  0  0
    7.6870   -0.9460   25.7480 C   0  0  0  0  0  0  0  0  0  0  0  0
   12.2240   -1.6090   24.0040 C   0  0  0  0  0  0  0  0  0  0  0  0
    8.0560    0.2970   25.2530 O   0  0  0  0  0  0  0  0  0  0  0  0
    7.6020   -0.8620   27.1260 C   0  0  0  0  0  0  0  0  0  0  0  0
   13.2580   -1.5700   23.1030 C   0  0  0  0  0  0  0  0  0  0  0  0
   12.3670   -2.9360   24.7350 C   0  0  0  0  0  0  0  0  0  0  0  0
   12.4570   -0.5350   25.0470 C   0  0  0  0  0  0  0  0  0  0  0  0
    7.9140    0.3800   27.4510 C   0  0  0  0  0  0  0  0  0  0  0  0
    8.1890    1.0940   26.3250 C   0  0  0  0  0  0  0  0  0  0  0  0
  1  2  1  0
  2  3  2  0
  1  4  1  0
  5  2  1  6
  4  6  1  0
  6  7  1  0
  5  8  1  0
  5  9  1  0
  7 10  1  0
  8 11  2  0
  8 12  1  0
  9 13  1  0
  9 14  1  6
 14 15  1  0
 12 16  2  0
 11 17  1  0
 13 18  1  6
 13 19  1  0
 13 20  1  0
 14 21  1  0
 15 22  1  0
 15 23  2  0
 19 24  1  6
 16 25  1  0
 17 25  2  0
 18 26  2  0
 19 27  1  0
 20 28  1  0
 21 28  1  0
 24 29  2  0
 26 30  1  0
 27 30  1  0
 24 31  1  0
 30 32  1  1
 31 33  1  0
 31 34  2  0
 32 35  1  0
 32 36  1  0
 32 37  1  0
 34 38  1  0
 33 39  1  0
 38 39  2  0
M  END
