x0736-x2608
     RDKit          3D

 32 35  0  0  0  0  0  0  0  0999 V2000
    7.5400   -3.0110   19.0140 C   0  0  0  0  0  0  0  0  0  0  0  0
    6.6380   -3.4320   20.1390 C   0  0  0  0  0  0  0  0  0  0  0  0
    5.5770   -4.0040   19.7760 O   0  0  0  0  0  0  0  0  0  0  0  0
    7.0340   -3.3300   21.5100 N   0  0  0  0  0  0  0  0  0  0  0  0
    7.7710   -2.1740   22.2130 C   0  0  2  0  0  0  0  0  0  0  0  0
    6.5970   -4.2790   22.3510 C   0  0  0  0  0  0  0  0  0  0  0  0
    8.6340   -1.2430   21.5300 N   0  0  0  0  0  0  0  0  0  0  0  0
    8.5290   -2.6520   23.2400 C   0  0  0  0  0  0  0  0  0  0  0  0
    7.1830   -4.3910   23.6010 C   0  0  0  0  0  0  0  0  0  0  0  0
    7.9070   -0.2080   21.0430 C   0  0  0  0  0  0  0  0  0  0  0  0
    7.7010   -3.2440   24.0900 N   0  0  0  0  0  0  0  0  0  0  0  0
    9.9230   -0.8450   21.9910 C   0  0  0  0  0  0  0  0  0  0  0  0
    6.9150   -2.3770   24.8220 C   0  0  0  0  0  0  0  0  0  0  0  0
    8.2810    0.9690   20.9280 O   0  0  0  0  0  0  0  0  0  0  0  0
    6.6850   -0.5670   20.6780 N   0  0  0  0  0  0  0  0  0  0  0  0
   11.0590   -1.6170   22.1180 C   0  0  0  0  0  0  0  0  0  0  0  0
   10.3340    0.7590   22.4680 S   0  0  0  0  0  0  0  0  0  0  0  0
    5.8380   -1.9630   24.3760 O   0  0  0  0  0  0  0  0  0  0  0  0
    7.3130   -1.9750   26.1220 C   0  0  0  0  0  0  0  0  0  0  0  0
   11.9810    0.3390   22.7470 C   0  0  0  0  0  0  0  0  0  0  0  0
   12.2090   -1.0120   22.5280 C   0  0  0  0  0  0  0  0  0  0  0  0
    6.0690    0.1680   19.7230 C   0  0  0  0  0  0  0  0  0  0  0  0
   12.9110    1.3780   23.1500 C   0  0  0  0  0  0  0  0  0  0  0  0
    6.9480   -0.7430   26.6540 O   0  0  0  0  0  0  0  0  0  0  0  0
    8.0580   -2.6840   27.0320 C   0  0  0  0  0  0  0  0  0  0  0  0
    6.5630    0.2800   18.5350 C   0  0  0  0  0  0  0  0  0  0  0  0
    4.9020    0.8300   20.0180 C   0  0  0  0  0  0  0  0  0  0  0  0
    8.1480   -1.8900   28.1350 C   0  0  0  0  0  0  0  0  0  0  0  0
    7.4720   -0.7350   27.9170 C   0  0  0  0  0  0  0  0  0  0  0  0
    6.0600    0.9970   17.5410 N   0  0  0  0  0  0  0  0  0  0  0  0
    4.3360    1.5950   19.0130 C   0  0  0  0  0  0  0  0  0  0  0  0
    4.9100    1.6620   17.8500 C   0  0  0  0  0  0  0  0  0  0  0  0
  1  2  1  0
  2  3  2  0
  2  4  1  0
  4  5  1  0
  4  6  1  0
  5  7  1  6
  5  8  1  0
  6  9  1  0
  7 10  1  0
  8 11  1  0
  9 11  1  0
  7 12  1  0
 11 13  1  0
 10 14  2  0
 10 15  1  0
 12 16  2  0
 12 17  1  0
 13 18  2  0
 13 19  1  0
 17 20  1  0
 16 21  1  0
 20 21  2  0
 15 22  1  0
 20 23  1  0
 19 24  1  0
 19 25  2  0
 22 26  2  0
 22 27  1  0
 25 28  1  0
 24 29  1  0
 28 29  2  0
 26 30  1  0
 27 31  2  0
 30 32  2  0
 31 32  1  0
M  END
