x0731-x0978-x3115
     RDKit          3D

 55 58  0  0  0  0  0  0  0  0999 V2000
    7.0660   -1.2350   22.1600 N   0  0  0  0  0  0  0  0  0  0  0  0
    6.8060    0.1010   21.8190 C   0  0  1  0  0  0  0  0  0  0  0  0
    7.9590    1.0750   21.9860 C   0  0  0  0  0  0  0  0  0  0  0  0
    6.1580   -2.0530   22.8090 C   0  0  0  0  0  0  0  0  0  0  0  0
    8.4170   -1.4250   22.5710 C   0  0  0  0  0  0  0  0  0  0  0  0
    5.4790   -2.9360   21.9440 C   0  0  0  0  0  0  0  0  0  0  0  0
    6.2840    0.3670   20.3970 C   0  0  0  0  0  0  0  0  0  0  0  0
    9.4070   -1.5560   21.6160 C   0  0  0  0  0  0  0  0  0  0  0  0
    8.7600   -1.4740   23.9210 C   0  0  0  0  0  0  0  0  0  0  0  0
    8.0080    1.6310   23.2520 N   0  0  0  0  0  0  0  0  0  0  0  0
    8.7270    1.3540   21.0640 O   0  0  0  0  0  0  0  0  0  0  0  0
    5.1720    1.1570   20.2260 C   0  0  0  0  0  0  0  0  0  0  0  0
    6.8930   -0.1380   19.2540 C   0  0  0  0  0  0  0  0  0  0  0  0
   10.7410   -1.7290   21.9860 C   0  0  0  0  0  0  0  0  0  0  0  0
   10.0940   -1.6400   24.2810 C   0  0  0  0  0  0  0  0  0  0  0  0
    6.0330   -4.4120   21.8560 C   0  0  1  0  0  0  0  0  0  0  0  0
    8.6360    2.8490   23.5290 C   0  0  0  0  0  0  0  0  0  0  0  0
    6.2860   -4.4950   20.3890 C   0  0  0  0  0  0  0  0  0  0  0  0
    6.2930    0.2350   17.9430 N   0  0  0  0  0  0  0  0  0  0  0  0
    4.6140    1.4990   19.0250 C   0  0  0  0  0  0  0  0  0  0  0  0
   11.0950   -1.7680   23.3220 C   0  0  0  0  0  0  0  0  0  0  0  0
    7.2840   -4.7050   22.6940 C   0  0  0  0  0  0  0  0  0  0  0  0
    4.9810   -5.3070   22.1810 C   0  0  0  0  0  0  0  0  0  0  0  0
    8.1280    3.9890   22.6370 C   0  0  0  0  0  0  0  0  0  0  0  0
   12.3850   -1.9150   23.6640 C   0  0  0  0  0  0  0  0  0  0  0  0
    5.7530   -5.4690   19.9280 O   0  0  0  0  0  0  0  0  0  0  0  0
    7.0950   -3.4590   19.5960 C   0  0  0  0  0  0  0  0  0  0  0  0
    5.1970    1.0270   17.8670 C   0  0  0  0  0  0  0  0  0  0  0  0
    6.9610   -4.9400   24.1640 C   0  0  0  0  0  0  0  0  0  0  0  0
    4.8910   -5.9540   23.3860 C   0  0  2  0  0  0  0  0  0  0  0  0
    8.5980    5.0560   23.0450 O   0  0  0  0  0  0  0  0  0  0  0  0
   13.2690   -2.3190   22.6000 C   0  0  0  0  0  0  0  0  0  0  0  0
   12.5910   -2.8630   24.8500 C   0  0  0  0  0  0  0  0  0  0  0  0
   12.9540   -0.5810   24.0830 C   0  0  0  0  0  0  0  0  0  0  0  0
    3.4000   -6.5530   23.5060 C   0  0  2  0  0  0  0  0  0  0  0  0
    5.6000   -5.1090   24.4400 C   0  0  2  0  0  0  0  0  0  0  0  0
    8.2080    6.1730   22.2430 C   0  0  0  0  0  0  0  0  0  0  0  0
    2.3800   -5.5700   23.1380 N   0  0  0  0  0  0  0  0  0  0  0  0
    3.2100   -7.4840   24.7040 C   0  0  1  0  0  0  0  0  0  0  0  0
    5.1430   -3.7990   24.1170 O   0  0  0  0  0  0  0  0  0  0  0  0
    5.1250   -5.2200   26.1240 S   0  0  0  0  0  0  0  0  0  0  0  0
    2.0300   -8.3240   24.3170 C   0  0  0  0  0  0  0  0  0  0  0  0
    4.2750   -8.0030   24.9430 O   0  0  0  0  0  0  0  0  0  0  0  0
    1.0700   -6.1000   22.6670 C   0  0  0  0  0  0  0  0  0  0  0  0
    6.1770   -4.6990   26.9490 O   0  0  0  0  0  0  0  0  0  0  0  0
    4.6170   -6.5410   26.3880 O   0  0  0  0  0  0  0  0  0  0  0  0
    3.8510   -4.0040   26.1240 C   0  0  0  0  0  0  0  0  0  0  0  0
    1.0520   -7.1660   22.0580 O   0  0  0  0  0  0  0  0  0  0  0  0
   -0.2590   -5.3780   22.9020 C   0  0  0  0  0  0  0  0  0  0  0  0
    2.5490   -4.2660   25.6440 C   0  0  0  0  0  0  0  0  0  0  0  0
    4.1590   -2.7420   26.6040 C   0  0  0  0  0  0  0  0  0  0  0  0
    1.5880   -3.2550   25.6650 C   0  0  0  0  0  0  0  0  0  0  0  0
    3.2230   -1.7940   26.6140 C   0  0  0  0  0  0  0  0  0  0  0  0
    1.9260   -1.9940   26.1620 C   0  0  0  0  0  0  0  0  0  0  0  0
    0.8950   -0.8450   26.2210 C   0  0  0  0  0  0  0  0  0  0  0  0
  1  2  1  0
  2  3  1  6
  1  4  1  0
  1  5  1  0
  4  6  1  0
  2  7  1  0
  5  8  2  0
  5  9  1  0
  3 10  1  0
  3 11  2  0
  7 12  2  0
  7 13  1  0
  8 14  1  0
  9 15  2  0
 16  6  1  6
 10 17  1  0
 16 18  1  0
 13 19  2  0
 12 20  1  0
 14 21  2  0
 15 21  1  0
 16 22  1  0
 16 23  1  0
 17 24  1  0
 21 25  1  0
 18 26  2  0
 18 27  1  0
 19 28  1  0
 20 28  2  0
 22 29  1  0
 30 23  1  6
 24 31  1  0
 25 32  1  0
 25 33  1  0
 25 34  1  0
 30 35  1  0
 29 36  1  0
 30 36  1  0
 31 37  1  0
 35 38  1  1
 35 39  1  0
 36 40  1  6
 36 41  1  0
 39 42  1  6
 39 43  1  0
 38 44  1  0
 41 45  2  0
 41 46  2  0
 41 47  1  0
 44 48  2  0
 44 49  1  0
 47 50  2  0
 47 51  1  0
 50 52  1  0
 51 53  2  0
 52 54  2  0
 53 54  1  0
 54 55  1  0
M  END
