x0734-x2705-x0540
     RDKit          3D

 60 65  0  0  0  0  0  0  0  0999 V2000
    7.4730   -1.2000   22.2000 N   0  0  0  0  0  0  0  0  0  0  0  0
    6.9800    0.1130   21.7540 C   0  0  1  0  0  0  0  0  0  0  0  0
    7.9550    1.3120   21.8870 C   0  0  0  0  0  0  0  0  0  0  0  0
    6.5400   -1.8160   23.0930 C   0  0  0  0  0  0  0  0  0  0  0  0
    8.7670   -1.2170   22.8530 C   0  0  0  0  0  0  0  0  0  0  0  0
    6.2560    0.2630   20.4160 C   0  0  0  0  0  0  0  0  0  0  0  0
    8.9670   -1.2390   24.1830 N   0  0  0  0  0  0  0  0  0  0  0  0
   10.0830   -1.2370   22.1880 C   0  0  0  0  0  0  0  0  0  0  0  0
    6.5090   -3.3430   22.8420 C   0  0  2  0  0  0  0  0  0  0  0  0
    7.6870    2.2790   22.7920 N   0  0  0  0  0  0  0  0  0  0  0  0
    8.9510    1.4870   21.1850 O   0  0  0  0  0  0  0  0  0  0  0  0
    4.9540    0.7220   20.4160 C   0  0  0  0  0  0  0  0  0  0  0  0
    6.9500   -0.0590   19.0960 C   0  0  0  0  0  0  0  0  0  0  0  0
   10.3210   -1.2710   24.3990 N   0  0  0  0  0  0  0  0  0  0  0  0
   11.0670   -1.2720   23.2840 C   0  0  0  0  0  0  0  0  0  0  0  0
    6.2610   -4.3370   23.9350 N   0  0  0  0  0  0  0  0  0  0  0  0
    7.5500   -3.8070   22.1100 C   0  0  0  0  0  0  0  0  0  0  0  0
   12.6060   -1.2950   23.1130 C   0  0  0  0  0  0  0  0  0  0  0  0
    4.2700    0.9980   21.5800 C   0  0  0  0  0  0  0  0  0  0  0  0
    6.3860    0.1070   17.8760 N   0  0  0  0  0  0  0  0  0  0  0  0
    4.3220    0.9110   19.0660 C   0  0  0  0  0  0  0  0  0  0  0  0
    8.3540    3.4890   22.9190 C   0  0  0  0  0  0  0  0  0  0  0  0
    7.1480   -4.6850   25.0340 C   0  0  0  0  0  0  0  0  0  0  0  0
    6.9090   -4.7330   21.2330 N   0  0  0  0  0  0  0  0  0  0  0  0
    5.7290   -5.5740   23.2600 C   0  0  0  0  0  0  0  0  0  0  0  0
   12.9790    0.0670   23.3410 C   0  0  0  0  0  0  0  0  0  0  0  0
   13.0690   -2.3180   24.1200 C   0  0  0  0  0  0  0  0  0  0  0  0
   12.9220   -1.9210   21.8000 C   0  0  0  0  0  0  0  0  0  0  0  0
    4.8370    1.9970   22.5820 C   0  0  0  0  0  0  0  0  0  0  0  0
    6.2410   -4.1990   20.1170 C   0  0  0  0  0  0  0  0  0  0  0  0
    5.1540    0.5720   17.8960 C   0  0  0  0  0  0  0  0  0  0  0  0
    9.6260    3.4880   23.4670 C   0  0  0  0  0  0  0  0  0  0  0  0
    7.7340    4.6810   22.4980 C   0  0  0  0  0  0  0  0  0  0  0  0
    6.5920   -5.0130   26.2740 C   0  0  0  0  0  0  0  0  0  0  0  0
    8.5580   -4.7490   25.0180 C   0  0  0  0  0  0  0  0  0  0  0  0
    6.3180   -5.8990   21.9350 C   0  0  0  0  0  0  0  0  0  0  0  0
   10.3470    2.2110   23.9340 C   0  0  0  0  0  0  0  0  0  0  0  0
    6.3730    4.8640   21.8830 C   0  0  0  0  0  0  0  0  0  0  0  0
    3.8640    2.9800   22.9680 N   0  0  0  0  0  0  0  0  0  0  0  0
    5.1180   -4.9280   26.2700 N   0  0  0  0  0  0  0  0  0  0  0  0
    5.0980   -4.4980   19.8350 O   0  0  0  0  0  0  0  0  0  0  0  0
    7.0520   -3.2730   19.2430 C   0  0  0  0  0  0  0  0  0  0  0  0
   10.3370    4.6570   23.6280 C   0  0  0  0  0  0  0  0  0  0  0  0
    8.4390    5.9140   22.6470 C   0  0  0  0  0  0  0  0  0  0  0  0
    9.3340   -5.1110   26.1060 C   0  0  0  0  0  0  0  0  0  0  0  0
    7.3110   -5.3870   27.4160 C   0  0  0  0  0  0  0  0  0  0  0  0
    9.5420    1.4580   24.8100 C   0  0  0  0  0  0  0  0  0  0  0  0
    2.7580    2.5280   23.6140 C   0  0  0  0  0  0  0  0  0  0  0  0
    4.4280   -5.8440   25.5140 O   0  0  0  0  0  0  0  0  0  0  0  0
    4.5510   -3.7700   26.8410 O   0  0  0  0  0  0  0  0  0  0  0  0
    9.7300    5.9830   23.2000 C   0  0  0  0  0  0  0  0  0  0  0  0
    8.7090   -5.4360   27.3200 C   0  0  0  0  0  0  0  0  0  0  0  0
    2.7750    1.5290   24.5440 O   0  0  0  0  0  0  0  0  0  0  0  0
    1.6520    3.2230   23.1840 N   0  0  0  0  0  0  0  0  0  0  0  0
    0.4750    3.3260   24.0220 C   0  0  0  0  0  0  0  0  0  0  0  0
    0.4230    4.5790   24.6510 C   0  0  0  0  0  0  0  0  0  0  0  0
   -0.6450    2.9710   23.2550 C   0  0  0  0  0  0  0  0  0  0  0  0
   -0.8150    5.0560   25.0900 C   0  0  0  0  0  0  0  0  0  0  0  0
   -1.8770    3.3460   23.7920 C   0  0  0  0  0  0  0  0  0  0  0  0
   -1.9110    4.6240   24.3440 C   0  0  0  0  0  0  0  0  0  0  0  0
  1  2  1  0
  2  3  1  6
  1  4  1  0
  1  5  1  0
  2  6  1  0
  5  7  2  0
  5  8  1  0
  9  4  1  1
  3 10  1  0
  3 11  2  0
  6 12  1  0
  6 13  2  0
  7 14  1  0
  8 15  2  0
 14 15  1  0
  9 16  1  0
  9 17  1  0
 15 18  1  0
 12 19  1  0
 13 20  1  0
 12 21  2  0
 10 22  1  0
 16 23  1  0
 17 24  1  0
 16 25  1  0
 18 26  1  0
 18 27  1  0
 18 28  1  0
 19 29  1  0
 24 30  1  0
 20 31  2  0
 21 31  1  0
 22 32  2  0
 22 33  1  0
 23 34  2  0
 23 35  1  0
 24 36  1  0
 25 36  1  0
 32 37  1  0
 33 38  1  0
 29 39  1  0
 34 40  1  0
 30 41  2  0
 30 42  1  0
 32 43  1  0
 33 44  2  0
 35 45  2  0
 34 46  1  0
 37 47  1  0
 39 48  1  0
 40 49  2  0
 40 50  1  0
 43 51  2  0
 44 51  1  0
 45 52  1  0
 46 52  2  0
 48 53  2  0
 48 54  1  0
 54 55  1  0
 55 56  1  0
 55 57  1  0
 56 58  1  0
 57 59  1  0
 58 60  1  0
 59 60  1  0
M  CHG  2  40   1  50  -1
M  END
