x0736-x2908
     RDKit          3D

 34 38  0  0  0  0  0  0  0  0999 V2000
    7.2920   -3.0520   18.8060 C   0  0  0  0  0  0  0  0  0  0  0  0
    6.2710   -3.3620   19.9040 C   0  0  0  0  0  0  0  0  0  0  0  0
    5.3020   -4.0720   19.6510 O   0  0  0  0  0  0  0  0  0  0  0  0
    6.4510   -2.9000   21.1870 N   0  0  0  0  0  0  0  0  0  0  0  0
    7.5300   -1.8990   21.3770 C   0  0  1  0  0  0  0  0  0  0  0  0
    6.1230   -3.7030   22.2100 C   0  0  0  0  0  0  0  0  0  0  0  0
    7.2060   -0.5110   21.1290 N   0  0  0  0  0  0  0  0  0  0  0  0
    8.2830   -1.9810   22.5610 C   0  0  1  0  0  0  0  0  0  0  0  0
    7.0850   -3.8290   23.1740 C   0  0  0  0  0  0  0  0  0  0  0  0
    8.8520   -0.5900   22.6830 N   0  0  0  0  0  0  0  0  0  0  0  0
    8.2500    0.1970   21.6200 C   0  0  0  0  0  0  0  0  0  0  0  0
    7.6350   -2.6800   23.5660 N   0  0  0  0  0  0  0  0  0  0  0  0
    6.4770    0.1230   20.0890 C   0  0  0  0  0  0  0  0  0  0  0  0
    7.1640   -2.0720   24.7190 C   0  0  0  0  0  0  0  0  0  0  0  0
    8.6930    1.3110   21.2440 O   0  0  0  0  0  0  0  0  0  0  0  0
    6.9130   -0.0050   18.7810 C   0  0  0  0  0  0  0  0  0  0  0  0
    5.2970    0.9280   20.2510 C   0  0  0  0  0  0  0  0  0  0  0  0
   10.2240   -0.4300   22.7990 C   0  0  0  0  0  0  0  0  0  0  0  0
    5.9800   -2.2410   25.0620 O   0  0  0  0  0  0  0  0  0  0  0  0
    4.7210    1.1740   21.5330 C   0  0  0  0  0  0  0  0  0  0  0  0
    8.0160   -1.2720   25.5260 C   0  0  0  0  0  0  0  0  0  0  0  0
    6.3290    0.5510   17.7000 N   0  0  0  0  0  0  0  0  0  0  0  0
    4.6150    1.5560   19.1010 C   0  0  0  0  0  0  0  0  0  0  0  0
   10.7470    0.6060   23.5780 C   0  0  0  0  0  0  0  0  0  0  0  0
   10.9630   -1.3410   22.0920 C   0  0  0  0  0  0  0  0  0  0  0  0
    8.4840   -0.0740   25.0210 O   0  0  0  0  0  0  0  0  0  0  0  0
    8.5110   -1.4480   26.8080 C   0  0  0  0  0  0  0  0  0  0  0  0
    5.2300    1.2930   17.8890 C   0  0  0  0  0  0  0  0  0  0  0  0
   12.1030    0.7490   23.6570 C   0  0  0  0  0  0  0  0  0  0  0  0
   12.3200   -1.1360   22.2120 C   0  0  0  0  0  0  0  0  0  0  0  0
   13.2290   -2.2440   21.3270 Cl  0  0  0  0  0  0  0  0  0  0  0  0
    9.2790   -0.3590   27.0760 C   0  0  0  0  0  0  0  0  0  0  0  0
    9.2560    0.4660   25.9850 C   0  0  0  0  0  0  0  0  0  0  0  0
   12.8990   -0.1250   22.9700 C   0  0  0  0  0  0  0  0  0  0  0  0
  1  2  1  0
  2  3  2  0
  2  4  1  0
  5  4  1  1
  4  6  1  0
  5  7  1  0
  5  8  1  0
  6  9  1  0
  8 10  1  1
  7 11  1  0
 10 11  1  0
  8 12  1  0
  9 12  1  0
  7 13  1  0
 12 14  1  0
 11 15  2  0
 13 16  2  0
 13 17  1  0
 10 18  1  0
 14 19  2  0
 17 20  1  0
 14 21  1  0
 16 22  1  0
 17 23  2  0
 18 24  2  0
 18 25  1  0
 21 26  1  0
 21 27  2  0
 22 28  2  0
 23 28  1  0
 24 29  1  0
 25 30  2  0
 30 31  1  0
 27 32  1  0
 26 33  1  0
 32 33  2  0
 29 34  2  0
 30 34  1  0
M  END
