x0731-x2776-x0978
     RDKit          3D

 60 64  0  0  0  0  0  0  0  0999 V2000
    6.9380   -0.8600   21.9080 N   0  0  0  0  0  0  0  0  0  0  0  0
    6.7620    0.4920   21.6670 C   0  0  1  0  0  0  0  0  0  0  0  0
    7.9400    1.4090   21.8850 C   0  0  0  0  0  0  0  0  0  0  0  0
    5.9410   -1.8260   21.6050 C   0  0  0  0  0  0  0  0  0  0  0  0
    8.1730   -1.1600   22.4860 C   0  0  0  0  0  0  0  0  0  0  0  0
    5.7790   -2.9520   22.3760 C   0  0  0  0  0  0  0  0  0  0  0  0
    6.1940    0.7730   20.2930 C   0  0  0  0  0  0  0  0  0  0  0  0
    9.2760   -1.8300   21.6840 C   0  0  0  0  0  0  0  0  0  0  0  0
    8.5420   -0.8640   23.8140 C   0  0  0  0  0  0  0  0  0  0  0  0
    7.9490    2.0350   22.8550 N   0  0  0  0  0  0  0  0  0  0  0  0
    8.8410    1.5040   21.0480 O   0  0  0  0  0  0  0  0  0  0  0  0
    5.0960    1.5780   20.1430 C   0  0  0  0  0  0  0  0  0  0  0  0
    6.8390    0.1750   19.0940 C   0  0  0  0  0  0  0  0  0  0  0  0
   10.5300   -2.0860   22.2140 C   0  0  0  0  0  0  0  0  0  0  0  0
    9.9100   -1.1360   24.4270 C   0  0  0  0  0  0  0  0  0  0  0  0
    6.2580   -4.3900   21.9350 C   0  0  1  0  0  0  0  0  0  0  0  0
    6.3900   -4.4690   20.4250 C   0  0  0  0  0  0  0  0  0  0  0  0
    6.2900    0.4770   17.7920 N   0  0  0  0  0  0  0  0  0  0  0  0
    4.6230    1.8200   18.8750 C   0  0  0  0  0  0  0  0  0  0  0  0
    8.6650    3.2740   23.0990 C   0  0  0  0  0  0  0  0  0  0  0  0
   10.8890   -1.7200   23.6400 C   0  0  0  0  0  0  0  0  0  0  0  0
    7.3540   -4.7950   22.6210 C   0  0  0  0  0  0  0  0  0  0  0  0
    5.2310   -5.5490   22.1540 C   0  0  0  0  0  0  0  0  0  0  0  0
   12.2890   -1.9960   24.0850 C   0  0  2  0  0  0  0  0  0  0  0  0
    5.7460   -5.3720   19.9530 O   0  0  0  0  0  0  0  0  0  0  0  0
    7.1980   -3.4750   19.5710 C   0  0  0  0  0  0  0  0  0  0  0  0
    5.2280    1.2720   17.7440 C   0  0  0  0  0  0  0  0  0  0  0  0
    9.9820    3.2420   23.5660 C   0  0  0  0  0  0  0  0  0  0  0  0
    8.0880    4.4820   22.8840 C   0  0  0  0  0  0  0  0  0  0  0  0
    6.9150   -4.9610   24.0750 C   0  0  0  0  0  0  0  0  0  0  0  0
    4.4570   -5.3890   23.2550 C   0  0  1  0  0  0  0  0  0  0  0  0
   12.3070   -2.9620   25.1170 O   0  0  0  0  0  0  0  0  0  0  0  0
   10.6890    1.9370   23.8220 C   0  0  0  0  0  0  0  0  0  0  0  0
   12.9390   -0.6740   24.4130 C   0  0  0  0  0  0  0  0  0  0  0  0
    3.2050   -6.3910   23.3470 C   0  0  2  0  0  0  0  0  0  0  0  0
   10.6630    4.3780   23.8010 C   0  0  0  0  0  0  0  0  0  0  0  0
    8.7900    5.6630   23.1310 C   0  0  0  0  0  0  0  0  0  0  0  0
    5.5220   -5.0440   24.3600 C   0  0  2  0  0  0  0  0  0  0  0  0
   13.6380   -3.1700   25.5230 C   0  0  0  0  0  0  0  0  0  0  0  0
    2.0640   -5.6600   23.1400 N   0  0  0  0  0  0  0  0  0  0  0  0
    3.2600   -7.2990   24.3740 C   0  0  1  0  0  0  0  0  0  0  0  0
    5.2080   -3.6360   24.4060 O   0  0  0  0  0  0  0  0  0  0  0  0
    5.1460   -5.3300   26.1460 S   0  0  0  0  0  0  0  0  0  0  0  0
   10.0950    5.6480   23.6000 C   0  0  0  0  0  0  0  0  0  0  0  0
   10.8930    6.7270   23.8880 O   0  0  0  0  0  0  0  0  0  0  0  0
    2.2020   -8.1910   24.5050 C   0  0  0  0  0  0  0  0  0  0  0  0
    4.4630   -8.0170   24.4350 O   0  0  0  0  0  0  0  0  0  0  0  0
    0.9590   -6.2280   22.6030 C   0  0  0  0  0  0  0  0  0  0  0  0
    6.2510   -4.8000   26.9120 O   0  0  0  0  0  0  0  0  0  0  0  0
    4.6420   -6.6450   26.4570 O   0  0  0  0  0  0  0  0  0  0  0  0
    3.8830   -4.0870   26.1750 C   0  0  0  0  0  0  0  0  0  0  0  0
   11.8200    6.6100   24.9900 C   0  0  0  0  0  0  0  0  0  0  0  0
    0.9620   -7.2880   21.9890 O   0  0  0  0  0  0  0  0  0  0  0  0
   -0.2150   -5.4940   22.7980 C   0  0  0  0  0  0  0  0  0  0  0  0
    2.5770   -4.3360   25.7170 C   0  0  0  0  0  0  0  0  0  0  0  0
    4.1950   -2.8120   26.6480 C   0  0  0  0  0  0  0  0  0  0  0  0
    1.6530   -3.2990   25.7550 C   0  0  0  0  0  0  0  0  0  0  0  0
    3.2500   -1.7800   26.6800 C   0  0  0  0  0  0  0  0  0  0  0  0
    1.9510   -2.0290   26.2250 C   0  0  0  0  0  0  0  0  0  0  0  0
    0.9110   -0.9530   26.2520 C   0  0  0  0  0  0  0  0  0  0  0  0
  1  2  1  0
  2  3  1  6
  1  4  1  0
  1  5  1  0
  4  6  1  0
  2  7  1  0
  5  8  2  0
  5  9  1  0
  3 10  1  0
  3 11  2  0
  7 12  2  0
  7 13  1  0
  8 14  1  0
  9 15  2  0
 16  6  1  6
 16 17  1  0
 13 18  2  0
 12 19  1  0
 10 20  1  0
 14 21  2  0
 15 21  1  0
 16 22  1  0
 16 23  1  0
 21 24  1  0
 17 25  2  0
 17 26  1  0
 18 27  1  0
 19 27  2  0
 20 28  2  0
 20 29  1  0
 22 30  1  0
 31 23  1  6
 24 32  1  0
 28 33  1  0
 24 34  1  1
 31 35  1  0
 28 36  1  0
 29 37  2  0
 30 38  1  0
 31 38  1  0
 32 39  1  0
 35 40  1  1
 35 41  1  0
 38 42  1  1
 38 43  1  0
 36 44  2  0
 37 44  1  0
 44 45  1  0
 41 46  1  6
 41 47  1  0
 40 48  1  0
 43 49  2  0
 43 50  2  0
 43 51  1  0
 45 52  1  0
 48 53  2  0
 48 54  1  0
 51 55  2  0
 51 56  1  0
 55 57  1  0
 56 58  2  0
 57 59  2  0
 58 59  1  0
 59 60  1  0
M  END
