x0731-x2964
     RDKit          3D

 39 42  0  0  0  0  0  0  0  0999 V2000
    0.8540   -1.0100   26.0890 C   0  0  0  0  0  0  0  0  0  0  0  0
    2.0430   -1.9810   26.0520 C   0  0  0  0  0  0  0  0  0  0  0  0
    3.4290   -1.7050   26.5850 C   0  0  0  0  0  0  0  0  0  0  0  0
    1.7360   -3.3400   25.4050 C   0  0  0  0  0  0  0  0  0  0  0  0
    2.8010   -4.4100   25.3020 C   0  0  0  0  0  0  0  0  0  0  0  0
    4.4240   -2.6790   26.5000 C   0  0  0  0  0  0  0  0  0  0  0  0
    4.1400   -4.0380   25.8700 C   0  0  0  0  0  0  0  0  0  0  0  0
    5.3370   -5.2320   25.7770 S   0  0  0  0  0  0  0  0  0  0  0  0
    6.4410   -4.8380   26.6270 O   0  0  0  0  0  0  0  0  0  0  0  0
    4.6980   -6.5210   25.9550 O   0  0  0  0  0  0  0  0  0  0  0  0
    5.8310   -5.0920   24.1750 N   0  0  0  0  0  0  0  0  0  0  0  0
    7.1630   -4.4720   23.9300 C   0  0  0  0  0  0  0  0  0  0  0  0
    5.4280   -6.0280   23.2830 C   0  0  0  0  0  0  0  0  0  0  0  0
    7.2610   -3.9070   22.6440 C   0  0  2  0  0  0  0  0  0  0  0  0
    6.3760   -5.9530   22.1150 C   0  0  0  0  0  0  0  0  0  0  0  0
    6.6090   -2.4860   22.6760 C   0  0  0  0  0  0  0  0  0  0  0  0
    6.7350   -4.7280   21.6620 N   0  0  0  0  0  0  0  0  0  0  0  0
    6.3120   -4.3580   20.3720 C   0  0  0  0  0  0  0  0  0  0  0  0
    6.9120   -1.7100   21.3860 C   0  0  0  0  0  0  0  0  0  0  0  0
    5.2720   -4.8620   19.9700 O   0  0  0  0  0  0  0  0  0  0  0  0
    7.1130   -3.4390   19.4410 C   0  0  0  0  0  0  0  0  0  0  0  0
    6.9000   -0.2450   21.3950 N   0  0  0  0  0  0  0  0  0  0  0  0
    8.2220    0.3760   21.7610 C   0  0  0  0  0  0  0  0  0  0  0  0
    6.2670    0.2910   20.2100 C   0  0  0  0  0  0  0  0  0  0  0  0
    8.7130    1.3730   21.1930 O   0  0  0  0  0  0  0  0  0  0  0  0
    8.8860   -0.2410   22.7810 N   0  0  0  0  0  0  0  0  0  0  0  0
    5.0740    1.0090   20.2960 C   0  0  0  0  0  0  0  0  0  0  0  0
    6.8880    0.0720   18.9610 C   0  0  0  0  0  0  0  0  0  0  0  0
    4.3710    1.6030   19.1050 C   0  0  0  0  0  0  0  0  0  0  0  0
    6.4240    0.5250   17.7960 N   0  0  0  0  0  0  0  0  0  0  0  0
   10.2610   -0.1350   22.8350 C   0  0  0  0  0  0  0  0  0  0  0  0
    3.1290    2.3580   19.1040 N   0  0  0  0  0  0  0  0  0  0  0  0
    5.1910    1.2800   17.8640 C   0  0  0  0  0  0  0  0  0  0  0  0
   10.9590    0.9100   23.4700 C   0  0  0  0  0  0  0  0  0  0  0  0
   11.0860   -1.1830   22.1640 C   0  0  0  0  0  0  0  0  0  0  0  0
   12.2880    0.9750   23.4690 C   0  0  0  0  0  0  0  0  0  0  0  0
   12.4010   -1.0570   22.2010 C   0  0  0  0  0  0  0  0  0  0  0  0
   13.2070   -2.2950   21.3850 Cl  0  0  0  0  0  0  0  0  0  0  0  0
   13.0850   -0.0770   22.7890 C   0  0  0  0  0  0  0  0  0  0  0  0
  1  2  1  0
  2  3  2  0
  2  4  1  0
  4  5  2  0
  3  6  1  0
  5  7  1  0
  6  7  2  0
  8  7  1  0
  8  9  2  0
  8 10  2  0
  8 11  1  0
 11 12  1  0
 11 13  1  0
 12 14  1  0
 13 15  1  0
 14 16  1  1
 14 17  1  0
 15 17  1  0
 17 18  1  0
 16 19  1  0
 18 20  2  0
 18 21  1  0
 19 22  1  0
 22 23  1  0
 22 24  1  0
 23 25  2  0
 23 26  1  0
 24 27  2  0
 24 28  1  0
 27 29  1  0
 28 30  2  0
 26 31  1  0
 29 32  1  0
 29 33  2  0
 30 33  1  0
 31 34  2  0
 31 35  1  0
 34 36  1  0
 35 37  2  0
 37 38  1  0
 36 39  2  0
 37 39  1  0
M  END
