x0736-x3110
     RDKit          3D

 42 45  0  0  0  0  0  0  0  0999 V2000
    8.0350    1.3820   23.1860 N   0  0  0  0  0  0  0  0  0  0  0  0
    8.9590    2.3650   23.5800 C   0  0  0  0  0  0  0  0  0  0  0  0
   10.3130    2.1360   23.5160 C   0  0  0  0  0  0  0  0  0  0  0  0
    8.0020    0.8530   21.8090 C   0  0  0  0  0  0  0  0  0  0  0  0
    8.7310    1.3740   20.9630 O   0  0  0  0  0  0  0  0  0  0  0  0
    7.0850   -0.1840   21.5300 C   0  0  1  0  0  0  0  0  0  0  0  0
   11.0730    3.3020   23.4230 C   0  0  0  0  0  0  0  0  0  0  0  0
    6.3790    0.3470   20.2840 C   0  0  0  0  0  0  0  0  0  0  0  0
    7.6040   -1.7390   21.4610 C   0  0  1  0  0  0  0  0  0  0  0  0
   11.8530    3.2000   22.4850 O   0  0  0  0  0  0  0  0  0  0  0  0
   10.9840    4.2990   24.1590 O   0  0  0  0  0  0  0  0  0  0  0  0
    5.1910    1.1130   20.3220 C   0  0  0  0  0  0  0  0  0  0  0  0
    6.9500    0.0600   19.0460 C   0  0  0  0  0  0  0  0  0  0  0  0
    8.4940   -2.2870   22.4380 C   0  0  1  0  0  0  0  0  0  0  0  0
    6.4720   -2.6850   21.1220 N   0  0  0  0  0  0  0  0  0  0  0  0
   12.3500    4.4450   21.9900 C   0  0  0  0  0  0  0  0  0  0  0  0
    6.3040   -3.3250   19.8960 C   0  0  0  0  0  0  0  0  0  0  0  0
    6.3730    0.5300   17.8070 N   0  0  0  0  0  0  0  0  0  0  0  0
    4.5970    1.5870   19.1370 C   0  0  0  0  0  0  0  0  0  0  0  0
    9.6870   -2.4520   21.7660 C   0  0  0  0  0  0  0  0  0  0  0  0
    8.6490   -1.6930   23.6240 C   0  0  1  0  0  0  0  0  0  0  0  0
    8.2810   -3.5980   22.7710 N   0  0  0  0  0  0  0  0  0  0  0  0
    5.9420   -3.4210   22.1850 C   0  0  0  0  0  0  0  0  0  0  0  0
   13.4220    5.2430   22.7650 C   0  0  0  0  0  0  0  0  0  0  0  0
    7.3070   -3.0630   18.7740 C   0  0  0  0  0  0  0  0  0  0  0  0
    5.3810   -4.1250   19.7040 O   0  0  0  0  0  0  0  0  0  0  0  0
    7.4850   -1.7620   24.6210 C   0  0  0  0  0  0  0  0  0  0  0  0
    5.1890    1.2970   17.9180 C   0  0  0  0  0  0  0  0  0  0  0  0
   10.9220   -2.0860   22.2240 C   0  0  0  0  0  0  0  0  0  0  0  0
    9.8780   -1.9750   24.2370 C   0  0  0  0  0  0  0  0  0  0  0  0
    6.9370   -4.1410   22.8240 C   0  0  0  0  0  0  0  0  0  0  0  0
    6.3110   -2.4430   24.4820 O   0  0  0  0  0  0  0  0  0  0  0  0
   10.8860   -1.5550   23.3730 C   0  0  1  0  0  0  0  0  0  0  0  0
    7.8090   -1.0050   25.7230 C   0  0  0  0  0  0  0  0  0  0  0  0
   12.2950   -1.5100   24.0790 C   0  0  0  0  0  0  0  0  0  0  0  0
    8.6460    0.0030   25.4250 O   0  0  0  0  0  0  0  0  0  0  0  0
    7.5290   -0.9940   27.0720 C   0  0  0  0  0  0  0  0  0  0  0  0
   12.3590   -0.5390   25.0550 C   0  0  0  0  0  0  0  0  0  0  0  0
   13.3460   -1.1740   23.0230 C   0  0  0  0  0  0  0  0  0  0  0  0
   12.7310   -2.8330   24.7400 C   0  0  0  0  0  0  0  0  0  0  0  0
    8.1940    0.0130   27.6960 C   0  0  0  0  0  0  0  0  0  0  0  0
    8.9270    0.6520   26.5360 C   0  0  0  0  0  0  0  0  0  0  0  0
  1  2  1  0
  2  3  1  0
  1  4  1  0
  4  5  2  0
  6  4  1  6
  3  7  1  0
  6  8  1  0
  6  9  1  0
  7 10  1  0
  7 11  2  0
  8 12  2  0
  8 13  1  0
  9 14  1  0
  9 15  1  1
 10 16  1  0
 15 17  1  0
 13 18  2  0
 12 19  1  0
 14 20  1  6
 14 21  1  0
 14 22  1  0
 15 23  1  0
 16 24  1  0
 17 25  1  0
 17 26  2  0
 21 27  1  1
 18 28  1  0
 19 28  2  0
 20 29  2  0
 21 30  1  0
 22 31  1  0
 23 31  1  0
 27 32  2  0
 29 33  1  0
 30 33  1  0
 27 34  1  0
 33 35  1  1
 34 36  1  0
 34 37  2  0
 35 38  1  0
 35 39  1  0
 35 40  1  0
 37 41  1  0
 36 42  1  0
 41 42  2  0
M  END
