x0731-x0978-x2705
     RDKit          3D

 59 63  0  0  0  0  0  0  0  0999 V2000
    7.4840   -0.9610   22.1630 N   0  0  0  0  0  0  0  0  0  0  0  0
    6.9330    0.3580   21.7790 C   0  0  1  0  0  0  0  0  0  0  0  0
    7.8500    1.5650   21.9330 C   0  0  0  0  0  0  0  0  0  0  0  0
    7.1270   -2.1120   21.4030 C   0  0  0  0  0  0  0  0  0  0  0  0
    8.7520   -1.0520   22.9220 C   0  0  0  0  0  0  0  0  0  0  0  0
    5.9880   -2.9220   21.9950 C   0  0  0  0  0  0  0  0  0  0  0  0
    6.3300    0.5090   20.4040 C   0  0  0  0  0  0  0  0  0  0  0  0
    8.9050   -0.9730   24.2920 N   0  0  0  0  0  0  0  0  0  0  0  0
    9.8720   -1.2480   22.1950 C   0  0  0  0  0  0  0  0  0  0  0  0
    7.3110    2.4810   22.8170 N   0  0  0  0  0  0  0  0  0  0  0  0
    8.9090    1.7200   21.3140 O   0  0  0  0  0  0  0  0  0  0  0  0
    5.0450    1.2800   20.1870 C   0  0  0  0  0  0  0  0  0  0  0  0
    6.8690   -0.0180   19.1080 C   0  0  0  0  0  0  0  0  0  0  0  0
   10.2370   -1.1290   24.5070 N   0  0  0  0  0  0  0  0  0  0  0  0
   10.8990   -1.3050   23.2480 C   0  0  0  0  0  0  0  0  0  0  0  0
    6.0620   -4.4910   21.9220 C   0  0  1  0  0  0  0  0  0  0  0  0
   12.3190   -1.4910   23.1680 C   0  0  0  0  0  0  0  0  0  0  0  0
    6.1450   -4.6710   20.4000 C   0  0  0  0  0  0  0  0  0  0  0  0
    6.3200    0.1580   17.8820 N   0  0  0  0  0  0  0  0  0  0  0  0
    4.5180    1.4350   18.9190 C   0  0  0  0  0  0  0  0  0  0  0  0
    8.0360    3.6630   22.9790 C   0  0  0  0  0  0  0  0  0  0  0  0
    7.2060   -4.9620   22.5750 C   0  0  0  0  0  0  0  0  0  0  0  0
    4.8500   -5.1400   22.2030 C   0  0  0  0  0  0  0  0  0  0  0  0
   12.9800   -0.1190   23.4030 C   0  0  0  0  0  0  0  0  0  0  0  0
   12.7650   -2.4560   24.2690 C   0  0  0  0  0  0  0  0  0  0  0  0
   12.7570   -2.1270   21.7850 C   0  0  0  0  0  0  0  0  0  0  0  0
    5.6680   -5.6910   19.9500 O   0  0  0  0  0  0  0  0  0  0  0  0
    6.7780   -3.6230   19.4740 C   0  0  0  0  0  0  0  0  0  0  0  0
    5.1900    0.8690   17.8580 C   0  0  0  0  0  0  0  0  0  0  0  0
    9.2060    3.5880   23.6920 C   0  0  0  0  0  0  0  0  0  0  0  0
    7.6090    4.8180   22.4520 C   0  0  0  0  0  0  0  0  0  0  0  0
    6.9630   -5.0130   24.0780 C   0  0  0  0  0  0  0  0  0  0  0  0
    4.7660   -5.9100   23.3320 C   0  0  2  0  0  0  0  0  0  0  0  0
    9.5970    2.2480   24.2680 C   0  0  0  0  0  0  0  0  0  0  0  0
    6.3300    5.0650   21.6480 C   0  0  0  0  0  0  0  0  0  0  0  0
    3.2760   -6.4730   23.4500 C   0  0  2  0  0  0  0  0  0  0  0  0
    9.9410    4.7040   23.8460 C   0  0  0  0  0  0  0  0  0  0  0  0
    8.3620    5.9250   22.6260 C   0  0  0  0  0  0  0  0  0  0  0  0
    5.5980   -5.1780   24.3770 C   0  0  2  0  0  0  0  0  0  0  0  0
   10.9510    1.8070   23.8040 C   0  0  0  0  0  0  0  0  0  0  0  0
    2.2980   -5.5440   23.2130 N   0  0  0  0  0  0  0  0  0  0  0  0
    3.1730   -7.4200   24.4310 C   0  0  1  0  0  0  0  0  0  0  0  0
    5.0890   -3.8570   24.0650 O   0  0  0  0  0  0  0  0  0  0  0  0
    5.1130   -5.2090   26.0580 S   0  0  0  0  0  0  0  0  0  0  0  0
    9.5260    5.8680   23.3170 C   0  0  0  0  0  0  0  0  0  0  0  0
    1.9090   -8.2530   24.2990 C   0  0  0  0  0  0  0  0  0  0  0  0
    4.3120   -8.1270   24.6340 O   0  0  0  0  0  0  0  0  0  0  0  0
    1.1380   -6.0870   22.7220 C   0  0  0  0  0  0  0  0  0  0  0  0
    6.1170   -4.7160   26.9510 O   0  0  0  0  0  0  0  0  0  0  0  0
    4.5350   -6.6390   26.4560 O   0  0  0  0  0  0  0  0  0  0  0  0
    3.9290   -4.0440   26.1030 C   0  0  0  0  0  0  0  0  0  0  0  0
    1.0940   -7.2980   21.9750 O   0  0  0  0  0  0  0  0  0  0  0  0
   -0.1170   -5.4890   22.9020 C   0  0  0  0  0  0  0  0  0  0  0  0
    2.6110   -4.2610   25.7170 C   0  0  0  0  0  0  0  0  0  0  0  0
    4.2880   -2.6270   26.5840 C   0  0  0  0  0  0  0  0  0  0  0  0
    1.6380   -3.3560   25.7290 C   0  0  0  0  0  0  0  0  0  0  0  0
    3.1560   -1.5910   26.5960 C   0  0  0  0  0  0  0  0  0  0  0  0
    1.8680   -1.9340   26.1870 C   0  0  0  0  0  0  0  0  0  0  0  0
    0.7720   -0.9170   26.2150 C   0  0  0  0  0  0  0  0  0  0  0  0
  1  2  1  0
  2  3  1  6
  1  4  1  0
  1  5  1  0
  4  6  1  0
  2  7  1  0
  5  8  2  0
  5  9  1  0
  3 10  1  0
  3 11  2  0
  7 12  2  0
  7 13  1  0
  8 14  1  0
  9 15  2  0
 14 15  1  0
 16  6  1  6
 15 17  1  0
 16 18  1  0
 13 19  2  0
 12 20  1  0
 10 21  1  0
 16 22  1  0
 16 23  1  0
 17 24  1  0
 17 25  1  0
 17 26  1  0
 18 27  2  0
 18 28  1  0
 19 29  1  0
 20 29  2  0
 21 30  2  0
 21 31  1  0
 22 32  1  0
 33 23  1  6
 30 34  1  0
 31 35  1  0
 33 36  1  0
 30 37  1  0
 31 38  2  0
 32 39  1  0
 33 39  1  0
 34 40  1  0
 36 41  1  1
 36 42  1  0
 39 43  1  6
 39 44  1  0
 37 45  2  0
 38 45  1  0
 42 46  1  6
 42 47  1  0
 41 48  1  0
 44 49  2  0
 44 50  2  0
 44 51  1  0
 48 52  2  0
 48 53  1  0
 51 54  2  0
 51 55  1  0
 54 56  1  0
 55 57  2  0
 56 58  2  0
 57 58  1  0
 58 59  1  0
M  END
