x0736-x2705
     RDKit          3D

 43 48  0  0  0  0  0  0  0  0999 V2000
    7.5980    2.2370   22.5650 N   0  0  0  0  0  0  0  0  0  0  0  0
    7.9750    1.2450   21.7940 C   0  0  0  0  0  0  0  0  0  0  0  0
    9.0060    1.1420   21.1460 O   0  0  0  0  0  0  0  0  0  0  0  0
    8.2550    3.5640   22.6390 C   0  0  2  0  0  0  0  0  0  0  0  0
    6.9400    0.0850   21.5990 C   0  0  1  0  0  0  0  0  0  0  0  0
    9.0920    3.6440   23.7150 C   0  0  1  0  0  0  0  0  0  0  0  0
    7.4140    4.6900   22.7370 C   0  0  2  0  0  0  0  0  0  0  0  0
    9.5140    2.3220   24.1790 C   0  0  0  0  0  0  0  0  0  0  0  0
    6.3170    4.3940   21.7500 C   0  0  0  0  0  0  0  0  0  0  0  0
    6.2670    0.4420   20.2980 C   0  0  0  0  0  0  0  0  0  0  0  0
   10.1380    4.6900   23.4930 C   0  0  0  0  0  0  0  0  0  0  0  0
    8.2520    5.9670   22.5740 C   0  0  0  0  0  0  0  0  0  0  0  0
    7.2450   -1.5030   21.8180 C   0  0  2  0  0  0  0  0  0  0  0  0
    8.5830    1.3590   24.8940 C   0  0  0  0  0  0  0  0  0  0  0  0
    5.0540    1.1090   20.2380 C   0  0  0  0  0  0  0  0  0  0  0  0
    6.9030    0.1020   19.1500 C   0  0  0  0  0  0  0  0  0  0  0  0
    8.5520   -2.1730   22.5670 C   0  0  2  0  0  0  0  0  0  0  0  0
    9.6140    5.8860   22.8900 C   0  0  0  0  0  0  0  0  0  0  0  0
    6.3790   -2.6180   21.2690 N   0  0  0  0  0  0  0  0  0  0  0  0
    6.3240   -3.1880   19.9600 C   0  0  0  0  0  0  0  0  0  0  0  0
    6.3620    0.4250   17.8510 N   0  0  0  0  0  0  0  0  0  0  0  0
    4.5130    1.4290   19.0000 C   0  0  0  0  0  0  0  0  0  0  0  0
    8.5880   -1.9480   23.8980 N   0  0  0  0  0  0  0  0  0  0  0  0
    9.8120   -1.6790   22.1290 C   0  0  0  0  0  0  0  0  0  0  0  0
    8.4110   -3.5480   22.7560 N   0  0  0  0  0  0  0  0  0  0  0  0
    6.0170   -3.5130   22.3810 C   0  0  0  0  0  0  0  0  0  0  0  0
    8.6930    0.1520   25.3570 C   0  0  2  0  0  0  0  0  0  0  0  0
    7.3140   -2.9070   18.8420 C   0  0  0  0  0  0  0  0  0  0  0  0
    5.4290   -4.0160   19.7060 O   0  0  0  0  0  0  0  0  0  0  0  0
    7.4690   -1.9780   24.8670 C   0  0  0  0  0  0  0  0  0  0  0  0
    5.1640    1.0950   17.8140 C   0  0  0  0  0  0  0  0  0  0  0  0
    9.9440   -2.0810   24.2880 N   0  0  0  0  0  0  0  0  0  0  0  0
   10.7500   -2.1580   23.0860 C   0  0  2  0  0  0  0  0  0  0  0  0
    7.1060   -4.2720   22.8270 C   0  0  0  0  0  0  0  0  0  0  0  0
    7.4220   -0.6640   25.6130 C   0  0  1  0  0  0  0  0  0  0  0  0
    9.3910    0.2440   26.5260 C   0  0  0  0  0  0  0  0  0  0  0  0
   12.1470   -1.5610   23.2160 C   0  0  0  0  0  0  0  0  0  0  0  0
    6.6840   -2.8990   25.0570 O   0  0  0  0  0  0  0  0  0  0  0  0
    7.4810   -0.8660   26.9930 C   0  0  0  0  0  0  0  0  0  0  0  0
    8.6170   -0.3190   27.5210 C   0  0  0  0  0  0  0  0  0  0  0  0
   12.2420   -0.0570   23.5100 C   0  0  0  0  0  0  0  0  0  0  0  0
   12.8750   -2.3420   24.3670 C   0  0  0  0  0  0  0  0  0  0  0  0
   12.8810   -1.7880   21.8790 C   0  0  0  0  0  0  0  0  0  0  0  0
  1  2  1  0
  2  3  2  0
  4  1  1  1
  2  5  1  0
  4  6  1  0
  4  7  1  0
  6  8  1  6
  7  9  1  6
  5 10  1  6
  6 11  1  0
  7 12  1  0
  5 13  1  0
  8 14  2  0
 10 15  2  0
 10 16  1  0
 13 17  1  0
 11 18  2  0
 12 18  1  0
 13 19  1  6
 19 20  1  0
 16 21  2  0
 15 22  1  0
 17 23  1  0
 17 24  1  6
 17 25  1  0
 19 26  1  0
 27 14  1  1
 20 28  1  0
 20 29  2  0
 23 30  1  0
 21 31  1  0
 22 31  2  0
 23 32  1  0
 24 33  1  0
 32 33  1  0
 25 34  1  0
 26 34  1  0
 27 35  1  0
 30 35  1  0
 27 36  1  0
 33 37  1  1
 30 38  2  0
 35 39  1  1
 36 40  1  0
 39 40  2  0
 37 41  1  0
 37 42  1  0
 37 43  1  0
M  END
