x0736-x2581
     RDKit          3D

 38 42  0  0  0  0  0  0  0  0999 V2000
   10.0950   -2.5940   23.1260 C   0  0  0  0  0  0  0  0  0  0  0  0
    9.7670   -1.3450   23.8180 O   0  0  0  0  0  0  0  0  0  0  0  0
   10.0490   -0.0800   23.2920 C   0  0  0  0  0  0  0  0  0  0  0  0
    8.7940   -3.4720   22.9360 C   0  0  2  0  0  0  0  0  0  0  0  0
    7.7250   -2.9130   22.1710 C   0  0  0  0  0  0  0  0  0  0  0  0
    8.2020   -4.3580   24.0090 N   0  0  0  0  0  0  0  0  0  0  0  0
    7.4360   -3.8350   25.1320 C   0  0  0  0  0  0  0  0  0  0  0  0
   11.0480    1.0430   23.4330 C   0  0  0  0  0  0  0  0  0  0  0  0
    9.4150    0.5520   22.4060 C   0  0  0  0  0  0  0  0  0  0  0  0
    6.8440   -4.0200   21.4740 N   0  0  0  0  0  0  0  0  0  0  0  0
    7.7170   -5.5630   23.3480 C   0  0  0  0  0  0  0  0  0  0  0  0
    6.3480   -3.8390   20.1470 C   0  0  0  0  0  0  0  0  0  0  0  0
    6.2230   -4.0470   25.1780 O   0  0  0  0  0  0  0  0  0  0  0  0
   10.9250    2.3510   22.5590 C   0  0  0  0  0  0  0  0  0  0  0  0
    8.7650    1.1980   21.5000 C   0  0  0  0  0  0  0  0  0  0  0  0
    6.6950   -5.3040   22.1720 C   0  0  0  0  0  0  0  0  0  0  0  0
    7.9660   -3.0450   26.2600 C   0  0  0  0  0  0  0  0  0  0  0  0
   11.8930    3.4190   22.7080 N   0  0  0  0  0  0  0  0  0  0  0  0
    7.2220   -3.1920   19.0470 C   0  0  0  0  0  0  0  0  0  0  0  0
    5.2350   -4.2550   19.8150 O   0  0  0  0  0  0  0  0  0  0  0  0
    9.6580    2.3730   21.5210 N   0  0  0  0  0  0  0  0  0  0  0  0
    8.2830   -1.6730   26.1700 O   0  0  0  0  0  0  0  0  0  0  0  0
    8.2620   -3.3410   27.5870 C   0  0  0  0  0  0  0  0  0  0  0  0
   11.8400    4.5710   23.4840 C   0  0  0  0  0  0  0  0  0  0  0  0
    8.7230   -2.2920   28.3060 C   0  0  0  0  0  0  0  0  0  0  0  0
    8.7420   -1.2330   27.4120 C   0  0  0  0  0  0  0  0  0  0  0  0
   11.6650    4.6070   24.7000 O   0  0  0  0  0  0  0  0  0  0  0  0
   12.0130    5.8610   22.6760 C   0  0  0  0  0  0  0  0  0  0  0  0
   11.2160    7.0090   23.2980 C   0  0  0  0  0  0  0  0  0  0  0  0
    9.8910    7.3170   22.8330 C   0  0  0  0  0  0  0  0  0  0  0  0
   11.7910    7.7860   24.3630 C   0  0  0  0  0  0  0  0  0  0  0  0
    9.1350    8.3710   23.4150 C   0  0  0  0  0  0  0  0  0  0  0  0
   10.9990    8.8280   24.9160 C   0  0  0  0  0  0  0  0  0  0  0  0
    9.6930    9.1450   24.4690 C   0  0  0  0  0  0  0  0  0  0  0  0
   11.6490    9.6070   26.0260 C   0  0  0  0  0  0  0  0  0  0  0  0
    9.0180   10.2320   25.1240 C   0  0  0  0  0  0  0  0  0  0  0  0
   10.9470   10.6550   26.6240 C   0  0  0  0  0  0  0  0  0  0  0  0
    9.6350   10.9690   26.1800 C   0  0  0  0  0  0  0  0  0  0  0  0
  1  2  1  0
  2  3  1  0
  4  1  1  1
  4  5  1  0
  4  6  1  0
  6  7  1  0
  3  8  2  0
  3  9  1  0
  5 10  1  0
  6 11  1  0
 10 12  1  0
  7 13  2  0
  8 14  1  0
  9 15  2  0
 10 16  1  0
 11 16  1  0
  7 17  1  0
 14 18  1  0
 12 19  1  0
 12 20  2  0
 14 21  2  0
 15 21  1  0
 17 22  1  0
 17 23  2  0
 18 24  1  0
 23 25  1  0
 22 26  1  0
 25 26  2  0
 24 27  2  0
 24 28  1  0
 28 29  1  0
 29 30  2  0
 29 31  1  0
 30 32  1  0
 31 33  2  0
 32 34  2  0
 33 34  1  0
 33 35  1  0
 34 36  1  0
 35 37  2  0
 36 38  2  0
 37 38  1  0
M  END
