x0736-x3298
     RDKit          3D

 44 49  0  0  0  0  0  0  0  0999 V2000
    7.4350    1.6330   22.7590 N   0  0  0  0  0  0  0  0  0  0  0  0
    7.8670    0.8890   21.6950 C   0  0  0  0  0  0  0  0  0  0  0  0
    6.9580   -0.3220   21.3830 C   0  0  1  0  0  0  0  0  0  0  0  0
    8.2310    2.6990   23.1190 C   0  0  0  0  0  0  0  0  0  0  0  0
    8.8490    1.2160   21.0320 O   0  0  0  0  0  0  0  0  0  0  0  0
    8.1340    3.9740   22.5470 C   0  0  0  0  0  0  0  0  0  0  0  0
    9.1700    2.3990   24.0940 C   0  0  0  0  0  0  0  0  0  0  0  0
    5.8920   -0.3710   22.3290 O   0  0  0  0  0  0  0  0  0  0  0  0
    9.2900    1.0720   24.7640 N   0  0  0  0  0  0  0  0  0  0  0  0
    6.3310    0.2080   20.1350 C   0  0  0  0  0  0  0  0  0  0  0  0
    9.0090    4.9760   22.9530 C   0  0  0  0  0  0  0  0  0  0  0  0
   10.0380    3.4100   24.4590 C   0  0  0  0  0  0  0  0  0  0  0  0
    7.4360   -1.8120   21.4590 C   0  0  2  0  0  0  0  0  0  0  0  0
   10.5380   -0.0650   24.8100 S   0  0  0  0  0  0  0  0  0  0  0  0
    6.9410    0.0570   18.9150 C   0  0  0  0  0  0  0  0  0  0  0  0
    5.1170    0.8900   20.1730 C   0  0  0  0  0  0  0  0  0  0  0  0
    9.9700    4.6900   23.9090 C   0  0  0  0  0  0  0  0  0  0  0  0
    6.6210   -2.7890   21.1420 N   0  0  0  0  0  0  0  0  0  0  0  0
    8.2790   -2.1290   22.5780 C   0  0  0  0  0  0  0  0  0  0  0  0
    8.1870    0.3660   25.3780 C   0  0  1  0  0  0  0  0  0  0  0  0
   11.3630   -0.1950   25.9290 O   0  0  0  0  0  0  0  0  0  0  0  0
    9.5030   -1.1260   24.9390 N   0  0  0  0  0  0  0  0  0  0  0  0
    6.3730   -3.3380   19.9090 C   0  0  0  0  0  0  0  0  0  0  0  0
    6.3570    0.6050   17.7050 N   0  0  0  0  0  0  0  0  0  0  0  0
    4.5730    1.4050   18.9870 C   0  0  0  0  0  0  0  0  0  0  0  0
   11.4780   -0.5180   23.4930 C   0  0  0  0  0  0  0  0  0  0  0  0
    7.7060   -3.0610   23.4960 N   0  0  0  0  0  0  0  0  0  0  0  0
    5.9130   -3.4600   22.2730 C   0  0  0  0  0  0  0  0  0  0  0  0
    8.9420   -0.6030   26.0780 C   0  0  2  0  0  0  0  0  0  0  0  0
    7.4370    0.9250   26.5600 C   0  0  0  0  0  0  0  0  0  0  0  0
    7.3670   -3.0850   18.7940 C   0  0  0  0  0  0  0  0  0  0  0  0
    5.4040   -4.0750   19.6980 O   0  0  0  0  0  0  0  0  0  0  0  0
    7.4000   -2.7660   24.8490 C   0  0  0  0  0  0  0  0  0  0  0  0
    5.2090    1.2590   17.7610 C   0  0  0  0  0  0  0  0  0  0  0  0
   12.5690    0.2700   23.3110 C   0  0  0  0  0  0  0  0  0  0  0  0
   11.1670   -1.6130   22.7300 C   0  0  0  0  0  0  0  0  0  0  0  0
    6.9040   -4.1250   22.9710 C   0  0  0  0  0  0  0  0  0  0  0  0
    8.2660   -1.2420   27.0360 C   0  0  0  0  0  0  0  0  0  0  0  0
    7.3250   -0.3730   27.4170 C   0  0  0  0  0  0  0  0  0  0  0  0
    6.2980   -2.3250   25.1980 O   0  0  0  0  0  0  0  0  0  0  0  0
   13.4010   -0.0590   22.3170 C   0  0  0  0  0  0  0  0  0  0  0  0
   12.0070   -1.9470   21.7220 C   0  0  0  0  0  0  0  0  0  0  0  0
   13.1210   -1.1710   21.5250 C   0  0  0  0  0  0  0  0  0  0  0  0
   13.9300   -1.4870   20.5460 F   0  0  0  0  0  0  0  0  0  0  0  0
  1  2  1  0
  2  3  1  0
  1  4  1  0
  2  5  2  0
  4  6  2  0
  4  7  1  0
  3  8  1  1
  7  9  1  0
  3 10  1  0
  6 11  1  0
  7 12  2  0
  3 13  1  0
  9 14  1  0
 10 15  2  0
 10 16  1  0
 11 17  2  0
 12 17  1  0
 13 18  1  0
 13 19  1  1
  9 20  1  0
 14 21  2  0
 14 22  1  0
 18 23  1  0
 15 24  1  0
 16 25  2  0
 14 26  1  0
 19 27  1  0
 18 28  1  0
 20 29  1  0
 22 29  1  0
 20 30  1  1
 23 31  1  0
 23 32  2  0
 27 33  1  0
 24 34  2  0
 25 34  1  0
 26 35  2  0
 26 36  1  0
 27 37  1  0
 28 37  1  0
 29 38  1  6
 30 39  1  0
 38 39  2  0
 33 40  2  0
 35 41  1  0
 36 42  2  0
 41 43  2  0
 42 43  1  0
 43 44  1  0
M  END
