x0734-x0967
     RDKit          3D

 39 41  0  0  0  0  0  0  0  0999 V2000
    7.5210    4.8490   22.3720 C   0  0  0  0  0  0  0  0  0  0  0  0
    7.0210    3.5690   23.1150 C   0  0  0  0  0  0  0  0  0  0  0  0
    8.0150    2.6370   23.2190 N   0  0  0  0  0  0  0  0  0  0  0  0
    5.8800    3.4550   23.5550 O   0  0  0  0  0  0  0  0  0  0  0  0
    7.7630    1.2000   23.3500 C   0  0  1  0  0  0  0  0  0  0  0  0
    6.4040    0.7080   22.7920 C   0  0  0  0  0  0  0  0  0  0  0  0
    8.9420    0.4860   22.6870 C   0  0  0  0  0  0  0  0  0  0  0  0
    9.6270   -0.6260   23.3610 N   0  0  0  0  0  0  0  0  0  0  0  0
    9.4300    0.9010   21.4230 O   0  0  0  0  0  0  0  0  0  0  0  0
    6.2340    0.7510   21.3000 C   0  0  0  0  0  0  0  0  0  0  0  0
    9.6790   -1.7980   22.5180 C   0  0  1  0  0  0  0  0  0  0  0  0
    7.1030   -0.0790   20.4110 C   0  0  0  0  0  0  0  0  0  0  0  0
    5.2640    1.5640   20.6960 C   0  0  0  0  0  0  0  0  0  0  0  0
   11.0060   -1.8550   22.0750 C   0  0  0  0  0  0  0  0  0  0  0  0
    9.1950   -2.8560   23.3160 C   0  0  0  0  0  0  0  0  0  0  0  0
    6.9540   -0.0490   18.9330 C   0  0  0  0  0  0  0  0  0  0  0  0
    5.1100    1.6040   19.2960 C   0  0  0  0  0  0  0  0  0  0  0  0
   12.0300   -2.0160   23.0120 C   0  0  0  0  0  0  0  0  0  0  0  0
    5.8720    0.8720   18.3660 C   0  0  0  0  0  0  0  0  0  0  0  0
    7.6620   -3.0950   23.1900 C   0  0  2  0  0  0  0  0  0  0  0  0
    5.7100    0.9310   16.9900 O   0  0  0  0  0  0  0  0  0  0  0  0
   13.3380   -2.2700   24.3520 Br  0  0  0  0  0  0  0  0  0  0  0  0
    7.3680   -4.4690   23.7290 N   0  0  0  0  0  0  0  0  0  0  0  0
    7.3640   -3.0220   21.8460 C   0  0  0  0  0  0  0  0  0  0  0  0
    7.6390   -4.7490   25.1550 C   0  0  0  0  0  0  0  0  0  0  0  0
    6.5260   -4.0600   21.2410 N   0  0  0  0  0  0  0  0  0  0  0  0
    6.2200   -5.2430   23.2110 C   0  0  0  0  0  0  0  0  0  0  0  0
    6.1100   -3.8160   19.9510 C   0  0  0  0  0  0  0  0  0  0  0  0
    6.6410   -4.9250   26.3050 C   0  0  0  0  0  0  0  0  0  0  0  0
    8.9920   -4.8580   25.4250 C   0  0  0  0  0  0  0  0  0  0  0  0
    6.4650   -5.3810   21.8580 C   0  0  0  0  0  0  0  0  0  0  0  0
    5.2050   -4.7950   26.0170 N   0  0  0  0  0  0  0  0  0  0  0  0
    5.0010   -4.1680   19.6080 O   0  0  0  0  0  0  0  0  0  0  0  0
    7.0770   -3.1320   18.9870 C   0  0  0  0  0  0  0  0  0  0  0  0
    9.4750   -5.1420   26.7800 C   0  0  0  0  0  0  0  0  0  0  0  0
    7.1310   -5.2190   27.6930 C   0  0  0  0  0  0  0  0  0  0  0  0
    4.6350   -5.7570   25.4900 O   0  0  0  0  0  0  0  0  0  0  0  0
    4.6190   -3.8600   26.5830 O   0  0  0  0  0  0  0  0  0  0  0  0
    8.4970   -5.3250   27.9200 C   0  0  0  0  0  0  0  0  0  0  0  0
  1  2  1  0
  2  3  1  0
  2  4  2  0
  3  5  1  0
  5  6  1  6
  5  7  1  0
  7  8  1  0
  7  9  2  0
  6 10  1  0
  8 11  1  0
 10 12  2  0
 10 13  1  0
 11 14  1  1
 11 15  1  0
 12 16  1  0
 13 17  2  0
 14 18  3  0
 16 19  2  0
 17 19  1  0
 20 15  1  6
 19 21  1  0
 18 22  1  0
 20 23  1  0
 20 24  1  0
 23 25  1  0
 24 26  1  0
 23 27  1  0
 26 28  1  0
 25 29  2  0
 25 30  1  0
 26 31  1  0
 27 31  1  0
 29 32  1  0
 28 33  2  0
 28 34  1  0
 30 35  2  0
 29 36  1  0
 32 37  2  0
 32 38  1  0
 35 39  1  0
 36 39  2  0
M  CHG  2  32   1  38  -1
M  END
