x0734-x1382
     RDKit          3D

 30 34  0  0  0  0  0  0  0  0999 V2000
    5.1160   -4.7330   26.3580 N   0  0  0  0  0  0  0  0  0  0  0  0
    6.4240   -5.0360   26.4820 C   0  0  0  0  0  0  0  0  0  0  0  0
    6.9280   -5.5550   27.6780 C   0  0  0  0  0  0  0  0  0  0  0  0
    4.3930   -5.4930   25.6940 O   0  0  0  0  0  0  0  0  0  0  0  0
    4.7500   -3.6450   26.8250 O   0  0  0  0  0  0  0  0  0  0  0  0
    7.2270   -4.8040   25.3580 C   0  0  0  0  0  0  0  0  0  0  0  0
    8.6350   -5.1020   25.3490 C   0  0  0  0  0  0  0  0  0  0  0  0
    8.4280   -5.8730   27.7130 C   0  0  0  0  0  0  0  0  0  0  0  0
    6.6600   -4.2320   24.1470 N   0  0  0  0  0  0  0  0  0  0  0  0
    9.2340   -5.6190   26.4760 C   0  0  0  0  0  0  0  0  0  0  0  0
    5.7880   -5.1850   23.3670 C   0  0  0  0  0  0  0  0  0  0  0  0
    7.6490   -3.3580   23.4820 C   0  0  2  0  0  0  0  0  0  0  0  0
    7.6000   -1.8740   23.6610 C   0  0  0  0  0  0  0  0  0  0  0  0
    6.2130   -5.3360   21.8840 C   0  0  0  0  0  0  0  0  0  0  0  0
    7.8100   -3.8210   22.0660 C   0  0  2  0  0  0  0  0  0  0  0  0
    8.7040   -2.0660   22.6300 C   0  0  1  0  0  0  0  0  0  0  0  0
    8.3420   -2.6280   21.6370 N   0  0  0  0  0  0  0  0  0  0  0  0
    6.6700   -4.1720   21.4290 N   0  0  0  0  0  0  0  0  0  0  0  0
    6.3420   -3.8200   20.1290 C   0  0  0  0  0  0  0  0  0  0  0  0
    7.8920   -2.0300   20.3700 C   0  0  0  0  0  0  0  0  0  0  0  0
    9.8940   -1.1590   22.6900 C   0  0  0  0  0  0  0  0  0  0  0  0
    5.2380   -4.0920   19.6720 O   0  0  0  0  0  0  0  0  0  0  0  0
    7.4200   -3.1070   19.3410 C   0  0  0  0  0  0  0  0  0  0  0  0
    7.8940   -0.7960   20.2400 O   0  0  0  0  0  0  0  0  0  0  0  0
   11.0540   -1.7600   22.0450 C   0  0  0  0  0  0  0  0  0  0  0  0
   10.0700    0.1210   23.2600 C   0  0  0  0  0  0  0  0  0  0  0  0
   12.2260   -1.1230   22.0050 C   0  0  0  0  0  0  0  0  0  0  0  0
   11.3440    0.7070   23.1690 C   0  0  0  0  0  0  0  0  0  0  0  0
   13.4260   -1.9050   21.2050 Cl  0  0  0  0  0  0  0  0  0  0  0  0
   12.3690    0.1210   22.5850 C   0  0  0  0  0  0  0  0  0  0  0  0
  1  2  1  0
  2  3  2  0
  1  4  2  0
  1  5  1  0
  2  6  1  0
  6  7  2  0
  3  8  1  0
  6  9  1  0
  7 10  1  0
  8 10  2  0
  9 11  1  0
  9 12  1  0
 12 13  1  6
 11 14  1  0
 12 15  1  0
 13 16  1  0
 15 17  1  6
 16 17  1  0
 14 18  1  0
 15 18  1  0
 18 19  1  0
 17 20  1  0
 16 21  1  6
 19 22  2  0
 19 23  1  0
 20 23  1  0
 20 24  2  0
 21 25  2  0
 21 26  1  0
 25 27  1  0
 26 28  2  0
 27 29  1  0
 27 30  2  0
 28 30  1  0
M  CHG  2   1   1   5  -1
M  END
