x0736-x2912
     RDKit          3D

 35 39  0  0  0  0  0  0  0  0999 V2000
    7.2040   -0.5750   21.2670 N   0  0  0  0  0  0  0  0  0  0  0  0
    8.2770    0.3420   21.6210 C   0  0  0  0  0  0  0  0  0  0  0  0
    8.5900    1.4330   21.1090 O   0  0  0  0  0  0  0  0  0  0  0  0
    6.4500    0.0020   20.1290 C   0  0  0  0  0  0  0  0  0  0  0  0
    7.4280   -1.9960   21.6630 C   0  0  2  0  0  0  0  0  0  0  0  0
    8.9410   -0.3350   22.7230 C   0  0  2  0  0  0  0  0  0  0  0  0
    5.2310    0.6900   20.2640 C   0  0  0  0  0  0  0  0  0  0  0  0
    6.8870   -0.0430   18.7980 C   0  0  0  0  0  0  0  0  0  0  0  0
    6.3150   -2.9140   21.2980 N   0  0  0  0  0  0  0  0  0  0  0  0
    7.9040   -2.2850   23.0370 C   0  0  1  0  0  0  0  0  0  0  0  0
    7.9560   -0.8830   23.7150 C   0  0  2  0  0  0  0  0  0  0  0  0
    4.5790    0.8670   21.6020 C   0  0  0  0  0  0  0  0  0  0  0  0
    6.2400   -3.4070   19.9890 C   0  0  0  0  0  0  0  0  0  0  0  0
    6.2450    0.4970   17.7660 N   0  0  0  0  0  0  0  0  0  0  0  0
    4.5590    1.2530   19.1870 C   0  0  0  0  0  0  0  0  0  0  0  0
   10.3900   -0.1420   22.8740 C   0  0  0  0  0  0  0  0  0  0  0  0
    7.0910   -3.1730   23.9060 N   0  0  0  0  0  0  0  0  0  0  0  0
    5.6940   -3.5970   22.2770 C   0  0  0  0  0  0  0  0  0  0  0  0
    6.8330   -0.5040   23.4430 O   0  0  0  0  0  0  0  0  0  0  0  0
    7.2770   -3.0240   18.9160 C   0  0  0  0  0  0  0  0  0  0  0  0
    5.3290   -4.1850   19.7190 O   0  0  0  0  0  0  0  0  0  0  0  0
    5.1080    1.1390   17.9300 C   0  0  0  0  0  0  0  0  0  0  0  0
   11.0160    0.8610   23.5680 C   0  0  0  0  0  0  0  0  0  0  0  0
   11.1170   -1.1140   22.1910 C   0  0  0  0  0  0  0  0  0  0  0  0
    6.4930   -4.2620   23.1810 C   0  0  0  0  0  0  0  0  0  0  0  0
    7.9230   -0.5280   25.2320 C   0  0  0  0  0  0  0  0  0  0  0  0
   12.3870    0.8650   23.5470 C   0  0  0  0  0  0  0  0  0  0  0  0
   12.4770   -1.0880   22.1870 C   0  0  0  0  0  0  0  0  0  0  0  0
    7.7380   -1.6010   26.1720 C   0  0  0  0  0  0  0  0  0  0  0  0
    9.0930    0.2510   25.8970 C   0  0  0  0  0  0  0  0  0  0  0  0
   13.0860   -2.1190   21.4500 C   0  0  0  0  0  0  0  0  0  0  0  0
   13.1280   -0.0870   22.8700 C   0  0  0  0  0  0  0  0  0  0  0  0
    8.6150   -1.4820   27.3860 C   0  0  0  0  0  0  0  0  0  0  0  0
    9.3980   -0.4150   27.2280 C   0  0  0  0  0  0  0  0  0  0  0  0
   13.5310   -3.1450   20.7180 N   0  0  0  0  0  0  0  0  0  0  0  0
  1  2  1  0
  2  3  2  0
  1  4  1  0
  5  1  1  1
  2  6  1  0
  4  7  2  0
  4  8  1  0
  5  9  1  0
  5 10  1  0
  6 11  1  0
 10 11  1  0
  7 12  1  0
  9 13  1  0
  8 14  2  0
  7 15  1  0
  6 16  1  1
 10 17  1  1
  9 18  1  0
 11 19  1  6
 13 20  1  0
 13 21  2  0
 14 22  1  0
 15 22  2  0
 16 23  2  0
 16 24  1  0
 17 25  1  0
 18 25  1  0
 11 26  1  0
 23 27  1  0
 24 28  2  0
 26 29  1  0
 26 30  1  0
 28 31  1  0
 27 32  2  0
 28 32  1  0
 29 33  2  0
 30 34  2  0
 33 34  1  0
 31 35  3  0
M  END
