x0734-x0708
     RDKit          3D

 28 31  0  0  0  0  0  0  0  0999 V2000
    7.5250   -3.1120   19.0080 C   0  0  0  0  0  0  0  0  0  0  0  0
    6.3930   -3.7220   19.9230 C   0  0  0  0  0  0  0  0  0  0  0  0
    5.2520   -3.9220   19.5350 O   0  0  0  0  0  0  0  0  0  0  0  0
    6.7110   -4.0650   21.2320 N   0  0  0  0  0  0  0  0  0  0  0  0
    6.7130   -5.3840   21.6190 C   0  0  0  0  0  0  0  0  0  0  0  0
    7.4370   -3.0700   22.0350 C   0  0  1  0  0  0  0  0  0  0  0  0
    6.1530   -5.4620   22.9060 C   0  0  0  0  0  0  0  0  0  0  0  0
    6.7660   -3.2920   23.3770 C   0  0  0  0  0  0  0  0  0  0  0  0
    8.9850   -3.1120   22.0720 C   0  0  0  0  0  0  0  0  0  0  0  0
    6.9870   -4.5590   23.6900 N   0  0  0  0  0  0  0  0  0  0  0  0
    9.5400   -1.9700   22.8250 C   0  0  0  0  0  0  0  0  0  0  0  0
    7.3440   -4.9320   25.0390 C   0  0  0  0  0  0  0  0  0  0  0  0
    8.7120   -1.1870   23.7900 C   0  0  0  0  0  0  0  0  0  0  0  0
   10.9290   -1.3510   22.8280 C   0  0  0  0  0  0  0  0  0  0  0  0
    6.4860   -5.0760   26.2870 C   0  0  0  0  0  0  0  0  0  0  0  0
    8.7180   -5.1880   25.1630 C   0  0  0  0  0  0  0  0  0  0  0  0
   10.9220   -0.1920   23.8120 C   0  0  0  0  0  0  0  0  0  0  0  0
    9.4670    0.1320   24.6370 S   0  0  0  0  0  0  0  0  0  0  0  0
   12.2030   -1.6300   22.1260 C   0  0  0  0  0  0  0  0  0  0  0  0
    5.3310   -4.8920   26.3020 N   0  0  0  0  0  0  0  0  0  0  0  0
    9.2920   -5.5640   26.3800 C   0  0  0  0  0  0  0  0  0  0  0  0
    7.1700   -5.4870   27.5950 C   0  0  0  0  0  0  0  0  0  0  0  0
   13.1990   -0.6760   22.4770 C   0  0  0  0  0  0  0  0  0  0  0  0
   12.1180    0.6330   24.0560 C   0  0  0  0  0  0  0  0  0  0  0  0
    4.6280   -5.6620   25.6230 O   0  0  0  0  0  0  0  0  0  0  0  0
    4.9240   -3.8520   26.8420 O   0  0  0  0  0  0  0  0  0  0  0  0
    8.5490   -5.7080   27.5640 C   0  0  0  0  0  0  0  0  0  0  0  0
   12.8100    0.6290   22.9170 C   0  0  0  0  0  0  0  0  0  0  0  0
  1  2  1  0
  2  3  2  0
  2  4  1  0
  4  5  1  0
  4  6  1  0
  5  7  1  0
  6  8  1  0
  6  9  1  1
  7 10  1  0
  8 10  1  0
  9 11  1  0
 10 12  1  0
 11 13  2  0
 11 14  1  0
 12 15  2  0
 12 16  1  0
 14 17  2  0
 13 18  1  0
 17 18  1  0
 14 19  1  0
 15 20  1  0
 16 21  2  0
 15 22  1  0
 19 23  1  0
 17 24  1  0
 20 25  2  0
 20 26  1  0
 21 27  1  0
 22 27  2  0
 23 28  1  0
 24 28  1  0
M  CHG  2  20   1  26  -1
M  END
