x0731-x2694-x2649
     RDKit          3D

 51 55  0  0  0  0  0  0  0  0999 V2000
    8.0830   -0.8240   21.6010 N   0  0  0  0  0  0  0  0  0  0  0  0
    7.1390    0.3150   21.5710 C   0  0  1  0  0  0  0  0  0  0  0  0
    8.0230    1.5810   21.7000 C   0  0  0  0  0  0  0  0  0  0  0  0
    9.0750   -0.8090   22.5930 C   0  0  1  0  0  0  0  0  0  0  0  0
    6.3660    0.6020   20.2930 C   0  0  0  0  0  0  0  0  0  0  0  0
    9.2360   -2.0690   23.2210 N   0  0  0  0  0  0  0  0  0  0  0  0
   10.3870   -0.6770   22.2650 C   0  0  0  0  0  0  0  0  0  0  0  0
    7.6240    2.5050   22.5830 N   0  0  0  0  0  0  0  0  0  0  0  0
    9.0390    1.7410   21.0320 O   0  0  0  0  0  0  0  0  0  0  0  0
    7.9940   -2.4920   23.7770 C   0  0  0  0  0  0  0  0  0  0  0  0
    5.1820    1.3360   20.2770 C   0  0  0  0  0  0  0  0  0  0  0  0
    6.9530    0.0780   19.1380 C   0  0  0  0  0  0  0  0  0  0  0  0
   10.3150   -1.8760   24.1600 O   0  0  0  0  0  0  0  0  0  0  0  0
   11.1390   -0.9650   23.4140 C   0  0  1  0  0  0  0  0  0  0  0  0
   12.4780   -1.3580   23.2970 C   0  0  0  0  0  0  0  0  0  0  0  0
    4.5990    1.8370   21.4370 C   0  0  0  0  0  0  0  0  0  0  0  0
    7.4230   -3.0460   22.6680 C   0  0  0  0  0  0  0  0  0  0  0  0
    6.3570    0.2990   17.8240 N   0  0  0  0  0  0  0  0  0  0  0  0
    4.5810    1.5710   19.0630 C   0  0  0  0  0  0  0  0  0  0  0  0
    8.4810    3.6130   22.9600 C   0  0  0  0  0  0  0  0  0  0  0  0
   13.1250    0.0120   23.2160 C   0  0  0  0  0  0  0  0  0  0  0  0
   12.8360   -2.1400   21.9950 C   0  0  0  0  0  0  0  0  0  0  0  0
   12.9660   -2.1410   24.5370 C   0  0  0  0  0  0  0  0  0  0  0  0
    5.1330    1.0910   17.8970 C   0  0  0  0  0  0  0  0  0  0  0  0
    9.6920    3.4370   23.6260 C   0  0  0  0  0  0  0  0  0  0  0  0
    8.1650    4.9470   22.6740 C   0  0  0  0  0  0  0  0  0  0  0  0
    7.0660   -4.3940   22.9540 C   0  0  2  0  0  0  0  0  0  0  0  0
   10.2910    2.0920   24.0690 C   0  0  0  0  0  0  0  0  0  0  0  0
   10.5050    4.5230   23.9600 C   0  0  0  0  0  0  0  0  0  0  0  0
    8.9850    6.0220   23.0250 C   0  0  0  0  0  0  0  0  0  0  0  0
    6.5610   -5.1860   21.8050 N   0  0  0  0  0  0  0  0  0  0  0  0
    6.0140   -4.2150   23.9990 C   0  0  0  0  0  0  0  0  0  0  0  0
    6.1640   -4.7280   20.5460 C   0  0  0  0  0  0  0  0  0  0  0  0
   10.1970    5.8550   23.6890 C   0  0  0  0  0  0  0  0  0  0  0  0
    5.7470   -5.5700   24.4070 N   0  0  0  0  0  0  0  0  0  0  0  0
    5.9810   -6.4720   22.2390 C   0  0  0  0  0  0  0  0  0  0  0  0
   10.9350    6.9590   23.9990 O   0  0  0  0  0  0  0  0  0  0  0  0
    5.2730   -5.3140   19.9900 O   0  0  0  0  0  0  0  0  0  0  0  0
    6.8010   -3.5570   19.8140 C   0  0  0  0  0  0  0  0  0  0  0  0
    5.0900   -5.6380   25.9060 S   0  0  0  0  0  0  0  0  0  0  0  0
    5.1970   -6.2980   23.3980 C   0  0  0  0  0  0  0  0  0  0  0  0
   11.8990    6.7940   25.0370 C   0  0  0  0  0  0  0  0  0  0  0  0
    6.1310   -5.3210   26.8520 O   0  0  0  0  0  0  0  0  0  0  0  0
    4.3290   -6.8520   25.9990 O   0  0  0  0  0  0  0  0  0  0  0  0
    3.9590   -4.2720   25.9430 C   0  0  0  0  0  0  0  0  0  0  0  0
    2.6810   -4.3840   25.4060 C   0  0  0  0  0  0  0  0  0  0  0  0
    4.3600   -3.0570   26.5330 C   0  0  0  0  0  0  0  0  0  0  0  0
    1.8150   -3.3280   25.4640 C   0  0  0  0  0  0  0  0  0  0  0  0
    3.4390   -1.9960   26.5720 C   0  0  0  0  0  0  0  0  0  0  0  0
    2.1510   -2.1200   26.0440 C   0  0  0  0  0  0  0  0  0  0  0  0
    1.1790   -0.9880   26.1140 C   0  0  0  0  0  0  0  0  0  0  0  0
  2  1  1  6
  2  3  1  0
  4  1  1  6
  2  5  1  0
  4  6  1  0
  4  7  1  0
  3  8  1  0
  3  9  2  0
  6 10  1  0
  5 11  2  0
  5 12  1  0
  6 13  1  0
  7 14  1  0
 13 14  1  0
 14 15  1  6
 11 16  1  0
 10 17  1  0
 12 18  2  0
 11 19  1  0
  8 20  1  0
 15 21  1  0
 15 22  1  0
 15 23  1  0
 18 24  1  0
 19 24  2  0
 20 25  2  0
 20 26  1  0
 27 17  1  6
 25 28  1  0
 25 29  1  0
 26 30  2  0
 27 31  1  0
 27 32  1  0
 31 33  1  0
 29 34  2  0
 30 34  1  0
 32 35  1  0
 31 36  1  0
 34 37  1  0
 33 38  2  0
 33 39  1  0
 35 40  1  0
 35 41  1  0
 36 41  1  0
 37 42  1  0
 40 43  2  0
 40 44  2  0
 40 45  1  0
 45 46  2  0
 45 47  1  0
 46 48  1  0
 47 49  2  0
 48 50  2  0
 49 50  1  0
 50 51  1  0
M  END
