x0736-x2776
     RDKit          3D

 44 48  0  0  0  0  0  0  0  0999 V2000
    7.7390    2.0840   22.6890 N   0  0  0  0  0  0  0  0  0  0  0  0
    8.0340    1.1730   21.6900 C   0  0  0  0  0  0  0  0  0  0  0  0
    9.0220    1.3100   21.0020 O   0  0  0  0  0  0  0  0  0  0  0  0
    8.5350    3.2210   23.0210 C   0  0  0  0  0  0  0  0  0  0  0  0
    6.9950   -0.0010   21.4750 C   0  0  1  0  0  0  0  0  0  0  0  0
    9.8350    3.1120   23.5350 C   0  0  0  0  0  0  0  0  0  0  0  0
    7.9990    4.4860   22.8210 C   0  0  0  0  0  0  0  0  0  0  0  0
   10.4890    1.7850   23.7770 C   0  0  0  0  0  0  0  0  0  0  0  0
    6.2630    0.5070   20.2370 C   0  0  0  0  0  0  0  0  0  0  0  0
   10.6470    4.3130   23.8710 C   0  0  0  0  0  0  0  0  0  0  0  0
    8.7890    5.5810   23.1540 C   0  0  0  0  0  0  0  0  0  0  0  0
    7.5740   -1.4960   21.3990 C   0  0  1  0  0  0  0  0  0  0  0  0
    5.0770    1.2320   20.3250 C   0  0  0  0  0  0  0  0  0  0  0  0
    6.8430    0.2210   19.0110 C   0  0  0  0  0  0  0  0  0  0  0  0
   10.0200    5.5390   23.6460 C   0  0  0  0  0  0  0  0  0  0  0  0
    8.5250   -2.0360   22.3060 C   0  0  1  0  0  0  0  0  0  0  0  0
    6.5960   -2.6640   21.1500 N   0  0  0  0  0  0  0  0  0  0  0  0
   10.6020    6.7520   23.9090 O   0  0  0  0  0  0  0  0  0  0  0  0
    6.4290   -3.2990   19.9070 C   0  0  0  0  0  0  0  0  0  0  0  0
    6.3380    0.6220   17.7480 N   0  0  0  0  0  0  0  0  0  0  0  0
    4.4860    1.6880   19.0080 C   0  0  0  0  0  0  0  0  0  0  0  0
    9.6630   -2.4170   21.6180 C   0  0  0  0  0  0  0  0  0  0  0  0
    8.7980   -1.2670   23.5340 C   0  0  1  0  0  0  0  0  0  0  0  0
    8.1940   -3.4410   22.8720 N   0  0  0  0  0  0  0  0  0  0  0  0
    6.0000   -3.2950   22.3180 C   0  0  0  0  0  0  0  0  0  0  0  0
   11.7490    6.7260   24.7620 C   0  0  0  0  0  0  0  0  0  0  0  0
    7.4240   -3.0680   18.7680 C   0  0  0  0  0  0  0  0  0  0  0  0
    5.4890   -4.0890   19.7170 O   0  0  0  0  0  0  0  0  0  0  0  0
    7.7170   -1.3240   24.5980 C   0  0  0  0  0  0  0  0  0  0  0  0
    5.2080    1.3270   17.7800 C   0  0  0  0  0  0  0  0  0  0  0  0
   10.8790   -2.1570   22.0880 C   0  0  0  0  0  0  0  0  0  0  0  0
    9.9980   -1.6040   24.1470 C   0  0  0  0  0  0  0  0  0  0  0  0
    6.9550   -3.9050   23.1020 C   0  0  0  0  0  0  0  0  0  0  0  0
    6.5900   -1.8080   24.4490 O   0  0  0  0  0  0  0  0  0  0  0  0
   11.0580   -1.4910   23.2930 C   0  0  1  0  0  0  0  0  0  0  0  0
    8.1450   -0.7710   25.8180 C   0  0  0  0  0  0  0  0  0  0  0  0
   12.4090   -1.7960   23.9680 C   0  0  2  0  0  0  0  0  0  0  0  0
    7.2340   -0.4020   26.7610 O   0  0  0  0  0  0  0  0  0  0  0  0
    9.5360   -0.4960   26.3240 C   0  0  0  0  0  0  0  0  0  0  0  0
   12.3020   -2.6610   24.8390 O   0  0  0  0  0  0  0  0  0  0  0  0
   12.8470   -0.5100   24.5990 C   0  0  0  0  0  0  0  0  0  0  0  0
    9.3690    0.0180   27.6690 C   0  0  0  0  0  0  0  0  0  0  0  0
    7.8810    0.0680   27.8730 C   0  0  0  0  0  0  0  0  0  0  0  0
   13.5640   -2.9610   25.4140 C   0  0  0  0  0  0  0  0  0  0  0  0
  1  2  1  0
  2  3  2  0
  1  4  1  0
  5  2  1  6
  4  6  2  0
  4  7  1  0
  6  8  1  0
  5  9  1  0
  6 10  1  0
  7 11  2  0
  5 12  1  0
  9 13  2  0
  9 14  1  0
 10 15  2  0
 11 15  1  0
 12 16  1  0
 12 17  1  1
 15 18  1  0
 17 19  1  0
 14 20  2  0
 13 21  1  0
 16 22  1  6
 16 23  1  0
 16 24  1  0
 17 25  1  0
 18 26  1  0
 19 27  1  0
 19 28  2  0
 23 29  1  1
 20 30  1  0
 21 30  2  0
 22 31  2  0
 23 32  1  0
 24 33  1  0
 25 33  1  0
 29 34  2  0
 35 31  1  6
 32 35  1  0
 29 36  1  0
 35 37  1  0
 36 38  1  0
 36 39  2  0
 37 40  1  0
 37 41  1  1
 39 42  1  0
 38 43  1  0
 42 43  2  0
 40 44  1  0
M  END
