x0736-x2569
     RDKit          3D

 34 37  0  0  0  0  0  0  0  0999 V2000
    7.4550   -2.9800   18.9330 C   0  0  0  0  0  0  0  0  0  0  0  0
    6.5300   -3.3750   20.0590 C   0  0  0  0  0  0  0  0  0  0  0  0
    5.4970   -3.9980   19.7350 O   0  0  0  0  0  0  0  0  0  0  0  0
    6.8850   -3.1610   21.4140 N   0  0  0  0  0  0  0  0  0  0  0  0
    7.4580   -1.9930   22.1360 C   0  0  2  0  0  0  0  0  0  0  0  0
    6.3790   -4.0460   22.2970 C   0  0  0  0  0  0  0  0  0  0  0  0
    7.8180   -0.5230   21.6260 C   0  0  2  0  0  0  0  0  0  0  0  0
    8.4930   -2.5030   22.8970 C   0  0  0  0  0  0  0  0  0  0  0  0
    7.1590   -4.3860   23.4050 C   0  0  0  0  0  0  0  0  0  0  0  0
    8.5410   -0.4720   20.6650 O   0  0  0  0  0  0  0  0  0  0  0  0
    8.5950    0.2070   22.5540 C   0  0  0  0  0  0  0  0  0  0  0  0
    6.6260   -0.0410   21.2930 N   0  0  0  0  0  0  0  0  0  0  0  0
    7.8740   -3.1920   23.8790 N   0  0  0  0  0  0  0  0  0  0  0  0
    7.2750   -2.5000   24.9340 C   0  0  0  0  0  0  0  0  0  0  0  0
   10.0970   -0.0160   22.7200 C   0  0  0  0  0  0  0  0  0  0  0  0
    6.1360    0.4600   20.1020 C   0  0  0  0  0  0  0  0  0  0  0  0
    6.0620   -2.6630   25.1510 O   0  0  0  0  0  0  0  0  0  0  0  0
    8.0460   -1.5960   25.7510 C   0  0  0  0  0  0  0  0  0  0  0  0
   10.7840   -1.0170   22.0100 C   0  0  0  0  0  0  0  0  0  0  0  0
   10.8340    0.7960   23.5910 C   0  0  0  0  0  0  0  0  0  0  0  0
    6.8050    0.2430   18.9150 C   0  0  0  0  0  0  0  0  0  0  0  0
    5.0410    1.1380   20.0950 C   0  0  0  0  0  0  0  0  0  0  0  0
    8.5610   -0.4570   25.1510 O   0  0  0  0  0  0  0  0  0  0  0  0
    8.4300   -1.5700   27.0910 C   0  0  0  0  0  0  0  0  0  0  0  0
   12.1810    0.6890   23.7950 N   0  0  0  0  0  0  0  0  0  0  0  0
   12.1680   -1.1210   22.2220 C   0  0  0  0  0  0  0  0  0  0  0  0
    6.3980    0.7040   17.7260 N   0  0  0  0  0  0  0  0  0  0  0  0
    4.5220    1.6570   18.9650 C   0  0  0  0  0  0  0  0  0  0  0  0
   12.8690   -2.1130   21.5070 C   0  0  0  0  0  0  0  0  0  0  0  0
    9.1640   -0.4410   27.2830 C   0  0  0  0  0  0  0  0  0  0  0  0
    9.2400    0.2340   26.0990 C   0  0  0  0  0  0  0  0  0  0  0  0
   12.8170   -0.2660   23.1040 C   0  0  0  0  0  0  0  0  0  0  0  0
    5.2630    1.4080   17.7710 C   0  0  0  0  0  0  0  0  0  0  0  0
   13.4890   -3.1540   20.7470 N   0  0  0  0  0  0  0  0  0  0  0  0
  1  2  1  0
  2  3  2  0
  2  4  1  0
  4  5  1  0
  4  6  1  0
  5  7  1  0
  5  8  1  6
  6  9  1  0
  7 10  1  6
  7 11  1  0
  7 12  1  0
  8 13  1  0
  9 13  1  0
 13 14  1  0
 11 15  1  0
 12 16  1  0
 14 17  2  0
 14 18  1  0
 15 19  2  0
 15 20  1  0
 16 21  2  0
 16 22  1  0
 18 23  1  0
 18 24  2  0
 20 25  2  0
 19 26  1  0
 21 27  1  0
 22 28  2  0
 26 29  1  0
 24 30  1  0
 23 31  1  0
 30 31  2  0
 25 32  1  0
 26 32  2  0
 27 33  2  0
 28 33  1  0
 29 34  3  0
M  END
