x0731-x2563
     RDKit          3D

 41 45  0  0  0  0  0  0  0  0999 V2000
    0.9900   -1.0180   25.9870 C   0  0  0  0  0  0  0  0  0  0  0  0
    2.1410   -2.1150   25.9220 C   0  0  0  0  0  0  0  0  0  0  0  0
    3.4910   -1.7480   26.4780 C   0  0  0  0  0  0  0  0  0  0  0  0
    1.8090   -3.4690   25.3050 C   0  0  0  0  0  0  0  0  0  0  0  0
    2.9680   -4.4260   25.3090 C   0  0  0  0  0  0  0  0  0  0  0  0
    4.4250   -2.7890   26.3810 C   0  0  0  0  0  0  0  0  0  0  0  0
    4.2040   -4.0490   25.8430 C   0  0  0  0  0  0  0  0  0  0  0  0
    5.5440   -5.2240   25.8510 S   0  0  0  0  0  0  0  0  0  0  0  0
    6.5540   -4.7650   26.7660 O   0  0  0  0  0  0  0  0  0  0  0  0
    4.9510   -6.5350   26.0270 O   0  0  0  0  0  0  0  0  0  0  0  0
    6.1700   -5.2120   24.2860 N   0  0  0  0  0  0  0  0  0  0  0  0
    7.3510   -4.5130   23.9250 C   0  0  0  0  0  0  0  0  0  0  0  0
    5.4550   -5.9350   23.2750 C   0  0  0  0  0  0  0  0  0  0  0  0
    7.5190   -4.5660   22.5320 C   0  0  0  0  0  0  0  0  0  0  0  0
    5.0250   -5.0110   22.3480 C   0  0  0  0  0  0  0  0  0  0  0  0
    6.3040   -4.2230   21.9570 C   0  0  0  0  0  0  0  0  0  0  0  0
    6.3170   -4.4280   20.4350 C   0  0  0  0  0  0  0  0  0  0  0  0
    6.0610   -2.6980   22.0350 C   0  0  0  0  0  0  0  0  0  0  0  0
    5.6620   -5.3660   20.0110 O   0  0  0  0  0  0  0  0  0  0  0  0
    7.0760   -3.4830   19.4680 C   0  0  0  0  0  0  0  0  0  0  0  0
    7.4120   -1.9100   21.8800 C   0  0  0  0  0  0  0  0  0  0  0  0
    7.2400   -0.4230   21.4680 C   0  0  1  0  0  0  0  0  0  0  0  0
    8.5980    0.2640   21.3910 C   0  0  0  0  0  0  0  0  0  0  0  0
    6.5020    0.0280   20.2100 C   0  0  0  0  0  0  0  0  0  0  0  0
    8.7190    1.4550   21.0720 O   0  0  0  0  0  0  0  0  0  0  0  0
    9.5900   -0.6080   21.7070 N   0  0  0  0  0  0  0  0  0  0  0  0
    5.3070    0.7220   20.3480 C   0  0  0  0  0  0  0  0  0  0  0  0
    6.9230   -0.1600   18.9230 C   0  0  0  0  0  0  0  0  0  0  0  0
    6.3010    0.2760   17.8110 N   0  0  0  0  0  0  0  0  0  0  0  0
    4.5680    1.2260   19.2930 C   0  0  0  0  0  0  0  0  0  0  0  0
    4.7630    0.9670   21.6140 C   0  0  0  0  0  0  0  0  0  0  0  0
   10.4210   -0.4740   22.7980 C   0  0  0  0  0  0  0  0  0  0  0  0
    5.0820    1.0000   18.0290 C   0  0  0  0  0  0  0  0  0  0  0  0
    3.4160    1.9070   19.4270 C   0  0  0  0  0  0  0  0  0  0  0  0
    3.4940    1.7090   21.8110 C   0  0  0  0  0  0  0  0  0  0  0  0
   11.7960   -0.5810   22.6810 C   0  0  0  0  0  0  0  0  0  0  0  0
    9.8090   -0.2370   23.9820 C   0  0  0  0  0  0  0  0  0  0  0  0
    2.8390    2.1670   20.7320 C   0  0  0  0  0  0  0  0  0  0  0  0
   12.5350   -0.4510   23.7500 C   0  0  0  0  0  0  0  0  0  0  0  0
   10.6150   -0.1190   25.0500 C   0  0  0  0  0  0  0  0  0  0  0  0
   11.9570   -0.2320   24.9080 C   0  0  0  0  0  0  0  0  0  0  0  0
  1  2  1  0
  2  3  2  0
  2  4  1  0
  4  5  2  0
  3  6  1  0
  5  7  1  0
  6  7  2  0
  8  7  1  0
  8  9  2  0
  8 10  2  0
  8 11  1  0
 11 12  1  0
 11 13  1  0
 12 14  1  0
 13 15  1  0
 14 16  1  0
 15 16  1  0
 16 17  1  0
 16 18  1  0
 17 19  2  0
 17 20  1  0
 18 21  1  0
 22 21  1  6
 22 23  1  0
 22 24  1  0
 23 25  2  0
 23 26  1  0
 24 27  1  0
 24 28  2  0
 28 29  1  0
 27 30  2  0
 27 31  1  0
 26 32  1  0
 29 33  2  0
 30 33  1  0
 30 34  1  0
 31 35  2  0
 32 36  2  0
 32 37  1  0
 34 38  2  0
 35 38  1  0
 36 39  1  0
 37 40  2  0
 39 41  2  0
 40 41  1  0
M  END
