x0731-x2581
     RDKit          3D

 43 47  0  0  0  0  0  0  0  0999 V2000
    1.0210   -0.9960   26.1340 C   0  0  0  0  0  0  0  0  0  0  0  0
    2.1020   -2.0340   26.0410 C   0  0  0  0  0  0  0  0  0  0  0  0
    3.3750   -1.7650   26.5320 C   0  0  0  0  0  0  0  0  0  0  0  0
    1.8180   -3.3780   25.4260 C   0  0  0  0  0  0  0  0  0  0  0  0
    2.7780   -4.3920   25.3320 C   0  0  0  0  0  0  0  0  0  0  0  0
    4.2720   -2.8330   26.4000 C   0  0  0  0  0  0  0  0  0  0  0  0
    3.9970   -4.0830   25.8380 C   0  0  0  0  0  0  0  0  0  0  0  0
    5.1340   -5.4270   25.7050 S   0  0  0  0  0  0  0  0  0  0  0  0
    6.2110   -5.1040   26.6020 O   0  0  0  0  0  0  0  0  0  0  0  0
    4.4610   -6.6950   25.8850 O   0  0  0  0  0  0  0  0  0  0  0  0
    5.6470   -5.3910   24.2550 N   0  0  0  0  0  0  0  0  0  0  0  0
    6.3870   -4.2710   23.7920 C   0  0  0  0  0  0  0  0  0  0  0  0
    5.1280   -6.2710   23.2730 C   0  0  0  0  0  0  0  0  0  0  0  0
    7.3730   -4.6040   22.8910 C   0  0  2  0  0  0  0  0  0  0  0  0
    5.9900   -6.4570   22.1860 C   0  0  0  0  0  0  0  0  0  0  0  0
    8.0980   -3.2920   22.5870 C   0  0  0  0  0  0  0  0  0  0  0  0
    6.6940   -5.2580   21.7520 N   0  0  0  0  0  0  0  0  0  0  0  0
    6.2870   -4.6310   20.5510 C   0  0  0  0  0  0  0  0  0  0  0  0
    9.0310   -2.9370   23.7400 C   0  0  0  0  0  0  0  0  0  0  0  0
    5.2970   -5.0940   20.0050 O   0  0  0  0  0  0  0  0  0  0  0  0
    6.9940   -3.4800   19.8370 C   0  0  0  0  0  0  0  0  0  0  0  0
   10.3150   -2.3200   23.3310 C   0  0  0  0  0  0  0  0  0  0  0  0
   10.3220   -1.1810   23.7650 O   0  0  0  0  0  0  0  0  0  0  0  0
    9.9100   -0.1680   22.9650 C   0  0  0  0  0  0  0  0  0  0  0  0
   10.4470    1.0960   22.9230 C   0  0  0  0  0  0  0  0  0  0  0  0
    8.8720   -0.3780   22.1190 C   0  0  0  0  0  0  0  0  0  0  0  0
    9.9660    2.0870   22.1120 C   0  0  0  0  0  0  0  0  0  0  0  0
    8.4560    0.6460   21.3390 C   0  0  0  0  0  0  0  0  0  0  0  0
   10.5180    3.3450   22.0920 N   0  0  0  0  0  0  0  0  0  0  0  0
    8.9390    1.8960   21.2750 N   0  0  0  0  0  0  0  0  0  0  0  0
   11.2190    4.0810   23.1140 C   0  0  0  0  0  0  0  0  0  0  0  0
   11.1400    3.7220   24.2690 O   0  0  0  0  0  0  0  0  0  0  0  0
   11.9800    5.3240   22.6850 C   0  0  0  0  0  0  0  0  0  0  0  0
   11.1730    6.4610   23.3180 C   0  0  0  0  0  0  0  0  0  0  0  0
    9.8960    6.8350   22.8350 C   0  0  0  0  0  0  0  0  0  0  0  0
   11.6320    7.2730   24.5060 C   0  0  0  0  0  0  0  0  0  0  0  0
    9.0570    7.8750   23.3620 C   0  0  0  0  0  0  0  0  0  0  0  0
   10.8760    8.2480   25.0100 C   0  0  0  0  0  0  0  0  0  0  0  0
    9.5470    8.5470   24.4060 C   0  0  0  0  0  0  0  0  0  0  0  0
   11.3380    8.9880   26.0980 C   0  0  0  0  0  0  0  0  0  0  0  0
    8.8530    9.7060   25.1250 C   0  0  0  0  0  0  0  0  0  0  0  0
   10.6700   10.0060   26.6890 C   0  0  0  0  0  0  0  0  0  0  0  0
    9.4400   10.4000   26.2440 C   0  0  0  0  0  0  0  0  0  0  0  0
  1  2  1  0
  2  3  2  0
  2  4  1  0
  4  5  2  0
  3  6  1  0
  5  7  1  0
  6  7  2  0
  8  7  1  0
  8  9  2  0
  8 10  2  0
  8 11  1  0
 11 12  1  0
 11 13  1  0
 12 14  1  0
 13 15  1  0
 14 16  1  6
 14 17  1  0
 15 17  1  0
 17 18  1  0
 16 19  1  0
 18 20  2  0
 18 21  1  0
 19 22  1  0
 22 23  1  0
 23 24  1  0
 24 25  2  0
 24 26  1  0
 25 27  1  0
 26 28  2  0
 27 29  1  0
 27 30  2  0
 28 30  1  0
 29 31  1  0
 31 32  2  0
 31 33  1  0
 33 34  1  0
 34 35  2  0
 34 36  1  0
 35 37  1  0
 36 38  2  0
 37 39  2  0
 38 39  1  0
 38 40  1  0
 39 41  1  0
 40 42  2  0
 41 43  2  0
 42 43  1  0
M  END
